
  -OEChem-04042321203D

 85 94  0     1  0  0  0  0  0999 V2000
  -22.8029  -18.0946   24.5730 C   0  0  0  0  0  0  0  0  0  0  0  0
  -23.2527  -18.8246   23.4775 C   0  0  0  0  0  0  0  0  0  0  0  0
  -27.3083  -12.5036   21.4755 C   0  0  0  0  0  0  0  0  0  0  0  0
  -26.8207  -13.7413   19.4587 C   0  0  0  0  0  0  0  0  0  0  0  0
  -21.6464  -18.4889   25.2446 C   0  0  0  0  0  0  0  0  0  0  0  0
  -22.5457  -19.9486   23.0521 C   0  0  0  0  0  0  0  0  0  0  0  0
  -25.5745  -23.8744   22.0229 C   0  0  0  0  0  0  0  0  0  0  0  0
  -30.1095  -23.0280   19.2610 C   0  0  0  0  0  0  0  0  0  0  0  0
  -29.5866  -23.9227   18.3273 C   0  0  0  0  0  0  0  0  0  0  0  0
  -26.4714  -11.4738   21.0459 C   0  0  0  0  0  0  0  0  0  0  0  0
  -25.9838  -12.7115   19.0290 C   0  0  0  0  0  0  0  0  0  0  0  0
  -26.2555  -23.8515   20.8066 C   0  0  0  0  0  0  0  0  0  0  0  0
  -24.1811   -8.6779   20.6445 C   0  0  0  0  0  0  0  0  0  0  0  0
  -23.2924   -8.1330   21.5712 C   0  0  0  0  0  0  0  0  0  0  0  0
  -24.6132  -25.3472   19.8658 C   0  0  0  0  0  0  0  0  0  0  0  0
  -30.1196  -24.7752   20.9296 C   0  0  0  0  0  0  0  0  0  0  0  0
  -22.2616  -10.2993   21.8565 C   0  0  0  0  0  0  0  0  0  0  0  0
  -27.4829  -13.6374   20.6820 C   0  0  0  0  0  0  0  0  0  0  0  0
  -29.7255  -14.8378   20.8754 C   0  0  0  0  0  0  0  0  0  0  0  0
  -20.9301  -19.6240   24.8332 C   0  0  0  0  0  0  0  0  0  0  0  0
  -24.3997  -24.6266   22.1669 C   0  0  0  0  0  0  0  0  0  0  0  0
  -21.3777  -20.3577   23.7180 C   0  0  0  0  0  0  0  0  0  0  0  0
  -23.9206  -25.3800   21.0858 C   0  0  0  0  0  0  0  0  0  0  0  0
  -30.3760  -23.4543   20.5622 C   0  0  0  0  0  0  0  0  0  0  0  0
  -29.5967  -25.6699   19.9959 C   0  0  0  0  0  0  0  0  0  0  0  0
  -29.3302  -25.2436   18.6948 C   0  0  0  0  0  0  0  0  0  0  0  0
  -25.8092  -11.5777   19.8226 C   0  0  0  0  0  0  0  0  0  0  0  0
  -25.7733  -24.5856   19.7269 C   0  0  0  0  0  0  0  0  0  0  0  0
  -24.1101  -10.0335   20.3238 C   0  0  0  0  0  0  0  0  0  0  0  0
  -22.3327   -8.9437   22.1772 C   0  0  0  0  0  0  0  0  0  0  0  0
  -23.1504  -10.8443   20.9298 C   0  0  0  0  0  0  0  0  0  0  0  0
  -28.3469  -14.7019   21.1255 C   0  0  0  0  0  0  0  0  0  0  0  0
  -30.0755  -16.0062   21.5069 C   0  0  0  0  0  0  0  0  0  0  0  0
  -30.6107  -13.9843   20.1382 C   0  0  0  0  0  0  0  0  0  0  0  0
  -21.3670  -23.9447   22.8315 C   0  0  0  0  0  0  0  0  0  0  0  0
  -21.0589  -27.1735   22.8810 C   0  0  0  0  0  0  0  0  0  0  0  0
  -22.2335  -30.2119   21.8635 C   0  0  0  0  0  0  0  0  0  0  0  0
  -29.0785  -21.3555   22.7469 C   0  0  0  0  0  0  0  0  0  0  0  0
  -19.6594  -19.9838   25.5614 C   0  0  0  0  0  0  0  0  0  0  0  0
  -23.6916  -24.6620   23.4934 C   0  0  0  0  0  0  0  0  0  0  0  0
  -22.6750  -26.2198   21.1945 C   0  0  0  0  0  0  0  0  0  0  0  0
  -19.1759  -21.4037   25.2777 C   0  0  0  0  0  0  0  0  0  0  0  0
  -27.4947  -18.8877   24.7663 C   0  0  0  0  0  0  0  0  0  0  0  0
  -28.9929  -27.6137   15.9580 C   0  0  0  0  0  0  0  0  0  0  0  0
  -19.2195  -21.6932   23.7807 C   0  0  0  0  0  0  0  0  0  0  0  0
  -27.6835  -17.5918   23.9757 C   0  0  0  0  0  0  0  0  0  0  0  0
  -27.5576  -27.1224   16.0210 C   0  0  0  0  0  0  0  0  0  0  0  0
  -29.5177  -27.3334   17.3608 C   0  0  0  0  0  0  0  0  0  0  0  0
  -27.2591  -20.0820   23.8443 C   0  0  0  0  0  0  0  0  0  0  0  0
  -28.4707  -18.9721   22.0075 C   0  0  0  0  0  0  0  0  0  0  0  0
  -20.6519  -21.5971   23.2416 C   0  0  1  0  0  0  0  0  0  0  0  0
  -22.2219  -25.0540   23.3759 C   0  0  1  0  0  0  0  0  0  0  0  0
  -28.7671  -17.7489   22.8920 C   0  0  2  0  0  0  0  0  0  0  0  0
  -27.6332  -25.8724   16.9149 C   0  0  2  0  0  0  0  0  0  0  0  0
  -29.3317  -27.0790   20.4165 C   0  0  0  0  0  0  0  0  0  0  0  0
  -21.7499  -32.6684   22.0336 C   0  0  0  0  0  0  0  0  0  0  0  0
  -18.7820  -26.8617   20.8739 C   0  0  0  0  0  0  0  0  0  0  0  0
  -18.9822  -29.3065   20.3726 C   0  0  0  0  0  0  0  0  0  0  0  0
  -18.3660  -28.5524   22.6692 C   0  0  0  0  0  0  0  0  0  0  0  0
  -24.8299  -30.7501   23.1779 C   0  0  0  0  0  0  0  0  0  0  0  0
  -30.9351  -22.4973   21.5601 C   0  0  0  0  0  0  0  0  0  0  0  0
  -26.3486  -25.7340   17.7254 C   0  0  0  0  0  0  0  0  0  1  0  0
  -20.7379  -28.2327   21.8543 C   0  0  1  0  0  0  0  0  0  0  0  0
  -22.5092  -31.4932   22.6294 C   0  0  2  0  0  0  0  0  0  0  0  0
  -19.2394  -28.2211   21.4395 C   0  0  0  0  0  0  0  0  0  0  0  0
  -27.8546  -15.7038   21.8589 N   0  0  0  0  0  0  0  0  0  0  0  0
  -28.9298  -16.4805   22.0751 N   0  0  0  0  0  0  0  0  0  0  0  0
  -28.8126  -26.1155   17.7577 N   0  0  3  0  0  0  0  0  0  0  0  0
  -22.0146  -26.2169   22.5103 N   0  0  0  0  0  0  0  0  0  0  0  0
  -28.3224  -20.1755   22.8410 N   0  0  0  0  0  0  0  0  0  0  0  0
  -31.2483  -16.6640   21.6262 N   0  0  0  0  0  0  0  0  0  0  0  0
  -30.0865  -12.8234   19.5534 N   0  0  0  0  0  0  0  0  0  0  0  0
  -21.4017  -22.7865   23.5844 N   0  0  0  0  0  0  0  0  0  0  0  0
  -21.1919  -29.4991   22.4186 N   0  0  0  0  0  0  0  0  0  0  0  0
  -30.0704  -21.3582   21.7738 N   0  0  0  0  0  0  0  0  0  0  0  0
  -23.9650  -31.8110   22.6005 N   0  3  0  0  0  0  0  0  0  0  0  0
  -31.8337  -14.2348   20.0158 O   0  0  0  0  0  0  0  0  0  0  0  0
  -20.7225  -24.1266   21.8053 O   0  0  0  0  0  0  0  0  0  0  0  0
  -20.4882  -27.1984   23.9743 O   0  0  0  0  0  0  0  0  0  0  0  0
  -22.8754  -29.8786   20.8697 O   0  0  0  0  0  0  0  0  0  0  0  0
  -28.8876  -22.3320   23.4796 O   0  0  0  0  0  0  0  0  0  0  0  0
  -24.9926  -10.5729   19.4029 O   0  0  0  0  0  0  0  0  0  0  0  0
  -26.4357  -24.5645   18.5384 O   0  0  0  0  0  0  0  0  0  1  0  0
  -21.4783   -8.4199   23.0660 F   0  0  0  0  0  0  0  0  0  0  0  0
  -23.0765  -12.1471   20.6248 F   0  0  0  0  0  0  0  0  0  0  0  0
  1  2  1  0  0  0  0
  1  5  2  0  0  0  0
  2  6  2  0  0  0  0
  3 10  2  0  0  0  0
  3 18  1  0  0  0  0
  4 11  1  0  0  0  0
  4 18  2  0  0  0  0
  5 20  1  0  0  0  0
  6 22  1  0  0  0  0
  7 12  2  0  0  0  0
  7 21  1  0  0  0  0
  8  9  2  0  0  0  0
  8 24  1  0  0  0  0
  9 26  1  0  0  0  0
 10 27  1  0  0  0  0
 11 27  2  0  0  0  0
 12 28  1  0  0  0  0
 13 14  2  0  0  0  0
 13 29  1  0  0  0  0
 14 30  1  0  0  0  0
 15 23  1  0  0  0  0
 15 28  2  0  0  0  0
 16 24  2  0  0  0  0
 16 25  1  0  0  0  0
 17 30  2  0  0  0  0
 17 31  1  0  0  0  0
 18 32  1  0  0  0  0
 19 32  1  0  0  0  0
 19 33  2  0  0  0  0
 19 34  1  0  0  0  0
 20 22  2  0  0  0  0
 20 39  1  0  0  0  0
 21 23  2  0  0  0  0
 21 40  1  0  0  0  0
 22 51  1  0  0  0  0
 23 41  1  0  0  0  0
 24 61  1  0  0  0  0
 25 26  2  0  0  0  0
 25 55  1  0  0  0  0
 26 68  1  0  0  0  0
 27 82  1  0  0  0  0
 28 83  1  0  0  0  0
 29 31  2  0  0  0  0
 29 82  1  0  0  0  0
 30 84  1  0  0  0  0
 31 85  1  0  0  0  0
 32 66  2  0  0  0  0
 33 67  1  0  0  0  0
 33 71  1  0  0  0  0
 34 72  1  0  0  0  0
 34 77  2  0  0  0  0
 35 52  1  0  0  0  0
 35 73  1  0  0  0  0
 35 78  2  0  0  0  0
 36 63  1  0  0  0  0
 36 69  1  0  0  0  0
 36 79  2  0  0  0  0
 37 64  1  0  0  0  0
 37 74  1  0  0  0  0
 37 80  2  0  0  0  0
 38 70  1  0  0  0  0
 38 75  1  0  0  0  0
 38 81  2  0  0  0  0
 39 42  1  0  0  0  0
 40 52  1  0  0  0  0
 41 69  1  0  0  0  0
 42 45  1  0  0  0  0
 43 46  1  0  0  0  0
 43 49  1  0  0  0  0
 44 47  1  0  0  0  0
 44 48  1  0  0  0  0
 45 51  1  0  0  0  0
 46 53  1  0  0  0  0
 47 54  1  0  0  0  0
 48 68  1  0  0  0  0
 49 70  1  0  0  0  0
 50 53  1  0  0  0  0
 50 70  1  0  0  0  0
 51 73  1  0  0  0  0
 52 69  1  0  0  0  0
 53 67  1  0  0  0  0
 54 62  1  0  0  0  0
 54 68  1  0  0  0  0
 56 64  1  0  0  0  0
 57 65  1  0  0  0  0
 58 65  1  0  0  0  0
 59 65  1  0  0  0  0
 60 76  1  0  0  0  0
 61 75  1  0  0  0  0
 62 83  1  0  0  0  0
 63 65  1  0  0  0  0
 63 74  1  0  0  0  0
 64 76  1  0  0  0  0
 66 67  1  0  0  0  0
M  CHG  1  76   1
M  ISO  4  38 100  62 101  75 100  83 101
M  END
> <Batch ID>
0024

> <Smiles>
CNC(C)C(=O)NC(C(=O)N1Cc2cc([101O:1][101CH2:1]C3CCCN3c3ccc(C[100NH:0][100C:0](=O)N4CCCC(n5nc(-c6ccc(Oc7ccc(F)cc7F)cc6)c(C(N)=O)c5N)C4)cc3C)ccc2CC1C(=O)NC1CCCc2ccccc21)C(C)(C)C

> <Shape>
0.236

> <Color>
0.054

> <Negative vol penalty>
0.000

$$$$

  -OEChem-04042321203D

 85 94  0     1  0  0  0  0  0999 V2000
  -19.7291  -26.2151   26.3237 C   0  0  0  0  0  0  0  0  0  0  0  0
  -21.0256  -26.0283   25.8550 C   0  0  0  0  0  0  0  0  0  0  0  0
  -23.9693  -10.5072   23.0842 C   0  0  0  0  0  0  0  0  0  0  0  0
  -23.8474  -12.1800   24.8231 C   0  0  0  0  0  0  0  0  0  0  0  0
  -18.7324  -26.6586   25.4555 C   0  0  0  0  0  0  0  0  0  0  0  0
  -21.3258  -26.2839   24.5174 C   0  0  0  0  0  0  0  0  0  0  0  0
  -26.5656  -28.5356   22.2858 C   0  0  0  0  0  0  0  0  0  0  0  0
  -23.3534   -9.5840   23.9291 C   0  0  0  0  0  0  0  0  0  0  0  0
  -23.2314  -11.2568   25.6680 C   0  0  0  0  0  0  0  0  0  0  0  0
  -27.6753  -27.9260   21.7022 C   0  0  0  0  0  0  0  0  0  0  0  0
  -20.1465   -9.9448   26.0947 C   0  0  0  0  0  0  0  0  0  0  0  0
  -19.0334  -10.3727   26.8182 C   0  0  0  0  0  0  0  0  0  0  0  0
  -26.7629  -28.3733   19.5143 C   0  0  0  0  0  0  0  0  0  0  0  0
  -27.8950  -20.9667   19.4343 C   0  0  0  0  0  0  0  0  0  0  0  0
  -30.1002  -19.2601   19.5188 C   0  0  0  0  0  0  0  0  0  0  0  0
  -20.1846   -9.8755   28.8833 C   0  0  0  0  0  0  0  0  0  0  0  0
  -24.2164  -11.8052   23.5312 C   0  0  0  0  0  0  0  0  0  0  0  0
  -24.2239  -13.6445   21.7636 C   0  0  0  0  0  0  0  0  0  0  0  0
  -19.0227  -26.9289   24.1089 C   0  0  0  0  0  0  0  0  0  0  0  0
  -25.5392  -29.0599   21.4869 C   0  0  0  0  0  0  0  0  0  0  0  0
  -20.3317  -26.7301   23.6301 C   0  0  0  0  0  0  0  0  0  0  0  0
  -25.6425  -28.9914   20.0902 C   0  0  0  0  0  0  0  0  0  0  0  0
  -28.9600  -21.1593   18.5543 C   0  0  0  0  0  0  0  0  0  0  0  0
  -29.0352  -19.0676   20.3988 C   0  0  0  0  0  0  0  0  0  0  0  0
  -22.9844   -9.9588   25.2210 C   0  0  0  0  0  0  0  0  0  0  0  0
  -27.7728  -27.8422   20.3163 C   0  0  0  0  0  0  0  0  0  0  0  0
  -21.2786   -9.4820   26.7654 C   0  0  0  0  0  0  0  0  0  0  0  0
  -19.0525  -10.3381   28.2125 C   0  0  0  0  0  0  0  0  0  0  0  0
  -27.9326  -19.9209   20.3565 C   0  0  0  0  0  0  0  0  0  0  0  0
  -30.0626  -20.3059   18.5966 C   0  0  0  0  0  0  0  0  0  0  0  0
  -21.2977   -9.4474   28.1597 C   0  0  0  0  0  0  0  0  0  0  0  0
  -24.8532  -12.7592   22.6591 C   0  0  0  0  0  0  0  0  0  0  0  0
  -25.2581  -14.3316   21.1763 C   0  0  0  0  0  0  0  0  0  0  0  0
  -22.8292  -13.8294   21.4873 C   0  0  0  0  0  0  0  0  0  0  0  0
  -22.4404  -28.4489   21.1297 C   0  0  0  0  0  0  0  0  0  0  0  0
  -22.5473  -31.0546   19.2006 C   0  0  0  0  0  0  0  0  0  0  0  0
  -24.4066  -33.1137   17.2132 C   0  0  0  0  0  0  0  0  0  0  0  0
  -30.0957  -17.0686   21.5058 C   0  0  0  0  0  0  0  0  0  0  0  0
  -17.9017  -27.3613   23.1972 C   0  0  0  0  0  0  0  0  0  0  0  0
  -24.3615  -29.7382   22.1313 C   0  0  0  0  0  0  0  0  0  0  0  0
  -24.5775  -29.5568   19.1876 C   0  0  0  0  0  0  0  0  0  0  0  0
  -18.3853  -27.9681   21.8826 C   0  0  0  0  0  0  0  0  0  0  0  0
  -30.2520  -13.5167   21.3136 C   0  0  0  0  0  0  0  0  0  0  0  0
  -19.4815  -27.1041   21.2673 C   0  0  0  0  0  0  0  0  0  0  0  0
  -28.8095  -13.0758   21.5728 C   0  0  0  0  0  0  0  0  0  0  0  0
  -30.6339  -14.7317   22.1572 C   0  0  0  0  0  0  0  0  0  0  0  0
  -28.2776  -15.4350   22.3067 C   0  0  0  0  0  0  0  0  0  0  0  0
  -29.2811  -24.1523   19.1050 C   0  0  0  0  0  0  0  0  0  0  0  0
  -29.5520  -24.6006   17.0827 C   0  0  0  0  0  0  0  0  0  0  0  0
  -20.7021  -27.0202   22.1918 C   0  0  1  0  0  0  0  0  0  0  0  0
  -23.1302  -29.7799   21.2316 C   0  0  1  0  0  0  0  0  0  0  0  0
  -29.6369  -25.4582   18.3632 C   0  0  0  0  0  0  0  0  0  0  0  0
  -27.8261  -14.2542   21.4317 C   0  0  2  0  0  0  0  0  0  0  0  0
  -24.2085  -35.1355   15.7400 C   0  0  0  0  0  0  0  0  0  0  0  0
  -21.2697  -29.3402   17.0237 C   0  0  0  0  0  0  0  0  0  0  0  0
  -21.9627  -31.0701   15.3519 C   0  0  0  0  0  0  0  0  0  0  0  0
  -20.3725  -31.6695   17.1780 C   0  0  0  0  0  0  0  0  0  0  0  0
  -26.2844  -34.6657   18.8937 C   0  0  0  0  0  0  0  0  0  0  0  0
  -28.9160  -22.2846   17.5631 C   0  0  0  0  0  0  0  0  0  0  0  0
  -28.6529  -26.6055   18.4855 C   0  0  0  0  0  0  0  0  0  1  0  0
  -22.8096  -31.2877   17.7323 C   0  0  1  0  0  0  0  0  0  0  0  0
  -24.5039  -34.6270   17.1425 C   0  0  2  0  0  0  0  0  0  0  0  0
  -21.6229  -30.8294   16.8382 C   0  0  0  0  0  0  0  0  0  0  0  0
  -26.1840  -12.8713   22.6453 N   0  0  0  0  0  0  0  0  0  0  0  0
  -26.3995  -13.8351   21.7338 N   0  0  0  0  0  0  0  0  0  0  0  0
  -23.4425  -30.2046   19.8655 N   0  0  0  0  0  0  0  0  0  0  0  0
  -29.6600  -15.8092   21.9693 N   0  0  0  0  0  0  0  0  0  0  0  0
  -25.2933  -15.3058   20.2425 N   0  0  0  0  0  0  0  0  0  0  0  0
  -21.9006  -13.0406   22.1800 N   0  0  0  0  0  0  0  0  0  0  0  0
  -29.0761  -18.0042   21.3344 N   0  0  0  0  0  0  0  0  0  0  0  0
  -21.4859  -28.2338   22.1055 N   0  0  0  0  0  0  0  0  0  0  0  0
  -23.1486  -32.7002   17.5974 N   0  0  0  0  0  0  0  0  0  0  0  0
  -29.7942  -23.4163   17.9317 N   0  3  0  0  0  0  0  0  0  0  0  0
  -25.8716  -35.0767   17.5271 N   0  3  0  0  0  0  0  0  0  0  0  0
  -22.4194  -14.6577   20.6391 O   0  0  0  0  0  0  0  0  0  0  0  0
  -22.7501  -27.6751   20.2314 O   0  0  0  0  0  0  0  0  0  0  0  0
  -21.5877  -31.6119   19.7394 O   0  0  0  0  0  0  0  0  0  0  0  0
  -25.3510  -32.3725   16.9502 O   0  0  0  0  0  0  0  0  0  0  0  0
  -31.2822  -17.2916   21.2518 O   0  0  0  0  0  0  0  0  0  0  0  0
  -22.3831   -9.0582   26.0457 O   0  0  0  0  0  0  0  0  0  0  0  0
  -28.8546  -27.2471   19.7441 O   0  0  0  0  0  0  0  0  0  1  0  0
  -17.9841  -10.7506   28.9073 F   0  0  0  0  0  0  0  0  0  0  0  0
  -26.9034  -19.7453   21.1977 F   0  0  0  0  0  0  0  0  0  0  0  0
  -31.0906  -20.4832   17.7552 F   0  0  0  0  0  0  0  0  0  0  0  0
  -22.3829   -9.0051   28.8097 F   0  0  0  0  0  0  0  0  0  0  0  0
  1  2  1  0  0  0  0
  1  5  2  0  0  0  0
  2  6  2  0  0  0  0
  3  8  2  0  0  0  0
  3 17  1  0  0  0  0
  4  9  1  0  0  0  0
  4 17  2  0  0  0  0
  5 19  1  0  0  0  0
  6 21  1  0  0  0  0
  7 10  2  0  0  0  0
  7 20  1  0  0  0  0
  8 25  1  0  0  0  0
  9 25  2  0  0  0  0
 10 26  1  0  0  0  0
 11 12  2  0  0  0  0
 11 27  1  0  0  0  0
 12 28  1  0  0  0  0
 13 22  1  0  0  0  0
 13 26  2  0  0  0  0
 14 23  1  0  0  0  0
 14 29  2  0  0  0  0
 15 24  2  0  0  0  0
 15 30  1  0  0  0  0
 16 28  2  0  0  0  0
 16 31  1  0  0  0  0
 17 32  1  0  0  0  0
 18 32  1  0  0  0  0
 18 33  2  0  0  0  0
 18 34  1  0  0  0  0
 19 21  2  0  0  0  0
 19 39  1  0  0  0  0
 20 22  2  0  0  0  0
 20 40  1  0  0  0  0
 21 50  1  0  0  0  0
 22 41  1  0  0  0  0
 23 30  2  0  0  0  0
 23 59  1  0  0  0  0
 24 29  1  0  0  0  0
 24 70  1  0  0  0  0
 25 80  1  0  0  0  0
 26 81  1  0  0  0  0
 27 31  2  0  0  0  0
 27 80  1  0  0  0  0
 28 82  1  0  0  0  0
 29 83  1  0  0  0  0
 30 84  1  0  0  0  0
 31 85  1  0  0  0  0
 32 64  2  0  0  0  0
 33 65  1  0  0  0  0
 33 68  1  0  0  0  0
 34 69  1  0  0  0  0
 34 75  2  0  0  0  0
 35 51  1  0  0  0  0
 35 71  1  0  0  0  0
 35 76  2  0  0  0  0
 36 61  1  0  0  0  0
 36 66  1  0  0  0  0
 36 77  2  0  0  0  0
 37 62  1  0  0  0  0
 37 72  1  0  0  0  0
 37 78  2  0  0  0  0
 38 67  1  0  0  0  0
 38 70  1  0  0  0  0
 38 79  2  0  0  0  0
 39 42  1  0  0  0  0
 40 51  1  0  0  0  0
 41 66  1  0  0  0  0
 42 44  1  0  0  0  0
 43 45  1  0  0  0  0
 43 46  1  0  0  0  0
 44 50  1  0  0  0  0
 45 53  1  0  0  0  0
 46 67  1  0  0  0  0
 47 53  1  0  0  0  0
 47 67  1  0  0  0  0
 48 52  1  0  0  0  0
 48 73  1  0  0  0  0
 49 52  1  0  0  0  0
 49 73  1  0  0  0  0
 50 71  1  0  0  0  0
 51 66  1  0  0  0  0
 52 60  1  0  0  0  0
 53 65  1  0  0  0  0
 54 62  1  0  0  0  0
 55 63  1  0  0  0  0
 56 63  1  0  0  0  0
 57 63  1  0  0  0  0
 58 74  1  0  0  0  0
 59 73  1  0  0  0  0
 60 81  1  0  0  0  0
 61 63  1  0  0  0  0
 61 72  1  0  0  0  0
 62 74  1  0  0  0  0
 64 65  1  0  0  0  0
M  CHG  2  73   1  74   1
M  ISO  4  38 100  60 101  70 100  81 101
M  END
> <Batch ID>
0024

> <Smiles>
CNC(C)C(=O)NC(C(=O)N1Cc2cc([101O:1][101CH2:1]C3CN(Cc4cc(F)c([100NH:0][100C:0](=O)N5CCCC(n6nc(-c7ccc(Oc8ccc(F)cc8F)cc7)c(C(N)=O)c6N)C5)cc4F)C3)ccc2CC1C(=O)NC1CCCc2ccccc21)C(C)(C)C

> <Shape>
0.242

> <Color>
0.130

> <Negative vol penalty>
0.000

$$$$

  -OEChem-04042321203D

 86 95  0     1  0  0  0  0  0999 V2000
  -33.0241  -24.8758   19.0848 C   0  0  0  0  0  0  0  0  0  0  0  0
  -31.6849  -24.7503   19.4400 C   0  0  0  0  0  0  0  0  0  0  0  0
  -22.9893  -10.0278   20.0555 C   0  0  0  0  0  0  0  0  0  0  0  0
  -24.4418   -9.4019   21.8819 C   0  0  0  0  0  0  0  0  0  0  0  0
  -33.8059  -25.8768   19.6600 C   0  0  0  0  0  0  0  0  0  0  0  0
  -31.1269  -25.6251   20.3715 C   0  0  0  0  0  0  0  0  0  0  0  0
  -26.5864  -27.3507   18.9393 C   0  0  0  0  0  0  0  0  0  0  0  0
  -24.9938  -20.5516   21.7114 C   0  0  0  0  0  0  0  0  0  0  0  0
  -25.8049  -19.4197   21.6323 C   0  0  0  0  0  0  0  0  0  0  0  0
  -21.9566   -9.2794   20.6204 C   0  0  0  0  0  0  0  0  0  0  0  0
  -23.4091   -8.6536   22.4468 C   0  0  0  0  0  0  0  0  0  0  0  0
  -25.4989  -26.4938   19.1033 C   0  0  0  0  0  0  0  0  0  0  0  0
  -21.9696   -5.6325   21.9648 C   0  0  0  0  0  0  0  0  0  0  0  0
  -22.2771   -4.3565   22.4367 C   0  0  0  0  0  0  0  0  0  0  0  0
  -24.8930  -27.6598   21.1263 C   0  0  0  0  0  0  0  0  0  0  0  0
  -23.5068  -19.6016   20.0612 C   0  0  0  0  0  0  0  0  0  0  0  0
  -21.5739   -5.0072   24.6546 C   0  0  0  0  0  0  0  0  0  0  0  0
  -24.2320  -10.0890   20.6863 C   0  0  0  0  0  0  0  0  0  0  0  0
  -25.8840  -10.6817   18.8350 C   0  0  0  0  0  0  0  0  0  0  0  0
  -33.2547  -26.7704   20.5919 C   0  0  0  0  0  0  0  0  0  0  0  0
  -26.8421  -28.3634   19.8750 C   0  0  0  0  0  0  0  0  0  0  0  0
  -31.9023  -26.6382   20.9608 C   0  0  0  0  0  0  0  0  0  0  0  0
  -25.9829  -28.5298   20.9705 C   0  0  0  0  0  0  0  0  0  0  0  0
  -23.8447  -20.6426   20.9259 C   0  0  0  0  0  0  0  0  0  0  0  0
  -25.4671  -18.3787   20.7676 C   0  0  0  0  0  0  0  0  0  0  0  0
  -22.1664   -8.5923   21.8160 C   0  0  0  0  0  0  0  0  0  0  0  0
  -24.6536  -26.6465   20.1985 C   0  0  0  0  0  0  0  0  0  0  0  0
  -21.4644   -6.5960   22.8378 C   0  0  0  0  0  0  0  0  0  0  0  0
  -22.0792   -4.0438   23.7815 C   0  0  0  0  0  0  0  0  0  0  0  0
  -24.3180  -18.4696   19.9820 C   0  0  0  0  0  0  0  0  0  0  0  0
  -21.2665   -6.2834   24.1827 C   0  0  0  0  0  0  0  0  0  0  0  0
  -25.2993  -10.8614   20.1030 C   0  0  0  0  0  0  0  0  0  0  0  0
  -26.8440  -11.6609   18.7578 C   0  0  0  0  0  0  0  0  0  0  0  0
  -23.5552  -23.0748   21.3233 C   0  0  0  0  0  0  0  0  0  0  0  0
  -25.5859   -9.7161   17.8180 C   0  0  0  0  0  0  0  0  0  0  0  0
  -29.2375  -29.0373   21.8527 C   0  0  0  0  0  0  0  0  0  0  0  0
  -27.5140  -31.7306   22.3984 C   0  0  0  0  0  0  0  0  0  0  0  0
  -24.0394  -32.5849   22.8614 C   0  0  0  0  0  0  0  0  0  0  0  0
  -27.4674  -16.9840   21.3999 C   0  0  0  0  0  0  0  0  0  0  0  0
  -34.1512  -27.8065   21.2221 C   0  0  0  0  0  0  0  0  0  0  0  0
  -28.0038  -29.2963   19.6694 C   0  0  0  0  0  0  0  0  0  0  0  0
  -26.2020  -29.6142   21.9926 C   0  0  0  0  0  0  0  0  0  0  0  0
  -33.3878  -28.9286   21.9209 C   0  0  0  0  0  0  0  0  0  0  0  0
  -20.6558  -22.7335   21.0651 C   0  0  0  0  0  0  0  0  0  0  0  0
  -29.7655  -14.2669   21.5160 C   0  0  0  0  0  0  0  0  0  0  0  0
  -32.2758  -28.3550   22.7934 C   0  0  0  0  0  0  0  0  0  0  0  0
  -21.2678  -24.1127   20.9468 C   0  0  0  0  0  0  0  0  0  0  0  0
  -28.9358  -13.0701   21.0456 C   0  0  0  0  0  0  0  0  0  0  0  0
  -21.6188  -21.6925   20.5214 C   0  0  0  0  0  0  0  0  0  0  0  0
  -28.9395  -15.2306   22.3662 C   0  0  0  0  0  0  0  0  0  0  0  0
  -26.8571  -14.4883   21.2789 C   0  0  0  0  0  0  0  0  0  0  0  0
  -31.2544  -27.5835   21.9490 C   0  0  1  0  0  0  0  0  0  0  0  0
  -22.5533  -24.1491   21.7595 C   0  0  2  0  0  0  0  0  0  0  0  0
  -28.4668  -29.9672   20.9589 C   0  0  1  0  0  0  0  0  0  0  0  0
  -27.6292  -13.5227   20.3650 C   0  0  2  0  0  0  0  0  0  0  0  0
  -22.8118  -34.7268   22.4108 C   0  0  0  0  0  0  0  0  0  0  0  0
  -28.0813  -32.3353   25.3348 C   0  0  0  0  0  0  0  0  0  0  0  0
  -25.8017  -33.3585   25.4924 C   0  0  0  0  0  0  0  0  0  0  0  0
  -27.5018  -34.3361   23.9508 C   0  0  0  0  0  0  0  0  0  0  0  0
  -22.0633  -31.2234   21.1292 C   0  0  0  0  0  0  0  0  0  0  0  0
  -23.1738  -25.5452   21.6996 C   0  0  0  0  0  0  0  0  0  1  0  0
  -26.4244  -32.1249   23.3659 C   0  0  1  0  0  0  0  0  0  0  0  0
  -23.1516  -33.3396   21.8883 C   0  0  2  0  0  0  0  0  0  0  0  0
  -26.9555  -33.0118   24.5273 C   0  0  0  0  0  0  0  0  0  0  0  0
  -25.8426  -11.8749   20.7824 N   0  0  0  0  0  0  0  0  0  0  0  0
  -26.7788  -12.3409   19.9383 N   0  0  0  0  0  0  0  0  0  0  0  0
  -23.0033  -21.8172   21.0074 N   0  0  0  0  0  0  0  0  0  0  0  0
  -27.3551  -30.4972   21.7510 N   0  0  0  0  0  0  0  0  0  0  0  0
  -27.7193  -15.6195   21.6557 N   0  0  0  0  0  0  0  0  0  0  0  0
  -27.7292  -11.9980   17.7959 N   0  0  0  0  0  0  0  0  0  0  0  0
  -24.5696   -8.7820   18.0608 N   0  0  0  0  0  0  0  0  0  0  0  0
  -26.2934  -17.2303   20.6890 N   0  0  0  0  0  0  0  0  0  0  0  0
  -30.3676  -28.5008   21.2659 N   0  0  0  0  0  0  0  0  0  0  0  0
  -25.3762  -32.7510   22.5673 N   0  0  0  0  0  0  0  0  0  0  0  0
  -21.8791  -32.5967   21.6650 N   0  3  0  0  0  0  0  0  0  0  0  0
  -24.7628  -23.3276   21.3337 O   0  0  0  0  0  0  0  0  0  0  0  0
  -26.2136   -9.6722   16.7328 O   0  0  0  0  0  0  0  0  0  0  0  0
  -28.8372  -28.8235   22.9911 O   0  0  0  0  0  0  0  0  0  0  0  0
  -28.4674  -32.4924   22.2181 O   0  0  0  0  0  0  0  0  0  0  0  0
  -23.5918  -31.9181   23.7917 O   0  0  0  0  0  0  0  0  0  0  0  0
  -28.2504  -17.8670   21.7596 O   0  0  0  0  0  0  0  0  0  0  0  0
  -21.1588   -7.8622   22.3676 O   0  0  0  0  0  0  0  0  0  0  0  0
  -23.5918  -25.8111   20.3613 O   0  0  0  0  0  0  0  0  0  1  0  0
  -22.3731   -2.8179   24.2342 F   0  0  0  0  0  0  0  0  0  0  0  0
  -23.9843  -17.4757   19.1461 F   0  0  0  0  0  0  0  0  0  0  0  0
  -20.7802   -7.2044   25.0259 F   0  0  0  0  0  0  0  0  0  0  0  0
  1  2  1  0  0  0  0
  1  5  2  0  0  0  0
  2  6  2  0  0  0  0
  3 10  2  0  0  0  0
  3 18  1  0  0  0  0
  4 11  1  0  0  0  0
  4 18  2  0  0  0  0
  5 20  1  0  0  0  0
  6 22  1  0  0  0  0
  7 12  2  0  0  0  0
  7 21  1  0  0  0  0
  8  9  2  0  0  0  0
  8 24  1  0  0  0  0
  9 25  1  0  0  0  0
 10 26  1  0  0  0  0
 11 26  2  0  0  0  0
 12 27  1  0  0  0  0
 13 14  2  0  0  0  0
 13 28  1  0  0  0  0
 14 29  1  0  0  0  0
 15 23  1  0  0  0  0
 15 27  2  0  0  0  0
 16 24  2  0  0  0  0
 16 30  1  0  0  0  0
 17 29  2  0  0  0  0
 17 31  1  0  0  0  0
 18 32  1  0  0  0  0
 19 32  1  0  0  0  0
 19 33  2  0  0  0  0
 19 35  1  0  0  0  0
 20 22  2  0  0  0  0
 20 40  1  0  0  0  0
 21 23  2  0  0  0  0
 21 41  1  0  0  0  0
 22 52  1  0  0  0  0
 23 42  1  0  0  0  0
 24 67  1  0  0  0  0
 25 30  2  0  0  0  0
 25 72  1  0  0  0  0
 26 82  1  0  0  0  0
 27 83  1  0  0  0  0
 28 31  2  0  0  0  0
 28 82  1  0  0  0  0
 29 84  1  0  0  0  0
 30 85  1  0  0  0  0
 31 86  1  0  0  0  0
 32 65  2  0  0  0  0
 33 66  1  0  0  0  0
 33 70  1  0  0  0  0
 34 53  1  0  0  0  0
 34 67  1  0  0  0  0
 34 76  2  0  0  0  0
 35 71  1  0  0  0  0
 35 77  2  0  0  0  0
 36 54  1  0  0  0  0
 36 73  1  0  0  0  0
 36 78  2  0  0  0  0
 37 62  1  0  0  0  0
 37 68  1  0  0  0  0
 37 79  2  0  0  0  0
 38 63  1  0  0  0  0
 38 74  1  0  0  0  0
 38 80  2  0  0  0  0
 39 69  1  0  0  0  0
 39 72  1  0  0  0  0
 39 81  2  0  0  0  0
 40 43  1  0  0  0  0
 41 54  1  0  0  0  0
 42 68  1  0  0  0  0
 43 46  1  0  0  0  0
 44 47  1  0  0  0  0
 44 49  1  0  0  0  0
 45 48  1  0  0  0  0
 45 50  1  0  0  0  0
 46 52  1  0  0  0  0
 47 53  1  0  0  0  0
 48 55  1  0  0  0  0
 49 67  1  0  0  0  0
 50 69  1  0  0  0  0
 51 55  1  0  0  0  0
 51 69  1  0  0  0  0
 52 73  1  0  0  0  0
 53 61  1  0  0  0  0
 54 68  1  0  0  0  0
 55 66  1  0  0  0  0
 56 63  1  0  0  0  0
 57 64  1  0  0  0  0
 58 64  1  0  0  0  0
 59 64  1  0  0  0  0
 60 75  1  0  0  0  0
 61 83  1  0  0  0  0
 62 64  1  0  0  0  0
 62 74  1  0  0  0  0
 63 75  1  0  0  0  0
 65 66  1  0  0  0  0
M  CHG  1  75   1
M  ISO  4  39 100  61 101  72 100  83 101
M  END
> <Batch ID>
0024

> <Smiles>
CNC(C)C(=O)NC(C(=O)N1Cc2cc([101O:1][101CH2:1]C3CCCN(c4ccc([100NH:0][100C:0](=O)N5CCCC(n6nc(-c7ccc(Oc8ccc(F)cc8F)cc7)c(C(N)=O)c6N)C5)c(F)c4)C3=O)ccc2CC1C(=O)NC1CCCc2ccccc21)C(C)(C)C

> <Shape>
0.247

> <Color>
0.088

> <Negative vol penalty>
0.000

$$$$

  -OEChem-04042321203D

 86 95  0     1  0  0  0  0  0999 V2000
  -21.9641  -11.5294   21.3890 C   0  0  0  0  0  0  0  0  0  0  0  0
  -21.8812  -12.7910   21.9695 C   0  0  0  0  0  0  0  0  0  0  0  0
  -29.9675  -28.8474   23.7238 C   0  0  0  0  0  0  0  0  0  0  0  0
  -28.5869  -27.0143   24.4792 C   0  0  0  0  0  0  0  0  0  0  0  0
  -23.1535  -11.1154   20.7908 C   0  0  0  0  0  0  0  0  0  0  0  0
  -22.9881  -13.6389   21.9530 C   0  0  0  0  0  0  0  0  0  0  0  0
  -21.7778  -18.3892   20.6823 C   0  0  0  0  0  0  0  0  0  0  0  0
  -30.8351  -28.6356   24.7952 C   0  0  0  0  0  0  0  0  0  0  0  0
  -29.4546  -26.8024   25.5507 C   0  0  0  0  0  0  0  0  0  0  0  0
  -21.1935  -19.1829   21.6684 C   0  0  0  0  0  0  0  0  0  0  0  0
  -32.4576  -25.3424   26.0707 C   0  0  0  0  0  0  0  0  0  0  0  0
  -32.8290  -24.0276   26.3517 C   0  0  0  0  0  0  0  0  0  0  0  0
  -23.3272  -20.2298   22.0814 C   0  0  0  0  0  0  0  0  0  0  0  0
  -18.3119  -26.5610   21.8696 C   0  0  0  0  0  0  0  0  0  0  0  0
  -19.4231  -28.6945   21.6446 C   0  0  0  0  0  0  0  0  0  0  0  0
  -31.8727  -24.2298   28.5612 C   0  0  0  0  0  0  0  0  0  0  0  0
  -28.8434  -28.0368   23.5658 C   0  0  0  0  0  0  0  0  0  0  0  0
  -28.0179  -27.6740   21.1795 C   0  0  0  0  0  0  0  0  0  0  0  0
  -24.2725  -11.9624   20.7585 C   0  0  0  0  0  0  0  0  0  0  0  0
  -23.1457  -18.5024   20.3954 C   0  0  0  0  0  0  0  0  0  0  0  0
  -24.1940  -13.2353   21.3550 C   0  0  0  0  0  0  0  0  0  0  0  0
  -23.9258  -19.4382   21.0895 C   0  0  0  0  0  0  0  0  0  0  0  0
  -19.3515  -26.1050   22.6800 C   0  0  0  0  0  0  0  0  0  0  0  0
  -20.4627  -28.2385   22.4551 C   0  0  0  0  0  0  0  0  0  0  0  0
  -30.5787  -27.6131   25.7087 C   0  0  0  0  0  0  0  0  0  0  0  0
  -21.9688  -20.1014   22.3702 C   0  0  0  0  0  0  0  0  0  0  0  0
  -31.7939  -26.1010   27.0350 C   0  0  0  0  0  0  0  0  0  0  0  0
  -32.5365  -23.4713   27.5970 C   0  0  0  0  0  0  0  0  0  0  0  0
  -18.3477  -27.8558   21.3518 C   0  0  0  0  0  0  0  0  0  0  0  0
  -31.5014  -25.5447   28.2802 C   0  0  0  0  0  0  0  0  0  0  0  0
  -20.4269  -26.9438   22.9729 C   0  0  0  0  0  0  0  0  0  0  0  0
  -27.9465  -28.2555   22.4595 C   0  0  0  0  0  0  0  0  0  0  0  0
  -26.9455  -28.2014   20.5025 C   0  0  0  0  0  0  0  0  0  0  0  0
  -20.2026  -23.7336   22.9643 C   0  0  0  0  0  0  0  0  0  0  0  0
  -28.9684  -26.7404   20.6498 C   0  0  0  0  0  0  0  0  0  0  0  0
  -25.6410  -16.5398   20.5552 C   0  0  0  0  0  0  0  0  0  0  0  0
  -27.1825  -19.0123   19.1295 C   0  0  0  0  0  0  0  0  0  0  0  0
  -27.8972  -22.5182   18.6658 C   0  0  0  0  0  0  0  0  0  0  0  0
  -21.6927  -30.4298   22.2767 C   0  0  0  0  0  0  0  0  0  0  0  0
  -25.5512  -11.4526   20.1422 C   0  0  0  0  0  0  0  0  0  0  0  0
  -23.7552  -17.6578   19.3103 C   0  0  0  0  0  0  0  0  0  0  0  0
  -25.3946  -19.6127   20.8054 C   0  0  0  0  0  0  0  0  0  0  0  0
  -26.5619  -12.5551   19.8368 C   0  0  0  0  0  0  0  0  0  0  0  0
  -24.1696  -32.1004   20.3399 C   0  0  0  0  0  0  0  0  0  0  0  0
  -26.6977  -13.4995   21.0269 C   0  0  0  0  0  0  0  0  0  0  0  0
  -25.4242  -31.2477   20.5423 C   0  0  0  0  0  0  0  0  0  0  0  0
  -18.2843  -22.8353   24.0494 C   0  0  0  0  0  0  0  0  0  0  0  0
  -23.3266  -32.1799   21.6114 C   0  0  0  0  0  0  0  0  0  0  0  0
  -18.2182  -24.3491   24.0853 C   0  0  0  0  0  0  0  0  0  0  0  0
  -24.2303  -30.0309   22.4080 C   0  0  0  0  0  0  0  0  0  0  0  0
  -25.3654  -14.1933   21.3355 C   0  0  1  0  0  0  0  0  0  0  0  0
  -19.7634  -22.5582   23.8225 C   0  0  1  0  0  0  0  0  0  0  0  0
  -25.2649  -17.4941   19.4573 C   0  0  1  0  0  0  0  0  0  0  0  0
  -25.0781  -29.8680   21.1359 C   0  0  2  0  0  0  0  0  0  0  0  0
  -29.4139  -23.6721   17.0331 C   0  0  0  0  0  0  0  0  0  0  0  0
  -29.2392  -18.8634   21.3785 C   0  0  0  0  0  0  0  0  0  0  0  0
  -30.0302  -21.1433   20.7119 C   0  0  0  0  0  0  0  0  0  0  0  0
  -30.2063  -19.2444   19.1038 C   0  0  0  0  0  0  0  0  0  0  0  0
  -25.7029  -24.2305   17.6598 C   0  0  0  0  0  0  0  0  0  0  0  0
  -20.0246  -21.2146   23.1681 C   0  0  0  0  0  0  0  0  0  1  0  0
  -27.9342  -20.2273   19.6170 C   0  0  1  0  0  0  0  0  0  0  0  0
  -27.9833  -23.2612   17.3448 C   0  0  2  0  0  0  0  0  0  0  0  0
  -29.3252  -19.8652   20.2097 C   0  0  0  0  0  0  0  0  0  0  0  0
  -26.9108  -29.0887   22.5903 N   0  0  0  0  0  0  0  0  0  0  0  0
  -26.3216  -29.0347   21.3837 N   0  0  0  0  0  0  0  0  0  0  0  0
  -19.2785  -24.7743   23.1907 N   0  0  0  0  0  0  0  0  0  0  0  0
  -25.9457  -18.7594   19.7397 N   0  0  0  0  0  0  0  0  0  0  0  0
  -23.0342  -30.8357   22.1139 N   0  0  0  0  0  0  0  0  0  0  0  0
  -26.4850  -28.0292   19.2452 N   0  0  0  0  0  0  0  0  0  0  0  0
  -30.0079  -26.3011   21.4810 N   0  0  0  0  0  0  0  0  0  0  0  0
  -21.5376  -29.1200   22.7296 N   0  0  0  0  0  0  0  0  0  0  0  0
  -25.1255  -15.2676   20.3960 N   0  0  0  0  0  0  0  0  0  0  0  0
  -27.9872  -21.1535   18.4910 N   0  0  0  0  0  0  0  0  0  0  0  0
  -27.1398  -24.4892   17.3853 N   0  3  0  0  0  0  0  0  0  0  0  0
  -21.2167  -23.7219   22.2816 O   0  0  0  0  0  0  0  0  0  0  0  0
  -28.9076  -26.3211   19.4691 O   0  0  0  0  0  0  0  0  0  0  0  0
  -26.3479  -16.9284   21.4777 O   0  0  0  0  0  0  0  0  0  0  0  0
  -27.6712  -18.3174   18.2352 O   0  0  0  0  0  0  0  0  0  0  0  0
  -27.7672  -23.0914   19.7452 O   0  0  0  0  0  0  0  0  0  0  0  0
  -20.7507  -31.1790   22.0064 O   0  0  0  0  0  0  0  0  0  0  0  0
  -31.4252  -27.4059   26.7541 O   0  0  0  0  0  0  0  0  0  0  0  0
  -21.4011  -20.8768   23.3336 O   0  0  0  0  0  0  0  0  0  1  0  0
  -32.8918  -22.2082   27.8662 F   0  0  0  0  0  0  0  0  0  0  0  0
  -17.3493  -28.2936   20.5734 F   0  0  0  0  0  0  0  0  0  0  0  0
  -30.8629  -26.2681   29.2101 F   0  0  0  0  0  0  0  0  0  0  0  0
  -21.7206  -26.3761   23.9812 Cl  0  0  0  0  0  0  0  0  0  0  0  0
  1  2  1  0  0  0  0
  1  5  2  0  0  0  0
  2  6  2  0  0  0  0
  3  8  2  0  0  0  0
  3 17  1  0  0  0  0
  4  9  1  0  0  0  0
  4 17  2  0  0  0  0
  5 19  1  0  0  0  0
  6 21  1  0  0  0  0
  7 10  2  0  0  0  0
  7 20  1  0  0  0  0
  8 25  1  0  0  0  0
  9 25  2  0  0  0  0
 10 26  1  0  0  0  0
 11 12  2  0  0  0  0
 11 27  1  0  0  0  0
 12 28  1  0  0  0  0
 13 22  1  0  0  0  0
 13 26  2  0  0  0  0
 14 23  1  0  0  0  0
 14 29  2  0  0  0  0
 15 24  2  0  0  0  0
 15 29  1  0  0  0  0
 16 28  2  0  0  0  0
 16 30  1  0  0  0  0
 17 32  1  0  0  0  0
 18 32  1  0  0  0  0
 18 33  2  0  0  0  0
 18 35  1  0  0  0  0
 19 21  2  0  0  0  0
 19 40  1  0  0  0  0
 20 22  2  0  0  0  0
 20 41  1  0  0  0  0
 21 51  1  0  0  0  0
 22 42  1  0  0  0  0
 23 31  2  0  0  0  0
 23 66  1  0  0  0  0
 24 31  1  0  0  0  0
 24 71  1  0  0  0  0
 25 81  1  0  0  0  0
 26 82  1  0  0  0  0
 27 30  2  0  0  0  0
 27 81  1  0  0  0  0
 28 83  1  0  0  0  0
 29 84  1  0  0  0  0
 30 85  1  0  0  0  0
 31 86  1  0  0  0  0
 32 64  2  0  0  0  0
 33 65  1  0  0  0  0
 33 69  1  0  0  0  0
 34 52  1  0  0  0  0
 34 66  1  0  0  0  0
 34 75  2  0  0  0  0
 35 70  1  0  0  0  0
 35 76  2  0  0  0  0
 36 53  1  0  0  0  0
 36 72  1  0  0  0  0
 36 77  2  0  0  0  0
 37 61  1  0  0  0  0
 37 67  1  0  0  0  0
 37 78  2  0  0  0  0
 38 62  1  0  0  0  0
 38 73  1  0  0  0  0
 38 79  2  0  0  0  0
 39 68  1  0  0  0  0
 39 71  1  0  0  0  0
 39 80  2  0  0  0  0
 40 43  1  0  0  0  0
 41 53  1  0  0  0  0
 42 67  1  0  0  0  0
 43 45  1  0  0  0  0
 44 46  1  0  0  0  0
 44 48  1  0  0  0  0
 45 51  1  0  0  0  0
 46 54  1  0  0  0  0
 47 49  1  0  0  0  0
 47 52  1  0  0  0  0
 48 68  1  0  0  0  0
 49 66  1  0  0  0  0
 50 54  1  0  0  0  0
 50 68  1  0  0  0  0
 51 72  1  0  0  0  0
 52 60  1  0  0  0  0
 53 67  1  0  0  0  0
 54 65  1  0  0  0  0
 55 62  1  0  0  0  0
 56 63  1  0  0  0  0
 57 63  1  0  0  0  0
 58 63  1  0  0  0  0
 59 74  1  0  0  0  0
 60 82  1  0  0  0  0
 61 63  1  0  0  0  0
 61 73  1  0  0  0  0
 62 74  1  0  0  0  0
 64 65  1  0  0  0  0
M  CHG  1  74   1
M  ISO  4  39 100  60 101  71 100  82 101
M  END
> <Batch ID>
0024

> <Smiles>
CNC(C)C(=O)NC(C(=O)N1Cc2cc([101O:1][101CH2:1]C3CCN(c4cc(F)cc([100NH:0][100C:0](=O)N5CCCC(n6nc(-c7ccc(Oc8ccc(F)cc8F)cc7)c(C(N)=O)c6N)C5)c4Cl)C3=O)ccc2CC1C(=O)NC1CCCc2ccccc21)C(C)(C)C

> <Shape>
0.229

> <Color>
0.085

> <Negative vol penalty>
0.000

$$$$

  -OEChem-04042321203D

 88 97  0     1  0  0  0  0  0999 V2000
  -17.9554  -32.0488   20.0648 C   0  0  0  0  0  0  0  0  0  0  0  0
  -19.2857  -31.9363   19.6736 C   0  0  0  0  0  0  0  0  0  0  0  0
  -23.5796  -13.4849   20.7641 C   0  0  0  0  0  0  0  0  0  0  0  0
  -25.7324  -14.5741   20.6362 C   0  0  0  0  0  0  0  0  0  0  0  0
  -17.5742  -31.6722   21.3519 C   0  0  0  0  0  0  0  0  0  0  0  0
  -20.2359  -31.4482   20.5699 C   0  0  0  0  0  0  0  0  0  0  0  0
  -25.1311  -28.0170   19.2395 C   0  0  0  0  0  0  0  0  0  0  0  0
  -24.2041  -12.2406   20.6789 C   0  0  0  0  0  0  0  0  0  0  0  0
  -26.3569  -13.3297   20.5512 C   0  0  0  0  0  0  0  0  0  0  0  0
  -26.4762  -28.3335   19.0547 C   0  0  0  0  0  0  0  0  0  0  0  0
  -25.2585   -8.7663   20.8586 C   0  0  0  0  0  0  0  0  0  0  0  0
  -24.8349   -7.7668   21.7346 C   0  0  0  0  0  0  0  0  0  0  0  0
  -26.9220  -27.7548   21.3537 C   0  0  0  0  0  0  0  0  0  0  0  0
  -29.4624  -22.7052   19.7133 C   0  0  0  0  0  0  0  0  0  0  0  0
  -27.6326  -23.0013   17.6284 C   0  0  0  0  0  0  0  0  0  0  0  0
  -25.4603   -9.1495   23.6146 C   0  0  0  0  0  0  0  0  0  0  0  0
  -24.3438  -14.6517   20.7427 C   0  0  0  0  0  0  0  0  0  0  0  0
  -22.8912  -16.4137   21.8797 C   0  0  0  0  0  0  0  0  0  0  0  0
  -18.5185  -31.1702   22.2613 C   0  0  0  0  0  0  0  0  0  0  0  0
  -24.6685  -27.5766   20.4879 C   0  0  0  0  0  0  0  0  0  0  0  0
  -19.8672  -31.0658   21.8709 C   0  0  0  0  0  0  0  0  0  0  0  0
  -25.5710  -27.4309   21.5511 C   0  0  0  0  0  0  0  0  0  0  0  0
  -29.7966  -23.4694   18.5954 C   0  0  0  0  0  0  0  0  0  0  0  0
  -27.2984  -22.2370   18.7464 C   0  0  0  0  0  0  0  0  0  0  0  0
  -25.5927  -12.1630   20.5725 C   0  0  0  0  0  0  0  0  0  0  0  0
  -27.3714  -28.2052   20.1127 C   0  0  0  0  0  0  0  0  0  0  0  0
  -25.7830   -9.9573   21.3606 C   0  0  0  0  0  0  0  0  0  0  0  0
  -24.9358   -7.9585   23.1125 C   0  0  0  0  0  0  0  0  0  0  0  0
  -25.8839  -10.1489   22.7386 C   0  0  0  0  0  0  0  0  0  0  0  0
  -28.2132  -22.0889   19.7888 C   0  0  0  0  0  0  0  0  0  0  0  0
  -28.8817  -23.6175   17.5529 C   0  0  0  0  0  0  0  0  0  0  0  0
  -23.6992  -15.9374   20.8300 C   0  0  0  0  0  0  0  0  0  0  0  0
  -22.5262  -17.6778   21.4856 C   0  0  0  0  0  0  0  0  0  0  0  0
  -30.8554  -26.5372   18.9376 C   0  0  0  0  0  0  0  0  0  0  0  0
  -22.5051  -15.7710   23.1018 C   0  0  0  0  0  0  0  0  0  0  0  0
  -22.5792  -28.6703   22.6192 C   0  0  0  0  0  0  0  0  0  0  0  0
  -23.1904  -25.8443   24.0896 C   0  0  0  0  0  0  0  0  0  0  0  0
  -25.3340  -23.2327   24.5705 C   0  0  0  0  0  0  0  0  0  0  0  0
  -25.0172  -21.6918   17.8268 C   0  0  0  0  0  0  0  0  0  0  0  0
  -18.0673  -30.8205   23.6573 C   0  0  0  0  0  0  0  0  0  0  0  0
  -23.2194  -27.2137   20.6636 C   0  0  0  0  0  0  0  0  0  0  0  0
  -25.1287  -26.9428   22.9055 C   0  0  0  0  0  0  0  0  0  0  0  0
  -19.0692  -29.9608   24.4238 C   0  0  0  0  0  0  0  0  0  0  0  0
  -32.1281  -26.1748   21.6041 C   0  0  0  0  0  0  0  0  0  0  0  0
  -21.7529  -20.2970   17.5516 C   0  0  0  0  0  0  0  0  0  0  0  0
  -20.4793  -30.5231   24.2744 C   0  0  0  0  0  0  0  0  0  0  0  0
  -32.1657  -27.4832   20.8288 C   0  0  0  0  0  0  0  0  0  0  0  0
  -21.8062  -19.0675   18.4614 C   0  0  0  0  0  0  0  0  0  0  0  0
  -31.4776  -25.0265   20.8375 C   0  0  0  0  0  0  0  0  0  0  0  0
  -23.0743  -20.5167   16.8172 C   0  0  0  0  0  0  0  0  0  0  0  0
  -24.3158  -19.3374   18.5884 C   0  0  0  0  0  0  0  0  0  0  0  0
  -20.9228  -30.5176   22.8065 C   0  0  1  0  0  0  0  0  0  0  0  0
  -30.9362  -27.6717   19.9465 C   0  0  2  0  0  0  0  0  0  0  0  0
  -22.7626  -27.2657   22.1183 C   0  0  1  0  0  0  0  0  0  0  0  0
  -23.0288  -19.1126   19.3988 C   0  0  2  0  0  0  0  0  0  0  0  0
  -26.1466  -21.0113   25.4086 C   0  0  0  0  0  0  0  0  0  0  0  0
  -23.8293  -27.4380   26.6119 C   0  0  0  0  0  0  0  0  0  0  0  0
  -24.9492  -25.3973   27.5337 C   0  0  0  0  0  0  0  0  0  0  0  0
  -22.5121  -25.3486   27.0038 C   0  0  0  0  0  0  0  0  0  0  0  0
  -24.2178  -21.8099   22.2277 C   0  0  0  0  0  0  0  0  0  0  0  0
  -31.1506  -24.1166   18.5529 C   0  0  0  0  0  0  0  0  0  0  0  0
  -29.6328  -27.7999   20.7274 C   0  0  0  0  0  0  0  0  0  1  0  0
  -24.1913  -25.3666   25.1138 C   0  0  1  0  0  0  0  0  0  0  0  0
  -25.1109  -21.7312   24.5590 C   0  0  2  0  0  0  0  0  0  0  0  0
  -23.8788  -25.8987   26.5409 C   0  0  0  0  0  0  0  0  0  0  0  0
  -23.8395  -16.8264   19.8431 N   0  0  0  0  0  0  0  0  0  0  0  0
  -23.1146  -17.8741   20.2710 N   0  0  0  0  0  0  0  0  0  0  0  0
  -31.2246  -25.2824   19.4215 N   0  0  0  0  0  0  0  0  0  0  0  0
  -23.7007  -26.6066   23.0292 N   0  0  0  0  0  0  0  0  0  0  0  0
  -24.1867  -20.5527   17.7692 N   0  0  0  0  0  0  0  0  0  0  0  0
  -21.7625  -18.6295   22.0631 N   0  0  0  0  0  0  0  0  0  0  0  0
  -23.3220  -15.9333   24.2291 N   0  0  0  0  0  0  0  0  0  0  0  0
  -26.0211  -21.6253   18.7924 N   0  0  0  0  0  0  0  0  0  0  0  0
  -21.3151  -29.1845   22.4021 N   0  0  0  0  0  0  0  0  0  0  0  0
  -24.2176  -23.9115   25.0111 N   0  0  0  0  0  0  0  0  0  0  0  0
  -25.1970  -21.2054   23.1672 N   0  3  0  0  0  0  0  0  0  0  0  0
  -30.4664  -26.7599   17.7896 O   0  0  0  0  0  0  0  0  0  0  0  0
  -21.4752  -15.0600   23.1872 O   0  0  0  0  0  0  0  0  0  0  0  0
  -23.5148  -29.2446   23.1637 O   0  0  0  0  0  0  0  0  0  0  0  0
  -22.0008  -25.5459   24.2216 O   0  0  0  0  0  0  0  0  0  0  0  0
  -26.3940  -23.7513   24.2269 O   0  0  0  0  0  0  0  0  0  0  0  0
  -24.8334  -22.6667   17.0934 O   0  0  0  0  0  0  0  0  0  0  0  0
  -26.2024  -10.9489   20.4897 O   0  0  0  0  0  0  0  0  0  0  0  0
  -28.6847  -28.5142   19.9352 O   0  0  0  0  0  0  0  0  0  1  0  0
  -24.5275   -6.9992   23.9536 F   0  0  0  0  0  0  0  0  0  0  0  0
  -26.3859  -11.2915   23.2268 F   0  0  0  0  0  0  0  0  0  0  0  0
  -27.8401  -21.1510   21.1907 Cl  0  0  0  0  0  0  0  0  0  0  0  0
  -29.2615  -24.5547   16.1540 Cl  0  0  0  0  0  0  0  0  0  0  0  0
  1  2  1  0  0  0  0
  1  5  2  0  0  0  0
  2  6  2  0  0  0  0
  3  8  2  0  0  0  0
  3 17  1  0  0  0  0
  4  9  1  0  0  0  0
  4 17  2  0  0  0  0
  5 19  1  0  0  0  0
  6 21  1  0  0  0  0
  7 10  2  0  0  0  0
  7 20  1  0  0  0  0
  8 25  1  0  0  0  0
  9 25  2  0  0  0  0
 10 26  1  0  0  0  0
 11 12  2  0  0  0  0
 11 27  1  0  0  0  0
 12 28  1  0  0  0  0
 13 22  1  0  0  0  0
 13 26  2  0  0  0  0
 14 23  1  0  0  0  0
 14 30  2  0  0  0  0
 15 24  2  0  0  0  0
 15 31  1  0  0  0  0
 16 28  2  0  0  0  0
 16 29  1  0  0  0  0
 17 32  1  0  0  0  0
 18 32  1  0  0  0  0
 18 33  2  0  0  0  0
 18 35  1  0  0  0  0
 19 21  2  0  0  0  0
 19 40  1  0  0  0  0
 20 22  2  0  0  0  0
 20 41  1  0  0  0  0
 21 52  1  0  0  0  0
 22 42  1  0  0  0  0
 23 31  2  0  0  0  0
 23 61  1  0  0  0  0
 24 30  1  0  0  0  0
 24 73  1  0  0  0  0
 25 83  1  0  0  0  0
 26 84  1  0  0  0  0
 27 29  2  0  0  0  0
 27 83  1  0  0  0  0
 28 85  1  0  0  0  0
 29 86  1  0  0  0  0
 30 87  1  0  0  0  0
 31 88  1  0  0  0  0
 32 66  2  0  0  0  0
 33 67  1  0  0  0  0
 33 71  1  0  0  0  0
 34 53  1  0  0  0  0
 34 68  1  0  0  0  0
 34 77  2  0  0  0  0
 35 72  1  0  0  0  0
 35 78  2  0  0  0  0
 36 54  1  0  0  0  0
 36 74  1  0  0  0  0
 36 79  2  0  0  0  0
 37 63  1  0  0  0  0
 37 69  1  0  0  0  0
 37 80  2  0  0  0  0
 38 64  1  0  0  0  0
 38 75  1  0  0  0  0
 38 81  2  0  0  0  0
 39 70  1  0  0  0  0
 39 73  1  0  0  0  0
 39 82  2  0  0  0  0
 40 43  1  0  0  0  0
 41 54  1  0  0  0  0
 42 69  1  0  0  0  0
 43 46  1  0  0  0  0
 44 47  1  0  0  0  0
 44 49  1  0  0  0  0
 45 48  1  0  0  0  0
 45 50  1  0  0  0  0
 46 52  1  0  0  0  0
 47 53  1  0  0  0  0
 48 55  1  0  0  0  0
 49 68  1  0  0  0  0
 50 70  1  0  0  0  0
 51 55  1  0  0  0  0
 51 70  1  0  0  0  0
 52 74  1  0  0  0  0
 53 62  1  0  0  0  0
 54 69  1  0  0  0  0
 55 67  1  0  0  0  0
 56 64  1  0  0  0  0
 57 65  1  0  0  0  0
 58 65  1  0  0  0  0
 59 65  1  0  0  0  0
 60 76  1  0  0  0  0
 61 68  1  0  0  0  0
 62 84  1  0  0  0  0
 63 65  1  0  0  0  0
 63 75  1  0  0  0  0
 64 76  1  0  0  0  0
 66 67  1  0  0  0  0
M  CHG  1  76   1
M  ISO  4  39 100  62 101  73 100  84 101
M  END
> <Batch ID>
0024

> <Smiles>
CNC(C)C(=O)NC(C(=O)N1Cc2cc([101O:1][101CH2:1]C3CCCN(Cc4cc(Cl)c([100NH:0][100C:0](=O)N5CCCC(n6nc(-c7ccc(Oc8ccc(F)cc8F)cc7)c(C(N)=O)c6N)C5)cc4Cl)C3=O)ccc2CC1C(=O)NC1CCCc2ccccc21)C(C)(C)C

> <Shape>
0.188

> <Color>
0.072

> <Negative vol penalty>
0.000

$$$$

  -OEChem-04042321203D

 83 92  0     1  0  0  0  0  0999 V2000
  -23.6270  -31.9719   13.9887 C   0  0  0  0  0  0  0  0  0  0  0  0
  -24.5376  -31.2141   14.7180 C   0  0  0  0  0  0  0  0  0  0  0  0
  -31.1278  -20.3679   21.4753 C   0  0  0  0  0  0  0  0  0  0  0  0
  -22.3205  -12.7589   18.7160 C   0  0  0  0  0  0  0  0  0  0  0  0
  -23.1398  -10.6873   19.6511 C   0  0  0  0  0  0  0  0  0  0  0  0
  -23.1005  -33.1419   14.5343 C   0  0  0  0  0  0  0  0  0  0  0  0
  -24.9231  -31.6265   15.9930 C   0  0  0  0  0  0  0  0  0  0  0  0
  -24.9614  -27.8229   19.3362 C   0  0  0  0  0  0  0  0  0  0  0  0
  -30.7957  -19.1376   20.9008 C   0  0  0  0  0  0  0  0  0  0  0  0
  -30.4201  -21.5310   21.1387 C   0  0  0  0  0  0  0  0  0  0  0  0
  -21.2466  -12.0763   18.1447 C   0  0  0  0  0  0  0  0  0  0  0  0
  -22.0658  -10.0047   19.0799 C   0  0  0  0  0  0  0  0  0  0  0  0
  -26.0491  -26.9517   19.2970 C   0  0  0  0  0  0  0  0  0  0  0  0
  -18.7863   -9.5255   19.7400 C   0  0  0  0  0  0  0  0  0  0  0  0
  -18.1118   -8.5995   20.5357 C   0  0  0  0  0  0  0  0  0  0  0  0
  -27.0390  -28.1132   21.1652 C   0  0  0  0  0  0  0  0  0  0  0  0
  -18.6676   -6.8474   18.9678 C   0  0  0  0  0  0  0  0  0  0  0  0
  -23.2671  -12.0644   19.4692 C   0  0  0  0  0  0  0  0  0  0  0  0
  -24.4255  -13.3634   21.3342 C   0  0  0  0  0  0  0  0  0  0  0  0
  -23.4723  -33.5638   15.8206 C   0  0  0  0  0  0  0  0  0  0  0  0
  -24.9094  -28.8544   20.2848 C   0  0  0  0  0  0  0  0  0  0  0  0
  -24.4021  -32.8039   16.5559 C   0  0  0  0  0  0  0  0  0  0  0  0
  -25.9483  -28.9946   21.2160 C   0  0  0  0  0  0  0  0  0  0  0  0
  -29.0422  -20.2548   19.6624 C   0  0  0  0  0  0  0  0  0  0  0  0
  -29.7472  -19.0963   19.9933 C   0  0  0  0  0  0  0  0  0  0  0  0
  -29.3697  -21.4799   20.2219 C   0  0  0  0  0  0  0  0  0  0  0  0
  -21.1192  -10.6993   18.3267 C   0  0  0  0  0  0  0  0  0  0  0  0
  -27.0895  -27.0985   20.2097 C   0  0  0  0  0  0  0  0  0  0  0  0
  -19.4014   -9.1125   18.5581 C   0  0  0  0  0  0  0  0  0  0  0  0
  -18.0525   -7.2605   20.1496 C   0  0  0  0  0  0  0  0  0  0  0  0
  -19.3420   -7.7735   18.1720 C   0  0  0  0  0  0  0  0  0  0  0  0
  -24.3770  -12.7688   20.0591 C   0  0  0  0  0  0  0  0  0  0  0  0
  -25.6879  -13.8984   21.4158 C   0  0  0  0  0  0  0  0  0  0  0  0
  -23.4195  -13.4263   22.3538 C   0  0  0  0  0  0  0  0  0  0  0  0
  -24.8193  -32.0286   20.1444 C   0  0  0  0  0  0  0  0  0  0  0  0
  -24.4115  -31.7701   23.3521 C   0  0  0  0  0  0  0  0  0  0  0  0
  -28.8983  -23.9492   20.3425 C   0  0  0  0  0  0  0  0  0  0  0  0
  -24.8407  -29.9198   26.1874 C   0  0  0  0  0  0  0  0  0  0  0  0
  -29.8793  -16.7664   19.1379 C   0  0  0  0  0  0  0  0  0  0  0  0
  -22.9125  -34.8605   16.3494 C   0  0  0  0  0  0  0  0  0  0  0  0
  -23.7164  -29.7692   20.3311 C   0  0  0  0  0  0  0  0  0  0  0  0
  -28.0065  -19.9831   18.6196 C   0  0  0  0  0  0  0  0  0  0  0  0
  -25.9308  -30.0730   22.2673 C   0  0  0  0  0  0  0  0  0  0  0  0
  -23.0870  -35.0296   17.8565 C   0  0  0  0  0  0  0  0  0  0  0  0
  -29.7343  -13.3004   18.4713 C   0  0  0  0  0  0  0  0  0  0  0  0
  -24.5100  -34.6712   18.2727 C   0  0  0  0  0  0  0  0  0  0  0  0
  -28.3237  -12.8982   18.8929 C   0  0  0  0  0  0  0  0  0  0  0  0
  -28.0069  -18.4498   18.5746 C   0  0  0  0  0  0  0  0  0  0  0  0
  -29.7313  -14.6764   17.8195 C   0  0  0  0  0  0  0  0  0  0  0  0
  -27.7613  -15.3693   19.1613 C   0  0  0  0  0  0  0  0  0  0  0  0
  -24.8259  -33.2053   17.9521 C   0  0  1  0  0  0  0  0  0  0  0  0
  -24.0122  -31.1030   21.0101 C   0  0  1  0  0  0  0  0  0  0  0  0
  -27.7057  -13.9689   19.8056 C   0  0  1  0  0  0  0  0  0  0  0  0
  -24.4398  -29.9880   28.6637 C   0  0  0  0  0  0  0  0  0  0  0  0
  -26.7734  -33.6738   23.6797 C   0  0  0  0  0  0  0  0  0  0  0  0
  -26.9246  -32.9626   26.0755 C   0  0  0  0  0  0  0  0  0  0  0  0
  -24.8666  -34.0989   25.2410 C   0  0  0  0  0  0  0  0  0  0  0  0
  -23.0786  -27.5443   26.0846 C   0  0  0  0  0  0  0  0  0  0  0  0
  -27.9248  -24.9280   19.7126 C   0  0  0  0  0  0  0  0  0  1  0  0
  -25.3338  -31.7134   24.5459 C   0  0  1  0  0  0  0  0  0  0  0  0
  -23.8855  -29.5642   27.3124 C   0  0  2  0  0  0  0  0  0  0  0  0
  -25.9761  -33.0929   24.8646 C   0  0  0  0  0  0  0  0  0  0  0  0
  -25.5178  -12.9126   19.3794 N   0  0  0  0  0  0  0  0  0  0  0  0
  -26.2950  -13.6037   20.2306 N   0  0  0  0  0  0  0  0  0  0  0  0
  -29.2191  -17.9869   19.2948 N   0  0  0  0  0  0  0  0  0  0  0  0
  -24.7457  -30.9465   22.2678 N   0  0  0  0  0  0  0  0  0  0  0  0
  -29.1119  -15.6848   18.6805 N   0  0  0  0  0  0  0  0  0  0  0  0
  -26.3267  -14.5877   22.3849 N   0  0  0  0  0  0  0  0  0  0  0  0
  -22.1783  -12.8243   22.1059 N   0  0  0  0  0  0  0  0  0  0  0  0
  -28.6818  -22.6428   19.8774 N   0  0  0  0  0  0  0  0  0  0  0  0
  -24.2225  -32.3315   18.9354 N   0  0  0  0  0  0  0  0  0  0  0  0
  -24.5500  -31.1519   25.6409 N   0  0  0  0  0  0  0  0  0  0  0  0
  -23.6458  -28.0936   27.3430 N   0  3  0  0  0  0  0  0  0  0  0  0
  -23.6098  -14.0135   23.4458 O   0  0  0  0  0  0  0  0  0  0  0  0
  -25.9025  -32.4389   20.5444 O   0  0  0  0  0  0  0  0  0  0  0  0
  -23.4267  -32.5124   23.3834 O   0  0  0  0  0  0  0  0  0  0  0  0
  -29.7452  -24.3155   21.1506 O   0  0  0  0  0  0  0  0  0  0  0  0
  -25.7557  -29.1804   25.8317 O   0  0  0  0  0  0  0  0  0  0  0  0
  -31.0968  -16.6439   19.3204 O   0  0  0  0  0  0  0  0  0  0  0  0
  -20.0712  -10.0329   17.7696 O   0  0  0  0  0  0  0  0  0  0  0  0
  -28.1638  -26.2411   20.1729 O   0  0  0  0  0  0  0  0  0  1  0  0
  -17.4061   -6.3710   20.9147 F   0  0  0  0  0  0  0  0  0  0  0  0
  -19.9320   -7.3705   17.0383 F   0  0  0  0  0  0  0  0  0  0  0  0
  1  2  1  0  0  0  0
  1  6  2  0  0  0  0
  2  7  2  0  0  0  0
  3  9  1  0  0  0  0
  3 10  2  0  0  0  0
  4 11  2  0  0  0  0
  4 18  1  0  0  0  0
  5 12  1  0  0  0  0
  5 18  2  0  0  0  0
  6 20  1  0  0  0  0
  7 22  1  0  0  0  0
  8 13  2  0  0  0  0
  8 21  1  0  0  0  0
  9 25  2  0  0  0  0
 10 26  1  0  0  0  0
 11 27  1  0  0  0  0
 12 27  2  0  0  0  0
 13 28  1  0  0  0  0
 14 15  2  0  0  0  0
 14 29  1  0  0  0  0
 15 30  1  0  0  0  0
 16 23  1  0  0  0  0
 16 28  2  0  0  0  0
 17 30  2  0  0  0  0
 17 31  1  0  0  0  0
 18 32  1  0  0  0  0
 19 32  1  0  0  0  0
 19 33  2  0  0  0  0
 19 34  1  0  0  0  0
 20 22  2  0  0  0  0
 20 40  1  0  0  0  0
 21 23  2  0  0  0  0
 21 41  1  0  0  0  0
 22 51  1  0  0  0  0
 23 43  1  0  0  0  0
 24 25  1  0  0  0  0
 24 26  2  0  0  0  0
 24 42  1  0  0  0  0
 25 65  1  0  0  0  0
 26 70  1  0  0  0  0
 27 80  1  0  0  0  0
 28 81  1  0  0  0  0
 29 31  2  0  0  0  0
 29 80  1  0  0  0  0
 30 82  1  0  0  0  0
 31 83  1  0  0  0  0
 32 63  2  0  0  0  0
 33 64  1  0  0  0  0
 33 68  1  0  0  0  0
 34 69  1  0  0  0  0
 34 74  2  0  0  0  0
 35 52  1  0  0  0  0
 35 71  1  0  0  0  0
 35 75  2  0  0  0  0
 36 60  1  0  0  0  0
 36 66  1  0  0  0  0
 36 76  2  0  0  0  0
 37 59  1  0  0  0  0
 37 70  1  0  0  0  0
 37 77  2  0  0  0  0
 38 61  1  0  0  0  0
 38 72  1  0  0  0  0
 38 78  2  0  0  0  0
 39 65  1  0  0  0  0
 39 67  1  0  0  0  0
 39 79  2  0  0  0  0
 40 44  1  0  0  0  0
 41 52  1  0  0  0  0
 42 48  1  0  0  0  0
 43 66  1  0  0  0  0
 44 46  1  0  0  0  0
 45 47  1  0  0  0  0
 45 49  1  0  0  0  0
 46 51  1  0  0  0  0
 47 53  1  0  0  0  0
 48 65  1  0  0  0  0
 49 67  1  0  0  0  0
 50 53  1  0  0  0  0
 50 67  1  0  0  0  0
 51 71  1  0  0  0  0
 52 66  1  0  0  0  0
 53 64  1  0  0  0  0
 54 61  1  0  0  0  0
 55 62  1  0  0  0  0
 56 62  1  0  0  0  0
 57 62  1  0  0  0  0
 58 73  1  0  0  0  0
 59 81  1  0  0  0  0
 60 62  1  0  0  0  0
 60 72  1  0  0  0  0
 61 73  1  0  0  0  0
 63 64  1  0  0  0  0
M  CHG  1  73   1
M  ISO  4  39 100  59 101  65 100  81 101
M  END
> <Batch ID>
0024

> <Smiles>
CNC(C)C(=O)NC(C(=O)N1Cc2cc([101O:1][101CH2:1]C(=O)Nc3cccc4c3CC[100N:0]4[100C:0](=O)N3CCCC(n4nc(-c5ccc(Oc6ccc(F)cc6F)cc5)c(C(N)=O)c4N)C3)ccc2CC1C(=O)NC1CCCc2ccccc21)C(C)(C)C

> <Shape>
0.256

> <Color>
0.101

> <Negative vol penalty>
0.000

$$$$

  -OEChem-04042321203D

 85 94  0     1  0  0  0  0  0999 V2000
  -26.0787  -34.7066   24.9559 C   0  0  0  0  0  0  0  0  0  0  0  0
  -26.6187  -33.5269   24.4538 C   0  0  0  0  0  0  0  0  0  0  0  0
  -24.5808  -13.6011   19.8054 C   0  0  0  0  0  0  0  0  0  0  0  0
  -25.8189  -14.0282   21.8356 C   0  0  0  0  0  0  0  0  0  0  0  0
  -24.7530  -34.7371   25.3867 C   0  0  0  0  0  0  0  0  0  0  0  0
  -25.8336  -32.3767   24.3831 C   0  0  0  0  0  0  0  0  0  0  0  0
  -26.3394  -29.9475   19.9685 C   0  0  0  0  0  0  0  0  0  0  0  0
  -24.6686  -12.2290   20.0405 C   0  0  0  0  0  0  0  0  0  0  0  0
  -25.9067  -12.6561   22.0708 C   0  0  0  0  0  0  0  0  0  0  0  0
  -27.4830  -29.1687   19.7977 C   0  0  0  0  0  0  0  0  0  0  0  0
  -23.1347   -9.9331   21.9921 C   0  0  0  0  0  0  0  0  0  0  0  0
  -21.9796   -9.1706   21.8195 C   0  0  0  0  0  0  0  0  0  0  0  0
  -26.2056  -27.1896   20.3178 C   0  0  0  0  0  0  0  0  0  0  0  0
  -28.9127  -24.1730   21.2475 C   0  0  0  0  0  0  0  0  0  0  0  0
  -23.0964   -7.8626   20.1228 C   0  0  0  0  0  0  0  0  0  0  0  0
  -27.1654  -24.7845   23.3345 C   0  0  0  0  0  0  0  0  0  0  0  0
  -25.1561  -14.5007   20.7029 C   0  0  0  0  0  0  0  0  0  0  0  0
  -24.0521  -16.7925   20.8950 C   0  0  0  0  0  0  0  0  0  0  0  0
  -23.9484  -33.5892   25.3123 C   0  0  0  0  0  0  0  0  0  0  0  0
  -25.1206  -29.3535   20.3265 C   0  0  0  0  0  0  0  0  0  0  0  0
  -24.4963  -32.3915   24.8145 C   0  0  0  0  0  0  0  0  0  0  0  0
  -25.0473  -27.9628   20.4900 C   0  0  0  0  0  0  0  0  0  0  0  0
  -29.1908  -25.2420   22.0993 C   0  0  0  0  0  0  0  0  0  0  0  0
  -27.7609  -23.4098   21.4391 C   0  0  0  0  0  0  0  0  0  0  0  0
  -25.3315  -11.7565   21.1732 C   0  0  0  0  0  0  0  0  0  0  0  0
  -27.4169  -27.7898   19.9752 C   0  0  0  0  0  0  0  0  0  0  0  0
  -24.2708   -9.6604   21.2300 C   0  0  0  0  0  0  0  0  0  0  0  0
  -21.9604   -8.1354   20.8849 C   0  0  0  0  0  0  0  0  0  0  0  0
  -24.2516   -8.6251   20.2954 C   0  0  0  0  0  0  0  0  0  0  0  0
  -28.3171  -25.5477   23.1428 C   0  0  0  0  0  0  0  0  0  0  0  0
  -26.8873  -23.7156   22.4826 C   0  0  0  0  0  0  0  0  0  0  0  0
  -25.0662  -15.9182   20.4603 C   0  0  0  0  0  0  0  0  0  0  0  0
  -24.4266  -18.0213   20.4091 C   0  0  0  0  0  0  0  0  0  0  0  0
  -22.8767  -16.5183   21.6690 C   0  0  0  0  0  0  0  0  0  0  0  0
  -23.1544  -29.5906   22.8128 C   0  0  0  0  0  0  0  0  0  0  0  0
  -21.2702  -27.6609   21.0103 C   0  0  0  0  0  0  0  0  0  0  0  0
  -21.0419  -25.3468   18.5125 C   0  0  0  0  0  0  0  0  0  0  0  0
  -28.2920  -21.9195   19.4786 C   0  0  0  0  0  0  0  0  0  0  0  0
  -22.5350  -33.6583   25.8340 C   0  0  0  0  0  0  0  0  0  0  0  0
  -23.8900  -30.2045   20.4808 C   0  0  0  0  0  0  0  0  0  0  0  0
  -23.7585  -27.2740   20.8545 C   0  0  0  0  0  0  0  0  0  0  0  0
  -21.6594  -32.4943   25.3771 C   0  0  0  0  0  0  0  0  0  0  0  0
  -28.0308  -19.2921   17.0900 C   0  0  0  0  0  0  0  0  0  0  0  0
  -32.6425  -26.3848   22.0869 C   0  0  0  0  0  0  0  0  0  0  0  0
  -22.3966  -31.1705   25.5535 C   0  0  0  0  0  0  0  0  0  0  0  0
  -27.1529  -18.2520   17.7896 C   0  0  0  0  0  0  0  0  0  0  0  0
  -32.1198  -27.2050   20.9209 C   0  0  0  0  0  0  0  0  0  0  0  0
  -31.3857  -26.0940   22.8979 C   0  0  0  0  0  0  0  0  0  0  0  0
  -28.9733  -19.9897   18.0692 C   0  0  0  0  0  0  0  0  0  0  0  0
  -27.4436  -19.5369   19.9464 C   0  0  0  0  0  0  0  0  0  0  0  0
  -23.6692  -31.1295   24.6989 C   0  0  1  0  0  0  0  0  0  0  0  0
  -22.8179  -29.5529   21.3488 C   0  0  1  0  0  0  0  0  0  0  0  0
  -26.4319  -18.8536   19.0119 C   0  0  2  0  0  0  0  0  0  0  0  0
  -30.7544  -26.5701   20.6046 C   0  0  2  0  0  0  0  0  0  0  0  0
  -19.3734  -23.9257   17.2902 C   0  0  0  0  0  0  0  0  0  0  0  0
  -21.1277  -25.7740   23.4039 C   0  0  0  0  0  0  0  0  0  0  0  0
  -20.2866  -23.9915   21.8600 C   0  0  0  0  0  0  0  0  0  0  0  0
  -18.9643  -26.0812   22.1874 C   0  0  0  0  0  0  0  0  0  0  0  0
  -21.6690  -26.6341   15.9224 C   0  0  0  0  0  0  0  0  0  0  0  0
  -29.7867  -27.6387   20.1066 C   0  0  0  0  0  0  0  0  0  1  0  0
  -21.1096  -26.1682   20.8524 C   0  0  1  0  0  0  0  0  0  0  0  0
  -20.1204  -25.2502   17.3100 C   0  0  2  0  0  0  0  0  0  0  0  0
  -20.3969  -25.5166   22.0709 C   0  0  0  0  0  0  0  0  0  0  0  0
  -26.0137  -16.5389   19.7525 N   0  0  0  0  0  0  0  0  0  0  0  0
  -25.5965  -17.8163   19.7387 N   0  0  0  0  0  0  0  0  0  0  0  0
  -30.3381  -25.9794   21.8844 N   0  0  3  0  0  0  0  0  0  0  0  0
  -22.5842  -28.1500   21.0004 N   0  0  0  0  0  0  0  0  0  0  0  0
  -28.2198  -20.5385   19.1987 N   0  0  0  0  0  0  0  0  0  0  0  0
  -23.8660  -19.2464   20.4941 N   0  0  0  0  0  0  0  0  0  0  0  0
  -22.6443  -15.2009   22.0870 N   0  0  0  0  0  0  0  0  0  0  0  0
  -27.5077  -22.3313   20.5556 N   0  0  0  0  0  0  0  0  0  0  0  0
  -23.3401  -30.8646   23.3147 N   0  0  0  0  0  0  0  0  0  0  0  0
  -20.4251  -25.9637   19.5803 N   0  0  0  0  0  0  0  0  0  0  0  0
  -20.9028  -25.3674   16.0470 N   0  3  0  0  0  0  0  0  0  0  0  0
  -22.0484  -17.4121   21.9666 O   0  0  0  0  0  0  0  0  0  0  0  0
  -23.2378  -28.5416   23.4407 O   0  0  0  0  0  0  0  0  0  0  0  0
  -20.2665  -28.3678   21.1307 O   0  0  0  0  0  0  0  0  0  0  0  0
  -22.1924  -24.9146   18.5064 O   0  0  0  0  0  0  0  0  0  0  0  0
  -28.9764  -22.6853   18.7951 O   0  0  0  0  0  0  0  0  0  0  0  0
  -25.4171  -10.4177   21.4031 O   0  0  0  0  0  0  0  0  0  0  0  0
  -28.5319  -27.0274   19.8097 O   0  0  0  0  0  0  0  0  0  1  0  0
  -20.8515   -7.4023   20.7204 F   0  0  0  0  0  0  0  0  0  0  0  0
  -25.3402   -8.3576   19.5612 F   0  0  0  0  0  0  0  0  0  0  0  0
  -28.6242  -26.8623   24.2208 Cl  0  0  0  0  0  0  0  0  0  0  0  0
  -25.4496  -22.7967   22.7549 Cl  0  0  0  0  0  0  0  0  0  0  0  0
  1  2  1  0  0  0  0
  1  5  2  0  0  0  0
  2  6  2  0  0  0  0
  3  8  2  0  0  0  0
  3 17  1  0  0  0  0
  4  9  1  0  0  0  0
  4 17  2  0  0  0  0
  5 19  1  0  0  0  0
  6 21  1  0  0  0  0
  7 10  2  0  0  0  0
  7 20  1  0  0  0  0
  8 25  1  0  0  0  0
  9 25  2  0  0  0  0
 10 26  1  0  0  0  0
 11 12  2  0  0  0  0
 11 27  1  0  0  0  0
 12 28  1  0  0  0  0
 13 22  1  0  0  0  0
 13 26  2  0  0  0  0
 14 23  1  0  0  0  0
 14 24  2  0  0  0  0
 15 28  2  0  0  0  0
 15 29  1  0  0  0  0
 16 30  1  0  0  0  0
 16 31  2  0  0  0  0
 17 32  1  0  0  0  0
 18 32  1  0  0  0  0
 18 33  2  0  0  0  0
 18 34  1  0  0  0  0
 19 21  2  0  0  0  0
 19 39  1  0  0  0  0
 20 22  2  0  0  0  0
 20 40  1  0  0  0  0
 21 51  1  0  0  0  0
 22 41  1  0  0  0  0
 23 30  2  0  0  0  0
 23 66  1  0  0  0  0
 24 31  1  0  0  0  0
 24 71  1  0  0  0  0
 25 80  1  0  0  0  0
 26 81  1  0  0  0  0
 27 29  2  0  0  0  0
 27 80  1  0  0  0  0
 28 82  1  0  0  0  0
 29 83  1  0  0  0  0
 30 84  1  0  0  0  0
 31 85  1  0  0  0  0
 32 64  2  0  0  0  0
 33 65  1  0  0  0  0
 33 69  1  0  0  0  0
 34 70  1  0  0  0  0
 34 75  2  0  0  0  0
 35 52  1  0  0  0  0
 35 72  1  0  0  0  0
 35 76  2  0  0  0  0
 36 61  1  0  0  0  0
 36 67  1  0  0  0  0
 36 77  2  0  0  0  0
 37 62  1  0  0  0  0
 37 73  1  0  0  0  0
 37 78  2  0  0  0  0
 38 68  1  0  0  0  0
 38 71  1  0  0  0  0
 38 79  2  0  0  0  0
 39 42  1  0  0  0  0
 40 52  1  0  0  0  0
 41 67  1  0  0  0  0
 42 45  1  0  0  0  0
 43 46  1  0  0  0  0
 43 49  1  0  0  0  0
 44 47  1  0  0  0  0
 44 48  1  0  0  0  0
 45 51  1  0  0  0  0
 46 53  1  0  0  0  0
 47 54  1  0  0  0  0
 48 66  1  0  0  0  0
 49 68  1  0  0  0  0
 50 53  1  0  0  0  0
 50 68  1  0  0  0  0
 51 72  1  0  0  0  0
 52 67  1  0  0  0  0
 53 65  1  0  0  0  0
 54 60  1  0  0  0  0
 54 66  1  0  0  0  0
 55 62  1  0  0  0  0
 56 63  1  0  0  0  0
 57 63  1  0  0  0  0
 58 63  1  0  0  0  0
 59 74  1  0  0  0  0
 60 81  1  0  0  0  0
 61 63  1  0  0  0  0
 61 73  1  0  0  0  0
 62 74  1  0  0  0  0
 64 65  1  0  0  0  0
M  CHG  1  74   1
M  ISO  4  38 100  60 101  71 100  81 101
M  END
> <Batch ID>
0024

> <Smiles>
CNC(C)C(=O)NC(C(=O)N1Cc2cc([101O:1][101CH2:1]C3CCCN3c3cc([100NH:0][100C:0](=O)N4CCCC(n5nc(-c6ccc(Oc7ccc(F)cc7F)cc6)c(C(N)=O)c5N)C4)c(Cl)cc3Cl)ccc2CC1C(=O)NC1CCCc2ccccc21)C(C)(C)C

> <Shape>
0.251

> <Color>
0.108

> <Negative vol penalty>
0.000

$$$$

  -OEChem-04042321203D

 81 89  0     1  0  0  0  0  0999 V2000
  -24.2016  -28.8640   23.4930 C   0  0  0  0  0  0  0  0  0  0  0  0
  -24.0960  -27.4862   23.3312 C   0  0  0  0  0  0  0  0  0  0  0  0
  -24.2927  -11.4515   19.9248 C   0  0  0  0  0  0  0  0  0  0  0  0
  -20.8508  -23.2371   18.3540 C   0  0  0  0  0  0  0  0  0  0  0  0
  -21.8717  -23.1636   20.5424 C   0  0  0  0  0  0  0  0  0  0  0  0
  -24.8879  -29.6251   22.5477 C   0  0  0  0  0  0  0  0  0  0  0  0
  -24.6757  -26.8689   22.2234 C   0  0  0  0  0  0  0  0  0  0  0  0
  -27.2395  -21.3106   22.0284 C   0  0  0  0  0  0  0  0  0  0  0  0
  -23.3979  -12.4479   20.3148 C   0  0  0  0  0  0  0  0  0  0  0  0
  -20.4906  -24.5677   18.5666 C   0  0  0  0  0  0  0  0  0  0  0  0
  -21.5116  -24.4943   20.7551 C   0  0  0  0  0  0  0  0  0  0  0  0
  -26.7616  -20.0716   21.6039 C   0  0  0  0  0  0  0  0  0  0  0  0
  -18.7320  -26.2159   21.6159 C   0  0  0  0  0  0  0  0  0  0  0  0
  -18.1734  -26.5467   22.8504 C   0  0  0  0  0  0  0  0  0  0  0  0
  -25.6662  -11.6910   19.9695 C   0  0  0  0  0  0  0  0  0  0  0  0
  -27.7875  -20.4209   19.4488 C   0  0  0  0  0  0  0  0  0  0  0  0
  -19.9846  -28.0935   23.2555 C   0  0  0  0  0  0  0  0  0  0  0  0
  -21.5413  -22.5350   19.3419 C   0  0  0  0  0  0  0  0  0  0  0  0
  -23.1074  -20.6835   18.5501 C   0  0  0  0  0  0  0  0  0  0  0  0
  -25.4846  -29.0156   21.4327 C   0  0  0  0  0  0  0  0  0  0  0  0
  -27.9870  -22.1203   21.1612 C   0  0  0  0  0  0  0  0  0  0  0  0
  -25.3695  -27.6228   21.2616 C   0  0  0  0  0  0  0  0  0  0  0  0
  -28.2760  -21.6686   19.8655 C   0  0  0  0  0  0  0  0  0  0  0  0
  -23.8765  -13.6840   20.7493 C   0  0  0  0  0  0  0  0  0  0  0  0
  -20.8210  -25.1964   19.7672 C   0  0  0  0  0  0  0  0  0  0  0  0
  -27.0331  -19.6278   20.3131 C   0  0  0  0  0  0  0  0  0  0  0  0
  -19.9170  -26.8238   21.2012 C   0  0  0  0  0  0  0  0  0  0  0  0
  -25.2500  -13.9235   20.7939 C   0  0  0  0  0  0  0  0  0  0  0  0
  -18.7996  -27.4856   23.6702 C   0  0  0  0  0  0  0  0  0  0  0  0
  -20.5432  -27.7626   22.0209 C   0  0  0  0  0  0  0  0  0  0  0  0
  -26.1448  -12.9270   20.4040 C   0  0  0  0  0  0  0  0  0  0  0  0
  -21.9131  -21.1602   19.1231 C   0  0  0  0  0  0  0  0  0  0  0  0
  -22.9746  -19.3165   18.5672 C   0  0  0  0  0  0  0  0  0  0  0  0
  -24.2359  -21.4112   18.0476 C   0  0  0  0  0  0  0  0  0  0  0  0
  -27.5976  -25.0104   19.8965 C   0  0  0  0  0  0  0  0  0  0  0  0
  -30.6059  -24.5057   18.7929 C   0  0  0  0  0  0  0  0  0  0  0  0
  -33.0397  -22.2737   17.9320 C   0  0  0  0  0  0  0  0  0  0  0  0
  -21.5614  -14.5918   21.1523 C   0  0  0  0  0  0  0  0  0  0  0  0
  -26.1757  -29.8857   20.4130 C   0  0  0  0  0  0  0  0  0  0  0  0
  -28.5181  -23.4425   21.6431 C   0  0  0  0  0  0  0  0  0  0  0  0
  -29.0913  -22.4910   18.9025 C   0  0  0  0  0  0  0  0  0  0  0  0
  -27.0824  -29.1077   19.4627 C   0  0  0  0  0  0  0  0  0  0  0  0
  -18.9499  -16.4101   19.5551 C   0  0  0  0  0  0  0  0  0  0  0  0
  -26.3675  -27.8658   18.9398 C   0  0  0  0  0  0  0  0  0  0  0  0
  -19.5863  -17.7688   19.2532 C   0  0  0  0  0  0  0  0  0  0  0  0
  -19.4304  -15.8428   20.8897 C   0  0  0  0  0  0  0  0  0  0  0  0
  -21.5253  -17.1309   20.7433 C   0  0  0  0  0  0  0  0  0  0  0  0
  -26.0061  -26.9135   20.0861 C   0  0  1  0  0  0  0  0  0  0  0  0
  -28.8327  -24.4101   20.5064 C   0  0  1  0  0  0  0  0  0  0  0  0
  -21.1214  -17.7124   19.3786 C   0  0  2  0  0  0  0  0  0  0  0  0
  -35.3777  -22.1600   17.0275 C   0  0  0  0  0  0  0  0  0  0  0  0
  -29.5541  -25.1434   16.0006 C   0  0  0  0  0  0  0  0  0  0  0  0
  -31.6299  -24.1086   15.0581 C   0  0  0  0  0  0  0  0  0  0  0  0
  -31.7957  -26.1232   16.5198 C   0  0  0  0  0  0  0  0  0  0  0  0
  -34.0411  -20.9258   20.3691 C   0  0  0  0  0  0  0  0  0  0  0  0
  -26.4119  -17.4054   20.8882 C   0  0  0  0  0  0  0  0  0  1  0  0
  -25.8925  -16.1425   20.2288 C   0  0  0  0  0  0  0  0  0  0  0  0
  -31.1989  -23.8917   17.5478 C   0  0  1  0  0  0  0  0  0  0  0  0
  -34.5160  -22.2092   18.2796 C   0  0  2  0  0  0  0  0  0  0  0  0
  -31.0276  -24.8018   16.2988 C   0  0  0  0  0  0  0  0  0  0  0  0
  -21.0827  -20.1761   19.4780 N   0  0  0  0  0  0  0  0  0  0  0  0
  -21.7562  -19.0673   19.1271 N   0  0  0  0  0  0  0  0  0  0  0  0
  -29.5828  -23.7793   19.4184 N   0  0  0  0  0  0  0  0  0  0  0  0
  -20.8940  -15.8157   20.9346 N   0  0  0  0  0  0  0  0  0  0  0  0
  -23.7823  -18.3154   18.1575 N   0  0  0  0  0  0  0  0  0  0  0  0
  -24.2083  -22.8112   18.1066 N   0  0  0  0  0  0  0  0  0  0  0  0
  -22.9528  -14.6841   21.1421 N   0  0  0  0  0  0  0  0  0  0  0  0
  -27.1728  -26.1715   20.5136 N   0  0  0  0  0  0  0  0  0  0  0  0
  -32.5859  -23.5742   17.8700 N   0  0  0  0  0  0  0  0  0  0  0  0
  -34.8035  -20.9960   19.0960 N   0  3  0  0  0  0  0  0  0  0  0  0
  -25.2321  -20.8375   17.5456 O   0  0  0  0  0  0  0  0  0  0  0  0
  -27.0701  -24.4616   18.9362 O   0  0  0  0  0  0  0  0  0  0  0  0
  -31.0395  -25.5866   19.1996 O   0  0  0  0  0  0  0  0  0  0  0  0
  -32.3582  -21.2707   17.7316 O   0  0  0  0  0  0  0  0  0  0  0  0
  -20.9444  -13.5348   21.3072 O   0  0  0  0  0  0  0  0  0  0  0  0
  -20.4699  -26.4949   19.9749 O   0  0  0  0  0  0  0  0  0  0  0  0
  -26.5672  -18.4191   19.8960 O   0  0  0  0  0  0  0  0  0  1  0  0
  -25.7129  -15.1400   21.2218 O   0  0  0  0  0  0  0  0  0  0  0  0
  -18.2622  -27.8043   24.8550 F   0  0  0  0  0  0  0  0  0  0  0  0
  -21.6812  -28.3509   21.6274 F   0  0  0  0  0  0  0  0  0  0  0  0
  -27.8492  -13.1927   20.4481 Cl  0  0  0  0  0  0  0  0  0  0  0  0
  1  2  1  0  0  0  0
  1  6  2  0  0  0  0
  2  7  2  0  0  0  0
  3  9  2  0  0  0  0
  3 15  1  0  0  0  0
  4 10  2  0  0  0  0
  4 18  1  0  0  0  0
  5 11  1  0  0  0  0
  5 18  2  0  0  0  0
  6 20  1  0  0  0  0
  7 22  1  0  0  0  0
  8 12  2  0  0  0  0
  8 21  1  0  0  0  0
  9 24  1  0  0  0  0
 10 25  1  0  0  0  0
 11 25  2  0  0  0  0
 12 26  1  0  0  0  0
 13 14  2  0  0  0  0
 13 27  1  0  0  0  0
 14 29  1  0  0  0  0
 15 31  2  0  0  0  0
 16 23  1  0  0  0  0
 16 26  2  0  0  0  0
 17 29  2  0  0  0  0
 17 30  1  0  0  0  0
 18 32  1  0  0  0  0
 19 32  1  0  0  0  0
 19 33  2  0  0  0  0
 19 34  1  0  0  0  0
 20 22  2  0  0  0  0
 20 39  1  0  0  0  0
 21 23  2  0  0  0  0
 21 40  1  0  0  0  0
 22 48  1  0  0  0  0
 23 41  1  0  0  0  0
 24 28  2  0  0  0  0
 24 67  1  0  0  0  0
 25 76  1  0  0  0  0
 26 77  1  0  0  0  0
 27 30  2  0  0  0  0
 27 76  1  0  0  0  0
 28 31  1  0  0  0  0
 28 78  1  0  0  0  0
 29 79  1  0  0  0  0
 30 80  1  0  0  0  0
 31 81  1  0  0  0  0
 32 61  2  0  0  0  0
 33 62  1  0  0  0  0
 33 65  1  0  0  0  0
 34 66  1  0  0  0  0
 34 71  2  0  0  0  0
 35 49  1  0  0  0  0
 35 68  1  0  0  0  0
 35 72  2  0  0  0  0
 36 58  1  0  0  0  0
 36 63  1  0  0  0  0
 36 73  2  0  0  0  0
 37 59  1  0  0  0  0
 37 69  1  0  0  0  0
 37 74  2  0  0  0  0
 38 64  1  0  0  0  0
 38 67  1  0  0  0  0
 38 75  2  0  0  0  0
 39 42  1  0  0  0  0
 40 49  1  0  0  0  0
 41 63  1  0  0  0  0
 42 44  1  0  0  0  0
 43 45  1  0  0  0  0
 43 46  1  0  0  0  0
 44 48  1  0  0  0  0
 45 50  1  0  0  0  0
 46 64  1  0  0  0  0
 47 50  1  0  0  0  0
 47 64  1  0  0  0  0
 48 68  1  0  0  0  0
 49 63  1  0  0  0  0
 50 62  1  0  0  0  0
 51 59  1  0  0  0  0
 52 60  1  0  0  0  0
 53 60  1  0  0  0  0
 54 60  1  0  0  0  0
 55 70  1  0  0  0  0
 56 57  1  0  0  0  0
 56 77  1  0  0  0  0
 57 78  1  0  0  0  0
 58 60  1  0  0  0  0
 58 69  1  0  0  0  0
 59 70  1  0  0  0  0
 61 62  1  0  0  0  0
M  CHG  1  70   1
M  ISO  4  38 100  56 101  67 100  77 101
M  END
> <Batch ID>
0024

> <Smiles>
CNC(C)C(=O)NC(C(=O)N1Cc2cc([101O:1][101CH2:1]COc3c(Cl)cccc3[100NH:0][100C:0](=O)N3CCCC(n4nc(-c5ccc(Oc6ccc(F)cc6F)cc5)c(C(N)=O)c4N)C3)ccc2CC1C(=O)NC1CCCc2ccccc21)C(C)(C)C

> <Shape>
0.202

> <Color>
0.074

> <Negative vol penalty>
0.000

$$$$

  -OEChem-04042321203D

 85 94  0     1  0  0  0  0  0999 V2000
  -16.6437  -29.9292   23.6482 C   0  0  0  0  0  0  0  0  0  0  0  0
  -17.7436  -30.6124   24.1571 C   0  0  0  0  0  0  0  0  0  0  0  0
  -30.6223  -16.0398   22.7490 C   0  0  0  0  0  0  0  0  0  0  0  0
  -30.2380  -15.5088   20.4236 C   0  0  0  0  0  0  0  0  0  0  0  0
  -16.8243  -28.7183   22.9811 C   0  0  0  0  0  0  0  0  0  0  0  0
  -19.0246  -30.0846   24.0001 C   0  0  0  0  0  0  0  0  0  0  0  0
  -25.8307  -32.1252   23.0894 C   0  0  0  0  0  0  0  0  0  0  0  0
  -31.4416  -25.5886   22.6845 C   0  0  0  0  0  0  0  0  0  0  0  0
  -30.5638  -24.5715   22.3097 C   0  0  0  0  0  0  0  0  0  0  0  0
  -31.6899  -15.1426   22.7775 C   0  0  0  0  0  0  0  0  0  0  0  0
  -31.3056  -14.6115   20.4521 C   0  0  0  0  0  0  0  0  0  0  0  0
  -27.0978  -31.9235   23.6349 C   0  0  0  0  0  0  0  0  0  0  0  0
  -32.1273  -11.7988   23.0049 C   0  0  0  0  0  0  0  0  0  0  0  0
  -32.2164  -10.9330   24.0948 C   0  0  0  0  0  0  0  0  0  0  0  0
  -27.2968  -29.8635   22.3956 C   0  0  0  0  0  0  0  0  0  0  0  0
  -30.2690  -25.6206   20.1534 C   0  0  0  0  0  0  0  0  0  0  0  0
  -34.3781  -11.8569   24.6522 C   0  0  0  0  0  0  0  0  0  0  0  0
  -29.8963  -16.2229   21.5720 C   0  0  0  0  0  0  0  0  0  0  0  0
  -27.6253  -17.1060   22.3273 C   0  0  0  0  0  0  0  0  0  0  0  0
  -18.1091  -28.1801   22.8074 C   0  0  0  0  0  0  0  0  0  0  0  0
  -25.2817  -31.1905   22.1998 C   0  0  0  0  0  0  0  0  0  0  0  0
  -19.2224  -28.8646   23.3312 C   0  0  0  0  0  0  0  0  0  0  0  0
  -26.0236  -30.0569   21.8382 C   0  0  0  0  0  0  0  0  0  0  0  0
  -31.7330  -26.6218   21.7938 C   0  0  0  0  0  0  0  0  0  0  0  0
  -29.9776  -24.5875   21.0441 C   0  0  0  0  0  0  0  0  0  0  0  0
  -32.0316  -14.4285   21.6290 C   0  0  0  0  0  0  0  0  0  0  0  0
  -27.8299  -30.7911   23.2902 C   0  0  0  0  0  0  0  0  0  0  0  0
  -33.1637  -12.6936   22.7385 C   0  0  0  0  0  0  0  0  0  0  0  0
  -33.3417  -10.9621   24.9185 C   0  0  0  0  0  0  0  0  0  0  0  0
  -31.1468  -26.6378   20.5283 C   0  0  0  0  0  0  0  0  0  0  0  0
  -34.2890  -12.7227   23.5621 C   0  0  0  0  0  0  0  0  0  0  0  0
  -28.7930  -17.1491   21.5421 C   0  0  0  0  0  0  0  0  0  0  0  0
  -26.8987  -18.1990   21.9223 C   0  0  0  0  0  0  0  0  0  0  0  0
  -27.2326  -16.1624   23.3328 C   0  0  0  0  0  0  0  0  0  0  0  0
  -22.7181  -29.3114   22.2205 C   0  0  0  0  0  0  0  0  0  0  0  0
  -23.6510  -28.6620   19.1823 C   0  0  0  0  0  0  0  0  0  0  0  0
  -26.7586  -28.0392   17.4581 C   0  0  0  0  0  0  0  0  0  0  0  0
  -28.4172  -23.4212   19.4468 C   0  0  0  0  0  0  0  0  0  0  0  0
  -18.2501  -26.8447   22.1208 C   0  0  0  0  0  0  0  0  0  0  0  0
  -23.9246  -31.4361   21.5995 C   0  0  0  0  0  0  0  0  0  0  0  0
  -25.4876  -29.0336   20.8718 C   0  0  0  0  0  0  0  0  0  0  0  0
  -19.6759  -26.5396   21.6689 C   0  0  0  0  0  0  0  0  0  0  0  0
  -26.1665  -21.0065   18.1123 C   0  0  0  0  0  0  0  0  0  0  0  0
  -32.3919  -31.5234   22.3622 C   0  0  0  0  0  0  0  0  0  0  0  0
  -20.6677  -26.8499   22.7855 C   0  0  0  0  0  0  0  0  0  0  0  0
  -26.4741  -19.7410   18.9161 C   0  0  0  0  0  0  0  0  0  0  0  0
  -31.1300  -31.6368   23.2074 C   0  0  0  0  0  0  0  0  0  0  0  0
  -27.4290  -21.8175   17.8261 C   0  0  0  0  0  0  0  0  0  0  0  0
  -28.5461  -20.8782   19.8108 C   0  0  0  0  0  0  0  0  0  0  0  0
  -33.0491  -30.1589   22.5131 C   0  0  0  0  0  0  0  0  0  0  0  0
  -30.8231  -29.1384   23.0547 C   0  0  0  0  0  0  0  0  0  0  0  0
  -20.6302  -28.3367   23.1593 C   0  0  1  0  0  0  0  0  0  0  0  0
  -23.2517  -30.1607   21.1017 C   0  0  1  0  0  0  0  0  0  0  0  0
  -27.2966  -20.0618   20.1795 C   0  0  2  0  0  0  0  0  0  0  0  0
  -30.1568  -30.5003   22.9101 C   0  0  1  0  0  0  0  0  0  1  0  0
  -27.3971  -28.4126   15.0602 C   0  0  0  0  0  0  0  0  0  0  0  0
  -22.8307  -25.7465   18.8120 C   0  0  0  0  0  0  0  0  0  0  0  0
  -24.7536  -25.4789   17.2312 C   0  0  0  0  0  0  0  0  0  0  0  0
  -22.9180  -27.0821   16.6994 C   0  0  0  0  0  0  0  0  0  0  0  0
  -29.0889  -29.6987   18.2161 C   0  0  0  0  0  0  0  0  0  0  0  0
  -32.6792  -27.7129   22.2003 C   0  0  0  0  0  0  0  0  0  0  0  0
  -24.5603  -27.6438   18.5377 C   0  0  1  0  0  0  0  0  0  0  0  0
  -27.4542  -28.9645   16.4761 C   0  0  2  0  0  0  0  0  0  0  0  0
  -23.7700  -26.4969   17.8467 C   0  0  0  0  0  0  0  0  0  0  0  0
  -28.8113  -18.1872   20.7018 N   0  0  0  0  0  0  0  0  0  0  0  0
  -27.6461  -18.8064   20.9566 N   0  0  0  0  0  0  0  0  0  0  0  0
  -24.1535  -29.3153   20.3166 N   0  0  0  0  0  0  0  0  0  0  0  0
  -28.1544  -22.0873   19.0694 N   0  0  0  0  0  0  0  0  0  0  0  0
  -25.6998  -18.6900   22.3016 N   0  0  0  0  0  0  0  0  0  0  0  0
  -28.0974  -15.0991   23.6254 N   0  0  0  0  0  0  0  0  0  0  0  0
  -29.0843  -23.5553   20.6640 N   0  0  0  0  0  0  0  0  0  0  0  0
  -21.3498  -29.1223   22.1799 N   0  0  0  0  0  0  0  0  0  0  0  0
  -25.4375  -28.3892   17.6416 N   0  0  0  0  0  0  0  0  0  0  0  0
  -32.0487  -29.0780   22.1789 N   0  3  2  0  0  0  0  0  0  0  0  0
  -28.8849  -29.1404   16.8546 N   0  3  0  0  0  0  0  0  0  0  0  0
  -26.1395  -16.2501   23.9419 O   0  0  0  0  0  0  0  0  0  0  0  0
  -23.4907  -28.8597   23.0576 O   0  0  0  0  0  0  0  0  0  0  0  0
  -22.5389  -28.8752   18.6932 O   0  0  0  0  0  0  0  0  0  0  0  0
  -27.3289  -27.0977   18.0047 O   0  0  0  0  0  0  0  0  0  0  0  0
  -28.0515  -24.3752   18.7554 O   0  0  0  0  0  0  0  0  0  0  0  0
  -33.0734  -13.5531   21.6564 O   0  0  0  0  0  0  0  0  0  0  0  0
  -29.0666  -30.5914   23.8217 O   0  0  0  0  0  0  0  0  0  1  0  0
  -33.4264  -10.1317   25.9661 F   0  0  0  0  0  0  0  0  0  0  0  0
  -31.4207  -27.6262   19.6655 F   0  0  0  0  0  0  0  0  0  0  0  0
  -35.2873  -13.5810   23.3119 F   0  0  0  0  0  0  0  0  0  0  0  0
  1  2  1  0  0  0  0
  1  5  2  0  0  0  0
  2  6  2  0  0  0  0
  3 10  2  0  0  0  0
  3 18  1  0  0  0  0
  4 11  1  0  0  0  0
  4 18  2  0  0  0  0
  5 20  1  0  0  0  0
  6 22  1  0  0  0  0
  7 12  2  0  0  0  0
  7 21  1  0  0  0  0
  8  9  2  0  0  0  0
  8 24  1  0  0  0  0
  9 25  1  0  0  0  0
 10 26  1  0  0  0  0
 11 26  2  0  0  0  0
 12 27  1  0  0  0  0
 13 14  2  0  0  0  0
 13 28  1  0  0  0  0
 14 29  1  0  0  0  0
 15 23  1  0  0  0  0
 15 27  2  0  0  0  0
 16 25  2  0  0  0  0
 16 30  1  0  0  0  0
 17 29  2  0  0  0  0
 17 31  1  0  0  0  0
 18 32  1  0  0  0  0
 19 32  1  0  0  0  0
 19 33  2  0  0  0  0
 19 34  1  0  0  0  0
 20 22  2  0  0  0  0
 20 39  1  0  0  0  0
 21 23  2  0  0  0  0
 21 40  1  0  0  0  0
 22 52  1  0  0  0  0
 23 41  1  0  0  0  0
 24 30  2  0  0  0  0
 24 61  1  0  0  0  0
 25 71  1  0  0  0  0
 26 81  1  0  0  0  0
 27 82  1  0  0  0  0
 28 31  2  0  0  0  0
 28 81  1  0  0  0  0
 29 83  1  0  0  0  0
 30 84  1  0  0  0  0
 31 85  1  0  0  0  0
 32 65  2  0  0  0  0
 33 66  1  0  0  0  0
 33 69  1  0  0  0  0
 34 70  1  0  0  0  0
 34 76  2  0  0  0  0
 35 53  1  0  0  0  0
 35 72  1  0  0  0  0
 35 77  2  0  0  0  0
 36 62  1  0  0  0  0
 36 67  1  0  0  0  0
 36 78  2  0  0  0  0
 37 63  1  0  0  0  0
 37 73  1  0  0  0  0
 37 79  2  0  0  0  0
 38 68  1  0  0  0  0
 38 71  1  0  0  0  0
 38 80  2  0  0  0  0
 39 42  1  0  0  0  0
 40 53  1  0  0  0  0
 41 67  1  0  0  0  0
 42 45  1  0  0  0  0
 43 46  1  0  0  0  0
 43 48  1  0  0  0  0
 44 47  1  0  0  0  0
 44 50  1  0  0  0  0
 45 52  1  0  0  0  0
 46 54  1  0  0  0  0
 47 55  1  0  0  0  0
 48 68  1  0  0  0  0
 49 54  1  0  0  0  0
 49 68  1  0  0  0  0
 50 74  1  0  0  0  0
 51 55  1  0  0  0  0
 51 74  1  0  0  0  0
 52 72  1  0  0  0  0
 53 67  1  0  0  0  0
 54 66  1  0  0  0  0
 55 82  1  0  0  0  0
 56 63  1  0  0  0  0
 57 64  1  0  0  0  0
 58 64  1  0  0  0  0
 59 64  1  0  0  0  0
 60 75  1  0  0  0  0
 61 74  1  0  0  0  0
 62 64  1  0  0  0  0
 62 73  1  0  0  0  0
 63 75  1  0  0  0  0
 65 66  1  0  0  0  0
M  CHG  2  74   1  75   1
M  ISO  4  38 100  55 101  71 100  82 101
M  END
> <Batch ID>
0024

> <Smiles>
CNC(C)C(=O)NC(C(=O)N1Cc2cc([101O:1][101CH:1]3CCCN(Cc4ccc([100NH:0][100C:0](=O)N5CCCC(n6nc(-c7ccc(Oc8ccc(F)cc8F)cc7)c(C(N)=O)c6N)C5)cc4F)C3)ccc2CC1C(=O)NC1CCCc2ccccc21)C(C)(C)C

> <Shape>
0.247

> <Color>
0.093

> <Negative vol penalty>
0.000

$$$$

  -OEChem-04042321203D

 86 95  0     1  0  0  0  0  0999 V2000
  -30.7204  -24.9517   17.7482 C   0  0  0  0  0  0  0  0  0  0  0  0
  -29.3303  -24.9281   17.7992 C   0  0  0  0  0  0  0  0  0  0  0  0
  -27.6126  -16.0825   18.6265 C   0  0  0  0  0  0  0  0  0  0  0  0
  -27.1561  -16.7325   20.9082 C   0  0  0  0  0  0  0  0  0  0  0  0
  -31.4466  -25.4913   18.8091 C   0  0  0  0  0  0  0  0  0  0  0  0
  -28.6657  -25.4430   18.9117 C   0  0  0  0  0  0  0  0  0  0  0  0
  -23.2809  -28.3597   18.9593 C   0  0  0  0  0  0  0  0  0  0  0  0
  -17.4913  -20.4250   21.9644 C   0  0  0  0  0  0  0  0  0  0  0  0
  -17.4737  -21.8158   22.0687 C   0  0  0  0  0  0  0  0  0  0  0  0
  -28.8274  -16.7661   18.6748 C   0  0  0  0  0  0  0  0  0  0  0  0
  -28.3710  -17.4161   20.9566 C   0  0  0  0  0  0  0  0  0  0  0  0
  -21.9849  -27.9319   19.2442 C   0  0  0  0  0  0  0  0  0  0  0  0
  -31.1861  -19.6335   21.5633 C   0  0  0  0  0  0  0  0  0  0  0  0
  -31.1902  -20.9094   22.1268 C   0  0  0  0  0  0  0  0  0  0  0  0
  -22.2279  -28.7239   21.5097 C   0  0  0  0  0  0  0  0  0  0  0  0
  -19.8353  -20.4106   22.5494 C   0  0  0  0  0  0  0  0  0  0  0  0
  -29.6133  -21.6530   20.4542 C   0  0  0  0  0  0  0  0  0  0  0  0
  -26.7768  -16.0658   19.7432 C   0  0  0  0  0  0  0  0  0  0  0  0
  -25.2893  -14.0134   20.0312 C   0  0  0  0  0  0  0  0  0  0  0  0
  -30.7903  -26.0218   19.9308 C   0  0  0  0  0  0  0  0  0  0  0  0
  -24.0654  -28.9640   19.9522 C   0  0  0  0  0  0  0  0  0  0  0  0
  -29.3839  -25.9889   19.9891 C   0  0  0  0  0  0  0  0  0  0  0  0
  -23.5327  -29.1608   21.2342 C   0  0  0  0  0  0  0  0  0  0  0  0
  -18.6720  -19.7224   22.2047 C   0  0  0  0  0  0  0  0  0  0  0  0
  -18.6370  -22.5041   22.4133 C   0  0  0  0  0  0  0  0  0  0  0  0
  -29.2067  -17.4329   19.8398 C   0  0  0  0  0  0  0  0  0  0  0  0
  -21.4593  -28.1113   20.5203 C   0  0  0  0  0  0  0  0  0  0  0  0
  -30.3957  -19.3673   20.4452 C   0  0  0  0  0  0  0  0  0  0  0  0
  -30.4037  -21.9192   21.5722 C   0  0  0  0  0  0  0  0  0  0  0  0
  -29.6093  -20.3771   19.8907 C   0  0  0  0  0  0  0  0  0  0  0  0
  -19.8178  -21.8015   22.6537 C   0  0  0  0  0  0  0  0  0  0  0  0
  -25.5215  -15.3603   19.6937 C   0  0  0  0  0  0  0  0  0  0  0  0
  -23.9452  -13.8320   19.8148 C   0  0  0  0  0  0  0  0  0  0  0  0
  -19.3372  -24.8521   21.7611 C   0  0  0  0  0  0  0  0  0  0  0  0
  -26.2067  -13.0156   20.4985 C   0  0  0  0  0  0  0  0  0  0  0  0
  -26.8174  -28.2562   21.3766 C   0  0  0  0  0  0  0  0  0  0  0  0
  -26.4175  -31.1754   22.7333 C   0  0  0  0  0  0  0  0  0  0  0  0
  -24.2818  -33.6678   23.6681 C   0  0  0  0  0  0  0  0  0  0  0  0
  -19.2793  -17.5841   19.7715 C   0  0  0  0  0  0  0  0  0  0  0  0
  -31.6195  -26.5514   21.0739 C   0  0  0  0  0  0  0  0  0  0  0  0
  -25.4519  -29.4441   19.6215 C   0  0  0  0  0  0  0  0  0  0  0  0
  -24.3265  -29.8225   22.3298 C   0  0  0  0  0  0  0  0  0  0  0  0
  -30.8278  -27.4171   22.0508 C   0  0  0  0  0  0  0  0  0  0  0  0
  -20.3338  -15.4486   17.1250 C   0  0  0  0  0  0  0  0  0  0  0  0
  -29.5064  -26.7449   22.4097 C   0  0  0  0  0  0  0  0  0  0  0  0
  -21.7619  -15.0622   17.5137 C   0  0  0  0  0  0  0  0  0  0  0  0
  -18.2019  -26.0166   23.4988 C   0  0  0  0  0  0  0  0  0  0  0  0
  -20.0149  -16.8916   17.5097 C   0  0  0  0  0  0  0  0  0  0  0  0
  -17.6623  -24.6033   23.4062 C   0  0  0  0  0  0  0  0  0  0  0  0
  -21.6940  -16.8390   19.3130 C   0  0  0  0  0  0  0  0  0  0  0  0
  -28.6260  -26.5603   21.1678 C   0  0  1  0  0  0  0  0  0  0  0  0
  -18.8321  -26.2373   22.1313 C   0  0  1  0  0  0  0  0  0  0  0  0
  -26.3454  -29.5821   20.8504 C   0  0  1  0  0  0  0  0  0  0  0  0
  -22.0438  -15.3750   18.9956 C   0  0  2  0  0  0  0  0  0  0  0  0
  -24.2444  -35.9127   24.7890 C   0  0  0  0  0  0  0  0  0  0  0  0
  -26.7673  -29.8239   25.4465 C   0  0  0  0  0  0  0  0  0  0  0  0
  -25.7940  -31.8693   26.5128 C   0  0  0  0  0  0  0  0  0  0  0  0
  -27.9233  -32.0303   25.2233 C   0  0  0  0  0  0  0  0  0  0  0  0
  -23.1945  -34.9855   21.2514 C   0  0  0  0  0  0  0  0  0  0  0  0
  -18.6901  -18.2354   22.0927 C   0  0  0  0  0  0  0  0  0  0  0  0
  -19.9285  -27.2859   22.1424 C   0  0  0  0  0  0  0  0  0  1  0  0
  -25.7462  -31.6903   23.9836 C   0  0  1  0  0  0  0  0  0  0  0  0
  -24.3375  -35.1711   23.4645 C   0  0  2  0  0  0  0  0  0  0  0  0
  -26.5432  -31.3392   25.2717 C   0  0  0  0  0  0  0  0  0  0  0  0
  -24.4136  -15.9898   19.2933 N   0  0  0  0  0  0  0  0  0  0  0  0
  -23.4724  -15.0343   19.3777 N   0  0  0  0  0  0  0  0  0  0  0  0
  -18.5838  -23.9268   22.5126 N   0  0  0  0  0  0  0  0  0  0  0  0
  -25.6796  -30.2690   21.9590 N   0  0  0  0  0  0  0  0  0  0  0  0
  -20.3025  -17.1219   18.9275 N   0  0  0  0  0  0  0  0  0  0  0  0
  -23.1334  -12.7629   19.9578 N   0  0  0  0  0  0  0  0  0  0  0  0
  -27.5522  -13.3708   20.6657 N   0  0  0  0  0  0  0  0  0  0  0  0
  -27.9944  -27.8110   20.8056 N   0  0  0  0  0  0  0  0  0  0  0  0
  -25.5425  -33.1203   23.7782 N   0  0  0  0  0  0  0  0  0  0  0  0
  -19.6348  -17.7701   21.1018 N   0  0  0  0  0  0  0  0  0  0  0  0
  -23.2124  -35.6182   22.5955 N   0  3  0  0  0  0  0  0  0  0  0  0
  -20.1956  -24.6572   20.9128 O   0  0  0  0  0  0  0  0  0  0  0  0
  -25.8472  -11.8392   20.7444 O   0  0  0  0  0  0  0  0  0  0  0  0
  -26.1631  -27.6805   22.2380 O   0  0  0  0  0  0  0  0  0  0  0  0
  -27.5519  -31.5686   22.4503 O   0  0  0  0  0  0  0  0  0  0  0  0
  -23.2255  -33.0423   23.7274 O   0  0  0  0  0  0  0  0  0  0  0  0
  -18.1323  -17.8090   19.3704 O   0  0  0  0  0  0  0  0  0  0  0  0
  -30.3922  -18.0998   19.8874 O   0  0  0  0  0  0  0  0  0  0  0  0
  -20.1948  -27.6941   20.8012 O   0  0  0  0  0  0  0  0  0  1  0  0
  -30.4065  -23.1441   22.1144 F   0  0  0  0  0  0  0  0  0  0  0  0
  -28.8470  -20.1271   18.8172 F   0  0  0  0  0  0  0  0  0  0  0  0
  -21.2809  -22.6143   23.0826 Cl  0  0  0  0  0  0  0  0  0  0  0  0
  1  2  1  0  0  0  0
  1  5  2  0  0  0  0
  2  6  2  0  0  0  0
  3 10  2  0  0  0  0
  3 18  1  0  0  0  0
  4 11  1  0  0  0  0
  4 18  2  0  0  0  0
  5 20  1  0  0  0  0
  6 22  1  0  0  0  0
  7 12  2  0  0  0  0
  7 21  1  0  0  0  0
  8  9  2  0  0  0  0
  8 24  1  0  0  0  0
  9 25  1  0  0  0  0
 10 26  1  0  0  0  0
 11 26  2  0  0  0  0
 12 27  1  0  0  0  0
 13 14  2  0  0  0  0
 13 28  1  0  0  0  0
 14 29  1  0  0  0  0
 15 23  1  0  0  0  0
 15 27  2  0  0  0  0
 16 24  2  0  0  0  0
 16 31  1  0  0  0  0
 17 29  2  0  0  0  0
 17 30  1  0  0  0  0
 18 32  1  0  0  0  0
 19 32  1  0  0  0  0
 19 33  2  0  0  0  0
 19 35  1  0  0  0  0
 20 22  2  0  0  0  0
 20 40  1  0  0  0  0
 21 23  2  0  0  0  0
 21 41  1  0  0  0  0
 22 51  1  0  0  0  0
 23 42  1  0  0  0  0
 24 60  1  0  0  0  0
 25 31  2  0  0  0  0
 25 67  1  0  0  0  0
 26 82  1  0  0  0  0
 27 83  1  0  0  0  0
 28 30  2  0  0  0  0
 28 82  1  0  0  0  0
 29 84  1  0  0  0  0
 30 85  1  0  0  0  0
 31 86  1  0  0  0  0
 32 65  2  0  0  0  0
 33 66  1  0  0  0  0
 33 70  1  0  0  0  0
 34 52  1  0  0  0  0
 34 67  1  0  0  0  0
 34 76  2  0  0  0  0
 35 71  1  0  0  0  0
 35 77  2  0  0  0  0
 36 53  1  0  0  0  0
 36 72  1  0  0  0  0
 36 78  2  0  0  0  0
 37 62  1  0  0  0  0
 37 68  1  0  0  0  0
 37 79  2  0  0  0  0
 38 63  1  0  0  0  0
 38 73  1  0  0  0  0
 38 80  2  0  0  0  0
 39 69  1  0  0  0  0
 39 74  1  0  0  0  0
 39 81  2  0  0  0  0
 40 43  1  0  0  0  0
 41 53  1  0  0  0  0
 42 68  1  0  0  0  0
 43 45  1  0  0  0  0
 44 46  1  0  0  0  0
 44 48  1  0  0  0  0
 45 51  1  0  0  0  0
 46 54  1  0  0  0  0
 47 49  1  0  0  0  0
 47 52  1  0  0  0  0
 48 69  1  0  0  0  0
 49 67  1  0  0  0  0
 50 54  1  0  0  0  0
 50 69  1  0  0  0  0
 51 72  1  0  0  0  0
 52 61  1  0  0  0  0
 53 68  1  0  0  0  0
 54 66  1  0  0  0  0
 55 63  1  0  0  0  0
 56 64  1  0  0  0  0
 57 64  1  0  0  0  0
 58 64  1  0  0  0  0
 59 75  1  0  0  0  0
 60 74  1  0  0  0  0
 61 83  1  0  0  0  0
 62 64  1  0  0  0  0
 62 73  1  0  0  0  0
 63 75  1  0  0  0  0
 65 66  1  0  0  0  0
M  CHG  1  75   1
M  ISO  4  39 100  61 101  74 100  83 101
M  END
> <Batch ID>
0024

> <Smiles>
CNC(C)C(=O)NC(C(=O)N1Cc2cc([101O:1][101CH2:1]C3CCN(c4ccc(C[100NH:0][100C:0](=O)N5CCCC(n6nc(-c7ccc(Oc8ccc(F)cc8F)cc7)c(C(N)=O)c6N)C5)cc4Cl)C3=O)ccc2CC1C(=O)NC1CCCc2ccccc21)C(C)(C)C

> <Shape>
0.294

> <Color>
0.084

> <Negative vol penalty>
0.000

$$$$

  -OEChem-04042321203D

 95105  0     1  0  0  0  0  0999 V2000
  -17.5958  -30.2110   25.1426 C   0  0  0  0  0  0  0  0  0  0  0  0
  -18.9353  -30.1964   25.5179 C   0  0  0  0  0  0  0  0  0  0  0  0
  -26.5774  -15.3118   20.8875 C   0  0  0  0  0  0  0  0  0  0  0  0
  -28.7053  -14.2910   20.3706 C   0  0  0  0  0  0  0  0  0  0  0  0
  -17.1920  -29.5583   23.9786 C   0  0  0  0  0  0  0  0  0  0  0  0
  -19.8717  -29.5281   24.7300 C   0  0  0  0  0  0  0  0  0  0  0  0
  -24.0972  -32.2283   24.0236 C   0  0  0  0  0  0  0  0  0  0  0  0
  -29.2505  -23.9642   26.0607 C   0  0  0  0  0  0  0  0  0  0  0  0
  -28.4068  -24.9813   24.0381 C   0  0  0  0  0  0  0  0  0  0  0  0
  -28.0670  -24.2949   26.7207 C   0  0  0  0  0  0  0  0  0  0  0  0
  -27.2232  -25.3119   24.6981 C   0  0  0  0  0  0  0  0  0  0  0  0
  -25.9722  -14.0551   20.8778 C   0  0  0  0  0  0  0  0  0  0  0  0
  -28.1001  -13.0343   20.3610 C   0  0  0  0  0  0  0  0  0  0  0  0
  -25.0146  -32.2615   25.0729 C   0  0  0  0  0  0  0  0  0  0  0  0
  -25.7117  -11.3998   22.9549 C   0  0  0  0  0  0  0  0  0  0  0  0
  -24.8286  -11.0976   23.9915 C   0  0  0  0  0  0  0  0  0  0  0  0
  -26.3417  -30.5839   23.9578 C   0  0  0  0  0  0  0  0  0  0  0  0
  -23.0528  -10.7765   22.3851 C   0  0  0  0  0  0  0  0  0  0  0  0
  -27.9440  -15.4297   20.6338 C   0  0  0  0  0  0  0  0  0  0  0  0
  -28.2602  -17.8264   19.8192 C   0  0  0  0  0  0  0  0  0  0  0  0
  -18.1255  -28.8898   23.1709 C   0  0  0  0  0  0  0  0  0  0  0  0
  -24.2899  -31.3633   22.9368 C   0  0  0  0  0  0  0  0  0  0  0  0
  -19.4799  -28.8647   23.5548 C   0  0  0  0  0  0  0  0  0  0  0  0
  -25.4267  -30.5435   22.8947 C   0  0  0  0  0  0  0  0  0  0  0  0
  -29.4204  -24.3074   24.7194 C   0  0  0  0  0  0  0  0  0  0  0  0
  -27.0534  -24.9687   26.0394 C   0  0  0  0  0  0  0  0  0  0  0  0
  -26.7336  -12.9164   20.6146 C   0  0  0  0  0  0  0  0  0  0  0  0
  -26.1355  -31.4371   25.0415 C   0  0  0  0  0  0  0  0  0  0  0  0
  -25.2653  -11.3904   21.6334 C   0  0  0  0  0  0  0  0  0  0  0  0
  -23.4992  -10.7859   23.7066 C   0  0  0  0  0  0  0  0  0  0  0  0
  -23.9359  -11.0787   21.3485 C   0  0  0  0  0  0  0  0  0  0  0  0
  -28.5696  -16.7276   20.6431 C   0  0  0  0  0  0  0  0  0  0  0  0
  -29.1305  -18.8110   20.2187 C   0  0  0  0  0  0  0  0  0  0  0  0
  -27.2742  -17.9463   18.7852 C   0  0  0  0  0  0  0  0  0  0  0  0
  -22.6759  -28.9195   21.7014 C   0  0  0  0  0  0  0  0  0  0  0  0
  -24.9418  -29.0979   19.3870 C   0  0  0  0  0  0  0  0  0  0  0  0
  -27.2463  -29.9707   17.4280 C   0  0  0  0  0  0  0  0  0  0  0  0
  -31.7866  -21.6770   24.0839 C   0  0  0  0  0  0  0  0  0  0  0  0
  -17.6342  -28.1585   21.9468 C   0  0  0  0  0  0  0  0  0  0  0  0
  -23.3050  -31.3588   21.8000 C   0  0  0  0  0  0  0  0  0  0  0  0
  -25.6901  -29.6117   21.7410 C   0  0  0  0  0  0  0  0  0  0  0  0
  -18.7476  -27.7907   20.9693 C   0  0  0  0  0  0  0  0  0  0  0  0
  -33.1795  -18.6183   23.2296 C   0  0  0  0  0  0  0  0  0  0  0  0
  -25.7018  -25.0821   29.1423 C   0  0  0  0  0  0  0  0  0  0  0  0
  -19.9294  -27.1763   21.7128 C   0  0  0  0  0  0  0  0  0  0  0  0
  -32.0853  -17.9313   22.4136 C   0  0  0  0  0  0  0  0  0  0  0  0
  -24.7731  -26.2260   29.5453 C   0  0  0  0  0  0  0  0  0  0  0  0
  -24.0910  -27.0214   27.2190 C   0  0  0  0  0  0  0  0  0  0  0  0
  -23.8478  -28.5443   29.2169 C   0  0  0  0  0  0  0  0  0  0  0  0
  -25.3695  -24.4599   27.7902 C   0  0  0  0  0  0  0  0  0  0  0  0
  -32.5855  -19.3588   24.4219 C   0  0  0  0  0  0  0  0  0  0  0  0
  -25.0209  -26.3773   26.1855 C   0  0  0  0  0  0  0  0  0  0  0  0
  -30.4453  -19.6986   23.2281 C   0  0  0  0  0  0  0  0  0  0  0  0
  -24.3004  -29.8412   28.5561 C   0  0  0  0  0  0  0  0  0  0  0  0
  -26.0563  -28.1581   28.4769 C   0  0  0  0  0  0  0  0  0  0  0  0
  -20.5294  -28.1716   22.7133 C   0  0  1  0  0  0  0  0  0  0  0  0
  -23.3344  -30.0670   20.9891 C   0  0  1  0  0  0  0  0  0  0  0  0
  -30.9911  -18.9331   22.0052 C   0  0  2  0  0  0  0  0  0  0  0  0
  -24.7129  -27.4310   28.5838 C   0  0  1  0  0  0  0  0  0  0  0  0
  -26.2789  -29.7907   15.1195 C   0  0  0  0  0  0  0  0  0  0  0  0
  -28.6792  -32.9744   28.0441 C   0  0  0  0  0  0  0  0  0  0  0  0
  -26.5211  -33.5961   29.1427 C   0  0  0  0  0  0  0  0  0  0  0  0
  -25.9134  -26.6940   20.9955 C   0  0  0  0  0  0  0  0  0  0  0  0
  -27.7556  -26.4084   19.3242 C   0  0  0  0  0  0  0  0  0  0  0  0
  -25.3766  -26.2005   18.6033 C   0  0  0  0  0  0  0  0  0  0  0  0
  -29.8434  -22.0964   22.6258 C   0  0  0  0  0  0  0  0  0  0  0  0
  -29.8360  -29.1078   16.2843 C   0  0  0  0  0  0  0  0  0  0  0  0
  -30.6856  -23.9547   24.0130 C   0  0  0  0  0  0  0  0  0  0  0  0
  -26.7021  -30.5857   28.2798 C   0  0  0  0  0  0  0  0  0  0  0  0
  -26.3037  -28.4822   19.1745 C   0  0  1  0  0  0  0  0  0  0  0  0
  -27.5383  -30.0245   15.9393 C   0  0  2  0  0  0  0  0  0  0  0  0
  -27.1698  -33.1125   27.8383 C   0  0  0  0  0  0  0  0  0  0  0  0
  -26.5174  -31.7952   27.3614 C   0  0  1  0  0  0  0  0  0  1  0  0
  -26.3341  -26.9709   19.5383 C   0  0  0  0  0  0  0  0  0  0  0  0
  -29.5593  -16.9891   21.5011 N   0  0  0  0  0  0  0  0  0  0  0  0
  -29.8794  -18.2633   21.2184 N   0  0  0  0  0  0  0  0  0  0  0  0
  -25.8650  -25.2991   26.7008 N   0  0  3  0  0  0  0  0  0  0  0  0
  -24.6947  -29.6391   20.6566 N   0  0  0  0  0  0  0  0  0  0  0  0
  -31.5464  -20.2977   23.9979 N   0  0  0  0  0  0  0  0  0  0  0  0
  -29.3207  -20.0831   19.8088 N   0  0  0  0  0  0  0  0  0  0  0  0
  -26.4636  -16.8383   18.5032 N   0  0  0  0  0  0  0  0  0  0  0  0
  -21.3519  -29.1445   22.0268 N   0  0  0  0  0  0  0  0  0  0  0  0
  -26.6714  -28.7716   17.7927 N   0  0  0  0  0  0  0  0  0  0  0  0
  -30.7550  -22.5347   23.6730 N   0  0  0  0  0  0  0  0  0  0  0  0
  -25.6745  -29.5388   27.9964 N   0  3  2  0  0  0  0  0  0  0  0  0
  -28.5394  -28.9842   15.5698 N   0  3  0  0  0  0  0  0  0  0  0  0
  -27.1277  -18.9995   18.1197 O   0  0  0  0  0  0  0  0  0  0  0  0
  -23.3208  -27.9044   21.9369 O   0  0  0  0  0  0  0  0  0  0  0  0
  -24.1298  -29.1050   18.4585 O   0  0  0  0  0  0  0  0  0  0  0  0
  -27.5059  -30.8980   18.1917 O   0  0  0  0  0  0  0  0  0  0  0  0
  -32.8606  -22.1195   24.5114 O   0  0  0  0  0  0  0  0  0  0  0  0
  -26.1434  -11.6899   20.6054 O   0  0  0  0  0  0  0  0  0  0  0  0
  -27.0358  -31.4671   26.0691 O   0  0  0  0  0  0  0  0  0  1  0  0
  -22.6517  -10.4942   24.7020 F   0  0  0  0  0  0  0  0  0  0  0  0
  -23.5015  -11.0669   20.0809 F   0  0  0  0  0  0  0  0  0  0  0  0
  1  2  1  0  0  0  0
  1  5  2  0  0  0  0
  2  6  2  0  0  0  0
  3 12  2  0  0  0  0
  3 19  1  0  0  0  0
  4 13  1  0  0  0  0
  4 19  2  0  0  0  0
  5 21  1  0  0  0  0
  6 23  1  0  0  0  0
  7 14  2  0  0  0  0
  7 22  1  0  0  0  0
  8 10  2  0  0  0  0
  8 25  1  0  0  0  0
  9 11  1  0  0  0  0
  9 25  2  0  0  0  0
 10 26  1  0  0  0  0
 11 26  2  0  0  0  0
 12 27  1  0  0  0  0
 13 27  2  0  0  0  0
 14 28  1  0  0  0  0
 15 16  2  0  0  0  0
 15 29  1  0  0  0  0
 16 30  1  0  0  0  0
 17 24  1  0  0  0  0
 17 28  2  0  0  0  0
 18 30  2  0  0  0  0
 18 31  1  0  0  0  0
 19 32  1  0  0  0  0
 20 32  1  0  0  0  0
 20 33  2  0  0  0  0
 20 34  1  0  0  0  0
 21 23  2  0  0  0  0
 21 39  1  0  0  0  0
 22 24  2  0  0  0  0
 22 40  1  0  0  0  0
 23 56  1  0  0  0  0
 24 41  1  0  0  0  0
 25 68  1  0  0  0  0
 26 77  1  0  0  0  0
 27 92  1  0  0  0  0
 28 93  1  0  0  0  0
 29 31  2  0  0  0  0
 29 92  1  0  0  0  0
 30 94  1  0  0  0  0
 31 95  1  0  0  0  0
 32 75  2  0  0  0  0
 33 76  1  0  0  0  0
 33 80  1  0  0  0  0
 34 81  1  0  0  0  0
 34 87  2  0  0  0  0
 35 57  1  0  0  0  0
 35 82  1  0  0  0  0
 35 88  2  0  0  0  0
 36 70  1  0  0  0  0
 36 78  1  0  0  0  0
 36 89  2  0  0  0  0
 37 71  1  0  0  0  0
 37 83  1  0  0  0  0
 37 90  2  0  0  0  0
 38 79  1  0  0  0  0
 38 84  1  0  0  0  0
 38 91  2  0  0  0  0
 39 42  1  0  0  0  0
 40 57  1  0  0  0  0
 41 78  1  0  0  0  0
 42 45  1  0  0  0  0
 43 46  1  0  0  0  0
 43 51  1  0  0  0  0
 44 47  1  0  0  0  0
 44 50  1  0  0  0  0
 45 56  1  0  0  0  0
 46 58  1  0  0  0  0
 47 59  1  0  0  0  0
 48 52  1  0  0  0  0
 48 59  1  0  0  0  0
 49 54  1  0  0  0  0
 49 59  1  0  0  0  0
 50 77  1  0  0  0  0
 51 79  1  0  0  0  0
 52 77  1  0  0  0  0
 53 58  1  0  0  0  0
 53 79  1  0  0  0  0
 54 85  1  0  0  0  0
 55 59  1  0  0  0  0
 55 85  1  0  0  0  0
 56 82  1  0  0  0  0
 57 78  1  0  0  0  0
 58 76  1  0  0  0  0
 60 71  1  0  0  0  0
 61 72  1  0  0  0  0
 62 72  1  0  0  0  0
 63 74  1  0  0  0  0
 64 74  1  0  0  0  0
 65 74  1  0  0  0  0
 66 84  1  0  0  0  0
 67 86  1  0  0  0  0
 68 84  1  0  0  0  0
 69 73  1  0  0  0  0
 69 85  1  0  0  0  0
 70 74  1  0  0  0  0
 70 83  1  0  0  0  0
 71 86  1  0  0  0  0
 72 73  1  0  0  0  0
 73 93  1  0  0  0  0
 75 76  1  0  0  0  0
M  CHG  2  85   1  86   1
M  ISO  4  38 100  73 101  84 100  93 101
M  END
> <Batch ID>
0024

> <Smiles>
CNC(C)C(=O)NC(C(=O)N1Cc2cc([101O:1][101CH:1](CN3CCC4(CCCN(c5ccc(C[100N:0](C)[100C:0](=O)N6CCCC(n7nc(-c8ccc(Oc9ccc(F)cc9F)cc8)c(C(N)=O)c7N)C6)cc5)CC4)C3)C(C)C)ccc2CC1C(=O)NC1CCCc2ccccc21)C(C)(C)C

> <Shape>
0.260

> <Color>
0.077

> <Negative vol penalty>
0.000

$$$$

  -OEChem-04042321203D

 85 94  0     1  0  0  0  0  0999 V2000
  -26.3053  -12.2914   16.8587 C   0  0  0  0  0  0  0  0  0  0  0  0
  -26.0569  -13.6598   16.8221 C   0  0  0  0  0  0  0  0  0  0  0  0
  -29.7720  -26.5152   20.0463 C   0  0  0  0  0  0  0  0  0  0  0  0
  -28.0585  -24.8154   20.1562 C   0  0  0  0  0  0  0  0  0  0  0  0
  -26.0223  -11.5634   18.0136 C   0  0  0  0  0  0  0  0  0  0  0  0
  -25.5243  -14.3007   17.9401 C   0  0  0  0  0  0  0  0  0  0  0  0
  -26.7362  -19.9934   19.8456 C   0  0  0  0  0  0  0  0  0  0  0  0
  -30.7140  -25.5954   20.5070 C   0  0  0  0  0  0  0  0  0  0  0  0
  -29.0006  -23.8956   20.6168 C   0  0  0  0  0  0  0  0  0  0  0  0
  -26.0567  -21.2003   19.6868 C   0  0  0  0  0  0  0  0  0  0  0  0
  -31.4513  -21.9738   19.3050 C   0  0  0  0  0  0  0  0  0  0  0  0
  -31.4456  -20.7014   18.7336 C   0  0  0  0  0  0  0  0  0  0  0  0
  -25.0205  -20.8938   21.8436 C   0  0  0  0  0  0  0  0  0  0  0  0
  -19.5459  -28.8993   22.9563 C   0  0  0  0  0  0  0  0  0  0  0  0
  -31.0213  -19.7287   20.9042 C   0  0  0  0  0  0  0  0  0  0  0  0
  -17.9367  -27.0982   22.8977 C   0  0  0  0  0  0  0  0  0  0  0  0
  -28.4442  -26.1252   19.8710 C   0  0  0  0  0  0  0  0  0  0  0  0
  -27.1230  -27.3386   18.0572 C   0  0  0  0  0  0  0  0  0  0  0  0
  -25.4950  -12.1975   19.1496 C   0  0  0  0  0  0  0  0  0  0  0  0
  -26.5544  -19.2209   21.0018 C   0  0  0  0  0  0  0  0  0  0  0  0
  -25.2327  -13.5803   19.1108 C   0  0  0  0  0  0  0  0  0  0  0  0
  -25.7009  -19.6787   22.0158 C   0  0  0  0  0  0  0  0  0  0  0  0
  -20.1795  -26.7416   22.0734 C   0  0  0  0  0  0  0  0  0  0  0  0
  -20.5047  -28.0612   22.3873 C   0  0  0  0  0  0  0  0  0  0  0  0
  -30.3283  -24.2856   20.7922 C   0  0  0  0  0  0  0  0  0  0  0  0
  -25.1964  -21.6493   20.6845 C   0  0  0  0  0  0  0  0  0  0  0  0
  -31.2421  -22.1237   20.6759 C   0  0  0  0  0  0  0  0  0  0  0  0
  -31.2306  -19.5788   19.5332 C   0  0  0  0  0  0  0  0  0  0  0  0
  -31.0271  -21.0012   21.4755 C   0  0  0  0  0  0  0  0  0  0  0  0
  -18.8955  -26.2601   22.3286 C   0  0  0  0  0  0  0  0  0  0  0  0
  -18.2619  -28.4178   23.2116 C   0  0  0  0  0  0  0  0  0  0  0  0
  -27.4705  -27.0750   19.3957 C   0  0  0  0  0  0  0  0  0  0  0  0
  -26.1594  -28.3140   18.1383 C   0  0  0  0  0  0  0  0  0  0  0  0
  -27.6261  -26.7539   16.8486 C   0  0  0  0  0  0  0  0  0  0  0  0
  -25.4405  -16.3043   21.5987 C   0  0  0  0  0  0  0  0  0  0  0  0
  -26.4233  -16.9699   24.6175 C   0  0  0  0  0  0  0  0  0  0  0  0
  -27.1690  -19.3295   26.9676 C   0  0  0  0  0  0  0  0  0  0  0  0
  -22.2664  -29.8620   22.3990 C   0  0  0  0  0  0  0  0  0  0  0  0
  -25.1611  -11.3604   20.3589 C   0  0  0  0  0  0  0  0  0  0  0  0
  -27.3153  -17.9344   21.1697 C   0  0  0  0  0  0  0  0  0  0  0  0
  -25.4866  -18.8967   23.2850 C   0  0  0  0  0  0  0  0  0  0  0  0
  -24.9482  -12.1814   21.6282 C   0  0  0  0  0  0  0  0  0  0  0  0
  -24.7361  -31.9505   20.9104 C   0  0  0  0  0  0  0  0  0  0  0  0
  -24.0443  -13.3771   21.3452 C   0  0  0  0  0  0  0  0  0  0  0  0
  -25.6826  -30.9615   20.2261 C   0  0  0  0  0  0  0  0  0  0  0  0
  -22.2192  -24.5210   19.9525 C   0  0  0  0  0  0  0  0  0  0  0  0
  -24.2074  -31.4050   22.2358 C   0  0  0  0  0  0  0  0  0  0  0  0
  -21.3168  -25.7473   20.0715 C   0  0  0  0  0  0  0  0  0  0  0  0
  -22.0140  -25.0419   22.2791 C   0  0  0  0  0  0  0  0  0  0  0  0
  -24.5372  -29.0856   21.4736 C   0  0  0  0  0  0  0  0  0  0  0  0
  -24.6786  -14.3158   20.3117 C   0  0  1  0  0  0  0  0  0  0  0  0
  -26.6602  -16.9778   22.1612 C   0  0  1  0  0  0  0  0  0  0  0  0
  -23.0349  -24.5620   21.2414 C   0  0  1  0  0  0  0  0  0  0  0  0
  -25.0447  -29.5638   20.1033 C   0  0  2  0  0  0  0  0  0  0  0  0
  -27.9076  -19.5684   29.3540 C   0  0  0  0  0  0  0  0  0  0  0  0
  -23.6102  -16.2535   25.5573 C   0  0  0  0  0  0  0  0  0  0  0  0
  -24.1187  -17.3970   27.7258 C   0  0  0  0  0  0  0  0  0  0  0  0
  -25.4483  -15.4057   27.0260 C   0  0  0  0  0  0  0  0  0  0  0  0
  -29.6437  -20.7494   26.1811 C   0  0  0  0  0  0  0  0  0  0  0  0
  -23.6659  -23.2263   21.5936 C   0  0  0  0  0  0  0  0  0  1  0  0
  -25.7915  -17.6073   25.8314 C   0  0  1  0  0  0  0  0  0  0  0  0
  -28.3550  -19.4797   27.9032 C   0  0  2  0  0  0  0  0  0  0  0  0
  -24.7445  -16.6799   26.5105 C   0  0  0  0  0  0  0  0  0  0  0  0
  -26.7837  -27.8228   20.2636 N   0  0  0  0  0  0  0  0  0  0  0  0
  -25.9950  -28.5658   19.4687 N   0  0  0  0  0  0  0  0  0  0  0  0
  -21.1136  -25.8984   21.5101 N   0  0  3  0  0  0  0  0  0  0  0  0
  -26.2483  -17.6420   23.3995 N   0  0  0  0  0  0  0  0  0  0  0  0
  -23.6137  -30.0804   22.0413 N   0  0  0  0  0  0  0  0  0  0  0  0
  -25.4452  -28.9723   17.2008 N   0  0  0  0  0  0  0  0  0  0  0  0
  -28.6144  -25.7649   16.9459 N   0  0  0  0  0  0  0  0  0  0  0  0
  -21.8023  -28.5731   22.1382 N   0  0  0  0  0  0  0  0  0  0  0  0
  -25.7073  -15.1256   20.9287 N   0  0  0  0  0  0  0  0  0  0  0  0
  -26.8919  -18.0050   26.7029 N   0  0  0  0  0  0  0  0  0  0  0  0
  -29.1231  -20.7131   27.5720 N   0  3  0  0  0  0  0  0  0  0  0  0
  -27.2232  -27.1099   15.7153 O   0  0  0  0  0  0  0  0  0  0  0  0
  -24.3387  -16.8154   21.7617 O   0  0  0  0  0  0  0  0  0  0  0  0
  -27.0550  -15.9183   24.7464 O   0  0  0  0  0  0  0  0  0  0  0  0
  -26.5481  -20.2909   26.5196 O   0  0  0  0  0  0  0  0  0  0  0  0
  -21.5674  -30.7604   22.8747 O   0  0  0  0  0  0  0  0  0  0  0  0
  -31.2473  -23.3878   21.2415 O   0  0  0  0  0  0  0  0  0  0  0  0
  -24.5314  -22.8267   20.5318 O   0  0  0  0  0  0  0  0  0  1  0  0
  -31.2236  -18.3571   18.9842 F   0  0  0  0  0  0  0  0  0  0  0  0
  -30.8243  -21.1390   22.7929 F   0  0  0  0  0  0  0  0  0  0  0  0
  -18.5713  -24.9934   22.0322 F   0  0  0  0  0  0  0  0  0  0  0  0
  -17.0795  -29.4499   23.9176 Cl  0  0  0  0  0  0  0  0  0  0  0  0
  1  2  1  0  0  0  0
  1  5  2  0  0  0  0
  2  6  2  0  0  0  0
  3  8  2  0  0  0  0
  3 17  1  0  0  0  0
  4  9  1  0  0  0  0
  4 17  2  0  0  0  0
  5 19  1  0  0  0  0
  6 21  1  0  0  0  0
  7 10  2  0  0  0  0
  7 20  1  0  0  0  0
  8 25  1  0  0  0  0
  9 25  2  0  0  0  0
 10 26  1  0  0  0  0
 11 12  2  0  0  0  0
 11 27  1  0  0  0  0
 12 28  1  0  0  0  0
 13 22  1  0  0  0  0
 13 26  2  0  0  0  0
 14 24  1  0  0  0  0
 14 31  2  0  0  0  0
 15 28  2  0  0  0  0
 15 29  1  0  0  0  0
 16 30  2  0  0  0  0
 16 31  1  0  0  0  0
 17 32  1  0  0  0  0
 18 32  1  0  0  0  0
 18 33  2  0  0  0  0
 18 34  1  0  0  0  0
 19 21  2  0  0  0  0
 19 39  1  0  0  0  0
 20 22  2  0  0  0  0
 20 40  1  0  0  0  0
 21 51  1  0  0  0  0
 22 41  1  0  0  0  0
 23 24  2  0  0  0  0
 23 30  1  0  0  0  0
 23 66  1  0  0  0  0
 24 71  1  0  0  0  0
 25 80  1  0  0  0  0
 26 81  1  0  0  0  0
 27 29  2  0  0  0  0
 27 80  1  0  0  0  0
 28 82  1  0  0  0  0
 29 83  1  0  0  0  0
 30 84  1  0  0  0  0
 31 85  1  0  0  0  0
 32 64  2  0  0  0  0
 33 65  1  0  0  0  0
 33 69  1  0  0  0  0
 34 70  1  0  0  0  0
 34 75  2  0  0  0  0
 35 52  1  0  0  0  0
 35 72  1  0  0  0  0
 35 76  2  0  0  0  0
 36 61  1  0  0  0  0
 36 67  1  0  0  0  0
 36 77  2  0  0  0  0
 37 62  1  0  0  0  0
 37 73  1  0  0  0  0
 37 78  2  0  0  0  0
 38 68  1  0  0  0  0
 38 71  1  0  0  0  0
 38 79  2  0  0  0  0
 39 42  1  0  0  0  0
 40 52  1  0  0  0  0
 41 67  1  0  0  0  0
 42 44  1  0  0  0  0
 43 45  1  0  0  0  0
 43 47  1  0  0  0  0
 44 51  1  0  0  0  0
 45 54  1  0  0  0  0
 46 48  1  0  0  0  0
 46 53  1  0  0  0  0
 47 68  1  0  0  0  0
 48 66  1  0  0  0  0
 49 53  1  0  0  0  0
 49 66  1  0  0  0  0
 50 54  1  0  0  0  0
 50 68  1  0  0  0  0
 51 72  1  0  0  0  0
 52 67  1  0  0  0  0
 53 60  1  0  0  0  0
 54 65  1  0  0  0  0
 55 62  1  0  0  0  0
 56 63  1  0  0  0  0
 57 63  1  0  0  0  0
 58 63  1  0  0  0  0
 59 74  1  0  0  0  0
 60 81  1  0  0  0  0
 61 63  1  0  0  0  0
 61 73  1  0  0  0  0
 62 74  1  0  0  0  0
 64 65  1  0  0  0  0
M  CHG  1  74   1
M  ISO  4  38 100  60 101  71 100  81 101
M  END
> <Batch ID>
0024

> <Smiles>
CNC(C)C(=O)NC(C(=O)N1Cc2cc([101O:1][101CH2:1]C3CCN(c4c(F)cc(Cl)cc4[100NH:0][100C:0](=O)N4CCCC(n5nc(-c6ccc(Oc7ccc(F)cc7F)cc6)c(C(N)=O)c5N)C4)C3)ccc2CC1C(=O)NC1CCCc2ccccc21)C(C)(C)C

> <Shape>
0.197

> <Color>
0.077

> <Negative vol penalty>
0.000

$$$$

  -OEChem-04042321203D

 87 96  0     1  0  0  0  0  0999 V2000
  -22.8267  -30.3019   12.6117 C   0  0  0  0  0  0  0  0  0  0  0  0
  -23.0819  -28.9416   12.7532 C   0  0  0  0  0  0  0  0  0  0  0  0
  -23.2846   -9.7977   19.9084 C   0  0  0  0  0  0  0  0  0  0  0  0
  -23.7119   -9.9383   22.2822 C   0  0  0  0  0  0  0  0  0  0  0  0
  -22.6388  -31.0959   13.7422 C   0  0  0  0  0  0  0  0  0  0  0  0
  -23.1504  -28.3748   14.0254 C   0  0  0  0  0  0  0  0  0  0  0  0
  -21.3490  -22.7523   15.6527 C   0  0  0  0  0  0  0  0  0  0  0  0
  -29.2416  -17.4507   20.4393 C   0  0  0  0  0  0  0  0  0  0  0  0
  -29.5877  -16.6162   19.3766 C   0  0  0  0  0  0  0  0  0  0  0  0
  -22.5493   -8.6297   20.1099 C   0  0  0  0  0  0  0  0  0  0  0  0
  -22.9765   -8.7703   22.4837 C   0  0  0  0  0  0  0  0  0  0  0  0
  -22.0478  -21.5601   15.8369 C   0  0  0  0  0  0  0  0  0  0  0  0
  -19.4517   -7.7886   21.1732 C   0  0  0  0  0  0  0  0  0  0  0  0
  -18.2287   -7.6705   20.5130 C   0  0  0  0  0  0  0  0  0  0  0  0
  -22.1747  -22.0072   18.2040 C   0  0  0  0  0  0  0  0  0  0  0  0
  -27.6276  -17.3444   18.1664 C   0  0  0  0  0  0  0  0  0  0  0  0
  -19.0303   -5.6918   19.3819 C   0  0  0  0  0  0  0  0  0  0  0  0
  -23.8660  -10.4520   20.9945 C   0  0  0  0  0  0  0  0  0  0  0  0
  -24.1422  -12.9802   20.7960 C   0  0  0  0  0  0  0  0  0  0  0  0
  -22.6954  -30.5368   15.0286 C   0  0  0  0  0  0  0  0  0  0  0  0
  -21.0668  -23.5877   16.7430 C   0  0  0  0  0  0  0  0  0  0  0  0
  -22.9643  -29.1624   15.1742 C   0  0  0  0  0  0  0  0  0  0  0  0
  -21.4699  -23.2083   18.0313 C   0  0  0  0  0  0  0  0  0  0  0  0
  -28.0884  -18.2320   20.3657 C   0  0  0  0  0  0  0  0  0  0  0  0
  -28.7808  -16.5631   18.2401 C   0  0  0  0  0  0  0  0  0  0  0  0
  -27.2814  -18.1789   19.2292 C   0  0  0  0  0  0  0  0  0  0  0  0
  -22.3952   -8.1160   21.3975 C   0  0  0  0  0  0  0  0  0  0  0  0
  -22.4633  -21.1887   17.1123 C   0  0  0  0  0  0  0  0  0  0  0  0
  -20.4641   -6.8583   20.9377 C   0  0  0  0  0  0  0  0  0  0  0  0
  -18.0180   -6.6221   19.6174 C   0  0  0  0  0  0  0  0  0  0  0  0
  -20.2534   -5.8099   20.0421 C   0  0  0  0  0  0  0  0  0  0  0  0
  -24.6262  -11.6583   20.7869 C   0  0  0  0  0  0  0  0  0  0  0  0
  -25.2508  -13.7534   20.5515 C   0  0  0  0  0  0  0  0  0  0  0  0
  -22.8098  -13.4659   21.0066 C   0  0  0  0  0  0  0  0  0  0  0  0
  -21.8415  -26.5634   17.5485 C   0  0  0  0  0  0  0  0  0  0  0  0
  -19.7815  -26.0227   19.9952 C   0  0  0  0  0  0  0  0  0  0  0  0
  -25.2084  -19.0140   18.0719 C   0  0  0  0  0  0  0  0  0  0  0  0
  -18.2116  -23.7641   22.0153 C   0  0  0  0  0  0  0  0  0  0  0  0
  -29.8468  -14.4943   17.3049 C   0  0  0  0  0  0  0  0  0  0  0  0
  -22.5327  -31.4441   16.2223 C   0  0  0  0  0  0  0  0  0  0  0  0
  -20.2887  -24.8574   16.5314 C   0  0  0  0  0  0  0  0  0  0  0  0
  -21.1742  -24.0600   19.2378 C   0  0  0  0  0  0  0  0  0  0  0  0
  -22.2494  -30.6956   17.5222 C   0  0  0  0  0  0  0  0  0  0  0  0
  -27.8512  -20.8103   23.0505 C   0  0  0  0  0  0  0  0  0  0  0  0
  -26.6097  -19.9811   23.3096 C   0  0  0  0  0  0  0  0  0  0  0  0
  -30.1624  -12.5979   20.4667 C   0  0  0  0  0  0  0  0  0  0  0  0
  -23.2029  -29.5150   17.6771 C   0  0  0  0  0  0  0  0  0  0  0  0
  -28.7159  -12.2226   20.7830 C   0  0  0  0  0  0  0  0  0  0  0  0
  -28.1960  -20.4585   21.6079 C   0  0  0  0  0  0  0  0  0  0  0  0
  -26.9233  -18.6729   22.5927 C   0  0  0  0  0  0  0  0  0  0  0  0
  -30.3942  -12.7445   18.9659 C   0  0  0  0  0  0  0  0  0  0  0  0
  -28.0114  -13.3351   18.6272 C   0  0  0  0  0  0  0  0  0  0  0  0
  -23.0216  -28.5061   16.5366 C   0  0  1  0  0  0  0  0  0  0  0  0
  -20.5051  -25.8827   17.6402 C   0  0  1  0  0  0  0  0  0  0  0  0
  -27.7424  -13.2210   20.1352 C   0  0  1  0  0  0  0  0  0  0  0  0
  -16.6161  -23.6245   23.9473 C   0  0  0  0  0  0  0  0  0  0  0  0
  -22.0127  -26.8711   21.8959 C   0  0  0  0  0  0  0  0  0  0  0  0
  -20.7210  -25.8244   23.7679 C   0  0  0  0  0  0  0  0  0  0  0  0
  -19.7446  -27.7363   22.4974 C   0  0  0  0  0  0  0  0  0  0  0  0
  -28.9911  -16.2228   15.7844 C   0  0  0  0  0  0  0  0  0  0  0  0
  -16.2402  -22.2314   20.4268 C   0  0  0  0  0  0  0  0  0  0  0  0
  -24.0806  -19.9837   18.3724 C   0  0  0  0  0  0  0  0  0  1  0  0
  -19.9048  -25.4673   21.3936 C   0  0  1  0  0  0  0  0  0  0  0  0
  -16.7588  -23.6257   22.4332 C   0  0  2  0  0  0  0  0  0  0  0  0
  -20.6032  -26.4594   22.3659 C   0  0  0  0  0  0  0  0  0  0  0  0
  -25.9398  -11.5917   20.5550 N   0  0  0  0  0  0  0  0  0  0  0  0
  -26.2908  -12.8815   20.4158 N   0  0  0  0  0  0  0  0  0  0  0  0
  -27.7577  -19.0661   21.4507 N   0  0  0  0  0  0  0  0  0  0  0  0
  -20.4161  -25.2951   18.9785 N   0  0  0  0  0  0  0  0  0  0  0  0
  -29.4226  -13.6514   18.3526 N   0  0  0  0  0  0  0  0  0  0  0  0
  -25.4277  -15.0872   20.4414 N   0  0  0  0  0  0  0  0  0  0  0  0
  -21.7892  -12.5352   21.2446 N   0  0  0  0  0  0  0  0  0  0  0  0
  -26.1066  -18.9618   19.1324 N   0  0  0  0  0  0  0  0  0  0  0  0
  -21.8420  -27.6979   16.7595 N   0  0  0  0  0  0  0  0  0  0  0  0
  -18.5577  -25.0812   21.7996 N   0  0  0  0  0  0  0  0  0  0  0  0
  -29.1392  -15.7004   17.1410 N   0  0  0  0  0  0  0  0  0  0  0  0
  -16.1871  -22.3543   21.9063 N   0  3  0  0  0  0  0  0  0  0  0  0
  -22.5294  -14.6880   20.9680 O   0  0  0  0  0  0  0  0  0  0  0  0
  -22.8007  -26.0950   18.1502 O   0  0  0  0  0  0  0  0  0  0  0  0
  -19.1397  -27.0598   19.8108 O   0  0  0  0  0  0  0  0  0  0  0  0
  -25.2577  -18.3935   17.0150 O   0  0  0  0  0  0  0  0  0  0  0  0
  -18.9651  -22.8005   21.8961 O   0  0  0  0  0  0  0  0  0  0  0  0
  -30.7573  -14.1705   16.5324 O   0  0  0  0  0  0  0  0  0  0  0  0
  -21.6775   -6.9764   21.5946 O   0  0  0  0  0  0  0  0  0  0  0  0
  -23.1461  -20.0259   17.2948 O   0  0  0  0  0  0  0  0  0  1  0  0
  -16.8429   -6.5080   18.9847 F   0  0  0  0  0  0  0  0  0  0  0  0
  -21.2218   -4.9125   19.8127 F   0  0  0  0  0  0  0  0  0  0  0  0
  1  2  1  0  0  0  0
  1  5  2  0  0  0  0
  2  6  2  0  0  0  0
  3 10  2  0  0  0  0
  3 18  1  0  0  0  0
  4 11  1  0  0  0  0
  4 18  2  0  0  0  0
  5 20  1  0  0  0  0
  6 22  1  0  0  0  0
  7 12  2  0  0  0  0
  7 21  1  0  0  0  0
  8  9  2  0  0  0  0
  8 24  1  0  0  0  0
  9 25  1  0  0  0  0
 10 27  1  0  0  0  0
 11 27  2  0  0  0  0
 12 28  1  0  0  0  0
 13 14  2  0  0  0  0
 13 29  1  0  0  0  0
 14 30  1  0  0  0  0
 15 23  1  0  0  0  0
 15 28  2  0  0  0  0
 16 25  2  0  0  0  0
 16 26  1  0  0  0  0
 17 30  2  0  0  0  0
 17 31  1  0  0  0  0
 18 32  1  0  0  0  0
 19 32  1  0  0  0  0
 19 33  2  0  0  0  0
 19 34  1  0  0  0  0
 20 22  2  0  0  0  0
 20 40  1  0  0  0  0
 21 23  2  0  0  0  0
 21 41  1  0  0  0  0
 22 53  1  0  0  0  0
 23 42  1  0  0  0  0
 24 26  2  0  0  0  0
 24 68  1  0  0  0  0
 25 76  1  0  0  0  0
 26 73  1  0  0  0  0
 27 84  1  0  0  0  0
 28 85  1  0  0  0  0
 29 31  2  0  0  0  0
 29 84  1  0  0  0  0
 30 86  1  0  0  0  0
 31 87  1  0  0  0  0
 32 66  2  0  0  0  0
 33 67  1  0  0  0  0
 33 71  1  0  0  0  0
 34 72  1  0  0  0  0
 34 78  2  0  0  0  0
 35 54  1  0  0  0  0
 35 74  1  0  0  0  0
 35 79  2  0  0  0  0
 36 63  1  0  0  0  0
 36 69  1  0  0  0  0
 36 80  2  0  0  0  0
 37 62  1  0  0  0  0
 37 73  1  0  0  0  0
 37 81  2  0  0  0  0
 38 64  1  0  0  0  0
 38 75  1  0  0  0  0
 38 82  2  0  0  0  0
 39 70  1  0  0  0  0
 39 76  1  0  0  0  0
 39 83  2  0  0  0  0
 40 43  1  0  0  0  0
 41 54  1  0  0  0  0
 42 69  1  0  0  0  0
 43 47  1  0  0  0  0
 44 45  1  0  0  0  0
 44 49  1  0  0  0  0
 45 50  1  0  0  0  0
 46 48  1  0  0  0  0
 46 51  1  0  0  0  0
 47 53  1  0  0  0  0
 48 55  1  0  0  0  0
 49 68  1  0  0  0  0
 50 68  1  0  0  0  0
 51 70  1  0  0  0  0
 52 55  1  0  0  0  0
 52 70  1  0  0  0  0
 53 74  1  0  0  0  0
 54 69  1  0  0  0  0
 55 67  1  0  0  0  0
 56 64  1  0  0  0  0
 57 65  1  0  0  0  0
 58 65  1  0  0  0  0
 59 65  1  0  0  0  0
 60 76  1  0  0  0  0
 61 77  1  0  0  0  0
 62 85  1  0  0  0  0
 63 65  1  0  0  0  0
 63 75  1  0  0  0  0
 64 77  1  0  0  0  0
 66 67  1  0  0  0  0
M  CHG  1  77   1
M  ISO  4  39 100  62 101  76 100  85 101
M  END
> <Batch ID>
0024

> <Smiles>
CNC(C)C(=O)NC(C(=O)N1Cc2cc([101O:1][101CH2:1]C(=O)Nc3cc([100N:0](C)[100C:0](=O)N4CCCC(n5nc(-c6ccc(Oc7ccc(F)cc7F)cc6)c(C(N)=O)c5N)C4)ccc3N3CCCC3)ccc2CC1C(=O)NC1CCCc2ccccc21)C(C)(C)C

> <Shape>
0.183

> <Color>
0.173

> <Negative vol penalty>
0.000

$$$$

  -OEChem-04042321203D

 87 96  0     1  0  0  0  0  0999 V2000
  -25.2208  -35.5783   21.8233 C   0  0  0  0  0  0  0  0  0  0  0  0
  -25.9113  -34.3720   21.7637 C   0  0  0  0  0  0  0  0  0  0  0  0
  -25.8171  -23.9620   17.8284 C   0  0  0  0  0  0  0  0  0  0  0  0
  -26.3814  -12.6061   20.4927 C   0  0  0  0  0  0  0  0  0  0  0  0
  -24.7494  -14.2766   21.1116 C   0  0  0  0  0  0  0  0  0  0  0  0
  -23.9638  -35.6317   22.4240 C   0  0  0  0  0  0  0  0  0  0  0  0
  -25.3455  -33.2186   22.3059 C   0  0  0  0  0  0  0  0  0  0  0  0
  -25.8233  -29.2029   19.2579 C   0  0  0  0  0  0  0  0  0  0  0  0
  -25.7200  -22.8610   18.6793 C   0  0  0  0  0  0  0  0  0  0  0  0
  -27.0633  -24.5283   17.5599 C   0  0  0  0  0  0  0  0  0  0  0  0
  -25.5748  -11.6125   21.0475 C   0  0  0  0  0  0  0  0  0  0  0  0
  -23.9428  -13.2830   21.6665 C   0  0  0  0  0  0  0  0  0  0  0  0
  -27.0656  -28.5706   19.2277 C   0  0  0  0  0  0  0  0  0  0  0  0
  -23.7789   -8.5925   21.9797 C   0  0  0  0  0  0  0  0  0  0  0  0
  -23.5954   -7.4209   21.2454 C   0  0  0  0  0  0  0  0  0  0  0  0
  -26.2306  -26.8718   20.7230 C   0  0  0  0  0  0  0  0  0  0  0  0
  -22.6236   -8.7029   19.4428 C   0  0  0  0  0  0  0  0  0  0  0  0
  -25.9687  -13.9382   20.5248 C   0  0  0  0  0  0  0  0  0  0  0  0
  -27.2281  -15.0662   18.6145 C   0  0  0  0  0  0  0  0  0  0  0  0
  -23.3781  -34.4764   22.9653 C   0  0  0  0  0  0  0  0  0  0  0  0
  -24.7769  -28.6794   20.0308 C   0  0  0  0  0  0  0  0  0  0  0  0
  -24.0801  -33.2569   22.9157 C   0  0  0  0  0  0  0  0  0  0  0  0
  -24.9752  -27.4978   20.7593 C   0  0  0  0  0  0  0  0  0  0  0  0
  -26.8691  -22.3263   19.2617 C   0  0  0  0  0  0  0  0  0  0  0  0
  -28.2124  -23.9935   18.1424 C   0  0  0  0  0  0  0  0  0  0  0  0
  -24.3555  -11.9510   21.6344 C   0  0  0  0  0  0  0  0  0  0  0  0
  -27.2702  -27.4065   19.9626 C   0  0  0  0  0  0  0  0  0  0  0  0
  -23.3846   -9.8193   21.4457 C   0  0  0  0  0  0  0  0  0  0  0  0
  -23.0178   -7.4761   19.9769 C   0  0  0  0  0  0  0  0  0  0  0  0
  -22.8070   -9.8745   20.1772 C   0  0  0  0  0  0  0  0  0  0  0  0
  -28.1154  -22.8925   18.9933 C   0  0  0  0  0  0  0  0  0  0  0  0
  -26.8017  -14.9651   19.9523 C   0  0  0  0  0  0  0  0  0  0  0  0
  -27.9914  -16.2076   18.5827 C   0  0  0  0  0  0  0  0  0  0  0  0
  -26.9582  -14.2054   17.5001 C   0  0  0  0  0  0  0  0  0  0  0  0
  -23.0695  -29.7274   22.4987 C   0  0  0  0  0  0  0  0  0  0  0  0
  -21.3910  -26.9974   21.9965 C   0  0  0  0  0  0  0  0  0  0  0  0
  -21.3292  -23.8231   20.7448 C   0  0  0  0  0  0  0  0  0  0  0  0
  -27.8790  -20.9714   22.4340 C   0  0  0  0  0  0  0  0  0  0  0  0
  -22.0377  -34.5931   23.6467 C   0  0  0  0  0  0  0  0  0  0  0  0
  -23.4348  -29.3585   20.0316 C   0  0  0  0  0  0  0  0  0  0  0  0
  -23.8782  -26.8840   21.5888 C   0  0  0  0  0  0  0  0  0  0  0  0
  -21.3459  -33.2497   23.8639 C   0  0  0  0  0  0  0  0  0  0  0  0
  -30.7754  -18.9425   21.3402 C   0  0  0  0  0  0  0  0  0  0  0  0
  -31.6176  -24.7196   16.9225 C   0  0  0  0  0  0  0  0  0  0  0  0
  -22.3258  -32.2312   24.4377 C   0  0  0  0  0  0  0  0  0  0  0  0
  -30.1117  -17.6714   20.8133 C   0  0  0  0  0  0  0  0  0  0  0  0
  -31.2825  -26.0349   17.5983 C   0  0  0  0  0  0  0  0  0  0  0  0
  -30.2504  -24.0800   16.7374 C   0  0  0  0  0  0  0  0  0  0  0  0
  -29.9383  -19.6109   22.4266 C   0  0  0  0  0  0  0  0  0  0  0  0
  -27.8730  -18.6260   21.4894 C   0  0  0  0  0  0  0  0  0  0  0  0
  -23.4889  -31.9791   23.4705 C   0  0  1  0  0  0  0  0  0  0  0  0
  -22.5953  -29.0214   21.2600 C   0  0  1  0  0  0  0  0  0  0  0  0
  -28.6685  -17.9533   20.3606 C   0  0  2  0  0  0  0  0  0  0  0  0
  -30.1301  -25.6749   18.5740 C   0  0  1  0  0  0  0  0  0  0  0  0
  -30.7276  -25.2133   19.9112 C   0  0  0  0  0  0  0  0  0  0  0  0
  -19.8292  -21.8241   20.5174 C   0  0  0  0  0  0  0  0  0  0  0  0
  -21.8436  -26.3261   24.9384 C   0  0  0  0  0  0  0  0  0  0  0  0
  -21.1851  -23.9650   24.4290 C   0  0  0  0  0  0  0  0  0  0  0  0
  -19.5459  -25.8152   24.0933 C   0  0  0  0  0  0  0  0  0  0  0  0
  -26.1865  -22.7092   21.9927 C   0  0  0  0  0  0  0  0  0  0  0  0
  -21.4390  -23.9318   17.7893 C   0  0  0  0  0  0  0  0  0  0  0  0
  -26.7617  -21.1488   20.1706 C   0  0  0  0  0  0  0  0  0  0  0  0
  -29.2517  -26.9192   18.7410 C   0  0  0  0  0  0  0  0  0  1  0  0
  -21.4890  -25.5753   22.4937 C   0  0  1  0  0  0  0  0  0  0  0  0
  -20.3207  -23.1068   19.8648 C   0  0  2  0  0  0  0  0  0  0  0  0
  -21.0374  -25.4328   23.9746 C   0  0  0  0  0  0  0  0  0  0  0  0
  -27.2565  -15.9626   20.7152 N   0  0  0  0  0  0  0  0  0  0  0  0
  -27.9767  -16.7014   19.8540 N   0  0  0  0  0  0  0  0  0  0  0  0
  -29.4485  -24.5577   17.8738 N   0  0  3  0  0  0  0  0  0  0  0  0
  -22.5858  -27.5886   21.5622 N   0  0  0  0  0  0  0  0  0  0  0  0
  -28.5602  -19.8279   21.9853 N   0  0  0  0  0  0  0  0  0  0  0  0
  -28.6670  -16.8270   17.5916 N   0  0  0  0  0  0  0  0  0  0  0  0
  -25.8297  -14.4674   16.7113 N   0  0  0  0  0  0  0  0  0  0  0  0
  -23.0715  -31.1053   22.3950 N   0  0  0  0  0  0  0  0  0  0  0  0
  -20.7248  -24.7611   21.5549 N   0  0  0  0  0  0  0  0  0  0  0  0
  -26.9113  -21.5169   21.5769 N   0  0  0  0  0  0  0  0  0  0  0  0
  -20.9332  -22.7609   18.5510 N   0  3  0  0  0  0  0  0  0  0  0  0
  -27.6868  -13.2228   17.2221 O   0  0  0  0  0  0  0  0  0  0  0  0
  -23.4071  -29.0706   23.4766 O   0  0  0  0  0  0  0  0  0  0  0  0
  -20.2934  -27.5604   21.9870 O   0  0  0  0  0  0  0  0  0  0  0  0
  -22.5321  -23.5727   20.7191 O   0  0  0  0  0  0  0  0  0  0  0  0
  -28.1288  -21.4815   23.5337 O   0  0  0  0  0  0  0  0  0  0  0  0
  -23.5681  -10.9817   22.1757 O   0  0  0  0  0  0  0  0  0  0  0  0
  -28.4820  -26.7878   19.9354 O   0  0  0  0  0  0  0  0  0  1  0  0
  -22.8432   -6.3511   19.2712 F   0  0  0  0  0  0  0  0  0  0  0  0
  -22.4273  -11.0503   19.6584 F   0  0  0  0  0  0  0  0  0  0  0  0
  -29.2202  -22.3773   19.5532 F   0  0  0  0  0  0  0  0  0  0  0  0
  1  2  1  0  0  0  0
  1  6  2  0  0  0  0
  2  7  2  0  0  0  0
  3  9  1  0  0  0  0
  3 10  2  0  0  0  0
  4 11  2  0  0  0  0
  4 18  1  0  0  0  0
  5 12  1  0  0  0  0
  5 18  2  0  0  0  0
  6 20  1  0  0  0  0
  7 22  1  0  0  0  0
  8 13  2  0  0  0  0
  8 21  1  0  0  0  0
  9 24  2  0  0  0  0
 10 25  1  0  0  0  0
 11 26  1  0  0  0  0
 12 26  2  0  0  0  0
 13 27  1  0  0  0  0
 14 15  2  0  0  0  0
 14 28  1  0  0  0  0
 15 29  1  0  0  0  0
 16 23  1  0  0  0  0
 16 27  2  0  0  0  0
 17 29  2  0  0  0  0
 17 30  1  0  0  0  0
 18 32  1  0  0  0  0
 19 32  1  0  0  0  0
 19 33  2  0  0  0  0
 19 34  1  0  0  0  0
 20 22  2  0  0  0  0
 20 39  1  0  0  0  0
 21 23  2  0  0  0  0
 21 40  1  0  0  0  0
 22 51  1  0  0  0  0
 23 41  1  0  0  0  0
 24 31  1  0  0  0  0
 24 62  1  0  0  0  0
 25 31  2  0  0  0  0
 25 69  1  0  0  0  0
 26 83  1  0  0  0  0
 27 84  1  0  0  0  0
 28 30  2  0  0  0  0
 28 83  1  0  0  0  0
 29 85  1  0  0  0  0
 30 86  1  0  0  0  0
 31 87  1  0  0  0  0
 32 67  2  0  0  0  0
 33 68  1  0  0  0  0
 33 72  1  0  0  0  0
 34 73  1  0  0  0  0
 34 78  2  0  0  0  0
 35 52  1  0  0  0  0
 35 74  1  0  0  0  0
 35 79  2  0  0  0  0
 36 64  1  0  0  0  0
 36 70  1  0  0  0  0
 36 80  2  0  0  0  0
 37 65  1  0  0  0  0
 37 75  1  0  0  0  0
 37 81  2  0  0  0  0
 38 71  1  0  0  0  0
 38 76  1  0  0  0  0
 38 82  2  0  0  0  0
 39 42  1  0  0  0  0
 40 52  1  0  0  0  0
 41 70  1  0  0  0  0
 42 45  1  0  0  0  0
 43 46  1  0  0  0  0
 43 49  1  0  0  0  0
 44 47  1  0  0  0  0
 44 48  1  0  0  0  0
 45 51  1  0  0  0  0
 46 53  1  0  0  0  0
 47 54  1  0  0  0  0
 48 69  1  0  0  0  0
 49 71  1  0  0  0  0
 50 53  1  0  0  0  0
 50 71  1  0  0  0  0
 51 74  1  0  0  0  0
 52 70  1  0  0  0  0
 53 68  1  0  0  0  0
 54 55  1  0  0  0  0
 54 63  1  0  0  0  0
 54 69  1  0  0  0  0
 56 65  1  0  0  0  0
 57 66  1  0  0  0  0
 58 66  1  0  0  0  0
 59 66  1  0  0  0  0
 60 76  1  0  0  0  0
 61 77  1  0  0  0  0
 62 76  1  0  0  0  0
 63 84  1  0  0  0  0
 64 66  1  0  0  0  0
 64 75  1  0  0  0  0
 65 77  1  0  0  0  0
 67 68  1  0  0  0  0
M  CHG  1  77   1
M  ISO  4  38 100  63 101  76 100  84 101
M  END
> <Batch ID>
0024

> <Smiles>
CNC(C)C(=O)NC(C(=O)N1Cc2cc([101O:1][101CH2:1]C3(C)CCCN3c3cccc(C[100N:0](C)[100C:0](=O)N4CCCC(n5nc(-c6ccc(Oc7ccc(F)cc7F)cc6)c(C(N)=O)c5N)C4)c3F)ccc2CC1C(=O)NC1CCCc2ccccc21)C(C)(C)C

> <Shape>
0.271

> <Color>
0.084

> <Negative vol penalty>
0.000

$$$$

  -OEChem-04042321203D

 86 95  0     1  0  0  0  0  0999 V2000
  -33.0204  -24.8769   19.0746 C   0  0  0  0  0  0  0  0  0  0  0  0
  -31.6815  -24.7510   19.4308 C   0  0  0  0  0  0  0  0  0  0  0  0
  -22.9896  -10.0287   20.0560 C   0  0  0  0  0  0  0  0  0  0  0  0
  -24.4427   -9.4028   21.8818 C   0  0  0  0  0  0  0  0  0  0  0  0
  -33.8024  -25.8777   19.6497 C   0  0  0  0  0  0  0  0  0  0  0  0
  -31.1241  -25.6252   20.3633 C   0  0  0  0  0  0  0  0  0  0  0  0
  -26.5820  -27.3505   18.9359 C   0  0  0  0  0  0  0  0  0  0  0  0
  -24.9926  -20.5525   21.7069 C   0  0  0  0  0  0  0  0  0  0  0  0
  -25.8056  -19.4217   21.6292 C   0  0  0  0  0  0  0  0  0  0  0  0
  -21.9570   -9.2807   20.6214 C   0  0  0  0  0  0  0  0  0  0  0  0
  -23.4101   -8.6548   22.4473 C   0  0  0  0  0  0  0  0  0  0  0  0
  -25.4949  -26.4933   19.1004 C   0  0  0  0  0  0  0  0  0  0  0  0
  -21.9698   -5.6340   21.9664 C   0  0  0  0  0  0  0  0  0  0  0  0
  -22.2772   -4.3579   22.4383 C   0  0  0  0  0  0  0  0  0  0  0  0
  -24.8904  -27.6581   21.1246 C   0  0  0  0  0  0  0  0  0  0  0  0
  -24.3204  -18.4674   19.9798 C   0  0  0  0  0  0  0  0  0  0  0  0
  -21.5751   -5.0092   24.6565 C   0  0  0  0  0  0  0  0  0  0  0  0
  -24.2325  -10.0897   20.6862 C   0  0  0  0  0  0  0  0  0  0  0  0
  -25.8839  -10.6818   18.8341 C   0  0  0  0  0  0  0  0  0  0  0  0
  -33.2519  -26.7707   20.5825 C   0  0  0  0  0  0  0  0  0  0  0  0
  -26.8383  -28.3627   19.8720 C   0  0  0  0  0  0  0  0  0  0  0  0
  -31.8999  -26.6380   20.9525 C   0  0  0  0  0  0  0  0  0  0  0  0
  -25.9800  -28.5284   20.9683 C   0  0  0  0  0  0  0  0  0  0  0  0
  -23.8435  -20.6407   20.9212 C   0  0  0  0  0  0  0  0  0  0  0  0
  -25.4695  -18.3792   20.7656 C   0  0  0  0  0  0  0  0  0  0  0  0
  -22.1672   -8.5937   21.8170 C   0  0  0  0  0  0  0  0  0  0  0  0
  -24.6505  -26.6452   20.1964 C   0  0  0  0  0  0  0  0  0  0  0  0
  -21.4651   -6.5977   22.8395 C   0  0  0  0  0  0  0  0  0  0  0  0
  -22.0798   -4.0455   23.7834 C   0  0  0  0  0  0  0  0  0  0  0  0
  -23.5074  -19.5982   20.0576 C   0  0  0  0  0  0  0  0  0  0  0  0
  -21.2677   -6.2853   24.1845 C   0  0  0  0  0  0  0  0  0  0  0  0
  -25.2998  -10.8618   20.1023 C   0  0  0  0  0  0  0  0  0  0  0  0
  -26.8441  -11.6608   18.7563 C   0  0  0  0  0  0  0  0  0  0  0  0
  -23.5538  -23.0727   21.3202 C   0  0  0  0  0  0  0  0  0  0  0  0
  -25.5851   -9.7161   17.8173 C   0  0  0  0  0  0  0  0  0  0  0  0
  -29.2352  -29.0361   21.8481 C   0  0  0  0  0  0  0  0  0  0  0  0
  -27.5117  -31.7288   22.3966 C   0  0  0  0  0  0  0  0  0  0  0  0
  -24.0372  -32.5820   22.8630 C   0  0  0  0  0  0  0  0  0  0  0  0
  -27.4698  -16.9842   21.3973 C   0  0  0  0  0  0  0  0  0  0  0  0
  -34.1487  -27.8067   21.2126 C   0  0  0  0  0  0  0  0  0  0  0  0
  -27.9997  -29.2960   19.6659 C   0  0  0  0  0  0  0  0  0  0  0  0
  -26.1998  -29.6122   21.9908 C   0  0  0  0  0  0  0  0  0  0  0  0
  -33.3857  -28.9283   21.9126 C   0  0  0  0  0  0  0  0  0  0  0  0
  -20.6542  -22.7309   21.0642 C   0  0  0  0  0  0  0  0  0  0  0  0
  -29.7673  -14.2666   21.5128 C   0  0  0  0  0  0  0  0  0  0  0  0
  -32.2746  -28.3539   22.7858 C   0  0  0  0  0  0  0  0  0  0  0  0
  -21.2659  -24.1102   20.9462 C   0  0  0  0  0  0  0  0  0  0  0  0
  -28.9372  -13.0699   21.0430 C   0  0  0  0  0  0  0  0  0  0  0  0
  -21.6170  -21.6903   20.5191 C   0  0  0  0  0  0  0  0  0  0  0  0
  -28.9419  -15.2306   22.3632 C   0  0  0  0  0  0  0  0  0  0  0  0
  -26.8589  -14.4886   21.2770 C   0  0  0  0  0  0  0  0  0  0  0  0
  -31.2526  -27.5827   21.9418 C   0  0  1  0  0  0  0  0  0  0  0  0
  -22.5521  -24.1464   21.7578 C   0  0  2  0  0  0  0  0  0  0  0  0
  -28.4636  -29.9664   20.9554 C   0  0  1  0  0  0  0  0  0  0  0  0
  -27.6303  -13.5227   20.3629 C   0  0  2  0  0  0  0  0  0  0  0  0
  -22.8088  -34.7239   22.4147 C   0  0  0  0  0  0  0  0  0  0  0  0
  -28.0813  -32.3319   25.3329 C   0  0  0  0  0  0  0  0  0  0  0  0
  -25.8016  -33.3545   25.4930 C   0  0  0  0  0  0  0  0  0  0  0  0
  -27.5002  -34.3333   23.9505 C   0  0  0  0  0  0  0  0  0  0  0  0
  -22.0599  -31.2211   21.1318 C   0  0  0  0  0  0  0  0  0  0  0  0
  -23.1722  -25.5428   21.6981 C   0  0  0  0  0  0  0  0  0  1  0  0
  -26.4227  -32.1223   23.3653 C   0  0  1  0  0  0  0  0  0  0  0  0
  -23.1485  -33.3370   21.8911 C   0  0  2  0  0  0  0  0  0  0  0  0
  -26.9547  -33.0086   24.5268 C   0  0  0  0  0  0  0  0  0  0  0  0
  -25.8436  -11.8753   20.7813 N   0  0  0  0  0  0  0  0  0  0  0  0
  -26.7795  -12.3410   19.9367 N   0  0  0  0  0  0  0  0  0  0  0  0
  -23.0019  -21.8151   21.0040 N   0  0  0  0  0  0  0  0  0  0  0  0
  -27.3524  -30.4956   21.7488 N   0  0  0  0  0  0  0  0  0  0  0  0
  -27.7215  -15.6197   21.6532 N   0  0  0  0  0  0  0  0  0  0  0  0
  -27.7289  -11.9976   17.7939 N   0  0  0  0  0  0  0  0  0  0  0  0
  -24.5687   -8.7823   18.0608 N   0  0  0  0  0  0  0  0  0  0  0  0
  -26.2955  -17.2306   20.6868 N   0  0  0  0  0  0  0  0  0  0  0  0
  -30.3650  -28.5001   21.2599 N   0  0  0  0  0  0  0  0  0  0  0  0
  -25.3738  -32.7486   22.5679 N   0  0  0  0  0  0  0  0  0  0  0  0
  -21.8759  -32.5940   21.6686 N   0  3  0  0  0  0  0  0  0  0  0  0
  -24.7614  -23.3257   21.3296 O   0  0  0  0  0  0  0  0  0  0  0  0
  -26.2123   -9.6719   16.7319 O   0  0  0  0  0  0  0  0  0  0  0  0
  -28.8360  -28.8216   22.9866 O   0  0  0  0  0  0  0  0  0  0  0  0
  -28.4647  -32.4908   22.2160 O   0  0  0  0  0  0  0  0  0  0  0  0
  -23.5906  -31.9146   23.7934 O   0  0  0  0  0  0  0  0  0  0  0  0
  -28.2531  -17.8670   21.7565 O   0  0  0  0  0  0  0  0  0  0  0  0
  -21.1597   -7.8639   22.3692 O   0  0  0  0  0  0  0  0  0  0  0  0
  -23.5890  -25.8094   20.3597 O   0  0  0  0  0  0  0  0  0  1  0  0
  -22.3736   -2.8196   24.2361 F   0  0  0  0  0  0  0  0  0  0  0  0
  -22.4048  -19.6718   19.2981 F   0  0  0  0  0  0  0  0  0  0  0  0
  -20.7820   -7.2066   25.0278 F   0  0  0  0  0  0  0  0  0  0  0  0
  1  2  1  0  0  0  0
  1  5  2  0  0  0  0
  2  6  2  0  0  0  0
  3 10  2  0  0  0  0
  3 18  1  0  0  0  0
  4 11  1  0  0  0  0
  4 18  2  0  0  0  0
  5 20  1  0  0  0  0
  6 22  1  0  0  0  0
  7 12  2  0  0  0  0
  7 21  1  0  0  0  0
  8  9  2  0  0  0  0
  8 24  1  0  0  0  0
  9 25  1  0  0  0  0
 10 26  1  0  0  0  0
 11 26  2  0  0  0  0
 12 27  1  0  0  0  0
 13 14  2  0  0  0  0
 13 28  1  0  0  0  0
 14 29  1  0  0  0  0
 15 23  1  0  0  0  0
 15 27  2  0  0  0  0
 16 25  2  0  0  0  0
 16 30  1  0  0  0  0
 17 29  2  0  0  0  0
 17 31  1  0  0  0  0
 18 32  1  0  0  0  0
 19 32  1  0  0  0  0
 19 33  2  0  0  0  0
 19 35  1  0  0  0  0
 20 22  2  0  0  0  0
 20 40  1  0  0  0  0
 21 23  2  0  0  0  0
 21 41  1  0  0  0  0
 22 52  1  0  0  0  0
 23 42  1  0  0  0  0
 24 30  2  0  0  0  0
 24 67  1  0  0  0  0
 25 72  1  0  0  0  0
 26 82  1  0  0  0  0
 27 83  1  0  0  0  0
 28 31  2  0  0  0  0
 28 82  1  0  0  0  0
 29 84  1  0  0  0  0
 30 85  1  0  0  0  0
 31 86  1  0  0  0  0
 32 65  2  0  0  0  0
 33 66  1  0  0  0  0
 33 70  1  0  0  0  0
 34 53  1  0  0  0  0
 34 67  1  0  0  0  0
 34 76  2  0  0  0  0
 35 71  1  0  0  0  0
 35 77  2  0  0  0  0
 36 54  1  0  0  0  0
 36 73  1  0  0  0  0
 36 78  2  0  0  0  0
 37 62  1  0  0  0  0
 37 68  1  0  0  0  0
 37 79  2  0  0  0  0
 38 63  1  0  0  0  0
 38 74  1  0  0  0  0
 38 80  2  0  0  0  0
 39 69  1  0  0  0  0
 39 72  1  0  0  0  0
 39 81  2  0  0  0  0
 40 43  1  0  0  0  0
 41 54  1  0  0  0  0
 42 68  1  0  0  0  0
 43 46  1  0  0  0  0
 44 47  1  0  0  0  0
 44 49  1  0  0  0  0
 45 48  1  0  0  0  0
 45 50  1  0  0  0  0
 46 52  1  0  0  0  0
 47 53  1  0  0  0  0
 48 55  1  0  0  0  0
 49 67  1  0  0  0  0
 50 69  1  0  0  0  0
 51 55  1  0  0  0  0
 51 69  1  0  0  0  0
 52 73  1  0  0  0  0
 53 61  1  0  0  0  0
 54 68  1  0  0  0  0
 55 66  1  0  0  0  0
 56 63  1  0  0  0  0
 57 64  1  0  0  0  0
 58 64  1  0  0  0  0
 59 64  1  0  0  0  0
 60 75  1  0  0  0  0
 61 83  1  0  0  0  0
 62 64  1  0  0  0  0
 62 74  1  0  0  0  0
 63 75  1  0  0  0  0
 65 66  1  0  0  0  0
M  CHG  1  75   1
M  ISO  4  39 100  61 101  72 100  83 101
M  END
> <Batch ID>
0024

> <Smiles>
CNC(C)C(=O)NC(C(=O)N1Cc2cc([101O:1][101CH2:1]C3CCCN(c4ccc([100NH:0][100C:0](=O)N5CCCC(n6nc(-c7ccc(Oc8ccc(F)cc8F)cc7)c(C(N)=O)c6N)C5)cc4F)C3=O)ccc2CC1C(=O)NC1CCCc2ccccc21)C(C)(C)C

> <Shape>
0.247

> <Color>
0.088

> <Negative vol penalty>
0.000

$$$$

  -OEChem-04042321203D

 85 94  0     1  0  0  0  0  0999 V2000
  -23.0530   -7.7200   24.4857 C   0  0  0  0  0  0  0  0  0  0  0  0
  -24.2506   -8.4147   24.6220 C   0  0  0  0  0  0  0  0  0  0  0  0
  -25.0280  -30.7899   21.0033 C   0  0  0  0  0  0  0  0  0  0  0  0
  -24.6333  -29.3731   22.9200 C   0  0  0  0  0  0  0  0  0  0  0  0
  -22.3255   -7.8130   23.3000 C   0  0  0  0  0  0  0  0  0  0  0  0
  -24.7218   -9.2022   23.5721 C   0  0  0  0  0  0  0  0  0  0  0  0
  -28.4003  -15.2208   22.3225 C   0  0  0  0  0  0  0  0  0  0  0  0
  -24.3865  -31.8454   21.6513 C   0  0  0  0  0  0  0  0  0  0  0  0
  -23.9918  -30.4287   23.5681 C   0  0  0  0  0  0  0  0  0  0  0  0
  -29.4961  -15.6818   21.5941 C   0  0  0  0  0  0  0  0  0  0  0  0
  -25.1248  -34.1155   24.0460 C   0  0  0  0  0  0  0  0  0  0  0  0
  -25.7327  -35.3700   23.9996 C   0  0  0  0  0  0  0  0  0  0  0  0
  -28.1151  -15.8304   19.6219 C   0  0  0  0  0  0  0  0  0  0  0  0
  -29.9351  -20.1811   19.7458 C   0  0  0  0  0  0  0  0  0  0  0  0
  -27.8664  -20.3445   17.8813 C   0  0  0  0  0  0  0  0  0  0  0  0
  -23.7813  -36.2749   22.8994 C   0  0  0  0  0  0  0  0  0  0  0  0
  -25.1513  -29.5537   21.6376 C   0  0  0  0  0  0  0  0  0  0  0  0
  -27.1836  -28.1432   21.0146 C   0  0  0  0  0  0  0  0  0  0  0  0
  -22.7832   -8.6097   22.2387 C   0  0  0  0  0  0  0  0  0  0  0  0
  -27.1542  -15.0505   21.7023 C   0  0  0  0  0  0  0  0  0  0  0  0
  -24.0004   -9.3049   22.3706 C   0  0  0  0  0  0  0  0  0  0  0  0
  -27.0044  -15.3695   20.3451 C   0  0  0  0  0  0  0  0  0  0  0  0
  -30.0214  -19.4768   18.5449 C   0  0  0  0  0  0  0  0  0  0  0  0
  -27.7802  -21.0488   19.0822 C   0  0  0  0  0  0  0  0  0  0  0  0
  -23.8685  -31.6648   22.9338 C   0  0  0  0  0  0  0  0  0  0  0  0
  -29.3544  -15.9839   20.2430 C   0  0  0  0  0  0  0  0  0  0  0  0
  -23.8452  -33.9406   23.5190 C   0  0  0  0  0  0  0  0  0  0  0  0
  -25.0610  -36.4497   23.4264 C   0  0  0  0  0  0  0  0  0  0  0  0
  -28.8145  -20.9670   20.0145 C   0  0  0  0  0  0  0  0  0  0  0  0
  -28.9871  -19.5586   17.6126 C   0  0  0  0  0  0  0  0  0  0  0  0
  -23.1734  -35.0203   22.9458 C   0  0  0  0  0  0  0  0  0  0  0  0
  -25.8133  -28.4628   20.9684 C   0  0  0  0  0  0  0  0  0  0  0  0
  -27.3037  -27.0307   20.2181 C   0  0  0  0  0  0  0  0  0  0  0  0
  -28.2522  -28.7937   21.7149 C   0  0  0  0  0  0  0  0  0  0  0  0
  -25.2335  -12.5744   21.1695 C   0  0  0  0  0  0  0  0  0  0  0  0
  -23.2226  -14.8695   20.0690 C   0  0  0  0  0  0  0  0  0  0  0  0
  -22.8349  -17.9993   18.7648 C   0  0  0  0  0  0  0  0  0  0  0  0
  -25.5253  -22.0299   18.5353 C   0  0  0  0  0  0  0  0  0  0  0  0
  -21.9860   -8.6416   20.9587 C   0  0  0  0  0  0  0  0  0  0  0  0
  -25.9755  -14.5777   22.5082 C   0  0  0  0  0  0  0  0  0  0  0  0
  -25.6831  -15.2233   19.6373 C   0  0  0  0  0  0  0  0  0  0  0  0
  -22.3658   -9.7947   20.0333 C   0  0  0  0  0  0  0  0  0  0  0  0
  -23.9993  -24.8800   17.0436 C   0  0  0  0  0  0  0  0  0  0  0  0
  -33.0940  -18.1715   17.1040 C   0  0  0  0  0  0  0  0  0  0  0  0
  -23.8822   -9.8991   19.9051 C   0  0  0  0  0  0  0  0  0  0  0  0
  -24.4479  -26.0399   17.9355 C   0  0  0  0  0  0  0  0  0  0  0  0
  -33.1365  -17.4505   18.4396 C   0  0  0  0  0  0  0  0  0  0  0  0
  -31.6118  -18.4724   16.9190 C   0  0  0  0  0  0  0  0  0  0  0  0
  -23.7344  -23.6118   17.8530 C   0  0  0  0  0  0  0  0  0  0  0  0
  -25.2862  -24.3507   19.6180 C   0  0  0  0  0  0  0  0  0  0  0  0
  -24.5320  -10.1891   21.2634 C   0  0  1  0  0  0  0  0  0  0  0  0
  -24.8785  -13.9523   21.6521 C   0  0  1  0  0  0  0  0  0  0  0  0
  -25.6275  -25.6319   18.8398 C   0  0  2  0  0  0  0  0  0  0  0  0
  -32.0680  -18.1688   19.2820 C   0  0  2  0  0  0  0  0  0  0  0  0
  -21.0748  -19.5823   17.9321 C   0  0  0  0  0  0  0  0  0  0  0  0
  -23.0016  -13.2610   17.4856 C   0  0  0  0  0  0  0  0  0  0  0  0
  -22.0433  -15.2945   16.3834 C   0  0  0  0  0  0  0  0  0  0  0  0
  -20.8450  -14.2334   18.2968 C   0  0  0  0  0  0  0  0  0  0  0  0
  -23.5036  -20.0119   20.8291 C   0  0  0  0  0  0  0  0  0  0  0  0
  -31.4095  -17.1807   20.2393 C   0  0  0  0  0  0  0  0  0  1  0  0
  -22.9761  -15.5228   18.7305 C   0  0  1  0  0  0  0  0  0  0  0  0
  -21.8955  -19.1340   19.1314 C   0  0  2  0  0  0  0  0  0  0  0  0
  -22.2420  -14.5789   17.7367 C   0  0  0  0  0  0  0  0  0  0  0  0
  -25.1131  -27.6215   20.2030 N   0  0  0  0  0  0  0  0  0  0  0  0
  -26.0471  -26.7623   19.7608 N   0  0  0  0  0  0  0  0  0  0  0  0
  -31.1315  -18.6994   18.2812 N   0  0  3  0  0  0  0  0  0  0  0  0
  -24.5619  -14.7516   20.4667 N   0  0  0  0  0  0  0  0  0  0  0  0
  -24.8964  -23.2844   18.6822 N   0  0  0  0  0  0  0  0  0  0  0  0
  -28.3605  -26.2658   19.8712 N   0  0  0  0  0  0  0  0  0  0  0  0
  -27.9539  -29.9241   22.4881 N   0  0  0  0  0  0  0  0  0  0  0  0
  -26.6392  -21.8441   19.3533 N   0  0  0  0  0  0  0  0  0  0  0  0
  -24.3755  -11.5852   21.6108 N   0  0  0  0  0  0  0  0  0  0  0  0
  -22.2665  -16.7669   19.0080 N   0  0  0  0  0  0  0  0  0  0  0  0
  -22.6686  -20.3041   19.6356 N   0  3  0  0  0  0  0  0  0  0  0  0
  -29.4393  -28.3945   21.6437 O   0  0  0  0  0  0  0  0  0  0  0  0
  -26.2125  -12.4203   20.4487 O   0  0  0  0  0  0  0  0  0  0  0  0
  -22.2619  -14.4847   20.7402 O   0  0  0  0  0  0  0  0  0  0  0  0
  -23.9591  -18.1874   18.3050 O   0  0  0  0  0  0  0  0  0  0  0  0
  -25.1228  -21.1933   17.7228 O   0  0  0  0  0  0  0  0  0  0  0  0
  -23.2427  -32.6946   23.5665 O   0  0  0  0  0  0  0  0  0  0  0  0
  -30.4225  -16.4334   19.5296 O   0  0  0  0  0  0  0  0  0  1  0  0
  -25.6442  -37.6548   23.3833 F   0  0  0  0  0  0  0  0  0  0  0  0
  -28.7409  -21.6388   21.1724 F   0  0  0  0  0  0  0  0  0  0  0  0
  -29.0583  -18.8851   16.4556 F   0  0  0  0  0  0  0  0  0  0  0  0
  -21.9435  -34.8587   22.4389 F   0  0  0  0  0  0  0  0  0  0  0  0
  1  2  1  0  0  0  0
  1  5  2  0  0  0  0
  2  6  2  0  0  0  0
  3  8  2  0  0  0  0
  3 17  1  0  0  0  0
  4  9  1  0  0  0  0
  4 17  2  0  0  0  0
  5 19  1  0  0  0  0
  6 21  1  0  0  0  0
  7 10  2  0  0  0  0
  7 20  1  0  0  0  0
  8 25  1  0  0  0  0
  9 25  2  0  0  0  0
 10 26  1  0  0  0  0
 11 12  2  0  0  0  0
 11 27  1  0  0  0  0
 12 28  1  0  0  0  0
 13 22  1  0  0  0  0
 13 26  2  0  0  0  0
 14 23  1  0  0  0  0
 14 29  2  0  0  0  0
 15 24  2  0  0  0  0
 15 30  1  0  0  0  0
 16 28  2  0  0  0  0
 16 31  1  0  0  0  0
 17 32  1  0  0  0  0
 18 32  1  0  0  0  0
 18 33  2  0  0  0  0
 18 34  1  0  0  0  0
 19 21  2  0  0  0  0
 19 39  1  0  0  0  0
 20 22  2  0  0  0  0
 20 40  1  0  0  0  0
 21 51  1  0  0  0  0
 22 41  1  0  0  0  0
 23 30  2  0  0  0  0
 23 66  1  0  0  0  0
 24 29  1  0  0  0  0
 24 71  1  0  0  0  0
 25 80  1  0  0  0  0
 26 81  1  0  0  0  0
 27 31  2  0  0  0  0
 27 80  1  0  0  0  0
 28 82  1  0  0  0  0
 29 83  1  0  0  0  0
 30 84  1  0  0  0  0
 31 85  1  0  0  0  0
 32 64  2  0  0  0  0
 33 65  1  0  0  0  0
 33 69  1  0  0  0  0
 34 70  1  0  0  0  0
 34 75  2  0  0  0  0
 35 52  1  0  0  0  0
 35 72  1  0  0  0  0
 35 76  2  0  0  0  0
 36 61  1  0  0  0  0
 36 67  1  0  0  0  0
 36 77  2  0  0  0  0
 37 62  1  0  0  0  0
 37 73  1  0  0  0  0
 37 78  2  0  0  0  0
 38 68  1  0  0  0  0
 38 71  1  0  0  0  0
 38 79  2  0  0  0  0
 39 42  1  0  0  0  0
 40 52  1  0  0  0  0
 41 67  1  0  0  0  0
 42 45  1  0  0  0  0
 43 46  1  0  0  0  0
 43 49  1  0  0  0  0
 44 47  1  0  0  0  0
 44 48  1  0  0  0  0
 45 51  1  0  0  0  0
 46 53  1  0  0  0  0
 47 54  1  0  0  0  0
 48 66  1  0  0  0  0
 49 68  1  0  0  0  0
 50 53  1  0  0  0  0
 50 68  1  0  0  0  0
 51 72  1  0  0  0  0
 52 67  1  0  0  0  0
 53 65  1  0  0  0  0
 54 60  1  0  0  0  0
 54 66  1  0  0  0  0
 55 62  1  0  0  0  0
 56 63  1  0  0  0  0
 57 63  1  0  0  0  0
 58 63  1  0  0  0  0
 59 74  1  0  0  0  0
 60 81  1  0  0  0  0
 61 63  1  0  0  0  0
 61 73  1  0  0  0  0
 62 74  1  0  0  0  0
 64 65  1  0  0  0  0
M  CHG  1  74   1
M  ISO  4  38 100  60 101  71 100  81 101
M  END
> <Batch ID>
0024

> <Smiles>
CNC(C)C(=O)NC(C(=O)N1Cc2cc([101O:1][101CH2:1]C3CCCN3c3cc(F)c([100NH:0][100C:0](=O)N4CCCC(n5nc(-c6ccc(Oc7ccc(F)cc7F)cc6)c(C(N)=O)c5N)C4)cc3F)ccc2CC1C(=O)NC1CCCc2ccccc21)C(C)(C)C

> <Shape>
0.247

> <Color>
0.095

> <Negative vol penalty>
0.000

$$$$

  -OEChem-04042321203D

 83 91  0     1  0  0  0  0  0999 V2000
  -16.7075  -30.1608   23.2338 C   0  0  0  0  0  0  0  0  0  0  0  0
  -17.8332  -30.6210   22.5582 C   0  0  0  0  0  0  0  0  0  0  0  0
  -25.2706  -14.3189   19.7769 C   0  0  0  0  0  0  0  0  0  0  0  0
  -26.1101  -13.1677   21.7280 C   0  0  0  0  0  0  0  0  0  0  0  0
  -16.8155  -29.0851   24.1142 C   0  0  0  0  0  0  0  0  0  0  0  0
  -19.0679  -30.0064   22.7635 C   0  0  0  0  0  0  0  0  0  0  0  0
  -25.1408  -28.3915   19.3243 C   0  0  0  0  0  0  0  0  0  0  0  0
  -29.6429  -24.0948   16.3451 C   0  0  0  0  0  0  0  0  0  0  0  0
  -24.7639  -13.1160   19.2851 C   0  0  0  0  0  0  0  0  0  0  0  0
  -25.6033  -11.9647   21.2363 C   0  0  0  0  0  0  0  0  0  0  0  0
  -26.5218  -28.5337   19.4526 C   0  0  0  0  0  0  0  0  0  0  0  0
  -22.6061  -10.4137   21.0588 C   0  0  0  0  0  0  0  0  0  0  0  0
  -21.9186   -9.5894   21.9496 C   0  0  0  0  0  0  0  0  0  0  0  0
  -29.4761  -22.7493   16.0175 C   0  0  0  0  0  0  0  0  0  0  0  0
  -26.5736  -26.6329   20.9370 C   0  0  0  0  0  0  0  0  0  0  0  0
  -30.0155  -23.4866   18.6534 C   0  0  0  0  0  0  0  0  0  0  0  0
  -23.5263   -7.8284   21.5609 C   0  0  0  0  0  0  0  0  0  0  0  0
  -25.9438  -14.3447   20.9983 C   0  0  0  0  0  0  0  0  0  0  0  0
  -25.8074  -16.5120   22.3369 C   0  0  0  0  0  0  0  0  0  0  0  0
  -18.0503  -28.4508   24.3231 C   0  0  0  0  0  0  0  0  0  0  0  0
  -24.4632  -27.3739   20.0112 C   0  0  0  0  0  0  0  0  0  0  0  0
  -19.1929  -28.9221   23.6486 C   0  0  0  0  0  0  0  0  0  0  0  0
  -25.1843  -26.4783   20.8137 C   0  0  0  0  0  0  0  0  0  0  0  0
  -29.9126  -24.4635   17.6631 C   0  0  0  0  0  0  0  0  0  0  0  0
  -29.8487  -22.1410   18.3258 C   0  0  0  0  0  0  0  0  0  0  0  0
  -24.9302  -11.9389   20.0148 C   0  0  0  0  0  0  0  0  0  0  0  0
  -27.2380  -27.6561   20.2613 C   0  0  0  0  0  0  0  0  0  0  0  0
  -23.7537   -9.9452   20.4189 C   0  0  0  0  0  0  0  0  0  0  0  0
  -22.3787   -8.2968   22.2007 C   0  0  0  0  0  0  0  0  0  0  0  0
  -24.2138   -8.6526   20.6700 C   0  0  0  0  0  0  0  0  0  0  0  0
  -29.5789  -21.7724   17.0078 C   0  0  0  0  0  0  0  0  0  0  0  0
  -26.4681  -15.5869   21.5065 C   0  0  0  0  0  0  0  0  0  0  0  0
  -26.7262  -17.5139   22.5338 C   0  0  0  0  0  0  0  0  0  0  0  0
  -24.4819  -16.4695   22.8817 C   0  0  0  0  0  0  0  0  0  0  0  0
  -22.1950  -27.2952   22.2366 C   0  0  0  0  0  0  0  0  0  0  0  0
  -22.3247  -24.0985   21.7013 C   0  0  0  0  0  0  0  0  0  0  0  0
  -24.1276  -21.4148   20.6086 C   0  0  0  0  0  0  0  0  0  0  0  0
  -30.9357  -20.1353   19.3210 C   0  0  0  0  0  0  0  0  0  0  0  0
  -18.1271  -27.3219   25.3203 C   0  0  0  0  0  0  0  0  0  0  0  0
  -22.9770  -27.2174   19.8411 C   0  0  0  0  0  0  0  0  0  0  0  0
  -24.5069  -25.3566   21.5561 C   0  0  0  0  0  0  0  0  0  0  0  0
  -19.3988  -26.4865   25.1979 C   0  0  0  0  0  0  0  0  0  0  0  0
  -31.6334  -17.8855   22.1603 C   0  0  0  0  0  0  0  0  0  0  0  0
  -20.6222  -27.3903   25.0825 C   0  0  0  0  0  0  0  0  0  0  0  0
  -30.3268  -17.1077   22.3075 C   0  0  0  0  0  0  0  0  0  0  0  0
  -31.8761  -18.3180   20.7174 C   0  0  0  0  0  0  0  0  0  0  0  0
  -29.4406  -18.3149   20.2722 C   0  0  0  0  0  0  0  0  0  0  0  0
  -20.5449  -28.2658   23.8260 C   0  0  1  0  0  0  0  0  0  0  0  0
  -22.3200  -26.4622   20.9924 C   0  0  1  0  0  0  0  0  0  0  0  0
  -29.1464  -17.9022   21.7224 C   0  0  1  0  0  0  0  0  0  0  0  0
  -23.9808  -18.9254   20.3283 C   0  0  0  0  0  0  0  0  0  0  0  0
  -22.7329  -23.7389   24.7036 C   0  0  0  0  0  0  0  0  0  0  0  0
  -23.5154  -21.4049   24.2471 C   0  0  0  0  0  0  0  0  0  0  0  0
  -21.1872  -22.0763   23.6544 C   0  0  0  0  0  0  0  0  0  0  0  0
  -29.2138  -21.3685   20.6186 C   0  0  0  0  0  0  0  0  0  0  0  0
  -24.4938  -21.6066   17.6781 C   0  0  0  0  0  0  0  0  0  0  0  0
  -30.7101  -27.7789   19.2722 C   0  0  0  0  0  0  0  0  0  0  0  0
  -30.7509  -26.2584   19.1801 C   0  0  0  0  0  0  0  0  0  0  0  0
  -29.2918  -28.3371   19.2743 C   0  0  0  0  0  0  0  0  0  1  0  0
  -23.1180  -22.9497   22.2757 C   0  0  1  0  0  0  0  0  0  0  0  0
  -23.7721  -20.2786   19.6666 C   0  0  2  0  0  0  0  0  0  0  0  0
  -22.6512  -22.5647   23.7079 C   0  0  0  0  0  0  0  0  0  0  0  0
  -27.7104  -15.9673   21.1970 N   0  0  0  0  0  0  0  0  0  0  0  0
  -27.8378  -17.1425   21.8362 N   0  0  0  0  0  0  0  0  0  0  0  0
  -23.0514  -25.2488   21.3627 N   0  0  0  0  0  0  0  0  0  0  0  0
  -30.7213  -19.0314   20.1705 N   0  0  0  0  0  0  0  0  0  0  0  0
  -26.6835  -18.6674   23.2337 N   0  0  0  0  0  0  0  0  0  0  0  0
  -23.6704  -15.3675   22.5796 N   0  0  0  0  0  0  0  0  0  0  0  0
  -30.0785  -25.8007   17.9882 N   0  0  0  0  0  0  0  0  0  0  0  0
  -20.8920  -27.4953   22.6511 N   0  0  0  0  0  0  0  0  0  0  0  0
  -23.0258  -21.8644   21.3051 N   0  0  0  0  0  0  0  0  0  0  0  0
  -29.9616  -21.1556   19.3751 N   0  0  0  0  0  0  0  0  0  0  0  0
  -24.6180  -20.3380   18.4411 N   0  3  0  0  0  0  0  0  0  0  0  0
  -24.0246  -17.3898   23.6011 O   0  0  0  0  0  0  0  0  0  0  0  0
  -23.2058  -27.7235   22.7811 O   0  0  0  0  0  0  0  0  0  0  0  0
  -21.1063  -23.9771   21.5518 O   0  0  0  0  0  0  0  0  0  0  0  0
  -25.2692  -21.8566   20.7184 O   0  0  0  0  0  0  0  0  0  0  0  0
  -31.9336  -20.2155   18.5948 O   0  0  0  0  0  0  0  0  0  0  0  0
  -24.4356  -10.7650   19.5354 O   0  0  0  0  0  0  0  0  0  0  0  0
  -28.5859  -27.7931   20.3888 O   0  0  0  0  0  0  0  0  0  1  0  0
  -21.7193   -7.5060   23.0574 F   0  0  0  0  0  0  0  0  0  0  0  0
  -25.3163   -8.1974   20.0592 F   0  0  0  0  0  0  0  0  0  0  0  0
  -29.3653  -20.1182   16.5579 Cl  0  0  0  0  0  0  0  0  0  0  0  0
  1  2  1  0  0  0  0
  1  5  2  0  0  0  0
  2  6  2  0  0  0  0
  3  9  2  0  0  0  0
  3 18  1  0  0  0  0
  4 10  1  0  0  0  0
  4 18  2  0  0  0  0
  5 20  1  0  0  0  0
  6 22  1  0  0  0  0
  7 11  2  0  0  0  0
  7 21  1  0  0  0  0
  8 14  2  0  0  0  0
  8 24  1  0  0  0  0
  9 26  1  0  0  0  0
 10 26  2  0  0  0  0
 11 27  1  0  0  0  0
 12 13  2  0  0  0  0
 12 28  1  0  0  0  0
 13 29  1  0  0  0  0
 14 31  1  0  0  0  0
 15 23  1  0  0  0  0
 15 27  2  0  0  0  0
 16 24  2  0  0  0  0
 16 25  1  0  0  0  0
 17 29  2  0  0  0  0
 17 30  1  0  0  0  0
 18 32  1  0  0  0  0
 19 32  1  0  0  0  0
 19 33  2  0  0  0  0
 19 34  1  0  0  0  0
 20 22  2  0  0  0  0
 20 39  1  0  0  0  0
 21 23  2  0  0  0  0
 21 40  1  0  0  0  0
 22 48  1  0  0  0  0
 23 41  1  0  0  0  0
 24 69  1  0  0  0  0
 25 31  2  0  0  0  0
 25 72  1  0  0  0  0
 26 79  1  0  0  0  0
 27 80  1  0  0  0  0
 28 30  2  0  0  0  0
 28 79  1  0  0  0  0
 29 81  1  0  0  0  0
 30 82  1  0  0  0  0
 31 83  1  0  0  0  0
 32 63  2  0  0  0  0
 33 64  1  0  0  0  0
 33 67  1  0  0  0  0
 34 68  1  0  0  0  0
 34 74  2  0  0  0  0
 35 49  1  0  0  0  0
 35 70  1  0  0  0  0
 35 75  2  0  0  0  0
 36 60  1  0  0  0  0
 36 65  1  0  0  0  0
 36 76  2  0  0  0  0
 37 61  1  0  0  0  0
 37 71  1  0  0  0  0
 37 77  2  0  0  0  0
 38 66  1  0  0  0  0
 38 72  1  0  0  0  0
 38 78  2  0  0  0  0
 39 42  1  0  0  0  0
 40 49  1  0  0  0  0
 41 65  1  0  0  0  0
 42 44  1  0  0  0  0
 43 45  1  0  0  0  0
 43 46  1  0  0  0  0
 44 48  1  0  0  0  0
 45 50  1  0  0  0  0
 46 66  1  0  0  0  0
 47 50  1  0  0  0  0
 47 66  1  0  0  0  0
 48 70  1  0  0  0  0
 49 65  1  0  0  0  0
 50 64  1  0  0  0  0
 51 61  1  0  0  0  0
 52 62  1  0  0  0  0
 53 62  1  0  0  0  0
 54 62  1  0  0  0  0
 55 72  1  0  0  0  0
 56 73  1  0  0  0  0
 57 58  1  0  0  0  0
 57 59  1  0  0  0  0
 58 69  1  0  0  0  0
 59 80  1  0  0  0  0
 60 62  1  0  0  0  0
 60 71  1  0  0  0  0
 61 73  1  0  0  0  0
 63 64  1  0  0  0  0
M  CHG  1  73   1
M  ISO  4  38 100  59 101  72 100  80 101
M  END
> <Batch ID>
0024

> <Smiles>
CNC(C)C(=O)NC(C(=O)N1Cc2cc([101O:1][101CH2:1]CCNc3ccc(Cl)c([100N:0](C)[100C:0](=O)N4CCCC(n5nc(-c6ccc(Oc7ccc(F)cc7F)cc6)c(C(N)=O)c5N)C4)c3)ccc2CC1C(=O)NC1CCCc2ccccc21)C(C)(C)C

> <Shape>
0.236

> <Color>
0.075

> <Negative vol penalty>
0.000

$$$$

  -OEChem-04042321203D

 85 94  0     1  0  0  0  0  0999 V2000
  -17.5919  -26.1552   21.3911 C   0  0  0  0  0  0  0  0  0  0  0  0
  -18.8054  -25.5982   21.7814 C   0  0  0  0  0  0  0  0  0  0  0  0
  -24.0965   -9.8603   21.7164 C   0  0  0  0  0  0  0  0  0  0  0  0
  -24.6450  -11.0699   23.7346 C   0  0  0  0  0  0  0  0  0  0  0  0
  -17.5600  -27.4319   20.8316 C   0  0  0  0  0  0  0  0  0  0  0  0
  -19.9881  -26.3171   21.6115 C   0  0  0  0  0  0  0  0  0  0  0  0
  -24.8933  -26.2549   25.2776 C   0  0  0  0  0  0  0  0  0  0  0  0
  -30.9810  -20.5534   21.0607 C   0  0  0  0  0  0  0  0  0  0  0  0
  -30.7237  -19.2409   20.6648 C   0  0  0  0  0  0  0  0  0  0  0  0
  -23.6705   -8.7753   22.4824 C   0  0  0  0  0  0  0  0  0  0  0  0
  -24.2190   -9.9848   24.5007 C   0  0  0  0  0  0  0  0  0  0  0  0
  -26.1077  -25.5734   25.2081 C   0  0  0  0  0  0  0  0  0  0  0  0
  -20.9380   -7.9136   24.2778 C   0  0  0  0  0  0  0  0  0  0  0  0
  -19.7330   -7.3052   23.9262 C   0  0  0  0  0  0  0  0  0  0  0  0
  -27.1257  -27.5044   24.1814 C   0  0  0  0  0  0  0  0  0  0  0  0
  -28.3532  -19.6262   20.9282 C   0  0  0  0  0  0  0  0  0  0  0  0
  -20.8931   -5.2171   23.5639 C   0  0  0  0  0  0  0  0  0  0  0  0
  -24.5839  -11.0076   22.3425 C   0  0  0  0  0  0  0  0  0  0  0  0
  -24.2471  -13.2164   21.1113 C   0  0  0  0  0  0  0  0  0  0  0  0
  -18.7418  -28.1707   20.6637 C   0  0  0  0  0  0  0  0  0  0  0  0
  -24.7832  -27.5645   24.7887 C   0  0  0  0  0  0  0  0  0  0  0  0
  -19.9722  -27.6044   21.0480 C   0  0  0  0  0  0  0  0  0  0  0  0
  -25.9095  -28.2012   24.2482 C   0  0  0  0  0  0  0  0  0  0  0  0
  -29.9244  -21.4023   21.3904 C   0  0  0  0  0  0  0  0  0  0  0  0
  -29.4098  -18.7773   20.5985 C   0  0  0  0  0  0  0  0  0  0  0  0
  -23.7317   -8.8376   23.8745 C   0  0  0  0  0  0  0  0  0  0  0  0
  -27.2233  -26.1971   24.6574 C   0  0  0  0  0  0  0  0  0  0  0  0
  -22.1205   -7.1738   24.2723 C   0  0  0  0  0  0  0  0  0  0  0  0
  -19.7106   -5.9569   23.5693 C   0  0  0  0  0  0  0  0  0  0  0  0
  -28.6105  -20.9387   21.3241 C   0  0  0  0  0  0  0  0  0  0  0  0
  -22.0981   -5.8256   23.9154 C   0  0  0  0  0  0  0  0  0  0  0  0
  -25.0246  -12.1286   21.5517 C   0  0  0  0  0  0  0  0  0  0  0  0
  -25.1244  -14.0012   20.4036 C   0  0  0  0  0  0  0  0  0  0  0  0
  -31.2747  -23.5444   21.3876 C   0  0  0  0  0  0  0  0  0  0  0  0
  -22.8563  -13.4927   21.3232 C   0  0  0  0  0  0  0  0  0  0  0  0
  -23.0860  -28.9678   22.4965 C   0  0  0  0  0  0  0  0  0  0  0  0
  -24.3904  -31.6720   23.7247 C   0  0  0  0  0  0  0  0  0  0  0  0
  -26.9261  -33.1232   25.4884 C   0  0  0  0  0  0  0  0  0  0  0  0
  -30.0816  -16.4723   19.8357 C   0  0  0  0  0  0  0  0  0  0  0  0
  -18.6627  -29.5280   20.0108 C   0  0  0  0  0  0  0  0  0  0  0  0
  -23.4729  -28.2955   24.8953 C   0  0  0  0  0  0  0  0  0  0  0  0
  -25.8489  -29.6133   23.7279 C   0  0  0  0  0  0  0  0  0  0  0  0
  -31.0791  -24.9141   21.9962 C   0  0  0  0  0  0  0  0  0  0  0  0
  -19.9179  -30.3737   20.2100 C   0  0  0  0  0  0  0  0  0  0  0  0
  -29.8413  -13.0675   18.8224 C   0  0  0  0  0  0  0  0  0  0  0  0
  -21.1688  -29.5460   19.9329 C   0  0  0  0  0  0  0  0  0  0  0  0
  -28.5028  -12.6092   19.4059 C   0  0  0  0  0  0  0  0  0  0  0  0
  -30.5651  -14.0362   19.7560 C   0  0  0  0  0  0  0  0  0  0  0  0
  -29.2856  -23.4860   22.6530 C   0  0  0  0  0  0  0  0  0  0  0  0
  -28.4319  -14.7348   20.7711 C   0  0  0  0  0  0  0  0  0  0  0  0
  -21.2736  -28.3629   20.9028 C   0  0  1  0  0  0  0  0  0  0  0  0
  -23.3460  -29.4430   23.8981 C   0  0  1  0  0  0  0  0  0  0  0  0
  -30.1176  -24.6590   23.1483 C   0  0  2  0  0  0  0  0  0  0  0  0
  -27.6360  -13.8083   19.8374 C   0  0  2  0  0  0  0  0  0  0  0  0
  -27.7375  -35.3562   26.2963 C   0  0  0  0  0  0  0  0  0  0  0  0
  -25.3448  -32.3426   20.9052 C   0  0  0  0  0  0  0  0  0  0  0  0
  -26.9109  -34.0183   21.9090 C   0  0  0  0  0  0  0  0  0  0  0  0
  -24.4475  -34.2893   22.1934 C   0  0  0  0  0  0  0  0  0  0  0  0
  -26.7507  -32.2912   28.3232 C   0  0  0  0  0  0  0  0  0  0  0  0
  -29.2817  -25.8742   23.5107 C   0  0  0  0  0  0  0  0  0  1  0  0
  -25.6488  -32.4648   23.4662 C   0  0  1  0  0  0  0  0  0  0  0  0
  -26.9151  -34.1217   26.6318 C   0  0  2  0  0  0  0  0  0  0  0  0
  -25.5890  -33.2514   22.1264 C   0  0  0  0  0  0  0  0  0  0  0  0
  -26.2979  -12.2114   21.1567 N   0  0  0  0  0  0  0  0  0  0  0  0
  -26.3271  -13.3606   20.4605 N   0  0  0  0  0  0  0  0  0  0  0  0
  -30.1907  -22.7445   21.7952 N   0  0  0  0  0  0  0  0  0  0  0  0
  -24.5437  -30.2839   23.8486 N   0  0  0  0  0  0  0  0  0  0  0  0
  -29.6842  -15.1484   20.1189 N   0  0  0  0  0  0  0  0  0  0  0  0
  -24.9765  -15.1699   19.7442 N   0  0  0  0  0  0  0  0  0  0  0  0
  -22.1008  -12.5815   22.0737 N   0  0  0  0  0  0  0  0  0  0  0  0
  -29.1486  -17.4440   20.1963 N   0  0  0  0  0  0  0  0  0  0  0  0
  -21.7466  -28.8095   22.1955 N   0  0  0  0  0  0  0  0  0  0  0  0
  -25.8520  -33.3031   24.6428 N   0  0  0  0  0  0  0  0  0  0  0  0
  -27.4778  -33.5031   27.8653 N   0  3  0  0  0  0  0  0  0  0  0  0
  -32.2058  -23.2865   20.6384 O   0  0  0  0  0  0  0  0  0  0  0  0
  -22.2962  -14.5090   20.8468 O   0  0  0  0  0  0  0  0  0  0  0  0
  -24.0305  -28.7617   21.7435 O   0  0  0  0  0  0  0  0  0  0  0  0
  -23.3121  -32.2634   23.8204 O   0  0  0  0  0  0  0  0  0  0  0  0
  -27.8022  -32.2713   25.3565 O   0  0  0  0  0  0  0  0  0  0  0  0
  -31.1576  -16.7236   19.2870 O   0  0  0  0  0  0  0  0  0  0  0  0
  -23.3158   -7.7791   24.6223 O   0  0  0  0  0  0  0  0  0  0  0  0
  -28.4096  -25.5340   24.5878 O   0  0  0  0  0  0  0  0  0  1  0  0
  -18.5532   -5.3724   23.2332 F   0  0  0  0  0  0  0  0  0  0  0  0
  -27.5871  -21.7457   21.6394 F   0  0  0  0  0  0  0  0  0  0  0  0
  -23.2307   -5.1094   23.9094 F   0  0  0  0  0  0  0  0  0  0  0  0
  1  2  1  0  0  0  0
  1  5  2  0  0  0  0
  2  6  2  0  0  0  0
  3 10  2  0  0  0  0
  3 18  1  0  0  0  0
  4 11  1  0  0  0  0
  4 18  2  0  0  0  0
  5 20  1  0  0  0  0
  6 22  1  0  0  0  0
  7 12  2  0  0  0  0
  7 21  1  0  0  0  0
  8  9  2  0  0  0  0
  8 24  1  0  0  0  0
  9 25  1  0  0  0  0
 10 26  1  0  0  0  0
 11 26  2  0  0  0  0
 12 27  1  0  0  0  0
 13 14  2  0  0  0  0
 13 28  1  0  0  0  0
 14 29  1  0  0  0  0
 15 23  1  0  0  0  0
 15 27  2  0  0  0  0
 16 25  2  0  0  0  0
 16 30  1  0  0  0  0
 17 29  2  0  0  0  0
 17 31  1  0  0  0  0
 18 32  1  0  0  0  0
 19 32  1  0  0  0  0
 19 33  2  0  0  0  0
 19 35  1  0  0  0  0
 20 22  2  0  0  0  0
 20 40  1  0  0  0  0
 21 23  2  0  0  0  0
 21 41  1  0  0  0  0
 22 51  1  0  0  0  0
 23 42  1  0  0  0  0
 24 30  2  0  0  0  0
 24 66  1  0  0  0  0
 25 71  1  0  0  0  0
 26 81  1  0  0  0  0
 27 82  1  0  0  0  0
 28 31  2  0  0  0  0
 28 81  1  0  0  0  0
 29 83  1  0  0  0  0
 30 84  1  0  0  0  0
 31 85  1  0  0  0  0
 32 64  2  0  0  0  0
 33 65  1  0  0  0  0
 33 69  1  0  0  0  0
 34 43  1  0  0  0  0
 34 66  1  0  0  0  0
 34 75  2  0  0  0  0
 35 70  1  0  0  0  0
 35 76  2  0  0  0  0
 36 52  1  0  0  0  0
 36 72  1  0  0  0  0
 36 77  2  0  0  0  0
 37 61  1  0  0  0  0
 37 67  1  0  0  0  0
 37 78  2  0  0  0  0
 38 62  1  0  0  0  0
 38 73  1  0  0  0  0
 38 79  2  0  0  0  0
 39 68  1  0  0  0  0
 39 71  1  0  0  0  0
 39 80  2  0  0  0  0
 40 44  1  0  0  0  0
 41 52  1  0  0  0  0
 42 67  1  0  0  0  0
 43 53  1  0  0  0  0
 44 46  1  0  0  0  0
 45 47  1  0  0  0  0
 45 48  1  0  0  0  0
 46 51  1  0  0  0  0
 47 54  1  0  0  0  0
 48 68  1  0  0  0  0
 49 53  1  0  0  0  0
 49 66  1  0  0  0  0
 50 54  1  0  0  0  0
 50 68  1  0  0  0  0
 51 72  1  0  0  0  0
 52 67  1  0  0  0  0
 53 60  1  0  0  0  0
 54 65  1  0  0  0  0
 55 62  1  0  0  0  0
 56 63  1  0  0  0  0
 57 63  1  0  0  0  0
 58 63  1  0  0  0  0
 59 74  1  0  0  0  0
 60 82  1  0  0  0  0
 61 63  1  0  0  0  0
 61 73  1  0  0  0  0
 62 74  1  0  0  0  0
 64 65  1  0  0  0  0
M  CHG  1  74   1
M  ISO  4  39 100  60 101  71 100  82 101
M  END
> <Batch ID>
0024

> <Smiles>
CNC(C)C(=O)NC(C(=O)N1Cc2cc([101O:1][101CH2:1]C3CC(=O)N(c4ccc([100NH:0][100C:0](=O)N5CCCC(n6nc(-c7ccc(Oc8ccc(F)cc8F)cc7)c(C(N)=O)c6N)C5)cc4F)C3)ccc2CC1C(=O)NC1CCCc2ccccc21)C(C)(C)C

> <Shape>
0.289

> <Color>
0.143

> <Negative vol penalty>
0.000

$$$$

  -OEChem-04042321203D

 85 94  0     1  0  0  0  0  0999 V2000
  -16.8986  -29.4942   24.3120 C   0  0  0  0  0  0  0  0  0  0  0  0
  -17.1294  -29.0962   22.9991 C   0  0  0  0  0  0  0  0  0  0  0  0
  -23.1721   -9.6967   19.8674 C   0  0  0  0  0  0  0  0  0  0  0  0
  -23.9607   -9.6494   22.1506 C   0  0  0  0  0  0  0  0  0  0  0  0
  -17.8090  -30.3312   24.9558 C   0  0  0  0  0  0  0  0  0  0  0  0
  -18.2703  -29.5359   22.3288 C   0  0  0  0  0  0  0  0  0  0  0  0
  -23.0525  -24.8460   19.6779 C   0  0  0  0  0  0  0  0  0  0  0  0
  -31.2062  -18.6247   20.2281 C   0  0  0  0  0  0  0  0  0  0  0  0
  -30.8884  -19.6972   19.3948 C   0  0  0  0  0  0  0  0  0  0  0  0
  -22.4856   -8.5012   20.0797 C   0  0  0  0  0  0  0  0  0  0  0  0
  -23.2741   -8.4539   22.3629 C   0  0  0  0  0  0  0  0  0  0  0  0
  -23.9061  -24.0091   18.9589 C   0  0  0  0  0  0  0  0  0  0  0  0
  -20.0943   -7.4835   22.9694 C   0  0  0  0  0  0  0  0  0  0  0  0
  -19.3553   -7.3625   24.1462 C   0  0  0  0  0  0  0  0  0  0  0  0
  -25.2343  -25.9174   18.2938 C   0  0  0  0  0  0  0  0  0  0  0  0
  -28.9967  -18.7251   21.2001 C   0  0  0  0  0  0  0  0  0  0  0  0
  -20.6943   -5.4578   24.7912 C   0  0  0  0  0  0  0  0  0  0  0  0
  -23.9097  -10.2708   20.9028 C   0  0  0  0  0  0  0  0  0  0  0  0
  -24.1330  -12.8119   20.8793 C   0  0  0  0  0  0  0  0  0  0  0  0
  -18.9666  -30.7736   24.2963 C   0  0  0  0  0  0  0  0  0  0  0  0
  -23.2957  -26.2217   19.7202 C   0  0  0  0  0  0  0  0  0  0  0  0
  -19.1964  -30.3807   22.9639 C   0  0  0  0  0  0  0  0  0  0  0  0
  -24.3899  -26.7592   19.0226 C   0  0  0  0  0  0  0  0  0  0  0  0
  -30.2603  -18.1386   21.1307 C   0  0  0  0  0  0  0  0  0  0  0  0
  -29.6247  -20.2837   19.4641 C   0  0  0  0  0  0  0  0  0  0  0  0
  -22.5365   -7.8799   21.3275 C   0  0  0  0  0  0  0  0  0  0  0  0
  -24.9941  -24.5435   18.2683 C   0  0  0  0  0  0  0  0  0  0  0  0
  -21.1333   -6.5915   22.7035 C   0  0  0  0  0  0  0  0  0  0  0  0
  -19.6553   -6.3497   25.0571 C   0  0  0  0  0  0  0  0  0  0  0  0
  -28.6788  -19.7977   20.3668 C   0  0  0  0  0  0  0  0  0  0  0  0
  -21.4333   -5.5787   23.6144 C   0  0  0  0  0  0  0  0  0  0  0  0
  -24.6196  -11.5054   20.6840 C   0  0  0  0  0  0  0  0  0  0  0  0
  -25.1846  -13.6251   20.5338 C   0  0  0  0  0  0  0  0  0  0  0  0
  -22.8456  -13.2511   21.3325 C   0  0  0  0  0  0  0  0  0  0  0  0
  -22.2281  -29.5794   21.0095 C   0  0  0  0  0  0  0  0  0  0  0  0
  -25.2904  -29.4957   21.1702 C   0  0  0  0  0  0  0  0  0  0  0  0
  -28.6141  -28.8438   21.5766 C   0  0  0  0  0  0  0  0  0  0  0  0
  -30.6174  -14.8907   20.7011 C   0  0  0  0  0  0  0  0  0  0  0  0
  -19.8978  -31.7156   25.0174 C   0  0  0  0  0  0  0  0  0  0  0  0
  -22.3673  -27.1683   20.4314 C   0  0  0  0  0  0  0  0  0  0  0  0
  -24.5927  -28.2490   19.0680 C   0  0  0  0  0  0  0  0  0  0  0  0
  -21.2716  -31.8342   24.3625 C   0  0  0  0  0  0  0  0  0  0  0  0
  -29.5602  -12.5509   18.2345 C   0  0  0  0  0  0  0  0  0  0  0  0
  -21.1300  -32.0225   22.8554 C   0  0  0  0  0  0  0  0  0  0  0  0
  -28.1436  -12.1737   18.6715 C   0  0  0  0  0  0  0  0  0  0  0  0
  -29.5518  -23.2149   17.2298 C   0  0  0  0  0  0  0  0  0  0  0  0
  -30.4817  -12.7671   19.4329 C   0  0  0  0  0  0  0  0  0  0  0  0
  -30.2355  -21.9204   17.6647 C   0  0  0  0  0  0  0  0  0  0  0  0
  -28.0235  -22.0312   18.6404 C   0  0  0  0  0  0  0  0  0  0  0  0
  -28.5664  -13.3539   20.8686 C   0  0  0  0  0  0  0  0  0  0  0  0
  -20.4351  -30.8166   22.2116 C   0  0  1  0  0  0  0  0  0  0  0  0
  -23.0982  -28.3589   21.0776 C   0  0  1  0  0  0  0  0  0  0  0  0
  -28.0677  -22.8899   17.3714 C   0  0  1  0  0  0  0  0  0  0  0  0
  -27.5861  -13.1803   19.6959 C   0  0  2  0  0  0  0  0  0  0  0  0
  -30.7434  -29.8970   22.3854 C   0  0  0  0  0  0  0  0  0  0  0  0
  -25.4485  -31.1376   18.6045 C   0  0  0  0  0  0  0  0  0  0  0  0
  -27.9075  -31.3903   19.0018 C   0  0  0  0  0  0  0  0  0  0  0  0
  -26.2782  -32.3144   20.6493 C   0  0  0  0  0  0  0  0  0  0  0  0
  -28.9625  -26.7959   23.6846 C   0  0  0  0  0  0  0  0  0  0  0  0
  -30.6000  -16.9919   22.0216 C   0  0  0  0  0  0  0  0  0  0  0  0
  -27.1890  -24.1259   17.4524 C   0  0  0  0  0  0  0  0  0  1  0  0
  -26.6015  -29.8116   20.4961 C   0  0  1  0  0  0  0  0  0  0  0  0
  -29.5424  -29.0431   22.7611 C   0  0  2  0  0  0  0  0  0  0  0  0
  -26.5472  -31.1376   19.6861 C   0  0  0  0  0  0  0  0  0  0  0  0
  -25.8820  -11.4851   20.2481 N   0  0  0  0  0  0  0  0  0  0  0  0
  -26.1975  -12.7889   20.1666 N   0  0  0  0  0  0  0  0  0  0  0  0
  -29.3131  -21.3437   18.6395 N   0  0  3  0  0  0  0  0  0  0  0  0
  -24.3652  -28.7456   20.4341 N   0  0  0  0  0  0  0  0  0  0  0  0
  -29.8958  -13.7334   20.3651 N   0  0  0  0  0  0  0  0  0  0  0  0
  -25.3324  -14.9668   20.5113 N   0  0  0  0  0  0  0  0  0  0  0  0
  -21.8812  -12.2833   21.6447 N   0  0  0  0  0  0  0  0  0  0  0  0
  -21.3608  -29.7124   22.0770 N   0  0  0  0  0  0  0  0  0  0  0  0
  -27.6148  -29.7935   21.5455 N   0  0  0  0  0  0  0  0  0  0  0  0
  -29.9871  -15.7569   21.5860 N   0  0  0  0  0  0  0  0  0  0  0  0
  -30.0376  -27.7282   23.2580 N   0  3  0  0  0  0  0  0  0  0  0  0
  -22.5536  -14.4662   21.4413 O   0  0  0  0  0  0  0  0  0  0  0  0
  -22.3358  -30.3459   20.0594 O   0  0  0  0  0  0  0  0  0  0  0  0
  -25.0870  -29.9065   22.3162 O   0  0  0  0  0  0  0  0  0  0  0  0
  -28.7628  -27.9388   20.7586 O   0  0  0  0  0  0  0  0  0  0  0  0
  -31.7381  -15.1365   20.2422 O   0  0  0  0  0  0  0  0  0  0  0  0
  -21.8665   -6.7134   21.5351 O   0  0  0  0  0  0  0  0  0  0  0  0
  -25.8261  -23.7202   17.5721 O   0  0  0  0  0  0  0  0  0  1  0  0
  -18.9466   -6.2346   26.1879 F   0  0  0  0  0  0  0  0  0  0  0  0
  -27.4613  -20.3537   20.4417 F   0  0  0  0  0  0  0  0  0  0  0  0
  -22.4310   -4.7196   23.3650 F   0  0  0  0  0  0  0  0  0  0  0  0
  1  2  1  0  0  0  0
  1  5  2  0  0  0  0
  2  6  2  0  0  0  0
  3 10  2  0  0  0  0
  3 18  1  0  0  0  0
  4 11  1  0  0  0  0
  4 18  2  0  0  0  0
  5 20  1  0  0  0  0
  6 22  1  0  0  0  0
  7 12  2  0  0  0  0
  7 21  1  0  0  0  0
  8  9  2  0  0  0  0
  8 24  1  0  0  0  0
  9 25  1  0  0  0  0
 10 26  1  0  0  0  0
 11 26  2  0  0  0  0
 12 27  1  0  0  0  0
 13 14  2  0  0  0  0
 13 28  1  0  0  0  0
 14 29  1  0  0  0  0
 15 23  1  0  0  0  0
 15 27  2  0  0  0  0
 16 24  2  0  0  0  0
 16 30  1  0  0  0  0
 17 29  2  0  0  0  0
 17 31  1  0  0  0  0
 18 32  1  0  0  0  0
 19 32  1  0  0  0  0
 19 33  2  0  0  0  0
 19 34  1  0  0  0  0
 20 22  2  0  0  0  0
 20 39  1  0  0  0  0
 21 23  2  0  0  0  0
 21 40  1  0  0  0  0
 22 51  1  0  0  0  0
 23 41  1  0  0  0  0
 24 60  1  0  0  0  0
 25 30  2  0  0  0  0
 25 67  1  0  0  0  0
 26 81  1  0  0  0  0
 27 82  1  0  0  0  0
 28 31  2  0  0  0  0
 28 81  1  0  0  0  0
 29 83  1  0  0  0  0
 30 84  1  0  0  0  0
 31 85  1  0  0  0  0
 32 65  2  0  0  0  0
 33 66  1  0  0  0  0
 33 70  1  0  0  0  0
 34 71  1  0  0  0  0
 34 76  2  0  0  0  0
 35 52  1  0  0  0  0
 35 72  1  0  0  0  0
 35 77  2  0  0  0  0
 36 62  1  0  0  0  0
 36 68  1  0  0  0  0
 36 78  2  0  0  0  0
 37 63  1  0  0  0  0
 37 73  1  0  0  0  0
 37 79  2  0  0  0  0
 38 69  1  0  0  0  0
 38 74  1  0  0  0  0
 38 80  2  0  0  0  0
 39 42  1  0  0  0  0
 40 52  1  0  0  0  0
 41 68  1  0  0  0  0
 42 44  1  0  0  0  0
 43 45  1  0  0  0  0
 43 47  1  0  0  0  0
 44 51  1  0  0  0  0
 45 54  1  0  0  0  0
 46 48  1  0  0  0  0
 46 53  1  0  0  0  0
 47 69  1  0  0  0  0
 48 67  1  0  0  0  0
 49 53  1  0  0  0  0
 49 67  1  0  0  0  0
 50 54  1  0  0  0  0
 50 69  1  0  0  0  0
 51 72  1  0  0  0  0
 52 68  1  0  0  0  0
 53 61  1  0  0  0  0
 54 66  1  0  0  0  0
 55 63  1  0  0  0  0
 56 64  1  0  0  0  0
 57 64  1  0  0  0  0
 58 64  1  0  0  0  0
 59 75  1  0  0  0  0
 60 74  1  0  0  0  0
 61 82  1  0  0  0  0
 62 64  1  0  0  0  0
 62 73  1  0  0  0  0
 63 75  1  0  0  0  0
 65 66  1  0  0  0  0
M  CHG  1  75   1
M  ISO  4  38 100  61 101  74 100  82 101
M  END
> <Batch ID>
0024

> <Smiles>
CNC(C)C(=O)NC(C(=O)N1Cc2cc([101O:1][101CH2:1]C3CCN(c4ccc(C[100NH:0][100C:0](=O)N5CCCC(n6nc(-c7ccc(Oc8ccc(F)cc8F)cc7)c(C(N)=O)c6N)C5)cc4F)C3)ccc2CC1C(=O)NC1CCCc2ccccc21)C(C)(C)C

> <Shape>
0.360

> <Color>
0.226

> <Negative vol penalty>
0.000

$$$$

  -OEChem-04042321203D

 87 96  0     1  0  0  0  0  0999 V2000
  -29.1275  -11.5197   19.4275 C   0  0  0  0  0  0  0  0  0  0  0  0
  -29.1407  -12.8918   19.1981 C   0  0  0  0  0  0  0  0  0  0  0  0
  -22.1226  -25.5683   21.8690 C   0  0  0  0  0  0  0  0  0  0  0  0
  -20.6439  -26.4900   20.1953 C   0  0  0  0  0  0  0  0  0  0  0  0
  -27.9573  -10.8977   19.8605 C   0  0  0  0  0  0  0  0  0  0  0  0
  -27.9832  -13.6425   19.4006 C   0  0  0  0  0  0  0  0  0  0  0  0
  -28.8771  -17.9551   21.9002 C   0  0  0  0  0  0  0  0  0  0  0  0
  -21.2056  -25.9051   22.8646 C   0  0  0  0  0  0  0  0  0  0  0  0
  -19.7269  -26.8267   21.1910 C   0  0  0  0  0  0  0  0  0  0  0  0
  -29.4257  -19.0105   21.1730 C   0  0  0  0  0  0  0  0  0  0  0  0
  -17.1560  -28.2536   23.3275 C   0  0  0  0  0  0  0  0  0  0  0  0
  -16.5777  -29.5217   23.2742 C   0  0  0  0  0  0  0  0  0  0  0  0
  -27.2376  -20.0079   20.9812 C   0  0  0  0  0  0  0  0  0  0  0  0
  -28.5959  -25.7836   19.8213 C   0  0  0  0  0  0  0  0  0  0  0  0
  -27.9305  -28.1022   19.9577 C   0  0  0  0  0  0  0  0  0  0  0  0
  -18.7668  -30.5277   23.4555 C   0  0  0  0  0  0  0  0  0  0  0  0
  -21.8418  -25.8609   20.5343 C   0  0  0  0  0  0  0  0  0  0  0  0
  -23.2646  -24.2277   19.1867 C   0  0  0  0  0  0  0  0  0  0  0  0
  -26.7874  -11.6427   20.0777 C   0  0  0  0  0  0  0  0  0  0  0  0
  -27.5006  -17.9125   22.1644 C   0  0  0  0  0  0  0  0  0  0  0  0
  -26.7958  -13.0297   19.8356 C   0  0  0  0  0  0  0  0  0  0  0  0
  -26.6744  -18.9521   21.7141 C   0  0  0  0  0  0  0  0  0  0  0  0
  -28.6651  -25.8852   18.4319 C   0  0  0  0  0  0  0  0  0  0  0  0
  -27.9999  -28.2038   18.5682 C   0  0  0  0  0  0  0  0  0  0  0  0
  -20.0077  -26.5342   22.5256 C   0  0  0  0  0  0  0  0  0  0  0  0
  -28.6056  -20.0356   20.7109 C   0  0  0  0  0  0  0  0  0  0  0  0
  -18.5398  -28.1225   23.4449 C   0  0  0  0  0  0  0  0  0  0  0  0
  -17.3830  -30.6588   23.3381 C   0  0  0  0  0  0  0  0  0  0  0  0
  -19.3451  -29.2595   23.5088 C   0  0  0  0  0  0  0  0  0  0  0  0
  -28.3672  -27.0953   17.8053 C   0  0  0  0  0  0  0  0  0  0  0  0
  -28.2285  -26.8921   20.5842 C   0  0  0  0  0  0  0  0  0  0  0  0
  -22.7889  -25.5138   19.5055 C   0  0  0  0  0  0  0  0  0  0  0  0
  -24.1368  -24.4326   18.1456 C   0  0  0  0  0  0  0  0  0  0  0  0
  -22.9463  -22.9612   19.7785 C   0  0  0  0  0  0  0  0  0  0  0  0
  -25.1346  -15.9235   21.4228 C   0  0  0  0  0  0  0  0  0  0  0  0
  -23.4214  -17.8467   23.3947 C   0  0  0  0  0  0  0  0  0  0  0  0
  -22.4835  -21.0636   24.7325 C   0  0  0  0  0  0  0  0  0  0  0  0
  -27.1442  -29.5441   16.6284 C   0  0  0  0  0  0  0  0  0  0  0  0
  -25.5338  -10.9187   20.5005 C   0  0  0  0  0  0  0  0  0  0  0  0
  -26.9284  -16.7807   22.9732 C   0  0  0  0  0  0  0  0  0  0  0  0
  -25.1935  -18.9637   21.9886 C   0  0  0  0  0  0  0  0  0  0  0  0
  -24.4521  -11.8446   21.0511 C   0  0  0  0  0  0  0  0  0  0  0  0
  -25.0204  -27.3907   14.4964 C   0  0  0  0  0  0  0  0  0  0  0  0
  -24.2759  -13.0583   20.1441 C   0  0  0  0  0  0  0  0  0  0  0  0
  -24.1884  -26.6172   15.5176 C   0  0  0  0  0  0  0  0  0  0  0  0
  -30.1133  -22.6164   17.2531 C   0  0  0  0  0  0  0  0  0  0  0  0
  -29.8225  -21.1789   17.6988 C   0  0  0  0  0  0  0  0  0  0  0  0
  -28.1011  -22.6815   18.5346 C   0  0  0  0  0  0  0  0  0  0  0  0
  -25.4319  -28.7621   15.0232 C   0  0  0  0  0  0  0  0  0  0  0  0
  -25.3189  -27.9312   17.3552 C   0  0  0  0  0  0  0  0  0  0  0  0
  -25.5671  -13.8820   20.0678 C   0  0  1  0  0  0  0  0  0  0  0  0
  -25.4342  -16.5770   22.7422 C   0  0  1  0  0  0  0  0  0  0  0  0
  -24.9261  -26.5299   16.8639 C   0  0  1  0  0  0  0  0  0  0  0  0
  -29.3542  -23.4953   18.2383 C   0  0  2  0  0  0  0  0  0  0  0  0
  -28.6480  -21.2642   18.6774 C   0  0  2  0  0  0  0  0  0  1  0  0
  -27.1306  -31.4104   19.3147 C   0  0  0  0  0  0  0  0  0  0  0  0
  -20.8737  -21.6633   26.5618 C   0  0  0  0  0  0  0  0  0  0  0  0
  -21.4119  -18.1763   21.1224 C   0  0  0  0  0  0  0  0  0  0  0  0
  -20.4710  -20.1545   22.3346 C   0  0  0  0  0  0  0  0  0  0  0  0
  -20.3889  -17.8943   23.3869 C   0  0  0  0  0  0  0  0  0  0  0  0
  -24.5519  -22.5731   26.2163 C   0  0  0  0  0  0  0  0  0  0  0  0
  -28.2032  -30.6833   18.5291 C   0  0  0  0  0  0  0  0  0  0  0  0
  -22.6031  -19.1029   23.2173 C   0  0  1  0  0  0  0  0  0  0  0  0
  -22.3316  -21.4291   26.1980 C   0  0  2  0  0  0  0  0  0  0  0  0
  -21.2463  -18.8311   22.5083 C   0  0  0  0  0  0  0  0  0  0  0  0
  -23.3155  -26.4652   18.7299 N   0  0  0  0  0  0  0  0  0  0  0  0
  -24.1311  -25.7765   17.9135 N   0  0  0  0  0  0  0  0  0  0  0  0
  -24.6805  -17.8319   22.7781 N   0  0  0  0  0  0  0  0  0  0  0  0
  -26.0790  -28.6688   16.3329 N   0  0  0  0  0  0  0  0  0  0  0  0
  -24.9005  -23.5924   17.4154 N   0  0  0  0  0  0  0  0  0  0  0  0
  -21.8741  -22.2282   19.2520 N   0  0  0  0  0  0  0  0  0  0  0  0
  -29.0305  -24.7806   17.6756 N   0  0  0  0  0  0  0  0  0  0  0  0
  -25.7256  -14.6849   21.2614 N   0  0  0  0  0  0  0  0  0  0  0  0
  -22.4757  -19.6978   24.5433 N   0  0  0  0  0  0  0  0  0  0  0  0
  -27.6908  -29.4564   17.9229 N   0  0  0  0  0  0  0  0  0  0  0  0
  -23.0977  -22.6701   26.5044 N   0  3  0  0  0  0  0  0  0  0  0  0
  -23.5833  -22.5009   20.7562 O   0  0  0  0  0  0  0  0  0  0  0  0
  -24.4189  -16.4997   20.6119 O   0  0  0  0  0  0  0  0  0  0  0  0
  -22.9633  -16.9158   24.0620 O   0  0  0  0  0  0  0  0  0  0  0  0
  -22.5939  -21.9055   23.8440 O   0  0  0  0  0  0  0  0  0  0  0  0
  -27.5451  -30.3852   15.8145 O   0  0  0  0  0  0  0  0  0  0  0  0
  -19.1125  -26.8627   23.4969 O   0  0  0  0  0  0  0  0  0  0  0  0
  -29.1384  -21.0667   20.0003 O   0  0  0  0  0  0  0  0  0  1  0  0
  -16.8276  -31.8766   23.2854 F   0  0  0  0  0  0  0  0  0  0  0  0
  -20.6752  -29.1399   23.6204 F   0  0  0  0  0  0  0  0  0  0  0  0
  -28.4330  -27.1924   16.4686 F   0  0  0  0  0  0  0  0  0  0  0  0
  -28.1433  -26.7672   22.2984 Cl  0  0  0  0  0  0  0  0  0  0  0  0
  1  2  1  0  0  0  0
  1  5  2  0  0  0  0
  2  6  2  0  0  0  0
  3  8  2  0  0  0  0
  3 17  1  0  0  0  0
  4  9  1  0  0  0  0
  4 17  2  0  0  0  0
  5 19  1  0  0  0  0
  6 21  1  0  0  0  0
  7 10  2  0  0  0  0
  7 20  1  0  0  0  0
  8 25  1  0  0  0  0
  9 25  2  0  0  0  0
 10 26  1  0  0  0  0
 11 12  2  0  0  0  0
 11 27  1  0  0  0  0
 12 28  1  0  0  0  0
 13 22  1  0  0  0  0
 13 26  2  0  0  0  0
 14 23  2  0  0  0  0
 14 31  1  0  0  0  0
 15 24  1  0  0  0  0
 15 31  2  0  0  0  0
 16 28  2  0  0  0  0
 16 29  1  0  0  0  0
 17 32  1  0  0  0  0
 18 32  1  0  0  0  0
 18 33  2  0  0  0  0
 18 34  1  0  0  0  0
 19 21  2  0  0  0  0
 19 39  1  0  0  0  0
 20 22  2  0  0  0  0
 20 40  1  0  0  0  0
 21 51  1  0  0  0  0
 22 41  1  0  0  0  0
 23 30  1  0  0  0  0
 23 72  1  0  0  0  0
 24 30  2  0  0  0  0
 24 75  1  0  0  0  0
 25 82  1  0  0  0  0
 26 83  1  0  0  0  0
 27 29  2  0  0  0  0
 27 82  1  0  0  0  0
 28 84  1  0  0  0  0
 29 85  1  0  0  0  0
 30 86  1  0  0  0  0
 31 87  1  0  0  0  0
 32 66  2  0  0  0  0
 33 67  1  0  0  0  0
 33 70  1  0  0  0  0
 34 71  1  0  0  0  0
 34 77  2  0  0  0  0
 35 52  1  0  0  0  0
 35 73  1  0  0  0  0
 35 78  2  0  0  0  0
 36 63  1  0  0  0  0
 36 68  1  0  0  0  0
 36 79  2  0  0  0  0
 37 64  1  0  0  0  0
 37 74  1  0  0  0  0
 37 80  2  0  0  0  0
 38 69  1  0  0  0  0
 38 75  1  0  0  0  0
 38 81  2  0  0  0  0
 39 42  1  0  0  0  0
 40 52  1  0  0  0  0
 41 68  1  0  0  0  0
 42 44  1  0  0  0  0
 43 45  1  0  0  0  0
 43 49  1  0  0  0  0
 44 51  1  0  0  0  0
 45 53  1  0  0  0  0
 46 47  1  0  0  0  0
 46 54  1  0  0  0  0
 47 55  1  0  0  0  0
 48 54  1  0  0  0  0
 48 55  1  0  0  0  0
 49 69  1  0  0  0  0
 50 53  1  0  0  0  0
 50 69  1  0  0  0  0
 51 73  1  0  0  0  0
 52 68  1  0  0  0  0
 53 67  1  0  0  0  0
 54 72  1  0  0  0  0
 55 83  1  0  0  0  0
 56 62  1  0  0  0  0
 57 64  1  0  0  0  0
 58 65  1  0  0  0  0
 59 65  1  0  0  0  0
 60 65  1  0  0  0  0
 61 76  1  0  0  0  0
 62 75  1  0  0  0  0
 63 65  1  0  0  0  0
 63 74  1  0  0  0  0
 64 76  1  0  0  0  0
 66 67  1  0  0  0  0
M  CHG  1  76   1
M  ISO  4  38 100  55 101  75 100  83 101
M  END
> <Batch ID>
0024

> <Smiles>
CC[100N:0](c1cc(Cl)cc(NC2CC[101CH:1]([101O:1]c3ccc4c(c3)CN(C(=O)C(NC(=O)C(C)NC)C(C)(C)C)C(C(=O)NC3CCCc5ccccc53)C4)C2)c1F)[100C:0](=O)N1CCCC(n2nc(-c3ccc(Oc4ccc(F)cc4F)cc3)c(C(N)=O)c2N)C1

> <Shape>
0.201

> <Color>
0.058

> <Negative vol penalty>
0.000

$$$$

  -OEChem-04042321203D

 84 93  0     1  0  0  0  0  0999 V2000
  -37.5371  -29.8971   21.6741 C   0  0  0  0  0  0  0  0  0  0  0  0
  -36.6895  -29.0213   22.3449 C   0  0  0  0  0  0  0  0  0  0  0  0
  -23.0019   -9.8902   19.9831 C   0  0  0  0  0  0  0  0  0  0  0  0
  -23.7294   -9.9461   22.2863 C   0  0  0  0  0  0  0  0  0  0  0  0
  -37.0635  -31.1395   21.2544 C   0  0  0  0  0  0  0  0  0  0  0  0
  -35.3680  -29.3878   22.5973 C   0  0  0  0  0  0  0  0  0  0  0  0
  -32.0906  -25.6642   21.5783 C   0  0  0  0  0  0  0  0  0  0  0  0
  -29.6248  -18.9608   25.3789 C   0  0  0  0  0  0  0  0  0  0  0  0
  -22.2376   -8.7548   20.2520 C   0  0  0  0  0  0  0  0  0  0  0  0
  -22.9651   -8.8106   22.5552 C   0  0  0  0  0  0  0  0  0  0  0  0
  -31.9784  -24.6400   22.5176 C   0  0  0  0  0  0  0  0  0  0  0  0
  -23.2148   -5.4714   22.0883 C   0  0  0  0  0  0  0  0  0  0  0  0
  -29.7180  -17.5641   25.4803 C   0  0  0  0  0  0  0  0  0  0  0  0
  -23.8050   -4.4564   22.8413 C   0  0  0  0  0  0  0  0  0  0  0  0
  -29.9749  -25.6646   23.3866 C   0  0  0  0  0  0  0  0  0  0  0  0
  -22.0824   -4.6989   24.5180 C   0  0  0  0  0  0  0  0  0  0  0  0
  -23.7478  -10.4858   21.0002 C   0  0  0  0  0  0  0  0  0  0  0  0
  -24.1284  -13.0018   20.8199 C   0  0  0  0  0  0  0  0  0  0  0  0
  -35.7328  -31.5175   21.4933 C   0  0  0  0  0  0  0  0  0  0  0  0
  -31.1503  -26.7039   21.5432 C   0  0  0  0  0  0  0  0  0  0  0  0
  -34.8765  -30.6369   22.1817 C   0  0  0  0  0  0  0  0  0  0  0  0
  -30.0760  -26.6994   22.4442 C   0  0  0  0  0  0  0  0  0  0  0  0
  -30.2637  -18.8335   23.0818 C   0  0  0  0  0  0  0  0  0  0  0  0
  -30.3540  -17.4382   23.1791 C   0  0  0  0  0  0  0  0  0  0  0  0
  -29.9060  -19.6069   24.1736 C   0  0  0  0  0  0  0  0  0  0  0  0
  -22.2192   -8.2150   21.5380 C   0  0  0  0  0  0  0  0  0  0  0  0
  -30.9221  -24.6416   23.4238 C   0  0  0  0  0  0  0  0  0  0  0  0
  -22.0585   -6.1002   22.5500 C   0  0  0  0  0  0  0  0  0  0  0  0
  -23.2388   -4.0701   24.0562 C   0  0  0  0  0  0  0  0  0  0  0  0
  -30.0924  -16.7927   24.3776 C   0  0  0  0  0  0  0  0  0  0  0  0
  -21.4923   -5.7139   23.7649 C   0  0  0  0  0  0  0  0  0  0  0  0
  -24.5379  -11.6584   20.7229 C   0  0  0  0  0  0  0  0  0  0  0  0
  -25.2365  -13.7258   20.4532 C   0  0  0  0  0  0  0  0  0  0  0  0
  -22.8599  -13.5466   21.2069 C   0  0  0  0  0  0  0  0  0  0  0  0
  -31.2729  -29.8540   21.9500 C   0  0  0  0  0  0  0  0  0  0  0  0
  -28.1619  -29.7002   21.0443 C   0  0  0  0  0  0  0  0  0  0  0  0
  -25.3116  -27.8430   20.7737 C   0  0  0  0  0  0  0  0  0  0  0  0
  -30.7315  -14.6705   20.6945 C   0  0  0  0  0  0  0  0  0  0  0  0
  -35.2795  -32.8899   21.0625 C   0  0  0  0  0  0  0  0  0  0  0  0
  -31.2705  -27.7870   20.5065 C   0  0  0  0  0  0  0  0  0  0  0  0
  -30.6468  -19.3015   21.7124 C   0  0  0  0  0  0  0  0  0  0  0  0
  -29.0286  -27.7817   22.4348 C   0  0  0  0  0  0  0  0  0  0  0  0
  -33.7617  -33.0504   21.0384 C   0  0  0  0  0  0  0  0  0  0  0  0
  -30.4999  -18.0033   20.9036 C   0  0  0  0  0  0  0  0  0  0  0  0
  -29.5927  -12.2412   18.3540 C   0  0  0  0  0  0  0  0  0  0  0  0
  -33.1451  -32.4890   22.3157 C   0  0  0  0  0  0  0  0  0  0  0  0
  -28.1451  -11.9795   18.7735 C   0  0  0  0  0  0  0  0  0  0  0  0
  -30.4959  -12.4801   19.5619 C   0  0  0  0  0  0  0  0  0  0  0  0
  -28.5858  -13.2743   20.9014 C   0  0  0  0  0  0  0  0  0  0  0  0
  -33.4297  -30.9883   22.4523 C   0  0  1  0  0  0  0  0  0  0  0  0
  -30.8116  -16.8515   21.8762 C   0  0  2  0  0  0  0  0  0  0  0  0
  -30.5432  -29.0702   20.8960 C   0  0  1  0  0  0  0  0  0  0  0  0
  -27.6259  -13.0831   19.7147 C   0  0  2  0  0  0  0  0  0  0  0  0
  -22.9200  -28.0019   20.0303 C   0  0  0  0  0  0  0  0  0  0  0  0
  -27.4747  -31.2342   23.5908 C   0  0  0  0  0  0  0  0  0  0  0  0
  -25.0893  -30.5392   23.2827 C   0  0  0  0  0  0  0  0  0  0  0  0
  -26.2052  -31.9590   21.5617 C   0  0  0  0  0  0  0  0  0  0  0  0
  -25.6930  -25.7558   18.7104 C   0  0  0  0  0  0  0  0  0  0  0  0
  -29.4650  -21.8402   25.1952 C   0  0  0  0  0  0  0  0  0  0  0  0
  -29.4936  -23.2987   24.7698 C   0  0  0  0  0  0  0  0  0  1  0  0
  -26.8466  -29.5218   21.7635 C   0  0  1  0  0  0  0  0  0  0  0  0
  -24.3417  -27.6483   19.6222 C   0  0  2  0  0  0  0  0  0  0  0  0
  -26.4246  -30.7940   22.5514 C   0  0  0  0  0  0  0  0  0  0  0  0
  -25.8070  -11.5335   20.3256 N   0  0  0  0  0  0  0  0  0  0  0  0
  -26.2045  -12.8078   20.1696 N   0  0  0  0  0  0  0  0  0  0  0  0
  -29.1933  -28.8222   21.4063 N   0  0  0  0  0  0  0  0  0  0  0  0
  -29.9481  -13.5391   20.4129 N   0  0  0  0  0  0  0  0  0  0  0  0
  -25.4675  -15.0518   20.3488 N   0  0  0  0  0  0  0  0  0  0  0  0
  -21.8301  -12.6611   21.5528 N   0  0  0  0  0  0  0  0  0  0  0  0
  -29.8289  -20.9871   24.0871 N   0  0  0  0  0  0  0  0  0  0  0  0
  -32.5533  -30.2270   21.5881 N   0  0  0  0  0  0  0  0  0  0  0  0
  -25.8833  -29.0976   20.7533 N   0  0  0  0  0  0  0  0  0  0  0  0
  -30.1343  -15.6295   21.5035 N   0  0  0  0  0  0  0  0  0  0  0  0
  -24.3602  -26.2305   19.1635 N   0  3  0  0  0  0  0  0  0  0  0  0
  -22.6410  -14.7815   21.2289 O   0  0  0  0  0  0  0  0  0  0  0  0
  -30.7151  -30.1031   23.0122 O   0  0  0  0  0  0  0  0  0  0  0  0
  -28.2680  -30.5814   20.1877 O   0  0  0  0  0  0  0  0  0  0  0  0
  -25.5365  -26.9708   21.6099 O   0  0  0  0  0  0  0  0  0  0  0  0
  -31.8762  -14.8178   20.2530 O   0  0  0  0  0  0  0  0  0  0  0  0
  -21.4734   -7.1072   21.8008 O   0  0  0  0  0  0  0  0  0  0  0  0
  -30.8105  -23.6435   24.3420 O   0  0  0  0  0  0  0  0  0  1  0  0
  -23.8047   -3.0944   24.7785 F   0  0  0  0  0  0  0  0  0  0  0  0
  -30.2013  -15.4632   24.4882 F   0  0  0  0  0  0  0  0  0  0  0  0
  -20.3808   -6.3135   24.2131 F   0  0  0  0  0  0  0  0  0  0  0  0
  1  2  1  0  0  0  0
  1  5  2  0  0  0  0
  2  6  2  0  0  0  0
  3  9  2  0  0  0  0
  3 17  1  0  0  0  0
  4 10  1  0  0  0  0
  4 17  2  0  0  0  0
  5 19  1  0  0  0  0
  6 21  1  0  0  0  0
  7 11  2  0  0  0  0
  7 20  1  0  0  0  0
  8 13  2  0  0  0  0
  8 25  1  0  0  0  0
  9 26  1  0  0  0  0
 10 26  2  0  0  0  0
 11 27  1  0  0  0  0
 12 14  2  0  0  0  0
 12 28  1  0  0  0  0
 13 30  1  0  0  0  0
 14 29  1  0  0  0  0
 15 22  1  0  0  0  0
 15 27  2  0  0  0  0
 16 29  2  0  0  0  0
 16 31  1  0  0  0  0
 17 32  1  0  0  0  0
 18 32  1  0  0  0  0
 18 33  2  0  0  0  0
 18 34  1  0  0  0  0
 19 21  2  0  0  0  0
 19 39  1  0  0  0  0
 20 22  2  0  0  0  0
 20 40  1  0  0  0  0
 21 50  1  0  0  0  0
 22 42  1  0  0  0  0
 23 24  1  0  0  0  0
 23 25  2  0  0  0  0
 23 41  1  0  0  0  0
 24 30  2  0  0  0  0
 24 51  1  0  0  0  0
 25 70  1  0  0  0  0
 26 80  1  0  0  0  0
 27 81  1  0  0  0  0
 28 31  2  0  0  0  0
 28 80  1  0  0  0  0
 29 82  1  0  0  0  0
 30 83  1  0  0  0  0
 31 84  1  0  0  0  0
 32 64  2  0  0  0  0
 33 65  1  0  0  0  0
 33 68  1  0  0  0  0
 34 69  1  0  0  0  0
 34 75  2  0  0  0  0
 35 52  1  0  0  0  0
 35 71  1  0  0  0  0
 35 76  2  0  0  0  0
 36 61  1  0  0  0  0
 36 66  1  0  0  0  0
 36 77  2  0  0  0  0
 37 62  1  0  0  0  0
 37 72  1  0  0  0  0
 37 78  2  0  0  0  0
 38 67  1  0  0  0  0
 38 73  1  0  0  0  0
 38 79  2  0  0  0  0
 39 43  1  0  0  0  0
 40 52  1  0  0  0  0
 41 44  1  0  0  0  0
 42 66  1  0  0  0  0
 43 46  1  0  0  0  0
 44 51  1  0  0  0  0
 45 47  1  0  0  0  0
 45 48  1  0  0  0  0
 46 50  1  0  0  0  0
 47 53  1  0  0  0  0
 48 67  1  0  0  0  0
 49 53  1  0  0  0  0
 49 67  1  0  0  0  0
 50 71  1  0  0  0  0
 51 73  1  0  0  0  0
 52 66  1  0  0  0  0
 53 65  1  0  0  0  0
 54 62  1  0  0  0  0
 55 63  1  0  0  0  0
 56 63  1  0  0  0  0
 57 63  1  0  0  0  0
 58 74  1  0  0  0  0
 59 60  1  0  0  0  0
 59 70  1  0  0  0  0
 60 81  1  0  0  0  0
 61 63  1  0  0  0  0
 61 72  1  0  0  0  0
 62 74  1  0  0  0  0
 64 65  1  0  0  0  0
M  CHG  1  74   1
M  ISO  4  38 100  60 101  73 100  81 101
M  END
> <Batch ID>
0024

> <Smiles>
CNC(C)C(=O)NC(C(=O)N1Cc2cc([101O:1][101CH2:1]CNc3ccc(F)c4c3CCC4[100NH:0][100C:0](=O)N3CCCC(n4nc(-c5ccc(Oc6ccc(F)cc6F)cc5)c(C(N)=O)c4N)C3)ccc2CC1C(=O)NC1CCCc2ccccc21)C(C)(C)C

> <Shape>
0.271

> <Color>
0.197

> <Negative vol penalty>
0.000

$$$$

  -OEChem-04042321203D

 85 94  0     1  0  0  0  0  0999 V2000
  -30.8877  -33.3450   14.5004 C   0  0  0  0  0  0  0  0  0  0  0  0
  -30.9803  -32.5144   15.6126 C   0  0  0  0  0  0  0  0  0  0  0  0
  -24.4519   -9.5491   21.3915 C   0  0  0  0  0  0  0  0  0  0  0  0
  -24.8812  -10.5838   23.5321 C   0  0  0  0  0  0  0  0  0  0  0  0
  -30.0031  -34.4227   14.5084 C   0  0  0  0  0  0  0  0  0  0  0  0
  -30.1890  -32.7617   16.7338 C   0  0  0  0  0  0  0  0  0  0  0  0
  -28.0672  -28.5509   18.5811 C   0  0  0  0  0  0  0  0  0  0  0  0
  -24.1340   -8.3524   22.0337 C   0  0  0  0  0  0  0  0  0  0  0  0
  -24.5633   -9.3871   24.1743 C   0  0  0  0  0  0  0  0  0  0  0  0
  -28.8770  -27.7128   19.3463 C   0  0  0  0  0  0  0  0  0  0  0  0
  -21.4993   -7.0435   23.7005 C   0  0  0  0  0  0  0  0  0  0  0  0
  -20.3592   -6.3622   23.2745 C   0  0  0  0  0  0  0  0  0  0  0  0
  -27.9193  -28.6352   21.3591 C   0  0  0  0  0  0  0  0  0  0  0  0
  -27.8685  -20.9914   22.2249 C   0  0  0  0  0  0  0  0  0  0  0  0
  -30.1344  -19.5846   21.4070 C   0  0  0  0  0  0  0  0  0  0  0  0
  -21.7168   -4.4470   22.7037 C   0  0  0  0  0  0  0  0  0  0  0  0
  -24.8256  -10.6648   22.1407 C   0  0  0  0  0  0  0  0  0  0  0  0
  -24.2747  -12.9493   21.1480 C   0  0  0  0  0  0  0  0  0  0  0  0
  -29.1936  -34.6776   15.6266 C   0  0  0  0  0  0  0  0  0  0  0  0
  -27.1837  -29.4467   19.2003 C   0  0  0  0  0  0  0  0  0  0  0  0
  -29.2937  -33.8445   16.7573 C   0  0  0  0  0  0  0  0  0  0  0  0
  -27.0976  -29.4818   20.5994 C   0  0  0  0  0  0  0  0  0  0  0  0
  -29.1317  -21.5690   22.3523 C   0  0  0  0  0  0  0  0  0  0  0  0
  -28.8712  -19.0070   21.2795 C   0  0  0  0  0  0  0  0  0  0  0  0
  -24.1896   -8.2714   23.4251 C   0  0  0  0  0  0  0  0  0  0  0  0
  -28.8052  -27.7569   20.7356 C   0  0  0  0  0  0  0  0  0  0  0  0
  -22.7483   -6.4265   23.6280 C   0  0  0  0  0  0  0  0  0  0  0  0
  -20.4679   -5.0640   22.7761 C   0  0  0  0  0  0  0  0  0  0  0  0
  -27.7382  -19.7103   21.6885 C   0  0  0  0  0  0  0  0  0  0  0  0
  -22.8570   -5.1283   23.1296 C   0  0  0  0  0  0  0  0  0  0  0  0
  -30.2647  -20.8656   21.9434 C   0  0  0  0  0  0  0  0  0  0  0  0
  -25.1547  -11.9011   21.4779 C   0  0  0  0  0  0  0  0  0  0  0  0
  -25.0709  -13.8864   20.5363 C   0  0  0  0  0  0  0  0  0  0  0  0
  -22.8637  -13.0654   21.3744 C   0  0  0  0  0  0  0  0  0  0  0  0
  -26.8718  -32.6094   19.2595 C   0  0  0  0  0  0  0  0  0  0  0  0
  -24.1692  -31.9216   20.9165 C   0  0  0  0  0  0  0  0  0  0  0  0
  -22.4598  -29.7210   22.8868 C   0  0  0  0  0  0  0  0  0  0  0  0
  -29.7637  -16.8725   20.2827 C   0  0  0  0  0  0  0  0  0  0  0  0
  -28.2867  -35.8824   15.6067 C   0  0  0  0  0  0  0  0  0  0  0  0
  -26.2977  -30.3252   18.3603 C   0  0  0  0  0  0  0  0  0  0  0  0
  -26.1510  -30.4113   21.3126 C   0  0  0  0  0  0  0  0  0  0  0  0
  -27.2123  -35.8540   16.6908 C   0  0  0  0  0  0  0  0  0  0  0  0
  -29.8554  -13.5880   18.9111 C   0  0  0  0  0  0  0  0  0  0  0  0
  -27.8210  -35.4701   18.0357 C   0  0  0  0  0  0  0  0  0  0  0  0
  -28.5682  -12.9426   19.4295 C   0  0  0  0  0  0  0  0  0  0  0  0
  -29.1535  -24.6161   24.4270 C   0  0  0  0  0  0  0  0  0  0  0  0
  -30.4820  -14.5171   19.9494 C   0  0  0  0  0  0  0  0  0  0  0  0
  -29.3922  -23.1120   24.3121 C   0  0  0  0  0  0  0  0  0  0  0  0
  -29.1726  -24.0650   22.0984 C   0  0  0  0  0  0  0  0  0  0  0  0
  -28.2915  -14.8935   21.0120 C   0  0  0  0  0  0  0  0  0  0  0  0
  -28.4341  -34.0655   17.9830 C   0  0  1  0  0  0  0  0  0  0  0  0
  -25.8051  -31.5627   19.1042 C   0  0  1  0  0  0  0  0  0  0  0  0
  -29.6324  -25.1490   23.0798 C   0  0  1  0  0  0  0  0  0  0  0  0
  -27.5890  -13.9993   19.9774 C   0  0  2  0  0  0  0  0  0  0  0  0
  -20.2890  -29.4537   24.1169 C   0  0  0  0  0  0  0  0  0  0  0  0
  -25.1735  -33.8086   23.0938 C   0  0  0  0  0  0  0  0  0  0  0  0
  -23.4991  -32.7899   24.6517 C   0  0  0  0  0  0  0  0  0  0  0  0
  -22.7275  -33.9882   22.6044 C   0  0  0  0  0  0  0  0  0  0  0  0
  -21.7108  -27.3476   21.2852 C   0  0  0  0  0  0  0  0  0  0  0  0
  -29.0847  -26.5269   22.7517 C   0  0  0  0  0  0  0  0  0  1  0  0
  -23.8299  -31.7246   22.3743 C   0  0  1  0  0  0  0  0  0  0  0  0
  -21.0350  -29.2021   22.8158 C   0  0  2  0  0  0  0  0  0  0  0  0
  -23.8269  -33.0616   23.1679 C   0  0  0  0  0  0  0  0  0  0  0  0
  -26.4135  -12.1486   21.1064 N   0  0  0  0  0  0  0  0  0  0  0  0
  -26.3303  -13.3629   20.5366 N   0  0  0  0  0  0  0  0  0  0  0  0
  -29.2288  -22.8361   22.8871 N   0  0  3  0  0  0  0  0  0  0  0  0
  -25.3100  -31.2549   20.4474 N   0  0  0  0  0  0  0  0  0  0  0  0
  -29.4973  -15.4937   20.4198 N   0  0  0  0  0  0  0  0  0  0  0  0
  -24.8096  -15.0989   20.0034 N   0  0  0  0  0  0  0  0  0  0  0  0
  -22.2009  -12.0105   22.0164 N   0  0  0  0  0  0  0  0  0  0  0  0
  -28.7408  -17.7052   20.7354 N   0  0  0  0  0  0  0  0  0  0  0  0
  -27.3979  -33.0584   18.0633 N   0  0  0  0  0  0  0  0  0  0  0  0
  -22.5590  -31.0089   22.4044 N   0  0  0  0  0  0  0  0  0  0  0  0
  -21.0303  -27.7362   22.5473 N   0  3  0  0  0  0  0  0  0  0  0  0
  -22.2070  -14.0677   21.0032 O   0  0  0  0  0  0  0  0  0  0  0  0
  -27.1925  -32.9832   20.3816 O   0  0  0  0  0  0  0  0  0  0  0  0
  -23.4446  -32.6348   20.2180 O   0  0  0  0  0  0  0  0  0  0  0  0
  -23.3910  -29.0521   23.3295 O   0  0  0  0  0  0  0  0  0  0  0  0
  -30.8098  -17.2839   19.7744 O   0  0  0  0  0  0  0  0  0  0  0  0
  -23.8792   -7.1039   24.0521 O   0  0  0  0  0  0  0  0  0  0  0  0
  -29.5950  -26.9404   21.4849 O   0  0  0  0  0  0  0  0  0  1  0  0
  -19.3727   -4.4093   22.3686 F   0  0  0  0  0  0  0  0  0  0  0  0
  -26.5191  -19.1646   21.5729 F   0  0  0  0  0  0  0  0  0  0  0  0
  -24.0540   -4.5299   23.0587 F   0  0  0  0  0  0  0  0  0  0  0  0
  -31.8472  -21.5443   22.0832 Cl  0  0  0  0  0  0  0  0  0  0  0  0
  1  2  1  0  0  0  0
  1  5  2  0  0  0  0
  2  6  2  0  0  0  0
  3  8  2  0  0  0  0
  3 17  1  0  0  0  0
  4  9  1  0  0  0  0
  4 17  2  0  0  0  0
  5 19  1  0  0  0  0
  6 21  1  0  0  0  0
  7 10  2  0  0  0  0
  7 20  1  0  0  0  0
  8 25  1  0  0  0  0
  9 25  2  0  0  0  0
 10 26  1  0  0  0  0
 11 12  2  0  0  0  0
 11 27  1  0  0  0  0
 12 28  1  0  0  0  0
 13 22  1  0  0  0  0
 13 26  2  0  0  0  0
 14 23  1  0  0  0  0
 14 29  2  0  0  0  0
 15 24  2  0  0  0  0
 15 31  1  0  0  0  0
 16 28  2  0  0  0  0
 16 30  1  0  0  0  0
 17 32  1  0  0  0  0
 18 32  1  0  0  0  0
 18 33  2  0  0  0  0
 18 34  1  0  0  0  0
 19 21  2  0  0  0  0
 19 39  1  0  0  0  0
 20 22  2  0  0  0  0
 20 40  1  0  0  0  0
 21 51  1  0  0  0  0
 22 41  1  0  0  0  0
 23 31  2  0  0  0  0
 23 66  1  0  0  0  0
 24 29  1  0  0  0  0
 24 71  1  0  0  0  0
 25 80  1  0  0  0  0
 26 81  1  0  0  0  0
 27 30  2  0  0  0  0
 27 80  1  0  0  0  0
 28 82  1  0  0  0  0
 29 83  1  0  0  0  0
 30 84  1  0  0  0  0
 31 85  1  0  0  0  0
 32 64  2  0  0  0  0
 33 65  1  0  0  0  0
 33 69  1  0  0  0  0
 34 70  1  0  0  0  0
 34 75  2  0  0  0  0
 35 52  1  0  0  0  0
 35 72  1  0  0  0  0
 35 76  2  0  0  0  0
 36 61  1  0  0  0  0
 36 67  1  0  0  0  0
 36 77  2  0  0  0  0
 37 62  1  0  0  0  0
 37 73  1  0  0  0  0
 37 78  2  0  0  0  0
 38 68  1  0  0  0  0
 38 71  1  0  0  0  0
 38 79  2  0  0  0  0
 39 42  1  0  0  0  0
 40 52  1  0  0  0  0
 41 67  1  0  0  0  0
 42 44  1  0  0  0  0
 43 45  1  0  0  0  0
 43 47  1  0  0  0  0
 44 51  1  0  0  0  0
 45 54  1  0  0  0  0
 46 48  1  0  0  0  0
 46 53  1  0  0  0  0
 47 68  1  0  0  0  0
 48 66  1  0  0  0  0
 49 53  1  0  0  0  0
 49 66  1  0  0  0  0
 50 54  1  0  0  0  0
 50 68  1  0  0  0  0
 51 72  1  0  0  0  0
 52 67  1  0  0  0  0
 53 60  1  0  0  0  0
 54 65  1  0  0  0  0
 55 62  1  0  0  0  0
 56 63  1  0  0  0  0
 57 63  1  0  0  0  0
 58 63  1  0  0  0  0
 59 74  1  0  0  0  0
 60 81  1  0  0  0  0
 61 63  1  0  0  0  0
 61 73  1  0  0  0  0
 62 74  1  0  0  0  0
 64 65  1  0  0  0  0
M  CHG  1  74   1
M  ISO  4  38 100  60 101  71 100  81 101
M  END
> <Batch ID>
0024

> <Smiles>
CNC(C)C(=O)NC(C(=O)N1Cc2cc([101O:1][101CH2:1]C3CCN(c4cc(F)c([100NH:0][100C:0](=O)N5CCCC(n6nc(-c7ccc(Oc8ccc(F)cc8F)cc7)c(C(N)=O)c6N)C5)cc4Cl)C3)ccc2CC1C(=O)NC1CCCc2ccccc21)C(C)(C)C

> <Shape>
0.267

> <Color>
0.127

> <Negative vol penalty>
0.000

$$$$

  -OEChem-04042321203D

 86 95  0     1  0  0  0  0  0999 V2000
  -20.3263  -34.4174   22.3406 C   0  0  0  0  0  0  0  0  0  0  0  0
  -21.5355  -33.9041   21.8828 C   0  0  0  0  0  0  0  0  0  0  0  0
  -22.4865  -15.8519   25.4067 C   0  0  0  0  0  0  0  0  0  0  0  0
  -22.2446  -18.0319   24.3938 C   0  0  0  0  0  0  0  0  0  0  0  0
  -19.5600  -33.6883   23.2490 C   0  0  0  0  0  0  0  0  0  0  0  0
  -21.9798  -32.6617   22.3340 C   0  0  0  0  0  0  0  0  0  0  0  0
  -25.1382  -28.4990   19.1399 C   0  0  0  0  0  0  0  0  0  0  0  0
  -21.5234  -16.1871   26.3582 C   0  0  0  0  0  0  0  0  0  0  0  0
  -21.2814  -18.3672   25.3453 C   0  0  0  0  0  0  0  0  0  0  0  0
  -26.4973  -28.1935   19.0836 C   0  0  0  0  0  0  0  0  0  0  0  0
  -21.3644  -17.9905   29.2125 C   0  0  0  0  0  0  0  0  0  0  0  0
  -21.6311  -17.6713   30.5438 C   0  0  0  0  0  0  0  0  0  0  0  0
  -26.1624  -26.4334   20.6989 C   0  0  0  0  0  0  0  0  0  0  0  0
  -31.2082  -19.9859   17.3359 C   0  0  0  0  0  0  0  0  0  0  0  0
  -28.9235  -21.5555   17.0206 C   0  0  0  0  0  0  0  0  0  0  0  0
  -19.6566  -16.2804   30.6059 C   0  0  0  0  0  0  0  0  0  0  0  0
  -22.8472  -16.7743   24.4244 C   0  0  0  0  0  0  0  0  0  0  0  0
  -23.6263  -15.8232   22.1893 C   0  0  0  0  0  0  0  0  0  0  0  0
  -19.9904  -32.4321   23.7041 C   0  0  0  0  0  0  0  0  0  0  0  0
  -24.2814  -27.7799   19.9857 C   0  0  0  0  0  0  0  0  0  0  0  0
  -21.2192  -31.9157   23.2504 C   0  0  0  0  0  0  0  0  0  0  0  0
  -24.7923  -26.7301   20.7622 C   0  0  0  0  0  0  0  0  0  0  0  0
  -29.9486  -19.4428   17.5891 C   0  0  0  0  0  0  0  0  0  0  0  0
  -30.1832  -22.0985   16.7674 C   0  0  0  0  0  0  0  0  0  0  0  0
  -20.9208  -17.4447   26.3276 C   0  0  0  0  0  0  0  0  0  0  0  0
  -27.0101  -27.1624   19.8653 C   0  0  0  0  0  0  0  0  0  0  0  0
  -20.2437  -17.4548   28.5778 C   0  0  0  0  0  0  0  0  0  0  0  0
  -20.7773  -16.8162   31.2406 C   0  0  0  0  0  0  0  0  0  0  0  0
  -28.8062  -20.2276   17.4314 C   0  0  0  0  0  0  0  0  0  0  0  0
  -31.3255  -21.3137   16.9251 C   0  0  0  0  0  0  0  0  0  0  0  0
  -19.3898  -16.5997   29.2746 C   0  0  0  0  0  0  0  0  0  0  0  0
  -23.8426  -16.4288   23.4416 C   0  0  0  0  0  0  0  0  0  0  0  0
  -24.8808  -15.7090   21.6419 C   0  0  0  0  0  0  0  0  0  0  0  0
  -22.4010  -15.4017   21.5756 C   0  0  0  0  0  0  0  0  0  0  0  0
  -22.4477  -28.5183   22.4749 C   0  0  0  0  0  0  0  0  0  0  0  0
  -21.4890  -25.4327   22.1881 C   0  0  0  0  0  0  0  0  0  0  0  0
  -22.1814  -22.2729   21.1005 C   0  0  0  0  0  0  0  0  0  0  0  0
  -29.9070  -17.8503   20.5028 C   0  0  0  0  0  0  0  0  0  0  0  0
  -19.1507  -31.7021   24.7224 C   0  0  0  0  0  0  0  0  0  0  0  0
  -22.8130  -28.1044   20.0150 C   0  0  0  0  0  0  0  0  0  0  0  0
  -23.9110  -25.9146   21.6714 C   0  0  0  0  0  0  0  0  0  0  0  0
  -19.5118  -30.2257   24.8639 C   0  0  0  0  0  0  0  0  0  0  0  0
  -29.4485  -16.3748   23.7105 C   0  0  0  0  0  0  0  0  0  0  0  0
  -21.0241  -30.0533   24.9647 C   0  0  0  0  0  0  0  0  0  0  0  0
  -27.9317  -16.2134   23.8254 C   0  0  0  0  0  0  0  0  0  0  0  0
  -29.8252  -17.6568   22.9711 C   0  0  0  0  0  0  0  0  0  0  0  0
  -27.6773  -17.6551   21.7625 C   0  0  0  0  0  0  0  0  0  0  0  0
  -29.7792  -24.6211   18.4521 C   0  0  0  0  0  0  0  0  0  0  0  0
  -30.6724  -25.8479   17.0164 C   0  0  0  0  0  0  0  0  0  0  0  0
  -21.7229  -30.5605   23.6975 C   0  0  1  0  0  0  0  0  0  0  0  0
  -22.1248  -27.6440   21.2963 C   0  0  1  0  0  0  0  0  0  0  0  0
  -30.1506  -26.1191   18.4434 C   0  0  0  0  0  0  0  0  0  0  0  0
  -27.2477  -16.3486   22.4517 C   0  0  2  0  0  0  0  0  0  0  0  0
  -21.2219  -19.9548   21.0430 C   0  0  0  0  0  0  0  0  0  0  0  0
  -22.1905  -25.0718   25.1355 C   0  0  0  0  0  0  0  0  0  0  0  0
  -22.1265  -22.5950   24.7756 C   0  0  0  0  0  0  0  0  0  0  0  0
  -20.0671  -23.9581   24.4247 C   0  0  0  0  0  0  0  0  0  0  0  0
  -22.1643  -22.2282   18.1413 C   0  0  0  0  0  0  0  0  0  0  0  0
  -29.8270  -18.0228   18.0283 C   0  0  0  0  0  0  0  0  0  0  0  0
  -30.3062  -23.5269   16.3251 C   0  0  0  0  0  0  0  0  0  0  0  0
  -29.0096  -27.1087   18.5788 C   0  0  0  0  0  0  0  0  0  1  0  0
  -21.9553  -24.1116   22.7504 C   0  0  1  0  0  0  0  0  0  0  0  0
  -21.3558  -21.2778   20.3051 C   0  0  2  0  0  0  0  0  0  0  0  0
  -21.6021  -23.9506   24.2560 C   0  0  0  0  0  0  0  0  0  0  0  0
  -25.1329  -16.6816   23.6761 N   0  0  0  0  0  0  0  0  0  0  0  0
  -25.7388  -16.2325   22.5638 N   0  0  0  0  0  0  0  0  0  0  0  0
  -22.4834  -26.2743   21.6698 N   0  0  0  0  0  0  0  0  0  0  0  0
  -29.1445  -17.7227   21.6756 N   0  0  0  0  0  0  0  0  0  0  0  0
  -25.3227  -15.2128   20.4667 N   0  0  0  0  0  0  0  0  0  0  0  0
  -21.2024  -15.5934   22.2763 N   0  0  0  0  0  0  0  0  0  0  0  0
  -21.5940  -29.5941   22.6280 N   0  0  0  0  0  0  0  0  0  0  0  0
  -21.3886  -23.0788   21.8899 N   0  0  0  0  0  0  0  0  0  0  0  0
  -29.1837  -17.8993   19.3174 N   0  0  0  0  0  0  0  0  0  0  0  0
  -30.7921  -24.4251   17.3950 N   0  3  0  0  0  0  0  0  0  0  0  0
  -21.9922  -21.0163   18.9831 N   0  3  0  0  0  0  0  0  0  0  0  0
  -22.3716  -14.8557   20.4466 O   0  0  0  0  0  0  0  0  0  0  0  0
  -23.3999  -28.2368   23.1931 O   0  0  0  0  0  0  0  0  0  0  0  0
  -20.2859  -25.7047   22.2015 O   0  0  0  0  0  0  0  0  0  0  0  0
  -23.4073  -22.3271   21.0314 O   0  0  0  0  0  0  0  0  0  0  0  0
  -31.1412  -17.9105   20.5111 O   0  0  0  0  0  0  0  0  0  0  0  0
  -19.9807  -17.7721   27.2558 O   0  0  0  0  0  0  0  0  0  0  0  0
  -28.3365  -26.8626   19.8128 O   0  0  0  0  0  0  0  0  0  1  0  0
  -21.0344  -16.5085   32.5186 F   0  0  0  0  0  0  0  0  0  0  0  0
  -27.5917  -19.7145   17.6727 F   0  0  0  0  0  0  0  0  0  0  0  0
  -32.5401  -21.8268   16.6840 F   0  0  0  0  0  0  0  0  0  0  0  0
  -18.3123  -16.0810   28.6698 F   0  0  0  0  0  0  0  0  0  0  0  0
  1  2  1  0  0  0  0
  1  5  2  0  0  0  0
  2  6  2  0  0  0  0
  3  8  2  0  0  0  0
  3 17  1  0  0  0  0
  4  9  1  0  0  0  0
  4 17  2  0  0  0  0
  5 19  1  0  0  0  0
  6 21  1  0  0  0  0
  7 10  2  0  0  0  0
  7 20  1  0  0  0  0
  8 25  1  0  0  0  0
  9 25  2  0  0  0  0
 10 26  1  0  0  0  0
 11 12  2  0  0  0  0
 11 27  1  0  0  0  0
 12 28  1  0  0  0  0
 13 22  1  0  0  0  0
 13 26  2  0  0  0  0
 14 23  2  0  0  0  0
 14 30  1  0  0  0  0
 15 24  1  0  0  0  0
 15 29  2  0  0  0  0
 16 28  2  0  0  0  0
 16 31  1  0  0  0  0
 17 32  1  0  0  0  0
 18 32  1  0  0  0  0
 18 33  2  0  0  0  0
 18 34  1  0  0  0  0
 19 21  2  0  0  0  0
 19 39  1  0  0  0  0
 20 22  2  0  0  0  0
 20 40  1  0  0  0  0
 21 50  1  0  0  0  0
 22 41  1  0  0  0  0
 23 29  1  0  0  0  0
 23 59  1  0  0  0  0
 24 30  2  0  0  0  0
 24 60  1  0  0  0  0
 25 81  1  0  0  0  0
 26 82  1  0  0  0  0
 27 31  2  0  0  0  0
 27 81  1  0  0  0  0
 28 83  1  0  0  0  0
 29 84  1  0  0  0  0
 30 85  1  0  0  0  0
 31 86  1  0  0  0  0
 32 65  2  0  0  0  0
 33 66  1  0  0  0  0
 33 69  1  0  0  0  0
 34 70  1  0  0  0  0
 34 76  2  0  0  0  0
 35 51  1  0  0  0  0
 35 71  1  0  0  0  0
 35 77  2  0  0  0  0
 36 62  1  0  0  0  0
 36 67  1  0  0  0  0
 36 78  2  0  0  0  0
 37 63  1  0  0  0  0
 37 72  1  0  0  0  0
 37 79  2  0  0  0  0
 38 68  1  0  0  0  0
 38 73  1  0  0  0  0
 38 80  2  0  0  0  0
 39 42  1  0  0  0  0
 40 51  1  0  0  0  0
 41 67  1  0  0  0  0
 42 44  1  0  0  0  0
 43 45  1  0  0  0  0
 43 46  1  0  0  0  0
 44 50  1  0  0  0  0
 45 53  1  0  0  0  0
 46 68  1  0  0  0  0
 47 53  1  0  0  0  0
 47 68  1  0  0  0  0
 48 52  1  0  0  0  0
 48 74  1  0  0  0  0
 49 52  1  0  0  0  0
 49 74  1  0  0  0  0
 50 71  1  0  0  0  0
 51 67  1  0  0  0  0
 52 61  1  0  0  0  0
 53 66  1  0  0  0  0
 54 63  1  0  0  0  0
 55 64  1  0  0  0  0
 56 64  1  0  0  0  0
 57 64  1  0  0  0  0
 58 75  1  0  0  0  0
 59 73  1  0  0  0  0
 60 74  1  0  0  0  0
 61 82  1  0  0  0  0
 62 64  1  0  0  0  0
 62 72  1  0  0  0  0
 63 75  1  0  0  0  0
 65 66  1  0  0  0  0
M  CHG  2  74   1  75   1
M  ISO  4  38 100  61 101  73 100  82 101
M  END
> <Batch ID>
0024

> <Smiles>
CNC(C)C(=O)NC(C(=O)N1Cc2cc([101O:1][101CH2:1]C3CN(Cc4cc(F)c(C[100NH:0][100C:0](=O)N5CCCC(n6nc(-c7ccc(Oc8ccc(F)cc8F)cc7)c(C(N)=O)c6N)C5)cc4F)C3)ccc2CC1C(=O)NC1CCCc2ccccc21)C(C)(C)C

> <Shape>
0.148

> <Color>
0.121

> <Negative vol penalty>
0.000

$$$$

  -OEChem-04042321203D

 82 91  0     1  0  0  0  0  0999 V2000
  -27.5421  -36.1890   20.8617 C   0  0  0  0  0  0  0  0  0  0  0  0
  -27.9038  -34.8475   20.9320 C   0  0  0  0  0  0  0  0  0  0  0  0
  -33.3542  -23.2231   21.6636 C   0  0  0  0  0  0  0  0  0  0  0  0
  -25.6772  -14.1827   20.1060 C   0  0  0  0  0  0  0  0  0  0  0  0
  -26.8114  -12.3671   21.2260 C   0  0  0  0  0  0  0  0  0  0  0  0
  -26.4016  -36.6381   21.5262 C   0  0  0  0  0  0  0  0  0  0  0  0
  -27.1258  -33.9544   21.6679 C   0  0  0  0  0  0  0  0  0  0  0  0
  -26.2982  -29.6098   19.2013 C   0  0  0  0  0  0  0  0  0  0  0  0
  -33.1897  -21.9013   21.2396 C   0  0  0  0  0  0  0  0  0  0  0  0
  -32.4772  -24.2289   21.2325 C   0  0  0  0  0  0  0  0  0  0  0  0
  -24.6998  -13.2949   19.6565 C   0  0  0  0  0  0  0  0  0  0  0  0
  -25.8339  -11.4793   20.7765 C   0  0  0  0  0  0  0  0  0  0  0  0
  -27.3366  -28.6797   19.1840 C   0  0  0  0  0  0  0  0  0  0  0  0
  -22.6761  -10.6189   21.6181 C   0  0  0  0  0  0  0  0  0  0  0  0
  -22.1631   -9.7029   22.5365 C   0  0  0  0  0  0  0  0  0  0  0  0
  -26.2566  -27.4499   20.9561 C   0  0  0  0  0  0  0  0  0  0  0  0
  -22.9281   -7.8809   21.1464 C   0  0  0  0  0  0  0  0  0  0  0  0
  -26.7330  -13.7188   20.8907 C   0  0  0  0  0  0  0  0  0  0  0  0
  -27.7367  -15.3712   22.5550 C   0  0  0  0  0  0  0  0  0  0  0  0
  -25.6039  -35.7482   22.2627 C   0  0  0  0  0  0  0  0  0  0  0  0
  -25.2348  -29.4727   20.1052 C   0  0  0  0  0  0  0  0  0  0  0  0
  -25.9744  -34.3923   22.3440 C   0  0  0  0  0  0  0  0  0  0  0  0
  -25.2046  -28.3782   20.9812 C   0  0  0  0  0  0  0  0  0  0  0  0
  -31.2624  -22.6125   19.9604 C   0  0  0  0  0  0  0  0  0  0  0  0
  -32.1360  -21.6101   20.3855 C   0  0  0  0  0  0  0  0  0  0  0  0
  -31.4227  -23.9268   20.3704 C   0  0  0  0  0  0  0  0  0  0  0  0
  -24.7782  -11.9432   19.9917 C   0  0  0  0  0  0  0  0  0  0  0  0
  -27.3174  -27.6011   20.0634 C   0  0  0  0  0  0  0  0  0  0  0  0
  -23.3150  -10.1660   20.4638 C   0  0  0  0  0  0  0  0  0  0  0  0
  -22.2891   -8.3339   22.3006 C   0  0  0  0  0  0  0  0  0  0  0  0
  -23.4410   -8.7970   20.2280 C   0  0  0  0  0  0  0  0  0  0  0  0
  -27.7433  -14.6353   21.3549 C   0  0  0  0  0  0  0  0  0  0  0  0
  -28.9097  -16.0852   22.5264 C   0  0  0  0  0  0  0  0  0  0  0  0
  -26.7579  -15.4062   23.6020 C   0  0  0  0  0  0  0  0  0  0  0  0
  -24.0871  -31.2194   22.5000 C   0  0  0  0  0  0  0  0  0  0  0  0
  -21.7453  -28.9748   22.4995 C   0  0  0  0  0  0  0  0  0  0  0  0
  -20.7796  -25.7956   21.7208 C   0  0  0  0  0  0  0  0  0  0  0  0
  -32.5830  -19.2407   19.7824 C   0  0  0  0  0  0  0  0  0  0  0  0
  -24.4065  -36.2892   23.0031 C   0  0  0  0  0  0  0  0  0  0  0  0
  -24.1089  -30.4699   20.0930 C   0  0  0  0  0  0  0  0  0  0  0  0
  -30.2513  -22.0813   18.9965 C   0  0  0  0  0  0  0  0  0  0  0  0
  -24.0756  -28.1745   21.9571 C   0  0  0  0  0  0  0  0  0  0  0  0
  -23.4286  -35.2069   23.4531 C   0  0  0  0  0  0  0  0  0  0  0  0
  -32.9254  -15.7362   19.5008 C   0  0  0  0  0  0  0  0  0  0  0  0
  -24.1772  -34.0481   24.1039 C   0  0  0  0  0  0  0  0  0  0  0  0
  -31.5990  -15.1889   20.0208 C   0  0  0  0  0  0  0  0  0  0  0  0
  -30.4729  -20.5682   19.1175 C   0  0  0  0  0  0  0  0  0  0  0  0
  -32.7067  -17.0155   18.7048 C   0  0  0  0  0  0  0  0  0  0  0  0
  -30.6912  -17.5700   20.0433 C   0  0  0  0  0  0  0  0  0  0  0  0
  -25.1423  -33.3881   23.1118 C   0  0  1  0  0  0  0  0  0  0  0  0
  -23.3353  -30.5137   21.4071 C   0  0  1  0  0  0  0  0  0  0  0  0
  -30.8553  -16.2575   20.8370 C   0  0  1  0  0  0  0  0  0  0  0  0
  -18.8173  -24.2391   21.8759 C   0  0  0  0  0  0  0  0  0  0  0  0
  -22.3010  -28.5746   25.4729 C   0  0  0  0  0  0  0  0  0  0  0  0
  -21.0330  -26.4193   25.3485 C   0  0  0  0  0  0  0  0  0  0  0  0
  -19.8775  -28.5744   24.8553 C   0  0  0  0  0  0  0  0  0  0  0  0
  -20.6258  -25.5099   18.7791 C   0  0  0  0  0  0  0  0  0  0  0  0
  -30.6946  -26.3129   20.3209 C   0  0  0  0  0  0  0  0  0  0  0  0
  -29.6201  -27.1619   19.6626 C   0  0  0  0  0  0  0  0  0  1  0  0
  -21.5365  -27.6475   23.1877 C   0  0  1  0  0  0  0  0  0  0  0  0
  -19.5450  -25.2617   21.0171 C   0  0  2  0  0  0  0  0  0  0  0  0
  -21.2094  -27.8086   24.6991 C   0  0  0  0  0  0  0  0  0  0  0  0
  -28.8339  -14.8611   20.6176 N   0  0  0  0  0  0  0  0  0  0  0  0
  -29.5235  -15.7470   21.3563 N   0  0  0  0  0  0  0  0  0  0  0  0
  -31.7569  -20.3655   19.8333 N   0  0  0  0  0  0  0  0  0  0  0  0
  -23.0013  -29.1800   21.9111 N   0  0  0  0  0  0  0  0  0  0  0  0
  -31.9693  -18.0169   19.4764 N   0  0  0  0  0  0  0  0  0  0  0  0
  -29.4657  -16.9631   23.3882 N   0  0  0  0  0  0  0  0  0  0  0  0
  -25.6114  -14.6107   23.4717 N   0  0  0  0  0  0  0  0  0  0  0  0
  -30.5561  -24.9426   19.9278 N   0  0  0  0  0  0  0  0  0  0  0  0
  -24.4196  -32.5268   22.2006 N   0  0  0  0  0  0  0  0  0  0  0  0
  -20.5074  -26.9496   22.4247 N   0  0  0  0  0  0  0  0  0  0  0  0
  -19.9226  -24.6114   19.7305 N   0  3  0  0  0  0  0  0  0  0  0  0
  -26.8880  -16.1342   24.6152 O   0  0  0  0  0  0  0  0  0  0  0  0
  -24.3451  -30.6225   23.5387 O   0  0  0  0  0  0  0  0  0  0  0  0
  -20.8254  -29.7964   22.4785 O   0  0  0  0  0  0  0  0  0  0  0  0
  -21.8750  -25.2421   21.6557 O   0  0  0  0  0  0  0  0  0  0  0  0
  -33.8095  -19.3129   19.9270 O   0  0  0  0  0  0  0  0  0  0  0  0
  -23.8245  -11.0766   19.5535 O   0  0  0  0  0  0  0  0  0  0  0  0
  -28.3371  -26.6858   20.0489 O   0  0  0  0  0  0  0  0  0  1  0  0
  -21.7978   -7.4544   23.1833 F   0  0  0  0  0  0  0  0  0  0  0  0
  -24.0549   -8.3558   19.1215 F   0  0  0  0  0  0  0  0  0  0  0  0
  1  2  1  0  0  0  0
  1  6  2  0  0  0  0
  2  7  2  0  0  0  0
  3  9  1  0  0  0  0
  3 10  2  0  0  0  0
  4 11  2  0  0  0  0
  4 18  1  0  0  0  0
  5 12  1  0  0  0  0
  5 18  2  0  0  0  0
  6 20  1  0  0  0  0
  7 22  1  0  0  0  0
  8 13  2  0  0  0  0
  8 21  1  0  0  0  0
  9 25  2  0  0  0  0
 10 26  1  0  0  0  0
 11 27  1  0  0  0  0
 12 27  2  0  0  0  0
 13 28  1  0  0  0  0
 14 15  2  0  0  0  0
 14 29  1  0  0  0  0
 15 30  1  0  0  0  0
 16 23  1  0  0  0  0
 16 28  2  0  0  0  0
 17 30  2  0  0  0  0
 17 31  1  0  0  0  0
 18 32  1  0  0  0  0
 19 32  1  0  0  0  0
 19 33  2  0  0  0  0
 19 34  1  0  0  0  0
 20 22  2  0  0  0  0
 20 39  1  0  0  0  0
 21 23  2  0  0  0  0
 21 40  1  0  0  0  0
 22 50  1  0  0  0  0
 23 42  1  0  0  0  0
 24 25  1  0  0  0  0
 24 26  2  0  0  0  0
 24 41  1  0  0  0  0
 25 65  1  0  0  0  0
 26 70  1  0  0  0  0
 27 79  1  0  0  0  0
 28 80  1  0  0  0  0
 29 31  2  0  0  0  0
 29 79  1  0  0  0  0
 30 81  1  0  0  0  0
 31 82  1  0  0  0  0
 32 63  2  0  0  0  0
 33 64  1  0  0  0  0
 33 68  1  0  0  0  0
 34 69  1  0  0  0  0
 34 74  2  0  0  0  0
 35 51  1  0  0  0  0
 35 71  1  0  0  0  0
 35 75  2  0  0  0  0
 36 60  1  0  0  0  0
 36 66  1  0  0  0  0
 36 76  2  0  0  0  0
 37 61  1  0  0  0  0
 37 72  1  0  0  0  0
 37 77  2  0  0  0  0
 38 65  1  0  0  0  0
 38 67  1  0  0  0  0
 38 78  2  0  0  0  0
 39 43  1  0  0  0  0
 40 51  1  0  0  0  0
 41 47  1  0  0  0  0
 42 66  1  0  0  0  0
 43 45  1  0  0  0  0
 44 46  1  0  0  0  0
 44 48  1  0  0  0  0
 45 50  1  0  0  0  0
 46 52  1  0  0  0  0
 47 65  1  0  0  0  0
 48 67  1  0  0  0  0
 49 52  1  0  0  0  0
 49 67  1  0  0  0  0
 50 71  1  0  0  0  0
 51 66  1  0  0  0  0
 52 64  1  0  0  0  0
 53 61  1  0  0  0  0
 54 62  1  0  0  0  0
 55 62  1  0  0  0  0
 56 62  1  0  0  0  0
 57 73  1  0  0  0  0
 58 59  1  0  0  0  0
 58 70  1  0  0  0  0
 59 80  1  0  0  0  0
 60 62  1  0  0  0  0
 60 72  1  0  0  0  0
 61 73  1  0  0  0  0
 63 64  1  0  0  0  0
M  CHG  1  73   1
M  ISO  4  38 100  59 101  65 100  80 101
M  END
> <Batch ID>
0024

> <Smiles>
CNC(C)C(=O)NC(C(=O)N1Cc2cc([101O:1][101CH2:1]CNc3cccc4c3CC[100N:0]4[100C:0](=O)N3CCCC(n4nc(-c5ccc(Oc6ccc(F)cc6F)cc5)c(C(N)=O)c4N)C3)ccc2CC1C(=O)NC1CCCc2ccccc21)C(C)(C)C

> <Shape>
0.273

> <Color>
0.076

> <Negative vol penalty>
0.000

$$$$

  -OEChem-04042321203D

 89 98  0     1  0  0  0  0  0999 V2000
  -27.8870  -34.0575   24.4471 C   0  0  0  0  0  0  0  0  0  0  0  0
  -28.0415  -32.7312   24.0569 C   0  0  0  0  0  0  0  0  0  0  0  0
  -23.3034  -23.5779   22.3859 C   0  0  0  0  0  0  0  0  0  0  0  0
  -23.8378  -23.4474   23.6676 C   0  0  0  0  0  0  0  0  0  0  0  0
  -26.8660  -13.2476   20.3277 C   0  0  0  0  0  0  0  0  0  0  0  0
  -28.1207  -12.7777   22.3381 C   0  0  0  0  0  0  0  0  0  0  0  0
  -26.6341  -34.5257   24.8409 C   0  0  0  0  0  0  0  0  0  0  0  0
  -26.9433  -31.8719   24.0613 C   0  0  0  0  0  0  0  0  0  0  0  0
  -26.6793  -29.0352   19.8746 C   0  0  0  0  0  0  0  0  0  0  0  0
  -23.7278  -22.7292   21.3635 C   0  0  0  0  0  0  0  0  0  0  0  0
  -24.7967  -22.4683   23.9271 C   0  0  0  0  0  0  0  0  0  0  0  0
  -26.2364  -12.0073   20.4307 C   0  0  0  0  0  0  0  0  0  0  0  0
  -27.4910  -11.5374   22.4412 C   0  0  0  0  0  0  0  0  0  0  0  0
  -27.5312  -27.9343   19.7966 C   0  0  0  0  0  0  0  0  0  0  0  0
  -23.7177  -10.6333   22.2199 C   0  0  0  0  0  0  0  0  0  0  0  0
  -22.3375  -10.5886   22.0231 C   0  0  0  0  0  0  0  0  0  0  0  0
  -25.7125  -26.4885   20.4453 C   0  0  0  0  0  0  0  0  0  0  0  0
  -22.6509   -9.0712   20.1694 C   0  0  0  0  0  0  0  0  0  0  0  0
  -27.8082  -13.6329   21.2814 C   0  0  0  0  0  0  0  0  0  0  0  0
  -29.2575  -15.3761   20.1116 C   0  0  0  0  0  0  0  0  0  0  0  0
  -25.5181  -33.6742   24.8409 C   0  0  0  0  0  0  0  0  0  0  0  0
  -25.3380  -28.8720   20.2497 C   0  0  0  0  0  0  0  0  0  0  0  0
  -25.6746  -32.3288   24.4567 C   0  0  0  0  0  0  0  0  0  0  0  0
  -24.8449  -27.5885   20.5248 C   0  0  0  0  0  0  0  0  0  0  0  0
  -24.6868  -21.7501   21.6229 C   0  0  0  0  0  0  0  0  0  0  0  0
  -25.2213  -21.6196   22.9047 C   0  0  0  0  0  0  0  0  0  0  0  0
  -26.5488  -11.1521   21.4875 C   0  0  0  0  0  0  0  0  0  0  0  0
  -27.0486  -26.6611   20.0848 C   0  0  0  0  0  0  0  0  0  0  0  0
  -24.5645   -9.8970   21.3913 C   0  0  0  0  0  0  0  0  0  0  0  0
  -21.8041   -9.8076   20.9979 C   0  0  0  0  0  0  0  0  0  0  0  0
  -24.0311   -9.1160   20.3661 C   0  0  0  0  0  0  0  0  0  0  0  0
  -28.4594  -14.9138   21.1752 C   0  0  0  0  0  0  0  0  0  0  0  0
  -29.6349  -16.6413   20.4904 C   0  0  0  0  0  0  0  0  0  0  0  0
  -29.6248  -14.7207   18.8905 C   0  0  0  0  0  0  0  0  0  0  0  0
  -23.5407  -29.9067   22.6586 C   0  0  0  0  0  0  0  0  0  0  0  0
  -21.1560  -28.4931   20.9743 C   0  0  0  0  0  0  0  0  0  0  0  0
  -28.2987  -23.4834   18.9204 C   0  0  0  0  0  0  0  0  0  0  0  0
  -20.7014  -25.4366   19.1118 C   0  0  0  0  0  0  0  0  0  0  0  0
  -27.2129  -20.7017   24.1445 C   0  0  0  0  0  0  0  0  0  0  0  0
  -24.1936  -34.2135   25.3200 C   0  0  0  0  0  0  0  0  0  0  0  0
  -24.4252  -30.0663   20.3032 C   0  0  0  0  0  0  0  0  0  0  0  0
  -23.4080  -27.3573   20.9124 C   0  0  0  0  0  0  0  0  0  0  0  0
  -23.0045  -33.3355   24.9384 C   0  0  0  0  0  0  0  0  0  0  0  0
  -26.0590  -18.5758   19.2066 C   0  0  0  0  0  0  0  0  0  0  0  0
  -24.6685  -18.6211   19.8331 C   0  0  0  0  0  0  0  0  0  0  0  0
  -30.4718  -19.2891   24.3920 C   0  0  0  0  0  0  0  0  0  0  0  0
  -23.3038  -31.8707   25.2410 C   0  0  0  0  0  0  0  0  0  0  0  0
  -30.4001  -18.0523   23.4936 C   0  0  0  0  0  0  0  0  0  0  0  0
  -27.0127  -19.5163   19.9408 C   0  0  0  0  0  0  0  0  0  0  0  0
  -24.1373  -20.0498   19.8889 C   0  0  0  0  0  0  0  0  0  0  0  0
  -29.1609  -19.5233   25.1405 C   0  0  0  0  0  0  0  0  0  0  0  0
  -27.8908  -18.3365   23.3947 C   0  0  0  0  0  0  0  0  0  0  0  0
  -24.5023  -31.3723   24.4245 C   0  0  1  0  0  0  0  0  0  0  0  0
  -23.2068  -29.8477   21.1948 C   0  0  1  0  0  0  0  0  0  0  0  0
  -29.1665  -18.0969   22.5707 C   0  0  2  0  0  0  0  0  0  0  0  0
  -26.4739  -20.9533   20.0665 C   0  0  1  0  0  0  0  0  0  0  0  0
  -19.1633  -24.9032   17.2020 C   0  0  0  0  0  0  0  0  0  0  0  0
  -19.2755  -27.4770   23.1517 C   0  0  0  0  0  0  0  0  0  0  0  0
  -18.6273  -25.6048   21.6211 C   0  0  0  0  0  0  0  0  0  0  0  0
  -18.1691  -27.9670   20.9631 C   0  0  0  0  0  0  0  0  0  0  0  0
  -28.7651  -21.3185   17.7594 C   0  0  0  0  0  0  0  0  0  0  0  0
  -22.9454  -24.5405   17.4030 C   0  0  0  0  0  0  0  0  0  0  0  0
  -27.2883  -24.3330   19.6620 C   0  0  0  0  0  0  0  0  0  1  0  0
  -26.5396  -21.7119   18.7394 C   0  0  0  0  0  0  0  0  0  0  0  0
  -20.5482  -27.1117   20.9352 C   0  0  1  0  0  0  0  0  0  0  0  0
  -20.5748  -25.3008   17.6052 C   0  0  2  0  0  0  0  0  0  0  0  0
  -19.1823  -27.0442   21.6749 C   0  0  0  0  0  0  0  0  0  0  0  0
  -28.3366  -15.8121   22.1560 N   0  0  0  0  0  0  0  0  0  0  0  0
  -29.0625  -16.8515   21.7104 N   0  0  0  0  0  0  0  0  0  0  0  0
  -25.0956  -20.9140   20.5877 N   0  0  3  0  0  0  0  0  0  0  0  0
  -22.5565  -28.5575   20.9569 N   0  0  0  0  0  0  0  0  0  0  0  0
  -28.0372  -19.5580   24.2018 N   0  0  0  0  0  0  0  0  0  0  0  0
  -30.3973  -17.5833   19.8955 N   0  0  0  0  0  0  0  0  0  0  0  0
  -29.1502  -13.4221   18.6604 N   0  0  0  0  0  0  0  0  0  0  0  0
  -26.1970  -20.6330   23.1917 N   0  0  0  0  0  0  0  0  0  0  0  0
  -24.1063  -31.1023   23.0589 N   0  0  0  0  0  0  0  0  0  0  0  0
  -20.4848  -26.7333   19.5277 N   0  0  0  0  0  0  0  0  0  0  0  0
  -27.8853  -22.2222   18.4902 N   0  0  0  0  0  0  0  0  0  0  0  0
  -21.5180  -24.2647   17.0975 N   0  3  0  0  0  0  0  0  0  0  0  0
  -30.3656  -15.2639   18.0364 O   0  0  0  0  0  0  0  0  0  0  0  0
  -23.3016  -28.9397   23.3723 O   0  0  0  0  0  0  0  0  0  0  0  0
  -20.4154  -29.4788   21.0114 O   0  0  0  0  0  0  0  0  0  0  0  0
  -29.4287  -23.9411   18.7245 O   0  0  0  0  0  0  0  0  0  0  0  0
  -20.9623  -24.4866   19.8467 O   0  0  0  0  0  0  0  0  0  0  0  0
  -27.4115  -21.6816   24.8671 O   0  0  0  0  0  0  0  0  0  0  0  0
  -25.9345   -9.9418   21.5884 O   0  0  0  0  0  0  0  0  0  0  0  0
  -27.8782  -25.5849   20.0100 O   0  0  0  0  0  0  0  0  0  1  0  0
  -20.4786   -9.7635   20.8101 F   0  0  0  0  0  0  0  0  0  0  0  0
  -24.8395   -8.4055   19.5677 F   0  0  0  0  0  0  0  0  0  0  0  0
  1  2  1  0  0  0  0
  1  7  2  0  0  0  0
  2  8  2  0  0  0  0
  3  4  1  0  0  0  0
  3 10  2  0  0  0  0
  4 11  2  0  0  0  0
  5 12  2  0  0  0  0
  5 19  1  0  0  0  0
  6 13  1  0  0  0  0
  6 19  2  0  0  0  0
  7 21  1  0  0  0  0
  8 23  1  0  0  0  0
  9 14  2  0  0  0  0
  9 22  1  0  0  0  0
 10 25  1  0  0  0  0
 11 26  1  0  0  0  0
 12 27  1  0  0  0  0
 13 27  2  0  0  0  0
 14 28  1  0  0  0  0
 15 16  2  0  0  0  0
 15 29  1  0  0  0  0
 16 30  1  0  0  0  0
 17 24  1  0  0  0  0
 17 28  2  0  0  0  0
 18 30  2  0  0  0  0
 18 31  1  0  0  0  0
 19 32  1  0  0  0  0
 20 32  1  0  0  0  0
 20 33  2  0  0  0  0
 20 34  1  0  0  0  0
 21 23  2  0  0  0  0
 21 40  1  0  0  0  0
 22 24  2  0  0  0  0
 22 41  1  0  0  0  0
 23 53  1  0  0  0  0
 24 42  1  0  0  0  0
 25 26  2  0  0  0  0
 25 70  1  0  0  0  0
 26 75  1  0  0  0  0
 27 86  1  0  0  0  0
 28 87  1  0  0  0  0
 29 31  2  0  0  0  0
 29 86  1  0  0  0  0
 30 88  1  0  0  0  0
 31 89  1  0  0  0  0
 32 68  2  0  0  0  0
 33 69  1  0  0  0  0
 33 73  1  0  0  0  0
 34 74  1  0  0  0  0
 34 80  2  0  0  0  0
 35 54  1  0  0  0  0
 35 76  1  0  0  0  0
 35 81  2  0  0  0  0
 36 65  1  0  0  0  0
 36 71  1  0  0  0  0
 36 82  2  0  0  0  0
 37 63  1  0  0  0  0
 37 78  1  0  0  0  0
 37 83  2  0  0  0  0
 38 66  1  0  0  0  0
 38 77  1  0  0  0  0
 38 84  2  0  0  0  0
 39 72  1  0  0  0  0
 39 75  1  0  0  0  0
 39 85  2  0  0  0  0
 40 43  1  0  0  0  0
 41 54  1  0  0  0  0
 42 71  1  0  0  0  0
 43 47  1  0  0  0  0
 44 45  1  0  0  0  0
 44 49  1  0  0  0  0
 45 50  1  0  0  0  0
 46 48  1  0  0  0  0
 46 51  1  0  0  0  0
 47 53  1  0  0  0  0
 48 55  1  0  0  0  0
 49 56  1  0  0  0  0
 50 70  1  0  0  0  0
 51 72  1  0  0  0  0
 52 55  1  0  0  0  0
 52 72  1  0  0  0  0
 53 76  1  0  0  0  0
 54 71  1  0  0  0  0
 55 69  1  0  0  0  0
 56 64  1  0  0  0  0
 56 70  1  0  0  0  0
 57 66  1  0  0  0  0
 58 67  1  0  0  0  0
 59 67  1  0  0  0  0
 60 67  1  0  0  0  0
 61 78  1  0  0  0  0
 62 79  1  0  0  0  0
 63 87  1  0  0  0  0
 64 78  1  0  0  0  0
 65 67  1  0  0  0  0
 65 77  1  0  0  0  0
 66 79  1  0  0  0  0
 68 69  1  0  0  0  0
M  CHG  1  79   1
M  ISO  4  39 100  63 101  75 100  87 101
M  END
> <Batch ID>
0024

> <Smiles>
CNC(C)C(=O)NC(C(=O)N1Cc2cc([101O:1][101CH2:1]C(=O)N(C)CC3CCCCN3c3ccccc3[100NH:0][100C:0](=O)N3CCCC(n4nc(-c5ccc(Oc6ccc(F)cc6F)cc5)c(C(N)=O)c4N)C3)ccc2CC1C(=O)NC1CCCc2ccccc21)C(C)(C)C

> <Shape>
0.256

> <Color>
0.078

> <Negative vol penalty>
0.000

$$$$

  -OEChem-04042321203D

 93103  0     1  0  0  0  0  0999 V2000
  -29.6110  -36.8513   24.1272 C   0  0  0  0  0  0  0  0  0  0  0  0
  -29.4252  -35.4726   24.1244 C   0  0  0  0  0  0  0  0  0  0  0  0
  -26.2416  -10.2882   23.1901 C   0  0  0  0  0  0  0  0  0  0  0  0
  -27.7088   -9.9961   21.2929 C   0  0  0  0  0  0  0  0  0  0  0  0
  -28.5507  -37.6958   24.4537 C   0  0  0  0  0  0  0  0  0  0  0  0
  -28.1792  -34.9374   24.4493 C   0  0  0  0  0  0  0  0  0  0  0  0
  -26.7624  -31.2503   21.2803 C   0  0  0  0  0  0  0  0  0  0  0  0
  -27.0082   -9.3817   23.9225 C   0  0  0  0  0  0  0  0  0  0  0  0
  -28.4754   -9.0896   22.0253 C   0  0  0  0  0  0  0  0  0  0  0  0
  -27.3413  -29.9953   21.4642 C   0  0  0  0  0  0  0  0  0  0  0  0
  -30.6104   -6.4266   23.2743 C   0  0  0  0  0  0  0  0  0  0  0  0
  -30.9976   -5.2453   22.6418 C   0  0  0  0  0  0  0  0  0  0  0  0
  -25.3579  -29.2567   22.6216 C   0  0  0  0  0  0  0  0  0  0  0  0
  -29.6049  -21.2875   21.1412 C   0  0  0  0  0  0  0  0  0  0  0  0
  -28.6765   -4.6598   22.3144 C   0  0  0  0  0  0  0  0  0  0  0  0
  -26.5919  -10.5953   21.8753 C   0  0  0  0  0  0  0  0  0  0  0  0
  -24.4348  -11.4217   20.7928 C   0  0  0  0  0  0  0  0  0  0  0  0
  -27.2885  -37.1711   24.7734 C   0  0  0  0  0  0  0  0  0  0  0  0
  -25.4791  -31.5217   21.7761 C   0  0  0  0  0  0  0  0  0  0  0  0
  -27.1014  -35.7756   24.7817 C   0  0  0  0  0  0  0  0  0  0  0  0
  -24.7639  -30.5151   22.4405 C   0  0  0  0  0  0  0  0  0  0  0  0
  -28.0986  -22.6352   19.8178 C   0  0  0  0  0  0  0  0  0  0  0  0
  -27.4048  -21.4864   19.4375 C   0  0  0  0  0  0  0  0  0  0  0  0
  -29.1986  -22.5358   20.6697 C   0  0  0  0  0  0  0  0  0  0  0  0
  -27.8111  -20.2381   19.9090 C   0  0  0  0  0  0  0  0  0  0  0  0
  -28.1250   -8.7825   23.3401 C   0  0  0  0  0  0  0  0  0  0  0  0
  -26.6402  -28.9992   22.1374 C   0  0  0  0  0  0  0  0  0  0  0  0
  -29.2562   -6.7245   23.4270 C   0  0  0  0  0  0  0  0  0  0  0  0
  -30.0307   -4.3619   22.1618 C   0  0  0  0  0  0  0  0  0  0  0  0
  -28.2893   -5.8412   22.9470 C   0  0  0  0  0  0  0  0  0  0  0  0
  -28.9112  -20.1387   20.7609 C   0  0  0  0  0  0  0  0  0  0  0  0
  -25.8001  -11.5311   21.1180 C   0  0  0  0  0  0  0  0  0  0  0  0
  -24.1621  -12.5570   20.0695 C   0  0  0  0  0  0  0  0  0  0  0  0
  -30.5904  -24.6057   20.2288 C   0  0  0  0  0  0  0  0  0  0  0  0
  -27.4227  -26.0051   20.7252 C   0  0  0  0  0  0  0  0  0  0  0  0
  -23.4970  -10.3864   21.1157 C   0  0  0  0  0  0  0  0  0  0  0  0
  -24.2801  -33.5576   23.9025 C   0  0  0  0  0  0  0  0  0  0  0  0
  -21.4466  -32.3719   22.8595 C   0  0  0  0  0  0  0  0  0  0  0  0
  -20.1063  -29.1377   21.9874 C   0  0  0  0  0  0  0  0  0  0  0  0
  -26.9289  -17.8930   20.2358 C   0  0  0  0  0  0  0  0  0  0  0  0
  -26.1853  -38.1217   25.1658 C   0  0  0  0  0  0  0  0  0  0  0  0
  -24.8580  -32.8722   21.5461 C   0  0  0  0  0  0  0  0  0  0  0  0
  -23.3752  -30.7494   22.9743 C   0  0  0  0  0  0  0  0  0  0  0  0
  -31.2902  -25.6097   21.1166 C   0  0  0  0  0  0  0  0  0  0  0  0
  -24.7963  -37.4895   25.1334 C   0  0  0  0  0  0  0  0  0  0  0  0
  -30.5464  -25.4927   22.4319 C   0  0  0  0  0  0  0  0  0  0  0  0
  -25.5143  -24.4034   22.3107 C   0  0  0  0  0  0  0  0  0  0  0  0
  -26.9989  -15.3733   17.3427 C   0  0  0  0  0  0  0  0  0  0  0  0
  -24.8128  -36.1288   25.8226 C   0  0  0  0  0  0  0  0  0  0  0  0
  -26.1852  -25.6612   22.8595 C   0  0  0  0  0  0  0  0  0  0  0  0
  -25.9294  -14.3984   17.8296 C   0  0  0  0  0  0  0  0  0  0  0  0
  -30.1219  -24.0395   22.4674 C   0  0  0  0  0  0  0  0  0  0  0  0
  -25.6798  -24.2440   20.8020 C   0  0  0  0  0  0  0  0  0  0  0  0
  -26.8381  -16.7595   17.9538 C   0  0  0  0  0  0  0  0  0  0  0  0
  -26.6233  -15.4308   20.0619 C   0  0  0  0  0  0  0  0  0  0  0  0
  -25.7580  -35.1581   25.1044 C   0  0  1  0  0  0  0  0  0  0  0  0
  -26.5226  -26.6629   21.7625 C   0  0  1  0  0  0  0  0  0  1  0  0
  -23.7502  -33.1980   22.5432 C   0  0  1  0  0  0  0  0  0  0  0  0
  -25.5799  -14.5810   19.3199 C   0  0  2  0  0  0  0  0  0  0  0  0
  -26.2271  -21.5994   18.5196 C   0  0  0  0  0  0  0  0  0  0  0  0
  -18.2505  -28.5095   20.4193 C   0  0  0  0  0  0  0  0  0  0  0  0
  -19.6979  -32.4521   25.3587 C   0  0  0  0  0  0  0  0  0  0  0  0
  -18.4674  -30.4579   24.4769 C   0  0  0  0  0  0  0  0  0  0  0  0
  -18.4418  -32.6015   23.2013 C   0  0  0  0  0  0  0  0  0  0  0  0
  -21.8601  -27.3073   20.4601 C   0  0  0  0  0  0  0  0  0  0  0  0
  -27.6597  -23.9779   19.3091 C   0  0  0  0  0  0  0  0  0  0  0  0
  -20.5578  -31.2191   23.2595 C   0  0  1  0  0  0  0  0  0  0  0  0
  -19.7550  -28.6448   20.5952 C   0  0  2  0  0  0  0  0  0  0  0  0
  -19.3194  -31.6817   24.0779 C   0  0  0  0  0  0  0  0  0  0  0  0
  -26.3561  -12.6477   20.6404 N   0  0  0  0  0  0  0  0  0  0  0  0
  -25.3350  -13.2503   20.0076 N   0  0  0  0  0  0  0  0  0  0  0  0
  -29.9207  -23.6980   21.0725 N   0  0  0  0  0  0  0  0  0  0  0  0
  -26.9651  -24.7454   20.3291 N   0  0  0  0  0  0  0  0  0  0  0  0
  -22.8135  -32.0881   22.7299 N   0  0  0  0  0  0  0  0  0  0  0  0
  -26.7925  -16.7410   19.4231 N   0  0  0  0  0  0  0  0  0  0  0  0
  -23.0358  -13.0199   19.4867 N   0  0  0  0  0  0  0  0  0  0  0  0
  -23.3550   -9.3124   20.2265 N   0  0  0  0  0  0  0  0  0  0  0  0
  -27.0997  -19.0775   19.5143 N   0  0  0  0  0  0  0  0  0  0  0  0
  -25.1361  -34.6423   23.9038 N   0  0  0  0  0  0  0  0  0  0  0  0
  -20.2290  -30.5105   22.0274 N   0  0  0  0  0  0  0  0  0  0  0  0
  -20.3791  -27.3151   20.3437 N   0  3  0  0  0  0  0  0  0  0  0  0
  -30.6936  -24.6205   19.0109 O   0  0  0  0  0  0  0  0  0  0  0  0
  -28.4329  -26.5576   20.2936 O   0  0  0  0  0  0  0  0  0  0  0  0
  -22.7934  -10.4212   22.1537 O   0  0  0  0  0  0  0  0  0  0  0  0
  -23.9365  -32.9004   24.8781 O   0  0  0  0  0  0  0  0  0  0  0  0
  -20.9454  -33.4817   22.6621 O   0  0  0  0  0  0  0  0  0  0  0  0
  -20.2531  -28.3808   22.9446 O   0  0  0  0  0  0  0  0  0  0  0  0
  -26.8837  -17.8271   21.4660 O   0  0  0  0  0  0  0  0  0  0  0  0
  -28.8734   -7.8981   24.0545 O   0  0  0  0  0  0  0  0  0  0  0  0
  -27.2031  -27.7736   22.3188 O   0  0  0  0  0  0  0  0  0  1  0  0
  -30.4027   -3.2283   21.5530 F   0  0  0  0  0  0  0  0  0  0  0  0
  -26.9869   -6.1225   23.0897 F   0  0  0  0  0  0  0  0  0  0  0  0
  -29.4549  -18.6136   21.3655 Cl  0  0  0  0  0  0  0  0  0  0  0  0
  1  2  1  0  0  0  0
  1  5  2  0  0  0  0
  2  6  2  0  0  0  0
  3  8  2  0  0  0  0
  3 16  1  0  0  0  0
  4  9  1  0  0  0  0
  4 16  2  0  0  0  0
  5 18  1  0  0  0  0
  6 20  1  0  0  0  0
  7 10  2  0  0  0  0
  7 19  1  0  0  0  0
  8 26  1  0  0  0  0
  9 26  2  0  0  0  0
 10 27  1  0  0  0  0
 11 12  2  0  0  0  0
 11 28  1  0  0  0  0
 12 29  1  0  0  0  0
 13 21  1  0  0  0  0
 13 27  2  0  0  0  0
 14 24  2  0  0  0  0
 14 31  1  0  0  0  0
 15 29  2  0  0  0  0
 15 30  1  0  0  0  0
 16 32  1  0  0  0  0
 17 32  1  0  0  0  0
 17 33  2  0  0  0  0
 17 36  1  0  0  0  0
 18 20  2  0  0  0  0
 18 41  1  0  0  0  0
 19 21  2  0  0  0  0
 19 42  1  0  0  0  0
 20 56  1  0  0  0  0
 21 43  1  0  0  0  0
 22 23  2  0  0  0  0
 22 24  1  0  0  0  0
 22 66  1  0  0  0  0
 23 25  1  0  0  0  0
 23 60  1  0  0  0  0
 24 72  1  0  0  0  0
 25 31  2  0  0  0  0
 25 78  1  0  0  0  0
 26 89  1  0  0  0  0
 27 90  1  0  0  0  0
 28 30  2  0  0  0  0
 28 89  1  0  0  0  0
 29 91  1  0  0  0  0
 30 92  1  0  0  0  0
 31 93  1  0  0  0  0
 32 70  2  0  0  0  0
 33 71  1  0  0  0  0
 33 76  1  0  0  0  0
 34 44  1  0  0  0  0
 34 72  1  0  0  0  0
 34 82  2  0  0  0  0
 35 57  1  0  0  0  0
 35 73  1  0  0  0  0
 35 83  2  0  0  0  0
 36 77  1  0  0  0  0
 36 84  2  0  0  0  0
 37 58  1  0  0  0  0
 37 79  1  0  0  0  0
 37 85  2  0  0  0  0
 38 67  1  0  0  0  0
 38 74  1  0  0  0  0
 38 86  2  0  0  0  0
 39 68  1  0  0  0  0
 39 80  1  0  0  0  0
 39 87  2  0  0  0  0
 40 75  1  0  0  0  0
 40 78  1  0  0  0  0
 40 88  2  0  0  0  0
 41 45  1  0  0  0  0
 42 58  1  0  0  0  0
 43 74  1  0  0  0  0
 44 46  1  0  0  0  0
 45 49  1  0  0  0  0
 46 52  1  0  0  0  0
 47 50  1  0  0  0  0
 47 53  1  0  0  0  0
 48 51  1  0  0  0  0
 48 54  1  0  0  0  0
 49 56  1  0  0  0  0
 50 57  1  0  0  0  0
 51 59  1  0  0  0  0
 52 72  1  0  0  0  0
 53 73  1  0  0  0  0
 54 75  1  0  0  0  0
 55 59  1  0  0  0  0
 55 75  1  0  0  0  0
 56 79  1  0  0  0  0
 57 90  1  0  0  0  0
 58 74  1  0  0  0  0
 59 71  1  0  0  0  0
 61 68  1  0  0  0  0
 62 69  1  0  0  0  0
 63 69  1  0  0  0  0
 64 69  1  0  0  0  0
 65 81  1  0  0  0  0
 66 73  1  0  0  0  0
 67 69  1  0  0  0  0
 67 80  1  0  0  0  0
 68 81  1  0  0  0  0
 70 71  1  0  0  0  0
M  CHG  1  81   1
M  ISO  4  40 100  57 101  78 100  90 101
M  END
> <Batch ID>
0024

> <Smiles>
CNC(C)C(=O)NC(C(=O)N1Cc2cc([101O:1][101CH:1]3CCCN(Cc4c(N5CCCC5=O)cc(Cl)c([100NH:0][100C:0](=O)N5CCCC(n6nc(-c7ccc(Oc8ccc(F)cc8F)cc7)c(C(N)=O)c6N)C5)c4C)C3=O)ccc2CC1C(=O)NC1CCCc2ccccc21)C(C)(C)C

> <Shape>
0.250

> <Color>
0.060

> <Negative vol penalty>
0.000

$$$$

  -OEChem-04042321203D

 86 96  0     1  0  0  0  0  0999 V2000
  -25.8327  -33.1385   26.2249 C   0  0  0  0  0  0  0  0  0  0  0  0
  -24.8147  -32.3865   25.6475 C   0  0  0  0  0  0  0  0  0  0  0  0
  -22.6632  -10.3025   20.2271 C   0  0  0  0  0  0  0  0  0  0  0  0
  -24.3380   -9.5423   21.7937 C   0  0  0  0  0  0  0  0  0  0  0  0
  -26.8846  -33.6060   25.4381 C   0  0  0  0  0  0  0  0  0  0  0  0
  -24.8474  -32.1023   24.2827 C   0  0  0  0  0  0  0  0  0  0  0  0
  -24.8812  -25.3005   21.9108 C   0  0  0  0  0  0  0  0  0  0  0  0
  -28.4752  -17.2729   18.6478 C   0  0  0  0  0  0  0  0  0  0  0  0
  -29.3102  -16.3953   19.3426 C   0  0  0  0  0  0  0  0  0  0  0  0
  -21.9243   -9.1413   20.4535 C   0  0  0  0  0  0  0  0  0  0  0  0
  -23.5991   -8.3811   22.0202 C   0  0  0  0  0  0  0  0  0  0  0  0
  -24.6770  -24.0294   21.3735 C   0  0  0  0  0  0  0  0  0  0  0  0
  -20.8759   -7.4716   23.8027 C   0  0  0  0  0  0  0  0  0  0  0  0
  -20.7113   -7.0574   25.1244 C   0  0  0  0  0  0  0  0  0  0  0  0
  -28.1808  -18.5754   20.6489 C   0  0  0  0  0  0  0  0  0  0  0  0
  -24.8647  -24.9326   19.1381 C   0  0  0  0  0  0  0  0  0  0  0  0
  -21.8111   -4.9694   24.6071 C   0  0  0  0  0  0  0  0  0  0  0  0
  -23.8701  -10.5030   20.8971 C   0  0  0  0  0  0  0  0  0  0  0  0
  -24.2213  -13.0296   20.8839 C   0  0  0  0  0  0  0  0  0  0  0  0
  -26.9352  -33.3193   24.0649 C   0  0  0  0  0  0  0  0  0  0  0  0
  -25.0935  -26.3912   21.0631 C   0  0  0  0  0  0  0  0  0  0  0  0
  -25.9003  -32.5675   23.4766 C   0  0  0  0  0  0  0  0  0  0  0  0
  -29.0119  -17.6957   21.3626 C   0  0  0  0  0  0  0  0  0  0  0  0
  -25.0822  -26.2060   19.6708 C   0  0  0  0  0  0  0  0  0  0  0  0
  -27.9053  -18.3586   19.3016 C   0  0  0  0  0  0  0  0  0  0  0  0
  -29.5735  -16.5775   20.7103 C   0  0  0  0  0  0  0  0  0  0  0  0
  -22.3922   -8.1806   21.3501 C   0  0  0  0  0  0  0  0  0  0  0  0
  -24.6685  -23.8460   19.9905 C   0  0  0  0  0  0  0  0  0  0  0  0
  -21.5080   -6.6346   22.8831 C   0  0  0  0  0  0  0  0  0  0  0  0
  -21.1789   -5.8063   25.5266 C   0  0  0  0  0  0  0  0  0  0  0  0
  -21.9756   -5.3835   23.2853 C   0  0  0  0  0  0  0  0  0  0  0  0
  -24.6342  -11.7020   20.6632 C   0  0  0  0  0  0  0  0  0  0  0  0
  -25.3009  -13.7917   20.5091 C   0  0  0  0  0  0  0  0  0  0  0  0
  -22.9737  -13.5294   21.3831 C   0  0  0  0  0  0  0  0  0  0  0  0
  -25.7669  -30.0694   20.7573 C   0  0  0  0  0  0  0  0  0  0  0  0
  -27.4846  -28.6696   18.6358 C   0  0  0  0  0  0  0  0  0  0  0  0
  -29.9060  -27.7696   16.4078 C   0  0  0  0  0  0  0  0  0  0  0  0
  -30.9285  -14.4721   20.9268 C   0  0  0  0  0  0  0  0  0  0  0  0
  -28.0679  -33.8862   23.2462 C   0  0  0  0  0  0  0  0  0  0  0  0
  -25.2563  -27.7886   21.5965 C   0  0  0  0  0  0  0  0  0  0  0  0
  -29.3212  -18.0204   22.8025 C   0  0  0  0  0  0  0  0  0  0  0  0
  -25.2804  -27.4142   18.7967 C   0  0  0  0  0  0  0  0  0  0  0  0
  -28.2224  -33.2243   21.8793 C   0  0  0  0  0  0  0  0  0  0  0  0
  -29.9315  -16.8421   23.5462 C   0  0  0  0  0  0  0  0  0  0  0  0
  -29.5413  -12.5811   18.0593 C   0  0  0  0  0  0  0  0  0  0  0  0
  -26.8672  -33.0999   21.1903 C   0  0  0  0  0  0  0  0  0  0  0  0
  -28.1374  -12.2203   18.5407 C   0  0  0  0  0  0  0  0  0  0  0  0
  -26.0788  -20.4165   16.8483 C   0  0  0  0  0  0  0  0  0  0  0  0
  -30.9977  -16.1803   22.6908 C   0  0  0  0  0  0  0  0  0  0  0  0
  -30.5174  -12.7292   19.2222 C   0  0  0  0  0  0  0  0  0  0  0  0
  -26.7503  -19.0905   17.1992 C   0  0  0  0  0  0  0  0  0  0  0  0
  -26.4461  -20.3980   19.2129 C   0  0  0  0  0  0  0  0  0  0  0  0
  -28.6578  -13.3526   20.7389 C   0  0  0  0  0  0  0  0  0  0  0  0
  -25.9133  -32.2174   22.0044 C   0  0  1  0  0  0  0  0  0  0  0  0
  -26.2304  -28.6423   20.7649 C   0  0  1  0  0  0  0  0  0  0  0  0
  -25.4195  -20.8314   18.1604 C   0  0  1  0  0  0  0  0  0  0  0  0
  -27.6472  -13.2332   19.5881 C   0  0  2  0  0  0  0  0  0  0  0  0
  -31.1728  -28.6315   14.4205 C   0  0  0  0  0  0  0  0  0  0  0  0
  -25.0368  -28.2015   16.8771 C   0  0  0  0  0  0  0  0  0  0  0  0
  -26.5622  -28.1405   14.8928 C   0  0  0  0  0  0  0  0  0  0  0  0
  -26.3899  -30.2146   16.2679 C   0  0  0  0  0  0  0  0  0  0  0  0
  -32.4992  -27.5402   17.8154 C   0  0  0  0  0  0  0  0  0  0  0  0
  -25.0860  -22.3117   18.2213 C   0  0  0  0  0  0  0  0  0  1  0  0
  -27.5975  -28.2017   17.2070 C   0  0  1  0  0  0  0  0  0  0  0  0
  -31.1567  -28.4878   15.9344 C   0  0  2  0  0  0  0  0  0  0  0  0
  -26.4005  -28.6718   16.3330 C   0  0  0  0  0  0  0  0  0  0  0  0
  -25.8787  -11.6217   20.1851 N   0  0  0  0  0  0  0  0  0  0  0  0
  -26.2573  -12.9085   20.1022 N   0  0  0  0  0  0  0  0  0  0  0  0
  -30.4279  -15.6794   21.4397 N   0  0  0  0  0  0  0  0  0  0  0  0
  -27.0831  -19.2266   18.6149 N   0  0  3  0  0  0  0  0  0  0  0  0
  -26.3493  -28.2624   19.3469 N   0  0  0  0  0  0  0  0  0  0  0  0
  -30.0124  -13.6477   20.2437 N   0  0  0  0  0  0  0  0  0  0  0  0
  -25.5157  -15.1243   20.4911 N   0  0  0  0  0  0  0  0  0  0  0  0
  -21.9722  -12.6088   21.7208 N   0  0  0  0  0  0  0  0  0  0  0  0
  -26.2363  -30.8190   21.8190 N   0  0  0  0  0  0  0  0  0  0  0  0
  -28.8997  -28.6553   16.7306 N   0  0  0  0  0  0  0  0  0  0  0  0
  -32.3744  -27.7347   16.3479 N   0  3  0  0  0  0  0  0  0  0  0  0
  -22.7475  -14.7567   21.5101 O   0  0  0  0  0  0  0  0  0  0  0  0
  -25.0382  -30.4632   19.8543 O   0  0  0  0  0  0  0  0  0  0  0  0
  -28.3745  -29.3817   19.1094 O   0  0  0  0  0  0  0  0  0  0  0  0
  -29.8281  -26.5451   16.4803 O   0  0  0  0  0  0  0  0  0  0  0  0
  -32.0993  -14.1273   21.1291 O   0  0  0  0  0  0  0  0  0  0  0  0
  -21.6713   -7.0476   21.5714 O   0  0  0  0  0  0  0  0  0  0  0  0
  -24.4715  -22.5913   19.4684 O   0  0  0  0  0  0  0  0  0  1  0  0
  -21.0222   -5.4094   26.7963 F   0  0  0  0  0  0  0  0  0  0  0  0
  -22.5848   -4.5756   22.4067 F   0  0  0  0  0  0  0  0  0  0  0  0
  1  2  1  0  0  0  0
  1  5  2  0  0  0  0
  2  6  2  0  0  0  0
  3 10  2  0  0  0  0
  3 18  1  0  0  0  0
  4 11  1  0  0  0  0
  4 18  2  0  0  0  0
  5 20  1  0  0  0  0
  6 22  1  0  0  0  0
  7 12  2  0  0  0  0
  7 21  1  0  0  0  0
  8  9  2  0  0  0  0
  8 25  1  0  0  0  0
  9 26  1  0  0  0  0
 10 27  1  0  0  0  0
 11 27  2  0  0  0  0
 12 28  1  0  0  0  0
 13 14  2  0  0  0  0
 13 29  1  0  0  0  0
 14 30  1  0  0  0  0
 15 23  1  0  0  0  0
 15 25  2  0  0  0  0
 16 24  1  0  0  0  0
 16 28  2  0  0  0  0
 17 30  2  0  0  0  0
 17 31  1  0  0  0  0
 18 32  1  0  0  0  0
 19 32  1  0  0  0  0
 19 33  2  0  0  0  0
 19 34  1  0  0  0  0
 20 22  2  0  0  0  0
 20 39  1  0  0  0  0
 21 24  2  0  0  0  0
 21 40  1  0  0  0  0
 22 54  1  0  0  0  0
 23 26  2  0  0  0  0
 23 41  1  0  0  0  0
 24 42  1  0  0  0  0
 25 70  1  0  0  0  0
 26 69  1  0  0  0  0
 27 83  1  0  0  0  0
 28 84  1  0  0  0  0
 29 31  2  0  0  0  0
 29 83  1  0  0  0  0
 30 85  1  0  0  0  0
 31 86  1  0  0  0  0
 32 67  2  0  0  0  0
 33 68  1  0  0  0  0
 33 73  1  0  0  0  0
 34 74  1  0  0  0  0
 34 78  2  0  0  0  0
 35 55  1  0  0  0  0
 35 75  1  0  0  0  0
 35 79  2  0  0  0  0
 36 64  1  0  0  0  0
 36 71  1  0  0  0  0
 36 80  2  0  0  0  0
 37 65  1  0  0  0  0
 37 76  1  0  0  0  0
 37 81  2  0  0  0  0
 38 69  1  0  0  0  0
 38 72  1  0  0  0  0
 38 82  2  0  0  0  0
 39 43  1  0  0  0  0
 40 55  1  0  0  0  0
 41 44  1  0  0  0  0
 42 71  1  0  0  0  0
 43 46  1  0  0  0  0
 44 49  1  0  0  0  0
 45 47  1  0  0  0  0
 45 50  1  0  0  0  0
 46 54  1  0  0  0  0
 47 57  1  0  0  0  0
 48 51  1  0  0  0  0
 48 56  1  0  0  0  0
 49 69  1  0  0  0  0
 50 72  1  0  0  0  0
 51 70  1  0  0  0  0
 52 56  1  0  0  0  0
 52 70  1  0  0  0  0
 53 57  1  0  0  0  0
 53 72  1  0  0  0  0
 54 75  1  0  0  0  0
 55 71  1  0  0  0  0
 56 63  1  0  0  0  0
 57 68  1  0  0  0  0
 58 65  1  0  0  0  0
 59 66  1  0  0  0  0
 60 66  1  0  0  0  0
 61 66  1  0  0  0  0
 62 77  1  0  0  0  0
 63 84  1  0  0  0  0
 64 66  1  0  0  0  0
 64 76  1  0  0  0  0
 65 77  1  0  0  0  0
 67 68  1  0  0  0  0
M  CHG  1  77   1
M  ISO  4  38 100  63 101  69 100  84 101
M  END
> <Batch ID>
0024

> <Smiles>
CNC(C)C(=O)NC(C(=O)N1Cc2cc([101O:1][101CH2:1]C3CCN(c4ccc5c(c4)CCC[100N:0]5[100C:0](=O)N4CCCC(n5nc(-c6ccc(Oc7ccc(F)cc7F)cc6)c(C(N)=O)c5N)C4)C3)ccc2CC1C(=O)NC1CCCc2ccccc21)C(C)(C)C

> <Shape>
0.327

> <Color>
0.190

> <Negative vol penalty>
0.000

$$$$

  -OEChem-04042321203D

 86 95  0     1  0  0  0  0  0999 V2000
  -26.2787  -33.9658   25.4721 C   0  0  0  0  0  0  0  0  0  0  0  0
  -26.7919  -32.8416   24.8330 C   0  0  0  0  0  0  0  0  0  0  0  0
  -27.0990  -12.6526   21.6620 C   0  0  0  0  0  0  0  0  0  0  0  0
  -26.4982  -14.0946   19.8190 C   0  0  0  0  0  0  0  0  0  0  0  0
  -25.0011  -33.9273   26.0289 C   0  0  0  0  0  0  0  0  0  0  0  0
  -26.0280  -31.6779   24.7513 C   0  0  0  0  0  0  0  0  0  0  0  0
  -26.1517  -29.5929   20.1381 C   0  0  0  0  0  0  0  0  0  0  0  0
  -26.2932  -11.6434   21.1351 C   0  0  0  0  0  0  0  0  0  0  0  0
  -25.6924  -13.0853   19.2920 C   0  0  0  0  0  0  0  0  0  0  0  0
  -27.2894  -28.8612   19.8003 C   0  0  0  0  0  0  0  0  0  0  0  0
  -23.0011  -10.8851   21.0296 C   0  0  0  0  0  0  0  0  0  0  0  0
  -22.1644  -10.1989   21.9098 C   0  0  0  0  0  0  0  0  0  0  0  0
  -26.1106  -26.8141   20.2895 C   0  0  0  0  0  0  0  0  0  0  0  0
  -28.9581  -23.8152   20.7259 C   0  0  0  0  0  0  0  0  0  0  0  0
  -27.4109  -24.2234   23.0111 C   0  0  0  0  0  0  0  0  0  0  0  0
  -23.2725   -8.1268   21.3476 C   0  0  0  0  0  0  0  0  0  0  0  0
  -27.2015  -13.8783   21.0040 C   0  0  0  0  0  0  0  0  0  0  0  0
  -29.3967  -15.1480   21.2807 C   0  0  0  0  0  0  0  0  0  0  0  0
  -24.2174  -32.7656   25.9455 C   0  0  0  0  0  0  0  0  0  0  0  0
  -24.9864  -28.9401   20.5652 C   0  0  0  0  0  0  0  0  0  0  0  0
  -24.7392  -31.6234   25.3087 C   0  0  0  0  0  0  0  0  0  0  0  0
  -24.9587  -27.5397   20.6297 C   0  0  0  0  0  0  0  0  0  0  0  0
  -27.8470  -23.0078   20.9692 C   0  0  0  0  0  0  0  0  0  0  0  0
  -27.0734  -23.2120   22.1118 C   0  0  0  0  0  0  0  0  0  0  0  0
  -29.2957  -24.8266   21.6252 C   0  0  0  0  0  0  0  0  0  0  0  0
  -25.5900  -11.8597   19.9501 C   0  0  0  0  0  0  0  0  0  0  0  0
  -27.2699  -27.4717   19.8788 C   0  0  0  0  0  0  0  0  0  0  0  0
  -23.9734  -10.1921   20.3083 C   0  0  0  0  0  0  0  0  0  0  0  0
  -22.3001   -8.8198   22.0688 C   0  0  0  0  0  0  0  0  0  0  0  0
  -24.1091   -8.8130   20.4674 C   0  0  0  0  0  0  0  0  0  0  0  0
  -28.5221  -25.0308   22.7677 C   0  0  0  0  0  0  0  0  0  0  0  0
  -28.0332  -14.9215   21.5481 C   0  0  0  0  0  0  0  0  0  0  0  0
  -29.7165  -16.2492   22.0368 C   0  0  0  0  0  0  0  0  0  0  0  0
  -30.2938  -14.4276   20.4252 C   0  0  0  0  0  0  0  0  0  0  0  0
  -23.2676  -28.9394   23.2391 C   0  0  0  0  0  0  0  0  0  0  0  0
  -21.2576  -27.0941   21.4849 C   0  0  0  0  0  0  0  0  0  0  0  0
  -20.8353  -24.9630   18.8530 C   0  0  0  0  0  0  0  0  0  0  0  0
  -26.4679  -20.7819   24.2167 C   0  0  0  0  0  0  0  0  0  0  0  0
  -22.8604  -32.7565   26.6038 C   0  0  0  0  0  0  0  0  0  0  0  0
  -23.7591  -29.7425   20.9004 C   0  0  0  0  0  0  0  0  0  0  0  0
  -23.7263  -26.7900   21.0629 C   0  0  0  0  0  0  0  0  0  0  0  0
  -21.9692  -31.6047   26.1463 C   0  0  0  0  0  0  0  0  0  0  0  0
  -28.4846  -18.5076   26.0707 C   0  0  0  0  0  0  0  0  0  0  0  0
  -32.7050  -26.0644   21.3686 C   0  0  0  0  0  0  0  0  0  0  0  0
  -22.7477  -30.2930   26.1511 C   0  0  0  0  0  0  0  0  0  0  0  0
  -28.7206  -17.3511   25.0977 C   0  0  0  0  0  0  0  0  0  0  0  0
  -32.0538  -26.9524   20.3232 C   0  0  0  0  0  0  0  0  0  0  0  0
  -31.5397  -25.6797   22.2719 C   0  0  0  0  0  0  0  0  0  0  0  0
  -27.0821  -19.0931   25.9218 C   0  0  0  0  0  0  0  0  0  0  0  0
  -26.9592  -18.3434   23.5773 C   0  0  0  0  0  0  0  0  0  0  0  0
  -23.9314  -30.3504   25.1779 C   0  0  1  0  0  0  0  0  0  0  0  0
  -22.7908  -28.9992   21.8154 C   0  0  1  0  0  0  0  0  0  0  0  0
  -28.3793  -17.7567   23.6513 C   0  0  2  0  0  0  0  0  0  0  0  0
  -30.6778  -26.3040   20.0921 C   0  0  2  0  0  0  0  0  0  0  0  0
  -27.5052  -21.9304   19.9933 C   0  0  0  0  0  0  0  0  0  0  0  0
  -19.0858  -23.5883   17.6924 C   0  0  0  0  0  0  0  0  0  0  0  0
  -21.3889  -25.0341   23.7320 C   0  0  0  0  0  0  0  0  0  0  0  0
  -20.4390  -23.3460   22.1457 C   0  0  0  0  0  0  0  0  0  0  0  0
  -19.1112  -25.3681   22.7548 C   0  0  0  0  0  0  0  0  0  0  0  0
  -21.1795  -26.4531   16.3193 C   0  0  0  0  0  0  0  0  0  0  0  0
  -25.8796  -22.3602   22.3941 C   0  0  0  0  0  0  0  0  0  0  0  0
  -29.6438  -27.3783   19.7710 C   0  0  0  0  0  0  0  0  0  1  0  0
  -21.1137  -25.6129   21.2309 C   0  0  1  0  0  0  0  0  0  0  0  0
  -19.8032  -24.9284   17.7404 C   0  0  2  0  0  0  0  0  0  0  0  0
  -20.5372  -24.8542   22.4595 C   0  0  0  0  0  0  0  0  0  0  0  0
  -27.5221  -15.8074   22.4072 N   0  0  0  0  0  0  0  0  0  0  0  0
  -28.5700  -16.6013   22.6861 N   0  0  0  0  0  0  0  0  0  0  0  0
  -30.4008  -25.6099   21.3577 N   0  0  3  0  0  0  0  0  0  0  0  0
  -22.5537  -27.6194   21.3862 N   0  0  0  0  0  0  0  0  0  0  0  0
  -26.8222  -19.4586   24.5273 N   0  0  0  0  0  0  0  0  0  0  0  0
  -30.8638  -16.9408   22.2030 N   0  0  0  0  0  0  0  0  0  0  0  0
  -29.8010  -13.3207   19.7208 N   0  0  0  0  0  0  0  0  0  0  0  0
  -23.4745  -30.1781   23.8156 N   0  0  0  0  0  0  0  0  0  0  0  0
  -20.3129  -25.4826   20.0185 N   0  0  0  0  0  0  0  0  0  0  0  0
  -26.2452  -21.0449   22.8706 N   0  0  0  0  0  0  0  0  0  0  0  0
  -20.4560  -25.1596   16.4208 N   0  3  0  0  0  0  0  0  0  0  0  0
  -31.5009  -14.7459   20.3021 O   0  0  0  0  0  0  0  0  0  0  0  0
  -23.4339  -27.8501   23.7753 O   0  0  0  0  0  0  0  0  0  0  0  0
  -20.2557  -27.7616   21.7538 O   0  0  0  0  0  0  0  0  0  0  0  0
  -21.9886  -24.5651   18.7043 O   0  0  0  0  0  0  0  0  0  0  0  0
  -26.3634  -21.6649   25.0749 O   0  0  0  0  0  0  0  0  0  0  0  0
  -24.8038  -10.8749   19.4355 O   0  0  0  0  0  0  0  0  0  0  0  0
  -28.3792  -26.7551   19.5504 O   0  0  0  0  0  0  0  0  0  1  0  0
  -21.4976   -8.1612   22.9152 F   0  0  0  0  0  0  0  0  0  0  0  0
  -25.0421   -8.1421   19.7781 F   0  0  0  0  0  0  0  0  0  0  0  0
  -28.9049  -26.2723   23.9064 Cl  0  0  0  0  0  0  0  0  0  0  0  0
  1  2  1  0  0  0  0
  1  5  2  0  0  0  0
  2  6  2  0  0  0  0
  3  8  2  0  0  0  0
  3 17  1  0  0  0  0
  4  9  1  0  0  0  0
  4 17  2  0  0  0  0
  5 19  1  0  0  0  0
  6 21  1  0  0  0  0
  7 10  2  0  0  0  0
  7 20  1  0  0  0  0
  8 26  1  0  0  0  0
  9 26  2  0  0  0  0
 10 27  1  0  0  0  0
 11 12  2  0  0  0  0
 11 28  1  0  0  0  0
 12 29  1  0  0  0  0
 13 22  1  0  0  0  0
 13 27  2  0  0  0  0
 14 23  2  0  0  0  0
 14 25  1  0  0  0  0
 15 24  2  0  0  0  0
 15 31  1  0  0  0  0
 16 29  2  0  0  0  0
 16 30  1  0  0  0  0
 17 32  1  0  0  0  0
 18 32  1  0  0  0  0
 18 33  2  0  0  0  0
 18 34  1  0  0  0  0
 19 21  2  0  0  0  0
 19 39  1  0  0  0  0
 20 22  2  0  0  0  0
 20 40  1  0  0  0  0
 21 51  1  0  0  0  0
 22 41  1  0  0  0  0
 23 24  1  0  0  0  0
 23 55  1  0  0  0  0
 24 61  1  0  0  0  0
 25 31  2  0  0  0  0
 25 68  1  0  0  0  0
 26 82  1  0  0  0  0
 27 83  1  0  0  0  0
 28 30  2  0  0  0  0
 28 82  1  0  0  0  0
 29 84  1  0  0  0  0
 30 85  1  0  0  0  0
 31 86  1  0  0  0  0
 32 66  2  0  0  0  0
 33 67  1  0  0  0  0
 33 71  1  0  0  0  0
 34 72  1  0  0  0  0
 34 77  2  0  0  0  0
 35 52  1  0  0  0  0
 35 73  1  0  0  0  0
 35 78  2  0  0  0  0
 36 63  1  0  0  0  0
 36 69  1  0  0  0  0
 36 79  2  0  0  0  0
 37 64  1  0  0  0  0
 37 74  1  0  0  0  0
 37 80  2  0  0  0  0
 38 70  1  0  0  0  0
 38 75  1  0  0  0  0
 38 81  2  0  0  0  0
 39 42  1  0  0  0  0
 40 52  1  0  0  0  0
 41 69  1  0  0  0  0
 42 45  1  0  0  0  0
 43 46  1  0  0  0  0
 43 49  1  0  0  0  0
 44 47  1  0  0  0  0
 44 48  1  0  0  0  0
 45 51  1  0  0  0  0
 46 53  1  0  0  0  0
 47 54  1  0  0  0  0
 48 68  1  0  0  0  0
 49 70  1  0  0  0  0
 50 53  1  0  0  0  0
 50 70  1  0  0  0  0
 51 73  1  0  0  0  0
 52 69  1  0  0  0  0
 53 67  1  0  0  0  0
 54 62  1  0  0  0  0
 54 68  1  0  0  0  0
 56 64  1  0  0  0  0
 57 65  1  0  0  0  0
 58 65  1  0  0  0  0
 59 65  1  0  0  0  0
 60 76  1  0  0  0  0
 61 75  1  0  0  0  0
 62 83  1  0  0  0  0
 63 65  1  0  0  0  0
 63 74  1  0  0  0  0
 64 76  1  0  0  0  0
 66 67  1  0  0  0  0
M  CHG  1  76   1
M  ISO  4  38 100  62 101  75 100  83 101
M  END
> <Batch ID>
0024

> <Smiles>
CNC(C)C(=O)NC(C(=O)N1Cc2cc([101O:1][101CH2:1]C3CCCN3c3cc(C)c(C[100NH:0][100C:0](=O)N4CCCC(n5nc(-c6ccc(Oc7ccc(F)cc7F)cc6)c(C(N)=O)c5N)C4)cc3Cl)ccc2CC1C(=O)NC1CCCc2ccccc21)C(C)(C)C

> <Shape>
0.251

> <Color>
0.083

> <Negative vol penalty>
0.000

$$$$

  -OEChem-04042321203D

 89 99  0     1  0  0  0  0  0999 V2000
  -16.2957  -29.6234   23.3498 C   0  0  0  0  0  0  0  0  0  0  0  0
  -16.8861  -29.9012   22.1212 C   0  0  0  0  0  0  0  0  0  0  0  0
  -26.5458  -12.3494   21.4514 C   0  0  0  0  0  0  0  0  0  0  0  0
  -25.8301  -13.2667   19.3340 C   0  0  0  0  0  0  0  0  0  0  0  0
  -17.0573  -29.6786   24.5163 C   0  0  0  0  0  0  0  0  0  0  0  0
  -18.2384  -30.2354   22.0584 C   0  0  0  0  0  0  0  0  0  0  0  0
  -22.8469  -26.3251   18.1389 C   0  0  0  0  0  0  0  0  0  0  0  0
  -30.7461  -23.0688   18.3642 C   0  0  0  0  0  0  0  0  0  0  0  0
  -30.9272  -22.3877   19.5679 C   0  0  0  0  0  0  0  0  0  0  0  0
  -25.3578  -11.6236   21.5385 C   0  0  0  0  0  0  0  0  0  0  0  0
  -24.6422  -12.5409   19.4210 C   0  0  0  0  0  0  0  0  0  0  0  0
  -23.7514  -25.7525   17.2444 C   0  0  0  0  0  0  0  0  0  0  0  0
  -22.6714   -9.2506   22.1444 C   0  0  0  0  0  0  0  0  0  0  0  0
  -22.7550   -7.9141   22.5347 C   0  0  0  0  0  0  0  0  0  0  0  0
  -25.5025  -27.2010   18.0713 C   0  0  0  0  0  0  0  0  0  0  0  0
  -28.3560  -23.0567   18.7171 C   0  0  0  0  0  0  0  0  0  0  0  0
  -24.1565   -7.4438   20.6238 C   0  0  0  0  0  0  0  0  0  0  0  0
  -26.7819  -13.1710   20.3491 C   0  0  0  0  0  0  0  0  0  0  0  0
  -29.3192  -13.4081   20.2334 C   0  0  0  0  0  0  0  0  0  0  0  0
  -18.4219  -30.0043   24.4668 C   0  0  0  0  0  0  0  0  0  0  0  0
  -23.2711  -27.3283   19.0147 C   0  0  0  0  0  0  0  0  0  0  0  0
  -19.0187  -30.2964   23.2255 C   0  0  0  0  0  0  0  0  0  0  0  0
  -24.6041  -27.7695   18.9781 C   0  0  0  0  0  0  0  0  0  0  0  0
  -28.5371  -22.3755   19.9208 C   0  0  0  0  0  0  0  0  0  0  0  0
  -29.4604  -23.4034   17.9388 C   0  0  0  0  0  0  0  0  0  0  0  0
  -29.8228  -22.0410   20.3462 C   0  0  0  0  0  0  0  0  0  0  0  0
  -24.4060  -11.7193   20.5233 C   0  0  0  0  0  0  0  0  0  0  0  0
  -25.0758  -26.1896   17.2105 C   0  0  0  0  0  0  0  0  0  0  0  0
  -23.3302   -9.6837   20.9937 C   0  0  0  0  0  0  0  0  0  0  0  0
  -23.4976   -7.0107   21.7745 C   0  0  0  0  0  0  0  0  0  0  0  0
  -24.0728   -8.7803   20.2334 C   0  0  0  0  0  0  0  0  0  0  0  0
  -28.0086  -13.9214   20.2588 C   0  0  0  0  0  0  0  0  0  0  0  0
  -30.1214  -14.5191   20.1407 C   0  0  0  0  0  0  0  0  0  0  0  0
  -29.7712  -12.0485   20.2886 C   0  0  0  0  0  0  0  0  0  0  0  0
  -22.3662  -29.6959   21.7809 C   0  0  0  0  0  0  0  0  0  0  0  0
  -25.1486  -28.5823   22.4357 C   0  0  0  0  0  0  0  0  0  0  0  0
  -27.9908  -27.4681   23.9580 C   0  0  0  0  0  0  0  0  0  0  0  0
  -29.4726  -20.0605   21.8112 C   0  0  0  0  0  0  0  0  0  0  0  0
  -19.1933  -30.0976   25.7595 C   0  0  0  0  0  0  0  0  0  0  0  0
  -22.3166  -28.0162   19.9525 C   0  0  0  0  0  0  0  0  0  0  0  0
  -25.0072  -28.8753   19.9149 C   0  0  0  0  0  0  0  0  0  0  0  0
  -20.7076  -30.0936   25.5668 C   0  0  0  0  0  0  0  0  0  0  0  0
  -31.6524  -22.2390   24.7850 C   0  0  0  0  0  0  0  0  0  0  0  0
  -32.7274  -21.3798   24.1161 C   0  0  0  0  0  0  0  0  0  0  0  0
  -30.1489  -18.9999   18.4854 C   0  0  0  0  0  0  0  0  0  0  0  0
  -29.7389  -25.2031   14.7138 C   0  0  0  0  0  0  0  0  0  0  0  0
  -21.1066  -31.0571   24.4535 C   0  0  0  0  0  0  0  0  0  0  0  0
  -29.7901  -17.5162   18.5612 C   0  0  0  0  0  0  0  0  0  0  0  0
  -30.4282  -22.1685   23.8769 C   0  0  0  0  0  0  0  0  0  0  0  0
  -32.0985  -20.8343   22.8372 C   0  0  0  0  0  0  0  0  0  0  0  0
  -28.3507  -24.5866   14.6445 C   0  0  0  0  0  0  0  0  0  0  0  0
  -30.3950  -24.4734   15.8816 C   0  0  0  0  0  0  0  0  0  0  0  0
  -29.1778  -19.8654   19.2889 C   0  0  0  0  0  0  0  0  0  0  0  0
  -28.6594  -17.9553   20.7747 C   0  0  0  0  0  0  0  0  0  0  0  0
  -20.4886  -30.6386   23.1139 C   0  0  1  0  0  0  0  0  0  0  0  0
  -22.9648  -28.4098   21.2919 C   0  0  1  0  0  0  0  0  0  0  0  0
  -29.6525  -17.0553   20.0229 C   0  0  1  0  0  0  0  0  0  0  0  0
  -31.0095  -21.8459   22.5075 C   0  0  0  0  0  0  0  0  0  0  0  0
  -27.9829  -24.3469   16.1155 C   0  0  2  0  0  0  0  0  0  0  0  0
  -27.3361  -22.0181   20.7349 C   0  0  0  0  0  0  0  0  0  0  0  0
  -29.7485  -28.1716   25.6051 C   0  0  0  0  0  0  0  0  0  0  0  0
  -26.4251  -30.3581   20.3094 C   0  0  0  0  0  0  0  0  0  0  0  0
  -28.5633  -30.2540   21.6076 C   0  0  0  0  0  0  0  0  0  0  0  0
  -26.5312  -31.2732   22.6344 C   0  0  0  0  0  0  0  0  0  0  0  0
  -27.3139  -25.2544   25.8020 C   0  0  0  0  0  0  0  0  0  0  0  0
  -27.3249  -25.5797   16.7340 C   0  0  0  0  0  0  0  0  0  1  0  0
  -26.6414  -28.7657   22.3302 C   0  0  1  0  0  0  0  0  0  0  0  0
  -28.4172  -27.4616   25.4150 C   0  0  2  0  0  0  0  0  0  0  0  0
  -27.0275  -30.1389   21.7115 C   0  0  0  0  0  0  0  0  0  0  0  0
  -27.9756  -15.2548   20.1882 N   0  0  0  0  0  0  0  0  0  0  0  0
  -29.2754  -15.5887   20.1175 N   0  0  0  0  0  0  0  0  0  0  0  0
  -29.2812  -24.0789   16.7463 N   0  0  3  0  0  0  0  0  0  0  0  0
  -24.4174  -28.6483   21.2434 N   0  0  0  0  0  0  0  0  0  0  0  0
  -29.0480  -19.3635   20.6642 N   0  0  0  0  0  0  0  0  0  0  0  0
  -31.4608  -14.6758   20.0777 N   0  0  0  0  0  0  0  0  0  0  0  0
  -29.9319  -11.3485   19.0851 N   0  0  0  0  0  0  0  0  0  0  0  0
  -21.2245  -29.5315   22.5418 N   0  0  0  0  0  0  0  0  0  0  0  0
  -27.1758  -28.5422   23.6692 N   0  0  0  0  0  0  0  0  0  0  0  0
  -30.0317  -21.3375   21.5899 N   0  0  0  0  0  0  0  0  0  0  0  0
  -28.5563  -26.0621   25.9077 N   0  3  0  0  0  0  0  0  0  0  0  0
  -30.0092  -11.4664   21.3740 O   0  0  0  0  0  0  0  0  0  0  0  0
  -22.9008  -30.7598   21.4912 O   0  0  0  0  0  0  0  0  0  0  0  0
  -24.6412  -28.3912   23.5445 O   0  0  0  0  0  0  0  0  0  0  0  0
  -28.3483  -26.6086   23.1555 O   0  0  0  0  0  0  0  0  0  0  0  0
  -29.3387  -19.5898   22.9471 O   0  0  0  0  0  0  0  0  0  0  0  0
  -23.2468  -11.0111   20.6079 O   0  0  0  0  0  0  0  0  0  0  0  0
  -25.9547  -25.6232   16.3378 O   0  0  0  0  0  0  0  0  0  1  0  0
  -23.5792   -5.7276   22.1503 F   0  0  0  0  0  0  0  0  0  0  0  0
  -24.7089   -9.1907   19.1276 F   0  0  0  0  0  0  0  0  0  0  0  0
  1  2  1  0  0  0  0
  1  5  2  0  0  0  0
  2  6  2  0  0  0  0
  3 10  2  0  0  0  0
  3 18  1  0  0  0  0
  4 11  1  0  0  0  0
  4 18  2  0  0  0  0
  5 20  1  0  0  0  0
  6 22  1  0  0  0  0
  7 12  2  0  0  0  0
  7 21  1  0  0  0  0
  8  9  2  0  0  0  0
  8 25  1  0  0  0  0
  9 26  1  0  0  0  0
 10 27  1  0  0  0  0
 11 27  2  0  0  0  0
 12 28  1  0  0  0  0
 13 14  2  0  0  0  0
 13 29  1  0  0  0  0
 14 30  1  0  0  0  0
 15 23  1  0  0  0  0
 15 28  2  0  0  0  0
 16 24  1  0  0  0  0
 16 25  2  0  0  0  0
 17 30  2  0  0  0  0
 17 31  1  0  0  0  0
 18 32  1  0  0  0  0
 19 32  1  0  0  0  0
 19 33  2  0  0  0  0
 19 34  1  0  0  0  0
 20 22  2  0  0  0  0
 20 39  1  0  0  0  0
 21 23  2  0  0  0  0
 21 40  1  0  0  0  0
 22 55  1  0  0  0  0
 23 41  1  0  0  0  0
 24 26  2  0  0  0  0
 24 60  1  0  0  0  0
 25 72  1  0  0  0  0
 26 79  1  0  0  0  0
 27 86  1  0  0  0  0
 28 87  1  0  0  0  0
 29 31  2  0  0  0  0
 29 86  1  0  0  0  0
 30 88  1  0  0  0  0
 31 89  1  0  0  0  0
 32 70  2  0  0  0  0
 33 71  1  0  0  0  0
 33 75  1  0  0  0  0
 34 76  1  0  0  0  0
 34 81  2  0  0  0  0
 35 56  1  0  0  0  0
 35 77  1  0  0  0  0
 35 82  2  0  0  0  0
 36 67  1  0  0  0  0
 36 73  1  0  0  0  0
 36 83  2  0  0  0  0
 37 68  1  0  0  0  0
 37 78  1  0  0  0  0
 37 84  2  0  0  0  0
 38 74  1  0  0  0  0
 38 79  1  0  0  0  0
 38 85  2  0  0  0  0
 39 42  1  0  0  0  0
 40 56  1  0  0  0  0
 41 73  1  0  0  0  0
 42 47  1  0  0  0  0
 43 44  1  0  0  0  0
 43 49  1  0  0  0  0
 44 50  1  0  0  0  0
 45 48  1  0  0  0  0
 45 53  1  0  0  0  0
 46 51  1  0  0  0  0
 46 52  1  0  0  0  0
 47 55  1  0  0  0  0
 48 57  1  0  0  0  0
 49 58  1  0  0  0  0
 50 58  1  0  0  0  0
 51 59  1  0  0  0  0
 52 72  1  0  0  0  0
 53 74  1  0  0  0  0
 54 57  1  0  0  0  0
 54 74  1  0  0  0  0
 55 77  1  0  0  0  0
 56 73  1  0  0  0  0
 57 71  1  0  0  0  0
 58 79  1  0  0  0  0
 59 66  1  0  0  0  0
 59 72  1  0  0  0  0
 61 68  1  0  0  0  0
 62 69  1  0  0  0  0
 63 69  1  0  0  0  0
 64 69  1  0  0  0  0
 65 80  1  0  0  0  0
 66 87  1  0  0  0  0
 67 69  1  0  0  0  0
 67 78  1  0  0  0  0
 68 80  1  0  0  0  0
 70 71  1  0  0  0  0
M  CHG  1  80   1
M  ISO  4  38 100  66 101  79 100  87 101
M  END
> <Batch ID>
0024

> <Smiles>
CNC(C)C(=O)NC(C(=O)N1Cc2cc([101O:1][101CH2:1]C3CCCN3c3ccc([100N:0](C4CCCC4)[100C:0](=O)N4CCCC(n5nc(-c6ccc(Oc7ccc(F)cc7F)cc6)c(C(N)=O)c5N)C4)c(C)c3)ccc2CC1C(=O)NC1CCCc2ccccc21)C(C)(C)C

> <Shape>
0.293

> <Color>
0.077

> <Negative vol penalty>
0.000

$$$$

  -OEChem-04042321203D

 84 93  0     1  0  0  0  0  0999 V2000
  -27.3086  -34.5254   25.0664 C   0  0  0  0  0  0  0  0  0  0  0  0
  -27.6238  -33.2707   24.5546 C   0  0  0  0  0  0  0  0  0  0  0  0
  -23.3302  -14.3067   20.2990 C   0  0  0  0  0  0  0  0  0  0  0  0
  -25.0458  -14.8716   21.9035 C   0  0  0  0  0  0  0  0  0  0  0  0
  -26.0071  -34.7996   25.4844 C   0  0  0  0  0  0  0  0  0  0  0  0
  -26.6378  -32.2891   24.4616 C   0  0  0  0  0  0  0  0  0  0  0  0
  -26.7321  -29.8552   20.0218 C   0  0  0  0  0  0  0  0  0  0  0  0
  -30.4734  -23.5212   21.4389 C   0  0  0  0  0  0  0  0  0  0  0  0
  -23.8475  -13.0151   20.2006 C   0  0  0  0  0  0  0  0  0  0  0  0
  -25.5631  -13.5800   21.8052 C   0  0  0  0  0  0  0  0  0  0  0  0
  -27.7114  -28.8774   19.8524 C   0  0  0  0  0  0  0  0  0  0  0  0
  -23.7475  -10.1487   21.9914 C   0  0  0  0  0  0  0  0  0  0  0  0
  -29.7976  -22.6886   22.3309 C   0  0  0  0  0  0  0  0  0  0  0  0
  -22.8453   -9.0853   22.0178 C   0  0  0  0  0  0  0  0  0  0  0  0
  -26.0792  -27.1678   20.3347 C   0  0  0  0  0  0  0  0  0  0  0  0
  -28.5882  -23.4351   19.9304 C   0  0  0  0  0  0  0  0  0  0  0  0
  -23.5941   -8.3955   19.8268 C   0  0  0  0  0  0  0  0  0  0  0  0
  -23.9294  -15.2350   21.1504 C   0  0  0  0  0  0  0  0  0  0  0  0
  -22.4091  -17.0248   22.1470 C   0  0  0  0  0  0  0  0  0  0  0  0
  -25.0024  -33.8239   25.3876 C   0  0  0  0  0  0  0  0  0  0  0  0
  -25.4193  -29.4967   20.3602 C   0  0  0  0  0  0  0  0  0  0  0  0
  -25.3219  -32.5501   24.8800 C   0  0  0  0  0  0  0  0  0  0  0  0
  -25.0845  -28.1428   20.5053 C   0  0  0  0  0  0  0  0  0  0  0  0
  -29.8686  -23.8946   20.2387 C   0  0  0  0  0  0  0  0  0  0  0  0
  -27.9125  -22.6024   20.8223 C   0  0  0  0  0  0  0  0  0  0  0  0
  -24.9639  -12.6517   20.9538 C   0  0  0  0  0  0  0  0  0  0  0  0
  -27.3857  -27.5336   20.0117 C   0  0  0  0  0  0  0  0  0  0  0  0
  -24.5730  -10.3356   20.8826 C   0  0  0  0  0  0  0  0  0  0  0  0
  -22.7686   -8.2087   20.9356 C   0  0  0  0  0  0  0  0  0  0  0  0
  -28.5172  -22.2292   22.0226 C   0  0  0  0  0  0  0  0  0  0  0  0
  -24.4963   -9.4590   19.8003 C   0  0  0  0  0  0  0  0  0  0  0  0
  -23.3958  -16.5696   21.2520 C   0  0  0  0  0  0  0  0  0  0  0  0
  -22.2569  -18.3554   21.8425 C   0  0  0  0  0  0  0  0  0  0  0  0
  -21.6942  -16.3088   23.1629 C   0  0  0  0  0  0  0  0  0  0  0  0
  -23.5026  -30.0722   22.8298 C   0  0  0  0  0  0  0  0  0  0  0  0
  -21.3119  -28.5498   20.9845 C   0  0  0  0  0  0  0  0  0  0  0  0
  -20.6836  -26.3463   18.4554 C   0  0  0  0  0  0  0  0  0  0  0  0
  -25.8710  -22.4140   19.3584 C   0  0  0  0  0  0  0  0  0  0  0  0
  -23.6208  -34.1516   25.8961 C   0  0  0  0  0  0  0  0  0  0  0  0
  -24.3684  -30.5619   20.5132 C   0  0  0  0  0  0  0  0  0  0  0  0
  -23.6851  -27.7043   20.8483 C   0  0  0  0  0  0  0  0  0  0  0  0
  -22.5481  -33.1775   25.4159 C   0  0  0  0  0  0  0  0  0  0  0  0
  -22.6533  -21.4310   18.1932 C   0  0  0  0  0  0  0  0  0  0  0  0
  -32.2856  -25.8009   18.1791 C   0  0  0  0  0  0  0  0  0  0  0  0
  -23.0217  -31.7371   25.5827 C   0  0  0  0  0  0  0  0  0  0  0  0
  -22.3862  -20.1173   18.9314 C   0  0  0  0  0  0  0  0  0  0  0  0
  -31.0309  -25.7964   17.3203 C   0  0  0  0  0  0  0  0  0  0  0  0
  -31.9974  -24.7401   19.2367 C   0  0  0  0  0  0  0  0  0  0  0  0
  -24.1237  -21.5740   17.8040 C   0  0  0  0  0  0  0  0  0  0  0  0
  -24.8103  -20.0885   19.6454 C   0  0  0  0  0  0  0  0  0  0  0  0
  -24.2742  -31.4671   24.7403 C   0  0  1  0  0  0  0  0  0  0  0  0
  -23.1828  -30.1139   21.3622 C   0  0  1  0  0  0  0  0  0  0  0  0
  -23.3551  -19.9290   20.1152 C   0  0  2  0  0  0  0  0  0  0  0  0
  -29.8988  -25.5516   18.3278 C   0  0  2  0  0  0  0  0  0  0  0  0
  -18.7930  -25.2766   17.1988 C   0  0  0  0  0  0  0  0  0  0  0  0
  -20.7891  -26.6978   23.3524 C   0  0  0  0  0  0  0  0  0  0  0  0
  -19.6472  -25.1213   21.7779 C   0  0  0  0  0  0  0  0  0  0  0  0
  -18.7365  -27.4185   22.1187 C   0  0  0  0  0  0  0  0  0  0  0  0
  -21.5722  -27.5204   15.8881 C   0  0  0  0  0  0  0  0  0  0  0  0
  -29.3943  -26.8626   18.9295 C   0  0  0  0  0  0  0  0  0  1  0  0
  -20.8760  -27.1155   20.8060 C   0  0  1  0  0  0  0  0  0  0  0  0
  -19.7749  -26.4371   17.2427 C   0  0  2  0  0  0  0  0  0  0  0  0
  -20.0391  -26.5963   22.0092 C   0  0  0  0  0  0  0  0  0  0  0  0
  -23.8390  -17.5328   20.4397 N   0  0  0  0  0  0  0  0  0  0  0  0
  -23.1275  -18.6065   20.8231 N   0  0  0  0  0  0  0  0  0  0  0  0
  -30.5381  -24.7202   19.3551 N   0  0  3  0  0  0  0  0  0  0  0  0
  -22.6943  -28.7835   20.9938 N   0  0  0  0  0  0  0  0  0  0  0  0
  -24.9817  -21.3875   18.9761 N   0  0  0  0  0  0  0  0  0  0  0  0
  -21.4646  -19.3235   22.3500 N   0  0  0  0  0  0  0  0  0  0  0  0
  -21.9734  -14.9472   23.3427 N   0  0  0  0  0  0  0  0  0  0  0  0
  -26.6118  -22.1370   20.5068 N   0  0  0  0  0  0  0  0  0  0  0  0
  -23.9180  -31.2833   23.3497 N   0  0  0  0  0  0  0  0  0  0  0  0
  -20.1807  -27.0566   19.5248 N   0  0  0  0  0  0  0  0  0  0  0  0
  -20.5806  -26.4188   15.9892 N   0  3  0  0  0  0  0  0  0  0  0  0
  -20.8215  -16.8564   23.8786 O   0  0  0  0  0  0  0  0  0  0  0  0
  -23.3802  -29.0196   23.4452 O   0  0  0  0  0  0  0  0  0  0  0  0
  -20.4572  -29.4311   21.1040 O   0  0  0  0  0  0  0  0  0  0  0  0
  -21.7327  -25.7059   18.4551 O   0  0  0  0  0  0  0  0  0  0  0  0
  -25.9485  -23.4729   18.7300 O   0  0  0  0  0  0  0  0  0  0  0  0
  -25.4688  -11.3913   20.8582 O   0  0  0  0  0  0  0  0  0  0  0  0
  -28.3397  -26.5772   19.8475 O   0  0  0  0  0  0  0  0  0  1  0  0
  -21.9032   -7.1866   20.9617 F   0  0  0  0  0  0  0  0  0  0  0  0
  -27.8773  -21.4291   22.8875 F   0  0  0  0  0  0  0  0  0  0  0  0
  -25.2876   -9.6327   18.7329 F   0  0  0  0  0  0  0  0  0  0  0  0
  1  2  1  0  0  0  0
  1  5  2  0  0  0  0
  2  6  2  0  0  0  0
  3  9  2  0  0  0  0
  3 18  1  0  0  0  0
  4 10  1  0  0  0  0
  4 18  2  0  0  0  0
  5 20  1  0  0  0  0
  6 22  1  0  0  0  0
  7 11  2  0  0  0  0
  7 21  1  0  0  0  0
  8 13  2  0  0  0  0
  8 24  1  0  0  0  0
  9 26  1  0  0  0  0
 10 26  2  0  0  0  0
 11 27  1  0  0  0  0
 12 14  2  0  0  0  0
 12 28  1  0  0  0  0
 13 30  1  0  0  0  0
 14 29  1  0  0  0  0
 15 23  1  0  0  0  0
 15 27  2  0  0  0  0
 16 24  2  0  0  0  0
 16 25  1  0  0  0  0
 17 29  2  0  0  0  0
 17 31  1  0  0  0  0
 18 32  1  0  0  0  0
 19 32  1  0  0  0  0
 19 33  2  0  0  0  0
 19 34  1  0  0  0  0
 20 22  2  0  0  0  0
 20 39  1  0  0  0  0
 21 23  2  0  0  0  0
 21 40  1  0  0  0  0
 22 51  1  0  0  0  0
 23 41  1  0  0  0  0
 24 66  1  0  0  0  0
 25 30  2  0  0  0  0
 25 71  1  0  0  0  0
 26 80  1  0  0  0  0
 27 81  1  0  0  0  0
 28 31  2  0  0  0  0
 28 80  1  0  0  0  0
 29 82  1  0  0  0  0
 30 83  1  0  0  0  0
 31 84  1  0  0  0  0
 32 64  2  0  0  0  0
 33 65  1  0  0  0  0
 33 69  1  0  0  0  0
 34 70  1  0  0  0  0
 34 75  2  0  0  0  0
 35 52  1  0  0  0  0
 35 72  1  0  0  0  0
 35 76  2  0  0  0  0
 36 61  1  0  0  0  0
 36 67  1  0  0  0  0
 36 77  2  0  0  0  0
 37 62  1  0  0  0  0
 37 73  1  0  0  0  0
 37 78  2  0  0  0  0
 38 68  1  0  0  0  0
 38 71  1  0  0  0  0
 38 79  2  0  0  0  0
 39 42  1  0  0  0  0
 40 52  1  0  0  0  0
 41 67  1  0  0  0  0
 42 45  1  0  0  0  0
 43 46  1  0  0  0  0
 43 49  1  0  0  0  0
 44 47  1  0  0  0  0
 44 48  1  0  0  0  0
 45 51  1  0  0  0  0
 46 53  1  0  0  0  0
 47 54  1  0  0  0  0
 48 66  1  0  0  0  0
 49 68  1  0  0  0  0
 50 53  1  0  0  0  0
 50 68  1  0  0  0  0
 51 72  1  0  0  0  0
 52 67  1  0  0  0  0
 53 65  1  0  0  0  0
 54 60  1  0  0  0  0
 54 66  1  0  0  0  0
 55 62  1  0  0  0  0
 56 63  1  0  0  0  0
 57 63  1  0  0  0  0
 58 63  1  0  0  0  0
 59 74  1  0  0  0  0
 60 81  1  0  0  0  0
 61 63  1  0  0  0  0
 61 73  1  0  0  0  0
 62 74  1  0  0  0  0
 64 65  1  0  0  0  0
M  CHG  1  74   1
M  ISO  4  38 100  60 101  71 100  81 101
M  END
> <Batch ID>
0024

> <Smiles>
CNC(C)C(=O)NC(C(=O)N1Cc2cc([101O:1][101CH2:1]C3CCCN3c3ccc(F)c([100NH:0][100C:0](=O)N4CCCC(n5nc(-c6ccc(Oc7ccc(F)cc7F)cc6)c(C(N)=O)c5N)C4)c3)ccc2CC1C(=O)NC1CCCc2ccccc21)C(C)(C)C

> <Shape>
0.254

> <Color>
0.088

> <Negative vol penalty>
0.000

$$$$

  -OEChem-04042321203D

 89 99  0     1  0  0  0  0  0999 V2000
  -28.9191  -32.8768   25.7171 C   0  0  0  0  0  0  0  0  0  0  0  0
  -28.8449  -31.7093   24.9643 C   0  0  0  0  0  0  0  0  0  0  0  0
  -23.6551   -9.9341   22.1204 C   0  0  0  0  0  0  0  0  0  0  0  0
  -21.9873  -10.3341   20.4188 C   0  0  0  0  0  0  0  0  0  0  0  0
  -27.7685  -33.3995   26.3060 C   0  0  0  0  0  0  0  0  0  0  0  0
  -27.6201  -31.0631   24.8009 C   0  0  0  0  0  0  0  0  0  0  0  0
  -26.8124  -29.6120   20.0168 C   0  0  0  0  0  0  0  0  0  0  0  0
  -23.3506   -8.5730   22.0988 C   0  0  0  0  0  0  0  0  0  0  0  0
  -21.6829   -8.9731   20.3971 C   0  0  0  0  0  0  0  0  0  0  0  0
  -27.4691  -28.4621   19.5808 C   0  0  0  0  0  0  0  0  0  0  0  0
  -22.7610   -5.0441   22.7488 C   0  0  0  0  0  0  0  0  0  0  0  0
  -22.6206   -4.3899   23.9727 C   0  0  0  0  0  0  0  0  0  0  0  0
  -25.4489  -27.1877   19.9184 C   0  0  0  0  0  0  0  0  0  0  0  0
  -29.7507  -20.5091   18.4883 C   0  0  0  0  0  0  0  0  0  0  0  0
  -30.0709  -22.4385   16.4989 C   0  0  0  0  0  0  0  0  0  0  0  0
  -20.8128   -5.8804   24.5620 C   0  0  0  0  0  0  0  0  0  0  0  0
  -22.9733  -10.8147   21.2804 C   0  0  0  0  0  0  0  0  0  0  0  0
  -23.1887  -13.0964   22.4005 C   0  0  0  0  0  0  0  0  0  0  0  0
  -26.5273  -32.7647   26.1416 C   0  0  0  0  0  0  0  0  0  0  0  0
  -25.4699  -29.5562   20.4180 C   0  0  0  0  0  0  0  0  0  0  0  0
  -26.4520  -31.5771   25.3892 C   0  0  0  0  0  0  0  0  0  0  0  0
  -24.7767  -28.3389   20.3567 C   0  0  0  0  0  0  0  0  0  0  0  0
  -30.0921  -20.1241   17.1918 C   0  0  0  0  0  0  0  0  0  0  0  0
  -29.7295  -22.8235   17.7953 C   0  0  0  0  0  0  0  0  0  0  0  0
  -22.3646   -8.0925   21.2372 C   0  0  0  0  0  0  0  0  0  0  0  0
  -26.7882  -27.2491   19.5342 C   0  0  0  0  0  0  0  0  0  0  0  0
  -21.9273   -6.1165   22.4315 C   0  0  0  0  0  0  0  0  0  0  0  0
  -21.6465   -4.8080   24.8793 C   0  0  0  0  0  0  0  0  0  0  0  0
  -30.2522  -21.0887   16.1971 C   0  0  0  0  0  0  0  0  0  0  0  0
  -20.9532   -6.5346   23.3381 C   0  0  0  0  0  0  0  0  0  0  0  0
  -29.5693  -21.8589   18.7900 C   0  0  0  0  0  0  0  0  0  0  0  0
  -23.2870  -12.2208   21.3026 C   0  0  0  0  0  0  0  0  0  0  0  0
  -23.5984  -14.3115   21.9083 C   0  0  0  0  0  0  0  0  0  0  0  0
  -30.2769  -24.9834   18.9969 C   0  0  0  0  0  0  0  0  0  0  0  0
  -22.7652  -12.8348   23.7451 C   0  0  0  0  0  0  0  0  0  0  0  0
  -27.2490  -15.4342   17.2312 C   0  0  0  0  0  0  0  0  0  0  0  0
  -23.9139  -30.1243   23.1309 C   0  0  0  0  0  0  0  0  0  0  0  0
  -21.2971  -29.6317   21.2783 C   0  0  0  0  0  0  0  0  0  0  0  0
  -19.9543  -28.2152   18.4787 C   0  0  0  0  0  0  0  0  0  0  0  0
  -25.3193  -33.3414   26.8366 C   0  0  0  0  0  0  0  0  0  0  0  0
  -24.7682  -30.8109   20.8605 C   0  0  0  0  0  0  0  0  0  0  0  0
  -23.3289  -28.2297   20.7571 C   0  0  0  0  0  0  0  0  0  0  0  0
  -29.8074  -26.4155   18.8651 C   0  0  0  0  0  0  0  0  0  0  0  0
  -23.9946  -32.8014   26.3039 C   0  0  0  0  0  0  0  0  0  0  0  0
  -23.5570  -16.2929   17.4823 C   0  0  0  0  0  0  0  0  0  0  0  0
  -24.0532  -31.2833   26.1672 C   0  0  0  0  0  0  0  0  0  0  0  0
  -23.2467  -15.8741   18.9189 C   0  0  0  0  0  0  0  0  0  0  0  0
  -25.0282  -16.6293   17.2785 C   0  0  0  0  0  0  0  0  0  0  0  0
  -25.3684  -14.5064   18.5632 C   0  0  0  0  0  0  0  0  0  0  0  0
  -28.6035  -25.0293   17.3305 C   0  0  0  0  0  0  0  0  0  0  0  0
  -29.2659  -16.6240   16.0219 C   0  0  0  0  0  0  0  0  0  0  0  0
  -27.9476  -17.9578   16.9330 C   0  0  0  0  0  0  0  0  0  0  0  0
  -25.1374  -30.8608   25.1684 C   0  0  1  0  0  0  0  0  0  0  0  0
  -27.7530  -16.5546   16.3200 C   0  0  0  0  0  0  0  0  0  0  0  0
  -23.5473  -30.5366   21.7333 C   0  0  1  0  0  0  0  0  0  0  0  0
  -24.4086  -15.1196   19.5936 C   0  0  2  0  0  0  0  0  0  0  0  0
  -28.4709  -26.2939   18.1562 C   0  0  1  0  0  0  0  0  0  1  0  0
  -17.7809  -27.9547   17.2516 C   0  0  0  0  0  0  0  0  0  0  0  0
  -20.3925  -27.5580   23.3256 C   0  0  0  0  0  0  0  0  0  0  0  0
  -18.7795  -26.6825   21.6227 C   0  0  0  0  0  0  0  0  0  0  0  0
  -18.5664  -29.0259   22.4508 C   0  0  0  0  0  0  0  0  0  0  0  0
  -21.0100  -29.5909   16.0805 C   0  0  0  0  0  0  0  0  0  0  0  0
  -30.2853  -18.6801   16.8724 C   0  0  0  0  0  0  0  0  0  0  0  0
  -20.4687  -28.4288   20.8962 C   0  0  1  0  0  0  0  0  0  0  0  0
  -19.0494  -28.7804   17.3988 C   0  0  2  0  0  0  0  0  0  0  0  0
  -19.5796  -27.9251   22.0680 C   0  0  0  0  0  0  0  0  0  0  0  0
  -23.7245  -12.8280   20.1963 N   0  0  0  0  0  0  0  0  0  0  0  0
  -23.9048  -14.0982   20.5965 N   0  0  0  0  0  0  0  0  0  0  0  0
  -29.5512  -24.2131   18.0697 N   0  0  0  0  0  0  0  0  0  0  0  0
  -25.9179  -15.5309   17.6692 N   0  0  0  0  0  0  0  0  0  0  0  0
  -22.6884  -29.4831   21.1887 N   0  0  0  0  0  0  0  0  0  0  0  0
  -23.7227  -15.5309   22.4740 N   0  0  0  0  0  0  0  0  0  0  0  0
  -21.4062  -12.9770   24.0571 N   0  0  0  0  0  0  0  0  0  0  0  0
  -24.6766  -31.0549   23.8103 N   0  0  0  0  0  0  0  0  0  0  0  0
  -19.7232  -28.8094   19.7013 N   0  0  0  0  0  0  0  0  0  0  0  0
  -29.1631  -18.0925   16.1088 N   0  3  0  0  0  0  0  0  0  0  0  0
  -19.7557  -28.7950   16.0866 N   0  3  0  0  0  0  0  0  0  0  0  0
  -31.1760  -24.6572   19.7585 O   0  0  0  0  0  0  0  0  0  0  0  0
  -23.5706  -12.5013   24.6471 O   0  0  0  0  0  0  0  0  0  0  0  0
  -27.9950  -14.5024   17.5659 O   0  0  0  0  0  0  0  0  0  0  0  0
  -23.5316  -29.0425   23.5616 O   0  0  0  0  0  0  0  0  0  0  0  0
  -20.7304  -30.6673   21.6359 O   0  0  0  0  0  0  0  0  0  0  0  0
  -20.7807  -27.3320   18.2604 O   0  0  0  0  0  0  0  0  0  0  0  0
  -22.0674   -6.7644   21.2157 O   0  0  0  0  0  0  0  0  0  0  0  0
  -27.4270  -26.1250   19.1096 O   0  0  0  0  0  0  0  0  0  1  0  0
  -21.5108   -4.1787   26.0539 F   0  0  0  0  0  0  0  0  0  0  0  0
  -30.5799  -20.7282   14.9484 F   0  0  0  0  0  0  0  0  0  0  0  0
  -20.1485   -7.5634   23.0384 F   0  0  0  0  0  0  0  0  0  0  0  0
  -29.1466  -22.2920   20.4083 Cl  0  0  0  0  0  0  0  0  0  0  0  0
  1  2  1  0  0  0  0
  1  5  2  0  0  0  0
  2  6  2  0  0  0  0
  3  8  2  0  0  0  0
  3 17  1  0  0  0  0
  4  9  1  0  0  0  0
  4 17  2  0  0  0  0
  5 19  1  0  0  0  0
  6 21  1  0  0  0  0
  7 10  2  0  0  0  0
  7 20  1  0  0  0  0
  8 25  1  0  0  0  0
  9 25  2  0  0  0  0
 10 26  1  0  0  0  0
 11 12  2  0  0  0  0
 11 27  1  0  0  0  0
 12 28  1  0  0  0  0
 13 22  1  0  0  0  0
 13 26  2  0  0  0  0
 14 23  2  0  0  0  0
 14 31  1  0  0  0  0
 15 24  1  0  0  0  0
 15 29  2  0  0  0  0
 16 28  2  0  0  0  0
 16 30  1  0  0  0  0
 17 32  1  0  0  0  0
 18 32  1  0  0  0  0
 18 33  2  0  0  0  0
 18 35  1  0  0  0  0
 19 21  2  0  0  0  0
 19 40  1  0  0  0  0
 20 22  2  0  0  0  0
 20 41  1  0  0  0  0
 21 53  1  0  0  0  0
 22 42  1  0  0  0  0
 23 29  1  0  0  0  0
 23 63  1  0  0  0  0
 24 31  2  0  0  0  0
 24 69  1  0  0  0  0
 25 84  1  0  0  0  0
 26 85  1  0  0  0  0
 27 30  2  0  0  0  0
 27 84  1  0  0  0  0
 28 86  1  0  0  0  0
 29 87  1  0  0  0  0
 30 88  1  0  0  0  0
 31 89  1  0  0  0  0
 32 67  2  0  0  0  0
 33 68  1  0  0  0  0
 33 72  1  0  0  0  0
 34 43  1  0  0  0  0
 34 69  1  0  0  0  0
 34 78  2  0  0  0  0
 35 73  1  0  0  0  0
 35 79  2  0  0  0  0
 36 54  1  0  0  0  0
 36 70  1  0  0  0  0
 36 80  2  0  0  0  0
 37 55  1  0  0  0  0
 37 74  1  0  0  0  0
 37 81  2  0  0  0  0
 38 64  1  0  0  0  0
 38 71  1  0  0  0  0
 38 82  2  0  0  0  0
 39 65  1  0  0  0  0
 39 75  1  0  0  0  0
 39 83  2  0  0  0  0
 40 44  1  0  0  0  0
 41 55  1  0  0  0  0
 42 71  1  0  0  0  0
 43 57  1  0  0  0  0
 44 46  1  0  0  0  0
 45 47  1  0  0  0  0
 45 48  1  0  0  0  0
 46 53  1  0  0  0  0
 47 56  1  0  0  0  0
 48 70  1  0  0  0  0
 49 56  1  0  0  0  0
 49 70  1  0  0  0  0
 50 57  1  0  0  0  0
 50 69  1  0  0  0  0
 51 54  1  0  0  0  0
 51 76  1  0  0  0  0
 52 54  1  0  0  0  0
 52 76  1  0  0  0  0
 53 74  1  0  0  0  0
 55 71  1  0  0  0  0
 56 68  1  0  0  0  0
 57 85  1  0  0  0  0
 58 65  1  0  0  0  0
 59 66  1  0  0  0  0
 60 66  1  0  0  0  0
 61 66  1  0  0  0  0
 62 77  1  0  0  0  0
 63 76  1  0  0  0  0
 64 66  1  0  0  0  0
 64 75  1  0  0  0  0
 65 77  1  0  0  0  0
 67 68  1  0  0  0  0
M  CHG  2  76   1  77   1
M  ISO  4  36 100  54 100  57 101  85 101
M  END
> <Batch ID>
0024

> <Smiles>
CNC(C)C(=O)NC(C(=O)N1Cc2cc([101O:1][101CH:1]3CC(=O)N(c4cc(F)c(CN5C[100CH:0]([100C:0](=O)N6CCCC(n7nc(-c8ccc(Oc9ccc(F)cc9F)cc8)c(C(N)=O)c7N)C6)C5)cc4Cl)C3)ccc2CC1C(=O)NC1CCCc2ccccc21)C(C)(C)C

> <Shape>
0.324

> <Color>
0.102

> <Negative vol penalty>
0.000

$$$$

  -OEChem-04042321203D

 84 93  0     1  0  0  0  0  0999 V2000
  -27.9681  -22.8380   18.9473 C   0  0  0  0  0  0  0  0  0  0  0  0
  -26.7645  -23.2735   19.4925 C   0  0  0  0  0  0  0  0  0  0  0  0
  -27.3444  -14.9636   22.0907 C   0  0  0  0  0  0  0  0  0  0  0  0
  -25.4207  -15.5650   20.7585 C   0  0  0  0  0  0  0  0  0  0  0  0
  -29.1718  -23.3807   19.3951 C   0  0  0  0  0  0  0  0  0  0  0  0
  -26.7641  -24.2511   20.4869 C   0  0  0  0  0  0  0  0  0  0  0  0
  -23.2498  -27.8130   19.7076 C   0  0  0  0  0  0  0  0  0  0  0  0
  -20.4191  -24.4131   24.1900 C   0  0  0  0  0  0  0  0  0  0  0  0
  -21.1995  -23.3971   24.7416 C   0  0  0  0  0  0  0  0  0  0  0  0
  -27.1962  -13.6318   21.7036 C   0  0  0  0  0  0  0  0  0  0  0  0
  -25.2725  -14.2331   20.3713 C   0  0  0  0  0  0  0  0  0  0  0  0
  -21.9332  -27.4907   20.0340 C   0  0  0  0  0  0  0  0  0  0  0  0
  -27.9101  -11.7291   19.0012 C   0  0  0  0  0  0  0  0  0  0  0  0
  -29.0564  -11.0352   18.6138 C   0  0  0  0  0  0  0  0  0  0  0  0
  -22.1605  -28.6935   22.1126 C   0  0  0  0  0  0  0  0  0  0  0  0
  -20.6422  -21.9592   22.8817 C   0  0  0  0  0  0  0  0  0  0  0  0
  -28.6899   -9.4383   20.3893 C   0  0  0  0  0  0  0  0  0  0  0  0
  -26.4566  -15.9302   21.6182 C   0  0  0  0  0  0  0  0  0  0  0  0
  -27.3671  -18.3004   21.3716 C   0  0  0  0  0  0  0  0  0  0  0  0
  -29.1855  -24.3724   20.3886 C   0  0  0  0  0  0  0  0  0  0  0  0
  -24.0364  -28.5701   20.5877 C   0  0  0  0  0  0  0  0  0  0  0  0
  -27.9692  -24.8065   20.9494 C   0  0  0  0  0  0  0  0  0  0  0  0
  -23.4859  -29.0262   21.7939 C   0  0  0  0  0  0  0  0  0  0  0  0
  -19.7501  -24.2021   22.9843 C   0  0  0  0  0  0  0  0  0  0  0  0
  -21.3111  -22.1702   24.0875 C   0  0  0  0  0  0  0  0  0  0  0  0
  -26.1603  -13.2665   20.8439 C   0  0  0  0  0  0  0  0  0  0  0  0
  -21.3893  -27.9285   21.2379 C   0  0  0  0  0  0  0  0  0  0  0  0
  -27.1537  -11.2776   20.0828 C   0  0  0  0  0  0  0  0  0  0  0  0
  -29.4463   -9.8898   19.3078 C   0  0  0  0  0  0  0  0  0  0  0  0
  -19.8617  -22.9752   22.3302 C   0  0  0  0  0  0  0  0  0  0  0  0
  -27.5436  -10.1322   20.7768 C   0  0  0  0  0  0  0  0  0  0  0  0
  -26.6088  -17.3061   22.0182 C   0  0  0  0  0  0  0  0  0  0  0  0
  -27.1855  -19.4245   22.1398 C   0  0  0  0  0  0  0  0  0  0  0  0
  -28.1643  -18.2156   20.1830 C   0  0  0  0  0  0  0  0  0  0  0  0
  -26.7309  -28.0577   22.1942 C   0  0  0  0  0  0  0  0  0  0  0  0
  -26.4138  -31.1943   22.9582 C   0  0  0  0  0  0  0  0  0  0  0  0
  -24.3549  -33.8887   23.3430 C   0  0  0  0  0  0  0  0  0  0  0  0
  -22.8326  -21.1834   25.8361 C   0  0  0  0  0  0  0  0  0  0  0  0
  -30.5142  -24.8952   20.8741 C   0  0  0  0  0  0  0  0  0  0  0  0
  -25.4463  -28.9319   20.2088 C   0  0  0  0  0  0  0  0  0  0  0  0
  -24.2820  -29.8589   22.7642 C   0  0  0  0  0  0  0  0  0  0  0  0
  -30.4046  -26.1960   21.6655 C   0  0  0  0  0  0  0  0  0  0  0  0
  -26.2764  -20.7759   26.6432 C   0  0  0  0  0  0  0  0  0  0  0  0
  -17.5672  -26.4083   20.9631 C   0  0  0  0  0  0  0  0  0  0  0  0
  -29.2820  -26.1022   22.6940 C   0  0  0  0  0  0  0  0  0  0  0  0
  -26.8228  -19.9355   25.4868 C   0  0  0  0  0  0  0  0  0  0  0  0
  -17.3895  -26.9478   22.3735 C   0  0  0  0  0  0  0  0  0  0  0  0
  -18.2468  -25.0600   21.1803 C   0  0  0  0  0  0  0  0  0  0  0  0
  -24.8556  -20.3624   27.0229 C   0  0  0  0  0  0  0  0  0  0  0  0
  -24.4444  -19.4965   24.7535 C   0  0  0  0  0  0  0  0  0  0  0  0
  -27.9261  -25.8830   22.0122 C   0  0  1  0  0  0  0  0  0  0  0  0
  -26.3196  -29.2731   21.4123 C   0  0  1  0  0  0  0  0  0  0  0  0
  -25.8488  -19.9195   24.2924 C   0  0  2  0  0  0  0  0  0  0  0  0
  -18.6537  -26.4783   23.1069 C   0  0  2  0  0  0  0  0  0  0  0  0
  -24.3794  -36.3067   24.0138 C   0  0  0  0  0  0  0  0  0  0  0  0
  -26.6582  -30.3765   25.8876 C   0  0  0  0  0  0  0  0  0  0  0  0
  -25.7413  -32.6193   26.5179 C   0  0  0  0  0  0  0  0  0  0  0  0
  -27.9005  -32.4600   25.2790 C   0  0  0  0  0  0  0  0  0  0  0  0
  -23.3663  -34.7544   20.6912 C   0  0  0  0  0  0  0  0  0  0  0  0
  -19.7964  -27.4800   22.9460 C   0  0  0  0  0  0  0  0  0  1  0  0
  -25.7374  -31.9610   24.0689 C   0  0  1  0  0  0  0  0  0  0  0  0
  -24.4710  -35.3225   22.8581 C   0  0  2  0  0  0  0  0  0  0  0  0
  -26.4947  -31.8369   25.4212 C   0  0  0  0  0  0  0  0  0  0  0  0
  -25.9916  -17.7586   23.1129 N   0  0  0  0  0  0  0  0  0  0  0  0
  -26.3619  -19.0496   23.1601 N   0  0  0  0  0  0  0  0  0  0  0  0
  -18.9763  -25.2103   22.4409 N   0  0  3  0  0  0  0  0  0  0  0  0
  -25.6580  -30.1812   22.3514 N   0  0  0  0  0  0  0  0  0  0  0  0
  -23.9886  -20.3745   25.8426 N   0  0  0  0  0  0  0  0  0  0  0  0
  -27.6517  -20.6870   22.0352 N   0  0  0  0  0  0  0  0  0  0  0  0
  -28.2418  -16.9849   19.5169 N   0  0  0  0  0  0  0  0  0  0  0  0
  -22.1040  -21.1382   24.6480 N   0  0  0  0  0  0  0  0  0  0  0  0
  -27.4336  -27.1249   21.4556 N   0  0  0  0  0  0  0  0  0  0  0  0
  -25.5917  -33.3310   23.5892 N   0  0  0  0  0  0  0  0  0  0  0  0
  -23.3811  -35.6318   21.8899 N   0  3  0  0  0  0  0  0  0  0  0  0
  -28.8026  -19.1978   19.7342 O   0  0  0  0  0  0  0  0  0  0  0  0
  -26.4341  -27.9732   23.3801 O   0  0  0  0  0  0  0  0  0  0  0  0
  -27.5676  -31.4883   22.6359 O   0  0  0  0  0  0  0  0  0  0  0  0
  -23.2749  -33.3214   23.4922 O   0  0  0  0  0  0  0  0  0  0  0  0
  -22.5272  -21.8868   26.8025 O   0  0  0  0  0  0  0  0  0  0  0  0
  -26.0155  -11.9671   20.4657 O   0  0  0  0  0  0  0  0  0  0  0  0
  -20.1047  -27.6148   21.5592 O   0  0  0  0  0  0  0  0  0  1  0  0
  -30.5463   -9.2227   18.9346 F   0  0  0  0  0  0  0  0  0  0  0  0
  -19.2218  -22.7617   21.1716 F   0  0  0  0  0  0  0  0  0  0  0  0
  -26.8204   -9.6929   21.8159 F   0  0  0  0  0  0  0  0  0  0  0  0
  1  2  1  0  0  0  0
  1  5  2  0  0  0  0
  2  6  2  0  0  0  0
  3 10  2  0  0  0  0
  3 18  1  0  0  0  0
  4 11  1  0  0  0  0
  4 18  2  0  0  0  0
  5 20  1  0  0  0  0
  6 22  1  0  0  0  0
  7 12  2  0  0  0  0
  7 21  1  0  0  0  0
  8  9  2  0  0  0  0
  8 24  1  0  0  0  0
  9 25  1  0  0  0  0
 10 26  1  0  0  0  0
 11 26  2  0  0  0  0
 12 27  1  0  0  0  0
 13 14  2  0  0  0  0
 13 28  1  0  0  0  0
 14 29  1  0  0  0  0
 15 23  1  0  0  0  0
 15 27  2  0  0  0  0
 16 25  2  0  0  0  0
 16 30  1  0  0  0  0
 17 29  2  0  0  0  0
 17 31  1  0  0  0  0
 18 32  1  0  0  0  0
 19 32  1  0  0  0  0
 19 33  2  0  0  0  0
 19 34  1  0  0  0  0
 20 22  2  0  0  0  0
 20 39  1  0  0  0  0
 21 23  2  0  0  0  0
 21 40  1  0  0  0  0
 22 51  1  0  0  0  0
 23 41  1  0  0  0  0
 24 30  2  0  0  0  0
 24 66  1  0  0  0  0
 25 71  1  0  0  0  0
 26 80  1  0  0  0  0
 27 81  1  0  0  0  0
 28 31  2  0  0  0  0
 28 80  1  0  0  0  0
 29 82  1  0  0  0  0
 30 83  1  0  0  0  0
 31 84  1  0  0  0  0
 32 64  2  0  0  0  0
 33 65  1  0  0  0  0
 33 69  1  0  0  0  0
 34 70  1  0  0  0  0
 34 75  2  0  0  0  0
 35 52  1  0  0  0  0
 35 72  1  0  0  0  0
 35 76  2  0  0  0  0
 36 61  1  0  0  0  0
 36 67  1  0  0  0  0
 36 77  2  0  0  0  0
 37 62  1  0  0  0  0
 37 73  1  0  0  0  0
 37 78  2  0  0  0  0
 38 68  1  0  0  0  0
 38 71  1  0  0  0  0
 38 79  2  0  0  0  0
 39 42  1  0  0  0  0
 40 52  1  0  0  0  0
 41 67  1  0  0  0  0
 42 45  1  0  0  0  0
 43 46  1  0  0  0  0
 43 49  1  0  0  0  0
 44 47  1  0  0  0  0
 44 48  1  0  0  0  0
 45 51  1  0  0  0  0
 46 53  1  0  0  0  0
 47 54  1  0  0  0  0
 48 66  1  0  0  0  0
 49 68  1  0  0  0  0
 50 53  1  0  0  0  0
 50 68  1  0  0  0  0
 51 72  1  0  0  0  0
 52 67  1  0  0  0  0
 53 65  1  0  0  0  0
 54 60  1  0  0  0  0
 54 66  1  0  0  0  0
 55 62  1  0  0  0  0
 56 63  1  0  0  0  0
 57 63  1  0  0  0  0
 58 63  1  0  0  0  0
 59 74  1  0  0  0  0
 60 81  1  0  0  0  0
 61 63  1  0  0  0  0
 61 73  1  0  0  0  0
 62 74  1  0  0  0  0
 64 65  1  0  0  0  0
M  CHG  1  74   1
M  ISO  4  38 100  60 101  71 100  81 101
M  END
> <Batch ID>
0024

> <Smiles>
CNC(C)C(=O)NC(C(=O)N1Cc2cc([101O:1][101CH2:1]C3CCCN3c3ccc([100NH:0][100C:0](=O)N4CCCC(n5nc(-c6ccc(Oc7ccc(F)cc7F)cc6)c(C(N)=O)c5N)C4)cc3F)ccc2CC1C(=O)NC1CCCc2ccccc21)C(C)(C)C

> <Shape>
0.248

> <Color>
0.056

> <Negative vol penalty>
0.000

$$$$

  -OEChem-04042321203D

 87 96  0     1  0  0  0  0  0999 V2000
  -31.2436  -25.1544   13.8907 C   0  0  0  0  0  0  0  0  0  0  0  0
  -30.1448  -24.6738   14.5957 C   0  0  0  0  0  0  0  0  0  0  0  0
  -25.2424   -9.5796   21.2109 C   0  0  0  0  0  0  0  0  0  0  0  0
  -25.5825  -10.1645   23.5302 C   0  0  0  0  0  0  0  0  0  0  0  0
  -32.0988  -26.0827   14.4832 C   0  0  0  0  0  0  0  0  0  0  0  0
  -29.9010  -25.1204   15.8940 C   0  0  0  0  0  0  0  0  0  0  0  0
  -25.0289  -26.2603   16.6737 C   0  0  0  0  0  0  0  0  0  0  0  0
  -28.0696  -21.3627   21.5237 C   0  0  0  0  0  0  0  0  0  0  0  0
  -25.0611   -8.2451   21.5740 C   0  0  0  0  0  0  0  0  0  0  0  0
  -25.4011   -8.8300   23.8934 C   0  0  0  0  0  0  0  0  0  0  0  0
  -24.1517  -25.1969   16.8825 C   0  0  0  0  0  0  0  0  0  0  0  0
  -22.5997   -6.3324   22.8840 C   0  0  0  0  0  0  0  0  0  0  0  0
  -21.5341   -5.6424   22.3061 C   0  0  0  0  0  0  0  0  0  0  0  0
  -28.0703  -21.9723   20.2692 C   0  0  0  0  0  0  0  0  0  0  0  0
  -24.2427  -25.5966   19.2598 C   0  0  0  0  0  0  0  0  0  0  0  0
  -23.0820   -4.0526   21.3501 C   0  0  0  0  0  0  0  0  0  0  0  0
  -25.5032  -10.5393   22.1890 C   0  0  0  0  0  0  0  0  0  0  0  0
  -24.7695  -12.7529   21.1549 C   0  0  0  0  0  0  0  0  0  0  0  0
  -31.8599  -26.5481   15.7859 C   0  0  0  0  0  0  0  0  0  0  0  0
  -25.5290  -26.9941   17.7590 C   0  0  0  0  0  0  0  0  0  0  0  0
  -30.7545  -26.0547   16.5049 C   0  0  0  0  0  0  0  0  0  0  0  0
  -25.1241  -26.6704   19.0619 C   0  0  0  0  0  0  0  0  0  0  0  0
  -26.9942  -20.5624   21.9097 C   0  0  0  0  0  0  0  0  0  0  0  0
  -25.9202  -20.9816   19.7866 C   0  0  0  0  0  0  0  0  0  0  0  0
  -25.1404   -7.8703   22.9152 C   0  0  0  0  0  0  0  0  0  0  0  0
  -23.7608  -24.8631   18.1759 C   0  0  0  0  0  0  0  0  0  0  0  0
  -23.9065   -5.8826   22.6949 C   0  0  0  0  0  0  0  0  0  0  0  0
  -21.7752   -4.5025   21.5392 C   0  0  0  0  0  0  0  0  0  0  0  0
  -24.1476   -4.7427   21.9280 C   0  0  0  0  0  0  0  0  0  0  0  0
  -25.9196  -20.3720   21.0412 C   0  0  0  0  0  0  0  0  0  0  0  0
  -26.9957  -21.7818   19.4006 C   0  0  0  0  0  0  0  0  0  0  0  0
  -25.6912  -11.9179   21.8145 C   0  0  0  0  0  0  0  0  0  0  0  0
  -25.4219  -13.9553   21.0325 C   0  0  0  0  0  0  0  0  0  0  0  0
  -23.4422  -12.4671   20.6940 C   0  0  0  0  0  0  0  0  0  0  0  0
  -28.4221  -27.5313   18.9610 C   0  0  0  0  0  0  0  0  0  0  0  0
  -26.8099  -29.5667   20.9053 C   0  0  0  0  0  0  0  0  0  0  0  0
  -23.6943  -29.5575   22.7247 C   0  0  0  0  0  0  0  0  0  0  0  0
  -28.5959  -18.0110   23.1826 C   0  0  0  0  0  0  0  0  0  0  0  0
  -32.8388  -27.5162   16.4017 C   0  0  0  0  0  0  0  0  0  0  0  0
  -26.4534  -28.1552   17.5150 C   0  0  0  0  0  0  0  0  0  0  0  0
  -25.6164  -27.4397   20.2595 C   0  0  0  0  0  0  0  0  0  0  0  0
  -32.2990  -28.2210   17.6435 C   0  0  0  0  0  0  0  0  0  0  0  0
  -24.0046  -19.8544   16.8006 C   0  0  0  0  0  0  0  0  0  0  0  0
  -30.2661  -15.1693   21.8366 C   0  0  0  0  0  0  0  0  0  0  0  0
  -31.6377  -27.2169   18.5822 C   0  0  0  0  0  0  0  0  0  0  0  0
  -22.5879  -20.2506   17.2014 C   0  0  0  0  0  0  0  0  0  0  0  0
  -29.1502  -14.1376   21.6625 C   0  0  0  0  0  0  0  0  0  0  0  0
  -24.8971  -19.6297   18.0183 C   0  0  0  0  0  0  0  0  0  0  0  0
  -30.0613  -16.0159   23.0909 C   0  0  0  0  0  0  0  0  0  0  0  0
  -23.4886  -21.1935   19.3653 C   0  0  0  0  0  0  0  0  0  0  0  0
  -27.6272  -15.6383   23.0141 C   0  0  0  0  0  0  0  0  0  0  0  0
  -30.4428  -26.5338   17.9061 C   0  0  1  0  0  0  0  0  0  0  0  0
  -27.3036  -28.5080   18.7316 C   0  0  1  0  0  0  0  0  0  0  0  0
  -22.5738  -21.4487   18.1572 C   0  0  1  0  0  0  0  0  0  0  0  0
  -27.7601  -14.7979   21.7326 C   0  0  2  0  0  0  0  0  0  0  0  0
  -22.2183  -31.4559   23.4421 C   0  0  0  0  0  0  0  0  0  0  0  0
  -28.3695  -29.4086   23.5230 C   0  0  0  0  0  0  0  0  0  0  0  0
  -26.2341  -29.8784   24.7427 C   0  0  0  0  0  0  0  0  0  0  0  0
  -27.1606  -31.5672   23.1577 C   0  0  0  0  0  0  0  0  0  0  0  0
  -21.3356  -28.3870   21.3736 C   0  0  0  0  0  0  0  0  0  0  0  0
  -27.0000  -19.9104   23.2511 C   0  0  0  0  0  0  0  0  0  0  0  0
  -22.9472  -22.7519   17.4431 C   0  0  0  0  0  0  0  0  0  1  0  0
  -26.1260  -29.4482   22.2459 C   0  0  1  0  0  0  0  0  0  0  0  0
  -22.4523  -30.3693   22.4042 C   0  0  2  0  0  0  0  0  0  0  0  0
  -26.9745  -30.0534   23.3996 C   0  0  0  0  0  0  0  0  0  0  0  0
  -26.8416  -12.5374   22.0917 N   0  0  0  0  0  0  0  0  0  0  0  0
  -26.6471  -13.7744   21.6038 N   0  0  0  0  0  0  0  0  0  0  0  0
  -24.8280  -20.7749   18.9353 N   0  0  1  0  0  0  0  0  0  0  0  0
  -26.5236  -28.5624   19.9697 N   0  0  0  0  0  0  0  0  0  0  0  0
  -28.7246  -16.6150   23.0951 N   0  0  0  0  0  0  0  0  0  0  0  0
  -25.0614  -15.1391   20.4930 N   0  0  0  0  0  0  0  0  0  0  0  0
  -22.3690  -12.6915   21.5671 N   0  0  0  0  0  0  0  0  0  0  0  0
  -29.2954  -27.4158   17.8964 N   0  0  0  0  0  0  0  0  0  0  0  0
  -24.8102  -30.0583   22.0883 N   0  0  0  0  0  0  0  0  0  0  0  0
  -27.2941  -18.4968   23.1739 N   0  0  0  0  0  0  0  0  0  0  0  0
  -21.2517  -29.4871   22.3684 N   0  3  0  0  0  0  0  0  0  0  0  0
  -23.2160  -12.0104   19.5478 O   0  0  0  0  0  0  0  0  0  0  0  0
  -28.4888  -26.9283   20.0257 O   0  0  0  0  0  0  0  0  0  0  0  0
  -27.5645  -30.5192   20.6935 O   0  0  0  0  0  0  0  0  0  0  0  0
  -23.6770  -28.5792   23.4685 O   0  0  0  0  0  0  0  0  0  0  0  0
  -29.5692  -18.7686   23.2573 O   0  0  0  0  0  0  0  0  0  0  0  0
  -24.9633   -6.5682   23.2699 O   0  0  0  0  0  0  0  0  0  0  0  0
  -22.9052  -23.8252   18.3826 O   0  0  0  0  0  0  0  0  0  1  0  0
  -20.7517   -3.8391   20.9856 F   0  0  0  0  0  0  0  0  0  0  0  0
  -25.4007   -4.3050   21.7438 F   0  0  0  0  0  0  0  0  0  0  0  0
  -24.8872  -19.6008   21.4150 F   0  0  0  0  0  0  0  0  0  0  0  0
  -27.0371  -22.5559   17.8568 Cl  0  0  0  0  0  0  0  0  0  0  0  0
  1  2  1  0  0  0  0
  1  5  2  0  0  0  0
  2  6  2  0  0  0  0
  3  9  2  0  0  0  0
  3 17  1  0  0  0  0
  4 10  1  0  0  0  0
  4 17  2  0  0  0  0
  5 19  1  0  0  0  0
  6 21  1  0  0  0  0
  7 11  2  0  0  0  0
  7 20  1  0  0  0  0
  8 14  1  0  0  0  0
  8 23  2  0  0  0  0
  9 25  1  0  0  0  0
 10 25  2  0  0  0  0
 11 26  1  0  0  0  0
 12 13  2  0  0  0  0
 12 27  1  0  0  0  0
 13 28  1  0  0  0  0
 14 31  2  0  0  0  0
 15 22  1  0  0  0  0
 15 26  2  0  0  0  0
 16 28  2  0  0  0  0
 16 29  1  0  0  0  0
 17 32  1  0  0  0  0
 18 32  1  0  0  0  0
 18 33  2  0  0  0  0
 18 34  1  0  0  0  0
 19 21  2  0  0  0  0
 19 39  1  0  0  0  0
 20 22  2  0  0  0  0
 20 40  1  0  0  0  0
 21 52  1  0  0  0  0
 22 41  1  0  0  0  0
 23 30  1  0  0  0  0
 23 61  1  0  0  0  0
 24 30  2  0  0  0  0
 24 31  1  0  0  0  0
 24 68  1  0  0  0  0
 25 82  1  0  0  0  0
 26 83  1  0  0  0  0
 27 29  2  0  0  0  0
 27 82  1  0  0  0  0
 28 84  1  0  0  0  0
 29 85  1  0  0  0  0
 30 86  1  0  0  0  0
 31 87  1  0  0  0  0
 32 66  2  0  0  0  0
 33 67  1  0  0  0  0
 33 71  1  0  0  0  0
 34 72  1  0  0  0  0
 34 77  2  0  0  0  0
 35 53  1  0  0  0  0
 35 73  1  0  0  0  0
 35 78  2  0  0  0  0
 36 63  1  0  0  0  0
 36 69  1  0  0  0  0
 36 79  2  0  0  0  0
 37 64  1  0  0  0  0
 37 74  1  0  0  0  0
 37 80  2  0  0  0  0
 38 70  1  0  0  0  0
 38 75  1  0  0  0  0
 38 81  2  0  0  0  0
 39 42  1  0  0  0  0
 40 53  1  0  0  0  0
 41 69  1  0  0  0  0
 42 45  1  0  0  0  0
 43 46  1  0  0  0  0
 43 48  1  0  0  0  0
 44 47  1  0  0  0  0
 44 49  1  0  0  0  0
 45 52  1  0  0  0  0
 46 54  1  0  0  0  0
 47 55  1  0  0  0  0
 48 68  1  0  0  0  0
 49 70  1  0  0  0  0
 50 54  1  0  0  0  0
 50 68  1  0  0  0  0
 51 55  1  0  0  0  0
 51 70  1  0  0  0  0
 52 73  1  0  0  0  0
 53 69  1  0  0  0  0
 54 62  1  0  0  0  0
 55 67  1  0  0  0  0
 56 64  1  0  0  0  0
 57 65  1  0  0  0  0
 58 65  1  0  0  0  0
 59 65  1  0  0  0  0
 60 76  1  0  0  0  0
 61 75  1  0  0  0  0
 62 83  1  0  0  0  0
 63 65  1  0  0  0  0
 63 74  1  0  0  0  0
 64 76  1  0  0  0  0
 66 67  1  0  0  0  0
M  CHG  1  76   1
M  ISO  4  38 100  62 101  75 100  83 101
M  END
> <Batch ID>
0024

> <Smiles>
CNC(C)C(=O)NC(C(=O)N1Cc2cc([101O:1][101CH2:1]C3CCCN(c4c(Cl)ccc(C[100NH:0][100C:0](=O)N5CCCC(n6nc(-c7ccc(Oc8ccc(F)cc8F)cc7)c(C(N)=O)c6N)C5)c4F)C3)ccc2CC1C(=O)NC1CCCc2ccccc21)C(C)(C)C

> <Shape>
0.214

> <Color>
0.117

> <Negative vol penalty>
0.000

$$$$

  -OEChem-04042321203D

 85 94  0     1  0  0  0  0  0999 V2000
  -26.9449  -18.8625   16.4515 C   0  0  0  0  0  0  0  0  0  0  0  0
  -27.0431  -18.4774   17.7848 C   0  0  0  0  0  0  0  0  0  0  0  0
  -26.2642  -29.2340   19.5168 C   0  0  0  0  0  0  0  0  0  0  0  0
  -26.2965  -28.5542   21.8350 C   0  0  0  0  0  0  0  0  0  0  0  0
  -25.8171  -18.5164   15.7084 C   0  0  0  0  0  0  0  0  0  0  0  0
  -26.0129  -17.7470   18.3760 C   0  0  0  0  0  0  0  0  0  0  0  0
  -27.7235  -13.8688   21.1470 C   0  0  0  0  0  0  0  0  0  0  0  0
  -28.2208  -20.2119   25.0796 C   0  0  0  0  0  0  0  0  0  0  0  0
  -28.6022  -21.0758   24.0530 C   0  0  0  0  0  0  0  0  0  0  0  0
  -25.1090  -29.9795   19.7515 C   0  0  0  0  0  0  0  0  0  0  0  0
  -25.1413  -29.2998   22.0697 C   0  0  0  0  0  0  0  0  0  0  0  0
  -28.2299  -14.1645   22.4119 C   0  0  0  0  0  0  0  0  0  0  0  0
  -24.3296  -32.5424   22.5673 C   0  0  0  0  0  0  0  0  0  0  0  0
  -24.2958  -33.3392   23.7116 C   0  0  0  0  0  0  0  0  0  0  0  0
  -26.1429  -13.4711   23.4031 C   0  0  0  0  0  0  0  0  0  0  0  0
  -28.2732  -19.3060   22.4415 C   0  0  0  0  0  0  0  0  0  0  0  0
  -22.3725  -32.1132   24.5085 C   0  0  0  0  0  0  0  0  0  0  0  0
  -26.8580  -28.5213   20.5585 C   0  0  0  0  0  0  0  0  0  0  0  0
  -29.3840  -28.1898   20.4271 C   0  0  0  0  0  0  0  0  0  0  0  0
  -24.7769  -17.7731   16.2881 C   0  0  0  0  0  0  0  0  0  0  0  0
  -26.4168  -13.3815   20.9996 C   0  0  0  0  0  0  0  0  0  0  0  0
  -24.8695  -17.3918   17.6403 C   0  0  0  0  0  0  0  0  0  0  0  0
  -25.6231  -13.1676   22.1355 C   0  0  0  0  0  0  0  0  0  0  0  0
  -27.8656  -18.8950   24.7872 C   0  0  0  0  0  0  0  0  0  0  0  0
  -28.6283  -20.6229   22.7340 C   0  0  0  0  0  0  0  0  0  0  0  0
  -24.5475  -30.0125   21.0279 C   0  0  0  0  0  0  0  0  0  0  0  0
  -27.4387  -13.9684   23.5399 C   0  0  0  0  0  0  0  0  0  0  0  0
  -23.3849  -31.5309   22.3936 C   0  0  0  0  0  0  0  0  0  0  0  0
  -23.3173  -33.1247   24.6822 C   0  0  0  0  0  0  0  0  0  0  0  0
  -27.8918  -18.4421   23.4681 C   0  0  0  0  0  0  0  0  0  0  0  0
  -22.4064  -31.3163   23.3642 C   0  0  0  0  0  0  0  0  0  0  0  0
  -28.0511  -27.7505   20.3166 C   0  0  0  0  0  0  0  0  0  0  0  0
  -30.1367  -27.0900   20.0949 C   0  0  0  0  0  0  0  0  0  0  0  0
  -29.8959  -29.4770   20.7969 C   0  0  0  0  0  0  0  0  0  0  0  0
  -23.7854  -14.4207   19.5508 C   0  0  0  0  0  0  0  0  0  0  0  0
  -22.6290  -11.5175   20.4206 C   0  0  0  0  0  0  0  0  0  0  0  0
  -22.8084   -8.8410   22.5303 C   0  0  0  0  0  0  0  0  0  0  0  0
  -29.0978  -21.2103   20.3297 C   0  0  0  0  0  0  0  0  0  0  0  0
  -23.5563  -17.4632   15.4583 C   0  0  0  0  0  0  0  0  0  0  0  0
  -25.8947  -13.0421   19.6305 C   0  0  0  0  0  0  0  0  0  0  0  0
  -24.2209  -12.6273   22.0328 C   0  0  0  0  0  0  0  0  0  0  0  0
  -22.6776  -16.3659   16.0536 C   0  0  0  0  0  0  0  0  0  0  0  0
  -29.9765  -23.1039   17.4454 C   0  0  0  0  0  0  0  0  0  0  0  0
  -29.6900  -16.1415   27.9007 C   0  0  0  0  0  0  0  0  0  0  0  0
  -22.4565  -16.6084   17.5432 C   0  0  0  0  0  0  0  0  0  0  0  0
  -29.7095  -24.5509   17.8665 C   0  0  0  0  0  0  0  0  0  0  0  0
  -28.8555  -14.9496   27.4758 C   0  0  0  0  0  0  0  0  0  0  0  0
  -28.9437  -22.1429   18.0315 C   0  0  0  0  0  0  0  0  0  0  0  0
  -28.5035  -23.6770   19.9082 C   0  0  0  0  0  0  0  0  0  0  0  0
  -29.6678  -17.0465   26.6840 C   0  0  0  0  0  0  0  0  0  0  0  0
  -23.7840  -16.5775   18.3102 C   0  0  1  0  0  0  0  0  0  0  0  0
  -24.3709  -13.0369   19.5565 C   0  0  1  0  0  0  0  0  0  0  0  0
  -29.5556  -24.6736   19.3951 C   0  0  2  0  0  0  0  0  0  0  0  0
  -27.6885  -15.5997   26.7475 C   0  0  2  0  0  0  0  0  0  0  0  0
  -21.7069   -6.6395   23.0176 C   0  0  0  0  0  0  0  0  0  0  0  0
  -20.2900  -12.9793   21.7253 C   0  0  0  0  0  0  0  0  0  0  0  0
  -19.7620  -10.8747   22.9744 C   0  0  0  0  0  0  0  0  0  0  0  0
  -19.6597  -10.9028   20.4821 C   0  0  0  0  0  0  0  0  0  0  0  0
  -25.3061   -7.3431   22.0045 C   0  0  0  0  0  0  0  0  0  0  0  0
  -27.4541  -17.9697   25.8941 C   0  0  0  0  0  0  0  0  0  0  0  0
  -26.9923  -14.6744   25.7666 C   0  0  0  0  0  0  0  0  0  1  0  0
  -21.9107  -10.9717   21.6310 C   0  0  1  0  0  0  0  0  0  0  0  0
  -22.8218   -7.3467   22.2629 C   0  0  2  0  0  0  0  0  0  0  0  0
  -20.4313  -11.4442   21.7053 C   0  0  0  0  0  0  0  0  0  0  0  0
  -27.9591  -26.4713   19.9433 N   0  0  0  0  0  0  0  0  0  0  0  0
  -29.2436  -26.0975   19.8162 N   0  0  0  0  0  0  0  0  0  0  0  0
  -23.7533  -12.3166   20.6718 N   0  0  0  0  0  0  0  0  0  0  0  0
  -28.8556  -22.3130   19.4835 N   0  0  0  0  0  0  0  0  0  0  0  0
  -31.4687  -26.8847   20.0169 N   0  0  0  0  0  0  0  0  0  0  0  0
  -28.9838  -30.4948   21.1073 N   0  0  0  0  0  0  0  0  0  0  0  0
  -29.0177  -21.4999   21.6914 N   0  0  0  0  0  0  0  0  0  0  0  0
  -24.2229  -15.2124   18.5062 N   0  0  0  0  0  0  0  0  0  0  0  0
  -22.0736   -9.5227   21.5834 N   0  0  0  0  0  0  0  0  0  0  0  0
  -28.3359  -16.7637   26.0095 N   0  3  1  0  0  0  0  0  0  0  0  0
  -24.1233   -6.7566   22.6856 N   0  3  0  0  0  0  0  0  0  0  0  0
  -31.1256  -29.7221   20.8346 O   0  0  0  0  0  0  0  0  0  0  0  0
  -22.9940  -14.7455   20.4283 O   0  0  0  0  0  0  0  0  0  0  0  0
  -22.2122  -11.2390   19.2935 O   0  0  0  0  0  0  0  0  0  0  0  0
  -23.3884   -9.3519   23.4859 O   0  0  0  0  0  0  0  0  0  0  0  0
  -29.3840  -20.0977   19.8799 O   0  0  0  0  0  0  0  0  0  0  0  0
  -23.4203  -30.7401   21.2574 O   0  0  0  0  0  0  0  0  0  0  0  0
  -27.9303  -14.2569   24.7756 O   0  0  0  0  0  0  0  0  0  1  0  0
  -23.2858  -33.8890   25.7818 F   0  0  0  0  0  0  0  0  0  0  0  0
  -27.5522  -17.1786   23.1772 F   0  0  0  0  0  0  0  0  0  0  0  0
  -21.4969  -30.3454   23.2034 F   0  0  0  0  0  0  0  0  0  0  0  0
  1  2  1  0  0  0  0
  1  5  2  0  0  0  0
  2  6  2  0  0  0  0
  3 10  2  0  0  0  0
  3 18  1  0  0  0  0
  4 11  1  0  0  0  0
  4 18  2  0  0  0  0
  5 20  1  0  0  0  0
  6 22  1  0  0  0  0
  7 12  2  0  0  0  0
  7 21  1  0  0  0  0
  8  9  2  0  0  0  0
  8 24  1  0  0  0  0
  9 25  1  0  0  0  0
 10 26  1  0  0  0  0
 11 26  2  0  0  0  0
 12 27  1  0  0  0  0
 13 14  2  0  0  0  0
 13 28  1  0  0  0  0
 14 29  1  0  0  0  0
 15 23  1  0  0  0  0
 15 27  2  0  0  0  0
 16 25  2  0  0  0  0
 16 30  1  0  0  0  0
 17 29  2  0  0  0  0
 17 31  1  0  0  0  0
 18 32  1  0  0  0  0
 19 32  1  0  0  0  0
 19 33  2  0  0  0  0
 19 34  1  0  0  0  0
 20 22  2  0  0  0  0
 20 39  1  0  0  0  0
 21 23  2  0  0  0  0
 21 40  1  0  0  0  0
 22 51  1  0  0  0  0
 23 41  1  0  0  0  0
 24 30  2  0  0  0  0
 24 60  1  0  0  0  0
 25 71  1  0  0  0  0
 26 81  1  0  0  0  0
 27 82  1  0  0  0  0
 28 31  2  0  0  0  0
 28 81  1  0  0  0  0
 29 83  1  0  0  0  0
 30 84  1  0  0  0  0
 31 85  1  0  0  0  0
 32 65  2  0  0  0  0
 33 66  1  0  0  0  0
 33 69  1  0  0  0  0
 34 70  1  0  0  0  0
 34 76  2  0  0  0  0
 35 52  1  0  0  0  0
 35 72  1  0  0  0  0
 35 77  2  0  0  0  0
 36 62  1  0  0  0  0
 36 67  1  0  0  0  0
 36 78  2  0  0  0  0
 37 63  1  0  0  0  0
 37 73  1  0  0  0  0
 37 79  2  0  0  0  0
 38 68  1  0  0  0  0
 38 71  1  0  0  0  0
 38 80  2  0  0  0  0
 39 42  1  0  0  0  0
 40 52  1  0  0  0  0
 41 67  1  0  0  0  0
 42 45  1  0  0  0  0
 43 46  1  0  0  0  0
 43 48  1  0  0  0  0
 44 47  1  0  0  0  0
 44 50  1  0  0  0  0
 45 51  1  0  0  0  0
 46 53  1  0  0  0  0
 47 54  1  0  0  0  0
 48 68  1  0  0  0  0
 49 53  1  0  0  0  0
 49 68  1  0  0  0  0
 50 74  1  0  0  0  0
 51 72  1  0  0  0  0
 52 67  1  0  0  0  0
 53 66  1  0  0  0  0
 54 61  1  0  0  0  0
 54 74  1  0  0  0  0
 55 63  1  0  0  0  0
 56 64  1  0  0  0  0
 57 64  1  0  0  0  0
 58 64  1  0  0  0  0
 59 75  1  0  0  0  0
 60 74  1  0  0  0  0
 61 82  1  0  0  0  0
 62 64  1  0  0  0  0
 62 73  1  0  0  0  0
 63 75  1  0  0  0  0
 65 66  1  0  0  0  0
M  CHG  2  74   1  75   1
M  ISO  4  38 100  61 101  71 100  82 101
M  END
> <Batch ID>
0024

> <Smiles>
CNC(C)C(=O)NC(C(=O)N1Cc2cc([101O:1][101CH2:1]C3CCCN3Cc3ccc([100NH:0][100C:0](=O)N4CCCC(n5nc(-c6ccc(Oc7ccc(F)cc7F)cc6)c(C(N)=O)c5N)C4)cc3F)ccc2CC1C(=O)NC1CCCc2ccccc21)C(C)(C)C

> <Shape>
0.227

> <Color>
0.067

> <Negative vol penalty>
0.000

$$$$

  -OEChem-04042321203D

 86 95  0     1  0  0  0  0  0999 V2000
  -22.9877   -7.5771   24.6922 C   0  0  0  0  0  0  0  0  0  0  0  0
  -24.0906   -8.4009   24.8933 C   0  0  0  0  0  0  0  0  0  0  0  0
  -25.6487  -31.0675   22.5843 C   0  0  0  0  0  0  0  0  0  0  0  0
  -27.7480  -29.9397   22.9818 C   0  0  0  0  0  0  0  0  0  0  0  0
  -22.3788   -7.5230   23.4391 C   0  0  0  0  0  0  0  0  0  0  0  0
  -24.5859   -9.1702   23.8411 C   0  0  0  0  0  0  0  0  0  0  0  0
  -27.7590  -15.4583   22.5340 C   0  0  0  0  0  0  0  0  0  0  0  0
  -25.8612  -31.8605   23.7120 C   0  0  0  0  0  0  0  0  0  0  0  0
  -27.9605  -30.7327   24.1095 C   0  0  0  0  0  0  0  0  0  0  0  0
  -28.8722  -15.9882   21.8830 C   0  0  0  0  0  0  0  0  0  0  0  0
  -27.6858  -34.5863   24.5325 C   0  0  0  0  0  0  0  0  0  0  0  0
  -27.4390  -35.9544   24.4188 C   0  0  0  0  0  0  0  0  0  0  0  0
  -27.6909  -15.8741   19.7829 C   0  0  0  0  0  0  0  0  0  0  0  0
  -29.6072  -20.7748   20.5561 C   0  0  0  0  0  0  0  0  0  0  0  0
  -25.7769  -35.7998   26.1654 C   0  0  0  0  0  0  0  0  0  0  0  0
  -26.5921  -30.1071   22.2192 C   0  0  0  0  0  0  0  0  0  0  0  0
  -26.7717  -29.5636   19.7333 C   0  0  0  0  0  0  0  0  0  0  0  0
  -22.8610   -8.2994   22.3735 C   0  0  0  0  0  0  0  0  0  0  0  0
  -26.6054  -15.1215   21.8114 C   0  0  0  0  0  0  0  0  0  0  0  0
  -23.9837   -9.1254   22.5722 C   0  0  0  0  0  0  0  0  0  0  0  0
  -26.5635  -15.3424   20.4273 C   0  0  0  0  0  0  0  0  0  0  0  0
  -29.4596  -20.1797   19.3032 C   0  0  0  0  0  0  0  0  0  0  0  0
  -27.5091  -21.9338   20.2527 C   0  0  0  0  0  0  0  0  0  0  0  0
  -27.0171  -31.6931   24.4746 C   0  0  0  0  0  0  0  0  0  0  0  0
  -28.8393  -16.1935   20.5069 C   0  0  0  0  0  0  0  0  0  0  0  0
  -26.9781  -33.8249   25.4627 C   0  0  0  0  0  0  0  0  0  0  0  0
  -26.4846  -36.5612   25.2353 C   0  0  0  0  0  0  0  0  0  0  0  0
  -28.6319  -21.6519   21.0308 C   0  0  0  0  0  0  0  0  0  0  0  0
  -26.0237  -34.4316   26.2791 C   0  0  0  0  0  0  0  0  0  0  0  0
  -28.3368  -20.4616   18.5251 C   0  0  0  0  0  0  0  0  0  0  0  0
  -27.3615  -21.3387   18.9998 C   0  0  0  0  0  0  0  0  0  0  0  0
  -26.3729  -29.2873   21.0548 C   0  0  0  0  0  0  0  0  0  0  0  0
  -26.3299  -28.4839   19.0084 C   0  0  0  0  0  0  0  0  0  0  0  0
  -27.4785  -30.6950   19.2080 C   0  0  0  0  0  0  0  0  0  0  0  0
  -25.0032  -12.4299   21.2707 C   0  0  0  0  0  0  0  0  0  0  0  0
  -22.8975  -14.4317   19.8281 C   0  0  0  0  0  0  0  0  0  0  0  0
  -22.3368  -17.4209   18.2798 C   0  0  0  0  0  0  0  0  0  0  0  0
  -25.1536  -22.8053   20.4489 C   0  0  0  0  0  0  0  0  0  0  0  0
  -22.1989   -8.1717   21.0245 C   0  0  0  0  0  0  0  0  0  0  0  0
  -25.4034  -14.5757   22.5323 C   0  0  0  0  0  0  0  0  0  0  0  0
  -25.3420  -15.0164   19.6088 C   0  0  0  0  0  0  0  0  0  0  0  0
  -22.5548   -9.3017   20.0619 C   0  0  0  0  0  0  0  0  0  0  0  0
  -22.9011  -25.1406   18.9827 C   0  0  0  0  0  0  0  0  0  0  0  0
  -32.1519  -18.6822   17.3719 C   0  0  0  0  0  0  0  0  0  0  0  0
  -24.0586   -9.5574   20.0715 C   0  0  0  0  0  0  0  0  0  0  0  0
  -23.5751  -26.4936   19.2221 C   0  0  0  0  0  0  0  0  0  0  0  0
  -32.2697  -17.8406   18.6302 C   0  0  0  0  0  0  0  0  0  0  0  0
  -30.7057  -19.1607   17.4084 C   0  0  0  0  0  0  0  0  0  0  0  0
  -23.1091  -24.1876   20.1584 C   0  0  0  0  0  0  0  0  0  0  0  0
  -25.1815  -25.3525   20.8046 C   0  0  0  0  0  0  0  0  0  0  0  0
  -24.5351   -9.9937   21.4622 C   0  0  1  0  0  0  0  0  0  0  0  0
  -24.4664  -13.7889   21.6211 C   0  0  1  0  0  0  0  0  0  0  0  0
  -25.0545  -26.3238   19.6197 C   0  0  2  0  0  0  0  0  0  0  0  0
  -31.4071  -18.5913   19.6596 C   0  0  2  0  0  0  0  0  0  0  0  0
  -21.0360  -19.2803   17.2083 C   0  0  0  0  0  0  0  0  0  0  0  0
  -23.1004  -12.6593   17.3528 C   0  0  0  0  0  0  0  0  0  0  0  0
  -22.0628  -14.5120   16.0266 C   0  0  0  0  0  0  0  0  0  0  0  0
  -20.7870  -13.4455   17.8860 C   0  0  0  0  0  0  0  0  0  0  0  0
  -21.8637  -18.7464   20.8833 C   0  0  0  0  0  0  0  0  0  0  0  0
  -30.7557  -17.5976   20.6160 C   0  0  0  0  0  0  0  0  0  1  0  0
  -22.7249  -14.9753   18.4303 C   0  0  1  0  0  0  0  0  0  0  0  0
  -21.2574  -18.4701   18.4761 C   0  0  2  0  0  0  0  0  0  0  0  0
  -22.1926  -13.9025   17.4388 C   0  0  0  0  0  0  0  0  0  0  0  0
  -25.7272  -28.1234   21.1658 N   0  0  0  0  0  0  0  0  0  0  0  0
  -25.7168  -27.6588   19.9048 N   0  0  0  0  0  0  0  0  0  0  0  0
  -30.4266  -19.3123   18.8356 N   0  0  3  0  0  0  0  0  0  0  0  0
  -24.1945  -14.4791   20.3586 N   0  0  0  0  0  0  0  0  0  0  0  0
  -24.5343  -24.0728   20.4755 N   0  0  0  0  0  0  0  0  0  0  0  0
  -26.4098  -28.1693   17.6980 N   0  0  0  0  0  0  0  0  0  0  0  0
  -27.8582  -31.7147   20.0914 N   0  0  0  0  0  0  0  0  0  0  0  0
  -26.5182  -22.8242   20.7355 N   0  0  0  0  0  0  0  0  0  0  0  0
  -24.2068  -11.3837   21.6958 N   0  0  0  0  0  0  0  0  0  0  0  0
  -21.8712  -16.1520   18.5524 N   0  0  0  0  0  0  0  0  0  0  0  0
  -21.6379  -19.4061   19.5715 N   0  3  0  0  0  0  0  0  0  0  0  0
  -27.7505  -30.8065   17.9885 O   0  0  0  0  0  0  0  0  0  0  0  0
  -26.0608  -12.3375   20.6587 O   0  0  0  0  0  0  0  0  0  0  0  0
  -21.9163  -13.9882   20.4299 O   0  0  0  0  0  0  0  0  0  0  0  0
  -23.4777  -17.6988   17.9171 O   0  0  0  0  0  0  0  0  0  0  0  0
  -24.5258  -21.7821   20.1643 O   0  0  0  0  0  0  0  0  0  0  0  0
  -27.2248  -32.4669   25.5749 O   0  0  0  0  0  0  0  0  0  0  0  0
  -29.9247  -16.7101   19.8689 O   0  0  0  0  0  0  0  0  0  1  0  0
  -26.2488  -37.8753   25.1270 F   0  0  0  0  0  0  0  0  0  0  0  0
  -28.7843  -22.2180   22.2367 F   0  0  0  0  0  0  0  0  0  0  0  0
  -25.3415  -33.7055   27.1753 F   0  0  0  0  0  0  0  0  0  0  0  0
  -28.1844  -19.8945   17.3200 F   0  0  0  0  0  0  0  0  0  0  0  0
  -26.2870  -21.6025   18.2429 F   0  0  0  0  0  0  0  0  0  0  0  0
  1  2  1  0  0  0  0
  1  5  2  0  0  0  0
  2  6  2  0  0  0  0
  3  8  2  0  0  0  0
  3 16  1  0  0  0  0
  4  9  1  0  0  0  0
  4 16  2  0  0  0  0
  5 18  1  0  0  0  0
  6 20  1  0  0  0  0
  7 10  2  0  0  0  0
  7 19  1  0  0  0  0
  8 24  1  0  0  0  0
  9 24  2  0  0  0  0
 10 25  1  0  0  0  0
 11 12  2  0  0  0  0
 11 26  1  0  0  0  0
 12 27  1  0  0  0  0
 13 21  1  0  0  0  0
 13 25  2  0  0  0  0
 14 22  1  0  0  0  0
 14 28  2  0  0  0  0
 15 27  2  0  0  0  0
 15 29  1  0  0  0  0
 16 32  1  0  0  0  0
 17 32  1  0  0  0  0
 17 33  2  0  0  0  0
 17 34  1  0  0  0  0
 18 20  2  0  0  0  0
 18 39  1  0  0  0  0
 19 21  2  0  0  0  0
 19 40  1  0  0  0  0
 20 51  1  0  0  0  0
 21 41  1  0  0  0  0
 22 30  2  0  0  0  0
 22 66  1  0  0  0  0
 23 28  1  0  0  0  0
 23 31  2  0  0  0  0
 23 71  1  0  0  0  0
 24 80  1  0  0  0  0
 25 81  1  0  0  0  0
 26 29  2  0  0  0  0
 26 80  1  0  0  0  0
 27 82  1  0  0  0  0
 28 83  1  0  0  0  0
 29 84  1  0  0  0  0
 30 31  1  0  0  0  0
 30 85  1  0  0  0  0
 31 86  1  0  0  0  0
 32 64  2  0  0  0  0
 33 65  1  0  0  0  0
 33 69  1  0  0  0  0
 34 70  1  0  0  0  0
 34 75  2  0  0  0  0
 35 52  1  0  0  0  0
 35 72  1  0  0  0  0
 35 76  2  0  0  0  0
 36 61  1  0  0  0  0
 36 67  1  0  0  0  0
 36 77  2  0  0  0  0
 37 62  1  0  0  0  0
 37 73  1  0  0  0  0
 37 78  2  0  0  0  0
 38 68  1  0  0  0  0
 38 71  1  0  0  0  0
 38 79  2  0  0  0  0
 39 42  1  0  0  0  0
 40 52  1  0  0  0  0
 41 67  1  0  0  0  0
 42 45  1  0  0  0  0
 43 46  1  0  0  0  0
 43 49  1  0  0  0  0
 44 47  1  0  0  0  0
 44 48  1  0  0  0  0
 45 51  1  0  0  0  0
 46 53  1  0  0  0  0
 47 54  1  0  0  0  0
 48 66  1  0  0  0  0
 49 68  1  0  0  0  0
 50 53  1  0  0  0  0
 50 68  1  0  0  0  0
 51 72  1  0  0  0  0
 52 67  1  0  0  0  0
 53 65  1  0  0  0  0
 54 60  1  0  0  0  0
 54 66  1  0  0  0  0
 55 62  1  0  0  0  0
 56 63  1  0  0  0  0
 57 63  1  0  0  0  0
 58 63  1  0  0  0  0
 59 74  1  0  0  0  0
 60 81  1  0  0  0  0
 61 63  1  0  0  0  0
 61 73  1  0  0  0  0
 62 74  1  0  0  0  0
 64 65  1  0  0  0  0
M  CHG  1  74   1
M  ISO  4  38 100  60 101  71 100  81 101
M  END
> <Batch ID>
0024

> <Smiles>
CNC(C)C(=O)NC(C(=O)N1Cc2cc([101O:1][101CH2:1]C3CCCN3c3cc(F)c([100NH:0][100C:0](=O)N4CCCC(n5nc(-c6ccc(Oc7ccc(F)cc7F)cc6)c(C(N)=O)c5N)C4)c(F)c3F)ccc2CC1C(=O)NC1CCCc2ccccc21)C(C)(C)C

> <Shape>
0.239

> <Color>
0.064

> <Negative vol penalty>
0.000

$$$$

  -OEChem-04042321203D

 96106  0     1  0  0  0  0  0999 V2000
  -19.4354  -33.2946   19.6064 C   0  0  0  0  0  0  0  0  0  0  0  0
  -20.7071  -32.7846   19.3654 C   0  0  0  0  0  0  0  0  0  0  0  0
  -27.7754  -17.8742   22.0229 C   0  0  0  0  0  0  0  0  0  0  0  0
  -23.8677  -14.9632   19.4536 C   0  0  0  0  0  0  0  0  0  0  0  0
  -26.2631  -15.2158   19.2661 C   0  0  0  0  0  0  0  0  0  0  0  0
  -27.8474  -18.9380   21.1237 C   0  0  0  0  0  0  0  0  0  0  0  0
  -18.8002  -33.0357   20.8203 C   0  0  0  0  0  0  0  0  0  0  0  0
  -21.3449  -32.0163   20.3387 C   0  0  0  0  0  0  0  0  0  0  0  0
  -25.0968  -27.2668   19.4050 C   0  0  0  0  0  0  0  0  0  0  0  0
  -28.9380  -17.3837   22.6176 C   0  0  0  0  0  0  0  0  0  0  0  0
  -24.0486  -13.9306   20.3737 C   0  0  0  0  0  0  0  0  0  0  0  0
  -26.4440  -14.1832   20.1863 C   0  0  0  0  0  0  0  0  0  0  0  0
  -26.4867  -27.1578   19.3924 C   0  0  0  0  0  0  0  0  0  0  0  0
  -23.8850  -10.9861   22.5013 C   0  0  0  0  0  0  0  0  0  0  0  0
  -23.1134   -9.8345   22.3461 C   0  0  0  0  0  0  0  0  0  0  0  0
  -26.4451  -26.4388   21.6947 C   0  0  0  0  0  0  0  0  0  0  0  0
  -24.0670   -9.4911   20.1529 C   0  0  0  0  0  0  0  0  0  0  0  0
  -24.9750  -15.6058   18.8997 C   0  0  0  0  0  0  0  0  0  0  0  0
  -29.0819  -19.5114   20.8190 C   0  0  0  0  0  0  0  0  0  0  0  0
  -24.1341  -16.5970   16.7047 C   0  0  0  0  0  0  0  0  0  0  0  0
  -19.4266  -32.2557   21.8051 C   0  0  0  0  0  0  0  0  0  0  0  0
  -24.3703  -26.9727   20.5678 C   0  0  0  0  0  0  0  0  0  0  0  0
  -20.7181  -31.7478   21.5674 C   0  0  0  0  0  0  0  0  0  0  0  0
  -25.0459  -26.5424   21.7187 C   0  0  0  0  0  0  0  0  0  0  0  0
  -30.1725  -17.9571   22.3129 C   0  0  0  0  0  0  0  0  0  0  0  0
  -30.2445  -19.0209   21.4137 C   0  0  0  0  0  0  0  0  0  0  0  0
  -25.3367  -13.5407   20.7401 C   0  0  0  0  0  0  0  0  0  0  0  0
  -27.1613  -26.7465   20.5382 C   0  0  0  0  0  0  0  0  0  0  0  0
  -24.7476  -11.3902   21.4822 C   0  0  0  0  0  0  0  0  0  0  0  0
  -23.2043   -9.0870   21.1720 C   0  0  0  0  0  0  0  0  0  0  0  0
  -24.8386  -10.6427   20.3081 C   0  0  0  0  0  0  0  0  0  0  0  0
  -24.7888  -16.6721   17.9487 C   0  0  0  0  0  0  0  0  0  0  0  0
  -24.2273  -17.8672   16.1905 C   0  0  0  0  0  0  0  0  0  0  0  0
  -29.1261  -20.6400   19.8619 C   0  0  0  0  0  0  0  0  0  0  0  0
  -23.4985  -15.4791   16.0708 C   0  0  0  0  0  0  0  0  0  0  0  0
  -22.4612  -28.6256   22.4983 C   0  0  0  0  0  0  0  0  0  0  0  0
  -21.9988  -25.7285   23.8823 C   0  0  0  0  0  0  0  0  0  0  0  0
  -23.1729  -22.5787   24.4716 C   0  0  0  0  0  0  0  0  0  0  0  0
  -28.3375  -22.2268   17.4741 C   0  0  0  0  0  0  0  0  0  0  0  0
  -18.7199  -32.0423   23.1203 C   0  0  0  0  0  0  0  0  0  0  0  0
  -22.8693  -27.0696   20.5571 C   0  0  0  0  0  0  0  0  0  0  0  0
  -24.3108  -26.1952   22.9866 C   0  0  0  0  0  0  0  0  0  0  0  0
  -19.3103  -30.9062   23.9517 C   0  0  0  0  0  0  0  0  0  0  0  0
  -24.6374  -22.3266   18.0571 C   0  0  0  0  0  0  0  0  0  0  0  0
  -32.9479  -14.3665   21.5662 C   0  0  0  0  0  0  0  0  0  0  0  0
  -33.9475  -14.9577   22.5397 C   0  0  0  0  0  0  0  0  0  0  0  0
  -32.2956  -25.2362   20.9825 C   0  0  0  0  0  0  0  0  0  0  0  0
  -20.8315  -31.0106   23.9942 C   0  0  0  0  0  0  0  0  0  0  0  0
  -24.1429  -20.9654   17.5682 C   0  0  0  0  0  0  0  0  0  0  0  0
  -31.4387  -26.3295   20.3758 C   0  0  0  0  0  0  0  0  0  0  0  0
  -25.9349  -22.7478   17.3836 C   0  0  0  0  0  0  0  0  0  0  0  0
  -26.6117  -20.3695   17.7450 C   0  0  0  0  0  0  0  0  0  0  0  0
  -31.7017  -15.1817   21.8374 C   0  0  0  0  0  0  0  0  0  0  0  0
  -33.6911  -16.4528   22.4692 C   0  0  0  0  0  0  0  0  0  0  0  0
  -31.2877  -24.1876   21.4119 C   0  0  0  0  0  0  0  0  0  0  0  0
  -21.4324  -30.8893   22.5886 C   0  0  1  0  0  0  0  0  0  0  0  0
  -22.2716  -27.2394   21.9504 C   0  0  1  0  0  0  0  0  0  0  0  0
  -25.2774  -20.0674   17.0432 C   0  0  1  0  0  0  0  0  0  0  0  0
  -30.4200  -25.5447   19.5626 C   0  0  2  0  0  0  0  0  0  0  0  0
  -31.5705  -19.6339   21.0895 C   0  0  0  0  0  0  0  0  0  0  0  0
  -27.5348  -22.4911   20.6053 C   0  0  0  0  0  0  0  0  0  0  0  0
  -22.5904  -20.4511   25.6680 C   0  0  0  0  0  0  0  0  0  0  0  0
  -22.7698  -27.0146   26.5397 C   0  0  0  0  0  0  0  0  0  0  0  0
  -23.0945  -24.7162   27.4780 C   0  0  0  0  0  0  0  0  0  0  0  0
  -20.8434  -25.4251   26.6700 C   0  0  0  0  0  0  0  0  0  0  0  0
  -30.6515  -21.4274   17.0033 C   0  0  0  0  0  0  0  0  0  0  0  0
  -23.1416  -21.0322   21.9485 C   0  0  0  0  0  0  0  0  0  0  0  0
  -31.4022  -17.4146   22.9649 C   0  0  0  0  0  0  0  0  0  0  0  0
  -29.1386  -26.3109   19.2907 C   0  0  0  0  0  0  0  0  0  1  0  0
  -29.8585  -23.0796   19.6496 C   0  0  0  0  0  0  0  0  0  0  0  0
  -28.9939  -22.0727   20.4190 C   0  0  2  0  0  0  0  0  0  0  0  0
  -22.6717  -24.9527   24.9888 C   0  0  1  0  0  0  0  0  0  0  0  0
  -22.5087  -21.2185   24.3576 C   0  0  2  0  0  0  0  0  0  0  0  0
  -22.3592  -25.5355   26.3960 C   0  0  0  0  0  0  0  0  0  0  0  0
  -25.2631  -17.8933   18.2090 N   0  0  0  0  0  0  0  0  0  0  0  0
  -29.2908  -20.3128   18.6112 N   0  0  0  0  0  0  0  0  0  0  0  0
  -24.9060  -18.5973   17.1213 N   0  0  0  0  0  0  0  0  0  0  0  0
  -22.8443  -26.3118   22.9280 N   0  0  0  0  0  0  0  0  0  0  0  0
  -27.0123  -21.7787   17.6033 N   0  0  0  0  0  0  0  0  0  0  0  0
  -23.7941  -18.4196   15.0374 N   0  0  0  0  0  0  0  0  0  0  0  0
  -24.2675  -14.6602   15.2327 N   0  0  0  0  0  0  0  0  0  0  0  0
  -21.4497  -29.5058   22.1641 N   0  0  0  0  0  0  0  0  0  0  0  0
  -22.2687  -23.5614   24.8153 N   0  0  0  0  0  0  0  0  0  0  0  0
  -29.3704  -21.3075   17.6863 N   0  0  0  0  0  0  0  0  0  0  0  0
  -32.2384  -16.5804   22.0485 N   0  3  0  0  0  0  0  0  0  0  0  0
  -30.1351  -24.3273   20.4317 N   0  3  1  0  0  0  0  0  0  0  0  0
  -23.1688  -20.4071   23.2959 N   0  3  0  0  0  0  0  0  0  0  0  0
  -22.2806  -15.2238   16.2294 O   0  0  0  0  0  0  0  0  0  0  0  0
  -23.4510  -28.8775   23.1754 O   0  0  0  0  0  0  0  0  0  0  0  0
  -20.7680  -25.8079   23.8613 O   0  0  0  0  0  0  0  0  0  0  0  0
  -24.3743  -22.7516   24.2790 O   0  0  0  0  0  0  0  0  0  0  0  0
  -28.5876  -23.4049   17.1834 O   0  0  0  0  0  0  0  0  0  0  0  0
  -25.5136  -12.5333   21.6381 O   0  0  0  0  0  0  0  0  0  0  0  0
  -28.5290  -26.6390   20.5287 O   0  0  0  0  0  0  0  0  0  1  0  0
  -22.4644   -7.9803   21.0237 F   0  0  0  0  0  0  0  0  0  0  0  0
  -25.6663  -11.0253   19.3262 F   0  0  0  0  0  0  0  0  0  0  0  0
  1  2  1  0  0  0  0
  1  7  2  0  0  0  0
  2  8  2  0  0  0  0
  3  6  2  0  0  0  0
  3 10  1  0  0  0  0
  4 11  2  0  0  0  0
  4 18  1  0  0  0  0
  5 12  1  0  0  0  0
  5 18  2  0  0  0  0
  6 19  1  0  0  0  0
  7 21  1  0  0  0  0
  8 23  1  0  0  0  0
  9 13  2  0  0  0  0
  9 22  1  0  0  0  0
 10 25  2  0  0  0  0
 11 27  1  0  0  0  0
 12 27  2  0  0  0  0
 13 28  1  0  0  0  0
 14 15  2  0  0  0  0
 14 29  1  0  0  0  0
 15 30  1  0  0  0  0
 16 24  1  0  0  0  0
 16 28  2  0  0  0  0
 17 30  2  0  0  0  0
 17 31  1  0  0  0  0
 18 32  1  0  0  0  0
 19 26  2  0  0  0  0
 19 34  1  0  0  0  0
 20 32  1  0  0  0  0
 20 33  2  0  0  0  0
 20 35  1  0  0  0  0
 21 23  2  0  0  0  0
 21 40  1  0  0  0  0
 22 24  2  0  0  0  0
 22 41  1  0  0  0  0
 23 56  1  0  0  0  0
 24 42  1  0  0  0  0
 25 26  1  0  0  0  0
 25 68  1  0  0  0  0
 26 60  1  0  0  0  0
 27 93  1  0  0  0  0
 28 94  1  0  0  0  0
 29 31  2  0  0  0  0
 29 93  1  0  0  0  0
 30 95  1  0  0  0  0
 31 96  1  0  0  0  0
 32 75  2  0  0  0  0
 33 77  1  0  0  0  0
 33 80  1  0  0  0  0
 34 71  1  0  0  0  0
 34 76  2  0  0  0  0
 35 81  1  0  0  0  0
 35 88  2  0  0  0  0
 36 57  1  0  0  0  0
 36 82  1  0  0  0  0
 36 89  2  0  0  0  0
 37 72  1  0  0  0  0
 37 78  1  0  0  0  0
 37 90  2  0  0  0  0
 38 73  1  0  0  0  0
 38 83  1  0  0  0  0
 38 91  2  0  0  0  0
 39 79  1  0  0  0  0
 39 84  1  0  0  0  0
 39 92  2  0  0  0  0
 40 43  1  0  0  0  0
 41 57  1  0  0  0  0
 42 78  1  0  0  0  0
 43 48  1  0  0  0  0
 44 49  1  0  0  0  0
 44 51  1  0  0  0  0
 45 46  1  0  0  0  0
 45 53  1  0  0  0  0
 46 54  1  0  0  0  0
 47 50  1  0  0  0  0
 47 55  1  0  0  0  0
 48 56  1  0  0  0  0
 49 58  1  0  0  0  0
 50 59  1  0  0  0  0
 51 79  1  0  0  0  0
 52 58  1  0  0  0  0
 52 79  1  0  0  0  0
 53 85  1  0  0  0  0
 54 85  1  0  0  0  0
 55 86  1  0  0  0  0
 56 82  1  0  0  0  0
 57 78  1  0  0  0  0
 58 77  1  0  0  0  0
 59 69  1  0  0  0  0
 59 86  1  0  0  0  0
 61 71  1  0  0  0  0
 62 73  1  0  0  0  0
 63 74  1  0  0  0  0
 64 74  1  0  0  0  0
 65 74  1  0  0  0  0
 66 84  1  0  0  0  0
 67 87  1  0  0  0  0
 68 85  1  0  0  0  0
 69 94  1  0  0  0  0
 70 71  1  0  0  0  0
 70 86  1  0  0  0  0
 72 74  1  0  0  0  0
 72 83  1  0  0  0  0
 73 87  1  0  0  0  0
 75 77  1  0  0  0  0
 76 84  1  0  0  0  0
M  CHG  3  85   1  86   1  87   1
M  ISO  4  39 100  69 101  84 100  94 101
M  END
> <Batch ID>
0024

> <Smiles>
CNC(C)C(=O)NC(C(=O)N1Cc2cc([101O:1][101CH2:1]C3CCCN3CC(C)C(=N[100N:0](C)[100C:0](=O)N3CCCC(n4nc(-c5ccc(Oc6ccc(F)cc6F)cc5)c(C(N)=O)c4N)C3)c3cccc(CN4CCCC4)c3C)ccc2CC1C(=O)NC1CCCc2ccccc21)C(C)(C)C

> <Shape>
0.204

> <Color>
0.057

> <Negative vol penalty>
0.000

$$$$

  -OEChem-04042321203D

 86 95  0     1  0  0  0  0  0999 V2000
  -19.3582  -30.9899   23.1929 C   0  0  0  0  0  0  0  0  0  0  0  0
  -20.7295  -30.7556   23.1868 C   0  0  0  0  0  0  0  0  0  0  0  0
  -26.1755  -15.8723   20.4042 C   0  0  0  0  0  0  0  0  0  0  0  0
  -28.1717  -14.8077   21.2523 C   0  0  0  0  0  0  0  0  0  0  0  0
  -18.4700  -29.9286   23.0230 C   0  0  0  0  0  0  0  0  0  0  0  0
  -21.2134  -29.4596   23.0118 C   0  0  0  0  0  0  0  0  0  0  0  0
  -25.0687  -29.2515   19.7347 C   0  0  0  0  0  0  0  0  0  0  0  0
  -30.1323  -25.8573   22.8516 C   0  0  0  0  0  0  0  0  0  0  0  0
  -30.2473  -27.2385   23.0091 C   0  0  0  0  0  0  0  0  0  0  0  0
  -25.5266  -14.6378   20.3818 C   0  0  0  0  0  0  0  0  0  0  0  0
  -27.5228  -13.5732   21.2299 C   0  0  0  0  0  0  0  0  0  0  0  0
  -26.3216  -29.6489   20.1995 C   0  0  0  0  0  0  0  0  0  0  0  0
  -25.4492  -11.9006   18.4003 C   0  0  0  0  0  0  0  0  0  0  0  0
  -24.7047  -11.5812   17.2648 C   0  0  0  0  0  0  0  0  0  0  0  0
  -26.9368  -27.3359   20.5008 C   0  0  0  0  0  0  0  0  0  0  0  0
  -28.0312  -25.8964   24.0436 C   0  0  0  0  0  0  0  0  0  0  0  0
  -22.7154  -11.3914   18.6227 C   0  0  0  0  0  0  0  0  0  0  0  0
  -27.4981  -15.9573   20.8394 C   0  0  0  0  0  0  0  0  0  0  0  0
  -28.4103  -18.0855   19.7689 C   0  0  0  0  0  0  0  0  0  0  0  0
  -18.9436  -28.6204   22.8362 C   0  0  0  0  0  0  0  0  0  0  0  0
  -24.7359  -27.8914   19.6596 C   0  0  0  0  0  0  0  0  0  0  0  0
  -20.3308  -28.3796   22.8405 C   0  0  0  0  0  0  0  0  0  0  0  0
  -25.6799  -26.9238   20.0323 C   0  0  0  0  0  0  0  0  0  0  0  0
  -29.0241  -25.1863   23.3688 C   0  0  0  0  0  0  0  0  0  0  0  0
  -28.1462  -27.2776   24.2012 C   0  0  0  0  0  0  0  0  0  0  0  0
  -29.2543  -27.9486   23.6839 C   0  0  0  0  0  0  0  0  0  0  0  0
  -26.2002  -13.4882   20.7947 C   0  0  0  0  0  0  0  0  0  0  0  0
  -27.2548  -28.6912   20.5854 C   0  0  0  0  0  0  0  0  0  0  0  0
  -24.8269  -11.9654   19.6470 C   0  0  0  0  0  0  0  0  0  0  0  0
  -23.3378  -11.3266   17.3760 C   0  0  0  0  0  0  0  0  0  0  0  0
  -23.4600  -11.7108   19.7581 C   0  0  0  0  0  0  0  0  0  0  0  0
  -28.1691  -17.2321   20.8622 C   0  0  0  0  0  0  0  0  0  0  0  0
  -29.0734  -19.1592   20.3112 C   0  0  0  0  0  0  0  0  0  0  0  0
  -28.0658  -17.9223   18.3868 C   0  0  0  0  0  0  0  0  0  0  0  0
  -22.5372  -26.0416   21.0190 C   0  0  0  0  0  0  0  0  0  0  0  0
  -23.7243  -23.8065   18.9898 C   0  0  0  0  0  0  0  0  0  0  0  0
  -29.5457  -22.9910   24.3589 C   0  0  0  0  0  0  0  0  0  0  0  0
  -26.3444  -22.7122   17.0965 C   0  0  0  0  0  0  0  0  0  0  0  0
  -17.9442  -27.4986   22.7038 C   0  0  0  0  0  0  0  0  0  0  0  0
  -23.3898  -27.4783   19.1308 C   0  0  0  0  0  0  0  0  0  0  0  0
  -25.3793  -25.4502   19.9515 C   0  0  0  0  0  0  0  0  0  0  0  0
  -18.5454  -26.2095   22.1497 C   0  0  0  0  0  0  0  0  0  0  0  0
  -31.1135  -19.8121   24.8850 C   0  0  0  0  0  0  0  0  0  0  0  0
  -30.2037  -31.2452   24.8891 C   0  0  0  0  0  0  0  0  0  0  0  0
  -19.8576  -25.8853   22.8567 C   0  0  0  0  0  0  0  0  0  0  0  0
  -30.4848  -18.9203   23.8152 C   0  0  0  0  0  0  0  0  0  0  0  0
  -29.7777  -31.6237   23.4817 C   0  0  0  0  0  0  0  0  0  0  0  0
  -29.4419  -29.9507   25.1461 C   0  0  0  0  0  0  0  0  0  0  0  0
  -30.1130  -20.8312   25.4211 C   0  0  0  0  0  0  0  0  0  0  0  0
  -28.8527  -20.7879   23.2924 C   0  0  0  0  0  0  0  0  0  0  0  0
  -20.8949  -26.9915   22.6287 C   0  0  1  0  0  0  0  0  0  0  0  0
  -22.9736  -26.0815   19.5818 C   0  0  1  0  0  0  0  0  0  0  0  0
  -29.8384  -19.7640   22.7022 C   0  0  2  0  0  0  0  0  0  0  0  0
  -29.6680  -30.2733   22.7525 C   0  0  2  0  0  0  0  0  0  0  0  0
  -27.0680  -28.0133   24.9282 C   0  0  0  0  0  0  0  0  0  0  0  0
  -27.5941  -21.2852   15.4536 C   0  0  0  0  0  0  0  0  0  0  0  0
  -24.1163  -21.9951   21.4136 C   0  0  0  0  0  0  0  0  0  0  0  0
  -25.6349  -20.5747   20.0191 C   0  0  0  0  0  0  0  0  0  0  0  0
  -23.2387  -20.8380   19.3775 C   0  0  0  0  0  0  0  0  0  0  0  0
  -25.4565  -24.3658   14.8082 C   0  0  0  0  0  0  0  0  0  0  0  0
  -28.5556  -30.3336   21.7106 C   0  0  0  0  0  0  0  0  0  1  0  0
  -24.8277  -22.7785   19.0585 C   0  0  1  0  0  0  0  0  0  0  0  0
  -26.4149  -22.2228   15.6613 C   0  0  2  0  0  0  0  0  0  0  0  0
  -28.9015  -23.7096   23.2002 C   0  0  0  0  0  0  0  0  0  0  0  0
  -24.4597  -21.5743   19.9706 C   0  0  0  0  0  0  0  0  0  0  0  0
  -28.6407  -17.7214   22.0121 N   0  0  0  0  0  0  0  0  0  0  0  0
  -29.1850  -18.8938   21.6443 N   0  0  0  0  0  0  0  0  0  0  0  0
  -29.3846  -29.3153   23.8305 N   0  0  3  0  0  0  0  0  0  0  0  0
  -24.0471  -25.0966   19.4340 N   0  0  0  0  0  0  0  0  0  0  0  0
  -29.5047  -21.5968   24.3315 N   0  0  0  0  0  0  0  0  0  0  0  0
  -29.5661  -20.2949   19.7729 N   0  0  0  0  0  0  0  0  0  0  0  0
  -28.9822  -17.2831   17.5407 N   0  0  0  0  0  0  0  0  0  0  0  0
  -21.4745  -26.8763   21.3077 N   0  0  0  0  0  0  0  0  0  0  0  0
  -25.1312  -22.4126   17.6793 N   0  0  0  0  0  0  0  0  0  0  0  0
  -26.5606  -23.3752   14.7276 N   0  3  0  0  0  0  0  0  0  0  0  0
  -26.9845  -18.3459   17.9125 O   0  0  0  0  0  0  0  0  0  0  0  0
  -23.1205  -25.3067   21.8073 O   0  0  0  0  0  0  0  0  0  0  0  0
  -22.6189  -23.4788   18.5512 O   0  0  0  0  0  0  0  0  0  0  0  0
  -30.0717  -23.6507   25.2591 O   0  0  0  0  0  0  0  0  0  0  0  0
  -27.2741  -23.2982   17.6469 O   0  0  0  0  0  0  0  0  0  0  0  0
  -25.5673  -12.2835   20.7731 O   0  0  0  0  0  0  0  0  0  0  0  0
  -28.4783  -29.0764   21.0401 O   0  0  0  0  0  0  0  0  0  1  0  0
  -22.6226  -11.0214   16.2854 F   0  0  0  0  0  0  0  0  0  0  0  0
  -22.8563  -11.7727   20.9529 F   0  0  0  0  0  0  0  0  0  0  0  0
  -27.5961  -23.2961   23.1031 F   0  0  0  0  0  0  0  0  0  0  0  0
  -29.4763  -23.2619   22.0367 F   0  0  0  0  0  0  0  0  0  0  0  0
  1  2  1  0  0  0  0
  1  5  2  0  0  0  0
  2  6  2  0  0  0  0
  3 10  2  0  0  0  0
  3 18  1  0  0  0  0
  4 11  1  0  0  0  0
  4 18  2  0  0  0  0
  5 20  1  0  0  0  0
  6 22  1  0  0  0  0
  7 12  2  0  0  0  0
  7 21  1  0  0  0  0
  8  9  2  0  0  0  0
  8 24  1  0  0  0  0
  9 26  1  0  0  0  0
 10 27  1  0  0  0  0
 11 27  2  0  0  0  0
 12 28  1  0  0  0  0
 13 14  2  0  0  0  0
 13 29  1  0  0  0  0
 14 30  1  0  0  0  0
 15 23  1  0  0  0  0
 15 28  2  0  0  0  0
 16 24  2  0  0  0  0
 16 25  1  0  0  0  0
 17 30  2  0  0  0  0
 17 31  1  0  0  0  0
 18 32  1  0  0  0  0
 19 32  1  0  0  0  0
 19 33  2  0  0  0  0
 19 34  1  0  0  0  0
 20 22  2  0  0  0  0
 20 39  1  0  0  0  0
 21 23  2  0  0  0  0
 21 40  1  0  0  0  0
 22 51  1  0  0  0  0
 23 41  1  0  0  0  0
 24 64  1  0  0  0  0
 25 26  2  0  0  0  0
 25 55  1  0  0  0  0
 26 68  1  0  0  0  0
 27 81  1  0  0  0  0
 28 82  1  0  0  0  0
 29 31  2  0  0  0  0
 29 81  1  0  0  0  0
 30 83  1  0  0  0  0
 31 84  1  0  0  0  0
 32 66  2  0  0  0  0
 33 67  1  0  0  0  0
 33 71  1  0  0  0  0
 34 72  1  0  0  0  0
 34 76  2  0  0  0  0
 35 52  1  0  0  0  0
 35 73  1  0  0  0  0
 35 77  2  0  0  0  0
 36 62  1  0  0  0  0
 36 69  1  0  0  0  0
 36 78  2  0  0  0  0
 37 64  1  0  0  0  0
 37 70  1  0  0  0  0
 37 79  2  0  0  0  0
 38 63  1  0  0  0  0
 38 74  1  0  0  0  0
 38 80  2  0  0  0  0
 39 42  1  0  0  0  0
 40 52  1  0  0  0  0
 41 69  1  0  0  0  0
 42 45  1  0  0  0  0
 43 46  1  0  0  0  0
 43 49  1  0  0  0  0
 44 47  1  0  0  0  0
 44 48  1  0  0  0  0
 45 51  1  0  0  0  0
 46 53  1  0  0  0  0
 47 54  1  0  0  0  0
 48 68  1  0  0  0  0
 49 70  1  0  0  0  0
 50 53  1  0  0  0  0
 50 70  1  0  0  0  0
 51 73  1  0  0  0  0
 52 69  1  0  0  0  0
 53 67  1  0  0  0  0
 54 61  1  0  0  0  0
 54 68  1  0  0  0  0
 56 63  1  0  0  0  0
 57 65  1  0  0  0  0
 58 65  1  0  0  0  0
 59 65  1  0  0  0  0
 60 75  1  0  0  0  0
 61 82  1  0  0  0  0
 62 65  1  0  0  0  0
 62 74  1  0  0  0  0
 63 75  1  0  0  0  0
 64 85  1  0  0  0  0
 64 86  1  0  0  0  0
 66 67  1  0  0  0  0
M  CHG  1  75   1
M  ISO  4  37 100  61 101  64 100  82 101
M  END
> <Batch ID>
0024

> <Smiles>
CNC(C)C(=O)NC(C(=O)N1Cc2cc([101O:1][101CH2:1]C3CCCN3c3ccc([100C:0](F)(F)[100C:0](=O)N4CCCC(n5nc(-c6ccc(Oc7ccc(F)cc7F)cc6)c(C(N)=O)c5N)C4)cc3C)ccc2CC1C(=O)NC1CCCc2ccccc21)C(C)(C)C

> <Shape>
0.196

> <Color>
0.067

> <Negative vol penalty>
0.000

$$$$

  -OEChem-04042321203D

 85 94  0     1  0  0  0  0  0999 V2000
  -22.7652  -38.0690   23.0684 C   0  0  0  0  0  0  0  0  0  0  0  0
  -23.4827  -37.6716   21.9447 C   0  0  0  0  0  0  0  0  0  0  0  0
  -22.8461  -12.3946   22.7981 C   0  0  0  0  0  0  0  0  0  0  0  0
  -24.6159  -10.9881   23.6505 C   0  0  0  0  0  0  0  0  0  0  0  0
  -22.7489  -37.2618   24.2051 C   0  0  0  0  0  0  0  0  0  0  0  0
  -24.1852  -36.4672   21.9575 C   0  0  0  0  0  0  0  0  0  0  0  0
  -26.6395  -29.6019   18.7604 C   0  0  0  0  0  0  0  0  0  0  0  0
  -30.0365  -19.6625   19.1811 C   0  0  0  0  0  0  0  0  0  0  0  0
  -29.9376  -18.2737   19.0972 C   0  0  0  0  0  0  0  0  0  0  0  0
  -22.2334  -12.3830   24.0511 C   0  0  0  0  0  0  0  0  0  0  0  0
  -24.0032  -10.9765   24.9035 C   0  0  0  0  0  0  0  0  0  0  0  0
  -27.5565  -28.5745   18.9776 C   0  0  0  0  0  0  0  0  0  0  0  0
  -21.4156   -9.3938   26.3969 C   0  0  0  0  0  0  0  0  0  0  0  0
  -21.3150   -8.1696   27.0578 C   0  0  0  0  0  0  0  0  0  0  0  0
  -26.4818  -28.0673   21.0769 C   0  0  0  0  0  0  0  0  0  0  0  0
  -27.6303  -19.8412   19.0579 C   0  0  0  0  0  0  0  0  0  0  0  0
  -22.6151   -9.0532   28.8925 C   0  0  0  0  0  0  0  0  0  0  0  0
  -24.0374  -11.6971   22.5978 C   0  0  0  0  0  0  0  0  0  0  0  0
  -24.1277  -11.2511   20.0877 C   0  0  0  0  0  0  0  0  0  0  0  0
  -23.4437  -36.0423   24.2284 C   0  0  0  0  0  0  0  0  0  0  0  0
  -25.6418  -29.8773   19.7065 C   0  0  0  0  0  0  0  0  0  0  0  0
  -24.1792  -35.6435   23.0961 C   0  0  0  0  0  0  0  0  0  0  0  0
  -25.5518  -29.0970   20.8681 C   0  0  0  0  0  0  0  0  0  0  0  0
  -27.5314  -18.4524   18.9739 C   0  0  0  0  0  0  0  0  0  0  0  0
  -28.8828  -20.4463   19.1616 C   0  0  0  0  0  0  0  0  0  0  0  0
  -28.6851  -17.6686   18.9935 C   0  0  0  0  0  0  0  0  0  0  0  0
  -22.8119  -11.6740   25.1038 C   0  0  0  0  0  0  0  0  0  0  0  0
  -27.4796  -27.8089   20.1374 C   0  0  0  0  0  0  0  0  0  0  0  0
  -22.1160  -10.4477   26.9837 C   0  0  0  0  0  0  0  0  0  0  0  0
  -21.9147   -7.9993   28.3056 C   0  0  0  0  0  0  0  0  0  0  0  0
  -22.7157  -10.2774   28.2315 C   0  0  0  0  0  0  0  0  0  0  0  0
  -24.6705  -11.7082   21.3035 C   0  0  0  0  0  0  0  0  0  0  0  0
  -25.1169  -11.4797   19.1626 C   0  0  0  0  0  0  0  0  0  0  0  0
  -22.8441  -10.6717   19.8185 C   0  0  0  0  0  0  0  0  0  0  0  0
  -24.8995  -32.3800   21.5202 C   0  0  0  0  0  0  0  0  0  0  0  0
  -22.3169  -30.5703   22.2800 C   0  0  0  0  0  0  0  0  0  0  0  0
  -21.6596  -27.1027   23.0291 C   0  0  0  0  0  0  0  0  0  0  0  0
  -29.6642  -15.3486   18.9202 C   0  0  0  0  0  0  0  0  0  0  0  0
  -23.4352  -35.2261   25.4967 C   0  0  0  0  0  0  0  0  0  0  0  0
  -24.6437  -30.9717   19.4448 C   0  0  0  0  0  0  0  0  0  0  0  0
  -24.4869  -29.3390   21.9054 C   0  0  0  0  0  0  0  0  0  0  0  0
  -23.8995  -33.7857   25.2972 C   0  0  0  0  0  0  0  0  0  0  0  0
  -29.8794  -11.7977   18.7736 C   0  0  0  0  0  0  0  0  0  0  0  0
  -25.1736  -33.7466   24.4594 C   0  0  0  0  0  0  0  0  0  0  0  0
  -28.5165  -11.3302   19.2894 C   0  0  0  0  0  0  0  0  0  0  0  0
  -28.0038  -23.9561   20.0521 C   0  0  0  0  0  0  0  0  0  0  0  0
  -29.8550  -23.9721   18.3682 C   0  0  0  0  0  0  0  0  0  0  0  0
  -30.3698  -13.0410   19.5135 C   0  0  0  0  0  0  0  0  0  0  0  0
  -28.3182  -22.4979   20.3799 C   0  0  0  0  0  0  0  0  0  0  0  0
  -30.1635  -22.5115   18.6946 C   0  0  0  0  0  0  0  0  0  0  0  0
  -28.0575  -13.6936   20.0582 C   0  0  0  0  0  0  0  0  0  0  0  0
  -24.9336  -34.3321   23.0626 C   0  0  1  0  0  0  0  0  0  0  0  0
  -23.9863  -31.4976   20.7170 C   0  0  1  0  0  0  0  0  0  0  0  0
  -29.2459  -24.7067   19.5648 C   0  0  0  0  0  0  0  0  0  0  0  0
  -27.4923  -12.4820   19.2990 C   0  0  2  0  0  0  0  0  0  0  0  0
  -26.1766  -17.8311   18.8652 C   0  0  0  0  0  0  0  0  0  0  0  0
  -19.5731  -25.7385   22.7411 C   0  0  0  0  0  0  0  0  0  0  0  0
  -21.7669  -31.3293   25.1837 C   0  0  0  0  0  0  0  0  0  0  0  0
  -20.8696  -29.0199   25.5444 C   0  0  0  0  0  0  0  0  0  0  0  0
  -19.7608  -30.5461   23.9122 C   0  0  0  0  0  0  0  0  0  0  0  0
  -23.0731  -25.0708   21.4067 C   0  0  0  0  0  0  0  0  0  0  0  0
  -28.9022  -26.1491   19.2007 C   0  0  0  0  0  0  0  0  0  1  0  0
  -22.0079  -29.5394   23.3386 C   0  0  1  0  0  0  0  0  0  0  0  0
  -20.9252  -26.1065   22.1501 C   0  0  2  0  0  0  0  0  0  0  0  0
  -21.1278  -30.1126   24.4850 C   0  0  0  0  0  0  0  0  0  0  0  0
  -25.9085  -12.1906   21.1665 N   0  0  0  0  0  0  0  0  0  0  0  0
  -26.1518  -12.0378   19.8537 N   0  0  0  0  0  0  0  0  0  0  0  0
  -28.9822  -21.8408   19.2465 N   0  0  0  0  0  0  0  0  0  0  0  0
  -23.5381  -30.4245   21.6069 N   0  0  0  0  0  0  0  0  0  0  0  0
  -29.3496  -14.0911   19.4774 N   0  0  0  0  0  0  0  0  0  0  0  0
  -25.1937  -11.2558   17.8335 N   0  0  0  0  0  0  0  0  0  0  0  0
  -21.9482  -10.5085   20.8839 N   0  0  0  0  0  0  0  0  0  0  0  0
  -28.6056  -16.2563   18.9110 N   0  0  0  0  0  0  0  0  0  0  0  0
  -24.2462  -33.3735   22.2241 N   0  0  0  0  0  0  0  0  0  0  0  0
  -21.4153  -28.4032   22.6413 N   0  0  0  0  0  0  0  0  0  0  0  0
  -21.7271  -24.8595   21.9989 N   0  3  0  0  0  0  0  0  0  0  0  0
  -22.5081  -10.2944   18.6704 O   0  0  0  0  0  0  0  0  0  0  0  0
  -26.1074  -32.1737   21.5036 O   0  0  0  0  0  0  0  0  0  0  0  0
  -21.5014  -31.4677   22.0535 O   0  0  0  0  0  0  0  0  0  0  0  0
  -22.3752  -26.7616   23.9683 O   0  0  0  0  0  0  0  0  0  0  0  0
  -30.7819  -15.5926   18.4585 O   0  0  0  0  0  0  0  0  0  0  0  0
  -22.2144  -11.6627   26.3267 O   0  0  0  0  0  0  0  0  0  0  0  0
  -28.3738  -26.8058   20.3522 O   0  0  0  0  0  0  0  0  0  1  0  0
  -21.8166   -6.8241   28.9409 F   0  0  0  0  0  0  0  0  0  0  0  0
  -23.3889  -11.2866   28.8009 F   0  0  0  0  0  0  0  0  0  0  0  0
  1  2  1  0  0  0  0
  1  5  2  0  0  0  0
  2  6  2  0  0  0  0
  3 10  2  0  0  0  0
  3 18  1  0  0  0  0
  4 11  1  0  0  0  0
  4 18  2  0  0  0  0
  5 20  1  0  0  0  0
  6 22  1  0  0  0  0
  7 12  2  0  0  0  0
  7 21  1  0  0  0  0
  8  9  2  0  0  0  0
  8 25  1  0  0  0  0
  9 26  1  0  0  0  0
 10 27  1  0  0  0  0
 11 27  2  0  0  0  0
 12 28  1  0  0  0  0
 13 14  2  0  0  0  0
 13 29  1  0  0  0  0
 14 30  1  0  0  0  0
 15 23  1  0  0  0  0
 15 28  2  0  0  0  0
 16 24  1  0  0  0  0
 16 25  2  0  0  0  0
 17 30  2  0  0  0  0
 17 31  1  0  0  0  0
 18 32  1  0  0  0  0
 19 32  1  0  0  0  0
 19 33  2  0  0  0  0
 19 34  1  0  0  0  0
 20 22  2  0  0  0  0
 20 39  1  0  0  0  0
 21 23  2  0  0  0  0
 21 40  1  0  0  0  0
 22 52  1  0  0  0  0
 23 41  1  0  0  0  0
 24 26  2  0  0  0  0
 24 56  1  0  0  0  0
 25 68  1  0  0  0  0
 26 73  1  0  0  0  0
 27 82  1  0  0  0  0
 28 83  1  0  0  0  0
 29 31  2  0  0  0  0
 29 82  1  0  0  0  0
 30 84  1  0  0  0  0
 31 85  1  0  0  0  0
 32 66  2  0  0  0  0
 33 67  1  0  0  0  0
 33 71  1  0  0  0  0
 34 72  1  0  0  0  0
 34 77  2  0  0  0  0
 35 53  1  0  0  0  0
 35 74  1  0  0  0  0
 35 78  2  0  0  0  0
 36 63  1  0  0  0  0
 36 69  1  0  0  0  0
 36 79  2  0  0  0  0
 37 64  1  0  0  0  0
 37 75  1  0  0  0  0
 37 80  2  0  0  0  0
 38 70  1  0  0  0  0
 38 73  1  0  0  0  0
 38 81  2  0  0  0  0
 39 42  1  0  0  0  0
 40 53  1  0  0  0  0
 41 69  1  0  0  0  0
 42 44  1  0  0  0  0
 43 45  1  0  0  0  0
 43 48  1  0  0  0  0
 44 52  1  0  0  0  0
 45 55  1  0  0  0  0
 46 49  1  0  0  0  0
 46 54  1  0  0  0  0
 47 50  1  0  0  0  0
 47 54  1  0  0  0  0
 48 70  1  0  0  0  0
 49 68  1  0  0  0  0
 50 68  1  0  0  0  0
 51 55  1  0  0  0  0
 51 70  1  0  0  0  0
 52 74  1  0  0  0  0
 53 69  1  0  0  0  0
 54 62  1  0  0  0  0
 55 67  1  0  0  0  0
 57 64  1  0  0  0  0
 58 65  1  0  0  0  0
 59 65  1  0  0  0  0
 60 65  1  0  0  0  0
 61 76  1  0  0  0  0
 62 83  1  0  0  0  0
 63 65  1  0  0  0  0
 63 75  1  0  0  0  0
 64 76  1  0  0  0  0
 66 67  1  0  0  0  0
M  CHG  1  76   1
M  ISO  4  38 100  62 101  73 100  83 101
M  END
> <Batch ID>
0024

> <Smiles>
CNC(C)C(=O)NC(C(=O)N1Cc2cc([101O:1][101CH2:1]C3CCN(c4ccc([100NH:0][100C:0](=O)N5CCCC(n6nc(-c7ccc(Oc8ccc(F)cc8F)cc7)c(C(N)=O)c6N)C5)c(C)c4)CC3)ccc2CC1C(=O)NC1CCCc2ccccc21)C(C)(C)C

> <Shape>
0.299

> <Color>
0.091

> <Negative vol penalty>
0.000

$$$$

  -OEChem-04042321203D

 85 94  0     1  0  0  0  0  0999 V2000
  -31.8571  -34.0806   22.1770 C   0  0  0  0  0  0  0  0  0  0  0  0
  -31.7573  -32.8703   21.4984 C   0  0  0  0  0  0  0  0  0  0  0  0
  -22.8555   -9.8745   20.1373 C   0  0  0  0  0  0  0  0  0  0  0  0
  -24.2128   -9.6203   22.1198 C   0  0  0  0  0  0  0  0  0  0  0  0
  -31.0545  -34.3220   23.2912 C   0  0  0  0  0  0  0  0  0  0  0  0
  -30.8555  -31.9001   21.9343 C   0  0  0  0  0  0  0  0  0  0  0  0
  -29.9135  -18.7931   20.1028 C   0  0  0  0  0  0  0  0  0  0  0  0
  -27.6876  -27.9869   18.4476 C   0  0  0  0  0  0  0  0  0  0  0  0
  -29.6429  -20.0207   19.4974 C   0  0  0  0  0  0  0  0  0  0  0  0
  -22.1691   -8.7031   20.4571 C   0  0  0  0  0  0  0  0  0  0  0  0
  -23.5264   -8.4489   22.4396 C   0  0  0  0  0  0  0  0  0  0  0  0
  -27.8981  -26.6512   18.1079 C   0  0  0  0  0  0  0  0  0  0  0  0
  -20.5602   -7.5995   23.8184 C   0  0  0  0  0  0  0  0  0  0  0  0
  -20.1511   -7.4305   25.1411 C   0  0  0  0  0  0  0  0  0  0  0  0
  -29.4866  -21.0515   21.6687 C   0  0  0  0  0  0  0  0  0  0  0  0
  -26.4239  -25.9714   19.8922 C   0  0  0  0  0  0  0  0  0  0  0  0
  -21.4791   -5.4181   25.2947 C   0  0  0  0  0  0  0  0  0  0  0  0
  -23.8774  -10.3331   20.9686 C   0  0  0  0  0  0  0  0  0  0  0  0
  -24.0449  -12.8336   20.4919 C   0  0  0  0  0  0  0  0  0  0  0  0
  -30.1355  -33.3581   23.7352 C   0  0  0  0  0  0  0  0  0  0  0  0
  -26.8508  -28.3250   19.5209 C   0  0  0  0  0  0  0  0  0  0  0  0
  -30.0408  -32.1283   23.0563 C   0  0  0  0  0  0  0  0  0  0  0  0
  -29.9574  -18.6698   21.5033 C   0  0  0  0  0  0  0  0  0  0  0  0
  -29.7704  -19.8244   22.2902 C   0  0  0  0  0  0  0  0  0  0  0  0
  -26.2024  -27.3122   20.2419 C   0  0  0  0  0  0  0  0  0  0  0  0
  -29.4234  -21.1485   20.2803 C   0  0  0  0  0  0  0  0  0  0  0  0
  -22.5045   -7.9904   21.6082 C   0  0  0  0  0  0  0  0  0  0  0  0
  -27.2685  -25.6431   18.8321 C   0  0  0  0  0  0  0  0  0  0  0  0
  -21.4288   -6.6778   23.2338 C   0  0  0  0  0  0  0  0  0  0  0  0
  -20.6105   -6.3399   25.8793 C   0  0  0  0  0  0  0  0  0  0  0  0
  -21.8883   -5.5871   23.9720 C   0  0  0  0  0  0  0  0  0  0  0  0
  -24.5873  -11.5428   20.6385 C   0  0  0  0  0  0  0  0  0  0  0  0
  -25.1228  -13.6253   20.1790 C   0  0  0  0  0  0  0  0  0  0  0  0
  -22.6882  -13.2772   20.6265 C   0  0  0  0  0  0  0  0  0  0  0  0
  -27.2553  -29.8230   22.2951 C   0  0  0  0  0  0  0  0  0  0  0  0
  -24.0306  -29.5251   22.4812 C   0  0  0  0  0  0  0  0  0  0  0  0
  -21.2153  -27.8525   21.5203 C   0  0  0  0  0  0  0  0  0  0  0  0
  -30.3366  -15.2284   20.8537 C   0  0  0  0  0  0  0  0  0  0  0  0
  -29.3228  -33.6457   24.9728 C   0  0  0  0  0  0  0  0  0  0  0  0
  -26.6131  -29.7716   19.8577 C   0  0  0  0  0  0  0  0  0  0  0  0
  -29.8197  -19.7745   23.7970 C   0  0  0  0  0  0  0  0  0  0  0  0
  -25.2785  -27.6232   21.3900 C   0  0  0  0  0  0  0  0  0  0  0  0
  -28.1262  -32.7139   25.1458 C   0  0  0  0  0  0  0  0  0  0  0  0
  -30.5402  -18.5395   24.3283 C   0  0  0  0  0  0  0  0  0  0  0  0
  -29.8518  -12.4096   18.8926 C   0  0  0  0  0  0  0  0  0  0  0  0
  -28.5402  -31.2643   24.9130 C   0  0  0  0  0  0  0  0  0  0  0  0
  -30.0019  -17.2890   23.6468 C   0  0  0  0  0  0  0  0  0  0  0  0
  -28.3960  -12.0260   19.1540 C   0  0  0  0  0  0  0  0  0  0  0  0
  -30.5367  -12.8553   20.1791 C   0  0  0  0  0  0  0  0  0  0  0  0
  -28.3879  -13.6253   21.1337 C   0  0  0  0  0  0  0  0  0  0  0  0
  -29.0569  -31.0608   23.4836 C   0  0  1  0  0  0  0  0  0  0  0  0
  -30.2844  -17.3311   22.1397 C   0  0  1  0  0  0  0  0  0  0  0  0
  -26.1455  -29.9814   21.2946 C   0  0  1  0  0  0  0  0  0  0  0  0
  -27.6442  -13.1664   19.8626 C   0  0  2  0  0  0  0  0  0  0  0  0
  -18.7303  -27.8162   21.8679 C   0  0  0  0  0  0  0  0  0  0  0  0
  -24.4339  -28.2223   25.2107 C   0  0  0  0  0  0  0  0  0  0  0  0
  -22.0837  -27.3701   25.0737 C   0  0  0  0  0  0  0  0  0  0  0  0
  -22.5188  -29.8263   25.0932 C   0  0  0  0  0  0  0  0  0  0  0  0
  -28.1673  -16.1059   21.8176 C   0  0  0  0  0  0  0  0  0  0  0  0
  -20.6901  -28.3807   18.6560 C   0  0  0  0  0  0  0  0  0  0  0  0
  -29.0704  -22.5569   18.2511 C   0  0  0  0  0  0  0  0  0  0  0  0
  -28.7354  -24.0036   17.9287 C   0  0  0  0  0  0  0  0  0  1  0  0
  -23.0828  -28.4840   23.0262 C   0  0  1  0  0  0  0  0  0  0  0  0
  -19.8720  -28.3481   21.0157 C   0  0  2  0  0  0  0  0  0  0  0  0
  -23.0487  -28.4694   24.5806 C   0  0  0  0  0  0  0  0  0  0  0  0
  -25.9070  -11.5118   20.4354 N   0  0  0  0  0  0  0  0  0  0  0  0
  -26.2030  -12.7930   20.1577 N   0  0  0  0  0  0  0  0  0  0  0  0
  -25.0831  -29.0523   21.6847 N   0  0  0  0  0  0  0  0  0  0  0  0
  -29.7931  -13.9355   20.8281 N   0  0  0  0  0  0  0  0  0  0  0  0
  -25.2424  -14.9453   19.9226 N   0  0  0  0  0  0  0  0  0  0  0  0
  -22.2454  -13.6997   21.8874 N   0  0  0  0  0  0  0  0  0  0  0  0
  -29.1484  -22.3667   19.6814 N   0  0  0  0  0  0  0  0  0  0  0  0
  -27.9516  -30.9885   22.5522 N   0  0  0  0  0  0  0  0  0  0  0  0
  -21.7896  -28.7430   22.4026 N   0  0  0  0  0  0  0  0  0  0  0  0
  -29.5880  -16.2264   21.4956 N   0  0  0  0  0  0  0  0  0  0  0  0
  -19.6528  -27.9083   19.6088 N   0  3  0  0  0  0  0  0  0  0  0  0
  -21.8874  -13.2829   19.6610 O   0  0  0  0  0  0  0  0  0  0  0  0
  -27.4634  -28.7249   22.7977 O   0  0  0  0  0  0  0  0  0  0  0  0
  -23.8398  -30.7146   22.7465 O   0  0  0  0  0  0  0  0  0  0  0  0
  -21.7043  -26.7808   21.1698 O   0  0  0  0  0  0  0  0  0  0  0  0
  -31.4341  -15.4773   20.3382 O   0  0  0  0  0  0  0  0  0  0  0  0
  -21.8347   -6.8474   21.9207 O   0  0  0  0  0  0  0  0  0  0  0  0
  -27.4727  -24.3386   18.5030 O   0  0  0  0  0  0  0  0  0  1  0  0
  -20.2188   -6.1785   27.1500 F   0  0  0  0  0  0  0  0  0  0  0  0
  -22.7237   -4.6990   23.4162 F   0  0  0  0  0  0  0  0  0  0  0  0
  1  2  1  0  0  0  0
  1  5  2  0  0  0  0
  2  6  2  0  0  0  0
  3 10  2  0  0  0  0
  3 18  1  0  0  0  0
  4 11  1  0  0  0  0
  4 18  2  0  0  0  0
  5 20  1  0  0  0  0
  6 22  1  0  0  0  0
  7  9  2  0  0  0  0
  7 23  1  0  0  0  0
  8 12  2  0  0  0  0
  8 21  1  0  0  0  0
  9 26  1  0  0  0  0
 10 27  1  0  0  0  0
 11 27  2  0  0  0  0
 12 28  1  0  0  0  0
 13 14  2  0  0  0  0
 13 29  1  0  0  0  0
 14 30  1  0  0  0  0
 15 24  1  0  0  0  0
 15 26  2  0  0  0  0
 16 25  1  0  0  0  0
 16 28  2  0  0  0  0
 17 30  2  0  0  0  0
 17 31  1  0  0  0  0
 18 32  1  0  0  0  0
 19 32  1  0  0  0  0
 19 33  2  0  0  0  0
 19 34  1  0  0  0  0
 20 22  2  0  0  0  0
 20 39  1  0  0  0  0
 21 25  2  0  0  0  0
 21 40  1  0  0  0  0
 22 51  1  0  0  0  0
 23 24  2  0  0  0  0
 23 52  1  0  0  0  0
 24 41  1  0  0  0  0
 25 42  1  0  0  0  0
 26 72  1  0  0  0  0
 27 82  1  0  0  0  0
 28 83  1  0  0  0  0
 29 31  2  0  0  0  0
 29 82  1  0  0  0  0
 30 84  1  0  0  0  0
 31 85  1  0  0  0  0
 32 66  2  0  0  0  0
 33 67  1  0  0  0  0
 33 70  1  0  0  0  0
 34 71  1  0  0  0  0
 34 77  2  0  0  0  0
 35 53  1  0  0  0  0
 35 73  1  0  0  0  0
 35 78  2  0  0  0  0
 36 63  1  0  0  0  0
 36 68  1  0  0  0  0
 36 79  2  0  0  0  0
 37 64  1  0  0  0  0
 37 74  1  0  0  0  0
 37 80  2  0  0  0  0
 38 69  1  0  0  0  0
 38 75  1  0  0  0  0
 38 81  2  0  0  0  0
 39 43  1  0  0  0  0
 40 53  1  0  0  0  0
 41 44  1  0  0  0  0
 42 68  1  0  0  0  0
 43 46  1  0  0  0  0
 44 47  1  0  0  0  0
 45 48  1  0  0  0  0
 45 49  1  0  0  0  0
 46 51  1  0  0  0  0
 47 52  1  0  0  0  0
 48 54  1  0  0  0  0
 49 69  1  0  0  0  0
 50 54  1  0  0  0  0
 50 69  1  0  0  0  0
 51 73  1  0  0  0  0
 52 75  1  0  0  0  0
 53 68  1  0  0  0  0
 54 67  1  0  0  0  0
 55 64  1  0  0  0  0
 56 65  1  0  0  0  0
 57 65  1  0  0  0  0
 58 65  1  0  0  0  0
 59 75  1  0  0  0  0
 60 76  1  0  0  0  0
 61 62  1  0  0  0  0
 61 72  1  0  0  0  0
 62 83  1  0  0  0  0
 63 65  1  0  0  0  0
 63 74  1  0  0  0  0
 64 76  1  0  0  0  0
 66 67  1  0  0  0  0
M  CHG  1  76   1
M  ISO  4  38 100  62 101  75 100  83 101
M  END
> <Batch ID>
0024

> <Smiles>
CNC(C)C(=O)NC(C(=O)N1Cc2cc([101O:1][101CH2:1]CNc3ccc4c(c3)CCCC4[100N:0](C)[100C:0](=O)N3CCCC(n4nc(-c5ccc(Oc6ccc(F)cc6F)cc5)c(C(N)=O)c4N)C3)ccc2CC1C(=O)NC1CCCc2ccccc21)C(C)(C)C

> <Shape>
0.351

> <Color>
0.174

> <Negative vol penalty>
0.000

$$$$

  -OEChem-04042321203D

 86 95  0     1  0  0  0  0  0999 V2000
  -27.1777  -28.2891   18.9108 C   0  0  0  0  0  0  0  0  0  0  0  0
  -26.5259  -27.1330   19.3279 C   0  0  0  0  0  0  0  0  0  0  0  0
  -29.8124  -18.4770   18.5608 C   0  0  0  0  0  0  0  0  0  0  0  0
  -28.5389  -18.7871   20.5904 C   0  0  0  0  0  0  0  0  0  0  0  0
  -26.7904  -29.5283   19.4189 C   0  0  0  0  0  0  0  0  0  0  0  0
  -25.4869  -27.2154   20.2543 C   0  0  0  0  0  0  0  0  0  0  0  0
  -21.5054  -24.3633   18.9667 C   0  0  0  0  0  0  0  0  0  0  0  0
  -29.2578  -19.6436   18.0345 C   0  0  0  0  0  0  0  0  0  0  0  0
  -27.9844  -19.9538   20.0641 C   0  0  0  0  0  0  0  0  0  0  0  0
  -21.5999  -22.9930   19.2055 C   0  0  0  0  0  0  0  0  0  0  0  0
  -28.4512  -22.7341   16.2987 C   0  0  0  0  0  0  0  0  0  0  0  0
  -29.3091  -23.6290   15.6595 C   0  0  0  0  0  0  0  0  0  0  0  0
  -20.2912  -23.2588   21.2145 C   0  0  0  0  0  0  0  0  0  0  0  0
  -30.5747  -23.8752   17.7028 C   0  0  0  0  0  0  0  0  0  0  0  0
  -29.4529  -18.0487   19.8387 C   0  0  0  0  0  0  0  0  0  0  0  0
  -31.2056  -16.7297   21.1410 C   0  0  0  0  0  0  0  0  0  0  0  0
  -25.7397  -29.6269   20.3447 C   0  0  0  0  0  0  0  0  0  0  0  0
  -20.8111  -25.1947   19.8573 C   0  0  0  0  0  0  0  0  0  0  0  0
  -25.0860  -28.4570   20.7763 C   0  0  0  0  0  0  0  0  0  0  0  0
  -20.1871  -24.6390   20.9834 C   0  0  0  0  0  0  0  0  0  0  0  0
  -28.3438  -20.3820   18.7861 C   0  0  0  0  0  0  0  0  0  0  0  0
  -20.9953  -22.4410   20.3310 C   0  0  0  0  0  0  0  0  0  0  0  0
  -28.6548  -22.4098   17.6400 C   0  0  0  0  0  0  0  0  0  0  0  0
  -30.3709  -24.1995   16.3615 C   0  0  0  0  0  0  0  0  0  0  0  0
  -29.7166  -22.9803   18.3420 C   0  0  0  0  0  0  0  0  0  0  0  0
  -30.0250  -16.8433   20.3827 C   0  0  0  0  0  0  0  0  0  0  0  0
  -31.3111  -15.3876   21.4132 C   0  0  0  0  0  0  0  0  0  0  0  0
  -32.1248  -17.7465   21.5618 C   0  0  0  0  0  0  0  0  0  0  0  0
  -21.6005  -27.6570   21.7060 C   0  0  0  0  0  0  0  0  0  0  0  0
  -18.4033  -27.7804   22.2394 C   0  0  0  0  0  0  0  0  0  0  0  0
  -15.4080  -26.1453   22.2830 C   0  0  0  0  0  0  0  0  0  0  0  0
  -26.5734  -13.6969   19.1426 C   0  0  0  0  0  0  0  0  0  0  0  0
  -25.3879  -30.9836   20.9016 C   0  0  0  0  0  0  0  0  0  0  0  0
  -20.6956  -26.6669   19.5714 C   0  0  0  0  0  0  0  0  0  0  0  0
  -19.4129  -25.4853   21.9595 C   0  0  0  0  0  0  0  0  0  0  0  0
  -24.0293  -31.0231   21.5966 C   0  0  0  0  0  0  0  0  0  0  0  0
  -29.9081  -12.6795   18.3607 C   0  0  0  0  0  0  0  0  0  0  0  0
  -23.7923  -12.9126   21.3335 C   0  0  0  0  0  0  0  0  0  0  0  0
  -21.8449  -17.7803   18.0313 C   0  0  0  0  0  0  0  0  0  0  0  0
  -23.8747  -29.8304   22.5347 C   0  0  0  0  0  0  0  0  0  0  0  0
  -21.8687  -19.1664   18.6669 C   0  0  0  0  0  0  0  0  0  0  0  0
  -30.6076  -12.5627   19.7104 C   0  0  0  0  0  0  0  0  0  0  0  0
  -23.4332  -14.3537   20.9996 C   0  0  0  0  0  0  0  0  0  0  0  0
  -28.4545  -12.2462   18.4712 C   0  0  0  0  0  0  0  0  0  0  0  0
  -25.3077  -12.9097   21.2060 C   0  0  0  0  0  0  0  0  0  0  0  0
  -28.3529  -13.0152   20.8343 C   0  0  0  0  0  0  0  0  0  0  0  0
  -23.1741  -17.0597   18.1979 C   0  0  0  0  0  0  0  0  0  0  0  0
  -23.6311  -18.3699   20.2895 C   0  0  0  0  0  0  0  0  0  0  0  0
  -23.9380  -28.5080   21.7609 C   0  0  1  0  0  0  0  0  0  0  0  0
  -20.3998  -27.4962   20.8172 C   0  0  1  0  0  0  0  0  0  0  0  0
  -22.2951  -19.0993   20.1375 C   0  0  1  0  0  0  0  0  0  0  0  0
  -29.8686  -13.3208   20.8248 C   0  0  2  0  0  0  0  0  0  0  0  0
  -24.4177  -14.7115   19.8828 C   0  0  1  0  0  0  0  0  0  0  0  0
  -12.9776  -26.4997   22.7974 C   0  0  0  0  0  0  0  0  0  0  0  0
  -19.0243  -27.6884   25.2254 C   0  0  0  0  0  0  0  0  0  0  0  0
  -16.6277  -27.0907   25.6345 C   0  0  0  0  0  0  0  0  0  0  0  0
  -17.2040  -29.2801   24.5870 C   0  0  0  0  0  0  0  0  0  0  0  0
  -14.6065  -25.4922   19.5099 C   0  0  0  0  0  0  0  0  0  0  0  0
  -21.8896  -19.9432   23.1678 C   0  0  0  0  0  0  0  0  0  0  0  0
  -23.5820  -21.7001   22.6438 C   0  0  0  0  0  0  0  0  0  0  0  0
  -24.7793  -16.1912   19.8954 C   0  0  0  0  0  0  0  0  0  0  0  0
  -17.4615  -27.1558   23.2404 C   0  0  1  0  0  0  0  0  0  0  0  0
  -14.0490  -26.5174   21.7183 C   0  0  2  0  0  0  0  0  0  0  0  0
  -22.3848  -20.5021   20.7355 C   0  0  2  0  0  0  0  0  0  1  0  0
  -17.5955  -27.7878   24.6546 C   0  0  0  0  0  0  0  0  0  0  0  0
  -29.4236  -15.6671   20.1856 N   0  0  0  0  0  0  0  0  0  0  0  0
  -30.2295  -14.8017   20.8241 N   0  0  0  0  0  0  0  0  0  0  0  0
  -19.3339  -26.9202   21.6396 N   0  0  0  0  0  0  0  0  0  0  0  0
  -27.7360  -12.9981   19.5002 N   0  0  0  0  0  0  0  0  0  0  0  0
  -25.5797  -13.8446   20.1130 N   0  0  0  0  0  0  0  0  0  0  0  0
  -32.2225  -14.6633   22.0967 N   0  0  0  0  0  0  0  0  0  0  0  0
  -31.8658  -19.0743   21.1955 N   0  0  0  0  0  0  0  0  0  0  0  0
  -22.6818  -28.2556   21.0880 N   0  0  0  0  0  0  0  0  0  0  0  0
  -16.1254  -27.2596   22.6637 N   0  0  0  0  0  0  0  0  0  0  0  0
  -23.5316  -16.9985   19.6630 N   0  3  2  0  0  0  0  0  0  0  0  0
  -13.6532  -25.5597   20.6473 N   0  3  0  0  0  0  0  0  0  0  0  0
  -22.9024  -20.4433   22.1747 N   0  3  0  0  0  0  0  0  0  0  0  0
  -33.1542  -17.4831   22.2285 O   0  0  0  0  0  0  0  0  0  0  0  0
  -21.5493  -27.2682   22.8670 O   0  0  0  0  0  0  0  0  0  0  0  0
  -18.3117  -28.9857   21.9933 O   0  0  0  0  0  0  0  0  0  0  0  0
  -15.7931  -24.9822   22.3804 O   0  0  0  0  0  0  0  0  0  0  0  0
  -26.4248  -14.1598   18.0039 O   0  0  0  0  0  0  0  0  0  0  0  0
  -27.8026  -21.5206   18.2730 O   0  0  0  0  0  0  0  0  0  0  0  0
  -21.0870  -21.0968   20.5681 O   0  0  0  0  0  0  0  0  0  1  0  0
  -31.1957  -25.0577   15.7471 F   0  0  0  0  0  0  0  0  0  0  0  0
  -29.9180  -22.6717   19.6304 F   0  0  0  0  0  0  0  0  0  0  0  0
  1  2  1  0  0  0  0
  1  5  2  0  0  0  0
  2  6  2  0  0  0  0
  3  8  2  0  0  0  0
  3 15  1  0  0  0  0
  4  9  1  0  0  0  0
  4 15  2  0  0  0  0
  5 17  1  0  0  0  0
  6 19  1  0  0  0  0
  7 10  2  0  0  0  0
  7 18  1  0  0  0  0
  8 21  1  0  0  0  0
  9 21  2  0  0  0  0
 10 22  1  0  0  0  0
 11 12  2  0  0  0  0
 11 23  1  0  0  0  0
 12 24  1  0  0  0  0
 13 20  1  0  0  0  0
 13 22  2  0  0  0  0
 14 24  2  0  0  0  0
 14 25  1  0  0  0  0
 15 26  1  0  0  0  0
 16 26  1  0  0  0  0
 16 27  2  0  0  0  0
 16 28  1  0  0  0  0
 17 19  2  0  0  0  0
 17 33  1  0  0  0  0
 18 20  2  0  0  0  0
 18 34  1  0  0  0  0
 19 49  1  0  0  0  0
 20 35  1  0  0  0  0
 21 83  1  0  0  0  0
 22 84  1  0  0  0  0
 23 25  2  0  0  0  0
 23 83  1  0  0  0  0
 24 85  1  0  0  0  0
 25 86  1  0  0  0  0
 26 66  2  0  0  0  0
 27 67  1  0  0  0  0
 27 71  1  0  0  0  0
 28 72  1  0  0  0  0
 28 78  2  0  0  0  0
 29 50  1  0  0  0  0
 29 73  1  0  0  0  0
 29 79  2  0  0  0  0
 30 62  1  0  0  0  0
 30 68  1  0  0  0  0
 30 80  2  0  0  0  0
 31 63  1  0  0  0  0
 31 74  1  0  0  0  0
 31 81  2  0  0  0  0
 32 69  1  0  0  0  0
 32 70  1  0  0  0  0
 32 82  2  0  0  0  0
 33 36  1  0  0  0  0
 34 50  1  0  0  0  0
 35 68  1  0  0  0  0
 36 40  1  0  0  0  0
 37 42  1  0  0  0  0
 37 44  1  0  0  0  0
 38 43  1  0  0  0  0
 38 45  1  0  0  0  0
 39 41  1  0  0  0  0
 39 47  1  0  0  0  0
 40 49  1  0  0  0  0
 41 51  1  0  0  0  0
 42 52  1  0  0  0  0
 43 53  1  0  0  0  0
 44 69  1  0  0  0  0
 45 70  1  0  0  0  0
 46 52  1  0  0  0  0
 46 69  1  0  0  0  0
 47 75  1  0  0  0  0
 48 51  1  0  0  0  0
 48 75  1  0  0  0  0
 49 73  1  0  0  0  0
 50 68  1  0  0  0  0
 51 64  1  0  0  0  0
 52 67  1  0  0  0  0
 53 61  1  0  0  0  0
 53 70  1  0  0  0  0
 54 63  1  0  0  0  0
 55 65  1  0  0  0  0
 56 65  1  0  0  0  0
 57 65  1  0  0  0  0
 58 76  1  0  0  0  0
 59 77  1  0  0  0  0
 60 77  1  0  0  0  0
 61 75  1  0  0  0  0
 62 65  1  0  0  0  0
 62 74  1  0  0  0  0
 63 76  1  0  0  0  0
 64 77  1  0  0  0  0
 64 84  1  0  0  0  0
 66 67  1  0  0  0  0
M  CHG  3  75   1  76   1  77   1
M  ISO  4  32 100  64 101  70 100  84 101
M  END
> <Batch ID>
0024

> <Smiles>
CNC(C)C(=O)NC(C(=O)N1Cc2cc([101O:1][101CH:1](C3CCCN(CC4CCC[100N:0]4[100C:0](=O)N4CCCC(n5nc(-c6ccc(Oc7ccc(F)cc7F)cc6)c(C(N)=O)c5N)C4)C3)N(C)C)ccc2CC1C(=O)NC1CCCc2ccccc21)C(C)(C)C

> <Shape>
0.283

> <Color>
0.053

> <Negative vol penalty>
0.000

$$$$

  -OEChem-04042321203D

 90100  0     1  0  0  0  0  0999 V2000
  -28.2069  -17.6122   27.0573 C   0  0  0  0  0  0  0  0  0  0  0  0
  -28.2115  -18.9259   26.5994 C   0  0  0  0  0  0  0  0  0  0  0  0
  -28.0542  -14.2386   21.7876 C   0  0  0  0  0  0  0  0  0  0  0  0
  -27.7815  -14.5279   19.4045 C   0  0  0  0  0  0  0  0  0  0  0  0
  -27.4661  -16.6426   26.3826 C   0  0  0  0  0  0  0  0  0  0  0  0
  -27.4762  -19.2705   25.4658 C   0  0  0  0  0  0  0  0  0  0  0  0
  -24.8684  -23.5687   26.0745 C   0  0  0  0  0  0  0  0  0  0  0  0
  -26.0185  -26.1408   18.9631 C   0  0  0  0  0  0  0  0  0  0  0  0
  -25.3365  -27.2660   19.4260 C   0  0  0  0  0  0  0  0  0  0  0  0
  -27.1592  -13.1692   21.7603 C   0  0  0  0  0  0  0  0  0  0  0  0
  -26.8864  -13.4584   19.3772 C   0  0  0  0  0  0  0  0  0  0  0  0
  -25.5779  -24.7642   25.9689 C   0  0  0  0  0  0  0  0  0  0  0  0
  -24.6695  -10.5912   22.3762 C   0  0  0  0  0  0  0  0  0  0  0  0
  -23.6897  -10.5382   23.3675 C   0  0  0  0  0  0  0  0  0  0  0  0
  -24.7775  -25.0327   23.7092 C   0  0  0  0  0  0  0  0  0  0  0  0
  -28.0043  -26.8623   20.1349 C   0  0  0  0  0  0  0  0  0  0  0  0
  -22.8286  -12.6718   22.6304 C   0  0  0  0  0  0  0  0  0  0  0  0
  -28.3654  -14.9181   20.6097 C   0  0  0  0  0  0  0  0  0  0  0  0
  -30.6862  -15.9678   20.4706 C   0  0  0  0  0  0  0  0  0  0  0  0
  -26.7136  -16.9776   25.2458 C   0  0  0  0  0  0  0  0  0  0  0  0
  -24.1157  -23.0898   24.9926 C   0  0  0  0  0  0  0  0  0  0  0  0
  -26.7258  -18.3043   24.7745 C   0  0  0  0  0  0  0  0  0  0  0  0
  -24.0574  -23.8321   23.8044 C   0  0  0  0  0  0  0  0  0  0  0  0
  -27.3524  -25.9389   19.3175 C   0  0  0  0  0  0  0  0  0  0  0  0
  -27.3223  -27.9875   20.5978 C   0  0  0  0  0  0  0  0  0  0  0  0
  -25.9883  -28.1894   20.2434 C   0  0  0  0  0  0  0  0  0  0  0  0
  -26.5753  -12.7791   20.5551 C   0  0  0  0  0  0  0  0  0  0  0  0
  -25.5348  -25.4950   24.7852 C   0  0  0  0  0  0  0  0  0  0  0  0
  -24.7290  -11.6846   21.5121 C   0  0  0  0  0  0  0  0  0  0  0  0
  -22.7691  -11.5785   23.4945 C   0  0  0  0  0  0  0  0  0  0  0  0
  -23.8085  -12.7249   21.6391 C   0  0  0  0  0  0  0  0  0  0  0  0
  -29.2894  -16.0232   20.6374 C   0  0  0  0  0  0  0  0  0  0  0  0
  -31.0973  -17.2737   20.5812 C   0  0  0  0  0  0  0  0  0  0  0  0
  -27.7693  -28.9070   24.0116 C   0  0  0  0  0  0  0  0  0  0  0  0
  -31.5361  -14.8370   20.2365 C   0  0  0  0  0  0  0  0  0  0  0  0
  -24.2077  -20.4842   23.1744 C   0  0  0  0  0  0  0  0  0  0  0  0
  -21.4671  -21.7147   21.9509 C   0  0  0  0  0  0  0  0  0  0  0  0
  -20.2425  -24.9679   20.9842 C   0  0  0  0  0  0  0  0  0  0  0  0
  -28.3096  -22.3753   19.5529 C   0  0  0  0  0  0  0  0  0  0  0  0
  -25.9664  -15.8855   24.5223 C   0  0  0  0  0  0  0  0  0  0  0  0
  -23.3346  -21.8120   25.1315 C   0  0  0  0  0  0  0  0  0  0  0  0
  -23.2478  -23.3718   22.6207 C   0  0  0  0  0  0  0  0  0  0  0  0
  -24.9148  -16.4095   23.5477 C   0  0  0  0  0  0  0  0  0  0  0  0
  -23.7048  -30.6718   21.8358 C   0  0  0  0  0  0  0  0  0  0  0  0
  -24.6191  -31.5693   21.0266 C   0  0  0  0  0  0  0  0  0  0  0  0
  -29.8967  -21.4142   22.6601 C   0  0  0  0  0  0  0  0  0  0  0  0
  -25.4917  -17.5341   22.6938 C   0  0  0  0  0  0  0  0  0  0  0  0
  -30.0517  -19.9045   22.4682 C   0  0  0  0  0  0  0  0  0  0  0  0
  -24.5114  -29.3831   21.9480 C   0  0  0  0  0  0  0  0  0  0  0  0
  -25.2137  -30.6088   20.0031 C   0  0  0  0  0  0  0  0  0  0  0  0
  -28.5846  -21.9155   22.0639 C   0  0  0  0  0  0  0  0  0  0  0  0
  -28.8053  -27.2326   23.2775 C   0  0  0  0  0  0  0  0  0  0  0  0
  -28.5475  -20.0700   20.4310 C   0  0  0  0  0  0  0  0  0  0  0  0
  -25.9210  -18.7222   23.5630 C   0  0  1  0  0  0  0  0  0  0  0  0
  -28.3961  -27.6759   24.7083 C   0  0  2  0  0  0  0  0  0  0  0  0
  -23.0147  -21.1583   23.7907 C   0  0  1  0  0  0  0  0  0  0  0  0
  -29.8650  -19.5051   20.9925 C   0  0  2  0  0  0  0  0  0  0  0  0
  -17.9020  -25.8681   20.8892 C   0  0  0  0  0  0  0  0  0  0  0  0
  -21.5638  -20.8526   19.0256 C   0  0  0  0  0  0  0  0  0  0  0  0
  -20.2823  -22.9237   18.4453 C   0  0  0  0  0  0  0  0  0  0  0  0
  -19.2603  -21.2029   19.9343 C   0  0  0  0  0  0  0  0  0  0  0  0
  -20.9261  -27.2526   22.7369 C   0  0  0  0  0  0  0  0  0  0  0  0
  -28.0483  -28.9651   21.4761 C   0  0  0  0  0  0  0  0  0  0  0  0
  -28.0812  -24.7357   18.8223 C   0  0  0  0  0  0  0  0  0  0  0  0
  -27.4255  -26.7780   25.4450 C   0  0  0  0  0  0  0  0  0  1  0  0
  -21.1292  -22.6567   20.8207 C   0  0  1  0  0  0  0  0  0  0  0  0
  -19.1865  -25.7909   21.6997 C   0  0  2  0  0  0  0  0  0  0  0  0
  -20.5837  -21.9107   19.5704 C   0  0  0  0  0  0  0  0  0  0  0  0
  -28.8431  -17.2659   20.8388 N   0  0  0  0  0  0  0  0  0  0  0  0
  -29.9659  -18.0034   20.7994 N   0  0  0  0  0  0  0  0  0  0  0  0
  -25.2842  -29.3194   20.7013 N   0  0  0  0  0  0  0  0  0  0  0  0
  -28.2070  -28.4715   22.8094 N   0  0  0  0  0  0  0  0  0  0  0  0
  -22.5064  -22.1130   22.8035 N   0  0  0  0  0  0  0  0  0  0  0  0
  -28.4777  -21.5181   20.6530 N   0  0  0  0  0  0  0  0  0  0  0  0
  -32.3125  -17.8574   20.5122 N   0  0  0  0  0  0  0  0  0  0  0  0
  -30.9497  -13.5670   20.1502 N   0  0  0  0  0  0  0  0  0  0  0  0
  -24.7671  -19.4980   23.9643 N   0  0  0  0  0  0  0  0  0  0  0  0
  -20.2107  -23.6458   21.3744 N   0  0  0  0  0  0  0  0  0  0  0  0
  -28.2461  -23.7313   19.8495 N   0  0  0  0  0  0  0  0  0  0  0  0
  -19.6799  -27.1778   21.9317 N   0  3  0  0  0  0  0  0  0  0  0  0
  -27.1339  -29.8767   24.3561 O   0  0  0  0  0  0  0  0  0  0  0  0
  -32.7805  -14.9476   20.1240 O   0  0  0  0  0  0  0  0  0  0  0  0
  -24.5914  -20.8319   22.0637 O   0  0  0  0  0  0  0  0  0  0  0  0
  -20.8274  -20.6675   22.0770 O   0  0  0  0  0  0  0  0  0  0  0  0
  -21.0157  -25.4490   20.1588 O   0  0  0  0  0  0  0  0  0  0  0  0
  -28.2277  -21.9631   18.3908 O   0  0  0  0  0  0  0  0  0  0  0  0
  -25.7020  -11.7354   20.5280 O   0  0  0  0  0  0  0  0  0  0  0  0
  -26.2269  -26.6619   24.6793 O   0  0  0  0  0  0  0  0  0  1  0  0
  -21.8272  -11.5267   24.4455 F   0  0  0  0  0  0  0  0  0  0  0  0
  -23.8599  -13.7773   20.8112 F   0  0  0  0  0  0  0  0  0  0  0  0
  1  2  1  0  0  0  0
  1  5  2  0  0  0  0
  2  6  2  0  0  0  0
  3 10  2  0  0  0  0
  3 18  1  0  0  0  0
  4 11  1  0  0  0  0
  4 18  2  0  0  0  0
  5 20  1  0  0  0  0
  6 22  1  0  0  0  0
  7 12  2  0  0  0  0
  7 21  1  0  0  0  0
  8  9  2  0  0  0  0
  8 24  1  0  0  0  0
  9 26  1  0  0  0  0
 10 27  1  0  0  0  0
 11 27  2  0  0  0  0
 12 28  1  0  0  0  0
 13 14  2  0  0  0  0
 13 29  1  0  0  0  0
 14 30  1  0  0  0  0
 15 23  1  0  0  0  0
 15 28  2  0  0  0  0
 16 24  2  0  0  0  0
 16 25  1  0  0  0  0
 17 30  2  0  0  0  0
 17 31  1  0  0  0  0
 18 32  1  0  0  0  0
 19 32  1  0  0  0  0
 19 33  2  0  0  0  0
 19 35  1  0  0  0  0
 20 22  2  0  0  0  0
 20 40  1  0  0  0  0
 21 23  2  0  0  0  0
 21 41  1  0  0  0  0
 22 54  1  0  0  0  0
 23 42  1  0  0  0  0
 24 64  1  0  0  0  0
 25 26  2  0  0  0  0
 25 63  1  0  0  0  0
 26 71  1  0  0  0  0
 27 87  1  0  0  0  0
 28 88  1  0  0  0  0
 29 31  2  0  0  0  0
 29 87  1  0  0  0  0
 30 89  1  0  0  0  0
 31 90  1  0  0  0  0
 32 69  2  0  0  0  0
 33 70  1  0  0  0  0
 33 75  1  0  0  0  0
 34 55  1  0  0  0  0
 34 72  1  0  0  0  0
 34 81  2  0  0  0  0
 35 76  1  0  0  0  0
 35 82  2  0  0  0  0
 36 56  1  0  0  0  0
 36 77  1  0  0  0  0
 36 83  2  0  0  0  0
 37 66  1  0  0  0  0
 37 73  1  0  0  0  0
 37 84  2  0  0  0  0
 38 67  1  0  0  0  0
 38 78  1  0  0  0  0
 38 85  2  0  0  0  0
 39 74  1  0  0  0  0
 39 79  1  0  0  0  0
 39 86  2  0  0  0  0
 40 43  1  0  0  0  0
 41 56  1  0  0  0  0
 42 73  1  0  0  0  0
 43 47  1  0  0  0  0
 44 45  1  0  0  0  0
 44 49  1  0  0  0  0
 45 50  1  0  0  0  0
 46 48  1  0  0  0  0
 46 51  1  0  0  0  0
 47 54  1  0  0  0  0
 48 57  1  0  0  0  0
 49 71  1  0  0  0  0
 50 71  1  0  0  0  0
 51 74  1  0  0  0  0
 52 55  1  0  0  0  0
 52 72  1  0  0  0  0
 53 57  1  0  0  0  0
 53 74  1  0  0  0  0
 54 77  1  0  0  0  0
 55 65  1  0  0  0  0
 56 73  1  0  0  0  0
 57 70  1  0  0  0  0
 58 67  1  0  0  0  0
 59 68  1  0  0  0  0
 60 68  1  0  0  0  0
 61 68  1  0  0  0  0
 62 80  1  0  0  0  0
 63 72  1  0  0  0  0
 64 79  1  0  0  0  0
 65 88  1  0  0  0  0
 66 68  1  0  0  0  0
 66 78  1  0  0  0  0
 67 80  1  0  0  0  0
 69 70  1  0  0  0  0
M  CHG  1  80   1
M  ISO  4  39 100  65 101  79 100  88 101
M  END
> <Batch ID>
0024

> <Smiles>
CNC(C)C(=O)NC(C(=O)N1Cc2cc([101O:1][101CH2:1]C3CN(Cc4cc(C[100NH:0][100C:0](=O)N5CCCC(n6nc(-c7ccc(Oc8ccc(F)cc8F)cc7)c(C(N)=O)c6N)C5)ccc4N4CCCC4)C3=O)ccc2CC1C(=O)NC1CCCc2ccccc21)C(C)(C)C

> <Shape>
0.226

> <Color>
0.048

> <Negative vol penalty>
0.000

$$$$

  -OEChem-04042321203D

 84 93  0     1  0  0  0  0  0999 V2000
  -17.2056  -30.8773   24.3281 C   0  0  0  0  0  0  0  0  0  0  0  0
  -18.5084  -31.2411   24.6534 C   0  0  0  0  0  0  0  0  0  0  0  0
  -24.6459  -14.1347   19.9150 C   0  0  0  0  0  0  0  0  0  0  0  0
  -26.2514  -14.3130   21.7116 C   0  0  0  0  0  0  0  0  0  0  0  0
  -16.9664  -29.6899   23.6376 C   0  0  0  0  0  0  0  0  0  0  0  0
  -19.5727  -30.4170   24.2895 C   0  0  0  0  0  0  0  0  0  0  0  0
  -26.4451  -30.7284   22.2920 C   0  0  0  0  0  0  0  0  0  0  0  0
  -30.0735  -25.3576   22.5126 C   0  0  0  0  0  0  0  0  0  0  0  0
  -29.6215  -24.3999   21.6049 C   0  0  0  0  0  0  0  0  0  0  0  0
  -24.7154  -12.7437   19.9909 C   0  0  0  0  0  0  0  0  0  0  0  0
  -26.3208  -12.9219   21.7876 C   0  0  0  0  0  0  0  0  0  0  0  0
  -27.6886  -30.1927   22.6242 C   0  0  0  0  0  0  0  0  0  0  0  0
  -23.4653  -10.2907   21.9539 C   0  0  0  0  0  0  0  0  0  0  0  0
  -22.2660   -9.5792   21.9238 C   0  0  0  0  0  0  0  0  0  0  0  0
  -27.1620  -28.2043   21.3641 C   0  0  0  0  0  0  0  0  0  0  0  0
  -28.2718  -24.7829   24.0162 C   0  0  0  0  0  0  0  0  0  0  0  0
  -22.9962   -8.4327   19.9264 C   0  0  0  0  0  0  0  0  0  0  0  0
  -25.4140  -14.9194   20.7753 C   0  0  0  0  0  0  0  0  0  0  0  0
  -24.4645  -17.2037   21.3982 C   0  0  0  0  0  0  0  0  0  0  0  0
  -18.0291  -28.8556   23.2565 C   0  0  0  0  0  0  0  0  0  0  0  0
  -25.5448  -30.0002   21.5010 C   0  0  0  0  0  0  0  0  0  0  0  0
  -19.3474  -29.2166   23.5945 C   0  0  0  0  0  0  0  0  0  0  0  0
  -25.9087  -28.7340   21.0211 C   0  0  0  0  0  0  0  0  0  0  0  0
  -29.3987  -25.5491   23.7183 C   0  0  0  0  0  0  0  0  0  0  0  0
  -28.4946  -23.6337   21.9028 C   0  0  0  0  0  0  0  0  0  0  0  0
  -25.5528  -12.1373   20.9272 C   0  0  0  0  0  0  0  0  0  0  0  0
  -28.0461  -28.9293   22.1627 C   0  0  0  0  0  0  0  0  0  0  0  0
  -24.4301  -10.0733   20.9701 C   0  0  0  0  0  0  0  0  0  0  0  0
  -22.0314   -8.6502   20.9101 C   0  0  0  0  0  0  0  0  0  0  0  0
  -27.8197  -23.8252   23.1084 C   0  0  0  0  0  0  0  0  0  0  0  0
  -24.1955   -9.1443   19.9565 C   0  0  0  0  0  0  0  0  0  0  0  0
  -25.3431  -16.3564   20.6969 C   0  0  0  0  0  0  0  0  0  0  0  0
  -24.7970  -18.4679   20.9768 C   0  0  0  0  0  0  0  0  0  0  0  0
  -23.4394  -16.8772   22.3460 C   0  0  0  0  0  0  0  0  0  0  0  0
  -22.6240  -28.8228   21.9326 C   0  0  0  0  0  0  0  0  0  0  0  0
  -22.8749  -28.0934   18.7818 C   0  0  0  0  0  0  0  0  0  0  0  0
  -24.8972  -27.4558   16.1077 C   0  0  0  0  0  0  0  0  0  0  0  0
  -28.5933  -22.3483   19.7384 C   0  0  0  0  0  0  0  0  0  0  0  0
  -17.7174  -27.5585   22.5529 C   0  0  0  0  0  0  0  0  0  0  0  0
  -24.2179  -30.6033   21.1292 C   0  0  0  0  0  0  0  0  0  0  0  0
  -24.9864  -27.9201   20.1520 C   0  0  0  0  0  0  0  0  0  0  0  0
  -18.9304  -26.9265   21.8750 C   0  0  0  0  0  0  0  0  0  0  0  0
  -27.7863  -19.9974   17.1891 C   0  0  0  0  0  0  0  0  0  0  0  0
  -30.2829  -27.6359   26.6476 C   0  0  0  0  0  0  0  0  0  0  0  0
  -20.1304  -26.9301   22.8168 C   0  0  0  0  0  0  0  0  0  0  0  0
  -27.0064  -18.9103   17.9321 C   0  0  0  0  0  0  0  0  0  0  0  0
  -31.3304  -28.0281   25.6177 C   0  0  0  0  0  0  0  0  0  0  0  0
  -29.6681  -26.3671   26.0654 C   0  0  0  0  0  0  0  0  0  0  0  0
  -28.9212  -20.5637   18.0406 C   0  0  0  0  0  0  0  0  0  0  0  0
  -27.7417  -19.9507   20.1148 C   0  0  0  0  0  0  0  0  0  0  0  0
  -20.5303  -28.3613   23.1953 C   0  0  1  0  0  0  0  0  0  0  0  0
  -23.1741  -29.5595   20.7441 C   0  0  1  0  0  0  0  0  0  0  0  0
  -26.5477  -19.3955   19.3212 C   0  0  2  0  0  0  0  0  0  0  0  0
  -30.6824  -27.6558   24.2767 C   0  0  2  0  0  0  0  0  0  0  0  0
  -24.8123  -26.8546   13.6728 C   0  0  0  0  0  0  0  0  0  0  0  0
  -22.1621  -25.2196   19.5187 C   0  0  0  0  0  0  0  0  0  0  0  0
  -23.0101  -24.5072   17.2733 C   0  0  0  0  0  0  0  0  0  0  0  0
  -21.0679  -26.0642   17.4345 C   0  0  0  0  0  0  0  0  0  0  0  0
  -26.3026  -29.9403   15.3262 C   0  0  0  0  0  0  0  0  0  0  0  0
  -29.8264  -28.7995   23.7343 C   0  0  0  0  0  0  0  0  0  1  0  0
  -23.3837  -26.9092   17.9958 C   0  0  1  0  0  0  0  0  0  0  0  0
  -24.8841  -27.9868   14.6857 C   0  0  2  0  0  0  0  0  0  0  0  0
  -22.4228  -25.6893   18.0736 C   0  0  0  0  0  0  0  0  0  0  0  0
  -26.1715  -17.0259   19.8909 N   0  0  0  0  0  0  0  0  0  0  0  0
  -25.8148  -18.3072   20.0831 N   0  0  0  0  0  0  0  0  0  0  0  0
  -29.8471  -26.4978   24.6180 N   0  0  3  0  0  0  0  0  0  0  0  0
  -23.6976  -28.5504   19.8212 N   0  0  0  0  0  0  0  0  0  0  0  0
  -28.4112  -21.0071   19.3398 N   0  0  0  0  0  0  0  0  0  0  0  0
  -24.3152  -19.6902   21.2870 N   0  0  0  0  0  0  0  0  0  0  0  0
  -23.2301  -15.5288   22.6659 N   0  0  0  0  0  0  0  0  0  0  0  0
  -28.0376  -22.6619   20.9783 N   0  0  0  0  0  0  0  0  0  0  0  0
  -21.2636  -28.9839   22.1140 N   0  0  0  0  0  0  0  0  0  0  0  0
  -23.6272  -27.3926   16.6411 N   0  0  0  0  0  0  0  0  0  0  0  0
  -26.1170  -28.7798   14.4175 N   0  3  0  0  0  0  0  0  0  0  0  0
  -22.7190  -17.7540   22.8807 O   0  0  0  0  0  0  0  0  0  0  0  0
  -23.3776  -28.1564   22.6322 O   0  0  0  0  0  0  0  0  0  0  0  0
  -21.7910  -28.5990   18.4800 O   0  0  0  0  0  0  0  0  0  0  0  0
  -25.9303  -27.1262   16.6862 O   0  0  0  0  0  0  0  0  0  0  0  0
  -29.1740  -23.1657   19.0197 O   0  0  0  0  0  0  0  0  0  0  0  0
  -25.6206  -10.7799   21.0018 O   0  0  0  0  0  0  0  0  0  0  0  0
  -29.2590  -28.4038   22.4861 O   0  0  0  0  0  0  0  0  0  1  0  0
  -20.8803   -7.9659   20.8823 F   0  0  0  0  0  0  0  0  0  0  0  0
  -26.7353  -23.0947   23.4048 F   0  0  0  0  0  0  0  0  0  0  0  0
  -25.1191   -8.9303   19.0094 F   0  0  0  0  0  0  0  0  0  0  0  0
  1  2  1  0  0  0  0
  1  5  2  0  0  0  0
  2  6  2  0  0  0  0
  3 10  2  0  0  0  0
  3 18  1  0  0  0  0
  4 11  1  0  0  0  0
  4 18  2  0  0  0  0
  5 20  1  0  0  0  0
  6 22  1  0  0  0  0
  7 12  2  0  0  0  0
  7 21  1  0  0  0  0
  8  9  2  0  0  0  0
  8 24  1  0  0  0  0
  9 25  1  0  0  0  0
 10 26  1  0  0  0  0
 11 26  2  0  0  0  0
 12 27  1  0  0  0  0
 13 14  2  0  0  0  0
 13 28  1  0  0  0  0
 14 29  1  0  0  0  0
 15 23  1  0  0  0  0
 15 27  2  0  0  0  0
 16 24  2  0  0  0  0
 16 30  1  0  0  0  0
 17 29  2  0  0  0  0
 17 31  1  0  0  0  0
 18 32  1  0  0  0  0
 19 32  1  0  0  0  0
 19 33  2  0  0  0  0
 19 34  1  0  0  0  0
 20 22  2  0  0  0  0
 20 39  1  0  0  0  0
 21 23  2  0  0  0  0
 21 40  1  0  0  0  0
 22 51  1  0  0  0  0
 23 41  1  0  0  0  0
 24 66  1  0  0  0  0
 25 30  2  0  0  0  0
 25 71  1  0  0  0  0
 26 80  1  0  0  0  0
 27 81  1  0  0  0  0
 28 31  2  0  0  0  0
 28 80  1  0  0  0  0
 29 82  1  0  0  0  0
 30 83  1  0  0  0  0
 31 84  1  0  0  0  0
 32 64  2  0  0  0  0
 33 65  1  0  0  0  0
 33 69  1  0  0  0  0
 34 70  1  0  0  0  0
 34 75  2  0  0  0  0
 35 52  1  0  0  0  0
 35 72  1  0  0  0  0
 35 76  2  0  0  0  0
 36 61  1  0  0  0  0
 36 67  1  0  0  0  0
 36 77  2  0  0  0  0
 37 62  1  0  0  0  0
 37 73  1  0  0  0  0
 37 78  2  0  0  0  0
 38 68  1  0  0  0  0
 38 71  1  0  0  0  0
 38 79  2  0  0  0  0
 39 42  1  0  0  0  0
 40 52  1  0  0  0  0
 41 67  1  0  0  0  0
 42 45  1  0  0  0  0
 43 46  1  0  0  0  0
 43 49  1  0  0  0  0
 44 47  1  0  0  0  0
 44 48  1  0  0  0  0
 45 51  1  0  0  0  0
 46 53  1  0  0  0  0
 47 54  1  0  0  0  0
 48 66  1  0  0  0  0
 49 68  1  0  0  0  0
 50 53  1  0  0  0  0
 50 68  1  0  0  0  0
 51 72  1  0  0  0  0
 52 67  1  0  0  0  0
 53 65  1  0  0  0  0
 54 60  1  0  0  0  0
 54 66  1  0  0  0  0
 55 62  1  0  0  0  0
 56 63  1  0  0  0  0
 57 63  1  0  0  0  0
 58 63  1  0  0  0  0
 59 74  1  0  0  0  0
 60 81  1  0  0  0  0
 61 63  1  0  0  0  0
 61 73  1  0  0  0  0
 62 74  1  0  0  0  0
 64 65  1  0  0  0  0
M  CHG  1  74   1
M  ISO  4  38 100  60 101  71 100  81 101
M  END
> <Batch ID>
0024

> <Smiles>
CNC(C)C(=O)NC(C(=O)N1Cc2cc([101O:1][101CH2:1]C3CCCN3c3ccc([100NH:0][100C:0](=O)N4CCCC(n5nc(-c6ccc(Oc7ccc(F)cc7F)cc6)c(C(N)=O)c5N)C4)c(F)c3)ccc2CC1C(=O)NC1CCCc2ccccc21)C(C)(C)C

> <Shape>
0.238

> <Color>
0.111

> <Negative vol penalty>
0.000

$$$$

  -OEChem-04042321203D

 88 97  0     1  0  0  0  0  0999 V2000
  -16.6189  -28.1180   23.3594 C   0  0  0  0  0  0  0  0  0  0  0  0
  -17.5349  -27.3756   22.6211 C   0  0  0  0  0  0  0  0  0  0  0  0
  -34.0384  -20.6047   19.0294 C   0  0  0  0  0  0  0  0  0  0  0  0
  -22.8321  -13.4130   22.9954 C   0  0  0  0  0  0  0  0  0  0  0  0
  -24.1702  -11.5305   23.7044 C   0  0  0  0  0  0  0  0  0  0  0  0
  -16.8667  -29.4642   23.6245 C   0  0  0  0  0  0  0  0  0  0  0  0
  -18.6988  -27.9793   22.1464 C   0  0  0  0  0  0  0  0  0  0  0  0
  -25.1948  -25.4710   23.9909 C   0  0  0  0  0  0  0  0  0  0  0  0
  -33.4537  -19.3394   18.9775 C   0  0  0  0  0  0  0  0  0  0  0  0
  -33.6777  -21.4989   20.0374 C   0  0  0  0  0  0  0  0  0  0  0  0
  -22.1456  -13.3822   24.2092 C   0  0  0  0  0  0  0  0  0  0  0  0
  -23.4837  -11.4997   24.9183 C   0  0  0  0  0  0  0  0  0  0  0  0
  -26.4700  -24.9223   24.1282 C   0  0  0  0  0  0  0  0  0  0  0  0
  -20.5045  -10.3890   26.0679 C   0  0  0  0  0  0  0  0  0  0  0  0
  -20.0812   -9.1473   26.5417 C   0  0  0  0  0  0  0  0  0  0  0  0
  -27.4089  -26.7634   22.8724 C   0  0  0  0  0  0  0  0  0  0  0  0
  -32.1475  -19.8624   20.9415 C   0  0  0  0  0  0  0  0  0  0  0  0
  -21.4149   -9.4525   28.5330 C   0  0  0  0  0  0  0  0  0  0  0  0
  -23.8444  -12.4871   22.7430 C   0  0  0  0  0  0  0  0  0  0  0  0
  -24.0087  -12.3646   20.2002 C   0  0  0  0  0  0  0  0  0  0  0  0
  -18.0388  -30.0822   23.1611 C   0  0  0  0  0  0  0  0  0  0  0  0
  -25.0236  -26.6774   23.3062 C   0  0  0  0  0  0  0  0  0  0  0  0
  -18.9619  -29.3354   22.4044 C   0  0  0  0  0  0  0  0  0  0  0  0
  -26.1356  -27.3242   22.7425 C   0  0  0  0  0  0  0  0  0  0  0  0
  -32.5082  -18.9682   19.9335 C   0  0  0  0  0  0  0  0  0  0  0  0
  -32.7322  -21.1277   20.9934 C   0  0  0  0  0  0  0  0  0  0  0  0
  -22.4714  -12.4256   25.1706 C   0  0  0  0  0  0  0  0  0  0  0  0
  -27.5743  -25.5668   23.5701 C   0  0  0  0  0  0  0  0  0  0  0  0
  -21.3831  -11.1625   26.8267 C   0  0  0  0  0  0  0  0  0  0  0  0
  -20.5363   -8.6790   27.7743 C   0  0  0  0  0  0  0  0  0  0  0  0
  -21.8382  -10.6942   28.0592 C   0  0  0  0  0  0  0  0  0  0  0  0
  -24.5536  -12.5181   21.4891 C   0  0  0  0  0  0  0  0  0  0  0  0
  -25.0869  -12.4730   19.3564 C   0  0  0  0  0  0  0  0  0  0  0  0
  -22.6493  -12.1438   19.8014 C   0  0  0  0  0  0  0  0  0  0  0  0
  -30.4282  -15.1517   19.9945 C   0  0  0  0  0  0  0  0  0  0  0  0
  -22.6464  -29.3293   22.1265 C   0  0  0  0  0  0  0  0  0  0  0  0
  -25.1747  -30.7682   23.0999 C   0  0  0  0  0  0  0  0  0  0  0  0
  -27.9551  -31.9869   24.6560 C   0  0  0  0  0  0  0  0  0  0  0  0
  -29.1811  -24.1376   22.6847 C   0  0  0  0  0  0  0  0  0  1  0  0
  -18.2405  -31.5521   23.4323 C   0  0  0  0  0  0  0  0  0  0  0  0
  -23.6605  -27.2734   23.0810 C   0  0  0  0  0  0  0  0  0  0  0  0
  -25.8993  -28.6021   21.9848 C   0  0  0  0  0  0  0  0  0  0  0  0
  -19.6767  -32.0205   23.2128 C   0  0  0  0  0  0  0  0  0  0  0  0
  -29.8006  -11.7202   19.1755 C   0  0  0  0  0  0  0  0  0  0  0  0
  -28.4678  -17.6704   18.3815 C   0  0  0  0  0  0  0  0  0  0  0  0
  -20.2182  -31.4814   21.8926 C   0  0  0  0  0  0  0  0  0  0  0  0
  -28.3429  -11.5141   19.5852 C   0  0  0  0  0  0  0  0  0  0  0  0
  -28.4169  -16.3624   19.1589 C   0  0  0  0  0  0  0  0  0  0  0  0
  -30.5148  -12.6837   20.1183 C   0  0  0  0  0  0  0  0  0  0  0  0
  -28.3793  -13.8043   20.6711 C   0  0  0  0  0  0  0  0  0  0  0  0
  -29.9400  -18.0029   18.3290 C   0  0  0  0  0  0  0  0  0  0  0  0
  -20.2477  -29.9482   21.8934 C   0  0  1  0  0  0  0  0  0  0  0  0
  -23.6642  -28.8125   23.1003 C   0  0  1  0  0  0  0  0  0  0  0  0
  -27.6127  -12.8615   19.7267 C   0  0  2  0  0  0  0  0  0  0  0  0
  -29.6057  -16.4016   20.1393 C   0  0  1  0  0  0  0  0  0  0  0  0
  -29.1587  -16.5768   21.5888 C   0  0  0  0  0  0  0  0  0  0  0  0
  -29.0971  -34.1422   25.2457 C   0  0  0  0  0  0  0  0  0  0  0  0
  -26.0910  -31.0701   20.2062 C   0  0  0  0  0  0  0  0  0  0  0  0
  -27.9121  -32.5857   21.0155 C   0  0  0  0  0  0  0  0  0  0  0  0
  -25.5229  -33.2200   21.3507 C   0  0  0  0  0  0  0  0  0  0  0  0
  -27.7868  -31.4175   27.5553 C   0  0  0  0  0  0  0  0  0  0  0  0
  -31.8846  -17.6146   19.8781 C   0  0  0  0  0  0  0  0  0  0  0  0
  -32.3438  -22.0898   22.0772 C   0  0  0  0  0  0  0  0  0  0  0  0
  -30.5642  -23.6106   22.9483 C   0  0  0  0  0  0  0  0  0  0  0  0
  -26.5161  -31.3535   22.7370 C   0  0  1  0  0  0  0  0  0  0  0  0
  -28.1286  -33.0656   25.7099 C   0  0  2  0  0  0  0  0  0  0  0  0
  -26.5081  -32.0308   21.3376 C   0  0  0  0  0  0  0  0  0  0  0  0
  -25.8754  -12.7092   21.4707 N   0  0  0  0  0  0  0  0  0  0  0  0
  -26.1701  -12.6765   20.1599 N   0  0  0  0  0  0  0  0  0  0  0  0
  -29.7783  -13.9427   20.2432 N   0  0  0  0  0  0  0  0  0  0  0  0
  -24.9355  -29.4450   22.7095 N   0  0  0  0  0  0  0  0  0  0  0  0
  -25.2048  -12.4130   18.0129 N   0  0  0  0  0  0  0  0  0  0  0  0
  -22.1929  -10.8237   19.6856 N   0  0  0  0  0  0  0  0  0  0  0  0
  -21.3778  -29.4649   22.6574 N   0  0  0  0  0  0  0  0  0  0  0  0
  -26.8811  -32.2467   23.8312 N   0  0  0  0  0  0  0  0  0  0  0  0
  -30.3959  -17.6520   19.7218 N   0  3  1  0  0  0  0  0  0  0  0  0
  -28.6528  -32.4752   26.9739 N   0  3  0  0  0  0  0  0  0  0  0  0
  -31.0036  -22.7002   21.8622 N   0  3  0  0  0  0  0  0  0  0  0  0
  -21.8673  -13.0889   19.5391 O   0  0  0  0  0  0  0  0  0  0  0  0
  -31.6139  -15.2459   19.6668 O   0  0  0  0  0  0  0  0  0  0  0  0
  -22.9860  -29.5880   20.9778 O   0  0  0  0  0  0  0  0  0  0  0  0
  -24.3572  -31.4649   23.7078 O   0  0  0  0  0  0  0  0  0  0  0  0
  -28.7002  -31.0133   24.5704 O   0  0  0  0  0  0  0  0  0  0  0  0
  -28.4811  -23.8390   21.7264 O   0  0  0  0  0  0  0  0  0  0  0  0
  -21.8018  -12.3954   26.3552 O   0  0  0  0  0  0  0  0  0  0  0  0
  -28.8170  -25.0280   23.7117 O   0  0  0  0  0  0  0  0  0  1  0  0
  -20.1285   -7.4872   28.2298 F   0  0  0  0  0  0  0  0  0  0  0  0
  -22.6814  -11.4333   28.7931 F   0  0  0  0  0  0  0  0  0  0  0  0
  1  2  1  0  0  0  0
  1  6  2  0  0  0  0
  2  7  2  0  0  0  0
  3  9  1  0  0  0  0
  3 10  2  0  0  0  0
  4 11  2  0  0  0  0
  4 19  1  0  0  0  0
  5 12  1  0  0  0  0
  5 19  2  0  0  0  0
  6 21  1  0  0  0  0
  7 23  1  0  0  0  0
  8 13  2  0  0  0  0
  8 22  1  0  0  0  0
  9 25  2  0  0  0  0
 10 26  1  0  0  0  0
 11 27  1  0  0  0  0
 12 27  2  0  0  0  0
 13 28  1  0  0  0  0
 14 15  2  0  0  0  0
 14 29  1  0  0  0  0
 15 30  1  0  0  0  0
 16 24  1  0  0  0  0
 16 28  2  0  0  0  0
 17 25  1  0  0  0  0
 17 26  2  0  0  0  0
 18 30  2  0  0  0  0
 18 31  1  0  0  0  0
 19 32  1  0  0  0  0
 20 32  1  0  0  0  0
 20 33  2  0  0  0  0
 20 34  1  0  0  0  0
 21 23  2  0  0  0  0
 21 40  1  0  0  0  0
 22 24  2  0  0  0  0
 22 41  1  0  0  0  0
 23 52  1  0  0  0  0
 24 42  1  0  0  0  0
 25 62  1  0  0  0  0
 26 63  1  0  0  0  0
 27 85  1  0  0  0  0
 28 86  1  0  0  0  0
 29 31  2  0  0  0  0
 29 85  1  0  0  0  0
 30 87  1  0  0  0  0
 31 88  1  0  0  0  0
 32 68  2  0  0  0  0
 33 69  1  0  0  0  0
 33 72  1  0  0  0  0
 34 73  1  0  0  0  0
 34 79  2  0  0  0  0
 35 55  1  0  0  0  0
 35 70  1  0  0  0  0
 35 80  2  0  0  0  0
 36 53  1  0  0  0  0
 36 74  1  0  0  0  0
 36 81  2  0  0  0  0
 37 65  1  0  0  0  0
 37 71  1  0  0  0  0
 37 82  2  0  0  0  0
 38 66  1  0  0  0  0
 38 75  1  0  0  0  0
 38 83  2  0  0  0  0
 39 64  1  0  0  0  0
 39 84  2  0  0  0  0
 39 86  1  0  0  0  0
 40 43  1  0  0  0  0
 41 53  1  0  0  0  0
 42 71  1  0  0  0  0
 43 46  1  0  0  0  0
 44 47  1  0  0  0  0
 44 49  1  0  0  0  0
 45 48  1  0  0  0  0
 45 51  1  0  0  0  0
 46 52  1  0  0  0  0
 47 54  1  0  0  0  0
 48 55  1  0  0  0  0
 49 70  1  0  0  0  0
 50 54  1  0  0  0  0
 50 70  1  0  0  0  0
 51 76  1  0  0  0  0
 52 74  1  0  0  0  0
 53 71  1  0  0  0  0
 54 69  1  0  0  0  0
 55 56  1  0  0  0  0
 55 76  1  0  0  0  0
 57 66  1  0  0  0  0
 58 67  1  0  0  0  0
 59 67  1  0  0  0  0
 60 67  1  0  0  0  0
 61 77  1  0  0  0  0
 62 76  1  0  0  0  0
 63 78  1  0  0  0  0
 64 78  1  0  0  0  0
 65 67  1  0  0  0  0
 65 75  1  0  0  0  0
 66 77  1  0  0  0  0
 68 69  1  0  0  0  0
M  CHG  3  76   1  77   1  78   1
M  ISO  4  35 100  39 101  55 100  86 101
M  END
> <Batch ID>
0024

> <Smiles>
CNC(C)C(=O)NC(C(=O)N1Cc2cc([101O:1][101C:1](=O)CNCc3cccc(CN4CCC[100C:0]4(C)[100C:0](=O)N4CCCC(n5nc(-c6ccc(Oc7ccc(F)cc7F)cc6)c(C(N)=O)c5N)C4)c3)ccc2CC1C(=O)NC1CCCc2ccccc21)C(C)(C)C

> <Shape>
0.240

> <Color>
0.082

> <Negative vol penalty>
0.000

$$$$

  -OEChem-04042321203D

 86 95  0     1  0  0  0  0  0999 V2000
  -35.7206  -13.5632   20.9017 C   0  0  0  0  0  0  0  0  0  0  0  0
  -34.9814  -14.7201   20.6768 C   0  0  0  0  0  0  0  0  0  0  0  0
  -23.3705  -10.2139   22.2059 C   0  0  0  0  0  0  0  0  0  0  0  0
  -23.6233   -9.6056   19.8814 C   0  0  0  0  0  0  0  0  0  0  0  0
  -36.2862  -13.3312   22.1547 C   0  0  0  0  0  0  0  0  0  0  0  0
  -34.8065  -15.6453   21.7054 C   0  0  0  0  0  0  0  0  0  0  0  0
  -35.5013  -20.4187   20.1636 C   0  0  0  0  0  0  0  0  0  0  0  0
  -29.0678  -18.8965   20.9727 C   0  0  0  0  0  0  0  0  0  0  0  0
  -29.2923  -20.1358   20.3733 C   0  0  0  0  0  0  0  0  0  0  0  0
  -22.6389   -9.0480   22.4315 C   0  0  0  0  0  0  0  0  0  0  0  0
  -22.8917   -8.4396   20.1070 C   0  0  0  0  0  0  0  0  0  0  0  0
  -34.4591  -21.0177   19.4573 C   0  0  0  0  0  0  0  0  0  0  0  0
  -23.4338   -5.3778   21.4305 C   0  0  0  0  0  0  0  0  0  0  0  0
  -23.9251   -4.1909   20.8869 C   0  0  0  0  0  0  0  0  0  0  0  0
  -33.7622  -22.1586   21.4653 C   0  0  0  0  0  0  0  0  0  0  0  0
  -29.9836  -17.7909   19.0294 C   0  0  0  0  0  0  0  0  0  0  0  0
  -21.8926   -3.9364   19.6058 C   0  0  0  0  0  0  0  0  0  0  0  0
  -23.8627  -10.4928   20.9309 C   0  0  0  0  0  0  0  0  0  0  0  0
  -24.1837  -13.0231   20.8854 C   0  0  0  0  0  0  0  0  0  0  0  0
  -36.1263  -14.2586   23.1963 C   0  0  0  0  0  0  0  0  0  0  0  0
  -35.6754  -20.6770   21.5308 C   0  0  0  0  0  0  0  0  0  0  0  0
  -35.3695  -15.4249   22.9739 C   0  0  0  0  0  0  0  0  0  0  0  0
  -34.8089  -21.5635   22.1860 C   0  0  0  0  0  0  0  0  0  0  0  0
  -29.4135  -17.7240   20.3007 C   0  0  0  0  0  0  0  0  0  0  0  0
  -29.8624  -20.2028   19.1021 C   0  0  0  0  0  0  0  0  0  0  0  0
  -22.3995   -8.1608   21.3820 C   0  0  0  0  0  0  0  0  0  0  0  0
  -33.5877  -21.8856   20.1088 C   0  0  0  0  0  0  0  0  0  0  0  0
  -22.1719   -5.8439   21.0618 C   0  0  0  0  0  0  0  0  0  0  0  0
  -23.1545   -3.4702   19.9745 C   0  0  0  0  0  0  0  0  0  0  0  0
  -30.2080  -19.0303   18.4301 C   0  0  0  0  0  0  0  0  0  0  0  0
  -21.4013   -5.1233   20.1494 C   0  0  0  0  0  0  0  0  0  0  0  0
  -24.6180  -11.6973   20.6971 C   0  0  0  0  0  0  0  0  0  0  0  0
  -25.2633  -13.7924   20.5260 C   0  0  0  0  0  0  0  0  0  0  0  0
  -22.9176  -13.5152   21.3443 C   0  0  0  0  0  0  0  0  0  0  0  0
  -35.6122  -18.9114   24.1732 C   0  0  0  0  0  0  0  0  0  0  0  0
  -36.5799  -21.6723   25.5742 C   0  0  0  0  0  0  0  0  0  0  0  0
  -36.5135  -25.2534   26.0085 C   0  0  0  0  0  0  0  0  0  0  0  0
  -30.8746  -14.5295   21.0618 C   0  0  0  0  0  0  0  0  0  0  0  0
  -36.7168  -13.9417   24.5475 C   0  0  0  0  0  0  0  0  0  0  0  0
  -36.8207  -20.0437   22.2723 C   0  0  0  0  0  0  0  0  0  0  0  0
  -34.9650  -21.8899   23.6481 C   0  0  0  0  0  0  0  0  0  0  0  0
  -36.7996  -15.1514   25.4749 C   0  0  0  0  0  0  0  0  0  0  0  0
  -29.5765  -12.5652   18.2055 C   0  0  0  0  0  0  0  0  0  0  0  0
  -29.6921  -23.0795   16.8848 C   0  0  0  0  0  0  0  0  0  0  0  0
  -35.4858  -15.9264   25.4600 C   0  0  0  0  0  0  0  0  0  0  0  0
  -28.1587  -12.2183   18.6567 C   0  0  0  0  0  0  0  0  0  0  0  0
  -30.3581  -23.7420   18.0777 C   0  0  0  0  0  0  0  0  0  0  0  0
  -30.0498  -21.6087   17.0600 C   0  0  0  0  0  0  0  0  0  0  0  0
  -30.5200  -12.7484   19.3904 C   0  0  0  0  0  0  0  0  0  0  0  0
  -28.6260  -13.3941   20.8430 C   0  0  0  0  0  0  0  0  0  0  0  0
  -35.1783  -16.4641   24.0573 C   0  0  1  0  0  0  0  0  0  0  0  0
  -36.5937  -19.9788   23.7795 C   0  0  1  0  0  0  0  0  0  0  0  0
  -27.6395  -13.2486   19.6746 C   0  0  2  0  0  0  0  0  0  0  0  0
  -30.1868  -22.7178   19.2131 C   0  0  2  0  0  0  0  0  0  0  0  0
  -37.8664  -26.7401   27.5108 C   0  0  0  0  0  0  0  0  0  0  0  0
  -34.2360  -21.3683   27.5038 C   0  0  0  0  0  0  0  0  0  0  0  0
  -34.5311  -23.7739   28.1316 C   0  0  0  0  0  0  0  0  0  0  0  0
  -36.3659  -22.1399   28.5632 C   0  0  0  0  0  0  0  0  0  0  0  0
  -31.2967  -16.6952   22.1624 C   0  0  0  0  0  0  0  0  0  0  0  0
  -37.4263  -26.9146   23.7356 C   0  0  0  0  0  0  0  0  0  0  0  0
  -29.1736  -16.3989   20.9415 C   0  0  0  0  0  0  0  0  0  0  0  0
  -31.3847  -22.7803   20.1551 C   0  0  0  0  0  0  0  0  0  1  0  0
  -35.8816  -22.8612   26.1889 C   0  0  1  0  0  0  0  0  0  0  0  0
  -37.7124  -26.1795   26.1055 C   0  0  2  0  0  0  0  0  0  0  0  0
  -35.2493  -22.5284   27.5698 C   0  0  0  0  0  0  0  0  0  0  0  0
  -25.8754  -11.6249   20.2524 N   0  0  0  0  0  0  0  0  0  0  0  0
  -26.2404  -12.9149   20.1583 N   0  0  0  0  0  0  0  0  0  0  0  0
  -30.0835  -21.4307   18.5109 N   0  0  3  0  0  0  0  0  0  0  0  0
  -36.0962  -21.2407   24.3310 N   0  0  0  0  0  0  0  0  0  0  0  0
  -29.9820  -13.7001   20.3631 N   0  0  0  0  0  0  0  0  0  0  0  0
  -25.4625  -15.1272   20.4918 N   0  0  0  0  0  0  0  0  0  0  0  0
  -22.7366  -13.7135   22.7199 N   0  0  0  0  0  0  0  0  0  0  0  0
  -35.9776  -17.6382   23.7796 N   0  0  0  0  0  0  0  0  0  0  0  0
  -36.8652  -23.9381   26.2261 N   0  0  0  0  0  0  0  0  0  0  0  0
  -30.4048  -15.7946   21.4459 N   0  0  0  0  0  0  0  0  0  0  0  0
  -37.5638  -27.3203   25.1582 N   0  3  0  0  0  0  0  0  0  0  0  0
  -21.9693  -13.7560   20.5594 O   0  0  0  0  0  0  0  0  0  0  0  0
  -34.5991  -19.2199   24.7898 O   0  0  0  0  0  0  0  0  0  0  0  0
  -37.5246  -21.1504   26.1717 O   0  0  0  0  0  0  0  0  0  0  0  0
  -35.3778  -25.6570   25.7678 O   0  0  0  0  0  0  0  0  0  0  0  0
  -32.0288  -14.1640   21.3188 O   0  0  0  0  0  0  0  0  0  0  0  0
  -21.6858   -7.0229   21.6018 O   0  0  0  0  0  0  0  0  0  0  0  0
  -32.5692  -22.4711   19.4219 O   0  0  0  0  0  0  0  0  0  1  0  0
  -23.6270   -2.3312   19.4514 F   0  0  0  0  0  0  0  0  0  0  0  0
  -30.7566  -19.0830   17.2079 F   0  0  0  0  0  0  0  0  0  0  0  0
  -20.1887   -5.5667   19.7905 F   0  0  0  0  0  0  0  0  0  0  0  0
  1  2  1  0  0  0  0
  1  5  2  0  0  0  0
  2  6  2  0  0  0  0
  3 10  2  0  0  0  0
  3 18  1  0  0  0  0
  4 11  1  0  0  0  0
  4 18  2  0  0  0  0
  5 20  1  0  0  0  0
  6 22  1  0  0  0  0
  7 12  2  0  0  0  0
  7 21  1  0  0  0  0
  8  9  2  0  0  0  0
  8 24  1  0  0  0  0
  9 25  1  0  0  0  0
 10 26  1  0  0  0  0
 11 26  2  0  0  0  0
 12 27  1  0  0  0  0
 13 14  2  0  0  0  0
 13 28  1  0  0  0  0
 14 29  1  0  0  0  0
 15 23  1  0  0  0  0
 15 27  2  0  0  0  0
 16 24  2  0  0  0  0
 16 30  1  0  0  0  0
 17 29  2  0  0  0  0
 17 31  1  0  0  0  0
 18 32  1  0  0  0  0
 19 32  1  0  0  0  0
 19 33  2  0  0  0  0
 19 34  1  0  0  0  0
 20 22  2  0  0  0  0
 20 39  1  0  0  0  0
 21 23  2  0  0  0  0
 21 40  1  0  0  0  0
 22 51  1  0  0  0  0
 23 41  1  0  0  0  0
 24 61  1  0  0  0  0
 25 30  2  0  0  0  0
 25 68  1  0  0  0  0
 26 82  1  0  0  0  0
 27 83  1  0  0  0  0
 28 31  2  0  0  0  0
 28 82  1  0  0  0  0
 29 84  1  0  0  0  0
 30 85  1  0  0  0  0
 31 86  1  0  0  0  0
 32 66  2  0  0  0  0
 33 67  1  0  0  0  0
 33 71  1  0  0  0  0
 34 72  1  0  0  0  0
 34 77  2  0  0  0  0
 35 52  1  0  0  0  0
 35 73  1  0  0  0  0
 35 78  2  0  0  0  0
 36 63  1  0  0  0  0
 36 69  1  0  0  0  0
 36 79  2  0  0  0  0
 37 64  1  0  0  0  0
 37 74  1  0  0  0  0
 37 80  2  0  0  0  0
 38 70  1  0  0  0  0
 38 75  1  0  0  0  0
 38 81  2  0  0  0  0
 39 42  1  0  0  0  0
 40 52  1  0  0  0  0
 41 69  1  0  0  0  0
 42 45  1  0  0  0  0
 43 46  1  0  0  0  0
 43 49  1  0  0  0  0
 44 47  1  0  0  0  0
 44 48  1  0  0  0  0
 45 51  1  0  0  0  0
 46 53  1  0  0  0  0
 47 54  1  0  0  0  0
 48 68  1  0  0  0  0
 49 70  1  0  0  0  0
 50 53  1  0  0  0  0
 50 70  1  0  0  0  0
 51 73  1  0  0  0  0
 52 69  1  0  0  0  0
 53 67  1  0  0  0  0
 54 62  1  0  0  0  0
 54 68  1  0  0  0  0
 55 64  1  0  0  0  0
 56 65  1  0  0  0  0
 57 65  1  0  0  0  0
 58 65  1  0  0  0  0
 59 75  1  0  0  0  0
 60 76  1  0  0  0  0
 61 75  1  0  0  0  0
 62 83  1  0  0  0  0
 63 65  1  0  0  0  0
 63 74  1  0  0  0  0
 64 76  1  0  0  0  0
 66 67  1  0  0  0  0
M  CHG  1  76   1
M  ISO  4  38 100  62 101  75 100  83 101
M  END
> <Batch ID>
0024

> <Smiles>
CNC(C)C(=O)NC(C(=O)N1Cc2cc([101O:1][101CH2:1]C3CCCN3c3ccc(C[100N:0](C)[100C:0](=O)N4CCCC(n5nc(-c6ccc(Oc7ccc(F)cc7F)cc6)c(C(N)=O)c5N)C4)cc3F)ccc2CC1C(=O)NC1CCCc2ccccc21)C(C)(C)C

> <Shape>
0.199

> <Color>
0.161

> <Negative vol penalty>
0.000

$$$$

  -OEChem-04042321203D

 86 94  0     1  0  0  0  0  0999 V2000
  -19.0131  -24.6623   21.7500 C   0  0  0  0  0  0  0  0  0  0  0  0
  -20.1747  -25.0211   21.0737 C   0  0  0  0  0  0  0  0  0  0  0  0
  -28.3904  -13.9069   21.6247 C   0  0  0  0  0  0  0  0  0  0  0  0
  -28.4225  -13.9101   19.2089 C   0  0  0  0  0  0  0  0  0  0  0  0
  -18.2295  -25.6434   22.3561 C   0  0  0  0  0  0  0  0  0  0  0  0
  -20.5528  -26.3614   21.0023 C   0  0  0  0  0  0  0  0  0  0  0  0
  -25.4870  -27.0394   21.9181 C   0  0  0  0  0  0  0  0  0  0  0  0
  -27.4932  -12.8391   21.6114 C   0  0  0  0  0  0  0  0  0  0  0  0
  -27.5252  -12.8422   19.1956 C   0  0  0  0  0  0  0  0  0  0  0  0
  -26.3734  -26.7417   20.8839 C   0  0  0  0  0  0  0  0  0  0  0  0
  -25.4734   -9.8779   22.2171 C   0  0  0  0  0  0  0  0  0  0  0  0
  -25.7122   -8.8192   23.0932 C   0  0  0  0  0  0  0  0  0  0  0  0
  -26.5282  -29.0889   20.3491 C   0  0  0  0  0  0  0  0  0  0  0  0
  -27.9457  -22.8190   16.0376 C   0  0  0  0  0  0  0  0  0  0  0  0
  -27.8515   -8.4301   22.0399 C   0  0  0  0  0  0  0  0  0  0  0  0
  -28.3041  -21.2971   13.7272 C   0  0  0  0  0  0  0  0  0  0  0  0
  -28.8551  -14.4425   20.4234 C   0  0  0  0  0  0  0  0  0  0  0  0
  -31.1874  -15.4754   20.4548 C   0  0  0  0  0  0  0  0  0  0  0  0
  -18.6033  -26.9954   22.3003 C   0  0  0  0  0  0  0  0  0  0  0  0
  -25.1055  -28.3653   22.1690 C   0  0  0  0  0  0  0  0  0  0  0  0
  -19.7727  -27.3616   21.6070 C   0  0  0  0  0  0  0  0  0  0  0  0
  -25.6389  -29.4010   21.3887 C   0  0  0  0  0  0  0  0  0  0  0  0
  -27.4181  -23.2592   14.8238 C   0  0  0  0  0  0  0  0  0  0  0  0
  -28.6526  -21.6179   16.0963 C   0  0  0  0  0  0  0  0  0  0  0  0
  -27.0606  -12.3067   20.3969 C   0  0  0  0  0  0  0  0  0  0  0  0
  -26.8919  -27.7662   20.0974 C   0  0  0  0  0  0  0  0  0  0  0  0
  -26.4235  -10.2127   21.2522 C   0  0  0  0  0  0  0  0  0  0  0  0
  -26.9013   -8.0954   23.0047 C   0  0  0  0  0  0  0  0  0  0  0  0
  -27.6126   -9.4888   21.1637 C   0  0  0  0  0  0  0  0  0  0  0  0
  -27.5973  -22.4983   13.6685 C   0  0  0  0  0  0  0  0  0  0  0  0
  -28.8317  -20.8570   14.9411 C   0  0  0  0  0  0  0  0  0  0  0  0
  -29.7815  -15.5460   20.4364 C   0  0  0  0  0  0  0  0  0  0  0  0
  -31.5969  -16.7864   20.4611 C   0  0  0  0  0  0  0  0  0  0  0  0
  -32.0463  -14.3275   20.4651 C   0  0  0  0  0  0  0  0  0  0  0  0
  -22.3540  -29.9559   22.1165 C   0  0  0  0  0  0  0  0  0  0  0  0
  -24.1706  -32.3620   23.3135 C   0  0  0  0  0  0  0  0  0  0  0  0
  -27.1851  -26.4359   16.3804 C   0  0  0  0  0  0  0  0  0  0  0  0
  -27.2649  -33.7591   23.6605 C   0  0  0  0  0  0  0  0  0  0  0  0
  -29.0722  -21.8608   18.5684 C   0  0  0  0  0  0  0  0  0  0  0  0
  -17.6992  -28.0251   22.9303 C   0  0  0  0  0  0  0  0  0  0  0  0
  -24.1692  -28.6724   23.3054 C   0  0  0  0  0  0  0  0  0  0  0  0
  -25.2768  -30.8429   21.6300 C   0  0  0  0  0  0  0  0  0  0  0  0
  -18.3679  -29.3830   23.1286 C   0  0  0  0  0  0  0  0  0  0  0  0
  -30.1912  -21.1419   21.8711 C   0  0  0  0  0  0  0  0  0  0  0  0
  -19.1144  -29.8000   21.8655 C   0  0  0  0  0  0  0  0  0  0  0  0
  -30.3469  -19.6195   21.8778 C   0  0  0  0  0  0  0  0  0  0  0  0
  -28.9909  -21.5856   21.0367 C   0  0  0  0  0  0  0  0  0  0  0  0
  -29.1155  -19.5381   19.6724 C   0  0  0  0  0  0  0  0  0  0  0  0
  -20.2292  -28.8023   21.5288 C   0  0  1  0  0  0  0  0  0  0  0  0
  -23.4501  -30.0080   23.1429 C   0  0  1  0  0  0  0  0  0  0  0  0
  -30.3495  -19.0470   20.4468 C   0  0  2  0  0  0  0  0  0  0  0  0
  -28.4287  -35.7454   24.6592 C   0  0  0  0  0  0  0  0  0  0  0  0
  -23.1241  -34.1130   21.0444 C   0  0  0  0  0  0  0  0  0  0  0  0
  -24.9892  -35.7157   21.5142 C   0  0  0  0  0  0  0  0  0  0  0  0
  -23.2703  -35.2578   23.2631 C   0  0  0  0  0  0  0  0  0  0  0  0
  -28.6630  -25.9471   14.4188 C   0  0  0  0  0  0  0  0  0  0  0  0
  -28.9211  -32.0502   25.4200 C   0  0  0  0  0  0  0  0  0  0  0  0
  -26.6648  -24.5578   14.8031 C   0  0  0  0  0  0  0  0  0  0  0  0
  -28.1488  -27.5708   16.7112 C   0  0  0  0  0  0  0  0  0  0  0  0
  -27.7496  -28.3507   17.9576 C   0  0  0  0  0  0  0  0  0  1  0  0
  -24.9869  -33.4835   22.7176 C   0  0  1  0  0  0  0  0  0  0  0  0
  -27.9934  -34.3044   24.8755 C   0  0  2  0  0  0  0  0  0  0  0  0
  -24.0982  -34.6152   22.1288 C   0  0  0  0  0  0  0  0  0  0  0  0
  -29.3282  -16.8024   20.4316 N   0  0  0  0  0  0  0  0  0  0  0  0
  -30.4558  -17.5334   20.4470 N   0  0  0  0  0  0  0  0  0  0  0  0
  -24.3528  -31.0917   22.7489 N   0  0  0  0  0  0  0  0  0  0  0  0
  -29.0632  -21.0084   19.6927 N   0  0  0  0  0  0  0  0  0  0  0  0
  -32.8181  -17.3616   20.4773 N   0  0  0  0  0  0  0  0  0  0  0  0
  -31.4603  -13.0544   20.4564 N   0  0  0  0  0  0  0  0  0  0  0  0
  -29.1766  -21.2002   17.3447 N   0  0  0  0  0  0  0  0  0  0  0  0
  -21.3758  -29.0176   22.3852 N   0  0  0  0  0  0  0  0  0  0  0  0
  -25.9002  -33.9253   23.7660 N   0  0  0  0  0  0  0  0  0  0  0  0
  -27.4929  -25.6774   15.2454 N   0  0  0  0  0  0  0  0  0  0  0  0
  -29.2048  -33.4857   25.1639 N   0  3  0  0  0  0  0  0  0  0  0  0
  -33.2963  -14.4277   20.4982 O   0  0  0  0  0  0  0  0  0  0  0  0
  -22.3920  -30.7121   21.1529 O   0  0  0  0  0  0  0  0  0  0  0  0
  -23.4051  -32.6029   24.2503 O   0  0  0  0  0  0  0  0  0  0  0  0
  -26.1998  -26.2223   17.0916 O   0  0  0  0  0  0  0  0  0  0  0  0
  -27.8485  -33.2411   22.7109 O   0  0  0  0  0  0  0  0  0  0  0  0
  -29.0206  -23.0880   18.6840 O   0  0  0  0  0  0  0  0  0  0  0  0
  -26.1852  -11.2645   20.3836 O   0  0  0  0  0  0  0  0  0  0  0  0
  -27.7567  -27.4783   19.0869 O   0  0  0  0  0  0  0  0  0  1  0  0
  -27.1312   -7.0797   23.8472 F   0  0  0  0  0  0  0  0  0  0  0  0
  -28.5296   -9.8065   20.2397 F   0  0  0  0  0  0  0  0  0  0  0  0
  -26.9583  -23.0116   12.1496 Cl  0  0  0  0  0  0  0  0  0  0  0  0
  -29.7002  -19.3635   14.9698 Cl  0  0  0  0  0  0  0  0  0  0  0  0
  1  2  1  0  0  0  0
  1  5  2  0  0  0  0
  2  6  2  0  0  0  0
  3  8  2  0  0  0  0
  3 17  1  0  0  0  0
  4  9  1  0  0  0  0
  4 17  2  0  0  0  0
  5 19  1  0  0  0  0
  6 21  1  0  0  0  0
  7 10  2  0  0  0  0
  7 20  1  0  0  0  0
  8 25  1  0  0  0  0
  9 25  2  0  0  0  0
 10 26  1  0  0  0  0
 11 12  2  0  0  0  0
 11 27  1  0  0  0  0
 12 28  1  0  0  0  0
 13 22  1  0  0  0  0
 13 26  2  0  0  0  0
 14 23  1  0  0  0  0
 14 24  2  0  0  0  0
 15 28  2  0  0  0  0
 15 29  1  0  0  0  0
 16 30  1  0  0  0  0
 16 31  2  0  0  0  0
 17 32  1  0  0  0  0
 18 32  1  0  0  0  0
 18 33  2  0  0  0  0
 18 34  1  0  0  0  0
 19 21  2  0  0  0  0
 19 40  1  0  0  0  0
 20 22  2  0  0  0  0
 20 41  1  0  0  0  0
 21 49  1  0  0  0  0
 22 42  1  0  0  0  0
 23 30  2  0  0  0  0
 23 58  1  0  0  0  0
 24 31  1  0  0  0  0
 24 70  1  0  0  0  0
 25 81  1  0  0  0  0
 26 82  1  0  0  0  0
 27 29  2  0  0  0  0
 27 81  1  0  0  0  0
 28 83  1  0  0  0  0
 29 84  1  0  0  0  0
 30 85  1  0  0  0  0
 31 86  1  0  0  0  0
 32 64  2  0  0  0  0
 33 65  1  0  0  0  0
 33 68  1  0  0  0  0
 34 69  1  0  0  0  0
 34 75  2  0  0  0  0
 35 50  1  0  0  0  0
 35 71  1  0  0  0  0
 35 76  2  0  0  0  0
 36 61  1  0  0  0  0
 36 66  1  0  0  0  0
 36 77  2  0  0  0  0
 37 59  1  0  0  0  0
 37 73  1  0  0  0  0
 37 78  2  0  0  0  0
 38 62  1  0  0  0  0
 38 72  1  0  0  0  0
 38 79  2  0  0  0  0
 39 67  1  0  0  0  0
 39 70  1  0  0  0  0
 39 80  2  0  0  0  0
 40 43  1  0  0  0  0
 41 50  1  0  0  0  0
 42 66  1  0  0  0  0
 43 45  1  0  0  0  0
 44 46  1  0  0  0  0
 44 47  1  0  0  0  0
 45 49  1  0  0  0  0
 46 51  1  0  0  0  0
 47 67  1  0  0  0  0
 48 51  1  0  0  0  0
 48 67  1  0  0  0  0
 49 71  1  0  0  0  0
 50 66  1  0  0  0  0
 51 65  1  0  0  0  0
 52 62  1  0  0  0  0
 53 63  1  0  0  0  0
 54 63  1  0  0  0  0
 55 63  1  0  0  0  0
 56 73  1  0  0  0  0
 57 74  1  0  0  0  0
 58 73  1  0  0  0  0
 59 60  1  0  0  0  0
 60 82  1  0  0  0  0
 61 63  1  0  0  0  0
 61 72  1  0  0  0  0
 62 74  1  0  0  0  0
 64 65  1  0  0  0  0
M  CHG  1  74   1
M  ISO  4  39 100  60 101  70 100  82 101
M  END
> <Batch ID>
0024

> <Smiles>
CNC(C)C(=O)NC(C(=O)N1Cc2cc([101O:1][101CH2:1]CC(=O)N(C)Cc3cc([100NH:0][100C:0](=O)N4CCCC(n5nc(-c6ccc(Oc7ccc(F)cc7F)cc6)c(C(N)=O)c5N)C4)c(Cl)cc3Cl)ccc2CC1C(=O)NC1CCCc2ccccc21)C(C)(C)C

> <Shape>
0.275

> <Color>
0.109

> <Negative vol penalty>
0.000

$$$$

  -OEChem-04042321203D

 88 96  0     1  0  0  0  0  0999 V2000
  -36.7359  -23.3717   13.6735 C   0  0  0  0  0  0  0  0  0  0  0  0
  -35.9027  -22.6534   14.5252 C   0  0  0  0  0  0  0  0  0  0  0  0
  -22.3984  -23.5055   20.6781 C   0  0  0  0  0  0  0  0  0  0  0  0
  -21.9559  -21.9831   22.5012 C   0  0  0  0  0  0  0  0  0  0  0  0
  -37.0516  -24.6982   13.9642 C   0  0  0  0  0  0  0  0  0  0  0  0
  -35.3856  -23.2611   15.6688 C   0  0  0  0  0  0  0  0  0  0  0  0
  -30.4575  -22.2959   16.3221 C   0  0  0  0  0  0  0  0  0  0  0  0
  -21.2679  -24.2464   21.0224 C   0  0  0  0  0  0  0  0  0  0  0  0
  -20.8253  -22.7241   22.8455 C   0  0  0  0  0  0  0  0  0  0  0  0
  -30.1165  -21.0473   16.8402 C   0  0  0  0  0  0  0  0  0  0  0  0
  -20.4143  -26.5572   23.3385 C   0  0  0  0  0  0  0  0  0  0  0  0
  -20.5354  -27.9464   23.3726 C   0  0  0  0  0  0  0  0  0  0  0  0
  -29.8334  -22.0365   19.0220 C   0  0  0  0  0  0  0  0  0  0  0  0
  -29.9501  -12.9532   18.8765 C   0  0  0  0  0  0  0  0  0  0  0  0
  -27.6992  -12.3964   19.5549 C   0  0  0  0  0  0  0  0  0  0  0  0
  -18.8232  -28.1370   21.6787 C   0  0  0  0  0  0  0  0  0  0  0  0
  -22.7424  -22.3738   21.4175 C   0  0  0  0  0  0  0  0  0  0  0  0
  -25.2232  -21.7911   21.5343 C   0  0  0  0  0  0  0  0  0  0  0  0
  -36.5303  -25.3254   15.1068 C   0  0  0  0  0  0  0  0  0  0  0  0
  -30.4997  -23.4242   17.1538 C   0  0  0  0  0  0  0  0  0  0  0  0
  -35.6957  -24.5969   15.9758 C   0  0  0  0  0  0  0  0  0  0  0  0
  -30.1728  -23.2988   18.5116 C   0  0  0  0  0  0  0  0  0  0  0  0
  -29.8542  -14.1681   19.5551 C   0  0  0  0  0  0  0  0  0  0  0  0
  -27.6032  -13.6113   20.2335 C   0  0  0  0  0  0  0  0  0  0  0  0
  -20.4814  -23.8557   22.1061 C   0  0  0  0  0  0  0  0  0  0  0  0
  -29.8071  -20.9169   18.1909 C   0  0  0  0  0  0  0  0  0  0  0  0
  -19.4978  -25.9579   22.4745 C   0  0  0  0  0  0  0  0  0  0  0  0
  -19.7398  -28.7363   22.5427 C   0  0  0  0  0  0  0  0  0  0  0  0
  -18.7022  -26.7478   21.6446 C   0  0  0  0  0  0  0  0  0  0  0  0
  -28.6807  -14.4971   20.2336 C   0  0  0  0  0  0  0  0  0  0  0  0
  -28.8726  -12.0674   18.8764 C   0  0  0  0  0  0  0  0  0  0  0  0
  -23.9097  -21.6076   21.0620 C   0  0  0  0  0  0  0  0  0  0  0  0
  -25.9553  -20.8173   20.9000 C   0  0  0  0  0  0  0  0  0  0  0  0
  -25.7357  -22.7554   22.4633 C   0  0  0  0  0  0  0  0  0  0  0  0
  -32.7644  -25.4665   18.0504 C   0  0  0  0  0  0  0  0  0  0  0  0
  -30.2771  -27.0040   19.4545 C   0  0  0  0  0  0  0  0  0  0  0  0
  -30.2245  -17.4497   19.0965 C   0  0  0  0  0  0  0  0  0  0  0  0
  -27.1297  -26.8303   20.7624 C   0  0  0  0  0  0  0  0  0  0  0  0
  -25.4831  -15.3402   19.0856 C   0  0  0  0  0  0  0  0  0  0  0  0
  -36.9379  -26.7467   15.4044 C   0  0  0  0  0  0  0  0  0  0  0  0
  -30.8435  -24.7689   16.5741 C   0  0  0  0  0  0  0  0  0  0  0  0
  -30.1836  -24.4828   19.4425 C   0  0  0  0  0  0  0  0  0  0  0  0
  -36.0475  -27.4319   16.4378 C   0  0  0  0  0  0  0  0  0  0  0  0
  -25.3307  -18.0873   16.8258 C   0  0  0  0  0  0  0  0  0  0  0  0
  -35.8156  -26.5151   17.6346 C   0  0  0  0  0  0  0  0  0  0  0  0
  -25.0709  -19.2922   17.7317 C   0  0  0  0  0  0  0  0  0  0  0  0
  -24.6021  -16.8404   17.3222 C   0  0  0  0  0  0  0  0  0  0  0  0
  -24.6082  -17.6916   19.6350 C   0  0  0  0  0  0  0  0  0  0  0  0
  -35.0953  -25.2288   17.2128 C   0  0  1  0  0  0  0  0  0  0  0  0
  -31.3549  -25.7566   17.6182 C   0  0  1  0  0  0  0  0  0  0  0  0
  -25.3670  -18.9591   19.2064 C   0  0  2  0  0  0  0  0  0  0  0  0
  -25.3755  -28.2431   21.8689 C   0  0  0  0  0  0  0  0  0  0  0  0
  -26.4958  -14.2015   22.4906 C   0  0  0  0  0  0  0  0  0  0  0  0
  -25.2912  -12.8303   20.7948 C   0  0  0  0  0  0  0  0  0  0  0  0
  -31.8651  -26.9317   22.0589 C   0  0  0  0  0  0  0  0  0  0  0  0
  -29.7477  -27.4655   23.2835 C   0  0  0  0  0  0  0  0  0  0  0  0
  -30.6697  -29.0851   21.6254 C   0  0  0  0  0  0  0  0  0  0  0  0
  -31.2079  -16.0428   17.2783 C   0  0  0  0  0  0  0  0  0  0  0  0
  -25.1887  -26.3313   18.5847 C   0  0  0  0  0  0  0  0  0  0  0  0
  -31.0157  -15.1194   19.5539 C   0  0  0  0  0  0  0  0  0  0  0  0
  -30.0544  -18.5544   18.0751 C   0  0  0  0  0  0  0  0  0  1  0  0
  -29.6076  -26.9421   20.8061 C   0  0  1  0  0  0  0  0  0  0  0  0
  -25.9016  -27.6972   20.5505 C   0  0  2  0  0  0  0  0  0  0  0  0
  -26.3475  -13.9601   20.9584 C   0  0  0  0  0  0  0  0  0  0  0  0
  -30.4741  -27.5832   21.9266 C   0  0  0  0  0  0  0  0  0  0  0  0
  -23.8102  -20.5969   20.1945 N   0  0  0  0  0  0  0  0  0  0  0  0
  -25.0704  -20.1366   20.1166 N   0  0  0  0  0  0  0  0  0  0  0  0
  -30.5322  -25.7751   18.8295 N   0  0  0  0  0  0  0  0  0  0  0  0
  -24.9271  -16.5791   18.7265 N   0  0  0  0  0  0  0  0  0  0  0  0
  -27.2632  -20.4856   20.9414 N   0  0  0  0  0  0  0  0  0  0  0  0
  -24.8462  -23.6837   23.0216 N   0  0  0  0  0  0  0  0  0  0  0  0
  -33.6834  -25.4806   17.0185 N   0  0  0  0  0  0  0  0  0  0  0  0
  -28.2951  -27.5570   20.6401 N   0  0  0  0  0  0  0  0  0  0  0  0
  -25.7671  -15.1770   20.4360 N   0  0  0  0  0  0  0  0  0  0  0  0
  -30.7931  -16.2527   18.6598 N   0  0  0  0  0  0  0  0  0  0  0  0
  -24.8163  -26.9082   19.9020 N   0  3  0  0  0  0  0  0  0  0  0  0
  -26.9495  -22.8033   22.7763 O   0  0  0  0  0  0  0  0  0  0  0  0
  -33.0010  -25.2476   19.2327 O   0  0  0  0  0  0  0  0  0  0  0  0
  -30.5567  -28.1025   18.9679 O   0  0  0  0  0  0  0  0  0  0  0  0
  -29.8638  -17.6563   20.2593 O   0  0  0  0  0  0  0  0  0  0  0  0
  -27.0618  -25.6294   21.0150 O   0  0  0  0  0  0  0  0  0  0  0  0
  -25.7146  -14.4477   18.2629 O   0  0  0  0  0  0  0  0  0  0  0  0
  -19.3783  -24.5786   22.4425 O   0  0  0  0  0  0  0  0  0  0  0  0
  -29.4745  -19.6992   18.6992 O   0  0  0  0  0  0  0  0  0  1  0  0
  -19.8550  -30.0703   22.5766 F   0  0  0  0  0  0  0  0  0  0  0  0
  -17.8190  -26.1779   20.8134 F   0  0  0  0  0  0  0  0  0  0  0  0
  -28.5892  -15.6655   20.8861 F   0  0  0  0  0  0  0  0  0  0  0  0
  -28.9916  -10.5680   18.0403 Cl  0  0  0  0  0  0  0  0  0  0  0  0
  1  2  1  0  0  0  0
  1  5  2  0  0  0  0
  2  6  2  0  0  0  0
  3  8  2  0  0  0  0
  3 17  1  0  0  0  0
  4  9  1  0  0  0  0
  4 17  2  0  0  0  0
  5 19  1  0  0  0  0
  6 21  1  0  0  0  0
  7 10  2  0  0  0  0
  7 20  1  0  0  0  0
  8 25  1  0  0  0  0
  9 25  2  0  0  0  0
 10 26  1  0  0  0  0
 11 12  2  0  0  0  0
 11 27  1  0  0  0  0
 12 28  1  0  0  0  0
 13 22  1  0  0  0  0
 13 26  2  0  0  0  0
 14 23  1  0  0  0  0
 14 31  2  0  0  0  0
 15 24  2  0  0  0  0
 15 31  1  0  0  0  0
 16 28  2  0  0  0  0
 16 29  1  0  0  0  0
 17 32  1  0  0  0  0
 18 32  1  0  0  0  0
 18 33  2  0  0  0  0
 18 34  1  0  0  0  0
 19 21  2  0  0  0  0
 19 40  1  0  0  0  0
 20 22  2  0  0  0  0
 20 41  1  0  0  0  0
 21 49  1  0  0  0  0
 22 42  1  0  0  0  0
 23 30  2  0  0  0  0
 23 60  1  0  0  0  0
 24 30  1  0  0  0  0
 24 64  1  0  0  0  0
 25 83  1  0  0  0  0
 26 84  1  0  0  0  0
 27 29  2  0  0  0  0
 27 83  1  0  0  0  0
 28 85  1  0  0  0  0
 29 86  1  0  0  0  0
 30 87  1  0  0  0  0
 31 88  1  0  0  0  0
 32 66  2  0  0  0  0
 33 67  1  0  0  0  0
 33 70  1  0  0  0  0
 34 71  1  0  0  0  0
 34 77  2  0  0  0  0
 35 50  1  0  0  0  0
 35 72  1  0  0  0  0
 35 78  2  0  0  0  0
 36 62  1  0  0  0  0
 36 68  1  0  0  0  0
 36 79  2  0  0  0  0
 37 61  1  0  0  0  0
 37 75  1  0  0  0  0
 37 80  2  0  0  0  0
 38 63  1  0  0  0  0
 38 73  1  0  0  0  0
 38 81  2  0  0  0  0
 39 69  1  0  0  0  0
 39 74  1  0  0  0  0
 39 82  2  0  0  0  0
 40 43  1  0  0  0  0
 41 50  1  0  0  0  0
 42 68  1  0  0  0  0
 43 45  1  0  0  0  0
 44 46  1  0  0  0  0
 44 47  1  0  0  0  0
 45 49  1  0  0  0  0
 46 51  1  0  0  0  0
 47 69  1  0  0  0  0
 48 51  1  0  0  0  0
 48 69  1  0  0  0  0
 49 72  1  0  0  0  0
 50 68  1  0  0  0  0
 51 67  1  0  0  0  0
 52 63  1  0  0  0  0
 53 64  1  0  0  0  0
 54 64  1  0  0  0  0
 55 65  1  0  0  0  0
 56 65  1  0  0  0  0
 57 65  1  0  0  0  0
 58 75  1  0  0  0  0
 59 76  1  0  0  0  0
 60 75  1  0  0  0  0
 61 84  1  0  0  0  0
 62 65  1  0  0  0  0
 62 73  1  0  0  0  0
 63 76  1  0  0  0  0
 64 74  1  0  0  0  0
 66 67  1  0  0  0  0
M  CHG  1  76   1
M  ISO  4  39 100  61 101  74 100  84 101
M  END
> <Batch ID>
0024

> <Smiles>
CNC(C)C(=O)NC(C(=O)N1Cc2cc([101O:1][101CH2:1]C(=O)N(C)Cc3cc(Cl)cc(C(C)(C)[100NH:0][100C:0](=O)N4CCCC(n5nc(-c6ccc(Oc7ccc(F)cc7F)cc6)c(C(N)=O)c5N)C4)c3F)ccc2CC1C(=O)NC1CCCc2ccccc21)C(C)(C)C

> <Shape>
0.223

> <Color>
0.063

> <Negative vol penalty>
0.000

$$$$

  -OEChem-04042321203D

 93103  0     1  0  0  0  0  0999 V2000
  -29.3582  -30.0841   26.9972 C   0  0  0  0  0  0  0  0  0  0  0  0
  -28.8995  -29.1755   26.0488 C   0  0  0  0  0  0  0  0  0  0  0  0
  -22.6042  -11.3712   20.8595 C   0  0  0  0  0  0  0  0  0  0  0  0
  -24.0427   -9.7971   21.9952 C   0  0  0  0  0  0  0  0  0  0  0  0
  -28.5030  -31.0706   27.4866 C   0  0  0  0  0  0  0  0  0  0  0  0
  -27.5850  -29.2522   25.5900 C   0  0  0  0  0  0  0  0  0  0  0  0
  -27.2523  -28.7770   20.5593 C   0  0  0  0  0  0  0  0  0  0  0  0
  -21.6137  -11.1578   21.8182 C   0  0  0  0  0  0  0  0  0  0  0  0
  -23.0523   -9.5837   22.9540 C   0  0  0  0  0  0  0  0  0  0  0  0
  -27.3531  -27.4898   20.0333 C   0  0  0  0  0  0  0  0  0  0  0  0
  -20.1745   -7.8283   23.2148 C   0  0  0  0  0  0  0  0  0  0  0  0
  -19.9049   -6.5110   23.5859 C   0  0  0  0  0  0  0  0  0  0  0  0
  -24.9514  -27.3910   19.8306 C   0  0  0  0  0  0  0  0  0  0  0  0
  -29.2198  -19.7857   20.8515 C   0  0  0  0  0  0  0  0  0  0  0  0
  -30.3086  -17.6304   20.7715 C   0  0  0  0  0  0  0  0  0  0  0  0
  -20.4962   -7.0333   25.8695 C   0  0  0  0  0  0  0  0  0  0  0  0
  -23.8187  -10.6908   20.9480 C   0  0  0  0  0  0  0  0  0  0  0  0
  -24.7464  -10.6833   18.5717 C   0  0  0  0  0  0  0  0  0  0  0  0
  -27.1802  -31.1654   27.0265 C   0  0  0  0  0  0  0  0  0  0  0  0
  -25.9974  -29.3777   20.7353 C   0  0  0  0  0  0  0  0  0  0  0  0
  -26.7109  -30.2400   26.0747 C   0  0  0  0  0  0  0  0  0  0  0  0
  -24.8375  -28.6869   20.3566 C   0  0  0  0  0  0  0  0  0  0  0  0
  -28.0926  -19.2390   20.2381 C   0  0  0  0  0  0  0  0  0  0  0  0
  -28.0734  -17.8881   19.8915 C   0  0  0  0  0  0  0  0  0  0  0  0
  -29.1814  -17.0837   20.1582 C   0  0  0  0  0  0  0  0  0  0  0  0
  -21.8378  -10.2640   22.8654 C   0  0  0  0  0  0  0  0  0  0  0  0
  -26.2024  -26.7955   19.6715 C   0  0  0  0  0  0  0  0  0  0  0  0
  -20.6051   -8.7481   24.1710 C   0  0  0  0  0  0  0  0  0  0  0  0
  -20.0657   -6.1136   24.9133 C   0  0  0  0  0  0  0  0  0  0  0  0
  -20.7659   -8.3506   25.4984 C   0  0  0  0  0  0  0  0  0  0  0  0
  -30.3278  -18.9813   21.1182 C   0  0  0  0  0  0  0  0  0  0  0  0
  -24.8420  -10.9104   19.9577 C   0  0  0  0  0  0  0  0  0  0  0  0
  -25.9764  -11.0449   18.0788 C   0  0  0  0  0  0  0  0  0  0  0  0
  -27.1477  -22.5619   19.5290 C   0  0  0  0  0  0  0  0  0  0  0  0
  -23.6443  -10.1896   17.7988 C   0  0  0  0  0  0  0  0  0  0  0  0
  -24.3535  -30.4470   23.2370 C   0  0  0  0  0  0  0  0  0  0  0  0
  -22.3017  -31.4879   20.9503 C   0  0  0  0  0  0  0  0  0  0  0  0
  -21.0956  -31.1625   17.7745 C   0  0  0  0  0  0  0  0  0  0  0  0
  -30.2108  -14.7888   20.0172 C   0  0  0  0  0  0  0  0  0  0  0  0
  -26.2790  -32.2192   27.6198 C   0  0  0  0  0  0  0  0  0  0  0  0
  -25.9072  -30.7772   21.2792 C   0  0  0  0  0  0  0  0  0  0  0  0
  -23.4677  -29.2950   20.5066 C   0  0  0  0  0  0  0  0  0  0  0  0
  -25.0117  -32.4657   26.8053 C   0  0  0  0  0  0  0  0  0  0  0  0
  -28.7400  -21.7618   17.1763 C   0  0  0  0  0  0  0  0  0  0  0  0
  -30.5870  -11.3125   19.3456 C   0  0  0  0  0  0  0  0  0  0  0  0
  -24.7292  -15.5579   21.6899 C   0  0  0  0  0  0  0  0  0  0  0  0
  -24.1264  -15.2995   20.3237 C   0  0  0  0  0  0  0  0  0  0  0  0
  -24.3621  -31.1419   26.4149 C   0  0  0  0  0  0  0  0  0  0  0  0
  -28.8150  -23.1649   17.7811 C   0  0  0  0  0  0  0  0  0  0  0  0
  -29.1475  -10.7954   19.2942 C   0  0  0  0  0  0  0  0  0  0  0  0
  -27.5651  -20.9421   17.6990 C   0  0  0  0  0  0  0  0  0  0  0  0
  -30.7623  -12.3973   20.4068 C   0  0  0  0  0  0  0  0  0  0  0  0
  -28.3782  -13.0005   20.2600 C   0  0  0  0  0  0  0  0  0  0  0  0
  -26.0577  -16.1978   21.3485 C   0  0  0  0  0  0  0  0  0  0  0  0
  -24.4639  -16.5490   19.5294 C   0  0  0  0  0  0  0  0  0  0  0  0
  -25.2990  -30.3063   25.5342 C   0  0  1  0  0  0  0  0  0  0  0  0
  -27.5008  -23.5818   18.4452 C   0  0  2  0  0  0  0  0  0  0  0  0
  -24.5472  -31.0928   21.8942 C   0  0  1  0  0  0  0  0  0  0  0  0
  -28.1376  -11.9521   19.1615 C   0  0  2  0  0  0  0  0  0  0  0  0
  -19.3944  -32.1312   16.2045 C   0  0  0  0  0  0  0  0  0  0  0  0
  -20.0879  -30.0082   22.4401 C   0  0  0  0  0  0  0  0  0  0  0  0
  -18.6715  -30.2011   20.3846 C   0  0  0  0  0  0  0  0  0  0  0  0
  -19.4346  -32.2596   21.5690 C   0  0  0  0  0  0  0  0  0  0  0  0
  -23.1795  -31.9928   15.8439 C   0  0  0  0  0  0  0  0  0  0  0  0
  -26.9135  -20.1266   19.9622 C   0  0  0  0  0  0  0  0  0  0  0  0
  -26.8617  -17.3059   19.2337 C   0  0  0  0  0  0  0  0  0  0  0  0
  -27.6088  -24.9924   19.0180 C   0  0  0  0  0  0  0  0  0  1  0  0
  -21.1043  -30.9023   20.2416 C   0  0  1  0  0  0  0  0  0  0  0  0
  -20.8359  -32.1879   16.6856 C   0  0  2  0  0  0  0  0  0  0  0  0
  -19.8501  -30.8303   21.1577 C   0  0  0  0  0  0  0  0  0  0  0  0
  -26.0382  -11.3798   20.3220 N   0  0  0  0  0  0  0  0  0  0  0  0
  -26.7056  -11.4505   19.1576 N   0  0  0  0  0  0  0  0  0  0  0  0
  -27.2613  -21.2386   19.0932 N   0  0  0  0  0  0  0  0  0  0  0  0
  -23.4313  -30.6633   21.0489 N   0  0  0  0  0  0  0  0  0  0  0  0
  -29.7747  -13.4617   20.2156 N   0  0  0  0  0  0  0  0  0  0  0  0
  -26.4944  -11.0522   16.8323 N   0  0  0  0  0  0  0  0  0  0  0  0
  -22.4537   -9.8660   18.4637 N   0  0  0  0  0  0  0  0  0  0  0  0
  -29.1831  -15.7092   19.8140 N   0  0  0  0  0  0  0  0  0  0  0  0
  -25.2992  -30.8093   24.1772 N   0  0  0  0  0  0  0  0  0  0  0  0
  -20.9165  -31.6972   19.0327 N   0  0  0  0  0  0  0  0  0  0  0  0
  -25.7222  -17.0962   20.1783 N   0  3  0  0  0  0  0  0  0  0  0  0
  -21.7306  -31.9428   15.5193 N   0  3  0  0  0  0  0  0  0  0  0  0
  -26.7789  -22.8994   20.6528 O   0  0  0  0  0  0  0  0  0  0  0  0
  -23.7186  -10.0245   16.5575 O   0  0  0  0  0  0  0  0  0  0  0  0
  -23.4147  -29.6781   23.4078 O   0  0  0  0  0  0  0  0  0  0  0  0
  -22.2395  -32.6374   21.3938 O   0  0  0  0  0  0  0  0  0  0  0  0
  -21.4209  -30.0022   17.5329 O   0  0  0  0  0  0  0  0  0  0  0  0
  -31.4090  -15.0824   19.9997 O   0  0  0  0  0  0  0  0  0  0  0  0
  -20.8716  -10.0557   23.8012 O   0  0  0  0  0  0  0  0  0  0  0  0
  -26.2980  -25.5387   19.1584 O   0  0  0  0  0  0  0  0  0  1  0  0
  -19.8053   -4.8490   25.2698 F   0  0  0  0  0  0  0  0  0  0  0  0
  -21.1781   -9.2300   26.4217 F   0  0  0  0  0  0  0  0  0  0  0  0
  -31.7188  -19.6563   21.8738 Cl  0  0  0  0  0  0  0  0  0  0  0  0
  1  2  1  0  0  0  0
  1  5  2  0  0  0  0
  2  6  2  0  0  0  0
  3  8  2  0  0  0  0
  3 17  1  0  0  0  0
  4  9  1  0  0  0  0
  4 17  2  0  0  0  0
  5 19  1  0  0  0  0
  6 21  1  0  0  0  0
  7 10  2  0  0  0  0
  7 20  1  0  0  0  0
  8 26  1  0  0  0  0
  9 26  2  0  0  0  0
 10 27  1  0  0  0  0
 11 12  2  0  0  0  0
 11 28  1  0  0  0  0
 12 29  1  0  0  0  0
 13 22  1  0  0  0  0
 13 27  2  0  0  0  0
 14 23  1  0  0  0  0
 14 31  2  0  0  0  0
 15 25  2  0  0  0  0
 15 31  1  0  0  0  0
 16 29  2  0  0  0  0
 16 30  1  0  0  0  0
 17 32  1  0  0  0  0
 18 32  1  0  0  0  0
 18 33  2  0  0  0  0
 18 35  1  0  0  0  0
 19 21  2  0  0  0  0
 19 40  1  0  0  0  0
 20 22  2  0  0  0  0
 20 41  1  0  0  0  0
 21 56  1  0  0  0  0
 22 42  1  0  0  0  0
 23 24  2  0  0  0  0
 23 65  1  0  0  0  0
 24 25  1  0  0  0  0
 24 66  1  0  0  0  0
 25 78  1  0  0  0  0
 26 89  1  0  0  0  0
 27 90  1  0  0  0  0
 28 30  2  0  0  0  0
 28 89  1  0  0  0  0
 29 91  1  0  0  0  0
 30 92  1  0  0  0  0
 31 93  1  0  0  0  0
 32 71  2  0  0  0  0
 33 72  1  0  0  0  0
 33 76  1  0  0  0  0
 34 57  1  0  0  0  0
 34 73  1  0  0  0  0
 34 83  2  0  0  0  0
 35 77  1  0  0  0  0
 35 84  2  0  0  0  0
 36 58  1  0  0  0  0
 36 79  1  0  0  0  0
 36 85  2  0  0  0  0
 37 68  1  0  0  0  0
 37 74  1  0  0  0  0
 37 86  2  0  0  0  0
 38 69  1  0  0  0  0
 38 80  1  0  0  0  0
 38 87  2  0  0  0  0
 39 75  1  0  0  0  0
 39 78  1  0  0  0  0
 39 88  2  0  0  0  0
 40 43  1  0  0  0  0
 41 58  1  0  0  0  0
 42 74  1  0  0  0  0
 43 48  1  0  0  0  0
 44 49  1  0  0  0  0
 44 51  1  0  0  0  0
 45 50  1  0  0  0  0
 45 52  1  0  0  0  0
 46 47  1  0  0  0  0
 46 54  1  0  0  0  0
 47 55  1  0  0  0  0
 48 56  1  0  0  0  0
 49 57  1  0  0  0  0
 50 59  1  0  0  0  0
 51 73  1  0  0  0  0
 52 75  1  0  0  0  0
 53 59  1  0  0  0  0
 53 75  1  0  0  0  0
 54 81  1  0  0  0  0
 55 81  1  0  0  0  0
 56 79  1  0  0  0  0
 57 67  1  0  0  0  0
 58 74  1  0  0  0  0
 59 72  1  0  0  0  0
 60 69  1  0  0  0  0
 61 70  1  0  0  0  0
 62 70  1  0  0  0  0
 63 70  1  0  0  0  0
 64 82  1  0  0  0  0
 65 73  1  0  0  0  0
 66 81  1  0  0  0  0
 67 90  1  0  0  0  0
 68 70  1  0  0  0  0
 68 80  1  0  0  0  0
 69 82  1  0  0  0  0
 71 72  1  0  0  0  0
M  CHG  2  81   1  82   1
M  ISO  4  39 100  67 101  78 100  90 101
M  END
> <Batch ID>
0024

> <Smiles>
CNC(C)C(=O)NC(C(=O)N1Cc2cc([101O:1][101CH2:1]C3CCCN(Cc4cc(Cl)cc([100NH:0][100C:0](=O)N5CCCC(n6nc(-c7ccc(Oc8ccc(F)cc8F)cc7)c(C(N)=O)c6N)C5)c4CN4CCCC4)C3=O)ccc2CC1C(=O)NC1CCCc2ccccc21)C(C)(C)C

> <Shape>
0.285

> <Color>
0.087

> <Negative vol penalty>
0.000

$$$$

  -OEChem-04042321203D

 86 95  0     1  0  0  0  0  0999 V2000
  -31.1980  -24.4523   16.7243 C   0  0  0  0  0  0  0  0  0  0  0  0
  -30.1150  -24.3272   17.5886 C   0  0  0  0  0  0  0  0  0  0  0  0
  -24.4411   -8.4317   20.4940 C   0  0  0  0  0  0  0  0  0  0  0  0
  -23.0891  -10.3726   20.9860 C   0  0  0  0  0  0  0  0  0  0  0  0
  -32.0302  -25.5679   16.8083 C   0  0  0  0  0  0  0  0  0  0  0  0
  -29.8643  -25.3171   18.5382 C   0  0  0  0  0  0  0  0  0  0  0  0
  -24.9663  -26.5806   18.7805 C   0  0  0  0  0  0  0  0  0  0  0  0
  -23.5724  -19.2939   21.5282 C   0  0  0  0  0  0  0  0  0  0  0  0
  -24.3853  -18.1915   21.2643 C   0  0  0  0  0  0  0  0  0  0  0  0
  -23.4033   -7.6015   20.9171 C   0  0  0  0  0  0  0  0  0  0  0  0
  -22.0512   -9.5423   21.4091 C   0  0  0  0  0  0  0  0  0  0  0  0
  -24.1188  -25.7146   19.4700 C   0  0  0  0  0  0  0  0  0  0  0  0
  -22.1181   -6.5187   23.8497 C   0  0  0  0  0  0  0  0  0  0  0  0
  -22.4439   -5.4480   24.6822 C   0  0  0  0  0  0  0  0  0  0  0  0
  -24.2080  -27.1683   21.3931 C   0  0  0  0  0  0  0  0  0  0  0  0
  -25.8593  -18.8481   23.0625 C   0  0  0  0  0  0  0  0  0  0  0  0
  -21.5687   -3.9057   23.0414 C   0  0  0  0  0  0  0  0  0  0  0  0
  -24.2841   -9.8173   20.5285 C   0  0  0  0  0  0  0  0  0  0  0  0
  -25.9486  -10.7137   18.8157 C   0  0  0  0  0  0  0  0  0  0  0  0
  -31.7838  -26.5766   17.7529 C   0  0  0  0  0  0  0  0  0  0  0  0
  -25.4506  -27.7433   19.3969 C   0  0  0  0  0  0  0  0  0  0  0  0
  -30.6947  -26.4466   18.6357 C   0  0  0  0  0  0  0  0  0  0  0  0
  -25.0595  -28.0486   20.7084 C   0  0  0  0  0  0  0  0  0  0  0  0
  -23.9030  -20.1734   22.5592 C   0  0  0  0  0  0  0  0  0  0  0  0
  -25.5288  -17.9686   22.0315 C   0  0  0  0  0  0  0  0  0  0  0  0
  -22.2083   -8.1567   21.3746 C   0  0  0  0  0  0  0  0  0  0  0  0
  -23.7417  -26.0069   20.7775 C   0  0  0  0  0  0  0  0  0  0  0  0
  -21.5174   -6.2829   22.6130 C   0  0  0  0  0  0  0  0  0  0  0  0
  -22.1693   -4.1416   24.2781 C   0  0  0  0  0  0  0  0  0  0  0  0
  -21.2428   -4.9764   22.2089 C   0  0  0  0  0  0  0  0  0  0  0  0
  -25.0464  -19.9504   23.3264 C   0  0  0  0  0  0  0  0  0  0  0  0
  -25.3561  -10.6755   20.0921 C   0  0  0  0  0  0  0  0  0  0  0  0
  -26.9102  -11.6895   18.9125 C   0  0  0  0  0  0  0  0  0  0  0  0
  -23.5332  -22.6225   22.7091 C   0  0  0  0  0  0  0  0  0  0  0  0
  -25.6557   -9.9366   17.6469 C   0  0  0  0  0  0  0  0  0  0  0  0
  -28.3329  -28.8383   20.1700 C   0  0  0  0  0  0  0  0  0  0  0  0
  -26.6739  -31.5052   20.9812 C   0  0  0  0  0  0  0  0  0  0  0  0
  -23.5666  -32.2681   22.6483 C   0  0  0  0  0  0  0  0  0  0  0  0
  -27.5234  -16.4819   22.4285 C   0  0  0  0  0  0  0  0  0  0  0  0
  -32.7388  -27.7409   17.8373 C   0  0  0  0  0  0  0  0  0  0  0  0
  -26.3427  -28.6808   18.6303 C   0  0  0  0  0  0  0  0  0  0  0  0
  -25.5355  -29.2945   21.4081 C   0  0  0  0  0  0  0  0  0  0  0  0
  -32.1849  -28.9273   18.6222 C   0  0  0  0  0  0  0  0  0  0  0  0
  -20.8058  -22.1147   23.6544 C   0  0  0  0  0  0  0  0  0  0  0  0
  -29.8173  -13.7797   22.0928 C   0  0  0  0  0  0  0  0  0  0  0  0
  -31.5542  -28.4554   19.9285 C   0  0  0  0  0  0  0  0  0  0  0  0
  -21.1791  -23.4817   23.1228 C   0  0  0  0  0  0  0  0  0  0  0  0
  -28.9892  -12.6826   21.4200 C   0  0  0  0  0  0  0  0  0  0  0  0
  -21.5935  -21.0426   22.9217 C   0  0  0  0  0  0  0  0  0  0  0  0
  -28.9871  -14.5859   23.0900 C   0  0  0  0  0  0  0  0  0  0  0  0
  -26.9108  -14.0449   21.8794 C   0  0  0  0  0  0  0  0  0  0  0  0
  -30.3755  -27.5113   19.6626 C   0  0  1  0  0  0  0  0  0  0  0  0
  -22.6655  -23.7080   23.3547 C   0  0  2  0  0  0  0  0  0  0  0  0
  -27.1877  -29.5739   19.5335 C   0  0  1  0  0  0  0  0  0  0  0  0
  -27.6874  -13.2478   20.8188 C   0  0  2  0  0  0  0  0  0  0  0  0
  -22.0429  -34.2503   22.4321 C   0  0  0  0  0  0  0  0  0  0  0  0
  -28.2471  -32.6075   23.3518 C   0  0  0  0  0  0  0  0  0  0  0  0
  -26.1045  -33.5401   24.2506 C   0  0  0  0  0  0  0  0  0  0  0  0
  -26.9794  -34.3266   22.0509 C   0  0  0  0  0  0  0  0  0  0  0  0
  -21.2350  -30.5545   22.0267 C   0  0  0  0  0  0  0  0  0  0  0  0
  -23.0669  -25.1017   22.8706 C   0  0  0  0  0  0  0  0  0  1  0  0
  -25.9985  -32.0038   22.2358 C   0  0  1  0  0  0  0  0  0  0  0  0
  -22.3021  -32.8128   22.0089 C   0  0  2  0  0  0  0  0  0  0  0  0
  -26.8349  -33.0917   22.9668 C   0  0  0  0  0  0  0  0  0  0  0  0
  -25.8963  -11.5569   20.9379 N   0  0  0  0  0  0  0  0  0  0  0  0
  -26.8384  -12.1581   20.1914 N   0  0  0  0  0  0  0  0  0  0  0  0
  -23.0376  -21.3068   22.8056 N   0  0  0  0  0  0  0  0  0  0  0  0
  -26.4112  -30.1764   20.6189 N   0  0  0  0  0  0  0  0  0  0  0  0
  -27.7719  -15.0932   22.4490 N   0  0  0  0  0  0  0  0  0  0  0  0
  -27.8019  -12.1839   18.0277 N   0  0  0  0  0  0  0  0  0  0  0  0
  -24.6368   -8.9771   17.7205 N   0  0  0  0  0  0  0  0  0  0  0  0
  -26.3541  -16.8486   21.7629 N   0  0  0  0  0  0  0  0  0  0  0  0
  -29.2050  -28.2637   19.2651 N   0  0  0  0  0  0  0  0  0  0  0  0
  -24.6663  -32.4431   21.8352 N   0  0  0  0  0  0  0  0  0  0  0  0
  -21.1254  -31.9875   22.4030 N   0  3  0  0  0  0  0  0  0  0  0  0
  -24.6207  -22.9272   22.2121 O   0  0  0  0  0  0  0  0  0  0  0  0
  -26.2902  -10.0772   16.5740 O   0  0  0  0  0  0  0  0  0  0  0  0
  -28.4196  -28.7963   21.3916 O   0  0  0  0  0  0  0  0  0  0  0  0
  -27.4020  -32.2688   20.3420 O   0  0  0  0  0  0  0  0  0  0  0  0
  -23.5782  -31.7435   23.7597 O   0  0  0  0  0  0  0  0  0  0  0  0
  -28.3051  -17.2887   22.9384 O   0  0  0  0  0  0  0  0  0  0  0  0
  -21.1952   -7.3468   21.7873 O   0  0  0  0  0  0  0  0  0  0  0  0
  -22.9151  -25.1630   21.4530 O   0  0  0  0  0  0  0  0  0  1  0  0
  -22.4837   -3.1134   25.0770 F   0  0  0  0  0  0  0  0  0  0  0  0
  -20.6670   -4.7436   21.0214 F   0  0  0  0  0  0  0  0  0  0  0  0
  -25.4925  -21.0145   24.6124 Cl  0  0  0  0  0  0  0  0  0  0  0  0
  1  2  1  0  0  0  0
  1  5  2  0  0  0  0
  2  6  2  0  0  0  0
  3 10  2  0  0  0  0
  3 18  1  0  0  0  0
  4 11  1  0  0  0  0
  4 18  2  0  0  0  0
  5 20  1  0  0  0  0
  6 22  1  0  0  0  0
  7 12  2  0  0  0  0
  7 21  1  0  0  0  0
  8  9  2  0  0  0  0
  8 24  1  0  0  0  0
  9 25  1  0  0  0  0
 10 26  1  0  0  0  0
 11 26  2  0  0  0  0
 12 27  1  0  0  0  0
 13 14  2  0  0  0  0
 13 28  1  0  0  0  0
 14 29  1  0  0  0  0
 15 23  1  0  0  0  0
 15 27  2  0  0  0  0
 16 25  2  0  0  0  0
 16 31  1  0  0  0  0
 17 29  2  0  0  0  0
 17 30  1  0  0  0  0
 18 32  1  0  0  0  0
 19 32  1  0  0  0  0
 19 33  2  0  0  0  0
 19 35  1  0  0  0  0
 20 22  2  0  0  0  0
 20 40  1  0  0  0  0
 21 23  2  0  0  0  0
 21 41  1  0  0  0  0
 22 52  1  0  0  0  0
 23 42  1  0  0  0  0
 24 31  2  0  0  0  0
 24 67  1  0  0  0  0
 25 72  1  0  0  0  0
 26 82  1  0  0  0  0
 27 83  1  0  0  0  0
 28 30  2  0  0  0  0
 28 82  1  0  0  0  0
 29 84  1  0  0  0  0
 30 85  1  0  0  0  0
 31 86  1  0  0  0  0
 32 65  2  0  0  0  0
 33 66  1  0  0  0  0
 33 70  1  0  0  0  0
 34 53  1  0  0  0  0
 34 67  1  0  0  0  0
 34 76  2  0  0  0  0
 35 71  1  0  0  0  0
 35 77  2  0  0  0  0
 36 54  1  0  0  0  0
 36 73  1  0  0  0  0
 36 78  2  0  0  0  0
 37 62  1  0  0  0  0
 37 68  1  0  0  0  0
 37 79  2  0  0  0  0
 38 63  1  0  0  0  0
 38 74  1  0  0  0  0
 38 80  2  0  0  0  0
 39 69  1  0  0  0  0
 39 72  1  0  0  0  0
 39 81  2  0  0  0  0
 40 43  1  0  0  0  0
 41 54  1  0  0  0  0
 42 68  1  0  0  0  0
 43 46  1  0  0  0  0
 44 47  1  0  0  0  0
 44 49  1  0  0  0  0
 45 48  1  0  0  0  0
 45 50  1  0  0  0  0
 46 52  1  0  0  0  0
 47 53  1  0  0  0  0
 48 55  1  0  0  0  0
 49 67  1  0  0  0  0
 50 69  1  0  0  0  0
 51 55  1  0  0  0  0
 51 69  1  0  0  0  0
 52 73  1  0  0  0  0
 53 61  1  0  0  0  0
 54 68  1  0  0  0  0
 55 66  1  0  0  0  0
 56 63  1  0  0  0  0
 57 64  1  0  0  0  0
 58 64  1  0  0  0  0
 59 64  1  0  0  0  0
 60 75  1  0  0  0  0
 61 83  1  0  0  0  0
 62 64  1  0  0  0  0
 62 74  1  0  0  0  0
 63 75  1  0  0  0  0
 65 66  1  0  0  0  0
M  CHG  1  75   1
M  ISO  4  39 100  61 101  72 100  83 101
M  END
> <Batch ID>
0024

> <Smiles>
CNC(C)C(=O)NC(C(=O)N1Cc2cc([101O:1][101CH2:1]C3CCCN(c4ccc([100NH:0][100C:0](=O)N5CCCC(n6nc(-c7ccc(Oc8ccc(F)cc8F)cc7)c(C(N)=O)c6N)C5)cc4Cl)C3=O)ccc2CC1C(=O)NC1CCCc2ccccc21)C(C)(C)C

> <Shape>
0.239

> <Color>
0.095

> <Negative vol penalty>
0.000

$$$$

  -OEChem-04042321203D

 83 91  0     1  0  0  0  0  0999 V2000
  -28.3287  -38.0367   24.2618 C   0  0  0  0  0  0  0  0  0  0  0  0
  -28.7520  -36.9838   23.4570 C   0  0  0  0  0  0  0  0  0  0  0  0
  -26.4990  -12.5857   21.6256 C   0  0  0  0  0  0  0  0  0  0  0  0
  -26.1065  -13.6175   19.4765 C   0  0  0  0  0  0  0  0  0  0  0  0
  -27.4166  -37.8034   25.2902 C   0  0  0  0  0  0  0  0  0  0  0  0
  -28.2643  -35.6968   23.6809 C   0  0  0  0  0  0  0  0  0  0  0  0
  -27.1086  -31.4119   19.4607 C   0  0  0  0  0  0  0  0  0  0  0  0
  -28.5584  -23.6715   18.8778 C   0  0  0  0  0  0  0  0  0  0  0  0
  -29.0454  -22.6232   19.6584 C   0  0  0  0  0  0  0  0  0  0  0  0
  -25.2362  -11.9956   21.5729 C   0  0  0  0  0  0  0  0  0  0  0  0
  -24.8437  -13.0274   19.4239 C   0  0  0  0  0  0  0  0  0  0  0  0
  -27.8411  -30.3125   19.0153 C   0  0  0  0  0  0  0  0  0  0  0  0
  -22.2590   -9.9265   21.8384 C   0  0  0  0  0  0  0  0  0  0  0  0
  -22.1562   -8.5818   22.1945 C   0  0  0  0  0  0  0  0  0  0  0  0
  -26.6173  -28.8903   20.5315 C   0  0  0  0  0  0  0  0  0  0  0  0
  -28.3009  -22.1610   17.0099 C   0  0  0  0  0  0  0  0  0  0  0  0
  -23.6846   -7.9944   20.4180 C   0  0  0  0  0  0  0  0  0  0  0  0
  -26.9341  -13.3967   20.5774 C   0  0  0  0  0  0  0  0  0  0  0  0
  -29.4484  -13.4703   20.1526 C   0  0  0  0  0  0  0  0  0  0  0  0
  -26.9101  -36.5147   25.5207 C   0  0  0  0  0  0  0  0  0  0  0  0
  -26.1308  -31.2604   20.4544 C   0  0  0  0  0  0  0  0  0  0  0  0
  -27.3456  -35.4458   24.7142 C   0  0  0  0  0  0  0  0  0  0  0  0
  -25.8720  -29.9890   20.9860 C   0  0  0  0  0  0  0  0  0  0  0  0
  -28.1860  -23.4404   17.5535 C   0  0  0  0  0  0  0  0  0  0  0  0
  -29.1603  -21.3438   19.1148 C   0  0  0  0  0  0  0  0  0  0  0  0
  -24.4085  -12.2165   20.4721 C   0  0  0  0  0  0  0  0  0  0  0  0
  -27.5975  -29.0519   19.5527 C   0  0  0  0  0  0  0  0  0  0  0  0
  -23.0746  -10.3052   20.7721 C   0  0  0  0  0  0  0  0  0  0  0  0
  -22.8690   -7.6158   21.4844 C   0  0  0  0  0  0  0  0  0  0  0  0
  -28.7880  -21.1126   17.7905 C   0  0  0  0  0  0  0  0  0  0  0  0
  -23.7874   -9.3392   20.0619 C   0  0  0  0  0  0  0  0  0  0  0  0
  -28.2383  -14.0069   20.6315 C   0  0  0  0  0  0  0  0  0  0  0  0
  -30.3876  -14.4301   20.4410 C   0  0  0  0  0  0  0  0  0  0  0  0
  -29.7010  -12.2163   19.5049 C   0  0  0  0  0  0  0  0  0  0  0  0
  -25.7254  -32.3985   23.3945 C   0  0  0  0  0  0  0  0  0  0  0  0
  -22.8596  -30.8968   23.1609 C   0  0  0  0  0  0  0  0  0  0  0  0
  -20.9829  -28.4467   21.7043 C   0  0  0  0  0  0  0  0  0  0  0  0
  -30.0687  -20.3431   21.2408 C   0  0  0  0  0  0  0  0  0  0  0  0
  -25.9621  -36.3029   26.6744 C   0  0  0  0  0  0  0  0  0  0  0  0
  -25.3308  -32.4517   20.9050 C   0  0  0  0  0  0  0  0  0  0  0  0
  -24.8190  -29.7696   22.0404 C   0  0  0  0  0  0  0  0  0  0  0  0
  -25.2073  -34.9777   26.6072 C   0  0  0  0  0  0  0  0  0  0  0  0
  -31.3145  -17.9449   23.5589 C   0  0  0  0  0  0  0  0  0  0  0  0
  -26.1632  -33.8348   26.2802 C   0  0  0  0  0  0  0  0  0  0  0  0
  -30.7822  -16.6134   23.0243 C   0  0  0  0  0  0  0  0  0  0  0  0
  -30.3072  -19.0770   23.3657 C   0  0  0  0  0  0  0  0  0  0  0  0
  -29.2767  -17.9058   21.4590 C   0  0  0  0  0  0  0  0  0  0  0  0
  -26.8204  -34.0402   24.9100 C   0  0  1  0  0  0  0  0  0  0  0  0
  -24.7158  -32.2696   22.2892 C   0  0  1  0  0  0  0  0  0  0  0  0
  -30.2823  -16.7484   21.5726 C   0  0  2  0  0  0  0  0  0  0  0  0
  -18.6853  -27.4383   21.7455 C   0  0  0  0  0  0  0  0  0  0  0  0
  -23.5347  -29.4715   25.7730 C   0  0  0  0  0  0  0  0  0  0  0  0
  -21.7104  -27.8326   25.2691 C   0  0  0  0  0  0  0  0  0  0  0  0
  -21.1636  -30.2453   25.5893 C   0  0  0  0  0  0  0  0  0  0  0  0
  -27.3053  -24.2505   15.3791 C   0  0  0  0  0  0  0  0  0  0  0  0
  -20.5037  -29.1347   18.8660 C   0  0  0  0  0  0  0  0  0  0  0  0
  -28.8784  -26.5734   17.2581 C   0  0  0  0  0  0  0  0  0  0  0  0
  -27.5508  -25.8266   17.3036 C   0  0  0  0  0  0  0  0  0  0  0  0
  -28.7736  -28.0051   17.7703 C   0  0  0  0  0  0  0  0  0  1  0  0
  -22.3490  -29.5124   23.4798 C   0  0  1  0  0  0  0  0  0  0  0  0
  -19.5927  -28.4708   21.0949 C   0  0  2  0  0  0  0  0  0  0  0  0
  -22.2107  -29.2696   25.0093 C   0  0  0  0  0  0  0  0  0  0  0  0
  -28.3917  -15.2139   21.1824 N   0  0  0  0  0  0  0  0  0  0  0  0
  -29.7093  -15.4437   21.0516 N   0  0  0  0  0  0  0  0  0  0  0  0
  -24.0677  -30.9667   22.4527 N   0  0  0  0  0  0  0  0  0  0  0  0
  -29.8818  -19.1474   21.9660 N   0  0  0  0  0  0  0  0  0  0  0  0
  -31.7192  -14.4975   20.2294 N   0  0  0  0  0  0  0  0  0  0  0  0
  -28.6227  -11.3483   19.2859 N   0  0  0  0  0  0  0  0  0  0  0  0
  -29.6559  -20.2810   19.9103 N   0  0  0  0  0  0  0  0  0  0  0  0
  -25.8987  -33.6915   23.8501 N   0  0  0  0  0  0  0  0  0  0  0  0
  -21.1046  -29.3547   22.7349 N   0  0  0  0  0  0  0  0  0  0  0  0
  -27.6958  -24.4942   16.7690 N   0  0  3  0  0  0  0  0  0  0  0  0
  -19.6623  -28.1817   19.6346 N   0  3  0  0  0  0  0  0  0  0  0  0
  -30.8517  -11.8687   19.1462 O   0  0  0  0  0  0  0  0  0  0  0  0
  -26.3032  -31.3988   23.8047 O   0  0  0  0  0  0  0  0  0  0  0  0
  -22.2070  -31.8798   23.5204 O   0  0  0  0  0  0  0  0  0  0  0  0
  -21.8708  -27.6948   21.3084 O   0  0  0  0  0  0  0  0  0  0  0  0
  -30.5840  -21.3397   21.7541 O   0  0  0  0  0  0  0  0  0  0  0  0
  -23.1763  -11.6407   20.4203 O   0  0  0  0  0  0  0  0  0  0  0  0
  -28.3115  -27.9772   19.1201 O   0  0  0  0  0  0  0  0  0  1  0  0
  -22.7713   -6.3247   21.8274 F   0  0  0  0  0  0  0  0  0  0  0  0
  -28.8947  -19.8870   17.2577 F   0  0  0  0  0  0  0  0  0  0  0  0
  -24.5735   -9.6970   19.0373 F   0  0  0  0  0  0  0  0  0  0  0  0
  1  2  1  0  0  0  0
  1  5  2  0  0  0  0
  2  6  2  0  0  0  0
  3 10  2  0  0  0  0
  3 18  1  0  0  0  0
  4 11  1  0  0  0  0
  4 18  2  0  0  0  0
  5 20  1  0  0  0  0
  6 22  1  0  0  0  0
  7 12  2  0  0  0  0
  7 21  1  0  0  0  0
  8  9  2  0  0  0  0
  8 24  1  0  0  0  0
  9 25  1  0  0  0  0
 10 26  1  0  0  0  0
 11 26  2  0  0  0  0
 12 27  1  0  0  0  0
 13 14  2  0  0  0  0
 13 28  1  0  0  0  0
 14 29  1  0  0  0  0
 15 23  1  0  0  0  0
 15 27  2  0  0  0  0
 16 24  2  0  0  0  0
 16 30  1  0  0  0  0
 17 29  2  0  0  0  0
 17 31  1  0  0  0  0
 18 32  1  0  0  0  0
 19 32  1  0  0  0  0
 19 33  2  0  0  0  0
 19 34  1  0  0  0  0
 20 22  2  0  0  0  0
 20 39  1  0  0  0  0
 21 23  2  0  0  0  0
 21 40  1  0  0  0  0
 22 48  1  0  0  0  0
 23 41  1  0  0  0  0
 24 72  1  0  0  0  0
 25 30  2  0  0  0  0
 25 69  1  0  0  0  0
 26 79  1  0  0  0  0
 27 80  1  0  0  0  0
 28 31  2  0  0  0  0
 28 79  1  0  0  0  0
 29 81  1  0  0  0  0
 30 82  1  0  0  0  0
 31 83  1  0  0  0  0
 32 63  2  0  0  0  0
 33 64  1  0  0  0  0
 33 67  1  0  0  0  0
 34 68  1  0  0  0  0
 34 74  2  0  0  0  0
 35 49  1  0  0  0  0
 35 70  1  0  0  0  0
 35 75  2  0  0  0  0
 36 60  1  0  0  0  0
 36 65  1  0  0  0  0
 36 76  2  0  0  0  0
 37 61  1  0  0  0  0
 37 71  1  0  0  0  0
 37 77  2  0  0  0  0
 38 66  1  0  0  0  0
 38 69  1  0  0  0  0
 38 78  2  0  0  0  0
 39 42  1  0  0  0  0
 40 49  1  0  0  0  0
 41 65  1  0  0  0  0
 42 44  1  0  0  0  0
 43 45  1  0  0  0  0
 43 46  1  0  0  0  0
 44 48  1  0  0  0  0
 45 50  1  0  0  0  0
 46 66  1  0  0  0  0
 47 50  1  0  0  0  0
 47 66  1  0  0  0  0
 48 70  1  0  0  0  0
 49 65  1  0  0  0  0
 50 64  1  0  0  0  0
 51 61  1  0  0  0  0
 52 62  1  0  0  0  0
 53 62  1  0  0  0  0
 54 62  1  0  0  0  0
 55 72  1  0  0  0  0
 56 73  1  0  0  0  0
 57 58  1  0  0  0  0
 57 59  1  0  0  0  0
 58 72  1  0  0  0  0
 59 80  1  0  0  0  0
 60 62  1  0  0  0  0
 60 71  1  0  0  0  0
 61 73  1  0  0  0  0
 63 64  1  0  0  0  0
M  CHG  1  73   1
M  ISO  4  38 100  59 101  69 100  80 101
M  END
> <Batch ID>
0024

> <Smiles>
CNC(C)C(=O)NC(C(=O)N1Cc2cc([101O:1][101CH2:1]CCN(C)c3ccc([100NH:0][100C:0](=O)N4CCCC(n5nc(-c6ccc(Oc7ccc(F)cc7F)cc6)c(C(N)=O)c5N)C4)c(F)c3)ccc2CC1C(=O)NC1CCCc2ccccc21)C(C)(C)C

> <Shape>
0.328

> <Color>
0.095

> <Negative vol penalty>
0.000

$$$$

  -OEChem-04042321203D

 84 93  0     1  0  0  0  0  0999 V2000
  -26.9463  -18.8710   16.4558 C   0  0  0  0  0  0  0  0  0  0  0  0
  -27.0454  -18.4832   17.7882 C   0  0  0  0  0  0  0  0  0  0  0  0
  -26.2857  -29.2177   19.5075 C   0  0  0  0  0  0  0  0  0  0  0  0
  -26.3205  -28.5414   21.8266 C   0  0  0  0  0  0  0  0  0  0  0  0
  -25.8167  -18.5288   15.7136 C   0  0  0  0  0  0  0  0  0  0  0  0
  -26.0144  -17.7539   18.3795 C   0  0  0  0  0  0  0  0  0  0  0  0
  -27.7202  -13.8667   21.1408 C   0  0  0  0  0  0  0  0  0  0  0  0
  -28.2375  -20.2019   25.0808 C   0  0  0  0  0  0  0  0  0  0  0  0
  -27.9023  -18.4311   23.4718 C   0  0  0  0  0  0  0  0  0  0  0  0
  -28.6207  -21.0634   24.0529 C   0  0  0  0  0  0  0  0  0  0  0  0
  -28.2854  -19.2926   22.4438 C   0  0  0  0  0  0  0  0  0  0  0  0
  -25.1316  -29.9649   19.7427 C   0  0  0  0  0  0  0  0  0  0  0  0
  -25.1664  -29.2887   22.0618 C   0  0  0  0  0  0  0  0  0  0  0  0
  -28.2291  -14.1589   22.4055 C   0  0  0  0  0  0  0  0  0  0  0  0
  -24.3591  -32.5329   22.5557 C   0  0  0  0  0  0  0  0  0  0  0  0
  -24.3278  -33.3315   23.6988 C   0  0  0  0  0  0  0  0  0  0  0  0
  -26.1418  -13.4683   23.3983 C   0  0  0  0  0  0  0  0  0  0  0  0
  -22.4043  -32.1088   24.5003 C   0  0  0  0  0  0  0  0  0  0  0  0
  -26.8801  -28.5059   20.5494 C   0  0  0  0  0  0  0  0  0  0  0  0
  -29.4055  -28.1714   20.4149 C   0  0  0  0  0  0  0  0  0  0  0  0
  -24.7757  -17.7866   16.2934 C   0  0  0  0  0  0  0  0  0  0  0  0
  -26.4123  -13.3826   20.9943 C   0  0  0  0  0  0  0  0  0  0  0  0
  -24.8692  -17.4026   17.6447 C   0  0  0  0  0  0  0  0  0  0  0  0
  -25.6196  -13.1683   22.1309 C   0  0  0  0  0  0  0  0  0  0  0  0
  -27.8784  -18.8857   24.7903 C   0  0  0  0  0  0  0  0  0  0  0  0
  -28.6446  -20.6088   22.7344 C   0  0  0  0  0  0  0  0  0  0  0  0
  -24.5720  -30.0004   21.0198 C   0  0  0  0  0  0  0  0  0  0  0  0
  -27.4389  -13.9624   23.5343 C   0  0  0  0  0  0  0  0  0  0  0  0
  -23.4130  -31.5222   22.3848 C   0  0  0  0  0  0  0  0  0  0  0  0
  -23.3504  -33.1195   24.6711 C   0  0  0  0  0  0  0  0  0  0  0  0
  -22.4356  -31.3102   23.3571 C   0  0  0  0  0  0  0  0  0  0  0  0
  -28.0720  -27.7334   20.3070 C   0  0  0  0  0  0  0  0  0  0  0  0
  -30.1565  -27.0702   20.0834 C   0  0  0  0  0  0  0  0  0  0  0  0
  -29.9195  -29.4585   20.7821 C   0  0  0  0  0  0  0  0  0  0  0  0
  -23.7812  -14.4303   19.5510 C   0  0  0  0  0  0  0  0  0  0  0  0
  -22.6196  -11.5280   20.4169 C   0  0  0  0  0  0  0  0  0  0  0  0
  -22.7959   -8.8471   22.5214 C   0  0  0  0  0  0  0  0  0  0  0  0
  -29.1114  -21.1920   20.3285 C   0  0  0  0  0  0  0  0  0  0  0  0
  -23.5532  -17.4810   15.4647 C   0  0  0  0  0  0  0  0  0  0  0  0
  -25.8875  -13.0469   19.6252 C   0  0  0  0  0  0  0  0  0  0  0  0
  -24.2161  -12.6313   22.0291 C   0  0  0  0  0  0  0  0  0  0  0  0
  -22.6729  -16.3846   16.0590 C   0  0  0  0  0  0  0  0  0  0  0  0
  -29.9881  -23.0803   17.4401 C   0  0  0  0  0  0  0  0  0  0  0  0
  -29.7010  -16.1223   27.8961 C   0  0  0  0  0  0  0  0  0  0  0  0
  -22.4544  -16.6247   17.5494 C   0  0  0  0  0  0  0  0  0  0  0  0
  -29.7234  -24.5282   17.8594 C   0  0  0  0  0  0  0  0  0  0  0  0
  -28.8633  -14.9330   27.4700 C   0  0  0  0  0  0  0  0  0  0  0  0
  -28.9551  -22.1214   18.0292 C   0  0  0  0  0  0  0  0  0  0  0  0
  -28.5192  -23.6588   19.9042 C   0  0  0  0  0  0  0  0  0  0  0  0
  -29.6791  -17.0297   26.6811 C   0  0  0  0  0  0  0  0  0  0  0  0
  -23.7829  -16.5894   18.3145 C   0  0  1  0  0  0  0  0  0  0  0  0
  -24.3636  -13.0452   19.5534 C   0  0  1  0  0  0  0  0  0  0  0  0
  -29.5718  -24.6534   19.3881 C   0  0  2  0  0  0  0  0  0  0  0  0
  -27.6968  -15.5871   26.7446 C   0  0  2  0  0  0  0  0  0  0  0  0
  -21.6903   -6.6471   23.0060 C   0  0  0  0  0  0  0  0  0  0  0  0
  -20.2856  -12.9925   21.7276 C   0  0  0  0  0  0  0  0  0  0  0  0
  -19.7547  -10.8867   22.9734 C   0  0  0  0  0  0  0  0  0  0  0  0
  -19.6490  -10.9198   20.4814 C   0  0  0  0  0  0  0  0  0  0  0  0
  -25.2897   -7.3447   21.9893 C   0  0  0  0  0  0  0  0  0  0  0  0
  -27.4664  -17.9592   25.8960 C   0  0  0  0  0  0  0  0  0  0  0  0
  -26.9972  -14.6652   25.7630 C   0  0  0  0  0  0  0  0  0  1  0  0
  -21.9018  -10.9815   21.6274 C   0  0  1  0  0  0  0  0  0  0  0  0
  -22.8057   -7.3534   22.2511 C   0  0  2  0  0  0  0  0  0  0  0  0
  -20.4235  -11.4571   21.7045 C   0  0  0  0  0  0  0  0  0  0  0  0
  -27.9780  -26.4538   19.9358 N   0  0  0  0  0  0  0  0  0  0  0  0
  -29.2620  -26.0783   19.8075 N   0  0  0  0  0  0  0  0  0  0  0  0
  -23.7460  -12.3241   20.6682 N   0  0  0  0  0  0  0  0  0  0  0  0
  -28.8691  -22.2938   19.4810 N   0  0  0  0  0  0  0  0  0  0  0  0
  -31.4882  -26.8633   20.0038 N   0  0  0  0  0  0  0  0  0  0  0  0
  -29.0089  -30.4779   21.0922 N   0  0  0  0  0  0  0  0  0  0  0  0
  -29.0334  -21.4838   21.6899 N   0  0  0  0  0  0  0  0  0  0  0  0
  -24.2190  -15.2230   18.5073 N   0  0  0  0  0  0  0  0  0  0  0  0
  -22.0614   -9.5322   21.5768 N   0  0  0  0  0  0  0  0  0  0  0  0
  -28.3457  -16.7511   26.0079 N   0  3  1  0  0  0  0  0  0  0  0  0
  -24.1065   -6.7595   22.6709 N   0  3  0  0  0  0  0  0  0  0  0  0
  -31.1494  -29.7023   20.8177 O   0  0  0  0  0  0  0  0  0  0  0  0
  -22.9917  -14.7552   20.4302 O   0  0  0  0  0  0  0  0  0  0  0  0
  -22.2006  -11.2526   19.2899 O   0  0  0  0  0  0  0  0  0  0  0  0
  -23.3784   -9.3550   23.4771 O   0  0  0  0  0  0  0  0  0  0  0  0
  -29.3957  -20.0785   19.8800 O   0  0  0  0  0  0  0  0  0  0  0  0
  -23.4459  -30.7296   21.2497 O   0  0  0  0  0  0  0  0  0  0  0  0
  -27.9329  -14.2475   24.7698 O   0  0  0  0  0  0  0  0  0  1  0  0
  -23.3213  -33.8855   25.7696 F   0  0  0  0  0  0  0  0  0  0  0  0
  -21.5248  -30.3400   23.1991 F   0  0  0  0  0  0  0  0  0  0  0  0
  1  2  1  0  0  0  0
  1  5  2  0  0  0  0
  2  6  2  0  0  0  0
  3 12  2  0  0  0  0
  3 19  1  0  0  0  0
  4 13  1  0  0  0  0
  4 19  2  0  0  0  0
  5 21  1  0  0  0  0
  6 23  1  0  0  0  0
  7 14  2  0  0  0  0
  7 22  1  0  0  0  0
  8 10  2  0  0  0  0
  8 25  1  0  0  0  0
  9 11  1  0  0  0  0
  9 25  2  0  0  0  0
 10 26  1  0  0  0  0
 11 26  2  0  0  0  0
 12 27  1  0  0  0  0
 13 27  2  0  0  0  0
 14 28  1  0  0  0  0
 15 16  2  0  0  0  0
 15 29  1  0  0  0  0
 16 30  1  0  0  0  0
 17 24  1  0  0  0  0
 17 28  2  0  0  0  0
 18 30  2  0  0  0  0
 18 31  1  0  0  0  0
 19 32  1  0  0  0  0
 20 32  1  0  0  0  0
 20 33  2  0  0  0  0
 20 34  1  0  0  0  0
 21 23  2  0  0  0  0
 21 39  1  0  0  0  0
 22 24  2  0  0  0  0
 22 40  1  0  0  0  0
 23 51  1  0  0  0  0
 24 41  1  0  0  0  0
 25 60  1  0  0  0  0
 26 71  1  0  0  0  0
 27 81  1  0  0  0  0
 28 82  1  0  0  0  0
 29 31  2  0  0  0  0
 29 81  1  0  0  0  0
 30 83  1  0  0  0  0
 31 84  1  0  0  0  0
 32 65  2  0  0  0  0
 33 66  1  0  0  0  0
 33 69  1  0  0  0  0
 34 70  1  0  0  0  0
 34 76  2  0  0  0  0
 35 52  1  0  0  0  0
 35 72  1  0  0  0  0
 35 77  2  0  0  0  0
 36 62  1  0  0  0  0
 36 67  1  0  0  0  0
 36 78  2  0  0  0  0
 37 63  1  0  0  0  0
 37 73  1  0  0  0  0
 37 79  2  0  0  0  0
 38 68  1  0  0  0  0
 38 71  1  0  0  0  0
 38 80  2  0  0  0  0
 39 42  1  0  0  0  0
 40 52  1  0  0  0  0
 41 67  1  0  0  0  0
 42 45  1  0  0  0  0
 43 46  1  0  0  0  0
 43 48  1  0  0  0  0
 44 47  1  0  0  0  0
 44 50  1  0  0  0  0
 45 51  1  0  0  0  0
 46 53  1  0  0  0  0
 47 54  1  0  0  0  0
 48 68  1  0  0  0  0
 49 53  1  0  0  0  0
 49 68  1  0  0  0  0
 50 74  1  0  0  0  0
 51 72  1  0  0  0  0
 52 67  1  0  0  0  0
 53 66  1  0  0  0  0
 54 61  1  0  0  0  0
 54 74  1  0  0  0  0
 55 63  1  0  0  0  0
 56 64  1  0  0  0  0
 57 64  1  0  0  0  0
 58 64  1  0  0  0  0
 59 75  1  0  0  0  0
 60 74  1  0  0  0  0
 61 82  1  0  0  0  0
 62 64  1  0  0  0  0
 62 73  1  0  0  0  0
 63 75  1  0  0  0  0
 65 66  1  0  0  0  0
M  CHG  2  74   1  75   1
M  ISO  4  38 100  61 101  71 100  82 101
M  END
> <Batch ID>
0024

> <Smiles>
CNC(C)C(=O)NC(C(=O)N1Cc2cc([101O:1][101CH2:1]C3CCCN3Cc3ccc([100NH:0][100C:0](=O)N4CCCC(n5nc(-c6ccc(Oc7ccc(F)cc7F)cc6)c(C(N)=O)c5N)C4)cc3)ccc2CC1C(=O)NC1CCCc2ccccc21)C(C)(C)C

> <Shape>
0.228

> <Color>
0.067

> <Negative vol penalty>
0.000

$$$$

  -OEChem-04042321203D

 87 96  0     1  0  0  0  0  0999 V2000
  -18.5290  -33.9652   24.3005 C   0  0  0  0  0  0  0  0  0  0  0  0
  -19.7067  -33.6054   24.9477 C   0  0  0  0  0  0  0  0  0  0  0  0
  -23.7839   -9.1423   21.1808 C   0  0  0  0  0  0  0  0  0  0  0  0
  -25.2690   -9.7363   22.9915 C   0  0  0  0  0  0  0  0  0  0  0  0
  -17.9845  -33.1264   23.3290 C   0  0  0  0  0  0  0  0  0  0  0  0
  -20.3401  -32.4059   24.6245 C   0  0  0  0  0  0  0  0  0  0  0  0
  -26.8670  -29.4948   24.1331 C   0  0  0  0  0  0  0  0  0  0  0  0
  -30.1801  -20.2026   21.4270 C   0  0  0  0  0  0  0  0  0  0  0  0
  -30.0563  -18.9077   20.9236 C   0  0  0  0  0  0  0  0  0  0  0  0
  -23.4456   -7.9633   21.8450 C   0  0  0  0  0  0  0  0  0  0  0  0
  -24.9307   -8.5574   23.6558 C   0  0  0  0  0  0  0  0  0  0  0  0
  -27.5877  -28.3859   24.5742 C   0  0  0  0  0  0  0  0  0  0  0  0
  -21.4340   -7.0320   24.3983 C   0  0  0  0  0  0  0  0  0  0  0  0
  -20.0843   -6.6848   24.4560 C   0  0  0  0  0  0  0  0  0  0  0  0
  -26.5981  -27.0538   22.8234 C   0  0  0  0  0  0  0  0  0  0  0  0
  -20.5647   -4.6235   23.2910 C   0  0  0  0  0  0  0  0  0  0  0  0
  -24.6956  -10.0288   21.7540 C   0  0  0  0  0  0  0  0  0  0  0  0
  -24.1785  -12.2886   20.6893 C   0  0  0  0  0  0  0  0  0  0  0  0
  -18.6167  -31.9207   22.9868 C   0  0  0  0  0  0  0  0  0  0  0  0
  -25.9967  -29.3887   23.0387 C   0  0  0  0  0  0  0  0  0  0  0  0
  -19.8028  -31.5496   23.6484 C   0  0  0  0  0  0  0  0  0  0  0  0
  -25.8694  -28.1635   22.3687 C   0  0  0  0  0  0  0  0  0  0  0  0
  -29.0411  -20.9228   21.7872 C   0  0  0  0  0  0  0  0  0  0  0  0
  -28.7934  -18.3329   20.7802 C   0  0  0  0  0  0  0  0  0  0  0  0
  -24.0190   -7.6709   23.0825 C   0  0  0  0  0  0  0  0  0  0  0  0
  -27.4511  -27.1644   23.9211 C   0  0  0  0  0  0  0  0  0  0  0  0
  -22.3491   -6.1749   23.7869 C   0  0  0  0  0  0  0  0  0  0  0  0
  -19.6497   -5.4806   23.9024 C   0  0  0  0  0  0  0  0  0  0  0  0
  -21.9144   -4.9707   23.2332 C   0  0  0  0  0  0  0  0  0  0  0  0
  -27.6544  -19.0531   21.1404 C   0  0  0  0  0  0  0  0  0  0  0  0
  -27.7783  -20.3480   21.6439 C   0  0  0  0  0  0  0  0  0  0  0  0
  -25.0459  -11.2465   21.0680 C   0  0  0  0  0  0  0  0  0  0  0  0
  -24.9933  -13.2071   20.0739 C   0  0  0  0  0  0  0  0  0  0  0  0
  -22.7627  -12.4150   20.8772 C   0  0  0  0  0  0  0  0  0  0  0  0
  -22.8689  -29.7648   22.6155 C   0  0  0  0  0  0  0  0  0  0  0  0
  -23.6337  -29.3302   19.4932 C   0  0  0  0  0  0  0  0  0  0  0  0
  -25.8089  -28.0547   17.1936 C   0  0  0  0  0  0  0  0  0  0  0  0
  -29.7024  -16.1706   19.8614 C   0  0  0  0  0  0  0  0  0  0  0  0
  -17.9651  -31.0241   21.9640 C   0  0  0  0  0  0  0  0  0  0  0  0
  -25.2466  -30.6009   22.5587 C   0  0  0  0  0  0  0  0  0  0  0  0
  -24.9636  -28.0021   21.1763 C   0  0  0  0  0  0  0  0  0  0  0  0
  -18.8987  -29.9494   21.4131 C   0  0  0  0  0  0  0  0  0  0  0  0
  -29.8158  -12.8516   18.5774 C   0  0  0  0  0  0  0  0  0  0  0  0
  -29.0030  -22.1174   25.9870 C   0  0  0  0  0  0  0  0  0  0  0  0
  -19.6550  -29.2663   22.5481 C   0  0  0  0  0  0  0  0  0  0  0  0
  -28.5136  -12.2239   19.0798 C   0  0  0  0  0  0  0  0  0  0  0  0
  -28.5149  -23.5384   25.7211 C   0  0  0  0  0  0  0  0  0  0  0  0
  -30.4198  -13.8051   19.6068 C   0  0  0  0  0  0  0  0  0  0  0  0
  -29.3254  -21.5352   24.6164 C   0  0  0  0  0  0  0  0  0  0  0  0
  -28.2049  -14.2158   20.6042 C   0  0  0  0  0  0  0  0  0  0  0  0
  -20.5326  -30.2684   23.3078 C   0  0  1  0  0  0  0  0  0  0  0  0
  -23.9991  -30.2514   21.7532 C   0  0  1  0  0  0  0  0  0  0  0  0
  -27.5250  -13.2974   19.5756 C   0  0  2  0  0  0  0  0  0  0  0  0
  -28.8402  -23.7834   24.2532 C   0  0  2  0  0  0  0  0  0  0  0  0
  -26.1466  -27.8237   14.7177 C   0  0  0  0  0  0  0  0  0  0  0  0
  -21.5296  -27.1219   19.4147 C   0  0  0  0  0  0  0  0  0  0  0  0
  -22.5555  -26.3163   17.2777 C   0  0  0  0  0  0  0  0  0  0  0  0
  -21.5641  -28.6021   17.3992 C   0  0  0  0  0  0  0  0  0  0  0  0
  -28.3376  -29.5901   17.2781 C   0  0  0  0  0  0  0  0  0  0  0  0
  -29.2182  -22.3122   22.3278 C   0  0  0  0  0  0  0  0  0  0  0  0
  -27.9649  -24.8601   23.6343 C   0  0  0  0  0  0  0  0  0  1  0  0
  -23.7517  -28.1357   18.5777 C   0  0  1  0  0  0  0  0  0  0  0  0
  -26.4342  -28.6644   15.9519 C   0  0  2  0  0  0  0  0  0  0  0  0
  -22.3659  -27.5462   18.1909 C   0  0  0  0  0  0  0  0  0  0  0  0
  -26.3146  -11.4803   20.7220 N   0  0  0  0  0  0  0  0  0  0  0  0
  -26.2503  -12.6797   20.1192 N   0  0  0  0  0  0  0  0  0  0  0  0
  -24.2467  -29.2149   20.7489 N   0  0  0  0  0  0  0  0  0  0  0  0
  -29.4273  -14.7967   20.0271 N   0  0  0  0  0  0  0  0  0  0  0  0
  -28.6742  -22.4475   23.6724 N   0  0  1  0  0  0  0  0  0  0  0  0
  -24.7501  -14.4062   19.5036 N   0  0  0  0  0  0  0  0  0  0  0  0
  -22.2962  -13.0284   22.0478 N   0  0  0  0  0  0  0  0  0  0  0  0
  -28.6717  -17.0180   20.2667 N   0  0  0  0  0  0  0  0  0  0  0  0
  -21.7369  -30.5553   22.5582 N   0  0  0  0  0  0  0  0  0  0  0  0
  -24.5544  -28.5711   17.4399 N   0  0  0  0  0  0  0  0  0  0  0  0
  -27.9117  -28.7703   16.1146 N   0  3  0  0  0  0  0  0  0  0  0  0
  -21.9355  -11.9817   20.0396 O   0  0  0  0  0  0  0  0  0  0  0  0
  -23.0126  -28.7467   23.2822 O   0  0  0  0  0  0  0  0  0  0  0  0
  -23.0263  -30.3315   19.1057 O   0  0  0  0  0  0  0  0  0  0  0  0
  -26.3752  -27.2025   17.8746 O   0  0  0  0  0  0  0  0  0  0  0  0
  -30.7625  -16.5654   19.3690 O   0  0  0  0  0  0  0  0  0  0  0  0
  -23.6889   -6.5207   23.7311 O   0  0  0  0  0  0  0  0  0  0  0  0
  -28.1530  -26.0803   24.3500 O   0  0  0  0  0  0  0  0  0  1  0  0
  -18.3537   -5.1467   23.9593 F   0  0  0  0  0  0  0  0  0  0  0  0
  -22.7890   -4.1427   22.6456 F   0  0  0  0  0  0  0  0  0  0  0  0
  -26.4421  -18.4943   21.0009 F   0  0  0  0  0  0  0  0  0  0  0  0
  -30.1426  -24.1782   24.1642 F   0  0  0  0  0  0  0  0  0  0  0  0
  -26.3507  -21.2130   22.0863 Cl  0  0  0  0  0  0  0  0  0  0  0  0
  1  2  1  0  0  0  0
  1  5  2  0  0  0  0
  2  6  2  0  0  0  0
  3 10  2  0  0  0  0
  3 17  1  0  0  0  0
  4 11  1  0  0  0  0
  4 17  2  0  0  0  0
  5 19  1  0  0  0  0
  6 21  1  0  0  0  0
  7 12  2  0  0  0  0
  7 20  1  0  0  0  0
  8  9  2  0  0  0  0
  8 23  1  0  0  0  0
  9 24  1  0  0  0  0
 10 25  1  0  0  0  0
 11 25  2  0  0  0  0
 12 26  1  0  0  0  0
 13 14  2  0  0  0  0
 13 27  1  0  0  0  0
 14 28  1  0  0  0  0
 15 22  1  0  0  0  0
 15 26  2  0  0  0  0
 16 28  2  0  0  0  0
 16 29  1  0  0  0  0
 17 32  1  0  0  0  0
 18 32  1  0  0  0  0
 18 33  2  0  0  0  0
 18 34  1  0  0  0  0
 19 21  2  0  0  0  0
 19 39  1  0  0  0  0
 20 22  2  0  0  0  0
 20 40  1  0  0  0  0
 21 51  1  0  0  0  0
 22 41  1  0  0  0  0
 23 31  2  0  0  0  0
 23 60  1  0  0  0  0
 24 30  2  0  0  0  0
 24 72  1  0  0  0  0
 25 81  1  0  0  0  0
 26 82  1  0  0  0  0
 27 29  2  0  0  0  0
 27 81  1  0  0  0  0
 28 83  1  0  0  0  0
 29 84  1  0  0  0  0
 30 31  1  0  0  0  0
 30 85  1  0  0  0  0
 31 87  1  0  0  0  0
 32 65  2  0  0  0  0
 33 66  1  0  0  0  0
 33 70  1  0  0  0  0
 34 71  1  0  0  0  0
 34 76  2  0  0  0  0
 35 52  1  0  0  0  0
 35 73  1  0  0  0  0
 35 77  2  0  0  0  0
 36 62  1  0  0  0  0
 36 67  1  0  0  0  0
 36 78  2  0  0  0  0
 37 63  1  0  0  0  0
 37 74  1  0  0  0  0
 37 79  2  0  0  0  0
 38 68  1  0  0  0  0
 38 72  1  0  0  0  0
 38 80  2  0  0  0  0
 39 42  1  0  0  0  0
 40 52  1  0  0  0  0
 41 67  1  0  0  0  0
 42 45  1  0  0  0  0
 43 46  1  0  0  0  0
 43 48  1  0  0  0  0
 44 47  1  0  0  0  0
 44 49  1  0  0  0  0
 45 51  1  0  0  0  0
 46 53  1  0  0  0  0
 47 54  1  0  0  0  0
 48 68  1  0  0  0  0
 49 69  1  0  0  0  0
 50 53  1  0  0  0  0
 50 68  1  0  0  0  0
 51 73  1  0  0  0  0
 52 67  1  0  0  0  0
 53 66  1  0  0  0  0
 54 61  1  0  0  0  0
 54 69  1  0  0  0  0
 54 86  1  0  0  0  0
 55 63  1  0  0  0  0
 56 64  1  0  0  0  0
 57 64  1  0  0  0  0
 58 64  1  0  0  0  0
 59 75  1  0  0  0  0
 60 69  1  0  0  0  0
 61 82  1  0  0  0  0
 62 64  1  0  0  0  0
 62 74  1  0  0  0  0
 63 75  1  0  0  0  0
 65 66  1  0  0  0  0
M  CHG  1  75   1
M  ISO  4  38 100  61 101  72 100  82 101
M  END
> <Batch ID>
0024

> <Smiles>
CNC(C)C(=O)NC(C(=O)N1Cc2cc([101O:1][101CH2:1]C3(F)CCCN3Cc3ccc([100NH:0][100C:0](=O)N4CCCC(n5nc(-c6ccc(Oc7ccc(F)cc7F)cc6)c(C(N)=O)c5N)C4)c(F)c3Cl)ccc2CC1C(=O)NC1CCCc2ccccc21)C(C)(C)C

> <Shape>
0.253

> <Color>
0.103

> <Negative vol penalty>
0.000

$$$$

  -OEChem-04042321203D

 86 95  0     1  0  0  0  0  0999 V2000
  -27.5130  -18.5398   18.1341 C   0  0  0  0  0  0  0  0  0  0  0  0
  -26.5273  -19.5211   18.1032 C   0  0  0  0  0  0  0  0  0  0  0  0
  -24.6669  -14.2633   20.4141 C   0  0  0  0  0  0  0  0  0  0  0  0
  -24.8826  -14.2617   22.8204 C   0  0  0  0  0  0  0  0  0  0  0  0
  -28.5915  -18.6640   19.0089 C   0  0  0  0  0  0  0  0  0  0  0  0
  -26.6191  -20.6267   18.9480 C   0  0  0  0  0  0  0  0  0  0  0  0
  -25.0191  -27.6045   19.2047 C   0  0  0  0  0  0  0  0  0  0  0  0
  -22.8800  -26.3265   25.3816 C   0  0  0  0  0  0  0  0  0  0  0  0
  -23.0148  -27.6841   25.0913 C   0  0  0  0  0  0  0  0  0  0  0  0
  -25.6814  -13.3104   20.3225 C   0  0  0  0  0  0  0  0  0  0  0  0
  -25.8971  -13.3088   22.7288 C   0  0  0  0  0  0  0  0  0  0  0  0
  -24.3586  -28.5291   20.0126 C   0  0  0  0  0  0  0  0  0  0  0  0
  -29.0576  -13.2456   20.4681 C   0  0  0  0  0  0  0  0  0  0  0  0
  -30.0455  -13.4425   19.5033 C   0  0  0  0  0  0  0  0  0  0  0  0
  -26.3077  -28.6774   21.4261 C   0  0  0  0  0  0  0  0  0  0  0  0
  -29.4524  -11.3420   18.4673 C   0  0  0  0  0  0  0  0  0  0  0  0
  -24.2675  -14.7390   21.6630 C   0  0  0  0  0  0  0  0  0  0  0  0
  -21.8381  -15.4855   21.8822 C   0  0  0  0  0  0  0  0  0  0  0  0
  -28.7015  -19.7764   19.8580 C   0  0  0  0  0  0  0  0  0  0  0  0
  -26.3272  -27.2006   19.5082 C   0  0  0  0  0  0  0  0  0  0  0  0
  -27.6994  -20.7652   19.8359 C   0  0  0  0  0  0  0  0  0  0  0  0
  -26.9836  -27.7495   20.6190 C   0  0  0  0  0  0  0  0  0  0  0  0
  -21.9089  -25.5669   24.7291 C   0  0  0  0  0  0  0  0  0  0  0  0
  -22.1785  -28.2822   24.1487 C   0  0  0  0  0  0  0  0  0  0  0  0
  -26.2965  -12.8331   21.4798 C   0  0  0  0  0  0  0  0  0  0  0  0
  -25.0018  -29.0635   21.1251 C   0  0  0  0  0  0  0  0  0  0  0  0
  -28.2672  -12.0968   20.4327 C   0  0  0  0  0  0  0  0  0  0  0  0
  -30.2428  -12.4907   18.5028 C   0  0  0  0  0  0  0  0  0  0  0  0
  -28.4645  -11.1451   19.4323 C   0  0  0  0  0  0  0  0  0  0  0  0
  -21.0726  -26.1650   23.7865 C   0  0  0  0  0  0  0  0  0  0  0  0
  -21.2074  -27.5226   23.4963 C   0  0  0  0  0  0  0  0  0  0  0  0
  -23.2200  -15.7237   21.7583 C   0  0  0  0  0  0  0  0  0  0  0  0
  -21.2771  -16.7381   21.9342 C   0  0  0  0  0  0  0  0  0  0  0  0
  -21.1253  -14.2431   21.9448 C   0  0  0  0  0  0  0  0  0  0  0  0
  -27.7036  -24.4358   20.2599 C   0  0  0  0  0  0  0  0  0  0  0  0
  -30.4284  -26.1845   20.0605 C   0  0  0  0  0  0  0  0  0  0  0  0
  -31.9209  -29.2500   20.2084 C   0  0  0  0  0  0  0  0  0  0  0  0
  -22.3451  -21.8884   24.1128 C   0  0  0  0  0  0  0  0  0  0  0  0
  -29.8610  -19.8435   20.8201 C   0  0  0  0  0  0  0  0  0  0  0  0
  -27.0355  -26.2225   18.6115 C   0  0  0  0  0  0  0  0  0  0  0  0
  -28.3950  -27.3641   20.9765 C   0  0  0  0  0  0  0  0  0  0  0  0
  -30.0784  -21.2318   21.4163 C   0  0  0  0  0  0  0  0  0  0  0  0
  -22.7247  -21.2649   20.5681 C   0  0  0  0  0  0  0  0  0  0  0  0
  -21.5778  -31.8565   23.8582 C   0  0  0  0  0  0  0  0  0  0  0  0
  -28.7540  -21.8232   21.8888 C   0  0  0  0  0  0  0  0  0  0  0  0
  -22.7558  -19.7360   20.5298 C   0  0  0  0  0  0  0  0  0  0  0  0
  -23.0857  -31.8569   23.6799 C   0  0  0  0  0  0  0  0  0  0  0  0
  -21.1793  -30.4461   23.4412 C   0  0  0  0  0  0  0  0  0  0  0  0
  -23.4516  -21.8020   21.7974 C   0  0  0  0  0  0  0  0  0  0  0  0
  -22.9796  -19.7374   23.0576 C   0  0  0  0  0  0  0  0  0  0  0  0
  -27.7765  -21.9915   20.7193 C   0  0  1  0  0  0  0  0  0  0  0  0
  -28.1817  -25.4953   19.3078 C   0  0  1  0  0  0  0  0  0  0  0  0
  -22.2415  -19.1318   21.8499 C   0  0  2  0  0  0  0  0  0  0  0  0
  -23.5099  -30.4430   24.1138 C   0  0  2  0  0  0  0  0  0  0  0  0
  -34.1667  -30.3576   20.0434 C   0  0  0  0  0  0  0  0  0  0  0  0
  -31.1181  -25.1982   22.8644 C   0  0  0  0  0  0  0  0  0  0  0  0
  -32.8193  -27.0289   23.0144 C   0  0  0  0  0  0  0  0  0  0  0  0
  -33.0479  -25.2558   21.2747 C   0  0  0  0  0  0  0  0  0  0  0  0
  -31.0832  -30.8626   17.8724 C   0  0  0  0  0  0  0  0  0  0  0  0
  -21.7673  -24.1155   25.0418 C   0  0  0  0  0  0  0  0  0  0  0  0
  -24.7153  -29.9882   23.2974 C   0  0  0  0  0  0  0  0  0  1  0  0
  -31.2429  -27.0088   21.0280 C   0  0  1  0  0  0  0  0  0  0  0  0
  -32.9180  -29.9303   19.2878 C   0  0  2  0  0  0  0  0  0  0  0  0
  -32.0298  -26.1289   22.0400 C   0  0  0  0  0  0  0  0  0  0  0  0
  -23.5186  -17.0253   21.7329 N   0  0  0  0  0  0  0  0  0  0  0  0
  -22.3165  -17.6162   21.8415 N   0  0  0  0  0  0  0  0  0  0  0  0
  -22.3139  -29.6263   23.8633 N   0  0  3  0  0  0  0  0  0  0  0  0
  -29.0430  -26.3994   20.0726 N   0  0  0  0  0  0  0  0  0  0  0  0
  -22.9020  -21.2016   23.0212 N   0  0  0  0  0  0  0  0  0  0  0  0
  -20.0009  -17.1631   22.0496 N   0  0  0  0  0  0  0  0  0  0  0  0
  -21.8564  -13.0492   21.8778 N   0  0  0  0  0  0  0  0  0  0  0  0
  -28.1212  -23.1589   19.9364 N   0  0  0  0  0  0  0  0  0  0  0  0
  -32.0834  -27.8807   20.2146 N   0  0  0  0  0  0  0  0  0  0  0  0
  -22.3155  -23.2731   24.0021 N   0  0  0  0  0  0  0  0  0  0  0  0
  -32.3078  -31.1397   18.6666 N   0  3  0  0  0  0  0  0  0  0  0  0
  -19.8755  -14.1931   22.0404 O   0  0  0  0  0  0  0  0  0  0  0  0
  -27.0086  -24.7534   21.2179 O   0  0  0  0  0  0  0  0  0  0  0  0
  -31.0012  -25.3846   19.3163 O   0  0  0  0  0  0  0  0  0  0  0  0
  -31.0843  -29.8714   20.8599 O   0  0  0  0  0  0  0  0  0  0  0  0
  -21.9017  -21.3098   25.1107 O   0  0  0  0  0  0  0  0  0  0  0  0
  -27.2864  -11.9032   21.3908 O   0  0  0  0  0  0  0  0  0  0  0  0
  -24.3592  -29.9656   21.9158 O   0  0  0  0  0  0  0  0  0  1  0  0
  -31.1905  -12.6807   17.5754 F   0  0  0  0  0  0  0  0  0  0  0  0
  -27.7075  -10.0400   19.3923 F   0  0  0  0  0  0  0  0  0  0  0  0
  -20.1366  -25.4432   23.1545 F   0  0  0  0  0  0  0  0  0  0  0  0
  -20.3987  -28.0872   22.5882 F   0  0  0  0  0  0  0  0  0  0  0  0
  1  2  1  0  0  0  0
  1  5  2  0  0  0  0
  2  6  2  0  0  0  0
  3 10  2  0  0  0  0
  3 17  1  0  0  0  0
  4 11  1  0  0  0  0
  4 17  2  0  0  0  0
  5 19  1  0  0  0  0
  6 21  1  0  0  0  0
  7 12  2  0  0  0  0
  7 20  1  0  0  0  0
  8  9  2  0  0  0  0
  8 23  1  0  0  0  0
  9 24  1  0  0  0  0
 10 25  1  0  0  0  0
 11 25  2  0  0  0  0
 12 26  1  0  0  0  0
 13 14  2  0  0  0  0
 13 27  1  0  0  0  0
 14 28  1  0  0  0  0
 15 22  1  0  0  0  0
 15 26  2  0  0  0  0
 16 28  2  0  0  0  0
 16 29  1  0  0  0  0
 17 32  1  0  0  0  0
 18 32  1  0  0  0  0
 18 33  2  0  0  0  0
 18 34  1  0  0  0  0
 19 21  2  0  0  0  0
 19 39  1  0  0  0  0
 20 22  2  0  0  0  0
 20 40  1  0  0  0  0
 21 51  1  0  0  0  0
 22 41  1  0  0  0  0
 23 30  2  0  0  0  0
 23 60  1  0  0  0  0
 24 31  2  0  0  0  0
 24 67  1  0  0  0  0
 25 81  1  0  0  0  0
 26 82  1  0  0  0  0
 27 29  2  0  0  0  0
 27 81  1  0  0  0  0
 28 83  1  0  0  0  0
 29 84  1  0  0  0  0
 30 31  1  0  0  0  0
 30 85  1  0  0  0  0
 31 86  1  0  0  0  0
 32 65  2  0  0  0  0
 33 66  1  0  0  0  0
 33 70  1  0  0  0  0
 34 71  1  0  0  0  0
 34 76  2  0  0  0  0
 35 52  1  0  0  0  0
 35 72  1  0  0  0  0
 35 77  2  0  0  0  0
 36 62  1  0  0  0  0
 36 68  1  0  0  0  0
 36 78  2  0  0  0  0
 37 63  1  0  0  0  0
 37 73  1  0  0  0  0
 37 79  2  0  0  0  0
 38 69  1  0  0  0  0
 38 74  1  0  0  0  0
 38 80  2  0  0  0  0
 39 42  1  0  0  0  0
 40 52  1  0  0  0  0
 41 68  1  0  0  0  0
 42 45  1  0  0  0  0
 43 46  1  0  0  0  0
 43 49  1  0  0  0  0
 44 47  1  0  0  0  0
 44 48  1  0  0  0  0
 45 51  1  0  0  0  0
 46 53  1  0  0  0  0
 47 54  1  0  0  0  0
 48 67  1  0  0  0  0
 49 69  1  0  0  0  0
 50 53  1  0  0  0  0
 50 69  1  0  0  0  0
 51 72  1  0  0  0  0
 52 68  1  0  0  0  0
 53 66  1  0  0  0  0
 54 61  1  0  0  0  0
 54 67  1  0  0  0  0
 55 63  1  0  0  0  0
 56 64  1  0  0  0  0
 57 64  1  0  0  0  0
 58 64  1  0  0  0  0
 59 75  1  0  0  0  0
 60 74  1  0  0  0  0
 61 82  1  0  0  0  0
 62 64  1  0  0  0  0
 62 73  1  0  0  0  0
 63 75  1  0  0  0  0
 65 66  1  0  0  0  0
M  CHG  1  75   1
M  ISO  4  38 100  61 101  74 100  82 101
M  END
> <Batch ID>
0024

> <Smiles>
CNC(C)C(=O)NC(C(=O)N1Cc2cc([101O:1][101CH2:1]C3CCCN3c3ccc(C[100NH:0][100C:0](=O)N4CCCC(n5nc(-c6ccc(Oc7ccc(F)cc7F)cc6)c(C(N)=O)c5N)C4)c(F)c3F)ccc2CC1C(=O)NC1CCCc2ccccc21)C(C)(C)C

> <Shape>
0.236

> <Color>
0.070

> <Negative vol penalty>
0.000

$$$$

  -OEChem-04042321203D

 81 89  0     1  0  0  0  0  0999 V2000
  -28.9369  -19.5714   24.7757 C   0  0  0  0  0  0  0  0  0  0  0  0
  -28.1490  -20.2777   25.3443 C   0  0  0  0  0  0  0  0  0  0  0  0
  -18.4797  -27.5650   22.5482 C   0  0  0  0  0  0  0  0  0  0  0  0
  -19.3275  -26.5386   22.9522 C   0  0  0  0  0  0  0  0  0  0  0  0
  -23.1882   -9.7291   19.9136 C   0  0  0  0  0  0  0  0  0  0  0  0
  -23.8290   -9.8476   22.2400 C   0  0  0  0  0  0  0  0  0  0  0  0
  -19.0125  -28.7817   22.1244 C   0  0  0  0  0  0  0  0  0  0  0  0
  -20.7088  -26.7281   22.9316 C   0  0  0  0  0  0  0  0  0  0  0  0
  -24.7992  -24.4278   26.8666 C   0  0  0  0  0  0  0  0  0  0  0  0
  -31.6397  -17.0504   22.7395 C   0  0  0  0  0  0  0  0  0  0  0  0
  -22.4984   -8.5430   20.1640 C   0  0  0  0  0  0  0  0  0  0  0  0
  -23.1391   -8.6615   22.4905 C   0  0  0  0  0  0  0  0  0  0  0  0
  -25.6436  -23.3204   26.8012 C   0  0  0  0  0  0  0  0  0  0  0  0
  -23.6435   -5.3467   22.0560 C   0  0  0  0  0  0  0  0  0  0  0  0
  -24.2782   -4.3802   22.8361 C   0  0  0  0  0  0  0  0  0  0  0  0
  -32.1306  -17.9924   23.6436 C   0  0  0  0  0  0  0  0  0  0  0  0
  -29.3848  -17.7887   23.1945 C   0  0  0  0  0  0  0  0  0  0  0  0
  -27.4403  -24.7423   26.0468 C   0  0  0  0  0  0  0  0  0  0  0  0
  -22.4853   -4.5060   24.4506 C   0  0  0  0  0  0  0  0  0  0  0  0
  -29.8756  -18.7307   24.0986 C   0  0  0  0  0  0  0  0  0  0  0  0
  -23.8536  -10.3815   20.9516 C   0  0  0  0  0  0  0  0  0  0  0  0
  -24.0592  -12.9174   20.7667 C   0  0  0  0  0  0  0  0  0  0  0  0
  -20.4008  -28.9895   22.1078 C   0  0  0  0  0  0  0  0  0  0  0  0
  -25.2667  -25.7013   26.5114 C   0  0  0  0  0  0  0  0  0  0  0  0
  -21.2608  -27.9482   22.5060 C   0  0  0  0  0  0  0  0  0  0  0  0
  -26.6005  -25.8647   26.1109 C   0  0  0  0  0  0  0  0  0  0  0  0
  -30.2668  -16.9485   22.5149 C   0  0  0  0  0  0  0  0  0  0  0  0
  -22.4738   -8.0092   21.4524 C   0  0  0  0  0  0  0  0  0  0  0  0
  -26.9635  -23.4770   26.3885 C   0  0  0  0  0  0  0  0  0  0  0  0
  -22.4297   -5.8930   22.4732 C   0  0  0  0  0  0  0  0  0  0  0  0
  -23.6991   -3.9598   24.0334 C   0  0  0  0  0  0  0  0  0  0  0  0
  -21.8506   -5.4726   23.6705 C   0  0  0  0  0  0  0  0  0  0  0  0
  -31.2485  -18.8325   24.3231 C   0  0  0  0  0  0  0  0  0  0  0  0
  -24.5669  -11.6065   20.6934 C   0  0  0  0  0  0  0  0  0  0  0  0
  -25.1247  -13.7175   20.4333 C   0  0  0  0  0  0  0  0  0  0  0  0
  -22.7422  -13.3714   21.1059 C   0  0  0  0  0  0  0  0  0  0  0  0
  -24.5009  -27.8297   24.2783 C   0  0  0  0  0  0  0  0  0  0  0  0
  -26.6437  -29.6810   25.8605 C   0  0  0  0  0  0  0  0  0  0  0  0
  -29.3600  -29.8538   27.9193 C   0  0  0  0  0  0  0  0  0  0  0  0
  -30.5078  -15.0806   20.8419 C   0  0  0  0  0  0  0  0  0  0  0  0
  -20.9318  -30.3054   21.5968 C   0  0  0  0  0  0  0  0  0  0  0  0
  -24.3507  -26.8900   26.6129 C   0  0  0  0  0  0  0  0  0  0  0  0
  -27.1570  -27.2138   25.7384 C   0  0  0  0  0  0  0  0  0  0  0  0
  -22.3932  -30.5549   21.9603 C   0  0  0  0  0  0  0  0  0  0  0  0
  -29.6521  -12.5377   18.5013 C   0  0  0  0  0  0  0  0  0  0  0  0
  -23.2335  -29.3140   21.6758 C   0  0  0  0  0  0  0  0  0  0  0  0
  -28.2111  -12.1766   18.8690 C   0  0  0  0  0  0  0  0  0  0  0  0
  -30.4907  -12.8542   19.7384 C   0  0  0  0  0  0  0  0  0  0  0  0
  -28.4785  -13.5082   21.0002 C   0  0  0  0  0  0  0  0  0  0  0  0
  -22.7638  -28.1240   22.5213 C   0  0  1  0  0  0  0  0  0  0  0  0
  -24.7887  -28.0584   25.7352 C   0  0  1  0  0  0  0  0  0  0  0  0
  -27.5780  -13.2445   19.7823 C   0  0  2  0  0  0  0  0  0  0  0  0
  -30.9073  -31.5046   29.0047 C   0  0  0  0  0  0  0  0  0  0  0  0
  -28.0586  -30.1065   23.1908 C   0  0  0  0  0  0  0  0  0  0  0  0
  -30.0540  -30.9301   24.4590 C   0  0  0  0  0  0  0  0  0  0  0  0
  -27.8857  -32.1531   24.6177 C   0  0  0  0  0  0  0  0  0  0  0  0
  -28.5904  -28.9651   30.6353 C   0  0  0  0  0  0  0  0  0  0  0  0
  -27.1882  -21.1358   26.0363 C   0  0  0  0  0  0  0  0  0  1  0  0
  -28.1323  -29.9134   25.7644 C   0  0  1  0  0  0  0  0  0  0  0  0
  -29.6337  -30.6877   29.1579 C   0  0  2  0  0  0  0  0  0  0  0  0
  -28.5219  -30.7499   24.5131 C   0  0  0  0  0  0  0  0  0  0  0  0
  -25.8548  -11.5713   20.3410 N   0  0  0  0  0  0  0  0  0  0  0  0
  -26.1652  -12.8700   20.1898 N   0  0  0  0  0  0  0  0  0  0  0  0
  -26.2204  -28.3444   25.8478 N   0  0  0  0  0  0  0  0  0  0  0  0
  -29.8310  -13.8766   20.5534 N   0  0  0  0  0  0  0  0  0  0  0  0
  -25.2636  -15.0561   20.3276 N   0  0  0  0  0  0  0  0  0  0  0  0
  -21.7669  -12.4159   21.4224 N   0  0  0  0  0  0  0  0  0  0  0  0
  -29.7689  -15.9906   21.5972 N   0  0  0  0  0  0  0  0  0  0  0  0
  -23.2455  -28.2482   23.8804 N   0  0  0  0  0  0  0  0  0  0  0  0
  -28.5346  -30.5122   27.0325 N   0  0  0  0  0  0  0  0  0  0  0  0
  -29.7802  -29.8085   30.3523 N   0  3  0  0  0  0  0  0  0  0  0  0
  -22.4348  -14.5876   21.1116 O   0  0  0  0  0  0  0  0  0  0  0  0
  -25.3551  -27.3132   23.5675 O   0  0  0  0  0  0  0  0  0  0  0  0
  -25.8850  -30.6494   25.9509 O   0  0  0  0  0  0  0  0  0  0  0  0
  -29.8343  -28.7322   27.7533 O   0  0  0  0  0  0  0  0  0  0  0  0
  -31.6480  -15.3001   20.4250 O   0  0  0  0  0  0  0  0  0  0  0  0
  -21.8005   -6.8519   21.6972 O   0  0  0  0  0  0  0  0  0  0  0  0
  -27.7897  -22.3976   26.3233 O   0  0  0  0  0  0  0  0  0  1  0  0
  -24.3079   -3.0305   24.7817 F   0  0  0  0  0  0  0  0  0  0  0  0
  -20.6841   -5.9928   24.0759 F   0  0  0  0  0  0  0  0  0  0  0  0
  -31.9116  -19.9813   25.4331 Cl  0  0  0  0  0  0  0  0  0  0  0  0
  1  2  3  0  0  0  0
  1 20  1  0  0  0  0
  2 58  1  0  0  0  0
  3  4  1  0  0  0  0
  3  7  2  0  0  0  0
  4  8  2  0  0  0  0
  5 11  2  0  0  0  0
  5 21  1  0  0  0  0
  6 12  1  0  0  0  0
  6 21  2  0  0  0  0
  7 23  1  0  0  0  0
  8 25  1  0  0  0  0
  9 13  2  0  0  0  0
  9 24  1  0  0  0  0
 10 16  2  0  0  0  0
 10 27  1  0  0  0  0
 11 28  1  0  0  0  0
 12 28  2  0  0  0  0
 13 29  1  0  0  0  0
 14 15  2  0  0  0  0
 14 30  1  0  0  0  0
 15 31  1  0  0  0  0
 16 33  1  0  0  0  0
 17 20  1  0  0  0  0
 17 27  2  0  0  0  0
 18 26  1  0  0  0  0
 18 29  2  0  0  0  0
 19 31  2  0  0  0  0
 19 32  1  0  0  0  0
 20 33  2  0  0  0  0
 21 34  1  0  0  0  0
 22 34  1  0  0  0  0
 22 35  2  0  0  0  0
 22 36  1  0  0  0  0
 23 25  2  0  0  0  0
 23 41  1  0  0  0  0
 24 26  2  0  0  0  0
 24 42  1  0  0  0  0
 25 50  1  0  0  0  0
 26 43  1  0  0  0  0
 27 68  1  0  0  0  0
 28 77  1  0  0  0  0
 29 78  1  0  0  0  0
 30 32  2  0  0  0  0
 30 77  1  0  0  0  0
 31 79  1  0  0  0  0
 32 80  1  0  0  0  0
 33 81  1  0  0  0  0
 34 62  2  0  0  0  0
 35 63  1  0  0  0  0
 35 66  1  0  0  0  0
 36 67  1  0  0  0  0
 36 72  2  0  0  0  0
 37 51  1  0  0  0  0
 37 69  1  0  0  0  0
 37 73  2  0  0  0  0
 38 59  1  0  0  0  0
 38 64  1  0  0  0  0
 38 74  2  0  0  0  0
 39 60  1  0  0  0  0
 39 70  1  0  0  0  0
 39 75  2  0  0  0  0
 40 65  1  0  0  0  0
 40 68  1  0  0  0  0
 40 76  2  0  0  0  0
 41 44  1  0  0  0  0
 42 51  1  0  0  0  0
 43 64  1  0  0  0  0
 44 46  1  0  0  0  0
 45 47  1  0  0  0  0
 45 48  1  0  0  0  0
 46 50  1  0  0  0  0
 47 52  1  0  0  0  0
 48 65  1  0  0  0  0
 49 52  1  0  0  0  0
 49 65  1  0  0  0  0
 50 69  1  0  0  0  0
 51 64  1  0  0  0  0
 52 63  1  0  0  0  0
 53 60  1  0  0  0  0
 54 61  1  0  0  0  0
 55 61  1  0  0  0  0
 56 61  1  0  0  0  0
 57 71  1  0  0  0  0
 58 78  1  0  0  0  0
 59 61  1  0  0  0  0
 59 70  1  0  0  0  0
 60 71  1  0  0  0  0
 62 63  1  0  0  0  0
M  CHG  1  71   1
M  ISO  4  40 100  58 101  68 100  78 101
M  END
> <Batch ID>
0024

> <Smiles>
CNC(C)C(=O)NC(C(=O)N1Cc2cc([101O:1][101CH2:1]C#Cc3cc([100NH:0][100C:0](=O)N4CCCC(n5nc(-c6ccc(Oc7ccc(F)cc7F)cc6)c(C(N)=O)c5N)C4)ccc3Cl)ccc2CC1C(=O)NC1CCCc2ccccc21)C(C)(C)C

> <Shape>
0.274

> <Color>
0.212

> <Negative vol penalty>
0.000

$$$$

  -OEChem-04042321203D

 84 93  0     1  0  0  0  0  0999 V2000
  -28.6445  -37.7177   25.0805 C   0  0  0  0  0  0  0  0  0  0  0  0
  -29.0837  -36.4083   25.2478 C   0  0  0  0  0  0  0  0  0  0  0  0
  -24.4840   -9.5577   20.8206 C   0  0  0  0  0  0  0  0  0  0  0  0
  -25.1184  -10.2559   23.0448 C   0  0  0  0  0  0  0  0  0  0  0  0
  -27.2812  -38.0059   25.1284 C   0  0  0  0  0  0  0  0  0  0  0  0
  -28.1599  -35.3864   25.4641 C   0  0  0  0  0  0  0  0  0  0  0  0
  -28.5445  -29.5988   23.4991 C   0  0  0  0  0  0  0  0  0  0  0  0
  -30.1583  -20.8216   22.5804 C   0  0  0  0  0  0  0  0  0  0  0  0
  -29.9907  -19.6357   21.8654 C   0  0  0  0  0  0  0  0  0  0  0  0
  -24.2521   -8.2657   21.2923 C   0  0  0  0  0  0  0  0  0  0  0  0
  -24.8864   -8.9638   23.5165 C   0  0  0  0  0  0  0  0  0  0  0  0
  -28.9556  -28.4217   24.1230 C   0  0  0  0  0  0  0  0  0  0  0  0
  -21.8244   -6.6302   22.9848 C   0  0  0  0  0  0  0  0  0  0  0  0
  -20.6562   -5.9894   22.5721 C   0  0  0  0  0  0  0  0  0  0  0  0
  -26.6580  -27.9013   24.6417 C   0  0  0  0  0  0  0  0  0  0  0  0
  -21.9750   -4.2306   21.5699 C   0  0  0  0  0  0  0  0  0  0  0  0
  -24.9172  -10.5528   21.6968 C   0  0  0  0  0  0  0  0  0  0  0  0
  -24.2328  -12.9467   21.1415 C   0  0  0  0  0  0  0  0  0  0  0  0
  -26.3395  -36.9856   25.3359 C   0  0  0  0  0  0  0  0  0  0  0  0
  -27.1857  -29.9419   23.4512 C   0  0  0  0  0  0  0  0  0  0  0  0
  -26.7828  -35.6615   25.5162 C   0  0  0  0  0  0  0  0  0  0  0  0
  -26.2320  -29.0820   24.0143 C   0  0  0  0  0  0  0  0  0  0  0  0
  -29.0641  -21.4194   23.2059 C   0  0  0  0  0  0  0  0  0  0  0  0
  -28.7291  -19.0477   21.7757 C   0  0  0  0  0  0  0  0  0  0  0  0
  -24.4532   -7.9687   22.6403 C   0  0  0  0  0  0  0  0  0  0  0  0
  -28.0126  -27.5742   24.6970 C   0  0  0  0  0  0  0  0  0  0  0  0
  -23.0679   -6.0712   22.6899 C   0  0  0  0  0  0  0  0  0  0  0  0
  -20.7315   -4.7896   21.8647 C   0  0  0  0  0  0  0  0  0  0  0  0
  -23.1432   -4.8714   21.9825 C   0  0  0  0  0  0  0  0  0  0  0  0
  -27.8025  -20.8313   23.1162 C   0  0  0  0  0  0  0  0  0  0  0  0
  -27.6349  -19.6455   22.4011 C   0  0  0  0  0  0  0  0  0  0  0  0
  -25.1575  -11.8875   21.2101 C   0  0  0  0  0  0  0  0  0  0  0  0
  -24.9474  -13.9925   20.6103 C   0  0  0  0  0  0  0  0  0  0  0  0
  -22.8514  -12.9821   21.5239 C   0  0  0  0  0  0  0  0  0  0  0  0
  -25.4401  -32.3523   24.5679 C   0  0  0  0  0  0  0  0  0  0  0  0
  -23.0793  -30.9184   22.8670 C   0  0  0  0  0  0  0  0  0  0  0  0
  -21.8506  -28.0668   21.4509 C   0  0  0  0  0  0  0  0  0  0  0  0
  -29.5442  -17.1250   20.3668 C   0  0  0  0  0  0  0  0  0  0  0  0
  -24.8796  -37.3528   25.4270 C   0  0  0  0  0  0  0  0  0  0  0  0
  -26.7561  -31.2019   22.7511 C   0  0  0  0  0  0  0  0  0  0  0  0
  -24.7592  -29.3946   23.9720 C   0  0  0  0  0  0  0  0  0  0  0  0
  -23.9409  -36.1572   25.2868 C   0  0  0  0  0  0  0  0  0  0  0  0
  -29.5409  -14.1013   18.4867 C   0  0  0  0  0  0  0  0  0  0  0  0
  -24.4174  -34.9993   26.1581 C   0  0  0  0  0  0  0  0  0  0  0  0
  -28.3241  -13.3429   19.0220 C   0  0  0  0  0  0  0  0  0  0  0  0
  -30.2584  -14.8746   19.5917 C   0  0  0  0  0  0  0  0  0  0  0  0
  -30.3880  -23.4099   24.1714 C   0  0  0  0  0  0  0  0  0  0  0  0
  -28.3023  -23.5884   24.3729 C   0  0  0  0  0  0  0  0  0  0  0  0
  -28.1849  -15.0114   20.9151 C   0  0  0  0  0  0  0  0  0  0  0  0
  -25.8098  -34.5220   25.7282 C   0  0  1  0  0  0  0  0  0  0  0  0
  -25.3922  -31.7064   23.2121 C   0  0  1  0  0  0  0  0  0  0  0  0
  -29.4886  -24.3080   25.0403 C   0  0  0  0  0  0  0  0  0  0  0  0
  -27.3918  -14.2696   19.8269 C   0  0  2  0  0  0  0  0  0  0  0  0
  -19.8810  -27.1985   20.1609 C   0  0  0  0  0  0  0  0  0  0  0  0
  -21.4077  -30.9249   25.4196 C   0  0  0  0  0  0  0  0  0  0  0  0
  -19.8936  -29.2425   24.3494 C   0  0  0  0  0  0  0  0  0  0  0  0
  -20.1433  -31.5114   23.3431 C   0  0  0  0  0  0  0  0  0  0  0  0
  -23.5470  -27.3054   19.1484 C   0  0  0  0  0  0  0  0  0  0  0  0
  -29.5941  -25.8015   24.8087 C   0  0  0  0  0  0  0  0  0  1  0  0
  -22.0459  -29.8569   23.1573 C   0  0  1  0  0  0  0  0  0  0  0  0
  -21.2780  -27.7928   20.0719 C   0  0  2  0  0  0  0  0  0  0  0  0
  -20.9005  -30.3787   24.0700 C   0  0  0  0  0  0  0  0  0  0  0  0
  -26.3672  -12.2290   20.7584 N   0  0  0  0  0  0  0  0  0  0  0  0
  -26.2075  -13.5146   20.4008 N   0  0  0  0  0  0  0  0  0  0  0  0
  -29.2355  -22.6111   23.9237 N   0  0  0  0  0  0  0  0  0  0  0  0
  -24.3896  -30.6413   23.2817 N   0  0  0  0  0  0  0  0  0  0  0  0
  -29.3137  -15.7342   20.3082 N   0  0  0  0  0  0  0  0  0  0  0  0
  -24.6144  -15.2650   20.3066 N   0  0  0  0  0  0  0  0  0  0  0  0
  -22.2745  -11.8194   22.0526 N   0  0  0  0  0  0  0  0  0  0  0  0
  -28.5619  -17.8441   21.0468 N   0  0  0  0  0  0  0  0  0  0  0  0
  -25.7186  -33.7054   24.5369 N   0  0  0  0  0  0  0  0  0  0  0  0
  -21.5975  -29.3585   21.8616 N   0  0  0  0  0  0  0  0  0  0  0  0
  -22.1487  -26.8377   19.3300 N   0  3  0  0  0  0  0  0  0  0  0  0
  -22.1451  -14.0095   21.3851 O   0  0  0  0  0  0  0  0  0  0  0  0
  -25.2379  -31.6736   25.5679 O   0  0  0  0  0  0  0  0  0  0  0  0
  -22.7378  -31.9522   22.2872 O   0  0  0  0  0  0  0  0  0  0  0  0
  -22.4582  -27.2186   22.1004 O   0  0  0  0  0  0  0  0  0  0  0  0
  -30.5257  -17.6433   19.8283 O   0  0  0  0  0  0  0  0  0  0  0  0
  -24.2268   -6.7082   23.1009 O   0  0  0  0  0  0  0  0  0  0  0  0
  -28.4112  -26.4250   25.3072 O   0  0  0  0  0  0  0  0  0  1  0  0
  -19.6095   -4.1736   21.4699 F   0  0  0  0  0  0  0  0  0  0  0  0
  -24.3349   -4.3289   21.6973 F   0  0  0  0  0  0  0  0  0  0  0  0
  -26.7440  -21.3973   23.7133 F   0  0  0  0  0  0  0  0  0  0  0  0
  -26.4180  -19.0889   22.3202 F   0  0  0  0  0  0  0  0  0  0  0  0
  1  2  1  0  0  0  0
  1  5  2  0  0  0  0
  2  6  2  0  0  0  0
  3 10  2  0  0  0  0
  3 17  1  0  0  0  0
  4 11  1  0  0  0  0
  4 17  2  0  0  0  0
  5 19  1  0  0  0  0
  6 21  1  0  0  0  0
  7 12  2  0  0  0  0
  7 20  1  0  0  0  0
  8  9  2  0  0  0  0
  8 23  1  0  0  0  0
  9 24  1  0  0  0  0
 10 25  1  0  0  0  0
 11 25  2  0  0  0  0
 12 26  1  0  0  0  0
 13 14  2  0  0  0  0
 13 27  1  0  0  0  0
 14 28  1  0  0  0  0
 15 22  1  0  0  0  0
 15 26  2  0  0  0  0
 16 28  2  0  0  0  0
 16 29  1  0  0  0  0
 17 32  1  0  0  0  0
 18 32  1  0  0  0  0
 18 33  2  0  0  0  0
 18 34  1  0  0  0  0
 19 21  2  0  0  0  0
 19 39  1  0  0  0  0
 20 22  2  0  0  0  0
 20 40  1  0  0  0  0
 21 50  1  0  0  0  0
 22 41  1  0  0  0  0
 23 30  2  0  0  0  0
 23 65  1  0  0  0  0
 24 31  2  0  0  0  0
 24 70  1  0  0  0  0
 25 79  1  0  0  0  0
 26 80  1  0  0  0  0
 27 29  2  0  0  0  0
 27 79  1  0  0  0  0
 28 81  1  0  0  0  0
 29 82  1  0  0  0  0
 30 31  1  0  0  0  0
 30 83  1  0  0  0  0
 31 84  1  0  0  0  0
 32 63  2  0  0  0  0
 33 64  1  0  0  0  0
 33 68  1  0  0  0  0
 34 69  1  0  0  0  0
 34 74  2  0  0  0  0
 35 51  1  0  0  0  0
 35 71  1  0  0  0  0
 35 75  2  0  0  0  0
 36 60  1  0  0  0  0
 36 66  1  0  0  0  0
 36 76  2  0  0  0  0
 37 61  1  0  0  0  0
 37 72  1  0  0  0  0
 37 77  2  0  0  0  0
 38 67  1  0  0  0  0
 38 70  1  0  0  0  0
 38 78  2  0  0  0  0
 39 42  1  0  0  0  0
 40 51  1  0  0  0  0
 41 66  1  0  0  0  0
 42 44  1  0  0  0  0
 43 45  1  0  0  0  0
 43 46  1  0  0  0  0
 44 50  1  0  0  0  0
 45 53  1  0  0  0  0
 46 67  1  0  0  0  0
 47 52  1  0  0  0  0
 47 65  1  0  0  0  0
 48 52  1  0  0  0  0
 48 65  1  0  0  0  0
 49 53  1  0  0  0  0
 49 67  1  0  0  0  0
 50 71  1  0  0  0  0
 51 66  1  0  0  0  0
 52 59  1  0  0  0  0
 53 64  1  0  0  0  0
 54 61  1  0  0  0  0
 55 62  1  0  0  0  0
 56 62  1  0  0  0  0
 57 62  1  0  0  0  0
 58 73  1  0  0  0  0
 59 80  1  0  0  0  0
 60 62  1  0  0  0  0
 60 72  1  0  0  0  0
 61 73  1  0  0  0  0
 63 64  1  0  0  0  0
M  CHG  1  73   1
M  ISO  4  38 100  59 101  70 100  80 101
M  END
> <Batch ID>
0024

> <Smiles>
CNC(C)C(=O)NC(C(=O)N1Cc2cc([101O:1][101CH2:1]C3CN(c4ccc([100NH:0][100C:0](=O)N5CCCC(n6nc(-c7ccc(Oc8ccc(F)cc8F)cc7)c(C(N)=O)c6N)C5)c(F)c4F)C3)ccc2CC1C(=O)NC1CCCc2ccccc21)C(C)(C)C

> <Shape>
0.288

> <Color>
0.126

> <Negative vol penalty>
0.000

$$$$

  -OEChem-04042321203D

 89 98  0     1  0  0  0  0  0999 V2000
  -21.0842  -32.6157   28.3979 C   0  0  0  0  0  0  0  0  0  0  0  0
  -22.3904  -32.4307   27.9564 C   0  0  0  0  0  0  0  0  0  0  0  0
  -26.4693  -12.7528   19.3974 C   0  0  0  0  0  0  0  0  0  0  0  0
  -26.4790  -11.9554   21.6780 C   0  0  0  0  0  0  0  0  0  0  0  0
  -20.0499  -31.8598   27.8476 C   0  0  0  0  0  0  0  0  0  0  0  0
  -22.6633  -31.4887   26.9651 C   0  0  0  0  0  0  0  0  0  0  0  0
  -27.0740  -30.3115   21.4446 C   0  0  0  0  0  0  0  0  0  0  0  0
  -31.7299  -22.4275   21.7965 C   0  0  0  0  0  0  0  0  0  0  0  0
  -31.5826  -21.1457   22.3266 C   0  0  0  0  0  0  0  0  0  0  0  0
  -25.1375  -12.3597   19.2656 C   0  0  0  0  0  0  0  0  0  0  0  0
  -25.1471  -11.5624   21.5463 C   0  0  0  0  0  0  0  0  0  0  0  0
  -27.9424  -29.3405   20.9479 C   0  0  0  0  0  0  0  0  0  0  0  0
  -23.4327   -8.9885   20.1800 C   0  0  0  0  0  0  0  0  0  0  0  0
  -23.0773   -7.7301   20.6654 C   0  0  0  0  0  0  0  0  0  0  0  0
  -26.0650  -28.1479   20.0139 C   0  0  0  0  0  0  0  0  0  0  0  0
  -30.3250  -20.4825   20.3732 C   0  0  0  0  0  0  0  0  0  0  0  0
  -21.5031   -8.7597   22.1817 C   0  0  0  0  0  0  0  0  0  0  0  0
  -27.1401  -12.5506   20.6036 C   0  0  0  0  0  0  0  0  0  0  0  0
  -29.6143  -12.5044   19.9840 C   0  0  0  0  0  0  0  0  0  0  0  0
  -20.3089  -30.9149   26.8423 C   0  0  0  0  0  0  0  0  0  0  0  0
  -25.6912  -30.2021   21.2387 C   0  0  0  0  0  0  0  0  0  0  0  0
  -21.6317  -30.7184   26.4019 C   0  0  0  0  0  0  0  0  0  0  0  0
  -25.1814  -29.1202   20.5069 C   0  0  0  0  0  0  0  0  0  0  0  0
  -30.4723  -21.7643   19.8432 C   0  0  0  0  0  0  0  0  0  0  0  0
  -31.1747  -22.7368   20.5549 C   0  0  0  0  0  0  0  0  0  0  0  0
  -30.8802  -20.1732   21.6149 C   0  0  0  0  0  0  0  0  0  0  0  0
  -24.4764  -11.7646   20.3400 C   0  0  0  0  0  0  0  0  0  0  0  0
  -27.4377  -28.2570   20.2349 C   0  0  0  0  0  0  0  0  0  0  0  0
  -22.8234  -10.1326   20.6954 C   0  0  0  0  0  0  0  0  0  0  0  0
  -22.1125   -7.6157   21.6663 C   0  0  0  0  0  0  0  0  0  0  0  0
  -21.8586  -10.0181   21.6963 C   0  0  0  0  0  0  0  0  0  0  0  0
  -28.5161  -12.9558   20.7402 C   0  0  0  0  0  0  0  0  0  0  0  0
  -30.6894  -13.1867   20.4988 C   0  0  0  0  0  0  0  0  0  0  0  0
  -30.3927  -25.0784   20.3040 C   0  0  0  0  0  0  0  0  0  0  0  0
  -29.6587  -11.5534   18.9119 C   0  0  0  0  0  0  0  0  0  0  0  0
  -23.1573  -29.9091   23.1353 C   0  0  0  0  0  0  0  0  0  0  0  0
  -21.5236  -30.2268   20.3510 C   0  0  0  0  0  0  0  0  0  0  0  0
  -21.5049  -29.9224   16.9519 C   0  0  0  0  0  0  0  0  0  0  0  0
  -31.2206  -18.3995   23.3712 C   0  0  0  0  0  0  0  0  0  0  0  0
  -19.1649  -30.0879   26.3112 C   0  0  0  0  0  0  0  0  0  0  0  0
  -24.7703  -31.2720   21.7581 C   0  0  0  0  0  0  0  0  0  0  0  0
  -23.7069  -28.9671   20.2410 C   0  0  0  0  0  0  0  0  0  0  0  0
  -19.4857  -29.3755   24.9998 C   0  0  0  0  0  0  0  0  0  0  0  0
  -32.5933  -25.5728   18.4324 C   0  0  0  0  0  0  0  0  0  0  0  0
  -32.2532  -15.2029   24.5514 C   0  0  0  0  0  0  0  0  0  0  0  0
  -20.8492  -28.6966   25.0807 C   0  0  0  0  0  0  0  0  0  0  0  0
  -31.8721  -26.7377   19.0754 C   0  0  0  0  0  0  0  0  0  0  0  0
  -31.5167  -14.2229   23.6353 C   0  0  0  0  0  0  0  0  0  0  0  0
  -32.6291  -24.3948   19.3903 C   0  0  0  0  0  0  0  0  0  0  0  0
  -31.4000  -16.4284   24.8738 C   0  0  0  0  0  0  0  0  0  0  0  0
  -30.1179  -16.1500   22.7886 C   0  0  0  0  0  0  0  0  0  0  0  0
  -21.9642  -29.7238   25.3109 C   0  0  1  0  0  0  0  0  0  0  0  0
  -30.4473  -26.3133   19.3985 C   0  0  2  0  0  0  0  0  0  0  0  0
  -23.3330  -30.7907   21.9313 C   0  0  1  0  0  0  0  0  0  0  0  0
  -30.9616  -14.9303   22.3834 C   0  0  2  0  0  0  0  0  0  0  0  0
  -20.0139  -30.2204   14.9556 C   0  0  0  0  0  0  0  0  0  0  0  0
  -20.0675  -27.6396   21.0554 C   0  0  0  0  0  0  0  0  0  0  0  0
  -19.3274  -27.4882   18.6684 C   0  0  0  0  0  0  0  0  0  0  0  0
  -18.6128  -29.4214   20.0736 C   0  0  0  0  0  0  0  0  0  0  0  0
  -23.2950  -31.9639   15.7743 C   0  0  0  0  0  0  0  0  0  0  0  0
  -29.6754  -27.4841   20.0076 C   0  0  0  0  0  0  0  0  0  1  0  0
  -21.0140  -29.2749   19.2959 C   0  0  1  0  0  0  0  0  0  0  0  0
  -21.0503  -30.8717   15.8580 C   0  0  2  0  0  0  0  0  0  0  0  0
  -29.8668  -22.0682   18.5113 C   0  0  0  0  0  0  0  0  0  0  0  0
  -19.7831  -28.4576   19.7798 C   0  0  0  0  0  0  0  0  0  0  0  0
  -28.8617  -13.8553   21.6652 N   0  0  0  0  0  0  0  0  0  0  0  0
  -30.1893  -13.9745   21.4936 N   0  0  0  0  0  0  0  0  0  0  0  0
  -31.3389  -24.0726   20.0228 N   0  0  0  0  0  0  0  0  0  0  0  0
  -22.8464  -30.0359   20.7747 N   0  0  0  0  0  0  0  0  0  0  0  0
  -30.9127  -17.0490   23.6400 N   0  0  0  0  0  0  0  0  0  0  0  0
  -32.0043  -13.1837   20.1931 N   0  0  0  0  0  0  0  0  0  0  0  0
  -29.8659  -10.2030   19.2249 N   0  0  0  0  0  0  0  0  0  0  0  0
  -30.7315  -18.8710   22.1534 N   0  0  0  0  0  0  0  0  0  0  0  0
  -22.2802  -30.4117   24.0774 N   0  0  0  0  0  0  0  0  0  0  0  0
  -20.7657  -30.0804   18.1051 N   0  0  0  0  0  0  0  0  0  0  0  0
  -22.2092  -31.2879   15.0186 N   0  3  0  0  0  0  0  0  0  0  0  0
  -29.5115  -24.9912   21.1632 O   0  0  0  0  0  0  0  0  0  0  0  0
  -29.5350  -11.8932   17.7108 O   0  0  0  0  0  0  0  0  0  0  0  0
  -23.7708  -28.8505   23.2038 O   0  0  0  0  0  0  0  0  0  0  0  0
  -20.7779  -31.1117   20.7781 O   0  0  0  0  0  0  0  0  0  0  0  0
  -22.4215  -29.1183   16.7975 O   0  0  0  0  0  0  0  0  0  0  0  0
  -31.8936  -19.0791   24.1503 O   0  0  0  0  0  0  0  0  0  0  0  0
  -23.1768  -11.3811   20.2119 O   0  0  0  0  0  0  0  0  0  0  0  0
  -28.2831  -27.3074   19.7495 O   0  0  0  0  0  0  0  0  0  1  0  0
  -21.7702   -6.4071   22.1313 F   0  0  0  0  0  0  0  0  0  0  0  0
  -21.2689  -11.1135   22.1946 F   0  0  0  0  0  0  0  0  0  0  0  0
  -29.2157  -21.0061   17.9539 F   0  0  0  0  0  0  0  0  0  0  0  0
  -28.9450  -23.0739   18.5496 F   0  0  0  0  0  0  0  0  0  0  0  0
  -30.7962  -22.4549   17.5911 F   0  0  0  0  0  0  0  0  0  0  0  0
  1  2  1  0  0  0  0
  1  5  2  0  0  0  0
  2  6  2  0  0  0  0
  3 10  2  0  0  0  0
  3 18  1  0  0  0  0
  4 11  1  0  0  0  0
  4 18  2  0  0  0  0
  5 20  1  0  0  0  0
  6 22  1  0  0  0  0
  7 12  2  0  0  0  0
  7 21  1  0  0  0  0
  8  9  2  0  0  0  0
  8 25  1  0  0  0  0
  9 26  1  0  0  0  0
 10 27  1  0  0  0  0
 11 27  2  0  0  0  0
 12 28  1  0  0  0  0
 13 14  2  0  0  0  0
 13 29  1  0  0  0  0
 14 30  1  0  0  0  0
 15 23  1  0  0  0  0
 15 28  2  0  0  0  0
 16 24  1  0  0  0  0
 16 26  2  0  0  0  0
 17 30  2  0  0  0  0
 17 31  1  0  0  0  0
 18 32  1  0  0  0  0
 19 32  1  0  0  0  0
 19 33  2  0  0  0  0
 19 35  1  0  0  0  0
 20 22  2  0  0  0  0
 20 40  1  0  0  0  0
 21 23  2  0  0  0  0
 21 41  1  0  0  0  0
 22 52  1  0  0  0  0
 23 42  1  0  0  0  0
 24 25  2  0  0  0  0
 24 64  1  0  0  0  0
 25 68  1  0  0  0  0
 26 73  1  0  0  0  0
 27 83  1  0  0  0  0
 28 84  1  0  0  0  0
 29 31  2  0  0  0  0
 29 83  1  0  0  0  0
 30 85  1  0  0  0  0
 31 86  1  0  0  0  0
 32 66  2  0  0  0  0
 33 67  1  0  0  0  0
 33 71  1  0  0  0  0
 34 53  1  0  0  0  0
 34 68  1  0  0  0  0
 34 77  2  0  0  0  0
 35 72  1  0  0  0  0
 35 78  2  0  0  0  0
 36 54  1  0  0  0  0
 36 74  1  0  0  0  0
 36 79  2  0  0  0  0
 37 62  1  0  0  0  0
 37 69  1  0  0  0  0
 37 80  2  0  0  0  0
 38 63  1  0  0  0  0
 38 75  1  0  0  0  0
 38 81  2  0  0  0  0
 39 70  1  0  0  0  0
 39 73  1  0  0  0  0
 39 82  2  0  0  0  0
 40 43  1  0  0  0  0
 41 54  1  0  0  0  0
 42 69  1  0  0  0  0
 43 46  1  0  0  0  0
 44 47  1  0  0  0  0
 44 49  1  0  0  0  0
 45 48  1  0  0  0  0
 45 50  1  0  0  0  0
 46 52  1  0  0  0  0
 47 53  1  0  0  0  0
 48 55  1  0  0  0  0
 49 68  1  0  0  0  0
 50 70  1  0  0  0  0
 51 55  1  0  0  0  0
 51 70  1  0  0  0  0
 52 74  1  0  0  0  0
 53 61  1  0  0  0  0
 54 69  1  0  0  0  0
 55 67  1  0  0  0  0
 56 63  1  0  0  0  0
 57 65  1  0  0  0  0
 58 65  1  0  0  0  0
 59 65  1  0  0  0  0
 60 76  1  0  0  0  0
 61 84  1  0  0  0  0
 62 65  1  0  0  0  0
 62 75  1  0  0  0  0
 63 76  1  0  0  0  0
 64 87  1  0  0  0  0
 64 88  1  0  0  0  0
 64 89  1  0  0  0  0
 66 67  1  0  0  0  0
M  CHG  1  76   1
M  ISO  4  39 100  61 101  73 100  84 101
M  END
> <Batch ID>
0024

> <Smiles>
CNC(C)C(=O)NC(C(=O)N1Cc2cc([101O:1][101CH2:1]C3CCCN(c4ccc([100NH:0][100C:0](=O)N5CCCC(n6nc(-c7ccc(Oc8ccc(F)cc8F)cc7)c(C(N)=O)c6N)C5)cc4C(F)(F)F)C3=O)ccc2CC1C(=O)NC1CCCc2ccccc21)C(C)(C)C

> <Shape>
0.280

> <Color>
0.074

> <Negative vol penalty>
0.000

$$$$

  -OEChem-04042321203D

 83 91  0     1  0  0  0  0  0999 V2000
  -21.5013  -12.1575   19.6438 C   0  0  0  0  0  0  0  0  0  0  0  0
  -21.4007  -13.4536   20.1394 C   0  0  0  0  0  0  0  0  0  0  0  0
  -29.7694  -27.9335   19.7947 C   0  0  0  0  0  0  0  0  0  0  0  0
  -28.7651  -27.1821   21.8596 C   0  0  0  0  0  0  0  0  0  0  0  0
  -22.7271  -11.4938   19.6748 C   0  0  0  0  0  0  0  0  0  0  0  0
  -22.5256  -14.0862   20.6674 C   0  0  0  0  0  0  0  0  0  0  0  0
  -23.8956  -20.0457   20.3302 C   0  0  0  0  0  0  0  0  0  0  0  0
  -30.7404  -28.6253   20.5187 C   0  0  0  0  0  0  0  0  0  0  0  0
  -29.7361  -27.8739   22.5836 C   0  0  0  0  0  0  0  0  0  0  0  0
  -23.7329  -21.0979   21.2303 C   0  0  0  0  0  0  0  0  0  0  0  0
  -33.6968  -30.2936   21.8192 C   0  0  0  0  0  0  0  0  0  0  0  0
  -35.0221  -30.1801   21.3996 C   0  0  0  0  0  0  0  0  0  0  0  0
  -26.0079  -20.8033   21.9766 C   0  0  0  0  0  0  0  0  0  0  0  0
  -19.3427  -27.9432   21.2822 C   0  0  0  0  0  0  0  0  0  0  0  0
  -19.7873  -26.6930   23.7362 C   0  0  0  0  0  0  0  0  0  0  0  0
  -34.9285  -27.7914   21.7497 C   0  0  0  0  0  0  0  0  0  0  0  0
  -28.7817  -27.2119   20.4652 C   0  0  0  0  0  0  0  0  0  0  0  0
  -27.8425  -25.1662   19.2650 C   0  0  0  0  0  0  0  0  0  0  0  0
  -23.8697  -12.1222   20.1946 C   0  0  0  0  0  0  0  0  0  0  0  0
  -25.1143  -19.3561   20.2541 C   0  0  0  0  0  0  0  0  0  0  0  0
  -23.7674  -13.4298   20.7066 C   0  0  0  0  0  0  0  0  0  0  0  0
  -26.1843  -19.7443   21.0729 C   0  0  0  0  0  0  0  0  0  0  0  0
  -20.4593  -27.1256   21.4562 C   0  0  0  0  0  0  0  0  0  0  0  0
  -20.6816  -26.5005   22.6831 C   0  0  0  0  0  0  0  0  0  0  0  0
  -30.7238  -28.5955   21.9131 C   0  0  0  0  0  0  0  0  0  0  0  0
  -24.7882  -21.4750   22.0557 C   0  0  0  0  0  0  0  0  0  0  0  0
  -32.9873  -29.1560   22.2042 C   0  0  0  0  0  0  0  0  0  0  0  0
  -35.6380  -28.9291   21.3648 C   0  0  0  0  0  0  0  0  0  0  0  0
  -33.6031  -27.9050   22.1694 C   0  0  0  0  0  0  0  0  0  0  0  0
  -18.4484  -28.1358   22.3352 C   0  0  0  0  0  0  0  0  0  0  0  0
  -18.6707  -27.5107   23.5622 C   0  0  0  0  0  0  0  0  0  0  0  0
  -27.7780  -26.4975   19.7179 C   0  0  0  0  0  0  0  0  0  0  0  0
  -26.6499  -24.9670   18.6135 C   0  0  0  0  0  0  0  0  0  0  0  0
  -28.8870  -24.1962   19.4195 C   0  0  0  0  0  0  0  0  0  0  0  0
  -26.0272  -16.3528   20.7547 C   0  0  0  0  0  0  0  0  0  0  0  0
  -28.8653  -17.4370   19.6179 C   0  0  0  0  0  0  0  0  0  0  0  0
  -30.9527  -20.0841   19.0869 C   0  0  0  0  0  0  0  0  0  0  0  0
  -21.2607  -27.5022   19.0977 C   0  0  0  0  0  0  0  0  0  0  0  0
  -25.1624  -11.3473   20.2503 C   0  0  0  0  0  0  0  0  0  0  0  0
  -25.2822  -18.2407   19.2591 C   0  0  0  0  0  0  0  0  0  0  0  0
  -27.5193  -19.0495   21.0157 C   0  0  0  0  0  0  0  0  0  0  0  0
  -26.3893  -12.2252   20.4833 C   0  0  0  0  0  0  0  0  0  0  0  0
  -23.2779  -27.3310   16.1688 C   0  0  0  0  0  0  0  0  0  0  0  0
  -26.1294  -13.2167   21.6130 C   0  0  0  0  0  0  0  0  0  0  0  0
  -24.6654  -26.9707   16.7048 C   0  0  0  0  0  0  0  0  0  0  0  0
  -22.5346  -28.2773   17.1099 C   0  0  0  0  0  0  0  0  0  0  0  0
  -23.8318  -27.4626   19.0393 C   0  0  0  0  0  0  0  0  0  0  0  0
  -24.9706  -14.1587   21.2647 C   0  0  1  0  0  0  0  0  0  0  0  0
  -26.4030  -17.2740   19.6287 C   0  0  1  0  0  0  0  0  0  0  0  0
  -24.5933  -26.4598   18.1572 C   0  0  2  0  0  0  0  0  0  0  0  0
  -32.9608  -21.3345   18.2491 C   0  0  0  0  0  0  0  0  0  0  0  0
  -30.1603  -16.3265   22.1477 C   0  0  0  0  0  0  0  0  0  0  0  0
  -32.1762  -17.7237   21.6453 C   0  0  0  0  0  0  0  0  0  0  0  0
  -31.4677  -15.9409   20.0509 C   0  0  0  0  0  0  0  0  0  0  0  0
  -29.6548  -20.6609   16.4904 C   0  0  0  0  0  0  0  0  0  0  0  0
  -23.3852  -24.2395   24.0234 C   0  0  0  0  0  0  0  0  0  0  0  0
  -22.0722  -25.0071   24.1190 C   0  0  0  0  0  0  0  0  0  0  0  0
  -23.3600  -23.1477   22.9602 C   0  0  0  0  0  0  0  0  0  1  0  0
  -30.0966  -18.0572   20.2328 C   0  0  1  0  0  0  0  0  0  0  0  0
  -31.7374  -20.5182   17.8620 C   0  0  2  0  0  0  0  0  0  0  0  0
  -30.9495  -17.0241   21.0219 C   0  0  0  0  0  0  0  0  0  0  0  0
  -26.6350  -27.1016   19.3823 N   0  0  0  0  0  0  0  0  0  0  0  0
  -25.9702  -26.1454   18.7116 N   0  0  0  0  0  0  0  0  0  0  0  0
  -27.6320  -17.9608   20.0310 N   0  0  0  0  0  0  0  0  0  0  0  0
  -22.5025  -27.7260   18.4663 N   0  0  0  0  0  0  0  0  0  0  0  0
  -26.1268  -23.9007   17.9719 N   0  0  0  0  0  0  0  0  0  0  0  0
  -30.0450  -24.5666   20.1167 N   0  0  0  0  0  0  0  0  0  0  0  0
  -21.3542  -26.9448   20.3725 N   0  0  0  0  0  0  0  0  0  0  0  0
  -21.7843  -25.6832   22.8772 N   0  0  0  0  0  0  0  0  0  0  0  0
  -25.4125  -15.1850   20.3450 N   0  0  0  0  0  0  0  0  0  0  0  0
  -30.8106  -18.7137   19.1431 N   0  0  0  0  0  0  0  0  0  0  0  0
  -30.8827  -21.3483   16.9667 N   0  3  0  0  0  0  0  0  0  0  0  0
  -28.8029  -23.0405   18.9390 O   0  0  0  0  0  0  0  0  0  0  0  0
  -26.2778  -16.6769   21.9097 O   0  0  0  0  0  0  0  0  0  0  0  0
  -28.9932  -16.5262   18.7958 O   0  0  0  0  0  0  0  0  0  0  0  0
  -30.5133  -20.8807   19.9133 O   0  0  0  0  0  0  0  0  0  0  0  0
  -20.1921  -27.7591   18.5373 O   0  0  0  0  0  0  0  0  0  0  0  0
  -31.6713  -29.2703   22.6199 O   0  0  0  0  0  0  0  0  0  0  0  0
  -24.6319  -22.5013   22.9355 O   0  0  0  0  0  0  0  0  0  1  0  0
  -36.9102  -28.8200   20.9603 F   0  0  0  0  0  0  0  0  0  0  0  0
  -32.9262  -26.8084   22.5369 F   0  0  0  0  0  0  0  0  0  0  0  0
  -17.0849  -29.1623   22.0590 Cl  0  0  0  0  0  0  0  0  0  0  0  0
  -17.5994  -27.7105   24.9042 Cl  0  0  0  0  0  0  0  0  0  0  0  0
  1  2  1  0  0  0  0
  1  5  2  0  0  0  0
  2  6  2  0  0  0  0
  3  8  2  0  0  0  0
  3 17  1  0  0  0  0
  4  9  1  0  0  0  0
  4 17  2  0  0  0  0
  5 19  1  0  0  0  0
  6 21  1  0  0  0  0
  7 10  2  0  0  0  0
  7 20  1  0  0  0  0
  8 25  1  0  0  0  0
  9 25  2  0  0  0  0
 10 26  1  0  0  0  0
 11 12  2  0  0  0  0
 11 27  1  0  0  0  0
 12 28  1  0  0  0  0
 13 22  1  0  0  0  0
 13 26  2  0  0  0  0
 14 23  1  0  0  0  0
 14 30  2  0  0  0  0
 15 24  1  0  0  0  0
 15 31  2  0  0  0  0
 16 28  2  0  0  0  0
 16 29  1  0  0  0  0
 17 32  1  0  0  0  0
 18 32  1  0  0  0  0
 18 33  2  0  0  0  0
 18 34  1  0  0  0  0
 19 21  2  0  0  0  0
 19 39  1  0  0  0  0
 20 22  2  0  0  0  0
 20 40  1  0  0  0  0
 21 48  1  0  0  0  0
 22 41  1  0  0  0  0
 23 24  2  0  0  0  0
 23 68  1  0  0  0  0
 24 69  1  0  0  0  0
 25 78  1  0  0  0  0
 26 79  1  0  0  0  0
 27 29  2  0  0  0  0
 27 78  1  0  0  0  0
 28 80  1  0  0  0  0
 29 81  1  0  0  0  0
 30 31  1  0  0  0  0
 30 82  1  0  0  0  0
 31 83  1  0  0  0  0
 32 62  2  0  0  0  0
 33 63  1  0  0  0  0
 33 66  1  0  0  0  0
 34 67  1  0  0  0  0
 34 73  2  0  0  0  0
 35 49  1  0  0  0  0
 35 70  1  0  0  0  0
 35 74  2  0  0  0  0
 36 59  1  0  0  0  0
 36 64  1  0  0  0  0
 36 75  2  0  0  0  0
 37 60  1  0  0  0  0
 37 71  1  0  0  0  0
 37 76  2  0  0  0  0
 38 65  1  0  0  0  0
 38 68  1  0  0  0  0
 38 77  2  0  0  0  0
 39 42  1  0  0  0  0
 40 49  1  0  0  0  0
 41 64  1  0  0  0  0
 42 44  1  0  0  0  0
 43 45  1  0  0  0  0
 43 46  1  0  0  0  0
 44 48  1  0  0  0  0
 45 50  1  0  0  0  0
 46 65  1  0  0  0  0
 47 50  1  0  0  0  0
 47 65  1  0  0  0  0
 48 70  1  0  0  0  0
 49 64  1  0  0  0  0
 50 63  1  0  0  0  0
 51 60  1  0  0  0  0
 52 61  1  0  0  0  0
 53 61  1  0  0  0  0
 54 61  1  0  0  0  0
 55 72  1  0  0  0  0
 56 57  1  0  0  0  0
 56 58  1  0  0  0  0
 57 69  1  0  0  0  0
 58 79  1  0  0  0  0
 59 61  1  0  0  0  0
 59 71  1  0  0  0  0
 60 72  1  0  0  0  0
 62 63  1  0  0  0  0
M  CHG  1  72   1
M  ISO  4  38 100  58 101  68 100  79 101
M  END
> <Batch ID>
0024

> <Smiles>
CNC(C)C(=O)NC(C(=O)N1Cc2cc([101O:1][101CH2:1]CCNc3cc(Cl)c(Cl)cc3[100NH:0][100C:0](=O)N3CCCC(n4nc(-c5ccc(Oc6ccc(F)cc6F)cc5)c(C(N)=O)c4N)C3)ccc2CC1C(=O)NC1CCCc2ccccc21)C(C)(C)C

> <Shape>
0.199

> <Color>
0.079

> <Negative vol penalty>
0.000

$$$$

  -OEChem-04042321203D

 86 94  0     1  0  0  0  0  0999 V2000
  -22.6825  -24.9409   13.8918 C   0  0  0  0  0  0  0  0  0  0  0  0
  -22.7739  -23.5534   13.8482 C   0  0  0  0  0  0  0  0  0  0  0  0
  -28.3376  -14.2237   22.7431 C   0  0  0  0  0  0  0  0  0  0  0  0
  -28.2511  -26.2722   17.8540 C   0  0  0  0  0  0  0  0  0  0  0  0
  -27.1644  -25.4337   19.8422 C   0  0  0  0  0  0  0  0  0  0  0  0
  -22.7033  -25.6015   15.1195 C   0  0  0  0  0  0  0  0  0  0  0  0
  -22.8873  -22.8258   15.0323 C   0  0  0  0  0  0  0  0  0  0  0  0
  -21.0166  -16.5456   17.9265 C   0  0  0  0  0  0  0  0  0  0  0  0
  -27.1015  -13.7514   22.3019 C   0  0  0  0  0  0  0  0  0  0  0  0
  -27.3579  -27.3429   17.8173 C   0  0  0  0  0  0  0  0  0  0  0  0
  -26.2711  -26.5044   19.8055 C   0  0  0  0  0  0  0  0  0  0  0  0
  -21.5777  -15.4566   18.5920 C   0  0  0  0  0  0  0  0  0  0  0  0
  -26.2731  -29.7777   20.6456 C   0  0  0  0  0  0  0  0  0  0  0  0
  -26.0107  -30.4422   21.8436 C   0  0  0  0  0  0  0  0  0  0  0  0
  -29.3432  -14.5131   21.8208 C   0  0  0  0  0  0  0  0  0  0  0  0
  -21.5235  -16.6993   20.6589 C   0  0  0  0  0  0  0  0  0  0  0  0
  -23.6699  -29.8785   21.6435 C   0  0  0  0  0  0  0  0  0  0  0  0
  -28.1544  -25.3176   18.8664 C   0  0  0  0  0  0  0  0  0  0  0  0
  -30.3194  -24.1626   19.5638 C   0  0  0  0  0  0  0  0  0  0  0  0
  -22.8073  -24.8809   16.3197 C   0  0  0  0  0  0  0  0  0  0  0  0
  -20.7142  -17.7256   18.6213 C   0  0  0  0  0  0  0  0  0  0  0  0
  -22.9109  -23.4774   16.2771 C   0  0  0  0  0  0  0  0  0  0  0  0
  -20.9562  -17.8010   20.0004 C   0  0  0  0  0  0  0  0  0  0  0  0
  -26.8711  -13.5683   20.9385 C   0  0  0  0  0  0  0  0  0  0  0  0
  -26.3679  -27.4590   18.7930 C   0  0  0  0  0  0  0  0  0  0  0  0
  -21.8340  -15.5343   19.9578 C   0  0  0  0  0  0  0  0  0  0  0  0
  -25.2339  -29.1637   19.9464 C   0  0  0  0  0  0  0  0  0  0  0  0
  -24.7091  -30.4925   22.3425 C   0  0  0  0  0  0  0  0  0  0  0  0
  -23.9323  -29.2140   20.4454 C   0  0  0  0  0  0  0  0  0  0  0  0
  -29.1128  -14.3301   20.4573 C   0  0  0  0  0  0  0  0  0  0  0  0
  -27.8767  -13.8577   20.0161 C   0  0  0  0  0  0  0  0  0  0  0  0
  -29.0765  -24.2111   18.9046 C   0  0  0  0  0  0  0  0  0  0  0  0
  -30.8007  -22.9042   19.2971 C   0  0  0  0  0  0  0  0  0  0  0  0
  -30.9799  -25.1655   20.3472 C   0  0  0  0  0  0  0  0  0  0  0  0
  -21.6907  -20.7454   18.4450 C   0  0  0  0  0  0  0  0  0  0  0  0
  -19.3676  -21.2172   20.6592 C   0  0  0  0  0  0  0  0  0  0  0  0
  -17.4058  -19.9059   23.1247 C   0  0  0  0  0  0  0  0  0  0  0  0
  -29.9018  -17.4558   19.1175 C   0  0  0  0  0  0  0  0  0  0  0  0
  -22.8734  -25.6421   17.6200 C   0  0  0  0  0  0  0  0  0  0  0  0
  -20.0845  -18.8819   17.8941 C   0  0  0  0  0  0  0  0  0  0  0  0
  -20.6312  -19.0377   20.7961 C   0  0  0  0  0  0  0  0  0  0  0  0
  -22.6188  -24.7725   18.8485 C   0  0  0  0  0  0  0  0  0  0  0  0
  -29.2241  -19.3821   16.0525 C   0  0  0  0  0  0  0  0  0  0  0  0
  -23.4239  -23.4797   18.7635 C   0  0  0  0  0  0  0  0  0  0  0  0
  -29.1781  -20.8067   16.5980 C   0  0  0  0  0  0  0  0  0  0  0  0
  -28.6882  -18.3678   17.0611 C   0  0  0  0  0  0  0  0  0  0  0  0
  -29.3209  -19.8593   18.9361 C   0  0  0  0  0  0  0  0  0  0  0  0
  -23.0102  -22.6514   17.5412 C   0  0  1  0  0  0  0  0  0  0  0  0
  -20.2927  -20.2174   18.6015 C   0  0  1  0  0  0  0  0  0  0  0  0
  -29.8949  -20.8930   17.9545 C   0  0  2  0  0  0  0  0  0  0  0  0
  -15.6297  -20.5453   24.7782 C   0  0  0  0  0  0  0  0  0  0  0  0
  -23.6454  -10.9763   19.9163 C   0  0  0  0  0  0  0  0  0  0  0  0
  -21.4809  -22.5513   22.4096 C   0  0  0  0  0  0  0  0  0  0  0  0
  -19.9247  -22.3047   24.3553 C   0  0  0  0  0  0  0  0  0  0  0  0
  -19.2595  -23.7001   22.3975 C   0  0  0  0  0  0  0  0  0  0  0  0
  -15.4550  -18.0273   21.9312 C   0  0  0  0  0  0  0  0  0  0  0  0
  -24.5585  -12.7833   21.4498 C   0  0  0  0  0  0  0  0  0  0  0  0
  -22.6698  -13.3113   19.8323 C   0  0  0  0  0  0  0  0  0  1  0  0
  -19.3050  -21.1828   22.1671 C   0  0  1  0  0  0  0  0  0  0  0  0
  -15.9135  -20.0060   23.3849 C   0  0  2  0  0  0  0  0  0  0  0  0
  -23.3224  -12.2424   20.7177 C   0  0  1  0  0  0  0  0  0  0  0  0
  -20.0005  -22.4120   22.8173 C   0  0  0  0  0  0  0  0  0  0  0  0
  -28.7863  -23.0739   18.2669 N   0  0  0  0  0  0  0  0  0  0  0  0
  -29.8538  -22.2990   18.5242 N   0  0  0  0  0  0  0  0  0  0  0  0
  -20.0225  -20.1439   20.0388 N   0  0  0  0  0  0  0  0  0  0  0  0
  -29.3470  -18.5069   18.3664 N   0  0  0  0  0  0  0  0  0  0  0  0
  -31.9373  -22.2673   19.6506 N   0  0  0  0  0  0  0  0  0  0  0  0
  -30.3450  -26.4029   20.5212 N   0  0  0  0  0  0  0  0  0  0  0  0
  -25.6316  -13.0974   20.5361 N   0  0  0  0  0  0  0  0  0  0  0  0
  -21.7629  -21.9630   17.7958 N   0  0  0  0  0  0  0  0  0  0  0  0
  -17.8950  -21.0413   22.5141 N   0  0  0  0  0  0  0  0  0  0  0  0
  -29.8146  -16.1249   18.5797 N   0  0  0  0  0  0  0  0  0  0  0  0
  -15.2750  -18.6652   23.2607 N   0  3  0  0  0  0  0  0  0  0  0  0
  -32.1072  -24.9759   20.8636 O   0  0  0  0  0  0  0  0  0  0  0  0
  -22.6340  -20.0967   18.8823 O   0  0  0  0  0  0  0  0  0  0  0  0
  -18.8480  -22.1580   20.0537 O   0  0  0  0  0  0  0  0  0  0  0  0
  -18.0715  -18.9207   23.4357 O   0  0  0  0  0  0  0  0  0  0  0  0
  -30.4415  -17.6431   20.2086 O   0  0  0  0  0  0  0  0  0  0  0  0
  -31.5977  -15.0690   20.1278 O   0  0  0  0  0  0  0  0  0  0  0  0
  -30.4888  -13.6371   18.3777 O   0  0  0  0  0  0  0  0  0  0  0  0
  -25.4962  -28.5037   18.7576 O   0  0  0  0  0  0  0  0  0  0  0  0
  -22.3823  -14.4730   20.6096 O   0  0  0  0  0  0  0  0  0  1  0  0
  -24.4575  -31.1293   23.4938 F   0  0  0  0  0  0  0  0  0  0  0  0
  -22.9301  -28.6250   19.7789 F   0  0  0  0  0  0  0  0  0  0  0  0
  -30.4296  -14.7167   19.3440 S   0  0  0  0  0  0  0  0  0  0  0  0
  -27.5810  -13.6270   18.3222 Cl  0  0  0  0  0  0  0  0  0  0  0  0
  1  2  1  0  0  0  0
  1  6  2  0  0  0  0
  2  7  2  0  0  0  0
  3  9  2  0  0  0  0
  3 15  1  0  0  0  0
  4 10  2  0  0  0  0
  4 18  1  0  0  0  0
  5 11  1  0  0  0  0
  5 18  2  0  0  0  0
  6 20  1  0  0  0  0
  7 22  1  0  0  0  0
  8 12  2  0  0  0  0
  8 21  1  0  0  0  0
  9 24  1  0  0  0  0
 10 25  1  0  0  0  0
 11 25  2  0  0  0  0
 12 26  1  0  0  0  0
 13 14  2  0  0  0  0
 13 27  1  0  0  0  0
 14 28  1  0  0  0  0
 15 30  2  0  0  0  0
 16 23  1  0  0  0  0
 16 26  2  0  0  0  0
 17 28  2  0  0  0  0
 17 29  1  0  0  0  0
 18 32  1  0  0  0  0
 19 32  1  0  0  0  0
 19 33  2  0  0  0  0
 19 34  1  0  0  0  0
 20 22  2  0  0  0  0
 20 39  1  0  0  0  0
 21 23  2  0  0  0  0
 21 40  1  0  0  0  0
 22 48  1  0  0  0  0
 23 41  1  0  0  0  0
 24 31  2  0  0  0  0
 24 69  1  0  0  0  0
 25 81  1  0  0  0  0
 26 82  1  0  0  0  0
 27 29  2  0  0  0  0
 27 81  1  0  0  0  0
 28 83  1  0  0  0  0
 29 84  1  0  0  0  0
 30 31  1  0  0  0  0
 30 85  1  0  0  0  0
 31 86  1  0  0  0  0
 32 63  2  0  0  0  0
 33 64  1  0  0  0  0
 33 67  1  0  0  0  0
 34 68  1  0  0  0  0
 34 74  2  0  0  0  0
 35 49  1  0  0  0  0
 35 70  1  0  0  0  0
 35 75  2  0  0  0  0
 36 59  1  0  0  0  0
 36 65  1  0  0  0  0
 36 76  2  0  0  0  0
 37 60  1  0  0  0  0
 37 71  1  0  0  0  0
 37 77  2  0  0  0  0
 38 66  1  0  0  0  0
 38 72  1  0  0  0  0
 38 78  2  0  0  0  0
 39 42  1  0  0  0  0
 40 49  1  0  0  0  0
 41 65  1  0  0  0  0
 42 44  1  0  0  0  0
 43 45  1  0  0  0  0
 43 46  1  0  0  0  0
 44 48  1  0  0  0  0
 45 50  1  0  0  0  0
 46 66  1  0  0  0  0
 47 50  1  0  0  0  0
 47 66  1  0  0  0  0
 48 70  1  0  0  0  0
 49 65  1  0  0  0  0
 50 64  1  0  0  0  0
 51 60  1  0  0  0  0
 52 61  1  0  0  0  0
 53 62  1  0  0  0  0
 54 62  1  0  0  0  0
 55 62  1  0  0  0  0
 56 73  1  0  0  0  0
 57 61  1  0  0  0  0
 57 69  1  0  0  0  0
 58 61  1  0  0  0  0
 58 82  1  0  0  0  0
 59 62  1  0  0  0  0
 59 71  1  0  0  0  0
 60 73  1  0  0  0  0
 63 64  1  0  0  0  0
 72 85  1  0  0  0  0
 79 85  2  0  0  0  0
 80 85  2  0  0  0  0
M  CHG  1  73   1
M  ISO  4  38 100  58 101  72 100  82 101
M  END
> <Batch ID>
0024

> <Smiles>
CNC(C)C(=O)NC(C(=O)N1Cc2cc([101O:1][101CH2:1]C(C)CNc3cccc(S(=O)(=O)[100NH:0][100C:0](=O)N4CCCC(n5nc(-c6ccc(Oc7ccc(F)cc7F)cc6)c(C(N)=O)c5N)C4)c3Cl)ccc2CC1C(=O)NC1CCCc2ccccc21)C(C)(C)C

> <Shape>
0.192

> <Color>
0.080

> <Negative vol penalty>
0.000

$$$$

  -OEChem-04042321203D

 83 92  0     1  0  0  0  0  0999 V2000
  -22.0117  -18.9395   37.3154 C   0  0  0  0  0  0  0  0  0  0  0  0
  -22.7259  -19.7519   36.4406 C   0  0  0  0  0  0  0  0  0  0  0  0
  -32.6905  -17.4472   23.4189 C   0  0  0  0  0  0  0  0  0  0  0  0
  -23.0735   -9.8699   19.9416 C   0  0  0  0  0  0  0  0  0  0  0  0
  -23.8315   -9.8780   22.2356 C   0  0  0  0  0  0  0  0  0  0  0  0
  -21.8180  -17.5923   37.0130 C   0  0  0  0  0  0  0  0  0  0  0  0
  -23.2479  -19.2172   35.2633 C   0  0  0  0  0  0  0  0  0  0  0  0
  -24.6870  -21.0048   28.4773 C   0  0  0  0  0  0  0  0  0  0  0  0
  -31.9256  -18.3298   24.1813 C   0  0  0  0  0  0  0  0  0  0  0  0
  -32.0669  -16.5769   22.5248 C   0  0  0  0  0  0  0  0  0  0  0  0
  -22.3285   -8.7175   20.1918 C   0  0  0  0  0  0  0  0  0  0  0  0
  -23.0864   -8.7257   22.4858 C   0  0  0  0  0  0  0  0  0  0  0  0
  -25.7329  -20.9803   27.5557 C   0  0  0  0  0  0  0  0  0  0  0  0
  -19.9410   -5.9792   20.3204 C   0  0  0  0  0  0  0  0  0  0  0  0
  -18.6356   -5.9319   19.8310 C   0  0  0  0  0  0  0  0  0  0  0  0
  -25.2680  -18.6578   27.0989 C   0  0  0  0  0  0  0  0  0  0  0  0
  -18.0710   -7.8763   21.1493 C   0  0  0  0  0  0  0  0  0  0  0  0
  -23.8251  -10.4501   20.9634 C   0  0  0  0  0  0  0  0  0  0  0  0
  -24.1691  -12.9749   20.8417 C   0  0  0  0  0  0  0  0  0  0  0  0
  -22.3297  -17.0431   35.8267 C   0  0  0  0  0  0  0  0  0  0  0  0
  -23.9295  -19.8510   28.7251 C   0  0  0  0  0  0  0  0  0  0  0  0
  -23.0621  -17.8611   34.9454 C   0  0  0  0  0  0  0  0  0  0  0  0
  -24.2114  -18.6709   28.0223 C   0  0  0  0  0  0  0  0  0  0  0  0
  -30.5370  -18.3421   24.0498 C   0  0  0  0  0  0  0  0  0  0  0  0
  -30.6783  -16.5891   22.3933 C   0  0  0  0  0  0  0  0  0  0  0  0
  -22.3349   -8.1454   21.4639 C   0  0  0  0  0  0  0  0  0  0  0  0
  -26.0253  -19.8059   26.8684 C   0  0  0  0  0  0  0  0  0  0  0  0
  -20.3113   -6.9750   21.2243 C   0  0  0  0  0  0  0  0  0  0  0  0
  -17.7007   -6.8804   20.2454 C   0  0  0  0  0  0  0  0  0  0  0  0
  -19.3763   -7.9235   21.6387 C   0  0  0  0  0  0  0  0  0  0  0  0
  -29.9133  -17.4718   23.1558 C   0  0  0  0  0  0  0  0  0  0  0  0
  -24.5953  -11.6401   20.7054 C   0  0  0  0  0  0  0  0  0  0  0  0
  -25.2621  -13.7232   20.4788 C   0  0  0  0  0  0  0  0  0  0  0  0
  -22.8987  -13.4921   21.2592 C   0  0  0  0  0  0  0  0  0  0  0  0
  -23.3957  -18.0215   31.2690 C   0  0  0  0  0  0  0  0  0  0  0  0
  -21.2863  -16.5564   29.2875 C   0  0  0  0  0  0  0  0  0  0  0  0
  -20.3335  -15.8376   26.0903 C   0  0  0  0  0  0  0  0  0  0  0  0
  -30.7290  -14.7644   20.6572 C   0  0  0  0  0  0  0  0  0  0  0  0
  -22.1353  -15.5704   35.5656 C   0  0  0  0  0  0  0  0  0  0  0  0
  -22.7876  -19.9011   29.7027 C   0  0  0  0  0  0  0  0  0  0  0  0
  -23.4152  -17.4106   28.2370 C   0  0  0  0  0  0  0  0  0  0  0  0
  -22.3999  -15.1685   34.1169 C   0  0  0  0  0  0  0  0  0  0  0  0
  -29.6146  -12.3497   18.2898 C   0  0  0  0  0  0  0  0  0  0  0  0
  -23.6996  -15.7925   33.6187 C   0  0  0  0  0  0  0  0  0  0  0  0
  -28.1743  -12.0596   18.7185 C   0  0  0  0  0  0  0  0  0  0  0  0
  -28.9443  -21.2444   25.6746 C   0  0  0  0  0  0  0  0  0  0  0  0
  -30.5289  -12.5787   19.4921 C   0  0  0  0  0  0  0  0  0  0  0  0
  -29.4724  -20.5845   24.4009 C   0  0  0  0  0  0  0  0  0  0  0  0
  -28.6214  -13.3058   20.8712 C   0  0  0  0  0  0  0  0  0  0  0  0
  -29.2858  -18.9171   26.1489 C   0  0  0  0  0  0  0  0  0  0  0  0
  -23.6227  -17.3237   33.6465 C   0  0  1  0  0  0  0  0  0  0  0  0
  -22.4117  -18.5288   30.2532 C   0  0  1  0  0  0  0  0  0  0  0  0
  -27.6494  -13.1324   19.6927 C   0  0  2  0  0  0  0  0  0  0  0  0
  -28.3477  -20.0833   26.4568 C   0  0  2  0  0  0  0  0  0  1  0  0
  -18.5901  -14.5877   24.7881 C   0  0  0  0  0  0  0  0  0  0  0  0
  -22.6753  -13.9240   29.9594 C   0  0  0  0  0  0  0  0  0  0  0  0
  -21.5547  -12.9044   27.9661 C   0  0  0  0  0  0  0  0  0  0  0  0
  -20.1804  -13.7890   29.8506 C   0  0  0  0  0  0  0  0  0  0  0  0
  -19.3796  -18.3096   24.7718 C   0  0  0  0  0  0  0  0  0  0  0  0
  -21.3585  -15.4095   28.3085 C   0  0  1  0  0  0  0  0  0  0  0  0
  -18.9856  -15.9238   25.3974 C   0  0  2  0  0  0  0  0  0  0  0  0
  -21.4587  -14.0298   29.0183 C   0  0  0  0  0  0  0  0  0  0  0  0
  -25.8605  -11.5429   20.2882 N   0  0  0  0  0  0  0  0  0  0  0  0
  -26.2385  -12.8261   20.1592 N   0  0  0  0  0  0  0  0  0  0  0  0
  -29.8117  -19.2276   24.8191 N   0  0  3  0  0  0  0  0  0  0  0  0
  -22.3127  -17.5083   29.2078 N   0  0  0  0  0  0  0  0  0  0  0  0
  -29.9700  -13.6106   20.3682 N   0  0  0  0  0  0  0  0  0  0  0  0
  -25.4737  -15.0544   20.4049 N   0  0  0  0  0  0  0  0  0  0  0  0
  -21.8857  -12.5840   21.5963 N   0  0  0  0  0  0  0  0  0  0  0  0
  -30.0817  -15.6906   21.4743 N   0  0  0  0  0  0  0  0  0  0  0  0
  -22.8529  -17.8116   32.5222 N   0  0  0  0  0  0  0  0  0  0  0  0
  -20.2007  -15.5478   27.4318 N   0  0  0  0  0  0  0  0  0  0  0  0
  -19.0261  -16.9425   24.3104 N   0  3  0  0  0  0  0  0  0  0  0  0
  -22.6634  -14.7229   21.3154 O   0  0  0  0  0  0  0  0  0  0  0  0
  -24.5610  -17.8329   30.9397 O   0  0  0  0  0  0  0  0  0  0  0  0
  -20.3498  -16.6096   30.0886 O   0  0  0  0  0  0  0  0  0  0  0  0
  -21.3980  -16.0066   25.4997 O   0  0  0  0  0  0  0  0  0  0  0  0
  -31.8586  -14.9319   20.1903 O   0  0  0  0  0  0  0  0  0  0  0  0
  -21.6078   -7.0211   21.7086 O   0  0  0  0  0  0  0  0  0  0  0  0
  -27.0460  -19.7791   25.9688 O   0  0  0  0  0  0  0  0  0  1  0  0
  -16.4476   -6.8358   19.7743 F   0  0  0  0  0  0  0  0  0  0  0  0
  -19.7265   -8.8833   22.5059 F   0  0  0  0  0  0  0  0  0  0  0  0
  -28.1856  -17.4872   22.9930 Cl  0  0  0  0  0  0  0  0  0  0  0  0
  1  2  1  0  0  0  0
  1  6  2  0  0  0  0
  2  7  2  0  0  0  0
  3  9  2  0  0  0  0
  3 10  1  0  0  0  0
  4 11  2  0  0  0  0
  4 18  1  0  0  0  0
  5 12  1  0  0  0  0
  5 18  2  0  0  0  0
  6 20  1  0  0  0  0
  7 22  1  0  0  0  0
  8 13  2  0  0  0  0
  8 21  1  0  0  0  0
  9 24  1  0  0  0  0
 10 25  2  0  0  0  0
 11 26  1  0  0  0  0
 12 26  2  0  0  0  0
 13 27  1  0  0  0  0
 14 15  2  0  0  0  0
 14 28  1  0  0  0  0
 15 29  1  0  0  0  0
 16 23  1  0  0  0  0
 16 27  2  0  0  0  0
 17 29  2  0  0  0  0
 17 30  1  0  0  0  0
 18 32  1  0  0  0  0
 19 32  1  0  0  0  0
 19 33  2  0  0  0  0
 19 34  1  0  0  0  0
 20 22  2  0  0  0  0
 20 39  1  0  0  0  0
 21 23  2  0  0  0  0
 21 40  1  0  0  0  0
 22 51  1  0  0  0  0
 23 41  1  0  0  0  0
 24 31  2  0  0  0  0
 24 65  1  0  0  0  0
 25 31  1  0  0  0  0
 25 70  1  0  0  0  0
 26 79  1  0  0  0  0
 27 80  1  0  0  0  0
 28 30  2  0  0  0  0
 28 79  1  0  0  0  0
 29 81  1  0  0  0  0
 30 82  1  0  0  0  0
 31 83  1  0  0  0  0
 32 63  2  0  0  0  0
 33 64  1  0  0  0  0
 33 68  1  0  0  0  0
 34 69  1  0  0  0  0
 34 74  2  0  0  0  0
 35 52  1  0  0  0  0
 35 71  1  0  0  0  0
 35 75  2  0  0  0  0
 36 60  1  0  0  0  0
 36 66  1  0  0  0  0
 36 76  2  0  0  0  0
 37 61  1  0  0  0  0
 37 72  1  0  0  0  0
 37 77  2  0  0  0  0
 38 67  1  0  0  0  0
 38 70  1  0  0  0  0
 38 78  2  0  0  0  0
 39 42  1  0  0  0  0
 40 52  1  0  0  0  0
 41 66  1  0  0  0  0
 42 44  1  0  0  0  0
 43 45  1  0  0  0  0
 43 47  1  0  0  0  0
 44 51  1  0  0  0  0
 45 53  1  0  0  0  0
 46 48  1  0  0  0  0
 46 54  1  0  0  0  0
 47 67  1  0  0  0  0
 48 65  1  0  0  0  0
 49 53  1  0  0  0  0
 49 67  1  0  0  0  0
 50 54  1  0  0  0  0
 50 65  1  0  0  0  0
 51 71  1  0  0  0  0
 52 66  1  0  0  0  0
 53 64  1  0  0  0  0
 54 80  1  0  0  0  0
 55 61  1  0  0  0  0
 56 62  1  0  0  0  0
 57 62  1  0  0  0  0
 58 62  1  0  0  0  0
 59 73  1  0  0  0  0
 60 62  1  0  0  0  0
 60 72  1  0  0  0  0
 61 73  1  0  0  0  0
 63 64  1  0  0  0  0
M  CHG  1  73   1
M  ISO  4  38 100  54 101  70 100  80 101
M  END
> <Batch ID>
0024

> <Smiles>
CNC(C)C(=O)NC(C(=O)N1Cc2cc([101O:1][101CH:1]3CCN(c4cccc([100NH:0][100C:0](=O)N5CCCC(n6nc(-c7ccc(Oc8ccc(F)cc8F)cc7)c(C(N)=O)c6N)C5)c4Cl)C3)ccc2CC1C(=O)NC1CCCc2ccccc21)C(C)(C)C

> <Shape>
0.148

> <Color>
0.196

> <Negative vol penalty>
0.000

$$$$

  -OEChem-04042321203D

 88 97  0     1  0  0  0  0  0999 V2000
  -18.4886  -27.6123   26.1104 C   0  0  0  0  0  0  0  0  0  0  0  0
  -19.8409  -27.2929   26.1799 C   0  0  0  0  0  0  0  0  0  0  0  0
  -22.6189  -10.3608   20.2615 C   0  0  0  0  0  0  0  0  0  0  0  0
  -24.4683   -9.5969   21.6155 C   0  0  0  0  0  0  0  0  0  0  0  0
  -17.8610  -27.7165   24.8698 C   0  0  0  0  0  0  0  0  0  0  0  0
  -20.5661  -27.0764   25.0087 C   0  0  0  0  0  0  0  0  0  0  0  0
  -27.1310  -27.9236   22.2701 C   0  0  0  0  0  0  0  0  0  0  0  0
  -21.9581   -9.1525   20.4822 C   0  0  0  0  0  0  0  0  0  0  0  0
  -23.8074   -8.3885   21.8363 C   0  0  0  0  0  0  0  0  0  0  0  0
  -28.1274  -27.1992   21.6172 C   0  0  0  0  0  0  0  0  0  0  0  0
  -21.3107   -7.2400   23.8030 C   0  0  0  0  0  0  0  0  0  0  0  0
  -21.2920   -6.7419   25.1058 C   0  0  0  0  0  0  0  0  0  0  0  0
  -26.9567  -27.4841   19.5274 C   0  0  0  0  0  0  0  0  0  0  0  0
  -29.5949  -19.5528   18.2712 C   0  0  0  0  0  0  0  0  0  0  0  0
  -28.8869  -20.4485   20.4004 C   0  0  0  0  0  0  0  0  0  0  0  0
  -22.4302   -4.7460   24.3591 C   0  0  0  0  0  0  0  0  0  0  0  0
  -23.8741  -10.5830   20.8281 C   0  0  0  0  0  0  0  0  0  0  0  0
  -24.1082  -13.1208   20.9405 C   0  0  0  0  0  0  0  0  0  0  0  0
  -18.5811  -27.5106   23.6824 C   0  0  0  0  0  0  0  0  0  0  0  0
  -26.0326  -28.4252   21.5572 C   0  0  0  0  0  0  0  0  0  0  0  0
  -19.9472  -27.1766   23.7511 C   0  0  0  0  0  0  0  0  0  0  0  0
  -25.9490  -28.2167   20.1731 C   0  0  0  0  0  0  0  0  0  0  0  0
  -29.4887  -18.2586   18.7803 C   0  0  0  0  0  0  0  0  0  0  0  0
  -29.0816  -18.0592   20.0994 C   0  0  0  0  0  0  0  0  0  0  0  0
  -29.2941  -20.6478   19.0813 C   0  0  0  0  0  0  0  0  0  0  0  0
  -22.5523   -8.1663   21.2697 C   0  0  0  0  0  0  0  0  0  0  0  0
  -28.0389  -26.9769   20.2462 C   0  0  0  0  0  0  0  0  0  0  0  0
  -21.8891   -6.4910   22.7782 C   0  0  0  0  0  0  0  0  0  0  0  0
  -21.8517   -5.4950   25.3838 C   0  0  0  0  0  0  0  0  0  0  0  0
  -28.7807  -19.1542   20.9095 C   0  0  0  0  0  0  0  0  0  0  0  0
  -22.4489   -5.2440   23.0563 C   0  0  0  0  0  0  0  0  0  0  0  0
  -24.5575  -11.8308   20.5999 C   0  0  0  0  0  0  0  0  0  0  0  0
  -25.1116  -13.9570   20.5158 C   0  0  0  0  0  0  0  0  0  0  0  0
  -29.1350  -23.1727   19.2503 C   0  0  0  0  0  0  0  0  0  0  0  0
  -22.8927  -13.5267   21.5835 C   0  0  0  0  0  0  0  0  0  0  0  0
  -22.8901  -27.9576   21.6578 C   0  0  0  0  0  0  0  0  0  0  0  0
  -22.8562  -30.3551   19.4730 C   0  0  0  0  0  0  0  0  0  0  0  0
  -24.5267  -32.1055   17.0663 C   0  0  0  0  0  0  0  0  0  0  0  0
  -30.7207  -14.8782   20.4353 C   0  0  0  0  0  0  0  0  0  0  0  0
  -17.8485  -27.5877   22.3664 C   0  0  0  0  0  0  0  0  0  0  0  0
  -24.9798  -29.2275   22.2716 C   0  0  0  0  0  0  0  0  0  0  0  0
  -24.8005  -28.7514   19.3585 C   0  0  0  0  0  0  0  0  0  0  0  0
  -18.7752  -27.7113   21.1597 C   0  0  0  0  0  0  0  0  0  0  0  0
  -29.1465  -13.0770   17.6105 C   0  0  0  0  0  0  0  0  0  0  0  0
  -19.9157  -26.7030   21.2570 C   0  0  0  0  0  0  0  0  0  0  0  0
  -27.8056  -12.6413   18.1991 C   0  0  0  0  0  0  0  0  0  0  0  0
  -29.4566  -23.6665   16.9444 C   0  0  0  0  0  0  0  0  0  0  0  0
  -30.2210  -13.2110   18.6853 C   0  0  0  0  0  0  0  0  0  0  0  0
  -29.8745  -22.2348   17.2139 C   0  0  0  0  0  0  0  0  0  0  0  0
  -28.4986  -13.6723   20.3985 C   0  0  0  0  0  0  0  0  0  0  0  0
  -20.7735  -26.9588   22.5021 C   0  0  1  0  0  0  0  0  0  0  0  0
  -29.5223  -24.3118   18.3211 C   0  0  1  0  0  0  0  0  0  0  0  0
  -23.6442  -29.2514   21.5346 C   0  0  1  0  0  0  0  0  0  0  0  0
  -27.3822  -13.5729   19.3481 C   0  0  2  0  0  0  0  0  0  0  0  0
  -29.8155  -17.1016   17.8941 C   0  0  0  0  0  0  0  0  0  0  0  0
  -24.2250  -33.9838   15.4298 C   0  0  0  0  0  0  0  0  0  0  0  0
  -21.2317  -28.5133   17.6622 C   0  0  0  0  0  0  0  0  0  0  0  0
  -21.7741  -30.0325   15.7475 C   0  0  0  0  0  0  0  0  0  0  0  0
  -20.4641  -30.8933   17.6880 C   0  0  0  0  0  0  0  0  0  0  0  0
  -31.2060  -16.9729   21.6419 C   0  0  0  0  0  0  0  0  0  0  0  0
  -26.6736  -33.7044   18.3285 C   0  0  0  0  0  0  0  0  0  0  0  0
  -28.9604  -16.6815   20.6632 C   0  0  0  0  0  0  0  0  0  0  0  0
  -28.6175  -25.5221   18.4560 C   0  0  0  0  0  0  0  0  0  1  0  0
  -22.9339  -30.4305   17.9673 C   0  0  1  0  0  0  0  0  0  0  0  0
  -24.6792  -33.5971   16.8287 C   0  0  2  0  0  0  0  0  0  0  0  0
  -21.6217  -29.9555   17.2816 C   0  0  0  0  0  0  0  0  0  0  0  0
  -25.7530  -11.8417   20.0045 N   0  0  0  0  0  0  0  0  0  0  0  0
  -26.0635  -13.1487   19.9676 N   0  0  0  0  0  0  0  0  0  0  0  0
  -29.4024  -21.9722   18.5606 N   0  0  0  0  0  0  0  0  0  0  0  0
  -23.7931  -29.5243   20.1037 N   0  0  0  0  0  0  0  0  0  0  0  0
  -29.7760  -14.0667   19.7858 N   0  0  0  0  0  0  0  0  0  0  0  0
  -25.2635  -15.2977   20.5614 N   0  0  0  0  0  0  0  0  0  0  0  0
  -22.8744  -13.6166   22.9820 N   0  0  0  0  0  0  0  0  0  0  0  0
  -21.6631  -28.0788   22.2816 N   0  0  0  0  0  0  0  0  0  0  0  0
  -23.3130  -31.8022   17.6463 N   0  0  0  0  0  0  0  0  0  0  0  0
  -30.2620  -16.0919   20.9692 N   0  0  0  0  0  0  0  0  0  0  0  0
  -26.1037  -34.0042   16.9897 N   0  3  0  0  0  0  0  0  0  0  0  0
  -28.7345  -23.3469   20.3921 O   0  0  0  0  0  0  0  0  0  0  0  0
  -21.8489  -13.7858   20.9379 O   0  0  0  0  0  0  0  0  0  0  0  0
  -23.3843  -26.9260   21.2180 O   0  0  0  0  0  0  0  0  0  0  0  0
  -22.0005  -31.0147   20.0682 O   0  0  0  0  0  0  0  0  0  0  0  0
  -25.3956  -31.2906   16.7640 O   0  0  0  0  0  0  0  0  0  0  0  0
  -31.9084  -14.5416   20.5241 O   0  0  0  0  0  0  0  0  0  0  0  0
  -21.9076   -6.9872   21.4855 O   0  0  0  0  0  0  0  0  0  0  0  0
  -29.0097  -26.2697   19.6065 O   0  0  0  0  0  0  0  0  0  1  0  0
  -21.8351   -5.0175   26.6352 F   0  0  0  0  0  0  0  0  0  0  0  0
  -28.3861  -18.9734   22.1778 F   0  0  0  0  0  0  0  0  0  0  0  0
  -23.0071   -4.5204   22.0762 F   0  0  0  0  0  0  0  0  0  0  0  0
  1  2  1  0  0  0  0
  1  5  2  0  0  0  0
  2  6  2  0  0  0  0
  3  8  2  0  0  0  0
  3 17  1  0  0  0  0
  4  9  1  0  0  0  0
  4 17  2  0  0  0  0
  5 19  1  0  0  0  0
  6 21  1  0  0  0  0
  7 10  2  0  0  0  0
  7 20  1  0  0  0  0
  8 26  1  0  0  0  0
  9 26  2  0  0  0  0
 10 27  1  0  0  0  0
 11 12  2  0  0  0  0
 11 28  1  0  0  0  0
 12 29  1  0  0  0  0
 13 22  1  0  0  0  0
 13 27  2  0  0  0  0
 14 23  2  0  0  0  0
 14 25  1  0  0  0  0
 15 25  2  0  0  0  0
 15 30  1  0  0  0  0
 16 29  2  0  0  0  0
 16 31  1  0  0  0  0
 17 32  1  0  0  0  0
 18 32  1  0  0  0  0
 18 33  2  0  0  0  0
 18 35  1  0  0  0  0
 19 21  2  0  0  0  0
 19 40  1  0  0  0  0
 20 22  2  0  0  0  0
 20 41  1  0  0  0  0
 21 51  1  0  0  0  0
 22 42  1  0  0  0  0
 23 24  1  0  0  0  0
 23 55  1  0  0  0  0
 24 30  2  0  0  0  0
 24 62  1  0  0  0  0
 25 69  1  0  0  0  0
 26 84  1  0  0  0  0
 27 85  1  0  0  0  0
 28 31  2  0  0  0  0
 28 84  1  0  0  0  0
 29 86  1  0  0  0  0
 30 87  1  0  0  0  0
 31 88  1  0  0  0  0
 32 67  2  0  0  0  0
 33 68  1  0  0  0  0
 33 72  1  0  0  0  0
 34 52  1  0  0  0  0
 34 69  1  0  0  0  0
 34 78  2  0  0  0  0
 35 73  1  0  0  0  0
 35 79  2  0  0  0  0
 36 53  1  0  0  0  0
 36 74  1  0  0  0  0
 36 80  2  0  0  0  0
 37 64  1  0  0  0  0
 37 70  1  0  0  0  0
 37 81  2  0  0  0  0
 38 65  1  0  0  0  0
 38 75  1  0  0  0  0
 38 82  2  0  0  0  0
 39 71  1  0  0  0  0
 39 76  1  0  0  0  0
 39 83  2  0  0  0  0
 40 43  1  0  0  0  0
 41 53  1  0  0  0  0
 42 70  1  0  0  0  0
 43 45  1  0  0  0  0
 44 46  1  0  0  0  0
 44 48  1  0  0  0  0
 45 51  1  0  0  0  0
 46 54  1  0  0  0  0
 47 49  1  0  0  0  0
 47 52  1  0  0  0  0
 48 71  1  0  0  0  0
 49 69  1  0  0  0  0
 50 54  1  0  0  0  0
 50 71  1  0  0  0  0
 51 74  1  0  0  0  0
 52 63  1  0  0  0  0
 53 70  1  0  0  0  0
 54 68  1  0  0  0  0
 56 65  1  0  0  0  0
 57 66  1  0  0  0  0
 58 66  1  0  0  0  0
 59 66  1  0  0  0  0
 60 76  1  0  0  0  0
 61 77  1  0  0  0  0
 62 76  1  0  0  0  0
 63 85  1  0  0  0  0
 64 66  1  0  0  0  0
 64 75  1  0  0  0  0
 65 77  1  0  0  0  0
 67 68  1  0  0  0  0
M  CHG  1  77   1
M  ISO  4  39 100  63 101  76 100  85 101
M  END
> <Batch ID>
0024

> <Smiles>
CNC(C)C(=O)NC(C(=O)N1Cc2cc([101O:1][101CH2:1]C3CCN(c4cc(C)c(C[100N:0](C)[100C:0](=O)N5CCCC(n6nc(-c7ccc(Oc8ccc(F)cc8F)cc7)c(C(N)=O)c6N)C5)c(F)c4)C3=O)ccc2CC1C(=O)NC1CCCc2ccccc21)C(C)(C)C

> <Shape>
0.392

> <Color>
0.210

> <Negative vol penalty>
0.000

$$$$

  -OEChem-04042321203D

 82 90  0     1  0  0  0  0  0999 V2000
  -39.3964  -28.9430   21.8906 C   0  0  0  0  0  0  0  0  0  0  0  0
  -38.3722  -28.2573   22.5358 C   0  0  0  0  0  0  0  0  0  0  0  0
  -23.0070   -9.8885   19.9649 C   0  0  0  0  0  0  0  0  0  0  0  0
  -23.7378   -9.9140   22.2676 C   0  0  0  0  0  0  0  0  0  0  0  0
  -39.2260  -29.3716   20.5748 C   0  0  0  0  0  0  0  0  0  0  0  0
  -37.1765  -28.0006   21.8658 C   0  0  0  0  0  0  0  0  0  0  0  0
  -35.5522  -23.2518   22.5407 C   0  0  0  0  0  0  0  0  0  0  0  0
  -32.6297  -17.4393   23.5072 C   0  0  0  0  0  0  0  0  0  0  0  0
  -32.0404  -16.5521   22.6065 C   0  0  0  0  0  0  0  0  0  0  0  0
  -22.2463   -8.7473   20.2189 C   0  0  0  0  0  0  0  0  0  0  0  0
  -22.9771   -8.7728   22.5216 C   0  0  0  0  0  0  0  0  0  0  0  0
  -34.9279  -22.9586   23.7523 C   0  0  0  0  0  0  0  0  0  0  0  0
  -23.2354   -5.4411   22.0073 C   0  0  0  0  0  0  0  0  0  0  0  0
  -23.8294   -4.4173   22.7451 C   0  0  0  0  0  0  0  0  0  0  0  0
  -32.7744  -23.1502   22.6822 C   0  0  0  0  0  0  0  0  0  0  0  0
  -30.4510  -18.3240   24.0615 C   0  0  0  0  0  0  0  0  0  0  0  0
  -22.1088   -4.6313   24.4275 C   0  0  0  0  0  0  0  0  0  0  0  0
  -23.7528  -10.4719   20.9892 C   0  0  0  0  0  0  0  0  0  0  0  0
  -24.1262  -12.9912   20.8438 C   0  0  0  0  0  0  0  0  0  0  0  0
  -38.0312  -29.1116   19.8852 C   0  0  0  0  0  0  0  0  0  0  0  0
  -34.7907  -23.5076   21.3912 C   0  0  0  0  0  0  0  0  0  0  0  0
  -36.9894  -28.4273   20.5400 C   0  0  0  0  0  0  0  0  0  0  0  0
  -33.3915  -23.4440   21.4566 C   0  0  0  0  0  0  0  0  0  0  0  0
  -31.8350  -18.3252   24.2348 C   0  0  0  0  0  0  0  0  0  0  0  0
  -30.6564  -16.5510   22.4332 C   0  0  0  0  0  0  0  0  0  0  0  0
  -22.2313   -8.1894   21.4972 C   0  0  0  0  0  0  0  0  0  0  0  0
  -33.5387  -22.9106   23.8238 C   0  0  0  0  0  0  0  0  0  0  0  0
  -22.0780   -6.0602   22.4796 C   0  0  0  0  0  0  0  0  0  0  0  0
  -23.2661   -4.0124   23.9552 C   0  0  0  0  0  0  0  0  0  0  0  0
  -29.8616  -17.4369   23.1607 C   0  0  0  0  0  0  0  0  0  0  0  0
  -21.5147   -5.6552   23.6897 C   0  0  0  0  0  0  0  0  0  0  0  0
  -24.5392  -11.6504   20.7273 C   0  0  0  0  0  0  0  0  0  0  0  0
  -25.2318  -13.7234   20.4857 C   0  0  0  0  0  0  0  0  0  0  0  0
  -22.8568  -13.5269   21.2403 C   0  0  0  0  0  0  0  0  0  0  0  0
  -34.4288  -25.9973   19.4485 C   0  0  0  0  0  0  0  0  0  0  0  0
  -32.6381  -23.9044   17.7352 C   0  0  0  0  0  0  0  0  0  0  0  0
  -30.7454  -21.0649   17.6969 C   0  0  0  0  0  0  0  0  0  0  0  0
  -30.7074  -14.7065   20.7181 C   0  0  0  0  0  0  0  0  0  0  0  0
  -37.8754  -29.6360   18.4797 C   0  0  0  0  0  0  0  0  0  0  0  0
  -35.4799  -23.7962   20.0858 C   0  0  0  0  0  0  0  0  0  0  0  0
  -32.5291  -23.6908   20.2468 C   0  0  0  0  0  0  0  0  0  0  0  0
  -36.7195  -28.9958   17.7154 C   0  0  0  0  0  0  0  0  0  0  0  0
  -29.5944  -12.2778   18.3644 C   0  0  0  0  0  0  0  0  0  0  0  0
  -35.4640  -28.9567   18.5808 C   0  0  0  0  0  0  0  0  0  0  0  0
  -28.1460  -12.0084   18.7789 C   0  0  0  0  0  0  0  0  0  0  0  0
  -30.4968  -12.5102   19.5749 C   0  0  0  0  0  0  0  0  0  0  0  0
  -28.5813  -13.2735   20.9229 C   0  0  0  0  0  0  0  0  0  0  0  0
  -35.6871  -28.1081   19.8385 C   0  0  1  0  0  0  0  0  0  0  0  0
  -34.5944  -24.5462   19.0956 C   0  0  1  0  0  0  0  0  0  0  0  0
  -27.6215  -13.0977   19.7349 C   0  0  2  0  0  0  0  0  0  0  0  0
  -29.3819  -19.6270   16.1572 C   0  0  0  0  0  0  0  0  0  0  0  0
  -30.3855  -25.9611   17.8133 C   0  0  0  0  0  0  0  0  0  0  0  0
  -28.8006  -24.1483   17.1275 C   0  0  0  0  0  0  0  0  0  0  0  0
  -30.6694  -24.8079   15.6124 C   0  0  0  0  0  0  0  0  0  0  0  0
  -32.4886  -18.7178   18.1566 C   0  0  0  0  0  0  0  0  0  0  0  0
  -32.6187  -21.0152   26.7581 C   0  0  0  0  0  0  0  0  0  0  0  0
  -31.6773  -20.1554   25.9232 C   0  0  0  0  0  0  0  0  0  0  0  0
  -33.6314  -21.7804   25.9143 C   0  0  0  0  0  0  0  0  0  1  0  0
  -31.1818  -23.5069   17.7188 C   0  0  1  0  0  0  0  0  0  0  0  0
  -30.7531  -19.8616   16.7714 C   0  0  2  0  0  0  0  0  0  0  0  0
  -30.2752  -24.6032   17.0914 C   0  0  0  0  0  0  0  0  0  0  0  0
  -25.8081  -11.5347   20.3264 N   0  0  0  0  0  0  0  0  0  0  0  0
  -26.2019  -12.8121   20.1878 N   0  0  0  0  0  0  0  0  0  0  0  0
  -33.2497  -23.9752   18.9949 N   0  0  0  0  0  0  0  0  0  0  0  0
  -29.9391  -13.5580   20.4328 N   0  0  0  0  0  0  0  0  0  0  0  0
  -25.4590  -15.0513   20.3997 N   0  0  0  0  0  0  0  0  0  0  0  0
  -21.8299  -12.6338   21.5753 N   0  0  0  0  0  0  0  0  0  0  0  0
  -30.0608  -15.6488   21.5171 N   0  0  0  0  0  0  0  0  0  0  0  0
  -32.4207  -19.2063   25.1303 N   0  0  0  0  0  0  0  0  0  0  0  0
  -35.6174  -26.6989   19.5163 N   0  0  0  0  0  0  0  0  0  0  0  0
  -31.1182  -22.2177   17.0388 N   0  0  0  0  0  0  0  0  0  0  0  0
  -31.1490  -18.6351   17.5197 N   0  3  0  0  0  0  0  0  0  0  0  0
  -22.6345  -14.7608   21.2800 O   0  0  0  0  0  0  0  0  0  0  0  0
  -33.3058  -26.4474   19.6433 O   0  0  0  0  0  0  0  0  0  0  0  0
  -33.2136  -24.1364   16.6691 O   0  0  0  0  0  0  0  0  0  0  0  0
  -30.4357  -20.9902   18.8839 O   0  0  0  0  0  0  0  0  0  0  0  0
  -31.8442  -14.8563   20.2630 O   0  0  0  0  0  0  0  0  0  0  0  0
  -21.4890   -7.0760   21.7455 O   0  0  0  0  0  0  0  0  0  0  0  0
  -32.9268  -22.6252   25.0054 O   0  0  0  0  0  0  0  0  0  1  0  0
  -23.8359   -3.0281   24.6629 F   0  0  0  0  0  0  0  0  0  0  0  0
  -28.5304  -17.4447   23.0017 F   0  0  0  0  0  0  0  0  0  0  0  0
  -20.4022   -6.2454   24.1480 F   0  0  0  0  0  0  0  0  0  0  0  0
  1  2  1  0  0  0  0
  1  5  2  0  0  0  0
  2  6  2  0  0  0  0
  3 10  2  0  0  0  0
  3 18  1  0  0  0  0
  4 11  1  0  0  0  0
  4 18  2  0  0  0  0
  5 20  1  0  0  0  0
  6 22  1  0  0  0  0
  7 12  2  0  0  0  0
  7 21  1  0  0  0  0
  8  9  2  0  0  0  0
  8 24  1  0  0  0  0
  9 25  1  0  0  0  0
 10 26  1  0  0  0  0
 11 26  2  0  0  0  0
 12 27  1  0  0  0  0
 13 14  2  0  0  0  0
 13 28  1  0  0  0  0
 14 29  1  0  0  0  0
 15 23  1  0  0  0  0
 15 27  2  0  0  0  0
 16 24  2  0  0  0  0
 16 30  1  0  0  0  0
 17 29  2  0  0  0  0
 17 31  1  0  0  0  0
 18 32  1  0  0  0  0
 19 32  1  0  0  0  0
 19 33  2  0  0  0  0
 19 34  1  0  0  0  0
 20 22  2  0  0  0  0
 20 39  1  0  0  0  0
 21 23  2  0  0  0  0
 21 40  1  0  0  0  0
 22 48  1  0  0  0  0
 23 41  1  0  0  0  0
 24 69  1  0  0  0  0
 25 30  2  0  0  0  0
 25 68  1  0  0  0  0
 26 78  1  0  0  0  0
 27 79  1  0  0  0  0
 28 31  2  0  0  0  0
 28 78  1  0  0  0  0
 29 80  1  0  0  0  0
 30 81  1  0  0  0  0
 31 82  1  0  0  0  0
 32 62  2  0  0  0  0
 33 63  1  0  0  0  0
 33 66  1  0  0  0  0
 34 67  1  0  0  0  0
 34 73  2  0  0  0  0
 35 49  1  0  0  0  0
 35 70  1  0  0  0  0
 35 74  2  0  0  0  0
 36 59  1  0  0  0  0
 36 64  1  0  0  0  0
 36 75  2  0  0  0  0
 37 60  1  0  0  0  0
 37 71  1  0  0  0  0
 37 76  2  0  0  0  0
 38 65  1  0  0  0  0
 38 68  1  0  0  0  0
 38 77  2  0  0  0  0
 39 42  1  0  0  0  0
 40 49  1  0  0  0  0
 41 64  1  0  0  0  0
 42 44  1  0  0  0  0
 43 45  1  0  0  0  0
 43 46  1  0  0  0  0
 44 48  1  0  0  0  0
 45 50  1  0  0  0  0
 46 65  1  0  0  0  0
 47 50  1  0  0  0  0
 47 65  1  0  0  0  0
 48 70  1  0  0  0  0
 49 64  1  0  0  0  0
 50 63  1  0  0  0  0
 51 60  1  0  0  0  0
 52 61  1  0  0  0  0
 53 61  1  0  0  0  0
 54 61  1  0  0  0  0
 55 72  1  0  0  0  0
 56 57  1  0  0  0  0
 56 58  1  0  0  0  0
 57 69  1  0  0  0  0
 58 79  1  0  0  0  0
 59 61  1  0  0  0  0
 59 71  1  0  0  0  0
 60 72  1  0  0  0  0
 62 63  1  0  0  0  0
M  CHG  1  72   1
M  ISO  4  38 100  58 101  68 100  79 101
M  END
> <Batch ID>
0024

> <Smiles>
CNC(C)C(=O)NC(C(=O)N1Cc2cc([101O:1][101CH2:1]CCNc3ccc([100NH:0][100C:0](=O)N4CCCC(n5nc(-c6ccc(Oc7ccc(F)cc7F)cc6)c(C(N)=O)c5N)C4)c(F)c3)ccc2CC1C(=O)NC1CCCc2ccccc21)C(C)(C)C

> <Shape>
0.207

> <Color>
0.204

> <Negative vol penalty>
0.000

$$$$

  -OEChem-04042321203D

 91 99  0     1  0  0  0  0  0999 V2000
  -17.0855  -27.8839   24.4723 C   0  0  0  0  0  0  0  0  0  0  0  0
  -17.8000  -27.0843   23.5860 C   0  0  0  0  0  0  0  0  0  0  0  0
  -24.5892   -8.9606   22.1834 C   0  0  0  0  0  0  0  0  0  0  0  0
  -23.0445  -10.3309   20.9291 C   0  0  0  0  0  0  0  0  0  0  0  0
  -17.3308  -29.2554   24.5250 C   0  0  0  0  0  0  0  0  0  0  0  0
  -18.7593  -27.6559   22.7510 C   0  0  0  0  0  0  0  0  0  0  0  0
  -23.0469  -24.9660   22.5914 C   0  0  0  0  0  0  0  0  0  0  0  0
  -23.7269   -7.8717   22.0557 C   0  0  0  0  0  0  0  0  0  0  0  0
  -22.1822   -9.2419   20.8014 C   0  0  0  0  0  0  0  0  0  0  0  0
  -23.0501  -23.8195   21.7981 C   0  0  0  0  0  0  0  0  0  0  0  0
  -20.8772   -6.7689   23.5004 C   0  0  0  0  0  0  0  0  0  0  0  0
  -20.6354   -5.9979   24.6374 C   0  0  0  0  0  0  0  0  0  0  0  0
  -26.5187  -21.6413   20.5054 C   0  0  0  0  0  0  0  0  0  0  0  0
  -24.1847  -25.0378   20.0523 C   0  0  0  0  0  0  0  0  0  0  0  0
  -26.1207  -20.3850   22.5303 C   0  0  0  0  0  0  0  0  0  0  0  0
  -21.5228   -4.0549   23.5085 C   0  0  0  0  0  0  0  0  0  0  0  0
  -24.2479  -10.1902   21.6201 C   0  0  0  0  0  0  0  0  0  0  0  0
  -26.9196  -20.4722   19.8588 C   0  0  0  0  0  0  0  0  0  0  0  0
  -26.1765  -11.6854   20.8766 C   0  0  0  0  0  0  0  0  0  0  0  0
  -18.3004  -29.8427   23.6971 C   0  0  0  0  0  0  0  0  0  0  0  0
  -23.6038  -26.1620   22.1160 C   0  0  0  0  0  0  0  0  0  0  0  0
  -19.0168  -29.0368   22.7917 C   0  0  0  0  0  0  0  0  0  0  0  0
  -24.1896  -26.1974   20.8425 C   0  0  0  0  0  0  0  0  0  0  0  0
  -26.5215  -19.2158   21.8837 C   0  0  0  0  0  0  0  0  0  0  0  0
  -22.5234   -8.0123   21.3647 C   0  0  0  0  0  0  0  0  0  0  0  0
  -23.6165  -23.8560   20.5273 C   0  0  0  0  0  0  0  0  0  0  0  0
  -21.4417   -6.1829   22.3675 C   0  0  0  0  0  0  0  0  0  0  0  0
  -20.9582   -4.6409   24.6415 C   0  0  0  0  0  0  0  0  0  0  0  0
  -26.1193  -21.5977   21.8412 C   0  0  0  0  0  0  0  0  0  0  0  0
  -21.7646   -4.8259   22.3715 C   0  0  0  0  0  0  0  0  0  0  0  0
  -26.9210  -19.2595   20.5479 C   0  0  0  0  0  0  0  0  0  0  0  0
  -25.1380  -11.3156   21.7521 C   0  0  0  0  0  0  0  0  0  0  0  0
  -26.7171  -12.8141   21.4425 C   0  0  0  0  0  0  0  0  0  0  0  0
  -27.3416  -20.5237   18.4443 C   0  0  0  0  0  0  0  0  0  0  0  0
  -26.6135  -11.0641   19.6606 C   0  0  0  0  0  0  0  0  0  0  0  0
  -22.4812  -29.0728   21.5073 C   0  0  0  0  0  0  0  0  0  0  0  0
  -25.6105  -29.7457   20.9811 C   0  0  0  0  0  0  0  0  0  0  0  0
  -28.7208  -28.6058   20.1604 C   0  0  0  0  0  0  0  0  0  0  0  0
  -26.1541  -17.7714   23.9147 C   0  0  0  0  0  0  0  0  0  0  0  0
  -18.4970  -31.3368   23.7563 C   0  0  0  0  0  0  0  0  0  0  0  0
  -23.6163  -27.3829   22.9944 C   0  0  0  0  0  0  0  0  0  0  0  0
  -24.8185  -27.4510   20.2935 C   0  0  0  0  0  0  0  0  0  0  0  0
  -19.7942  -31.8069   23.1032 C   0  0  0  0  0  0  0  0  0  0  0  0
  -25.9807  -14.8904   25.9997 C   0  0  0  0  0  0  0  0  0  0  0  0
  -19.9801  -31.1393   21.7443 C   0  0  0  0  0  0  0  0  0  0  0  0
  -25.8314  -13.7340   25.0085 C   0  0  0  0  0  0  0  0  0  0  0  0
  -25.2247  -16.1348   25.5374 C   0  0  0  0  0  0  0  0  0  0  0  0
  -25.3913  -15.4263   23.1838 C   0  0  0  0  0  0  0  0  0  0  0  0
  -20.0830  -29.6160   21.8873 C   0  0  1  0  0  0  0  0  0  0  0  0
  -23.7518  -28.6832   22.2083 C   0  0  1  0  0  0  0  0  0  0  0  0
  -26.1889  -14.1713   23.5744 C   0  0  2  0  0  0  0  0  0  0  0  0
  -31.0701  -29.3979   19.7720 C   0  0  0  0  0  0  0  0  0  0  0  0
  -22.3063  -22.3027   17.7772 C   0  0  0  0  0  0  0  0  0  0  0  0
  -24.7868  -30.8452   18.2567 C   0  0  0  0  0  0  0  0  0  0  0  0
  -27.1894  -30.7308   17.5618 C   0  0  0  0  0  0  0  0  0  0  0  0
  -26.5090  -32.2071   19.4540 C   0  0  0  0  0  0  0  0  0  0  0  0
  -28.8318  -20.7551   16.6043 C   0  0  0  0  0  0  0  0  0  0  0  0
  -24.2790  -17.3678   16.2526 C   0  0  0  0  0  0  0  0  0  0  0  0
  -25.3834  -18.9204   14.7890 C   0  0  0  0  0  0  0  0  0  0  0  0
  -29.7708  -26.9421   22.3714 C   0  0  0  0  0  0  0  0  0  0  0  0
  -25.9656  -18.8434   17.1188 C   0  0  0  0  0  0  0  0  0  0  0  0
  -24.8625  -22.3851   17.7244 C   0  0  0  0  0  0  0  0  0  0  0  0
  -26.2336  -20.3206   17.4140 C   0  0  1  0  0  0  0  0  0  0  0  0
  -26.5269  -29.7004   19.7823 C   0  0  1  0  0  0  0  0  0  0  0  0
  -30.0811  -28.8493   20.7887 C   0  0  2  0  0  0  0  0  0  0  0  0
  -23.5763  -22.9297   18.3372 C   0  0  2  0  0  0  0  0  0  1  0  0
  -26.2395  -30.8476   18.7730 C   0  0  0  0  0  0  0  0  0  0  0  0
  -25.0238  -12.1424   22.7950 N   0  0  0  0  0  0  0  0  0  0  0  0
  -28.5469  -20.7277   18.0304 N   0  0  0  0  0  0  0  0  0  0  0  0
  -25.9977  -13.0428   22.5784 N   0  0  0  0  0  0  0  0  0  0  0  0
  -24.8003  -28.6202   21.1880 N   0  0  0  0  0  0  0  0  0  0  0  0
  -25.6176  -16.4921   24.1725 N   0  0  0  0  0  0  0  0  0  0  0  0
  -27.7329  -13.6234   21.0742 N   0  0  0  0  0  0  0  0  0  0  0  0
  -25.9477   -9.9112   19.2226 N   0  0  0  0  0  0  0  0  0  0  0  0
  -26.5216  -17.9855   22.5867 N   0  0  0  0  0  0  0  0  0  0  0  0
  -21.4008  -29.2400   22.3525 N   0  0  0  0  0  0  0  0  0  0  0  0
  -27.8875  -29.6944   20.3085 N   0  0  0  0  0  0  0  0  0  0  0  0
  -24.8863  -18.6948   16.1465 N   0  0  0  0  0  0  0  0  0  0  0  0
  -30.6312  -27.5794   21.3415 N   0  3  0  0  0  0  0  0  0  0  0  0
  -24.9767  -20.9209   17.9377 N   0  3  0  0  0  0  0  0  0  0  0  0
  -27.5768  -11.5084   18.9911 O   0  0  0  0  0  0  0  0  0  0  0  0
  -22.4813  -29.2128   20.2899 O   0  0  0  0  0  0  0  0  0  0  0  0
  -25.6186  -30.7399   21.7112 O   0  0  0  0  0  0  0  0  0  0  0  0
  -28.4281  -27.5564   19.5916 O   0  0  0  0  0  0  0  0  0  0  0  0
  -26.3036  -18.6052   24.8116 O   0  0  0  0  0  0  0  0  0  0  0  0
  -21.6819   -6.9499   21.2398 O   0  0  0  0  0  0  0  0  0  0  0  0
  -23.6203  -22.7385   19.7507 O   0  0  0  0  0  0  0  0  0  1  0  0
  -20.7274   -3.9010   25.7339 F   0  0  0  0  0  0  0  0  0  0  0  0
  -25.7343  -22.7204   22.4621 F   0  0  0  0  0  0  0  0  0  0  0  0
  -22.3083   -4.2576   21.2865 F   0  0  0  0  0  0  0  0  0  0  0  0
  -27.3063  -18.1348   19.9256 F   0  0  0  0  0  0  0  0  0  0  0  0
  1  2  1  0  0  0  0
  1  5  2  0  0  0  0
  2  6  2  0  0  0  0
  3  8  2  0  0  0  0
  3 17  1  0  0  0  0
  4  9  1  0  0  0  0
  4 17  2  0  0  0  0
  5 20  1  0  0  0  0
  6 22  1  0  0  0  0
  7 10  2  0  0  0  0
  7 21  1  0  0  0  0
  8 25  1  0  0  0  0
  9 25  2  0  0  0  0
 10 26  1  0  0  0  0
 11 12  2  0  0  0  0
 11 27  1  0  0  0  0
 12 28  1  0  0  0  0
 13 18  1  0  0  0  0
 13 29  2  0  0  0  0
 14 23  1  0  0  0  0
 14 26  2  0  0  0  0
 15 24  2  0  0  0  0
 15 29  1  0  0  0  0
 16 28  2  0  0  0  0
 16 30  1  0  0  0  0
 17 32  1  0  0  0  0
 18 31  2  0  0  0  0
 18 34  1  0  0  0  0
 19 32  1  0  0  0  0
 19 33  2  0  0  0  0
 19 35  1  0  0  0  0
 20 22  2  0  0  0  0
 20 40  1  0  0  0  0
 21 23  2  0  0  0  0
 21 41  1  0  0  0  0
 22 49  1  0  0  0  0
 23 42  1  0  0  0  0
 24 31  1  0  0  0  0
 24 75  1  0  0  0  0
 25 86  1  0  0  0  0
 26 87  1  0  0  0  0
 27 30  2  0  0  0  0
 27 86  1  0  0  0  0
 28 88  1  0  0  0  0
 29 89  1  0  0  0  0
 30 90  1  0  0  0  0
 31 91  1  0  0  0  0
 32 68  2  0  0  0  0
 33 70  1  0  0  0  0
 33 73  1  0  0  0  0
 34 63  1  0  0  0  0
 34 69  2  0  0  0  0
 35 74  1  0  0  0  0
 35 81  2  0  0  0  0
 36 50  1  0  0  0  0
 36 76  1  0  0  0  0
 36 82  2  0  0  0  0
 37 64  1  0  0  0  0
 37 71  1  0  0  0  0
 37 83  2  0  0  0  0
 38 65  1  0  0  0  0
 38 77  1  0  0  0  0
 38 84  2  0  0  0  0
 39 72  1  0  0  0  0
 39 75  1  0  0  0  0
 39 85  2  0  0  0  0
 40 43  1  0  0  0  0
 41 50  1  0  0  0  0
 42 71  1  0  0  0  0
 43 45  1  0  0  0  0
 44 46  1  0  0  0  0
 44 47  1  0  0  0  0
 45 49  1  0  0  0  0
 46 51  1  0  0  0  0
 47 72  1  0  0  0  0
 48 51  1  0  0  0  0
 48 72  1  0  0  0  0
 49 76  1  0  0  0  0
 50 71  1  0  0  0  0
 51 70  1  0  0  0  0
 52 65  1  0  0  0  0
 53 66  1  0  0  0  0
 54 67  1  0  0  0  0
 55 67  1  0  0  0  0
 56 67  1  0  0  0  0
 57 69  1  0  0  0  0
 58 78  1  0  0  0  0
 59 78  1  0  0  0  0
 60 79  1  0  0  0  0
 61 63  1  0  0  0  0
 61 78  1  0  0  0  0
 62 66  1  0  0  0  0
 62 80  1  0  0  0  0
 63 80  1  0  0  0  0
 64 67  1  0  0  0  0
 64 77  1  0  0  0  0
 65 79  1  0  0  0  0
 66 87  1  0  0  0  0
 68 70  1  0  0  0  0
M  CHG  2  79   1  80   1
M  ISO  4  39 100  66 101  75 100  87 101
M  END
> <Batch ID>
0024

> <Smiles>
CNC(C)C(=O)NC(C(=O)N1Cc2cc([101O:1][101CH:1](C)CN=C(CN(C)C)C(NC)c3cc(F)cc([100NH:0][100C:0](=O)N4CCCC(n5nc(-c6ccc(Oc7ccc(F)cc7F)cc6)c(C(N)=O)c5N)C4)c3F)ccc2CC1C(=O)NC1CCCc2ccccc21)C(C)(C)C

> <Shape>
0.230

> <Color>
0.086

> <Negative vol penalty>
0.000

$$$$

  -OEChem-04042321203D

 85 94  0     1  0  0  0  0  0999 V2000
  -18.5106  -25.0394   21.9209 C   0  0  0  0  0  0  0  0  0  0  0  0
  -19.5811  -25.3220   21.0785 C   0  0  0  0  0  0  0  0  0  0  0  0
  -26.7865  -13.4725   21.3766 C   0  0  0  0  0  0  0  0  0  0  0  0
  -25.4172  -14.8336   19.9242 C   0  0  0  0  0  0  0  0  0  0  0  0
  -17.9190  -26.0619   22.6614 C   0  0  0  0  0  0  0  0  0  0  0  0
  -20.0600  -26.6276   20.9754 C   0  0  0  0  0  0  0  0  0  0  0  0
  -25.1166  -26.8595   21.1216 C   0  0  0  0  0  0  0  0  0  0  0  0
  -29.4975  -25.8115   19.8302 C   0  0  0  0  0  0  0  0  0  0  0  0
  -29.3742  -24.6646   20.6145 C   0  0  0  0  0  0  0  0  0  0  0  0
  -25.8291  -12.4592   21.3296 C   0  0  0  0  0  0  0  0  0  0  0  0
  -24.4598  -13.8203   19.8771 C   0  0  0  0  0  0  0  0  0  0  0  0
  -25.8034  -26.5232   19.9558 C   0  0  0  0  0  0  0  0  0  0  0  0
  -24.0257  -10.8787   18.2711 C   0  0  0  0  0  0  0  0  0  0  0  0
  -23.4856  -10.5569   17.0260 C   0  0  0  0  0  0  0  0  0  0  0  0
  -26.0796  -28.8657   19.4501 C   0  0  0  0  0  0  0  0  0  0  0  0
  -21.2814  -11.1266   17.8348 C   0  0  0  0  0  0  0  0  0  0  0  0
  -26.5805  -14.6598   20.6740 C   0  0  0  0  0  0  0  0  0  0  0  0
  -28.6637  -15.8837   19.8556 C   0  0  0  0  0  0  0  0  0  0  0  0
  -18.3970  -27.3790   22.5747 C   0  0  0  0  0  0  0  0  0  0  0  0
  -24.8963  -28.2036   21.4554 C   0  0  0  0  0  0  0  0  0  0  0  0
  -19.4733  -27.6689   21.7145 C   0  0  0  0  0  0  0  0  0  0  0  0
  -25.3920  -29.2164   20.6219 C   0  0  0  0  0  0  0  0  0  0  0  0
  -30.2531  -24.4614   17.9746 C   0  0  0  0  0  0  0  0  0  0  0  0
  -29.9369  -25.7099   18.5103 C   0  0  0  0  0  0  0  0  0  0  0  0
  -29.6904  -23.4161   20.0788 C   0  0  0  0  0  0  0  0  0  0  0  0
  -24.6658  -12.6330   20.5798 C   0  0  0  0  0  0  0  0  0  0  0  0
  -26.2825  -27.5263   19.1184 C   0  0  0  0  0  0  0  0  0  0  0  0
  -23.1937  -11.3245   19.2981 C   0  0  0  0  0  0  0  0  0  0  0  0
  -22.1135  -10.6808   16.8078 C   0  0  0  0  0  0  0  0  0  0  0  0
  -21.8216  -11.4484   19.0800 C   0  0  0  0  0  0  0  0  0  0  0  0
  -30.1299  -23.3145   18.7588 C   0  0  0  0  0  0  0  0  0  0  0  0
  -27.5688  -15.7071   20.7227 C   0  0  0  0  0  0  0  0  0  0  0  0
  -29.2915  -17.0132   20.3210 C   0  0  0  0  0  0  0  0  0  0  0  0
  -29.0764  -15.0971   18.7302 C   0  0  0  0  0  0  0  0  0  0  0  0
  -22.3200  -30.0197   21.8654 C   0  0  0  0  0  0  0  0  0  0  0  0
  -24.5037  -32.2242   22.8111 C   0  0  0  0  0  0  0  0  0  0  0  0
  -27.7251  -33.3451   22.6976 C   0  0  0  0  0  0  0  0  0  0  0  0
  -29.1265  -22.2398   22.2339 C   0  0  0  0  0  0  0  0  0  0  0  0
  -17.6948  -28.4592   23.3587 C   0  0  0  0  0  0  0  0  0  0  0  0
  -24.1769  -28.5500   22.7301 C   0  0  0  0  0  0  0  0  0  0  0  0
  -25.1995  -30.6747   20.9455 C   0  0  0  0  0  0  0  0  0  0  0  0
  -18.5028  -29.7490   23.4769 C   0  0  0  0  0  0  0  0  0  0  0  0
  -28.6178  -19.6296   24.6015 C   0  0  0  0  0  0  0  0  0  0  0  0
  -30.9434  -28.8216   16.7719 C   0  0  0  0  0  0  0  0  0  0  0  0
  -19.0795  -30.1439   22.1210 C   0  0  0  0  0  0  0  0  0  0  0  0
  -28.3896  -18.3909   23.7321 C   0  0  0  0  0  0  0  0  0  0  0  0
  -29.8548  -28.2611   15.8703 C   0  0  0  0  0  0  0  0  0  0  0  0
  -31.2809  -27.6527   17.6920 C   0  0  0  0  0  0  0  0  0  0  0  0
  -27.9976  -20.8802   23.9809 C   0  0  0  0  0  0  0  0  0  0  0  0
  -28.1673  -19.9085   21.7234 C   0  0  0  0  0  0  0  0  0  0  0  0
  -20.0371  -29.0682   21.5944 C   0  0  1  0  0  0  0  0  0  0  0  0
  -23.5615  -29.9457   22.7085 C   0  0  1  0  0  0  0  0  0  0  0  0
  -28.8301  -18.6358   22.2755 C   0  0  2  0  0  0  0  0  0  0  0  0
  -29.0452  -27.3461   16.7997 C   0  0  2  0  0  0  0  0  0  0  0  0
  -30.7235  -24.3711   16.5548 C   0  0  0  0  0  0  0  0  0  0  0  0
  -29.1988  -35.1927   23.5412 C   0  0  0  0  0  0  0  0  0  0  0  0
  -23.2779  -34.1311   20.7688 C   0  0  0  0  0  0  0  0  0  0  0  0
  -25.3266  -35.5556   20.9729 C   0  0  0  0  0  0  0  0  0  0  0  0
  -23.8643  -35.1852   22.9596 C   0  0  0  0  0  0  0  0  0  0  0  0
  -29.4760  -31.4460   24.1422 C   0  0  0  0  0  0  0  0  0  0  0  0
  -27.9449  -28.1200   17.5246 C   0  0  0  0  0  0  0  0  0  1  0  0
  -25.3137  -33.2926   22.1173 C   0  0  1  0  0  0  0  0  0  0  0  0
  -28.6771  -33.7868   23.7944 C   0  0  2  0  0  0  0  0  0  0  0  0
  -24.4477  -34.5137   21.6973 C   0  0  0  0  0  0  0  0  0  0  0  0
  -27.5021  -16.6489   21.6674 N   0  0  0  0  0  0  0  0  0  0  0  0
  -28.5630  -17.4282   21.3968 N   0  0  0  0  0  0  0  0  0  0  0  0
  -30.0517  -26.8593   17.7512 N   0  0  3  0  0  0  0  0  0  0  0  0
  -24.4844  -30.9625   22.1998 N   0  0  0  0  0  0  0  0  0  0  0  0
  -28.4636  -21.0501   22.6029 N   0  0  0  0  0  0  0  0  0  0  0  0
  -30.3901  -17.6820   19.9108 N   0  0  0  0  0  0  0  0  0  0  0  0
  -28.3178  -13.9690   18.3893 N   0  0  0  0  0  0  0  0  0  0  0  0
  -29.5526  -22.2744   20.9066 N   0  0  0  0  0  0  0  0  0  0  0  0
  -21.3163  -29.1582   22.2651 N   0  0  0  0  0  0  0  0  0  0  0  0
  -26.4129  -33.6213   23.0185 N   0  0  0  0  0  0  0  0  0  0  0  0
  -29.8419  -32.8605   23.8734 N   0  3  0  0  0  0  0  0  0  0  0  0
  -30.0972  -15.3768   18.0570 O   0  0  0  0  0  0  0  0  0  0  0  0
  -22.2754  -30.8017   20.9229 O   0  0  0  0  0  0  0  0  0  0  0  0
  -23.9158  -32.4970   23.8607 O   0  0  0  0  0  0  0  0  0  0  0  0
  -28.1076  -32.8119   21.6584 O   0  0  0  0  0  0  0  0  0  0  0  0
  -29.3272  -23.1488   23.0435 O   0  0  0  0  0  0  0  0  0  0  0  0
  -23.7315  -11.6443   20.5335 O   0  0  0  0  0  0  0  0  0  0  0  0
  -26.9526  -27.2009   17.9796 O   0  0  0  0  0  0  0  0  0  1  0  0
  -21.5952  -10.3732   15.6116 F   0  0  0  0  0  0  0  0  0  0  0  0
  -21.0174  -11.8772   20.0624 F   0  0  0  0  0  0  0  0  0  0  0  0
  -30.5253  -21.7630   18.0916 Cl  0  0  0  0  0  0  0  0  0  0  0  0
  1  2  1  0  0  0  0
  1  5  2  0  0  0  0
  2  6  2  0  0  0  0
  3 10  2  0  0  0  0
  3 17  1  0  0  0  0
  4 11  1  0  0  0  0
  4 17  2  0  0  0  0
  5 19  1  0  0  0  0
  6 21  1  0  0  0  0
  7 12  2  0  0  0  0
  7 20  1  0  0  0  0
  8  9  2  0  0  0  0
  8 24  1  0  0  0  0
  9 25  1  0  0  0  0
 10 26  1  0  0  0  0
 11 26  2  0  0  0  0
 12 27  1  0  0  0  0
 13 14  2  0  0  0  0
 13 28  1  0  0  0  0
 14 29  1  0  0  0  0
 15 22  1  0  0  0  0
 15 27  2  0  0  0  0
 16 29  2  0  0  0  0
 16 30  1  0  0  0  0
 17 32  1  0  0  0  0
 18 32  1  0  0  0  0
 18 33  2  0  0  0  0
 18 34  1  0  0  0  0
 19 21  2  0  0  0  0
 19 39  1  0  0  0  0
 20 22  2  0  0  0  0
 20 40  1  0  0  0  0
 21 51  1  0  0  0  0
 22 41  1  0  0  0  0
 23 24  2  0  0  0  0
 23 31  1  0  0  0  0
 23 55  1  0  0  0  0
 24 67  1  0  0  0  0
 25 31  2  0  0  0  0
 25 72  1  0  0  0  0
 26 81  1  0  0  0  0
 27 82  1  0  0  0  0
 28 30  2  0  0  0  0
 28 81  1  0  0  0  0
 29 83  1  0  0  0  0
 30 84  1  0  0  0  0
 31 85  1  0  0  0  0
 32 65  2  0  0  0  0
 33 66  1  0  0  0  0
 33 70  1  0  0  0  0
 34 71  1  0  0  0  0
 34 76  2  0  0  0  0
 35 52  1  0  0  0  0
 35 73  1  0  0  0  0
 35 77  2  0  0  0  0
 36 62  1  0  0  0  0
 36 68  1  0  0  0  0
 36 78  2  0  0  0  0
 37 63  1  0  0  0  0
 37 74  1  0  0  0  0
 37 79  2  0  0  0  0
 38 69  1  0  0  0  0
 38 72  1  0  0  0  0
 38 80  2  0  0  0  0
 39 42  1  0  0  0  0
 40 52  1  0  0  0  0
 41 68  1  0  0  0  0
 42 45  1  0  0  0  0
 43 46  1  0  0  0  0
 43 49  1  0  0  0  0
 44 47  1  0  0  0  0
 44 48  1  0  0  0  0
 45 51  1  0  0  0  0
 46 53  1  0  0  0  0
 47 54  1  0  0  0  0
 48 67  1  0  0  0  0
 49 69  1  0  0  0  0
 50 53  1  0  0  0  0
 50 69  1  0  0  0  0
 51 73  1  0  0  0  0
 52 68  1  0  0  0  0
 53 66  1  0  0  0  0
 54 61  1  0  0  0  0
 54 67  1  0  0  0  0
 56 63  1  0  0  0  0
 57 64  1  0  0  0  0
 58 64  1  0  0  0  0
 59 64  1  0  0  0  0
 60 75  1  0  0  0  0
 61 82  1  0  0  0  0
 62 64  1  0  0  0  0
 62 74  1  0  0  0  0
 63 75  1  0  0  0  0
 65 66  1  0  0  0  0
M  CHG  1  75   1
M  ISO  4  38 100  61 101  72 100  82 101
M  END
> <Batch ID>
0024

> <Smiles>
CNC(C)C(=O)NC(C(=O)N1Cc2cc([101O:1][101CH2:1]C3CCCN3c3ccc([100NH:0][100C:0](=O)N4CCCC(n5nc(-c6ccc(Oc7ccc(F)cc7F)cc6)c(C(N)=O)c5N)C4)c(Cl)c3C)ccc2CC1C(=O)NC1CCCc2ccccc21)C(C)(C)C

> <Shape>
0.287

> <Color>
0.092

> <Negative vol penalty>
0.000

$$$$

  -OEChem-04042321203D

 84 93  0     1  0  0  0  0  0999 V2000
  -22.7459  -21.5513   13.3806 C   0  0  0  0  0  0  0  0  0  0  0  0
  -22.7407  -20.3086   14.0059 C   0  0  0  0  0  0  0  0  0  0  0  0
  -28.0507  -26.1448   17.7842 C   0  0  0  0  0  0  0  0  0  0  0  0
  -27.3600  -25.5142   20.0118 C   0  0  0  0  0  0  0  0  0  0  0  0
  -23.3292  -22.6472   14.0151 C   0  0  0  0  0  0  0  0  0  0  0  0
  -23.3198  -20.1608   15.2657 C   0  0  0  0  0  0  0  0  0  0  0  0
  -21.4367  -16.4670   19.7729 C   0  0  0  0  0  0  0  0  0  0  0  0
  -28.6009  -11.7155   19.0920 C   0  0  0  0  0  0  0  0  0  0  0  0
  -27.0285  -27.0926   17.7355 C   0  0  0  0  0  0  0  0  0  0  0  0
  -26.3378  -26.4621   19.9632 C   0  0  0  0  0  0  0  0  0  0  0  0
  -21.8598  -15.2061   20.1909 C   0  0  0  0  0  0  0  0  0  0  0  0
  -26.0254  -29.8070   20.3297 C   0  0  0  0  0  0  0  0  0  0  0  0
  -29.6750  -12.2062   18.3496 C   0  0  0  0  0  0  0  0  0  0  0  0
  -25.8420  -30.6182   21.4495 C   0  0  0  0  0  0  0  0  0  0  0  0
  -23.2572  -16.2367   21.8655 C   0  0  0  0  0  0  0  0  0  0  0  0
  -28.7375  -13.6321   20.5566 C   0  0  0  0  0  0  0  0  0  0  0  0
  -23.5894  -29.7782   21.6889 C   0  0  0  0  0  0  0  0  0  0  0  0
  -28.2164  -25.3555   18.9223 C   0  0  0  0  0  0  0  0  0  0  0  0
  -30.5876  -24.5670   19.4353 C   0  0  0  0  0  0  0  0  0  0  0  0
  -23.9073  -22.5149   15.2875 C   0  0  0  0  0  0  0  0  0  0  0  0
  -21.9297  -17.6247   20.3920 C   0  0  0  0  0  0  0  0  0  0  0  0
  -23.9127  -21.2557   15.9172 C   0  0  0  0  0  0  0  0  0  0  0  0
  -22.8368  -17.5111   21.4552 C   0  0  0  0  0  0  0  0  0  0  0  0
  -28.1322  -12.4284   20.1955 C   0  0  0  0  0  0  0  0  0  0  0  0
  -29.8116  -14.1228   19.8142 C   0  0  0  0  0  0  0  0  0  0  0  0
  -26.1721  -27.2513   18.8250 C   0  0  0  0  0  0  0  0  0  0  0  0
  -22.7725  -15.0909   21.2353 C   0  0  0  0  0  0  0  0  0  0  0  0
  -24.9908  -28.9816   19.8894 C   0  0  0  0  0  0  0  0  0  0  0  0
  -24.6240  -30.6038   22.1292 C   0  0  0  0  0  0  0  0  0  0  0  0
  -30.2803  -13.4098   18.7107 C   0  0  0  0  0  0  0  0  0  0  0  0
  -23.7728  -28.9671   20.5691 C   0  0  0  0  0  0  0  0  0  0  0  0
  -29.2717  -24.3759   18.9730 C   0  0  0  0  0  0  0  0  0  0  0  0
  -31.1888  -23.3424   19.2759 C   0  0  0  0  0  0  0  0  0  0  0  0
  -31.2108  -25.7461   19.9617 C   0  0  0  0  0  0  0  0  0  0  0  0
  -23.6190  -20.1384   19.4270 C   0  0  0  0  0  0  0  0  0  0  0  0
  -23.0174  -21.2049   22.4308 C   0  0  0  0  0  0  0  0  0  0  0  0
  -22.2436  -20.4580   25.6697 C   0  0  0  0  0  0  0  0  0  0  0  0
  -29.9664  -17.8052   19.7828 C   0  0  0  0  0  0  0  0  0  0  0  0
  -24.5678  -23.7177   15.9134 C   0  0  0  0  0  0  0  0  0  0  0  0
  -21.4429  -18.9765   19.9471 C   0  0  0  0  0  0  0  0  0  0  0  0
  -23.3807  -18.7222   22.1664 C   0  0  0  0  0  0  0  0  0  0  0  0
  -24.8281  -23.5602   17.4093 C   0  0  0  0  0  0  0  0  0  0  0  0
  -30.2701  -19.3407   16.5198 C   0  0  0  0  0  0  0  0  0  0  0  0
  -25.4519  -22.1993   17.7022 C   0  0  0  0  0  0  0  0  0  0  0  0
  -30.1709  -20.8260   16.8722 C   0  0  0  0  0  0  0  0  0  0  0  0
  -29.3405  -18.5023   17.3922 C   0  0  0  0  0  0  0  0  0  0  0  0
  -29.4483  -20.1607   19.2121 C   0  0  0  0  0  0  0  0  0  0  0  0
  -24.5425  -11.7709   21.2068 C   0  0  0  0  0  0  0  0  0  0  0  0
  -25.2639  -13.4855   20.2570 C   0  0  0  0  0  0  0  0  0  0  0  0
  -24.5090  -21.0609   17.2944 C   0  0  1  0  0  0  0  0  0  0  0  0
  -22.4027  -20.1059   20.3086 C   0  0  1  0  0  0  0  0  0  0  0  0
  -30.3811  -21.0594   18.3800 C   0  0  2  0  0  0  0  0  0  0  0  0
  -23.8515  -13.0380   20.6725 C   0  0  0  0  0  0  0  0  0  1  0  0
  -21.8558  -21.5376   27.9016 C   0  0  0  0  0  0  0  0  0  0  0  0
  -26.0243  -21.6094   22.7548 C   0  0  0  0  0  0  0  0  0  0  0  0
  -25.6668  -21.7619   25.2281 C   0  0  0  0  0  0  0  0  0  0  0  0
  -24.6161  -23.4412   23.7120 C   0  0  0  0  0  0  0  0  0  0  0  0
  -19.4656  -19.4465   25.8063 C   0  0  0  0  0  0  0  0  0  0  0  0
  -30.4578  -15.4096   20.2031 C   0  0  0  0  0  0  0  0  0  0  0  0
  -26.9767  -11.9006   20.9938 C   0  0  0  0  0  0  0  0  0  0  0  0
  -23.7085  -21.0821   23.7673 C   0  0  1  0  0  0  0  0  0  0  0  0
  -21.2104  -21.0388   26.6181 C   0  0  2  0  0  0  0  0  0  0  0  0
  -24.9954  -21.9507   23.8511 C   0  0  0  0  0  0  0  0  0  0  0  0
  -29.0494  -23.1281   18.5514 N   0  0  0  0  0  0  0  0  0  0  0  0
  -30.2338  -22.5241   18.7481 N   0  0  0  0  0  0  0  0  0  0  0  0
  -22.8792  -20.0221   21.6906 N   0  0  0  0  0  0  0  0  0  0  0  0
  -29.6046  -18.7573   18.8153 N   0  0  0  0  0  0  0  0  0  0  0  0
  -32.4359  -22.8964   19.5372 N   0  0  0  0  0  0  0  0  0  0  0  0
  -30.4490  -26.9187   20.0566 N   0  0  0  0  0  0  0  0  0  0  0  0
  -23.4628  -20.8935   18.2803 N   0  0  0  0  0  0  0  0  0  0  0  0
  -22.7049  -21.4020   24.7767 N   0  0  0  0  0  0  0  0  0  0  0  0
  -30.0865  -16.4981   19.3267 N   0  0  0  0  0  0  0  0  0  0  0  0
  -25.6751  -12.0704   20.3115 N   0  3  0  0  0  0  0  0  0  0  0  0
  -20.1950  -20.0073   26.9727 N   0  3  0  0  0  0  0  0  0  0  0  0
  -32.4123  -25.7637   20.3215 O   0  0  0  0  0  0  0  0  0  0  0  0
  -24.6253  -19.5250   19.7630 O   0  0  0  0  0  0  0  0  0  0  0  0
  -22.6087  -22.3082   22.0605 O   0  0  0  0  0  0  0  0  0  0  0  0
  -22.6079  -19.2852   25.7186 O   0  0  0  0  0  0  0  0  0  0  0  0
  -30.1725  -18.0989   20.9653 O   0  0  0  0  0  0  0  0  0  0  0  0
  -25.1747  -28.1763   18.7780 O   0  0  0  0  0  0  0  0  0  0  0  0
  -23.1877  -13.8613   21.6448 O   0  0  0  0  0  0  0  0  0  1  0  0
  -24.4485  -31.3816   23.2055 F   0  0  0  0  0  0  0  0  0  0  0  0
  -31.3128  -13.8726   17.9920 F   0  0  0  0  0  0  0  0  0  0  0  0
  -22.7755  -28.1753   20.1515 F   0  0  0  0  0  0  0  0  0  0  0  0
  1  2  1  0  0  0  0
  1  5  2  0  0  0  0
  2  6  2  0  0  0  0
  3  9  2  0  0  0  0
  3 18  1  0  0  0  0
  4 10  1  0  0  0  0
  4 18  2  0  0  0  0
  5 20  1  0  0  0  0
  6 22  1  0  0  0  0
  7 11  2  0  0  0  0
  7 21  1  0  0  0  0
  8 13  2  0  0  0  0
  8 24  1  0  0  0  0
  9 26  1  0  0  0  0
 10 26  2  0  0  0  0
 11 27  1  0  0  0  0
 12 14  2  0  0  0  0
 12 28  1  0  0  0  0
 13 30  1  0  0  0  0
 14 29  1  0  0  0  0
 15 23  1  0  0  0  0
 15 27  2  0  0  0  0
 16 24  2  0  0  0  0
 16 25  1  0  0  0  0
 17 29  2  0  0  0  0
 17 31  1  0  0  0  0
 18 32  1  0  0  0  0
 19 32  1  0  0  0  0
 19 33  2  0  0  0  0
 19 34  1  0  0  0  0
 20 22  2  0  0  0  0
 20 39  1  0  0  0  0
 21 23  2  0  0  0  0
 21 40  1  0  0  0  0
 22 50  1  0  0  0  0
 23 41  1  0  0  0  0
 24 60  1  0  0  0  0
 25 30  2  0  0  0  0
 25 59  1  0  0  0  0
 26 80  1  0  0  0  0
 27 81  1  0  0  0  0
 28 31  2  0  0  0  0
 28 80  1  0  0  0  0
 29 82  1  0  0  0  0
 30 83  1  0  0  0  0
 31 84  1  0  0  0  0
 32 64  2  0  0  0  0
 33 65  1  0  0  0  0
 33 68  1  0  0  0  0
 34 69  1  0  0  0  0
 34 75  2  0  0  0  0
 35 51  1  0  0  0  0
 35 70  1  0  0  0  0
 35 76  2  0  0  0  0
 36 61  1  0  0  0  0
 36 66  1  0  0  0  0
 36 77  2  0  0  0  0
 37 62  1  0  0  0  0
 37 71  1  0  0  0  0
 37 78  2  0  0  0  0
 38 67  1  0  0  0  0
 38 72  1  0  0  0  0
 38 79  2  0  0  0  0
 39 42  1  0  0  0  0
 40 51  1  0  0  0  0
 41 66  1  0  0  0  0
 42 44  1  0  0  0  0
 43 45  1  0  0  0  0
 43 46  1  0  0  0  0
 44 50  1  0  0  0  0
 45 52  1  0  0  0  0
 46 67  1  0  0  0  0
 47 52  1  0  0  0  0
 47 67  1  0  0  0  0
 48 53  1  0  0  0  0
 48 73  1  0  0  0  0
 49 53  1  0  0  0  0
 49 73  1  0  0  0  0
 50 70  1  0  0  0  0
 51 66  1  0  0  0  0
 52 65  1  0  0  0  0
 53 81  1  0  0  0  0
 54 62  1  0  0  0  0
 55 63  1  0  0  0  0
 56 63  1  0  0  0  0
 57 63  1  0  0  0  0
 58 74  1  0  0  0  0
 59 72  1  0  0  0  0
 60 73  1  0  0  0  0
 61 63  1  0  0  0  0
 61 71  1  0  0  0  0
 62 74  1  0  0  0  0
 64 65  1  0  0  0  0
M  CHG  2  73   1  74   1
M  ISO  4  38 100  53 101  72 100  81 101
M  END
> <Batch ID>
0024

> <Smiles>
CNC(C)C(=O)NC(C(=O)N1Cc2cc([101O:1][101CH:1]3CN(Cc4ccc(F)c(C[100NH:0][100C:0](=O)N5CCCC(n6nc(-c7ccc(Oc8ccc(F)cc8F)cc7)c(C(N)=O)c6N)C5)c4)C3)ccc2CC1C(=O)NC1CCCc2ccccc21)C(C)(C)C

> <Shape>
0.214

> <Color>
0.076

> <Negative vol penalty>
0.000

$$$$

  -OEChem-04042321203D

 85 94  0     1  0  0  0  0  0999 V2000
  -42.6319  -21.2436   27.6431 C   0  0  0  0  0  0  0  0  0  0  0  0
  -41.3253  -21.6024   27.9586 C   0  0  0  0  0  0  0  0  0  0  0  0
  -23.0752   -9.8687   19.9405 C   0  0  0  0  0  0  0  0  0  0  0  0
  -23.8349   -9.8747   22.2339 C   0  0  0  0  0  0  0  0  0  0  0  0
  -42.8732  -20.1280   26.8424 C   0  0  0  0  0  0  0  0  0  0  0  0
  -40.2592  -20.8465   27.4725 C   0  0  0  0  0  0  0  0  0  0  0  0
  -33.6610  -18.7051   29.2599 C   0  0  0  0  0  0  0  0  0  0  0  0
  -22.3309   -8.7157   20.1900 C   0  0  0  0  0  0  0  0  0  0  0  0
  -23.0906   -8.7218   22.4835 C   0  0  0  0  0  0  0  0  0  0  0  0
  -32.3610  -18.6874   28.7564 C   0  0  0  0  0  0  0  0  0  0  0  0
  -19.8621   -7.9250   23.0855 C   0  0  0  0  0  0  0  0  0  0  0  0
  -19.1050   -7.8850   24.2563 C   0  0  0  0  0  0  0  0  0  0  0  0
  -32.9010  -16.7345   27.4473 C   0  0  0  0  0  0  0  0  0  0  0  0
  -31.8950  -18.3430   24.1899 C   0  0  0  0  0  0  0  0  0  0  0  0
  -32.0664  -16.5899   22.5363 C   0  0  0  0  0  0  0  0  0  0  0  0
  -20.3456   -5.9469   24.9924 C   0  0  0  0  0  0  0  0  0  0  0  0
  -23.8273  -10.4482   20.9624 C   0  0  0  0  0  0  0  0  0  0  0  0
  -24.1701  -12.9732   20.8431 C   0  0  0  0  0  0  0  0  0  0  0  0
  -41.8099  -19.3524   26.3542 C   0  0  0  0  0  0  0  0  0  0  0  0
  -34.5954  -17.7425   28.8518 C   0  0  0  0  0  0  0  0  0  0  0  0
  -40.4864  -19.7202   26.6634 C   0  0  0  0  0  0  0  0  0  0  0  0
  -34.2115  -16.7406   27.9490 C   0  0  0  0  0  0  0  0  0  0  0  0
  -29.8994  -17.4649   23.1492 C   0  0  0  0  0  0  0  0  0  0  0  0
  -30.5075  -18.3419   24.0473 C   0  0  0  0  0  0  0  0  0  0  0  0
  -30.6788  -16.5888   22.3937 C   0  0  0  0  0  0  0  0  0  0  0  0
  -22.3386   -8.1423   21.4615 C   0  0  0  0  0  0  0  0  0  0  0  0
  -31.9816  -17.7038   27.8477 C   0  0  0  0  0  0  0  0  0  0  0  0
  -20.8609   -6.9759   22.8680 C   0  0  0  0  0  0  0  0  0  0  0  0
  -19.3468   -6.8960   25.2098 C   0  0  0  0  0  0  0  0  0  0  0  0
  -21.1027   -5.9869   23.8215 C   0  0  0  0  0  0  0  0  0  0  0  0
  -32.6745  -17.4670   23.4344 C   0  0  0  0  0  0  0  0  0  0  0  0
  -24.5968  -11.6388   20.7050 C   0  0  0  0  0  0  0  0  0  0  0  0
  -25.2625  -13.7224   20.4801 C   0  0  0  0  0  0  0  0  0  0  0  0
  -22.8997  -13.4894   21.2620 C   0  0  0  0  0  0  0  0  0  0  0  0
  -37.3833  -17.8274   27.3272 C   0  0  0  0  0  0  0  0  0  0  0  0
  -37.4199  -14.6603   28.0272 C   0  0  0  0  0  0  0  0  0  0  0  0
  -35.6535  -11.8386   28.7788 C   0  0  0  0  0  0  0  0  0  0  0  0
  -30.7291  -14.7660   20.6556 C   0  0  0  0  0  0  0  0  0  0  0  0
  -42.1182  -18.1828   25.4533 C   0  0  0  0  0  0  0  0  0  0  0  0
  -35.9861  -17.7594   29.4246 C   0  0  0  0  0  0  0  0  0  0  0  0
  -35.1711  -15.6724   27.4947 C   0  0  0  0  0  0  0  0  0  0  0  0
  -40.9481  -17.2166   25.2875 C   0  0  0  0  0  0  0  0  0  0  0  0
  -29.6140  -12.3532   18.2866 C   0  0  0  0  0  0  0  0  0  0  0  0
  -28.6046  -21.1673   25.5010 C   0  0  0  0  0  0  0  0  0  0  0  0
  -39.6589  -17.9824   25.0078 C   0  0  0  0  0  0  0  0  0  0  0  0
  -28.1742  -12.0620   18.7159 C   0  0  0  0  0  0  0  0  0  0  0  0
  -27.9833  -19.9529   26.1727 C   0  0  0  0  0  0  0  0  0  0  0  0
  -29.4087  -20.5668   24.3523 C   0  0  0  0  0  0  0  0  0  0  0  0
  -30.5291  -12.5813   19.4883 C   0  0  0  0  0  0  0  0  0  0  0  0
  -28.6223  -13.3061   20.8696 C   0  0  0  0  0  0  0  0  0  0  0  0
  -39.3044  -18.9109   26.1756 C   0  0  1  0  0  0  0  0  0  0  0  0
  -37.0028  -17.0363   28.5467 C   0  0  1  0  0  0  0  0  0  0  0  0
  -27.6495  -13.1335   19.6917 C   0  0  2  0  0  0  0  0  0  0  0  0
  -29.0712  -18.8758   26.0598 C   0  0  2  0  0  0  0  0  0  0  0  0
  -28.4099  -17.4642   22.9957 C   0  0  0  0  0  0  0  0  0  0  0  0
  -35.9566   -9.3943   29.2592 C   0  0  0  0  0  0  0  0  0  0  0  0
  -37.8865  -14.1370   25.0576 C   0  0  0  0  0  0  0  0  0  0  0  0
  -37.2372  -11.7506   25.4474 C   0  0  0  0  0  0  0  0  0  0  0  0
  -39.2381  -12.7003   26.5951 C   0  0  0  0  0  0  0  0  0  0  0  0
  -34.4817  -12.1061   31.4833 C   0  0  0  0  0  0  0  0  0  0  0  0
  -30.0431  -18.9389   27.2373 C   0  0  0  0  0  0  0  0  0  1  0  0
  -36.9287  -13.4081   27.3418 C   0  0  1  0  0  0  0  0  0  0  0  0
  -35.8448  -10.7879   29.8576 C   0  0  2  0  0  0  0  0  0  0  0  0
  -37.8049  -13.0201   26.1174 C   0  0  0  0  0  0  0  0  0  0  0  0
  -25.8617  -11.5426   20.2868 N   0  0  0  0  0  0  0  0  0  0  0  0
  -26.2391  -12.8261   20.1589 N   0  0  0  0  0  0  0  0  0  0  0  0
  -29.7522  -19.2172   24.8048 N   0  0  3  0  0  0  0  0  0  0  0  0
  -36.5212  -15.7352   28.0784 N   0  0  0  0  0  0  0  0  0  0  0  0
  -29.9704  -13.6121   20.3660 N   0  0  0  0  0  0  0  0  0  0  0  0
  -25.4734  -15.0538   20.4075 N   0  0  0  0  0  0  0  0  0  0  0  0
  -21.8875  -12.5805   21.5990 N   0  0  0  0  0  0  0  0  0  0  0  0
  -30.0820  -15.6910   21.4742 N   0  0  0  0  0  0  0  0  0  0  0  0
  -38.7244  -18.1545   27.2646 N   0  0  0  0  0  0  0  0  0  0  0  0
  -36.8554  -12.3797   28.3740 N   0  0  0  0  0  0  0  0  0  0  0  0
  -34.6939  -10.8020   30.8043 N   0  3  0  0  0  0  0  0  0  0  0  0
  -22.6639  -14.7201   21.3197 O   0  0  0  0  0  0  0  0  0  0  0  0
  -36.5240  -18.1182   26.5033 O   0  0  0  0  0  0  0  0  0  0  0  0
  -38.5565  -14.6813   28.5061 O   0  0  0  0  0  0  0  0  0  0  0  0
  -34.5487  -12.1458   28.3366 O   0  0  0  0  0  0  0  0  0  0  0  0
  -31.8583  -14.9344   20.1881 O   0  0  0  0  0  0  0  0  0  0  0  0
  -21.6122   -7.0174   21.7055 O   0  0  0  0  0  0  0  0  0  0  0  0
  -30.7136  -17.6846   27.3543 O   0  0  0  0  0  0  0  0  0  1  0  0
  -18.6207   -6.8587   26.3348 F   0  0  0  0  0  0  0  0  0  0  0  0
  -22.0617   -5.0731   23.6187 F   0  0  0  0  0  0  0  0  0  0  0  0
  -34.3867  -17.4684   23.6092 Cl  0  0  0  0  0  0  0  0  0  0  0  0
  1  2  1  0  0  0  0
  1  5  2  0  0  0  0
  2  6  2  0  0  0  0
  3  8  2  0  0  0  0
  3 17  1  0  0  0  0
  4  9  1  0  0  0  0
  4 17  2  0  0  0  0
  5 19  1  0  0  0  0
  6 21  1  0  0  0  0
  7 10  2  0  0  0  0
  7 20  1  0  0  0  0
  8 26  1  0  0  0  0
  9 26  2  0  0  0  0
 10 27  1  0  0  0  0
 11 12  2  0  0  0  0
 11 28  1  0  0  0  0
 12 29  1  0  0  0  0
 13 22  1  0  0  0  0
 13 27  2  0  0  0  0
 14 24  1  0  0  0  0
 14 31  2  0  0  0  0
 15 25  2  0  0  0  0
 15 31  1  0  0  0  0
 16 29  2  0  0  0  0
 16 30  1  0  0  0  0
 17 32  1  0  0  0  0
 18 32  1  0  0  0  0
 18 33  2  0  0  0  0
 18 34  1  0  0  0  0
 19 21  2  0  0  0  0
 19 39  1  0  0  0  0
 20 22  2  0  0  0  0
 20 40  1  0  0  0  0
 21 51  1  0  0  0  0
 22 41  1  0  0  0  0
 23 24  2  0  0  0  0
 23 25  1  0  0  0  0
 23 55  1  0  0  0  0
 24 67  1  0  0  0  0
 25 72  1  0  0  0  0
 26 81  1  0  0  0  0
 27 82  1  0  0  0  0
 28 30  2  0  0  0  0
 28 81  1  0  0  0  0
 29 83  1  0  0  0  0
 30 84  1  0  0  0  0
 31 85  1  0  0  0  0
 32 65  2  0  0  0  0
 33 66  1  0  0  0  0
 33 70  1  0  0  0  0
 34 71  1  0  0  0  0
 34 76  2  0  0  0  0
 35 52  1  0  0  0  0
 35 73  1  0  0  0  0
 35 77  2  0  0  0  0
 36 62  1  0  0  0  0
 36 68  1  0  0  0  0
 36 78  2  0  0  0  0
 37 63  1  0  0  0  0
 37 74  1  0  0  0  0
 37 79  2  0  0  0  0
 38 69  1  0  0  0  0
 38 72  1  0  0  0  0
 38 80  2  0  0  0  0
 39 42  1  0  0  0  0
 40 52  1  0  0  0  0
 41 68  1  0  0  0  0
 42 45  1  0  0  0  0
 43 46  1  0  0  0  0
 43 49  1  0  0  0  0
 44 47  1  0  0  0  0
 44 48  1  0  0  0  0
 45 51  1  0  0  0  0
 46 53  1  0  0  0  0
 47 54  1  0  0  0  0
 48 67  1  0  0  0  0
 49 69  1  0  0  0  0
 50 53  1  0  0  0  0
 50 69  1  0  0  0  0
 51 73  1  0  0  0  0
 52 68  1  0  0  0  0
 53 66  1  0  0  0  0
 54 61  1  0  0  0  0
 54 67  1  0  0  0  0
 56 63  1  0  0  0  0
 57 64  1  0  0  0  0
 58 64  1  0  0  0  0
 59 64  1  0  0  0  0
 60 75  1  0  0  0  0
 61 82  1  0  0  0  0
 62 64  1  0  0  0  0
 62 74  1  0  0  0  0
 63 75  1  0  0  0  0
 65 66  1  0  0  0  0
M  CHG  1  75   1
M  ISO  4  38 100  61 101  72 100  82 101
M  END
> <Batch ID>
0024

> <Smiles>
CNC(C)C(=O)NC(C(=O)N1Cc2cc([101O:1][101CH2:1]C3CCCN3c3cc(Cl)cc([100NH:0][100C:0](=O)N4CCCC(n5nc(-c6ccc(Oc7ccc(F)cc7F)cc6)c(C(N)=O)c5N)C4)c3C)ccc2CC1C(=O)NC1CCCc2ccccc21)C(C)(C)C

> <Shape>
0.166

> <Color>
0.196

> <Negative vol penalty>
0.000

$$$$

  -OEChem-04042321203D

 90 99  0     1  0  0  0  0  0999 V2000
  -16.9332  -28.6868   24.3956 C   0  0  0  0  0  0  0  0  0  0  0  0
  -17.6494  -27.7458   23.6628 C   0  0  0  0  0  0  0  0  0  0  0  0
  -31.6123  -20.3034   18.7143 C   0  0  0  0  0  0  0  0  0  0  0  0
  -29.2464  -19.9884   18.3400 C   0  0  0  0  0  0  0  0  0  0  0  0
  -17.2240  -30.0435   24.2591 C   0  0  0  0  0  0  0  0  0  0  0  0
  -18.6563  -28.1612   22.7921 C   0  0  0  0  0  0  0  0  0  0  0  0
  -22.8506  -25.3516   23.1910 C   0  0  0  0  0  0  0  0  0  0  0  0
  -26.7829  -11.0831   21.4318 C   0  0  0  0  0  0  0  0  0  0  0  0
  -31.6646  -21.1894   17.6382 C   0  0  0  0  0  0  0  0  0  0  0  0
  -29.2986  -20.8744   17.2639 C   0  0  0  0  0  0  0  0  0  0  0  0
  -22.8412  -24.1022   22.5725 C   0  0  0  0  0  0  0  0  0  0  0  0
  -30.8731  -24.4201   17.0309 C   0  0  0  0  0  0  0  0  0  0  0  0
  -31.5770  -25.6115   17.2058 C   0  0  0  0  0  0  0  0  0  0  0  0
  -25.5849  -10.5506   21.9081 C   0  0  0  0  0  0  0  0  0  0  0  0
  -24.0769  -25.0191   20.7147 C   0  0  0  0  0  0  0  0  0  0  0  0
  -24.3604  -12.3135   20.7990 C   0  0  0  0  0  0  0  0  0  0  0  0
  -33.0524  -25.0061   15.3909 C   0  0  0  0  0  0  0  0  0  0  0  0
  -30.4032  -19.7028   19.0651 C   0  0  0  0  0  0  0  0  0  0  0  0
  -30.0934  -19.1008   21.5246 C   0  0  0  0  0  0  0  0  0  0  0  0
  -18.2415  -30.4750   23.3935 C   0  0  0  0  0  0  0  0  0  0  0  0
  -23.4648  -26.4486   22.5699 C   0  0  0  0  0  0  0  0  0  0  0  0
  -18.9602  -29.5250   22.6429 C   0  0  0  0  0  0  0  0  0  0  0  0
  -24.0950  -26.2809   21.3286 C   0  0  0  0  0  0  0  0  0  0  0  0
  -25.5584  -12.8460   20.3228 C   0  0  0  0  0  0  0  0  0  0  0  0
  -26.7697  -12.2309   20.6392 C   0  0  0  0  0  0  0  0  0  0  0  0
  -30.5078  -21.4749   16.9131 C   0  0  0  0  0  0  0  0  0  0  0  0
  -23.4519  -23.9364   21.3329 C   0  0  0  0  0  0  0  0  0  0  0  0
  -31.2588  -23.5216   16.0360 C   0  0  0  0  0  0  0  0  0  0  0  0
  -32.6666  -25.9045   16.3858 C   0  0  0  0  0  0  0  0  0  0  0  0
  -32.3484  -23.8147   15.2160 C   0  0  0  0  0  0  0  0  0  0  0  0
  -24.3737  -11.1657   21.5917 C   0  0  0  0  0  0  0  0  0  0  0  0
  -30.3487  -18.7871   20.1762 C   0  0  0  0  0  0  0  0  0  0  0  0
  -30.1505  -17.8924   22.1750 C   0  0  0  0  0  0  0  0  0  0  0  0
  -29.8282  -20.3709   22.1347 C   0  0  0  0  0  0  0  0  0  0  0  0
  -22.4659  -29.2715   21.5033 C   0  0  0  0  0  0  0  0  0  0  0  0
  -25.6330  -29.7680   21.0083 C   0  0  0  0  0  0  0  0  0  0  0  0
  -28.7282  -28.4296   20.4834 C   0  0  0  0  0  0  0  0  0  0  0  0
  -29.2772  -12.2546   20.3979 C   0  0  0  0  0  0  0  0  0  0  0  0
  -18.4878  -31.9554   23.2438 C   0  0  0  0  0  0  0  0  0  0  0  0
  -23.4895  -27.7836   23.2624 C   0  0  0  0  0  0  0  0  0  0  0  0
  -24.7857  -27.4220   20.6292 C   0  0  0  0  0  0  0  0  0  0  0  0
  -19.8224  -32.2868   22.5809 C   0  0  0  0  0  0  0  0  0  0  0  0
  -32.2215  -13.5834   21.8954 C   0  0  0  0  0  0  0  0  0  0  0  0
  -20.0316  -31.4232   21.3411 C   0  0  0  0  0  0  0  0  0  0  0  0
  -32.0493  -15.0974   21.7526 C   0  0  0  0  0  0  0  0  0  0  0  0
  -31.6771  -12.8336   20.6808 C   0  0  0  0  0  0  0  0  0  0  0  0
  -30.1198  -14.6746   20.1761 C   0  0  0  0  0  0  0  0  0  0  0  0
  -23.7566  -17.4577   20.0863 C   0  0  0  0  0  0  0  0  0  0  0  0
  -25.8702  -15.8482   21.1728 C   0  0  0  0  0  0  0  0  0  0  0  0
  -20.0764  -29.9347   21.7067 C   0  0  1  0  0  0  0  0  0  0  0  0
  -23.6973  -28.9510   22.3025 C   0  0  1  0  0  0  0  0  0  0  0  0
  -30.5946  -15.4687   21.4040 C   0  0  2  0  0  0  0  0  0  0  0  0
  -25.2017  -16.9761   21.9696 C   0  0  1  0  0  0  0  0  0  0  0  0
  -24.3742  -16.3375   19.2382 C   0  0  2  0  0  0  0  0  0  0  0  0
  -26.2254  -17.5082   22.9824 C   0  0  0  0  0  0  0  0  0  0  0  0
  -23.3227  -15.7607   18.2919 C   0  0  0  0  0  0  0  0  0  0  0  0
  -31.1156  -29.0872   20.0769 C   0  0  0  0  0  0  0  0  0  0  0  0
  -24.9424  -30.4826   18.1235 C   0  0  0  0  0  0  0  0  0  0  0  0
  -27.3620  -30.1974   17.5470 C   0  0  0  0  0  0  0  0  0  0  0  0
  -26.6688  -31.9531   19.1778 C   0  0  0  0  0  0  0  0  0  0  0  0
  -29.6428  -27.0757   22.9510 C   0  0  0  0  0  0  0  0  0  0  0  0
  -25.5149  -14.0813   19.4724 C   0  0  0  0  0  0  0  0  0  0  0  0
  -24.0914  -20.3922   20.8740 C   0  0  0  0  0  0  0  0  0  0  0  0
  -24.0869  -19.1457   21.7531 C   0  0  0  0  0  0  0  0  0  0  0  0
  -23.4243  -21.5705   21.5726 C   0  0  0  0  0  0  0  0  0  1  0  0
  -26.5880  -29.5215   19.8654 C   0  0  1  0  0  0  0  0  0  0  0  0
  -30.0736  -28.7220   21.1227 C   0  0  2  0  0  0  0  0  0  0  0  0
  -26.3757  -30.5174   18.6905 C   0  0  0  0  0  0  0  0  0  0  0  0
  -30.5530  -17.4818   19.9802 N   0  0  0  0  0  0  0  0  0  0  0  0
  -30.4262  -16.9645   21.2141 N   0  0  0  0  0  0  0  0  0  0  0  0
  -24.7774  -28.7091   21.3439 N   0  0  0  0  0  0  0  0  0  0  0  0
  -30.2937  -13.2330   20.4132 N   0  0  0  0  0  0  0  0  0  0  0  0
  -24.7150  -18.0241   21.0490 N   0  0  2  0  0  0  0  0  0  0  0  0
  -29.9915  -17.5436   23.4694 N   0  0  0  0  0  0  0  0  0  0  0  0
  -29.8059  -21.5115   21.3206 N   0  0  0  0  0  0  0  0  0  0  0  0
  -27.9972  -12.7568   20.1654 N   0  0  0  0  0  0  0  0  0  0  0  0
  -21.3635  -29.5918   22.2726 N   0  0  0  0  0  0  0  0  0  0  0  0
  -27.9287  -29.5522   20.4399 N   0  0  0  0  0  0  0  0  0  0  0  0
  -24.8950  -15.2623   20.1768 N   0  3  1  0  0  0  0  0  0  0  0  0
  -30.5598  -27.5305   21.8744 N   0  3  0  0  0  0  0  0  0  0  0  0
  -29.6336  -20.4929   23.3679 O   0  0  0  0  0  0  0  0  0  0  0  0
  -22.5128  -29.2325   20.2794 O   0  0  0  0  0  0  0  0  0  0  0  0
  -25.6506  -30.8574   21.5868 O   0  0  0  0  0  0  0  0  0  0  0  0
  -28.4188  -27.3176   20.0612 O   0  0  0  0  0  0  0  0  0  0  0  0
  -29.5202  -11.0630   20.6047 O   0  0  0  0  0  0  0  0  0  0  0  0
  -30.5584  -22.3396   15.8632 O   0  0  0  0  0  0  0  0  0  0  0  0
  -23.4436  -22.7093   20.7224 O   0  0  0  0  0  0  0  0  0  1  0  0
  -33.3416  -27.0494   16.5528 F   0  0  0  0  0  0  0  0  0  0  0  0
  -32.7230  -22.9560   14.2578 F   0  0  0  0  0  0  0  0  0  0  0  0
  -22.8957  -10.5075   22.1788 Cl  0  0  0  0  0  0  0  0  0  0  0  0
  1  2  1  0  0  0  0
  1  5  2  0  0  0  0
  2  6  2  0  0  0  0
  3  9  2  0  0  0  0
  3 18  1  0  0  0  0
  4 10  1  0  0  0  0
  4 18  2  0  0  0  0
  5 20  1  0  0  0  0
  6 22  1  0  0  0  0
  7 11  2  0  0  0  0
  7 21  1  0  0  0  0
  8 14  2  0  0  0  0
  8 25  1  0  0  0  0
  9 26  1  0  0  0  0
 10 26  2  0  0  0  0
 11 27  1  0  0  0  0
 12 13  2  0  0  0  0
 12 28  1  0  0  0  0
 13 29  1  0  0  0  0
 14 31  1  0  0  0  0
 15 23  1  0  0  0  0
 15 27  2  0  0  0  0
 16 24  1  0  0  0  0
 16 31  2  0  0  0  0
 17 29  2  0  0  0  0
 17 30  1  0  0  0  0
 18 32  1  0  0  0  0
 19 32  1  0  0  0  0
 19 33  2  0  0  0  0
 19 34  1  0  0  0  0
 20 22  2  0  0  0  0
 20 39  1  0  0  0  0
 21 23  2  0  0  0  0
 21 40  1  0  0  0  0
 22 50  1  0  0  0  0
 23 41  1  0  0  0  0
 24 25  2  0  0  0  0
 24 62  1  0  0  0  0
 25 76  1  0  0  0  0
 26 86  1  0  0  0  0
 27 87  1  0  0  0  0
 28 30  2  0  0  0  0
 28 86  1  0  0  0  0
 29 88  1  0  0  0  0
 30 89  1  0  0  0  0
 31 90  1  0  0  0  0
 32 69  2  0  0  0  0
 33 70  1  0  0  0  0
 33 74  1  0  0  0  0
 34 75  1  0  0  0  0
 34 81  2  0  0  0  0
 35 51  1  0  0  0  0
 35 77  1  0  0  0  0
 35 82  2  0  0  0  0
 36 66  1  0  0  0  0
 36 71  1  0  0  0  0
 36 83  2  0  0  0  0
 37 67  1  0  0  0  0
 37 78  1  0  0  0  0
 37 84  2  0  0  0  0
 38 72  1  0  0  0  0
 38 76  1  0  0  0  0
 38 85  2  0  0  0  0
 39 42  1  0  0  0  0
 40 51  1  0  0  0  0
 41 71  1  0  0  0  0
 42 44  1  0  0  0  0
 43 45  1  0  0  0  0
 43 46  1  0  0  0  0
 44 50  1  0  0  0  0
 45 52  1  0  0  0  0
 46 72  1  0  0  0  0
 47 52  1  0  0  0  0
 47 72  1  0  0  0  0
 48 54  1  0  0  0  0
 48 73  1  0  0  0  0
 49 53  1  0  0  0  0
 49 79  1  0  0  0  0
 50 77  1  0  0  0  0
 51 71  1  0  0  0  0
 52 70  1  0  0  0  0
 53 55  1  0  0  0  0
 53 73  1  0  0  0  0
 54 56  1  0  0  0  0
 54 79  1  0  0  0  0
 57 67  1  0  0  0  0
 58 68  1  0  0  0  0
 59 68  1  0  0  0  0
 60 68  1  0  0  0  0
 61 80  1  0  0  0  0
 62 79  1  0  0  0  0
 63 64  1  0  0  0  0
 63 65  1  0  0  0  0
 64 73  1  0  0  0  0
 65 87  1  0  0  0  0
 66 68  1  0  0  0  0
 66 78  1  0  0  0  0
 67 80  1  0  0  0  0
 69 70  1  0  0  0  0
M  CHG  2  79   1  80   1
M  ISO  4  38 100  65 101  76 100  87 101
M  END
> <Batch ID>
0024

> <Smiles>
CNC(C)C(=O)NC(C(=O)N1Cc2cc([101O:1][101CH2:1]CCN3CC(C)N(Cc4cc(Cl)ccc4[100NH:0][100C:0](=O)N4CCCC(n5nc(-c6ccc(Oc7ccc(F)cc7F)cc6)c(C(N)=O)c5N)C4)CC3C)ccc2CC1C(=O)NC1CCCc2ccccc21)C(C)(C)C

> <Shape>
0.253

> <Color>
0.084

> <Negative vol penalty>
0.000

$$$$

  -OEChem-04042321203D

 82 90  0     1  0  0  0  0  0999 V2000
  -28.4308  -22.6112   19.3634 C   0  0  0  0  0  0  0  0  0  0  0  0
  -28.4403  -23.8096   19.4441 C   0  0  0  0  0  0  0  0  0  0  0  0
  -28.9040  -30.6326   27.1751 C   0  0  0  0  0  0  0  0  0  0  0  0
  -28.6986  -29.6779   26.1843 C   0  0  0  0  0  0  0  0  0  0  0  0
  -24.2792   -9.1450   21.5410 C   0  0  0  0  0  0  0  0  0  0  0  0
  -24.2447  -10.8510   23.2514 C   0  0  0  0  0  0  0  0  0  0  0  0
  -27.8259  -31.3655   27.6696 C   0  0  0  0  0  0  0  0  0  0  0  0
  -27.4147  -29.4547   25.6882 C   0  0  0  0  0  0  0  0  0  0  0  0
  -27.3169  -29.1084   20.6369 C   0  0  0  0  0  0  0  0  0  0  0  0
  -23.8618   -8.1985   22.4766 C   0  0  0  0  0  0  0  0  0  0  0  0
  -23.8272   -9.9045   24.1870 C   0  0  0  0  0  0  0  0  0  0  0  0
  -27.7363  -27.9043   20.0730 C   0  0  0  0  0  0  0  0  0  0  0  0
  -22.4577   -5.4068   24.3340 C   0  0  0  0  0  0  0  0  0  0  0  0
  -21.4441   -4.5257   23.9573 C   0  0  0  0  0  0  0  0  0  0  0  0
  -25.4341  -27.2402   19.7937 C   0  0  0  0  0  0  0  0  0  0  0  0
  -27.2308  -19.0954   19.0160 C   0  0  0  0  0  0  0  0  0  0  0  0
  -29.6360  -19.0970   19.2437 C   0  0  0  0  0  0  0  0  0  0  0  0
  -19.9564   -6.3939   23.5910 C   0  0  0  0  0  0  0  0  0  0  0  0
  -28.4190  -21.1839   19.2671 C   0  0  0  0  0  0  0  0  0  0  0  0
  -24.4707  -10.4713   21.9284 C   0  0  0  0  0  0  0  0  0  0  0  0
  -24.0867  -12.2536   20.1441 C   0  0  0  0  0  0  0  0  0  0  0  0
  -26.5296  -31.1580   27.1725 C   0  0  0  0  0  0  0  0  0  0  0  0
  -25.9508  -29.3833   20.7937 C   0  0  0  0  0  0  0  0  0  0  0  0
  -26.3180  -30.1846   26.1774 C   0  0  0  0  0  0  0  0  0  0  0  0
  -24.9999  -28.4496   20.3576 C   0  0  0  0  0  0  0  0  0  0  0  0
  -27.2212  -20.4872   19.1076 C   0  0  0  0  0  0  0  0  0  0  0  0
  -28.4382  -18.4003   19.0841 C   0  0  0  0  0  0  0  0  0  0  0  0
  -23.6358   -8.5782   23.7996 C   0  0  0  0  0  0  0  0  0  0  0  0
  -26.7949  -26.9687   19.6540 C   0  0  0  0  0  0  0  0  0  0  0  0
  -22.2207   -6.7814   24.3393 C   0  0  0  0  0  0  0  0  0  0  0  0
  -20.1935   -5.0192   23.5858 C   0  0  0  0  0  0  0  0  0  0  0  0
  -29.6265  -20.4888   19.3352 C   0  0  0  0  0  0  0  0  0  0  0  0
  -20.9700   -7.2749   23.9678 C   0  0  0  0  0  0  0  0  0  0  0  0
  -24.9024  -11.4494   20.9624 C   0  0  0  0  0  0  0  0  0  0  0  0
  -24.9714  -13.0069   19.4118 C   0  0  0  0  0  0  0  0  0  0  0  0
  -22.6570  -12.3143   20.0540 C   0  0  0  0  0  0  0  0  0  0  0  0
  -24.0432  -29.9295   23.2769 C   0  0  0  0  0  0  0  0  0  0  0  0
  -21.8518  -30.5356   20.9633 C   0  0  0  0  0  0  0  0  0  0  0  0
  -20.8297  -30.0533   17.7431 C   0  0  0  0  0  0  0  0  0  0  0  0
  -29.5571  -16.1436   19.0429 C   0  0  0  0  0  0  0  0  0  0  0  0
  -25.3884  -31.9412   27.7715 C   0  0  0  0  0  0  0  0  0  0  0  0
  -25.5143  -30.6982   21.3793 C   0  0  0  0  0  0  0  0  0  0  0  0
  -23.5211  -28.7052   20.4850 C   0  0  0  0  0  0  0  0  0  0  0  0
  -24.1172  -31.9078   26.9270 C   0  0  0  0  0  0  0  0  0  0  0  0
  -29.9911  -12.6128   18.8929 C   0  0  0  0  0  0  0  0  0  0  0  0
  -23.8143  -30.4829   26.4744 C   0  0  0  0  0  0  0  0  0  0  0  0
  -28.6388  -12.0615   19.3506 C   0  0  0  0  0  0  0  0  0  0  0  0
  -30.3753  -13.8789   19.6566 C   0  0  0  0  0  0  0  0  0  0  0  0
  -28.0077  -14.3885   20.1082 C   0  0  0  0  0  0  0  0  0  0  0  0
  -24.9439  -29.9311   25.5963 C   0  0  1  0  0  0  0  0  0  0  0  0
  -24.1052  -30.6544   21.9622 C   0  0  1  0  0  0  0  0  0  0  0  0
  -27.5478  -13.1498   19.3222 C   0  0  2  0  0  0  0  0  0  0  0  0
  -25.9081  -21.1984   19.0299 C   0  0  0  0  0  0  0  0  0  0  0  0
  -18.9802  -30.6457   16.1538 C   0  0  0  0  0  0  0  0  0  0  0  0
  -20.0273  -28.5116   22.3360 C   0  0  0  0  0  0  0  0  0  0  0  0
  -18.6516  -28.4384   20.2454 C   0  0  0  0  0  0  0  0  0  0  0  0
  -18.8704  -30.5726   21.5183 C   0  0  0  0  0  0  0  0  0  0  0  0
  -22.6943  -31.4331   15.9050 C   0  0  0  0  0  0  0  0  0  0  0  0
  -28.4540  -25.2685   19.5433 C   0  0  0  0  0  0  0  0  0  1  0  0
  -20.8466  -29.7077   20.1997 C   0  0  1  0  0  0  0  0  0  0  0  0
  -20.3548  -31.0278   16.6804 C   0  0  2  0  0  0  0  0  0  0  0  0
  -19.6268  -29.3016   21.0741 C   0  0  0  0  0  0  0  0  0  0  0  0
  -26.2052  -11.6709   20.7685 N   0  0  0  0  0  0  0  0  0  0  0  0
  -26.2149  -12.6228   19.8199 N   0  0  0  0  0  0  0  0  0  0  0  0
  -23.1444  -30.0028   21.0697 N   0  0  0  0  0  0  0  0  0  0  0  0
  -29.2962  -14.8662   19.5823 N   0  0  0  0  0  0  0  0  0  0  0  0
  -24.7993  -13.9537   18.4650 N   0  0  0  0  0  0  0  0  0  0  0  0
  -21.8992  -11.4714   20.8784 N   0  0  0  0  0  0  0  0  0  0  0  0
  -28.4471  -16.9863   18.9935 N   0  0  0  0  0  0  0  0  0  0  0  0
  -24.8528  -30.4715   24.2569 N   0  0  0  0  0  0  0  0  0  0  0  0
  -20.4995  -30.4804   19.0119 N   0  0  0  0  0  0  0  0  0  0  0  0
  -21.3076  -31.0497   15.5347 N   0  3  0  0  0  0  0  0  0  0  0  0
  -22.0693  -13.0813   19.2541 O   0  0  0  0  0  0  0  0  0  0  0  0
  -23.3136  -28.9519   23.3941 O   0  0  0  0  0  0  0  0  0  0  0  0
  -21.5050  -31.6185   21.4414 O   0  0  0  0  0  0  0  0  0  0  0  0
  -21.4300  -29.0151   17.4743 O   0  0  0  0  0  0  0  0  0  0  0  0
  -30.6760  -16.4568   18.6284 O   0  0  0  0  0  0  0  0  0  0  0  0
  -23.2282   -7.6549   24.7128 O   0  0  0  0  0  0  0  0  0  0  0  0
  -27.2015  -25.7924   19.1038 O   0  0  0  0  0  0  0  0  0  1  0  0
  -19.2207   -4.1731   23.2226 F   0  0  0  0  0  0  0  0  0  0  0  0
  -30.7869  -21.1436   19.4890 F   0  0  0  0  0  0  0  0  0  0  0  0
  -20.7367   -8.5945   23.9697 F   0  0  0  0  0  0  0  0  0  0  0  0
  1  2  3  0  0  0  0
  1 19  1  0  0  0  0
  2 59  1  0  0  0  0
  3  4  1  0  0  0  0
  3  7  2  0  0  0  0
  4  8  2  0  0  0  0
  5 10  2  0  0  0  0
  5 20  1  0  0  0  0
  6 11  1  0  0  0  0
  6 20  2  0  0  0  0
  7 22  1  0  0  0  0
  8 24  1  0  0  0  0
  9 12  2  0  0  0  0
  9 23  1  0  0  0  0
 10 28  1  0  0  0  0
 11 28  2  0  0  0  0
 12 29  1  0  0  0  0
 13 14  2  0  0  0  0
 13 30  1  0  0  0  0
 14 31  1  0  0  0  0
 15 25  1  0  0  0  0
 15 29  2  0  0  0  0
 16 26  2  0  0  0  0
 16 27  1  0  0  0  0
 17 27  2  0  0  0  0
 17 32  1  0  0  0  0
 18 31  2  0  0  0  0
 18 33  1  0  0  0  0
 19 26  1  0  0  0  0
 19 32  2  0  0  0  0
 20 34  1  0  0  0  0
 21 34  1  0  0  0  0
 21 35  2  0  0  0  0
 21 36  1  0  0  0  0
 22 24  2  0  0  0  0
 22 41  1  0  0  0  0
 23 25  2  0  0  0  0
 23 42  1  0  0  0  0
 24 50  1  0  0  0  0
 25 43  1  0  0  0  0
 26 53  1  0  0  0  0
 27 69  1  0  0  0  0
 28 78  1  0  0  0  0
 29 79  1  0  0  0  0
 30 33  2  0  0  0  0
 30 78  1  0  0  0  0
 31 80  1  0  0  0  0
 32 81  1  0  0  0  0
 33 82  1  0  0  0  0
 34 63  2  0  0  0  0
 35 64  1  0  0  0  0
 35 67  1  0  0  0  0
 36 68  1  0  0  0  0
 36 73  2  0  0  0  0
 37 51  1  0  0  0  0
 37 70  1  0  0  0  0
 37 74  2  0  0  0  0
 38 60  1  0  0  0  0
 38 65  1  0  0  0  0
 38 75  2  0  0  0  0
 39 61  1  0  0  0  0
 39 71  1  0  0  0  0
 39 76  2  0  0  0  0
 40 66  1  0  0  0  0
 40 69  1  0  0  0  0
 40 77  2  0  0  0  0
 41 44  1  0  0  0  0
 42 51  1  0  0  0  0
 43 65  1  0  0  0  0
 44 46  1  0  0  0  0
 45 47  1  0  0  0  0
 45 48  1  0  0  0  0
 46 50  1  0  0  0  0
 47 52  1  0  0  0  0
 48 66  1  0  0  0  0
 49 52  1  0  0  0  0
 49 66  1  0  0  0  0
 50 70  1  0  0  0  0
 51 65  1  0  0  0  0
 52 64  1  0  0  0  0
 54 61  1  0  0  0  0
 55 62  1  0  0  0  0
 56 62  1  0  0  0  0
 57 62  1  0  0  0  0
 58 72  1  0  0  0  0
 59 79  1  0  0  0  0
 60 62  1  0  0  0  0
 60 71  1  0  0  0  0
 61 72  1  0  0  0  0
 63 64  1  0  0  0  0
M  CHG  1  72   1
M  ISO  4  40 100  59 101  69 100  79 101
M  END
> <Batch ID>
0024

> <Smiles>
CNC(C)C(=O)NC(C(=O)N1Cc2cc([101O:1][101CH2:1]C#Cc3c(C)cc([100NH:0][100C:0](=O)N4CCCC(n5nc(-c6ccc(Oc7ccc(F)cc7F)cc6)c(C(N)=O)c5N)C4)cc3F)ccc2CC1C(=O)NC1CCCc2ccccc21)C(C)(C)C

> <Shape>
0.302

> <Color>
0.111

> <Negative vol penalty>
0.000

$$$$

  -OEChem-04042321203D

 84 93  0     1  0  0  0  0  0999 V2000
  -29.5773  -35.7408   24.3181 C   0  0  0  0  0  0  0  0  0  0  0  0
  -29.6276  -34.3894   23.9914 C   0  0  0  0  0  0  0  0  0  0  0  0
  -24.6772   -8.5799   21.3619 C   0  0  0  0  0  0  0  0  0  0  0  0
  -23.1943  -10.4865   21.4133 C   0  0  0  0  0  0  0  0  0  0  0  0
  -28.3585  -36.3323   24.6475 C   0  0  0  0  0  0  0  0  0  0  0  0
  -28.4591  -33.6285   23.9949 C   0  0  0  0  0  0  0  0  0  0  0  0
  -27.0715  -28.9955   20.2379 C   0  0  0  0  0  0  0  0  0  0  0  0
  -25.5918  -19.3128   21.0345 C   0  0  0  0  0  0  0  0  0  0  0  0
  -25.9764  -18.0768   20.5150 C   0  0  0  0  0  0  0  0  0  0  0  0
  -23.9143   -7.9597   22.3513 C   0  0  0  0  0  0  0  0  0  0  0  0
  -22.4312   -9.8663   22.4027 C   0  0  0  0  0  0  0  0  0  0  0  0
  -27.1533  -27.6115   20.3853 C   0  0  0  0  0  0  0  0  0  0  0  0
  -21.0004   -6.2557   22.5479 C   0  0  0  0  0  0  0  0  0  0  0  0
  -20.6830   -4.9088   22.3728 C   0  0  0  0  0  0  0  0  0  0  0  0
  -24.8286  -27.5484   21.0265 C   0  0  0  0  0  0  0  0  0  0  0  0
  -28.2536  -18.4952   21.2050 C   0  0  0  0  0  0  0  0  0  0  0  0
  -21.8300   -4.3710   24.4301 C   0  0  0  0  0  0  0  0  0  0  0  0
  -24.3173   -9.8433   20.8929 C   0  0  0  0  0  0  0  0  0  0  0  0
  -24.9319  -10.3876   18.4776 C   0  0  0  0  0  0  0  0  0  0  0  0
  -27.1730  -35.5805   24.6456 C   0  0  0  0  0  0  0  0  0  0  0  0
  -25.8685  -29.6687   20.4946 C   0  0  0  0  0  0  0  0  0  0  0  0
  -27.2234  -34.2102   24.3259 C   0  0  0  0  0  0  0  0  0  0  0  0
  -24.7335  -28.9407   20.8791 C   0  0  0  0  0  0  0  0  0  0  0  0
  -27.8691  -19.7313   21.7245 C   0  0  0  0  0  0  0  0  0  0  0  0
  -26.5382  -20.1401   21.6392 C   0  0  0  0  0  0  0  0  0  0  0  0
  -27.3073  -17.6680   20.6002 C   0  0  0  0  0  0  0  0  0  0  0  0
  -22.7913   -8.6029   22.8717 C   0  0  0  0  0  0  0  0  0  0  0  0
  -26.0326  -26.8881   20.7825 C   0  0  0  0  0  0  0  0  0  0  0  0
  -21.7327   -6.6603   23.6641 C   0  0  0  0  0  0  0  0  0  0  0  0
  -21.0978   -3.9665   23.3139 C   0  0  0  0  0  0  0  0  0  0  0  0
  -22.1475   -5.7179   24.6052 C   0  0  0  0  0  0  0  0  0  0  0  0
  -25.1053  -10.4847   19.8713 C   0  0  0  0  0  0  0  0  0  0  0  0
  -25.9261  -11.1762   17.9522 C   0  0  0  0  0  0  0  0  0  0  0  0
  -23.9590   -9.6506   17.7253 C   0  0  0  0  0  0  0  0  0  0  0  0
  -24.9432  -31.8993   22.5615 C   0  0  0  0  0  0  0  0  0  0  0  0
  -22.1959  -31.8021   20.8395 C   0  0  0  0  0  0  0  0  0  0  0  0
  -20.1357  -30.0377   18.7684 C   0  0  0  0  0  0  0  0  0  0  0  0
  -28.9762  -15.8554   20.0752 C   0  0  0  0  0  0  0  0  0  0  0  0
  -25.8864  -36.2529   25.0545 C   0  0  0  0  0  0  0  0  0  0  0  0
  -25.7895  -31.1588   20.3051 C   0  0  0  0  0  0  0  0  0  0  0  0
  -23.4130  -29.6136   21.1473 C   0  0  0  0  0  0  0  0  0  0  0  0
  -24.6377  -35.4632   24.6703 C   0  0  0  0  0  0  0  0  0  0  0  0
  -30.3363  -12.7775   18.9116 C   0  0  0  0  0  0  0  0  0  0  0  0
  -24.7986  -33.9937   25.0464 C   0  0  0  0  0  0  0  0  0  0  0  0
  -29.1322  -11.8331   18.8930 C   0  0  0  0  0  0  0  0  0  0  0  0
  -25.0881  -22.9716   23.5020 C   0  0  0  0  0  0  0  0  0  0  0  0
  -30.2826  -13.7417   20.0954 C   0  0  0  0  0  0  0  0  0  0  0  0
  -25.6763  -21.5622   23.5166 C   0  0  0  0  0  0  0  0  0  0  0  0
  -26.1253  -22.6013   21.3774 C   0  0  0  0  0  0  0  0  0  0  0  0
  -27.8283  -13.5572   20.2023 C   0  0  0  0  0  0  0  0  0  0  0  0
  -25.9738  -33.3573   24.2944 C   0  0  1  0  0  0  0  0  0  0  0  0
  -24.6507  -31.8015   21.0909 C   0  0  1  0  0  0  0  0  0  0  0  0
  -25.9206  -23.6858   22.4412 C   0  0  1  0  0  0  0  0  0  0  0  0
  -27.8048  -12.6102   18.9914 C   0  0  2  0  0  0  0  0  0  0  0  0
  -28.9032  -20.5983   22.3658 C   0  0  0  0  0  0  0  0  0  0  0  0
  -17.9440  -30.2073   17.5581 C   0  0  0  0  0  0  0  0  0  0  0  0
  -20.7126  -31.3455   23.4665 C   0  0  0  0  0  0  0  0  0  0  0  0
  -18.7318  -30.5879   22.1359 C   0  0  0  0  0  0  0  0  0  0  0  0
  -19.5796  -32.9209   21.8890 C   0  0  0  0  0  0  0  0  0  0  0  0
  -21.4363  -29.7200   16.1290 C   0  0  0  0  0  0  0  0  0  0  0  0
  -25.2542  -24.9386   21.9002 C   0  0  0  0  0  0  0  0  0  1  0  0
  -20.9145  -31.0075   20.9149 C   0  0  1  0  0  0  0  0  0  0  0  0
  -19.4476  -30.4174   17.4696 C   0  0  2  0  0  0  0  0  0  0  0  0
  -20.0099  -31.4527   22.0985 C   0  0  0  0  0  0  0  0  0  0  0  0
  -26.1293  -11.2726   20.2098 N   0  0  0  0  0  0  0  0  0  0  0  0
  -26.6083  -11.6778   19.0214 N   0  0  0  0  0  0  0  0  0  0  0  0
  -26.1407  -21.3589   22.1467 N   0  0  3  0  0  0  0  0  0  0  0  0
  -23.3879  -31.0729   20.9542 N   0  0  0  0  0  0  0  0  0  0  0  0
  -28.9985  -14.4454   20.1217 N   0  0  0  0  0  0  0  0  0  0  0  0
  -26.2747  -11.4824   16.6844 N   0  0  0  0  0  0  0  0  0  0  0  0
  -23.0093   -8.8921   18.4232 N   0  0  0  0  0  0  0  0  0  0  0  0
  -27.6976  -16.4120   20.0729 N   0  0  0  0  0  0  0  0  0  0  0  0
  -25.5981  -33.0593   22.9289 N   0  0  0  0  0  0  0  0  0  0  0  0
  -20.2842  -31.1242   19.6043 N   0  0  0  0  0  0  0  0  0  0  0  0
  -19.9721  -29.5921   16.3450 N   0  3  0  0  0  0  0  0  0  0  0  0
  -23.9428   -9.6511   16.4710 O   0  0  0  0  0  0  0  0  0  0  0  0
  -24.5987  -30.9904   23.3078 O   0  0  0  0  0  0  0  0  0  0  0  0
  -22.1413  -33.0237   20.6774 O   0  0  0  0  0  0  0  0  0  0  0  0
  -20.5014  -28.8912   19.0180 O   0  0  0  0  0  0  0  0  0  0  0  0
  -30.0142  -16.5192   20.0124 O   0  0  0  0  0  0  0  0  0  0  0  0
  -22.0464   -7.9980   23.8369 O   0  0  0  0  0  0  0  0  0  0  0  0
  -26.1099  -25.5373   20.9278 O   0  0  0  0  0  0  0  0  0  1  0  0
  -20.7915   -2.6733   23.1464 F   0  0  0  0  0  0  0  0  0  0  0  0
  -22.8502   -6.1008   25.6800 F   0  0  0  0  0  0  0  0  0  0  0  0
  1  2  1  0  0  0  0
  1  5  2  0  0  0  0
  2  6  2  0  0  0  0
  3 10  2  0  0  0  0
  3 18  1  0  0  0  0
  4 11  1  0  0  0  0
  4 18  2  0  0  0  0
  5 20  1  0  0  0  0
  6 22  1  0  0  0  0
  7 12  2  0  0  0  0
  7 21  1  0  0  0  0
  8  9  2  0  0  0  0
  8 25  1  0  0  0  0
  9 26  1  0  0  0  0
 10 27  1  0  0  0  0
 11 27  2  0  0  0  0
 12 28  1  0  0  0  0
 13 14  2  0  0  0  0
 13 29  1  0  0  0  0
 14 30  1  0  0  0  0
 15 23  1  0  0  0  0
 15 28  2  0  0  0  0
 16 24  1  0  0  0  0
 16 26  2  0  0  0  0
 17 30  2  0  0  0  0
 17 31  1  0  0  0  0
 18 32  1  0  0  0  0
 19 32  1  0  0  0  0
 19 33  2  0  0  0  0
 19 34  1  0  0  0  0
 20 22  2  0  0  0  0
 20 39  1  0  0  0  0
 21 23  2  0  0  0  0
 21 40  1  0  0  0  0
 22 51  1  0  0  0  0
 23 41  1  0  0  0  0
 24 25  2  0  0  0  0
 24 55  1  0  0  0  0
 25 67  1  0  0  0  0
 26 72  1  0  0  0  0
 27 81  1  0  0  0  0
 28 82  1  0  0  0  0
 29 31  2  0  0  0  0
 29 81  1  0  0  0  0
 30 83  1  0  0  0  0
 31 84  1  0  0  0  0
 32 65  2  0  0  0  0
 33 66  1  0  0  0  0
 33 70  1  0  0  0  0
 34 71  1  0  0  0  0
 34 76  2  0  0  0  0
 35 52  1  0  0  0  0
 35 73  1  0  0  0  0
 35 77  2  0  0  0  0
 36 62  1  0  0  0  0
 36 68  1  0  0  0  0
 36 78  2  0  0  0  0
 37 63  1  0  0  0  0
 37 74  1  0  0  0  0
 37 79  2  0  0  0  0
 38 69  1  0  0  0  0
 38 72  1  0  0  0  0
 38 80  2  0  0  0  0
 39 42  1  0  0  0  0
 40 52  1  0  0  0  0
 41 68  1  0  0  0  0
 42 44  1  0  0  0  0
 43 45  1  0  0  0  0
 43 47  1  0  0  0  0
 44 51  1  0  0  0  0
 45 54  1  0  0  0  0
 46 48  1  0  0  0  0
 46 53  1  0  0  0  0
 47 69  1  0  0  0  0
 48 67  1  0  0  0  0
 49 53  1  0  0  0  0
 49 67  1  0  0  0  0
 50 54  1  0  0  0  0
 50 69  1  0  0  0  0
 51 73  1  0  0  0  0
 52 68  1  0  0  0  0
 53 61  1  0  0  0  0
 54 66  1  0  0  0  0
 56 63  1  0  0  0  0
 57 64  1  0  0  0  0
 58 64  1  0  0  0  0
 59 64  1  0  0  0  0
 60 75  1  0  0  0  0
 61 82  1  0  0  0  0
 62 64  1  0  0  0  0
 62 74  1  0  0  0  0
 63 75  1  0  0  0  0
 65 66  1  0  0  0  0
M  CHG  1  75   1
M  ISO  4  38 100  61 101  72 100  82 101
M  END
> <Batch ID>
0024

> <Smiles>
CNC(C)C(=O)NC(C(=O)N1Cc2cc([101O:1][101CH2:1]C3CCN(c4ccc([100NH:0][100C:0](=O)N5CCCC(n6nc(-c7ccc(Oc8ccc(F)cc8F)cc7)c(C(N)=O)c6N)C5)cc4C)C3)ccc2CC1C(=O)NC1CCCc2ccccc21)C(C)(C)C

> <Shape>
0.254

> <Color>
0.102

> <Negative vol penalty>
0.000

$$$$

  -OEChem-04042321203D

 87 96  0     1  0  0  0  0  0999 V2000
  -30.4690  -25.7721   17.1696 C   0  0  0  0  0  0  0  0  0  0  0  0
  -29.0814  -25.7405   17.2643 C   0  0  0  0  0  0  0  0  0  0  0  0
  -23.8762  -13.0407   20.5075 C   0  0  0  0  0  0  0  0  0  0  0  0
  -26.0676  -13.9754   20.9089 C   0  0  0  0  0  0  0  0  0  0  0  0
  -31.2297  -26.2308   18.2443 C   0  0  0  0  0  0  0  0  0  0  0  0
  -28.4537  -26.1667   18.4342 C   0  0  0  0  0  0  0  0  0  0  0  0
  -23.0724  -29.0557   18.8823 C   0  0  0  0  0  0  0  0  0  0  0  0
  -21.7494  -23.5679   22.4169 C   0  0  0  0  0  0  0  0  0  0  0  0
  -20.6906  -24.4732   22.3469 C   0  0  0  0  0  0  0  0  0  0  0  0
  -24.4321  -11.7627   20.4485 C   0  0  0  0  0  0  0  0  0  0  0  0
  -26.6235  -12.6974   20.8500 C   0  0  0  0  0  0  0  0  0  0  0  0
  -21.7866  -28.6036   19.1760 C   0  0  0  0  0  0  0  0  0  0  0  0
  -25.2245   -8.2164   20.5513 C   0  0  0  0  0  0  0  0  0  0  0  0
  -24.5714   -7.1928   21.2378 C   0  0  0  0  0  0  0  0  0  0  0  0
  -22.1040  -29.2204   21.4864 C   0  0  0  0  0  0  0  0  0  0  0  0
  -20.4853  -24.0498   19.9771 C   0  0  0  0  0  0  0  0  0  0  0  0
  -24.8711   -8.3933   23.3129 C   0  0  0  0  0  0  0  0  0  0  0  0
  -24.6940  -14.1470   20.7377 C   0  0  0  0  0  0  0  0  0  0  0  0
  -23.1407  -15.9283   21.6979 C   0  0  0  0  0  0  0  0  0  0  0  0
  -30.6105  -26.6719   19.4244 C   0  0  0  0  0  0  0  0  0  0  0  0
  -23.8889  -29.5844   19.8923 C   0  0  0  0  0  0  0  0  0  0  0  0
  -29.2068  -26.6305   19.5262 C   0  0  0  0  0  0  0  0  0  0  0  0
  -23.3987  -29.6809   21.2025 C   0  0  0  0  0  0  0  0  0  0  0  0
  -22.1763  -22.9036   21.2670 C   0  0  0  0  0  0  0  0  0  0  0  0
  -20.0586  -24.7142   21.1270 C   0  0  0  0  0  0  0  0  0  0  0  0
  -25.8057  -11.5911   20.6198 C   0  0  0  0  0  0  0  0  0  0  0  0
  -21.3033  -28.6832   20.4787 C   0  0  0  0  0  0  0  0  0  0  0  0
  -25.7010   -9.3285   21.2456 C   0  0  0  0  0  0  0  0  0  0  0  0
  -24.3947   -7.2812   22.6186 C   0  0  0  0  0  0  0  0  0  0  0  0
  -25.5242   -9.4169   22.6264 C   0  0  0  0  0  0  0  0  0  0  0  0
  -21.5442  -23.1445   20.0472 C   0  0  0  0  0  0  0  0  0  0  0  0
  -24.1204  -15.4674   20.7981 C   0  0  0  0  0  0  0  0  0  0  0  0
  -22.9389  -17.2399   21.3435 C   0  0  0  0  0  0  0  0  0  0  0  0
  -22.4728  -15.2330   22.7591 C   0  0  0  0  0  0  0  0  0  0  0  0
  -26.6867  -28.7775   21.1671 C   0  0  0  0  0  0  0  0  0  0  0  0
  -26.3307  -31.5829   22.7561 C   0  0  0  0  0  0  0  0  0  0  0  0
  -24.2262  -33.9902   23.9489 C   0  0  0  0  0  0  0  0  0  0  0  0
  -25.4383  -22.1733   20.0277 C   0  0  0  0  0  0  0  0  0  0  0  0
  -31.4768  -27.1147   20.5769 C   0  0  0  0  0  0  0  0  0  0  0  0
  -25.2637  -30.0924   19.5541 C   0  0  0  0  0  0  0  0  0  0  0  0
  -24.2281  -30.2589   22.3190 C   0  0  0  0  0  0  0  0  0  0  0  0
  -30.7174  -27.9006   21.6427 C   0  0  0  0  0  0  0  0  0  0  0  0
  -24.4804  -19.8530   17.3074 C   0  0  0  0  0  0  0  0  0  0  0  0
  -16.7558  -26.1832   20.7334 C   0  0  0  0  0  0  0  0  0  0  0  0
  -29.4088  -27.1991   21.9923 C   0  0  0  0  0  0  0  0  0  0  0  0
  -24.2929  -18.5302   18.0484 C   0  0  0  0  0  0  0  0  0  0  0  0
  -17.4226  -27.3085   21.5045 C   0  0  0  0  0  0  0  0  0  0  0  0
  -17.9311  -25.4647   20.0819 C   0  0  0  0  0  0  0  0  0  0  0  0
  -25.4908  -20.7569   18.0071 C   0  0  0  0  0  0  0  0  0  0  0  0
  -24.9923  -19.6892   20.1810 C   0  0  0  0  0  0  0  0  0  0  0  0
  -28.4881  -27.1078   20.7695 C   0  0  1  0  0  0  0  0  0  0  0  0
  -26.1971  -30.1384   20.7599 C   0  0  1  0  0  0  0  0  0  0  0  0
  -23.9458  -18.7743   19.5273 C   0  0  2  0  0  0  0  0  0  0  0  0
  -18.7255  -26.6781   22.0264 C   0  0  2  0  0  0  0  0  0  0  0  0
  -23.3814  -21.2666   22.7601 C   0  0  0  0  0  0  0  0  0  0  0  0
  -24.2250  -36.1424   25.2393 C   0  0  0  0  0  0  0  0  0  0  0  0
  -26.7703  -30.0284   25.3446 C   0  0  0  0  0  0  0  0  0  0  0  0
  -25.8320  -31.9833   26.5961 C   0  0  0  0  0  0  0  0  0  0  0  0
  -27.9176  -32.2488   25.2535 C   0  0  0  0  0  0  0  0  0  0  0  0
  -24.8345  -23.8554   21.7263 C   0  0  0  0  0  0  0  0  0  0  0  0
  -23.0593  -35.4862   21.6775 C   0  0  0  0  0  0  0  0  0  0  0  0
  -19.8271  -27.7315   22.0822 C   0  0  0  0  0  0  0  0  0  1  0  0
  -23.3149  -21.9424   21.3843 C   0  0  2  0  0  0  0  0  0  0  0  0
  -25.7009  -31.9986   24.0636 C   0  0  1  0  0  0  0  0  0  0  0  0
  -24.2746  -35.5048   23.8596 C   0  0  2  0  0  0  0  0  0  0  0  0
  -26.5400  -31.5520   25.2940 C   0  0  0  0  0  0  0  0  0  0  0  0
  -24.5136  -16.4096   19.9368 N   0  0  0  0  0  0  0  0  0  0  0  0
  -23.7771  -17.4756   20.2937 N   0  0  0  0  0  0  0  0  0  0  0  0
  -19.0101  -25.6099   21.0578 N   0  0  3  0  0  0  0  0  0  0  0  0
  -25.5680  -30.7364   21.9392 N   0  0  0  0  0  0  0  0  0  0  0  0
  -25.1610  -20.9370   19.4213 N   0  0  0  0  0  0  0  0  0  0  0  0
  -22.1279  -18.2029   21.8305 N   0  0  0  0  0  0  0  0  0  0  0  0
  -23.0457  -15.2571   24.0380 N   0  0  0  0  0  0  0  0  0  0  0  0
  -27.8444  -28.3808   20.5253 N   0  0  0  0  0  0  0  0  0  0  0  0
  -25.4900  -33.4395   23.9753 N   0  0  0  0  0  0  0  0  0  0  0  0
  -24.5945  -22.5762   21.0738 N   0  0  0  0  0  0  0  0  0  0  0  0
  -23.1213  -36.0139   23.0648 N   0  3  0  0  0  0  0  0  0  0  0  0
  -21.4085  -14.5952   22.5750 O   0  0  0  0  0  0  0  0  0  0  0  0
  -26.0614  -28.1355   22.0028 O   0  0  0  0  0  0  0  0  0  0  0  0
  -27.4551  -32.0000   22.4669 O   0  0  0  0  0  0  0  0  0  0  0  0
  -23.1726  -33.3590   23.9948 O   0  0  0  0  0  0  0  0  0  0  0  0
  -26.3803  -22.8812   19.6489 O   0  0  0  0  0  0  0  0  0  0  0  0
  -26.3485  -10.3442   20.5625 O   0  0  0  0  0  0  0  0  0  0  0  0
  -20.0489  -28.2421   20.7682 O   0  0  0  0  0  0  0  0  0  1  0  0
  -23.7661   -6.2989   23.2774 F   0  0  0  0  0  0  0  0  0  0  0  0
  -25.9787  -10.4833   23.2987 F   0  0  0  0  0  0  0  0  0  0  0  0
  -22.0465  -22.3420   18.6039 Cl  0  0  0  0  0  0  0  0  0  0  0  0
  1  2  1  0  0  0  0
  1  5  2  0  0  0  0
  2  6  2  0  0  0  0
  3 10  2  0  0  0  0
  3 18  1  0  0  0  0
  4 11  1  0  0  0  0
  4 18  2  0  0  0  0
  5 20  1  0  0  0  0
  6 22  1  0  0  0  0
  7 12  2  0  0  0  0
  7 21  1  0  0  0  0
  8  9  2  0  0  0  0
  8 24  1  0  0  0  0
  9 25  1  0  0  0  0
 10 26  1  0  0  0  0
 11 26  2  0  0  0  0
 12 27  1  0  0  0  0
 13 14  2  0  0  0  0
 13 28  1  0  0  0  0
 14 29  1  0  0  0  0
 15 23  1  0  0  0  0
 15 27  2  0  0  0  0
 16 25  2  0  0  0  0
 16 31  1  0  0  0  0
 17 29  2  0  0  0  0
 17 30  1  0  0  0  0
 18 32  1  0  0  0  0
 19 32  1  0  0  0  0
 19 33  2  0  0  0  0
 19 34  1  0  0  0  0
 20 22  2  0  0  0  0
 20 39  1  0  0  0  0
 21 23  2  0  0  0  0
 21 40  1  0  0  0  0
 22 51  1  0  0  0  0
 23 41  1  0  0  0  0
 24 31  2  0  0  0  0
 24 63  1  0  0  0  0
 25 69  1  0  0  0  0
 26 83  1  0  0  0  0
 27 84  1  0  0  0  0
 28 30  2  0  0  0  0
 28 83  1  0  0  0  0
 29 85  1  0  0  0  0
 30 86  1  0  0  0  0
 31 87  1  0  0  0  0
 32 67  2  0  0  0  0
 33 68  1  0  0  0  0
 33 72  1  0  0  0  0
 34 73  1  0  0  0  0
 34 78  2  0  0  0  0
 35 52  1  0  0  0  0
 35 74  1  0  0  0  0
 35 79  2  0  0  0  0
 36 64  1  0  0  0  0
 36 70  1  0  0  0  0
 36 80  2  0  0  0  0
 37 65  1  0  0  0  0
 37 75  1  0  0  0  0
 37 81  2  0  0  0  0
 38 71  1  0  0  0  0
 38 76  1  0  0  0  0
 38 82  2  0  0  0  0
 39 42  1  0  0  0  0
 40 52  1  0  0  0  0
 41 70  1  0  0  0  0
 42 45  1  0  0  0  0
 43 46  1  0  0  0  0
 43 49  1  0  0  0  0
 44 47  1  0  0  0  0
 44 48  1  0  0  0  0
 45 51  1  0  0  0  0
 46 53  1  0  0  0  0
 47 54  1  0  0  0  0
 48 69  1  0  0  0  0
 49 71  1  0  0  0  0
 50 53  1  0  0  0  0
 50 71  1  0  0  0  0
 51 74  1  0  0  0  0
 52 70  1  0  0  0  0
 53 68  1  0  0  0  0
 54 62  1  0  0  0  0
 54 69  1  0  0  0  0
 55 63  1  0  0  0  0
 56 65  1  0  0  0  0
 57 66  1  0  0  0  0
 58 66  1  0  0  0  0
 59 66  1  0  0  0  0
 60 76  1  0  0  0  0
 61 77  1  0  0  0  0
 62 84  1  0  0  0  0
 63 76  1  0  0  0  0
 64 66  1  0  0  0  0
 64 75  1  0  0  0  0
 65 77  1  0  0  0  0
 67 68  1  0  0  0  0
M  CHG  1  77   1
M  ISO  4  38 100  62 101  76 100  84 101
M  END
> <Batch ID>
0024

> <Smiles>
CNC(C)C(=O)NC(C(=O)N1Cc2cc([101O:1][101CH2:1]C3CCCN3c3ccc(C(C)[100N:0](C)[100C:0](=O)N4CCCC(n5nc(-c6ccc(Oc7ccc(F)cc7F)cc6)c(C(N)=O)c5N)C4)c(Cl)c3)ccc2CC1C(=O)NC1CCCc2ccccc21)C(C)(C)C

> <Shape>
0.277

> <Color>
0.082

> <Negative vol penalty>
0.000

$$$$

  -OEChem-04042321203D

 84 92  0     1  0  0  0  0  0999 V2000
  -32.6412  -26.2633   17.5210 C   0  0  0  0  0  0  0  0  0  0  0  0
  -31.3408  -25.9814   17.9269 C   0  0  0  0  0  0  0  0  0  0  0  0
  -24.6256   -9.2111   21.9708 C   0  0  0  0  0  0  0  0  0  0  0  0
  -23.0233  -10.3837   20.5944 C   0  0  0  0  0  0  0  0  0  0  0  0
  -33.4486  -27.0926   18.2984 C   0  0  0  0  0  0  0  0  0  0  0  0
  -30.8473  -26.5277   19.1112 C   0  0  0  0  0  0  0  0  0  0  0  0
  -26.1643  -28.3836   18.5910 C   0  0  0  0  0  0  0  0  0  0  0  0
  -22.9274  -19.3423   18.7082 C   0  0  0  0  0  0  0  0  0  0  0  0
  -23.8323  -18.3011   18.9143 C   0  0  0  0  0  0  0  0  0  0  0  0
  -23.5931   -8.4613   22.5340 C   0  0  0  0  0  0  0  0  0  0  0  0
  -21.9907   -9.6338   21.1576 C   0  0  0  0  0  0  0  0  0  0  0  0
  -25.1135  -27.4674   18.5843 C   0  0  0  0  0  0  0  0  0  0  0  0
  -21.6994   -5.7936   21.6796 C   0  0  0  0  0  0  0  0  0  0  0  0
  -21.8943   -4.4187   21.8118 C   0  0  0  0  0  0  0  0  0  0  0  0
  -24.6607  -27.9788   20.8979 C   0  0  0  0  0  0  0  0  0  0  0  0
  -25.0137  -19.6486   20.5347 C   0  0  0  0  0  0  0  0  0  0  0  0
  -21.6142   -4.6091   24.2039 C   0  0  0  0  0  0  0  0  0  0  0  0
  -24.3407  -10.1724   21.0010 C   0  0  0  0  0  0  0  0  0  0  0  0
  -26.1600  -10.6316   19.2727 C   0  0  0  0  0  0  0  0  0  0  0  0
  -32.9615  -27.6572   19.4878 C   0  0  0  0  0  0  0  0  0  0  0  0
  -26.4787  -29.0975   19.7563 C   0  0  0  0  0  0  0  0  0  0  0  0
  -31.6493  -27.3643   19.9059 C   0  0  0  0  0  0  0  0  0  0  0  0
  -25.7144  -28.9053   20.9161 C   0  0  0  0  0  0  0  0  0  0  0  0
  -23.0656  -20.5368   19.4153 C   0  0  0  0  0  0  0  0  0  0  0  0
  -24.8754  -18.4542   19.8276 C   0  0  0  0  0  0  0  0  0  0  0  0
  -22.2757   -8.6726   22.1274 C   0  0  0  0  0  0  0  0  0  0  0  0
  -24.3633  -27.2628   19.7386 C   0  0  0  0  0  0  0  0  0  0  0  0
  -21.4620   -6.5762   22.8096 C   0  0  0  0  0  0  0  0  0  0  0  0
  -21.8516   -3.8265   23.0739 C   0  0  0  0  0  0  0  0  0  0  0  0
  -24.1087  -20.6899   20.3285 C   0  0  0  0  0  0  0  0  0  0  0  0
  -21.4193   -5.9839   24.0717 C   0  0  0  0  0  0  0  0  0  0  0  0
  -25.4068  -10.9477   20.4193 C   0  0  0  0  0  0  0  0  0  0  0  0
  -27.0390  -11.6786   19.1399 C   0  0  0  0  0  0  0  0  0  0  0  0
  -26.0729   -9.4933   18.4053 C   0  0  0  0  0  0  0  0  0  0  0  0
  -29.0218  -29.2861   21.6539 C   0  0  0  0  0  0  0  0  0  0  0  0
  -27.2957  -31.6310   23.0837 C   0  0  0  0  0  0  0  0  0  0  0  0
  -22.7254  -24.0615   19.4462 C   0  0  0  0  0  0  0  0  0  0  0  0
  -24.2329  -32.9915   23.7279 C   0  0  0  0  0  0  0  0  0  0  0  0
  -26.8866  -17.3855   20.9043 C   0  0  0  0  0  0  0  0  0  0  0  0
  -33.8873  -28.5096   20.3191 C   0  0  0  0  0  0  0  0  0  0  0  0
  -27.5984  -30.1017   19.7396 C   0  0  0  0  0  0  0  0  0  0  0  0
  -25.9984  -29.6615   22.1873 C   0  0  0  0  0  0  0  0  0  0  0  0
  -33.1638  -29.3499   21.3682 C   0  0  0  0  0  0  0  0  0  0  0  0
  -29.3653  -14.9667   21.7305 C   0  0  0  0  0  0  0  0  0  0  0  0
  -32.1440  -28.5015   22.1213 C   0  0  0  0  0  0  0  0  0  0  0  0
  -28.7023  -13.6332   21.3779 C   0  0  0  0  0  0  0  0  0  0  0  0
  -28.3624  -15.9632   22.3093 C   0  0  0  0  0  0  0  0  0  0  0  0
  -26.5021  -14.8529   21.1364 C   0  0  0  0  0  0  0  0  0  0  0  0
  -31.0698  -27.9579   21.1715 C   0  0  1  0  0  0  0  0  0  0  0  0
  -28.1571  -30.3968   21.1282 C   0  0  1  0  0  0  0  0  0  0  0  0
  -27.4598  -13.8391   20.4894 C   0  0  2  0  0  0  0  0  0  0  0  0
  -23.1377  -34.8854   24.9571 C   0  0  0  0  0  0  0  0  0  0  0  0
  -27.7108  -30.1555   25.7220 C   0  0  0  0  0  0  0  0  0  0  0  0
  -25.8553  -31.5234   26.6987 C   0  0  0  0  0  0  0  0  0  0  0  0
  -27.9260  -32.6425   25.8726 C   0  0  0  0  0  0  0  0  0  0  0  0
  -23.4268  -22.7486   17.4371 C   0  0  0  0  0  0  0  0  0  0  0  0
  -23.1158  -34.1198   21.2303 C   0  0  0  0  0  0  0  0  0  0  0  0
  -22.0882  -21.6543   19.1918 C   0  0  0  0  0  0  0  0  0  0  0  0
  -23.4535  -25.2506   18.8557 C   0  0  0  0  0  0  0  0  0  1  0  0
  -26.2860  -31.6831   24.2047 C   0  0  1  0  0  0  0  0  0  0  0  0
  -23.7248  -34.4189   23.6341 C   0  0  2  0  0  0  0  0  0  0  0  0
  -26.9401  -31.4853   25.6013 C   0  0  0  0  0  0  0  0  0  0  0  0
  -25.7752  -12.1049   20.9753 N   0  0  0  0  0  0  0  0  0  0  0  0
  -26.7696  -12.5251   20.1749 N   0  0  0  0  0  0  0  0  0  0  0  0
  -27.1073  -30.6278   22.1225 N   0  0  0  0  0  0  0  0  0  0  0  0
  -27.2145  -16.1105   21.4119 N   0  0  0  0  0  0  0  0  0  0  0  0
  -28.0084  -11.9485   18.2401 N   0  0  0  0  0  0  0  0  0  0  0  0
  -25.1136   -8.5109   18.6864 N   0  0  0  0  0  0  0  0  0  0  0  0
  -25.7959  -17.3972   20.0355 N   0  0  0  0  0  0  0  0  0  0  0  0
  -30.1079  -28.9910   20.8522 N   0  0  0  0  0  0  0  0  0  0  0  0
  -25.5722  -32.9463   24.0528 N   0  0  0  0  0  0  0  0  0  0  0  0
  -22.7464  -22.8701   18.7205 N   0  0  0  0  0  0  0  0  0  0  0  0
  -22.6689  -34.5252   22.5878 N   0  3  0  0  0  0  0  0  0  0  0  0
  -26.8344   -9.3435   17.4198 O   0  0  0  0  0  0  0  0  0  0  0  0
  -28.7264  -28.7384   22.7096 O   0  0  0  0  0  0  0  0  0  0  0  0
  -28.2136  -32.4547   23.0578 O   0  0  0  0  0  0  0  0  0  0  0  0
  -22.1579  -24.1943   20.5349 O   0  0  0  0  0  0  0  0  0  0  0  0
  -23.5127  -32.0142   23.5360 O   0  0  0  0  0  0  0  0  0  0  0  0
  -27.5430  -18.3885   21.1959 O   0  0  0  0  0  0  0  0  0  0  0  0
  -21.2680   -7.9408   22.6766 O   0  0  0  0  0  0  0  0  0  0  0  0
  -23.3375  -26.3686   19.7349 O   0  0  0  0  0  0  0  0  0  1  0  0
  -22.0372   -2.5060   23.2006 F   0  0  0  0  0  0  0  0  0  0  0  0
  -24.2497  -21.8337   21.0127 F   0  0  0  0  0  0  0  0  0  0  0  0
  -21.1905   -6.7304   25.1608 F   0  0  0  0  0  0  0  0  0  0  0  0
  1  2  1  0  0  0  0
  1  5  2  0  0  0  0
  2  6  2  0  0  0  0
  3 10  2  0  0  0  0
  3 18  1  0  0  0  0
  4 11  1  0  0  0  0
  4 18  2  0  0  0  0
  5 20  1  0  0  0  0
  6 22  1  0  0  0  0
  7 12  2  0  0  0  0
  7 21  1  0  0  0  0
  8  9  2  0  0  0  0
  8 24  1  0  0  0  0
  9 25  1  0  0  0  0
 10 26  1  0  0  0  0
 11 26  2  0  0  0  0
 12 27  1  0  0  0  0
 13 14  2  0  0  0  0
 13 28  1  0  0  0  0
 14 29  1  0  0  0  0
 15 23  1  0  0  0  0
 15 27  2  0  0  0  0
 16 25  2  0  0  0  0
 16 30  1  0  0  0  0
 17 29  2  0  0  0  0
 17 31  1  0  0  0  0
 18 32  1  0  0  0  0
 19 32  1  0  0  0  0
 19 33  2  0  0  0  0
 19 34  1  0  0  0  0
 20 22  2  0  0  0  0
 20 40  1  0  0  0  0
 21 23  2  0  0  0  0
 21 41  1  0  0  0  0
 22 49  1  0  0  0  0
 23 42  1  0  0  0  0
 24 30  2  0  0  0  0
 24 58  1  0  0  0  0
 25 69  1  0  0  0  0
 26 80  1  0  0  0  0
 27 81  1  0  0  0  0
 28 31  2  0  0  0  0
 28 80  1  0  0  0  0
 29 82  1  0  0  0  0
 30 83  1  0  0  0  0
 31 84  1  0  0  0  0
 32 63  2  0  0  0  0
 33 64  1  0  0  0  0
 33 67  1  0  0  0  0
 34 68  1  0  0  0  0
 34 74  2  0  0  0  0
 35 50  1  0  0  0  0
 35 70  1  0  0  0  0
 35 75  2  0  0  0  0
 36 60  1  0  0  0  0
 36 65  1  0  0  0  0
 36 76  2  0  0  0  0
 37 59  1  0  0  0  0
 37 72  1  0  0  0  0
 37 77  2  0  0  0  0
 38 61  1  0  0  0  0
 38 71  1  0  0  0  0
 38 78  2  0  0  0  0
 39 66  1  0  0  0  0
 39 69  1  0  0  0  0
 39 79  2  0  0  0  0
 40 43  1  0  0  0  0
 41 50  1  0  0  0  0
 42 65  1  0  0  0  0
 43 45  1  0  0  0  0
 44 46  1  0  0  0  0
 44 47  1  0  0  0  0
 45 49  1  0  0  0  0
 46 51  1  0  0  0  0
 47 66  1  0  0  0  0
 48 51  1  0  0  0  0
 48 66  1  0  0  0  0
 49 70  1  0  0  0  0
 50 65  1  0  0  0  0
 51 64  1  0  0  0  0
 52 61  1  0  0  0  0
 53 62  1  0  0  0  0
 54 62  1  0  0  0  0
 55 62  1  0  0  0  0
 56 72  1  0  0  0  0
 57 73  1  0  0  0  0
 58 72  1  0  0  0  0
 59 81  1  0  0  0  0
 60 62  1  0  0  0  0
 60 71  1  0  0  0  0
 61 73  1  0  0  0  0
 63 64  1  0  0  0  0
M  CHG  1  73   1
M  ISO  4  39 100  59 101  69 100  81 101
M  END
> <Batch ID>
0024

> <Smiles>
CNC(C)C(=O)NC(C(=O)N1Cc2cc([101O:1][101CH2:1]C(=O)N(C)Cc3ccc([100NH:0][100C:0](=O)N4CCCC(n5nc(-c6ccc(Oc7ccc(F)cc7F)cc6)c(C(N)=O)c5N)C4)cc3F)ccc2CC1C(=O)NC1CCCc2ccccc21)C(C)(C)C

> <Shape>
0.264

> <Color>
0.096

> <Negative vol penalty>
0.000

$$$$

  -OEChem-04042321203D

 86 95  0     1  0  0  0  0  0999 V2000
  -23.3751   -7.7911   21.1984 C   0  0  0  0  0  0  0  0  0  0  0  0
  -24.2671   -8.8371   20.9849 C   0  0  0  0  0  0  0  0  0  0  0  0
  -24.8344  -29.7409   22.3437 C   0  0  0  0  0  0  0  0  0  0  0  0
  -24.0735  -29.5467   20.0589 C   0  0  0  0  0  0  0  0  0  0  0  0
  -22.0061   -8.0466   21.2654 C   0  0  0  0  0  0  0  0  0  0  0  0
  -23.7905  -10.1392   20.8374 C   0  0  0  0  0  0  0  0  0  0  0  0
  -26.4821  -13.5061   23.4953 C   0  0  0  0  0  0  0  0  0  0  0  0
  -25.2169  -31.0607   22.1042 C   0  0  0  0  0  0  0  0  0  0  0  0
  -24.4559  -30.8666   19.8194 C   0  0  0  0  0  0  0  0  0  0  0  0
  -27.7087  -13.9025   22.9641 C   0  0  0  0  0  0  0  0  0  0  0  0
  -23.7214  -34.0843   21.8716 C   0  0  0  0  0  0  0  0  0  0  0  0
  -23.3788  -35.0419   22.8262 C   0  0  0  0  0  0  0  0  0  0  0  0
  -26.6891  -15.9258   22.1357 C   0  0  0  0  0  0  0  0  0  0  0  0
  -27.0600  -17.4249   18.2386 C   0  0  0  0  0  0  0  0  0  0  0  0
  -29.7749  -17.6034   18.8553 C   0  0  0  0  0  0  0  0  0  0  0  0
  -25.7173  -35.5550   23.1508 C   0  0  0  0  0  0  0  0  0  0  0  0
  -24.2628  -28.9838   21.3210 C   0  0  0  0  0  0  0  0  0  0  0  0
  -22.6155  -27.1669   22.0231 C   0  0  0  0  0  0  0  0  0  0  0  0
  -21.5132   -9.3539   21.1283 C   0  0  0  0  0  0  0  0  0  0  0  0
  -25.3455  -14.3127   23.3409 C   0  0  0  0  0  0  0  0  0  0  0  0
  -22.4135  -10.4123   20.9013 C   0  0  0  0  0  0  0  0  0  0  0  0
  -25.4499  -15.5385   22.6681 C   0  0  0  0  0  0  0  0  0  0  0  0
  -27.8017  -16.2653   18.4642 C   0  0  0  0  0  0  0  0  0  0  0  0
  -27.6758  -18.6737   18.3212 C   0  0  0  0  0  0  0  0  0  0  0  0
  -29.1591  -16.3545   18.7726 C   0  0  0  0  0  0  0  0  0  0  0  0
  -25.0276  -31.6236   20.8421 C   0  0  0  0  0  0  0  0  0  0  0  0
  -27.8117  -15.1112   22.2817 C   0  0  0  0  0  0  0  0  0  0  0  0
  -25.0620  -33.8620   21.5566 C   0  0  0  0  0  0  0  0  0  0  0  0
  -24.3767  -35.7772   23.4658 C   0  0  0  0  0  0  0  0  0  0  0  0
  -29.0332  -18.7630   18.6296 C   0  0  0  0  0  0  0  0  0  0  0  0
  -26.0599  -34.5973   22.1962 C   0  0  0  0  0  0  0  0  0  0  0  0
  -23.8681  -27.6202   21.5677 C   0  0  0  0  0  0  0  0  0  0  0  0
  -22.7493  -25.8018   22.0937 C   0  0  0  0  0  0  0  0  0  0  0  0
  -21.4365  -27.9131   22.3528 C   0  0  0  0  0  0  0  0  0  0  0  0
  -22.5188  -13.9594   21.9307 C   0  0  0  0  0  0  0  0  0  0  0  0
  -21.9080  -16.8307   23.3109 C   0  0  0  0  0  0  0  0  0  0  0  0
  -23.1312  -19.7425   24.6041 C   0  0  0  0  0  0  0  0  0  0  0  0
  -26.2546  -22.0381   19.1949 C   0  0  0  0  0  0  0  0  0  0  0  0
  -20.0216   -9.5744   21.1609 C   0  0  0  0  0  0  0  0  0  0  0  0
  -24.0357  -13.8834   23.9430 C   0  0  0  0  0  0  0  0  0  0  0  0
  -24.2641  -16.4504   22.4927 C   0  0  0  0  0  0  0  0  0  0  0  0
  -19.6261  -11.0341   21.3684 C   0  0  0  0  0  0  0  0  0  0  0  0
  -26.0352  -22.3921   22.7899 C   0  0  0  0  0  0  0  0  0  0  0  0
  -30.9460  -13.1117   18.6804 C   0  0  0  0  0  0  0  0  0  0  0  0
  -20.4385  -11.9429   20.4515 C   0  0  0  0  0  0  0  0  0  0  0  0
  -25.3286  -23.7426   22.9199 C   0  0  0  0  0  0  0  0  0  0  0  0
  -31.7403  -13.9128   19.6998 C   0  0  0  0  0  0  0  0  0  0  0  0
  -30.0816  -14.1650   17.9946 C   0  0  0  0  0  0  0  0  0  0  0  0
  -27.0163  -22.3918   21.6213 C   0  0  0  0  0  0  0  0  0  0  0  0
  -25.7060  -24.1110   20.4376 C   0  0  0  0  0  0  0  0  0  0  0  0
  -21.9370  -11.8418   20.7612 C   0  0  1  0  0  0  0  0  0  0  0  0
  -22.8293  -14.5417   23.2806 C   0  0  1  0  0  0  0  0  0  0  0  0
  -24.6839  -24.1684   21.5875 C   0  0  2  0  0  0  0  0  0  0  0  0
  -30.7467  -14.9791   20.1818 C   0  0  2  0  0  0  0  0  0  0  0  0
  -27.1168  -14.9407   18.3694 C   0  0  0  0  0  0  0  0  0  0  0  0
  -22.3866  -21.9128   25.6202 C   0  0  0  0  0  0  0  0  0  0  0  0
  -21.1135  -17.8496   20.5467 C   0  0  0  0  0  0  0  0  0  0  0  0
  -21.3037  -20.1847   21.4295 C   0  0  0  0  0  0  0  0  0  0  0  0
  -19.6288  -18.6160   22.4075 C   0  0  0  0  0  0  0  0  0  0  0  0
  -24.5427  -19.1721   27.1420 C   0  0  0  0  0  0  0  0  0  0  0  0
  -26.8803  -19.9119   18.0792 C   0  0  0  0  0  0  0  0  0  0  0  0
  -29.9029  -14.4685   21.3490 C   0  0  0  0  0  0  0  0  0  1  0  0
  -22.0845  -18.2730   22.9013 C   0  0  1  0  0  0  0  0  0  0  0  0
  -22.8204  -20.4810   25.8934 C   0  0  2  0  0  0  0  0  0  0  0  0
  -21.0547  -18.7130   21.8227 C   0  0  0  0  0  0  0  0  0  0  0  0
  -24.7339  -26.6239   21.3635 N   0  0  0  0  0  0  0  0  0  0  0  0
  -24.0243  -25.5309   21.6922 N   0  0  0  0  0  0  0  0  0  0  0  0
  -29.9093  -15.2160   18.9994 N   0  0  3  0  0  0  0  0  0  0  0  0
  -23.0039  -15.9835   23.0939 N   0  0  0  0  0  0  0  0  0  0  0  0
  -26.3356  -22.7876   20.3803 N   0  0  0  0  0  0  0  0  0  0  0  0
  -21.8995  -24.8186   22.4594 N   0  0  0  0  0  0  0  0  0  0  0  0
  -21.4708  -29.3083   22.2236 N   0  0  0  0  0  0  0  0  0  0  0  0
  -22.2599  -12.6022   21.9494 N   0  0  0  0  0  0  0  0  0  0  0  0
  -22.0329  -19.0558   24.1313 N   0  0  0  0  0  0  0  0  0  0  0  0
  -26.8829  -20.7990   19.2211 N   0  0  0  0  0  0  0  0  0  0  0  0
  -24.0222  -20.5140   26.7741 N   0  3  0  0  0  0  0  0  0  0  0  0
  -20.3889  -27.3604   22.7659 O   0  0  0  0  0  0  0  0  0  0  0  0
  -22.5130  -14.6879   20.9453 O   0  0  0  0  0  0  0  0  0  0  0  0
  -20.8397  -16.4707   23.8118 O   0  0  0  0  0  0  0  0  0  0  0  0
  -24.2366  -19.7747   24.0678 O   0  0  0  0  0  0  0  0  0  0  0  0
  -25.6612  -22.4411   18.1886 O   0  0  0  0  0  0  0  0  0  0  0  0
  -25.4005  -32.9115   20.6081 O   0  0  0  0  0  0  0  0  0  0  0  0
  -29.0076  -15.5002   21.7616 O   0  0  0  0  0  0  0  0  0  1  0  0
  -24.0474  -36.6978   24.3813 F   0  0  0  0  0  0  0  0  0  0  0  0
  -29.6337  -19.9587   18.7111 F   0  0  0  0  0  0  0  0  0  0  0  0
  -27.3494  -34.3891   21.8970 F   0  0  0  0  0  0  0  0  0  0  0  0
  1  2  1  0  0  0  0
  1  5  2  0  0  0  0
  2  6  2  0  0  0  0
  3  8  2  0  0  0  0
  3 17  1  0  0  0  0
  4  9  1  0  0  0  0
  4 17  2  0  0  0  0
  5 19  1  0  0  0  0
  6 21  1  0  0  0  0
  7 10  2  0  0  0  0
  7 20  1  0  0  0  0
  8 26  1  0  0  0  0
  9 26  2  0  0  0  0
 10 27  1  0  0  0  0
 11 12  2  0  0  0  0
 11 28  1  0  0  0  0
 12 29  1  0  0  0  0
 13 22  1  0  0  0  0
 13 27  2  0  0  0  0
 14 23  1  0  0  0  0
 14 24  2  0  0  0  0
 15 25  1  0  0  0  0
 15 30  2  0  0  0  0
 16 29  2  0  0  0  0
 16 31  1  0  0  0  0
 17 32  1  0  0  0  0
 18 32  1  0  0  0  0
 18 33  2  0  0  0  0
 18 34  1  0  0  0  0
 19 21  2  0  0  0  0
 19 39  1  0  0  0  0
 20 22  2  0  0  0  0
 20 40  1  0  0  0  0
 21 51  1  0  0  0  0
 22 41  1  0  0  0  0
 23 25  2  0  0  0  0
 23 55  1  0  0  0  0
 24 30  1  0  0  0  0
 24 61  1  0  0  0  0
 25 68  1  0  0  0  0
 26 82  1  0  0  0  0
 27 83  1  0  0  0  0
 28 31  2  0  0  0  0
 28 82  1  0  0  0  0
 29 84  1  0  0  0  0
 30 85  1  0  0  0  0
 31 86  1  0  0  0  0
 32 66  2  0  0  0  0
 33 67  1  0  0  0  0
 33 71  1  0  0  0  0
 34 72  1  0  0  0  0
 34 77  2  0  0  0  0
 35 52  1  0  0  0  0
 35 73  1  0  0  0  0
 35 78  2  0  0  0  0
 36 63  1  0  0  0  0
 36 69  1  0  0  0  0
 36 79  2  0  0  0  0
 37 64  1  0  0  0  0
 37 74  1  0  0  0  0
 37 80  2  0  0  0  0
 38 70  1  0  0  0  0
 38 75  1  0  0  0  0
 38 81  2  0  0  0  0
 39 42  1  0  0  0  0
 40 52  1  0  0  0  0
 41 69  1  0  0  0  0
 42 45  1  0  0  0  0
 43 46  1  0  0  0  0
 43 49  1  0  0  0  0
 44 47  1  0  0  0  0
 44 48  1  0  0  0  0
 45 51  1  0  0  0  0
 46 53  1  0  0  0  0
 47 54  1  0  0  0  0
 48 68  1  0  0  0  0
 49 70  1  0  0  0  0
 50 53  1  0  0  0  0
 50 70  1  0  0  0  0
 51 73  1  0  0  0  0
 52 69  1  0  0  0  0
 53 67  1  0  0  0  0
 54 62  1  0  0  0  0
 54 68  1  0  0  0  0
 56 64  1  0  0  0  0
 57 65  1  0  0  0  0
 58 65  1  0  0  0  0
 59 65  1  0  0  0  0
 60 76  1  0  0  0  0
 61 75  1  0  0  0  0
 62 83  1  0  0  0  0
 63 65  1  0  0  0  0
 63 74  1  0  0  0  0
 64 76  1  0  0  0  0
 66 67  1  0  0  0  0
M  CHG  1  76   1
M  ISO  4  38 100  62 101  75 100  83 101
M  END
> <Batch ID>
0024

> <Smiles>
CNC(C)C(=O)NC(C(=O)N1Cc2cc([101O:1][101CH2:1]C3CCCN3c3cc(F)c(C[100NH:0][100C:0](=O)N4CCCC(n5nc(-c6ccc(Oc7ccc(F)cc7F)cc6)c(C(N)=O)c5N)C4)cc3C)ccc2CC1C(=O)NC1CCCc2ccccc21)C(C)(C)C

> <Shape>
0.194

> <Color>
0.092

> <Negative vol penalty>
0.000

$$$$

  -OEChem-04042321203D

 90 99  0     1  0  0  0  0  0999 V2000
  -19.5878  -28.3267   26.9184 C   0  0  0  0  0  0  0  0  0  0  0  0
  -20.5885  -27.6701   26.2093 C   0  0  0  0  0  0  0  0  0  0  0  0
  -23.0963  -11.1043   23.5857 C   0  0  0  0  0  0  0  0  0  0  0  0
  -23.8550  -12.5250   25.3865 C   0  0  0  0  0  0  0  0  0  0  0  0
  -18.7086  -29.1799   26.2529 C   0  0  0  0  0  0  0  0  0  0  0  0
  -20.7099  -27.8656   24.8340 C   0  0  0  0  0  0  0  0  0  0  0  0
  -25.5104  -28.5846   23.3904 C   0  0  0  0  0  0  0  0  0  0  0  0
  -28.6639  -21.0011   19.7147 C   0  0  0  0  0  0  0  0  0  0  0  0
  -28.4202  -19.7926   20.3670 C   0  0  0  0  0  0  0  0  0  0  0  0
  -22.3323  -10.3664   24.4896 C   0  0  0  0  0  0  0  0  0  0  0  0
  -23.0909  -11.7871   26.2906 C   0  0  0  0  0  0  0  0  0  0  0  0
  -26.3223  -27.4553   23.2942 C   0  0  0  0  0  0  0  0  0  0  0  0
  -22.8462   -7.9402   26.7862 C   0  0  0  0  0  0  0  0  0  0  0  0
  -22.8956   -6.5495   26.6914 C   0  0  0  0  0  0  0  0  0  0  0  0
  -25.9958  -27.4314   20.9042 C   0  0  0  0  0  0  0  0  0  0  0  0
  -30.7990  -19.4127   20.5518 C   0  0  0  0  0  0  0  0  0  0  0  0
  -20.5145   -6.4927   26.2859 C   0  0  0  0  0  0  0  0  0  0  0  0
  -23.8578  -12.1836   24.0341 C   0  0  0  0  0  0  0  0  0  0  0  0
  -24.1844  -13.6605   21.9799 C   0  0  0  0  0  0  0  0  0  0  0  0
  -18.8253  -29.3935   24.8704 C   0  0  0  0  0  0  0  0  0  0  0  0
  -24.9252  -29.1402   22.2435 C   0  0  0  0  0  0  0  0  0  0  0  0
  -19.8307  -28.7215   24.1492 C   0  0  0  0  0  0  0  0  0  0  0  0
  -25.1789  -28.5693   20.9882 C   0  0  0  0  0  0  0  0  0  0  0  0
  -29.9752  -21.4155   19.4808 C   0  0  0  0  0  0  0  0  0  0  0  0
  -29.4878  -18.9983   20.7856 C   0  0  0  0  0  0  0  0  0  0  0  0
  -22.3295  -10.7078   25.8421 C   0  0  0  0  0  0  0  0  0  0  0  0
  -26.5628  -26.8768   22.0514 C   0  0  0  0  0  0  0  0  0  0  0  0
  -21.6310   -8.6072   26.6309 C   0  0  0  0  0  0  0  0  0  0  0  0
  -21.7297   -5.8257   26.4413 C   0  0  0  0  0  0  0  0  0  0  0  0
  -31.0427  -20.6213   19.8994 C   0  0  0  0  0  0  0  0  0  0  0  0
  -20.4652   -7.8835   26.3807 C   0  0  0  0  0  0  0  0  0  0  0  0
  -24.6477  -12.9459   23.1009 C   0  0  0  0  0  0  0  0  0  0  0  0
  -25.3177  -14.2062   21.4282 C   0  0  0  0  0  0  0  0  0  0  0  0
  -22.8491  -13.8171   21.4820 C   0  0  0  0  0  0  0  0  0  0  0  0
  -21.9426  -29.6111   21.2507 C   0  0  0  0  0  0  0  0  0  0  0  0
  -23.4126  -31.1795   18.8214 C   0  0  0  0  0  0  0  0  0  0  0  0
  -26.3170  -30.6797   16.7400 C   0  0  0  0  0  0  0  0  0  0  0  0
  -30.1847  -16.8642   21.9284 C   0  0  0  0  0  0  0  0  0  0  0  0
  -17.8221  -30.2884   24.1868 C   0  0  0  0  0  0  0  0  0  0  0  0
  -24.0735  -30.3744   22.3609 C   0  0  0  0  0  0  0  0  0  0  0  0
  -24.5909  -29.1395   19.7242 C   0  0  0  0  0  0  0  0  0  0  0  0
  -18.2529  -30.7317   22.7910 C   0  0  0  0  0  0  0  0  0  0  0  0
  -29.0932  -23.5250   16.0425 C   0  0  0  0  0  0  0  0  0  0  0  0
  -28.2604  -24.0837   17.1974 C   0  0  0  0  0  0  0  0  0  0  0  0
  -30.0120  -22.3571   16.3977 C   0  0  0  0  0  0  0  0  0  0  0  0
  -30.2066  -13.3365   22.4099 C   0  0  0  0  0  0  0  0  0  0  0  0
  -18.7756  -29.5428   21.9909 C   0  0  0  0  0  0  0  0  0  0  0  0
  -28.7243  -12.9792   22.5404 C   0  0  0  0  0  0  0  0  0  0  0  0
  -29.1050  -24.7997   18.2539 C   0  0  0  0  0  0  0  0  0  0  0  0
  -30.9595  -22.6322   17.5654 C   0  0  0  0  0  0  0  0  0  0  0  0
  -30.5258  -14.6800   23.0632 C   0  0  0  0  0  0  0  0  0  0  0  0
  -28.2045  -15.4435   22.7505 C   0  0  0  0  0  0  0  0  0  0  0  0
  -20.0100  -28.9270   22.6606 C   0  0  1  0  0  0  0  0  0  0  0  0
  -23.1130  -30.5513   21.1889 C   0  0  1  0  0  0  0  0  0  0  0  0
  -27.8222  -14.1290   22.0507 C   0  0  2  0  0  0  0  0  0  0  0  0
  -29.6626  -23.8800   19.3533 C   0  0  2  0  0  0  0  0  0  0  0  0
  -27.7759  -32.3385   15.5494 C   0  0  0  0  0  0  0  0  0  0  0  0
  -21.5814  -30.6442   16.4402 C   0  0  0  0  0  0  0  0  0  0  0  0
  -23.5918  -30.7744   14.9537 C   0  0  0  0  0  0  0  0  0  0  0  0
  -22.8980  -32.7649   16.2876 C   0  0  0  0  0  0  0  0  0  0  0  0
  -28.7617  -29.6418   18.0459 C   0  0  0  0  0  0  0  0  0  0  0  0
  -30.9905  -26.6749   21.5274 C   0  0  0  0  0  0  0  0  0  0  0  0
  -30.7386  -24.6045   20.1671 C   0  0  0  0  0  0  0  0  0  0  0  0
  -29.5311  -24.8250   22.3337 C   0  0  0  0  0  0  0  0  0  0  0  0
  -28.3921  -25.6327   22.9241 C   0  0  0  0  0  0  0  0  0  1  0  0
  -23.9469  -30.7884   17.4647 C   0  0  1  0  0  0  0  0  0  0  0  0
  -27.6139  -31.4674   16.7854 C   0  0  2  0  0  0  0  0  0  0  0  0
  -23.0037  -31.2244   16.3081 C   0  0  0  0  0  0  0  0  0  0  0  0
  -25.9721  -13.0282   23.2535 N   0  0  0  0  0  0  0  0  0  0  0  0
  -26.3507  -13.8008   22.2211 N   0  0  0  0  0  0  0  0  0  0  0  0
  -30.2158  -22.6246   18.8264 N   0  0  3  0  0  0  0  0  0  0  0  0
  -23.7598  -30.3431   19.8917 N   0  0  0  0  0  0  0  0  0  0  0  0
  -29.6350  -15.7219   22.5478 N   0  0  0  0  0  0  0  0  0  0  0  0
  -25.5214  -14.9884   20.3470 N   0  0  0  0  0  0  0  0  0  0  0  0
  -21.8016  -13.1891   22.1696 N   0  0  0  0  0  0  0  0  0  0  0  0
  -29.2401  -17.7707   21.4484 N   0  0  0  0  0  0  0  0  0  0  0  0
  -21.1826  -29.7335   22.3983 N   0  0  0  0  0  0  0  0  0  0  0  0
  -25.2928  -31.3450   17.3801 N   0  0  0  0  0  0  0  0  0  0  0  0
  -28.7795  -30.5420   16.8642 N   0  3  0  0  0  0  0  0  0  0  0  0
  -30.0746  -25.5372   21.1497 N   0  3  1  0  0  0  0  0  0  0  0  0
  -22.5942  -14.4803   20.4482 O   0  0  0  0  0  0  0  0  0  0  0  0
  -21.7428  -28.8333   20.3250 O   0  0  0  0  0  0  0  0  0  0  0  0
  -22.7188  -32.1938   18.9287 O   0  0  0  0  0  0  0  0  0  0  0  0
  -26.2211  -29.5856   16.1885 O   0  0  0  0  0  0  0  0  0  0  0  0
  -31.4033  -17.0134   21.8069 O   0  0  0  0  0  0  0  0  0  0  0  0
  -21.5838   -9.9881   26.7244 O   0  0  0  0  0  0  0  0  0  0  0  0
  -27.3544  -25.7741   21.9548 O   0  0  0  0  0  0  0  0  0  1  0  0
  -21.7775   -4.4903   26.3487 F   0  0  0  0  0  0  0  0  0  0  0  0
  -32.3067  -21.0096   19.6784 F   0  0  0  0  0  0  0  0  0  0  0  0
  -19.2950   -8.5188   26.2294 F   0  0  0  0  0  0  0  0  0  0  0  0
  1  2  1  0  0  0  0
  1  5  2  0  0  0  0
  2  6  2  0  0  0  0
  3 10  2  0  0  0  0
  3 18  1  0  0  0  0
  4 11  1  0  0  0  0
  4 18  2  0  0  0  0
  5 20  1  0  0  0  0
  6 22  1  0  0  0  0
  7 12  2  0  0  0  0
  7 21  1  0  0  0  0
  8  9  2  0  0  0  0
  8 24  1  0  0  0  0
  9 25  1  0  0  0  0
 10 26  1  0  0  0  0
 11 26  2  0  0  0  0
 12 27  1  0  0  0  0
 13 14  2  0  0  0  0
 13 28  1  0  0  0  0
 14 29  1  0  0  0  0
 15 23  1  0  0  0  0
 15 27  2  0  0  0  0
 16 25  2  0  0  0  0
 16 30  1  0  0  0  0
 17 29  2  0  0  0  0
 17 31  1  0  0  0  0
 18 32  1  0  0  0  0
 19 32  1  0  0  0  0
 19 33  2  0  0  0  0
 19 34  1  0  0  0  0
 20 22  2  0  0  0  0
 20 39  1  0  0  0  0
 21 23  2  0  0  0  0
 21 40  1  0  0  0  0
 22 53  1  0  0  0  0
 23 41  1  0  0  0  0
 24 30  2  0  0  0  0
 24 71  1  0  0  0  0
 25 76  1  0  0  0  0
 26 86  1  0  0  0  0
 27 87  1  0  0  0  0
 28 31  2  0  0  0  0
 28 86  1  0  0  0  0
 29 88  1  0  0  0  0
 30 89  1  0  0  0  0
 31 90  1  0  0  0  0
 32 69  2  0  0  0  0
 33 70  1  0  0  0  0
 33 74  1  0  0  0  0
 34 75  1  0  0  0  0
 34 81  2  0  0  0  0
 35 54  1  0  0  0  0
 35 77  1  0  0  0  0
 35 82  2  0  0  0  0
 36 66  1  0  0  0  0
 36 72  1  0  0  0  0
 36 83  2  0  0  0  0
 37 67  1  0  0  0  0
 37 78  1  0  0  0  0
 37 84  2  0  0  0  0
 38 73  1  0  0  0  0
 38 76  1  0  0  0  0
 38 85  2  0  0  0  0
 39 42  1  0  0  0  0
 40 54  1  0  0  0  0
 41 72  1  0  0  0  0
 42 47  1  0  0  0  0
 43 44  1  0  0  0  0
 43 45  1  0  0  0  0
 44 49  1  0  0  0  0
 45 50  1  0  0  0  0
 46 48  1  0  0  0  0
 46 51  1  0  0  0  0
 47 53  1  0  0  0  0
 48 55  1  0  0  0  0
 49 56  1  0  0  0  0
 50 71  1  0  0  0  0
 51 73  1  0  0  0  0
 52 55  1  0  0  0  0
 52 73  1  0  0  0  0
 53 77  1  0  0  0  0
 54 72  1  0  0  0  0
 55 70  1  0  0  0  0
 56 63  1  0  0  0  0
 56 71  1  0  0  0  0
 57 67  1  0  0  0  0
 58 68  1  0  0  0  0
 59 68  1  0  0  0  0
 60 68  1  0  0  0  0
 61 79  1  0  0  0  0
 62 80  1  0  0  0  0
 63 80  1  0  0  0  0
 64 65  1  0  0  0  0
 64 80  1  0  0  0  0
 65 87  1  0  0  0  0
 66 68  1  0  0  0  0
 66 78  1  0  0  0  0
 67 79  1  0  0  0  0
 69 70  1  0  0  0  0
M  CHG  2  79   1  80   1
M  ISO  4  38 100  65 101  76 100  87 101
M  END
> <Batch ID>
0024

> <Smiles>
CNC(C)C(=O)NC(C(=O)N1Cc2cc([101O:1][101CH2:1]CN(C)CC3CCCCCN3c3ccc([100NH:0][100C:0](=O)N4CCCC(n5nc(-c6ccc(Oc7ccc(F)cc7F)cc6)c(C(N)=O)c5N)C4)cc3F)ccc2CC1C(=O)NC1CCCc2ccccc21)C(C)(C)C

> <Shape>
0.219

> <Color>
0.105

> <Negative vol penalty>
0.000

$$$$

  -OEChem-04042321203D

 87 96  0     1  0  0  0  0  0999 V2000
  -17.0071  -28.1296   23.8960 C   0  0  0  0  0  0  0  0  0  0  0  0
  -17.4494  -27.7825   22.6235 C   0  0  0  0  0  0  0  0  0  0  0  0
  -22.5225  -12.4546   22.1812 C   0  0  0  0  0  0  0  0  0  0  0  0
  -23.9282  -10.5554   22.6851 C   0  0  0  0  0  0  0  0  0  0  0  0
  -17.6818  -29.1084   24.6244 C   0  0  0  0  0  0  0  0  0  0  0  0
  -18.5661  -28.4149   22.0781 C   0  0  0  0  0  0  0  0  0  0  0  0
  -25.1974  -25.3485   19.3125 C   0  0  0  0  0  0  0  0  0  0  0  0
  -21.7199  -12.1525   23.2813 C   0  0  0  0  0  0  0  0  0  0  0  0
  -23.1257  -10.2534   23.7853 C   0  0  0  0  0  0  0  0  0  0  0  0
  -26.4770  -24.9347   18.9416 C   0  0  0  0  0  0  0  0  0  0  0  0
  -20.1437   -8.7676   24.3608 C   0  0  0  0  0  0  0  0  0  0  0  0
  -19.7756   -7.4354   24.5481 C   0  0  0  0  0  0  0  0  0  0  0  0
  -27.3683  -27.0939   19.5672 C   0  0  0  0  0  0  0  0  0  0  0  0
  -30.8659  -18.1061   20.2798 C   0  0  0  0  0  0  0  0  0  0  0  0
  -28.5296  -18.5596   20.6958 C   0  0  0  0  0  0  0  0  0  0  0  0
  -20.8694   -7.4360   26.7023 C   0  0  0  0  0  0  0  0  0  0  0  0
  -23.6266  -11.6560   21.8830 C   0  0  0  0  0  0  0  0  0  0  0  0
  -24.0597  -12.0290   19.3969 C   0  0  0  0  0  0  0  0  0  0  0  0
  -18.8131  -29.7463   24.0916 C   0  0  0  0  0  0  0  0  0  0  0  0
  -25.0007  -26.6329   19.8272 C   0  0  0  0  0  0  0  0  0  0  0  0
  -19.2558  -29.4042   22.7995 C   0  0  0  0  0  0  0  0  0  0  0  0
  -26.0909  -27.5097   19.9521 C   0  0  0  0  0  0  0  0  0  0  0  0
  -30.0964  -20.3869   20.4872 C   0  0  0  0  0  0  0  0  0  0  0  0
  -29.5649  -17.6482   20.4881 C   0  0  0  0  0  0  0  0  0  0  0  0
  -22.0216  -11.0519   24.0834 C   0  0  0  0  0  0  0  0  0  0  0  0
  -27.5597  -25.8053   19.0684 C   0  0  0  0  0  0  0  0  0  0  0  0
  -20.8748   -9.4341   25.3442 C   0  0  0  0  0  0  0  0  0  0  0  0
  -20.1384   -6.7695   25.7188 C   0  0  0  0  0  0  0  0  0  0  0  0
  -31.1316  -19.4754   20.2794 C   0  0  0  0  0  0  0  0  0  0  0  0
  -21.2375   -8.7683   26.5150 C   0  0  0  0  0  0  0  0  0  0  0  0
  -28.7953  -19.9290   20.6954 C   0  0  0  0  0  0  0  0  0  0  0  0
  -24.4557  -11.9672   20.7464 C   0  0  0  0  0  0  0  0  0  0  0  0
  -25.2065  -12.3604   18.7174 C   0  0  0  0  0  0  0  0  0  0  0  0
  -22.7706  -11.8069   18.8100 C   0  0  0  0  0  0  0  0  0  0  0  0
  -22.5808  -29.1451   21.2089 C   0  0  0  0  0  0  0  0  0  0  0  0
  -25.1433  -29.3631   22.8811 C   0  0  0  0  0  0  0  0  0  0  0  0
  -27.9794  -28.9968   24.7411 C   0  0  0  0  0  0  0  0  0  0  0  0
  -30.2084  -15.2197   20.3018 C   0  0  0  0  0  0  0  0  0  0  0  0
  -19.4814  -30.8319   24.8975 C   0  0  0  0  0  0  0  0  0  0  0  0
  -23.6301  -27.1423   20.1819 C   0  0  0  0  0  0  0  0  0  0  0  0
  -25.8264  -28.8939   20.4782 C   0  0  0  0  0  0  0  0  0  0  0  0
  -20.8794  -31.1880   24.3984 C   0  0  0  0  0  0  0  0  0  0  0  0
  -29.9688  -11.9251   18.9730 C   0  0  0  0  0  0  0  0  0  0  0  0
  -30.4420  -23.9113   21.6678 C   0  0  0  0  0  0  0  0  0  0  0  0
  -20.8785  -31.3551   22.8822 C   0  0  0  0  0  0  0  0  0  0  0  0
  -28.4906  -11.5700   19.1486 C   0  0  0  0  0  0  0  0  0  0  0  0
  -31.0147  -24.5642   20.4135 C   0  0  0  0  0  0  0  0  0  0  0  0
  -30.7588  -22.4194   21.7358 C   0  0  0  0  0  0  0  0  0  0  0  0
  -30.4950  -12.7565   20.1416 C   0  0  0  0  0  0  0  0  0  0  0  0
  -28.2332  -13.6044   20.6258 C   0  0  0  0  0  0  0  0  0  0  0  0
  -30.9480  -22.3267   19.2475 C   0  0  0  0  0  0  0  0  0  0  0  0
  -20.4780  -30.0500   22.1837 C   0  0  1  0  0  0  0  0  0  0  0  0
  -23.6342  -28.0925   21.3928 C   0  0  1  0  0  0  0  0  0  0  0  0
  -27.6411  -12.8222   19.4420 C   0  0  2  0  0  0  0  0  0  0  0  0
  -30.6014  -23.8270   19.1225 C   0  0  2  0  0  0  0  0  0  0  0  0
  -31.3791  -24.4267   17.9364 C   0  0  0  0  0  0  0  0  0  0  0  0
  -29.1421  -29.9224   26.7632 C   0  0  0  0  0  0  0  0  0  0  0  0
  -25.9513  -31.8316   21.2818 C   0  0  0  0  0  0  0  0  0  0  0  0
  -27.8010  -32.2049   22.9274 C   0  0  0  0  0  0  0  0  0  0  0  0
  -25.4258  -32.2722   23.6868 C   0  0  0  0  0  0  0  0  0  0  0  0
  -27.9190  -26.3778   26.1182 C   0  0  0  0  0  0  0  0  0  0  0  0
  -29.0952  -24.0025   18.8459 C   0  0  0  0  0  0  0  0  0  1  0  0
  -26.4701  -30.0515   23.0786 C   0  0  1  0  0  0  0  0  0  0  0  0
  -28.1917  -28.8577   26.2378 C   0  0  2  0  0  0  0  0  0  0  0  0
  -26.4100  -31.5654   22.7295 C   0  0  0  0  0  0  0  0  0  0  0  0
  -25.7527  -12.2374   20.9161 N   0  0  0  0  0  0  0  0  0  0  0  0
  -26.1817  -12.4721   19.6643 N   0  0  0  0  0  0  0  0  0  0  0  0
  -30.3915  -21.7544   20.4829 N   0  0  1  0  0  0  0  0  0  0  0  0
  -24.8900  -28.8303   21.6113 N   0  0  0  0  0  0  0  0  0  0  0  0
  -29.6433  -13.9281   20.3580 N   0  0  0  0  0  0  0  0  0  0  0  0
  -25.4657  -12.5640   17.4083 N   0  0  0  0  0  0  0  0  0  0  0  0
  -21.7011  -11.4748   19.6527 N   0  0  0  0  0  0  0  0  0  0  0  0
  -29.2957  -16.2570   20.4905 N   0  0  0  0  0  0  0  0  0  0  0  0
  -21.5888  -29.1224   22.1705 N   0  0  0  0  0  0  0  0  0  0  0  0
  -26.8754  -29.7705   24.4516 N   0  0  0  0  0  0  0  0  0  0  0  0
  -28.7626  -27.5189   26.5578 N   0  3  0  0  0  0  0  0  0  0  0  0
  -22.5765  -11.8841   17.5731 O   0  0  0  0  0  0  0  0  0  0  0  0
  -22.6617  -29.9224   20.2650 O   0  0  0  0  0  0  0  0  0  0  0  0
  -24.3488  -29.3029   23.8237 O   0  0  0  0  0  0  0  0  0  0  0  0
  -28.7210  -28.4745   23.9118 O   0  0  0  0  0  0  0  0  0  0  0  0
  -31.4083  -15.3937   20.0740 O   0  0  0  0  0  0  0  0  0  0  0  0
  -21.2388  -10.7570   25.1571 O   0  0  0  0  0  0  0  0  0  0  0  0
  -28.8069  -25.3933   18.7086 O   0  0  0  0  0  0  0  0  0  1  0  0
  -19.7834   -5.4906   25.8992 F   0  0  0  0  0  0  0  0  0  0  0  0
  -32.3866  -19.9029   20.0797 F   0  0  0  0  0  0  0  0  0  0  0  0
  -21.9388   -9.4037   27.4638 F   0  0  0  0  0  0  0  0  0  0  0  0
  -27.4844  -21.0232   20.9576 Cl  0  0  0  0  0  0  0  0  0  0  0  0
  1  2  1  0  0  0  0
  1  5  2  0  0  0  0
  2  6  2  0  0  0  0
  3  8  2  0  0  0  0
  3 17  1  0  0  0  0
  4  9  1  0  0  0  0
  4 17  2  0  0  0  0
  5 19  1  0  0  0  0
  6 21  1  0  0  0  0
  7 10  2  0  0  0  0
  7 20  1  0  0  0  0
  8 25  1  0  0  0  0
  9 25  2  0  0  0  0
 10 26  1  0  0  0  0
 11 12  2  0  0  0  0
 11 27  1  0  0  0  0
 12 28  1  0  0  0  0
 13 22  1  0  0  0  0
 13 26  2  0  0  0  0
 14 24  1  0  0  0  0
 14 29  2  0  0  0  0
 15 24  2  0  0  0  0
 15 31  1  0  0  0  0
 16 28  2  0  0  0  0
 16 30  1  0  0  0  0
 17 32  1  0  0  0  0
 18 32  1  0  0  0  0
 18 33  2  0  0  0  0
 18 34  1  0  0  0  0
 19 21  2  0  0  0  0
 19 39  1  0  0  0  0
 20 22  2  0  0  0  0
 20 40  1  0  0  0  0
 21 52  1  0  0  0  0
 22 41  1  0  0  0  0
 23 29  1  0  0  0  0
 23 31  2  0  0  0  0
 23 68  1  0  0  0  0
 24 73  1  0  0  0  0
 25 82  1  0  0  0  0
 26 83  1  0  0  0  0
 27 30  2  0  0  0  0
 27 82  1  0  0  0  0
 28 84  1  0  0  0  0
 29 85  1  0  0  0  0
 30 86  1  0  0  0  0
 31 87  1  0  0  0  0
 32 66  2  0  0  0  0
 33 67  1  0  0  0  0
 33 71  1  0  0  0  0
 34 72  1  0  0  0  0
 34 77  2  0  0  0  0
 35 53  1  0  0  0  0
 35 74  1  0  0  0  0
 35 78  2  0  0  0  0
 36 63  1  0  0  0  0
 36 69  1  0  0  0  0
 36 79  2  0  0  0  0
 37 64  1  0  0  0  0
 37 75  1  0  0  0  0
 37 80  2  0  0  0  0
 38 70  1  0  0  0  0
 38 73  1  0  0  0  0
 38 81  2  0  0  0  0
 39 42  1  0  0  0  0
 40 53  1  0  0  0  0
 41 69  1  0  0  0  0
 42 45  1  0  0  0  0
 43 46  1  0  0  0  0
 43 49  1  0  0  0  0
 44 47  1  0  0  0  0
 44 48  1  0  0  0  0
 45 52  1  0  0  0  0
 46 54  1  0  0  0  0
 47 55  1  0  0  0  0
 48 68  1  0  0  0  0
 49 70  1  0  0  0  0
 50 54  1  0  0  0  0
 50 70  1  0  0  0  0
 51 55  1  0  0  0  0
 51 68  1  0  0  0  0
 52 74  1  0  0  0  0
 53 69  1  0  0  0  0
 54 67  1  0  0  0  0
 55 56  1  0  0  0  0
 55 62  1  0  0  0  0
 57 64  1  0  0  0  0
 58 65  1  0  0  0  0
 59 65  1  0  0  0  0
 60 65  1  0  0  0  0
 61 76  1  0  0  0  0
 62 83  1  0  0  0  0
 63 65  1  0  0  0  0
 63 75  1  0  0  0  0
 64 76  1  0  0  0  0
 66 67  1  0  0  0  0
M  CHG  1  76   1
M  ISO  4  38 100  62 101  73 100  83 101
M  END
> <Batch ID>
0024

> <Smiles>
CNC(C)C(=O)NC(C(=O)N1Cc2cc([101O:1][101CH2:1]C3(C)CCCN(c4c(F)cc([100NH:0][100C:0](=O)N5CCCC(n6nc(-c7ccc(Oc8ccc(F)cc8F)cc7)c(C(N)=O)c6N)C5)cc4Cl)C3)ccc2CC1C(=O)NC1CCCc2ccccc21)C(C)(C)C

> <Shape>
0.318

> <Color>
0.091

> <Negative vol penalty>
0.000

$$$$

  -OEChem-04042321203D

 80 88  0     1  0  0  0  0  0999 V2000
  -29.8230  -35.2457   23.1609 C   0  0  0  0  0  0  0  0  0  0  0  0
  -29.7328  -33.8653   23.0137 C   0  0  0  0  0  0  0  0  0  0  0  0
  -26.6019  -12.6363   20.8470 C   0  0  0  0  0  0  0  0  0  0  0  0
  -25.0686  -14.1882   19.8089 C   0  0  0  0  0  0  0  0  0  0  0  0
  -28.7087  -35.9762   23.5715 C   0  0  0  0  0  0  0  0  0  0  0  0
  -28.5283  -33.2143   23.2780 C   0  0  0  0  0  0  0  0  0  0  0  0
  -27.3535  -29.7891   19.7378 C   0  0  0  0  0  0  0  0  0  0  0  0
  -25.5240  -11.8998   21.3382 C   0  0  0  0  0  0  0  0  0  0  0  0
  -23.9907  -13.4517   20.3002 C   0  0  0  0  0  0  0  0  0  0  0  0
  -28.0184  -28.5649   19.7909 C   0  0  0  0  0  0  0  0  0  0  0  0
  -23.3161   -9.6268   20.1586 C   0  0  0  0  0  0  0  0  0  0  0  0
  -23.3690   -8.2386   20.0341 C   0  0  0  0  0  0  0  0  0  0  0  0
  -26.0964  -27.5742   20.8602 C   0  0  0  0  0  0  0  0  0  0  0  0
  -23.2286   -8.0178   22.4359 C   0  0  0  0  0  0  0  0  0  0  0  0
  -26.3742  -13.7805   20.0824 C   0  0  0  0  0  0  0  0  0  0  0  0
  -28.1452  -14.3680   18.3428 C   0  0  0  0  0  0  0  0  0  0  0  0
  -27.4872  -35.3350   23.8316 C   0  0  0  0  0  0  0  0  0  0  0  0
  -26.0570  -29.9180   20.2563 C   0  0  0  0  0  0  0  0  0  0  0  0
  -27.3969  -33.9368   23.6937 C   0  0  0  0  0  0  0  0  0  0  0  0
  -25.4162  -28.8005   20.8102 C   0  0  0  0  0  0  0  0  0  0  0  0
  -24.2184  -12.3075   21.0648 C   0  0  0  0  0  0  0  0  0  0  0  0
  -27.3910  -27.4579   20.3547 C   0  0  0  0  0  0  0  0  0  0  0  0
  -23.2195  -10.2106   21.4218 C   0  0  0  0  0  0  0  0  0  0  0  0
  -23.3252   -7.4340   21.1727 C   0  0  0  0  0  0  0  0  0  0  0  0
  -23.1758   -9.4060   22.5604 C   0  0  0  0  0  0  0  0  0  0  0  0
  -27.4873  -14.5420   19.5751 C   0  0  0  0  0  0  0  0  0  0  0  0
  -29.1236  -15.3319   18.3367 C   0  0  0  0  0  0  0  0  0  0  0  0
  -27.8943  -13.4199   17.2969 C   0  0  0  0  0  0  0  0  0  0  0  0
  -24.7309  -31.6330   22.5809 C   0  0  0  0  0  0  0  0  0  0  0  0
  -21.9808  -30.3698   21.4132 C   0  0  0  0  0  0  0  0  0  0  0  0
  -20.4530  -27.8576   19.6806 C   0  0  0  0  0  0  0  0  0  0  0  0
  -29.6307  -20.5227   20.8425 C   0  0  0  0  0  0  0  0  0  0  0  0
  -26.3231  -36.1610   24.3186 C   0  0  0  0  0  0  0  0  0  0  0  0
  -25.3432  -31.2390   20.1672 C   0  0  0  0  0  0  0  0  0  0  0  0
  -24.0172  -28.8813   21.3623 C   0  0  0  0  0  0  0  0  0  0  0  0
  -24.9808  -35.4412   24.2171 C   0  0  0  0  0  0  0  0  0  0  0  0
  -31.9115  -17.8703   21.2680 C   0  0  0  0  0  0  0  0  0  0  0  0
  -25.0945  -34.0204   24.7604 C   0  0  0  0  0  0  0  0  0  0  0  0
  -31.0905  -16.6828   20.7687 C   0  0  0  0  0  0  0  0  0  0  0  0
  -29.3556  -23.7365   20.5835 C   0  0  0  0  0  0  0  0  0  0  0  0
  -29.9508  -23.0260   23.6401 C   0  0  0  0  0  0  0  0  0  0  0  0
  -31.0693  -18.8515   22.0861 C   0  0  0  0  0  0  0  0  0  0  0  0
  -30.5505  -22.8071   20.7777 C   0  0  0  0  0  0  0  0  0  0  0  0
  -30.2974  -21.6828   22.9998 C   0  0  0  0  0  0  0  0  0  0  0  0
  -29.0270  -18.1246   20.8909 C   0  0  0  0  0  0  0  0  0  0  0  0
  -26.1009  -33.1976   23.9469 C   0  0  1  0  0  0  0  0  0  0  0  0
  -24.2204  -31.3816   21.1902 C   0  0  1  0  0  0  0  0  0  0  0  0
  -28.9652  -24.5594   21.8178 C   0  0  2  0  0  0  0  0  0  0  0  0
  -29.8389  -17.1608   20.0129 C   0  0  2  0  0  0  0  0  0  0  0  0
  -28.7233  -23.7378   23.0893 C   0  0  0  0  0  0  0  0  0  0  0  0
  -18.1906  -27.0801   18.9228 C   0  0  0  0  0  0  0  0  0  0  0  0
  -21.3601  -29.4222   24.2463 C   0  0  0  0  0  0  0  0  0  0  0  0
  -19.6393  -27.8820   23.2794 C   0  0  0  0  0  0  0  0  0  0  0  0
  -19.3982  -30.3494   23.0031 C   0  0  0  0  0  0  0  0  0  0  0  0
  -21.2232  -28.0240   16.8279 C   0  0  0  0  0  0  0  0  0  0  0  0
  -27.7184  -25.3902   21.4831 C   0  0  0  0  0  0  0  0  0  1  0  0
  -21.1756  -29.1229   21.6885 C   0  0  1  0  0  0  0  0  0  0  0  0
  -19.4292  -27.8846   18.5602 C   0  0  2  0  0  0  0  0  0  0  0  0
  -20.4204  -29.1927   23.0458 C   0  0  0  0  0  0  0  0  0  0  0  0
  -28.0043  -15.5380   20.2995 N   0  0  0  0  0  0  0  0  0  0  0  0
  -28.9974  -15.9985   19.5199 N   0  0  0  0  0  0  0  0  0  0  0  0
  -23.3634  -30.1962   21.2578 N   0  0  0  0  0  0  0  0  0  0  0  0
  -29.8549  -19.2387   21.3576 N   0  0  0  0  0  0  0  0  0  0  0  0
  -30.1988  -21.6101   21.5392 N   0  0  0  0  0  0  0  0  0  0  0  0
  -30.0710  -15.6658   17.4349 N   0  0  0  0  0  0  0  0  0  0  0  0
  -26.8503  -12.5000   17.4654 N   0  0  0  0  0  0  0  0  0  0  0  0
  -25.5100  -32.7683   22.6975 N   0  0  0  0  0  0  0  0  0  0  0  0
  -20.3080  -28.9333   20.5310 N   0  0  0  0  0  0  0  0  0  0  0  0
  -20.0115  -27.3142   17.3126 N   0  3  0  0  0  0  0  0  0  0  0  0
  -28.5861  -13.3787   16.2514 O   0  0  0  0  0  0  0  0  0  0  0  0
  -24.4382  -30.8555   23.4817 O   0  0  0  0  0  0  0  0  0  0  0  0
  -21.4033  -31.4568   21.3316 O   0  0  0  0  0  0  0  0  0  0  0  0
  -21.2947  -26.9690   19.7926 O   0  0  0  0  0  0  0  0  0  0  0  0
  -28.9405  -20.6913   19.8285 O   0  0  0  0  0  0  0  0  0  0  0  0
  -23.1663  -11.5890   21.5438 O   0  0  0  0  0  0  0  0  0  0  0  0
  -28.0442  -26.2504   20.4089 O   0  0  0  0  0  0  0  0  0  1  0  0
  -23.3744   -6.1009   21.0528 F   0  0  0  0  0  0  0  0  0  0  0  0
  -23.0818   -9.9610   23.7766 F   0  0  0  0  0  0  0  0  0  0  0  0
  -27.7136  -22.8531   22.9041 F   0  0  0  0  0  0  0  0  0  0  0  0
  -28.2989  -24.5975   24.0638 F   0  0  0  0  0  0  0  0  0  0  0  0
  1  2  1  0  0  0  0
  1  5  2  0  0  0  0
  2  6  2  0  0  0  0
  3  8  2  0  0  0  0
  3 15  1  0  0  0  0
  4  9  1  0  0  0  0
  4 15  2  0  0  0  0
  5 17  1  0  0  0  0
  6 19  1  0  0  0  0
  7 10  2  0  0  0  0
  7 18  1  0  0  0  0
  8 21  1  0  0  0  0
  9 21  2  0  0  0  0
 10 22  1  0  0  0  0
 11 12  2  0  0  0  0
 11 23  1  0  0  0  0
 12 24  1  0  0  0  0
 13 20  1  0  0  0  0
 13 22  2  0  0  0  0
 14 24  2  0  0  0  0
 14 25  1  0  0  0  0
 15 26  1  0  0  0  0
 16 26  1  0  0  0  0
 16 27  2  0  0  0  0
 16 28  1  0  0  0  0
 17 19  2  0  0  0  0
 17 33  1  0  0  0  0
 18 20  2  0  0  0  0
 18 34  1  0  0  0  0
 19 46  1  0  0  0  0
 20 35  1  0  0  0  0
 21 75  1  0  0  0  0
 22 76  1  0  0  0  0
 23 25  2  0  0  0  0
 23 75  1  0  0  0  0
 24 77  1  0  0  0  0
 25 78  1  0  0  0  0
 26 60  2  0  0  0  0
 27 61  1  0  0  0  0
 27 65  1  0  0  0  0
 28 66  1  0  0  0  0
 28 70  2  0  0  0  0
 29 47  1  0  0  0  0
 29 67  1  0  0  0  0
 29 71  2  0  0  0  0
 30 57  1  0  0  0  0
 30 62  1  0  0  0  0
 30 72  2  0  0  0  0
 31 58  1  0  0  0  0
 31 68  1  0  0  0  0
 31 73  2  0  0  0  0
 32 63  1  0  0  0  0
 32 64  1  0  0  0  0
 32 74  2  0  0  0  0
 33 36  1  0  0  0  0
 34 47  1  0  0  0  0
 35 62  1  0  0  0  0
 36 38  1  0  0  0  0
 37 39  1  0  0  0  0
 37 42  1  0  0  0  0
 38 46  1  0  0  0  0
 39 49  1  0  0  0  0
 40 43  1  0  0  0  0
 40 48  1  0  0  0  0
 41 44  1  0  0  0  0
 41 50  1  0  0  0  0
 42 63  1  0  0  0  0
 43 64  1  0  0  0  0
 44 64  1  0  0  0  0
 45 49  1  0  0  0  0
 45 63  1  0  0  0  0
 46 67  1  0  0  0  0
 47 62  1  0  0  0  0
 48 50  1  0  0  0  0
 48 56  1  0  0  0  0
 49 61  1  0  0  0  0
 50 79  1  0  0  0  0
 50 80  1  0  0  0  0
 51 58  1  0  0  0  0
 52 59  1  0  0  0  0
 53 59  1  0  0  0  0
 54 59  1  0  0  0  0
 55 69  1  0  0  0  0
 56 76  1  0  0  0  0
 57 59  1  0  0  0  0
 57 68  1  0  0  0  0
 58 69  1  0  0  0  0
 60 61  1  0  0  0  0
M  CHG  1  69   1
M  ISO  4  32 100  56 101  64 100  76 101
M  END
> <Batch ID>
0024

> <Smiles>
CNC(C)C(=O)NC(C(=O)N1Cc2cc([101O:1][101CH2:1]C3CC[100N:0]([100C:0](=O)N4CCCC(n5nc(-c6ccc(Oc7ccc(F)cc7F)cc6)c(C(N)=O)c5N)C4)CCC3(F)F)ccc2CC1C(=O)NC1CCCc2ccccc21)C(C)(C)C

> <Shape>
0.302

> <Color>
0.096

> <Negative vol penalty>
0.000

$$$$

  -OEChem-04042321203D

 86 95  0     1  0  0  0  0  0999 V2000
  -27.9606  -21.0566   17.6150 C   0  0  0  0  0  0  0  0  0  0  0  0
  -28.5444  -20.5527   18.7729 C   0  0  0  0  0  0  0  0  0  0  0  0
  -23.1958   -9.8541   19.9543 C   0  0  0  0  0  0  0  0  0  0  0  0
  -23.9045   -9.9339   22.2626 C   0  0  0  0  0  0  0  0  0  0  0  0
  -28.3498  -20.5661   16.3692 C   0  0  0  0  0  0  0  0  0  0  0  0
  -29.5169  -19.5572   18.6857 C   0  0  0  0  0  0  0  0  0  0  0  0
  -33.4880  -20.4518   21.6982 C   0  0  0  0  0  0  0  0  0  0  0  0
  -22.5016   -8.6713   20.2083 C   0  0  0  0  0  0  0  0  0  0  0  0
  -23.2103   -8.7511   22.5167 C   0  0  0  0  0  0  0  0  0  0  0  0
  -33.3335  -20.1720   23.0553 C   0  0  0  0  0  0  0  0  0  0  0  0
  -19.5632   -7.7597   21.6110 C   0  0  0  0  0  0  0  0  0  0  0  0
  -18.2707   -7.6439   21.0993 C   0  0  0  0  0  0  0  0  0  0  0  0
  -34.5038  -18.0845   22.7519 C   0  0  0  0  0  0  0  0  0  0  0  0
  -18.9496   -5.7084   19.8225 C   0  0  0  0  0  0  0  0  0  0  0  0
  -33.1888  -14.4920   24.6833 C   0  0  0  0  0  0  0  0  0  0  0  0
  -23.8973  -10.4854   20.9815 C   0  0  0  0  0  0  0  0  0  0  0  0
  -24.1228  -13.0217   20.8254 C   0  0  0  0  0  0  0  0  0  0  0  0
  -29.3345  -19.5709   16.2662 C   0  0  0  0  0  0  0  0  0  0  0  0
  -34.1431  -19.5435   20.8543 C   0  0  0  0  0  0  0  0  0  0  0  0
  -29.9187  -19.0520   17.4375 C   0  0  0  0  0  0  0  0  0  0  0  0
  -34.6675  -18.3563   21.3850 C   0  0  0  0  0  0  0  0  0  0  0  0
  -31.6184  -16.2133   25.3219 C   0  0  0  0  0  0  0  0  0  0  0  0
  -31.2334  -14.9070   23.3263 C   0  0  0  0  0  0  0  0  0  0  0  0
  -22.5088   -8.1198   21.4895 C   0  0  0  0  0  0  0  0  0  0  0  0
  -33.8389  -18.9869   23.5818 C   0  0  0  0  0  0  0  0  0  0  0  0
  -20.5489   -6.8499   21.2284 C   0  0  0  0  0  0  0  0  0  0  0  0
  -17.9639   -6.6183   20.2052 C   0  0  0  0  0  0  0  0  0  0  0  0
  -32.7937  -15.5012   25.5613 C   0  0  0  0  0  0  0  0  0  0  0  0
  -32.4087  -14.1949   23.5658 C   0  0  0  0  0  0  0  0  0  0  0  0
  -20.2421   -5.8242   20.3342 C   0  0  0  0  0  0  0  0  0  0  0  0
  -30.8383  -15.9162   24.2044 C   0  0  0  0  0  0  0  0  0  0  0  0
  -24.6151  -11.7070   20.7196 C   0  0  0  0  0  0  0  0  0  0  0  0
  -25.1862  -13.8160   20.4724 C   0  0  0  0  0  0  0  0  0  0  0  0
  -22.8207  -13.4835   21.2088 C   0  0  0  0  0  0  0  0  0  0  0  0
  -33.3022  -17.8452   18.3023 C   0  0  0  0  0  0  0  0  0  0  0  0
  -36.4557  -17.0869   18.2514 C   0  0  0  0  0  0  0  0  0  0  0  0
  -39.3872  -16.7691   19.9697 C   0  0  0  0  0  0  0  0  0  0  0  0
  -30.9350  -14.0780   20.9662 C   0  0  0  0  0  0  0  0  0  0  0  0
  -29.6885  -19.0385   14.9002 C   0  0  0  0  0  0  0  0  0  0  0  0
  -34.3250  -19.8724   19.3978 C   0  0  0  0  0  0  0  0  0  0  0  0
  -35.3967  -17.3575   20.5253 C   0  0  0  0  0  0  0  0  0  0  0  0
  -30.9948  -18.2491   14.8739 C   0  0  0  0  0  0  0  0  0  0  0  0
  -29.3661  -13.1113   17.9197 C   0  0  0  0  0  0  0  0  0  0  0  0
  -30.2702  -17.9927   28.1920 C   0  0  0  0  0  0  0  0  0  0  0  0
  -31.0446  -17.2605   16.0345 C   0  0  0  0  0  0  0  0  0  0  0  0
  -27.9325  -12.7789   18.3398 C   0  0  0  0  0  0  0  0  0  0  0  0
  -31.2370  -19.0516   27.6925 C   0  0  0  0  0  0  0  0  0  0  0  0
  -29.9917  -17.1613   26.9458 C   0  0  0  0  0  0  0  0  0  0  0  0
  -30.3804  -12.6896   18.9814 C   0  0  0  0  0  0  0  0  0  0  0  0
  -28.6776  -12.8637   20.7532 C   0  0  0  0  0  0  0  0  0  0  0  0
  -30.9948  -17.9895   17.3827 C   0  0  1  0  0  0  0  0  0  0  0  0
  -34.5575  -18.6386   18.5312 C   0  0  1  0  0  0  0  0  0  0  0  0
  -27.6149  -13.3287   19.7442 C   0  0  2  0  0  0  0  0  0  0  0  0
  -32.1165  -18.3006   26.6777 C   0  0  2  0  0  0  0  0  0  0  0  0
  -41.7849  -16.0934   19.6666 C   0  0  0  0  0  0  0  0  0  0  0  0
  -35.6213  -14.1523   18.2130 C   0  0  0  0  0  0  0  0  0  0  0  0
  -37.9627  -13.5502   18.8639 C   0  0  0  0  0  0  0  0  0  0  0  0
  -37.5317  -14.7136   16.6998 C   0  0  0  0  0  0  0  0  0  0  0  0
  -40.3629  -19.4522   20.7496 C   0  0  0  0  0  0  0  0  0  0  0  0
  -32.5338  -19.2429   25.5534 C   0  0  0  0  0  0  0  0  0  1  0  0
  -37.3038  -15.9990   18.8649 C   0  0  1  0  0  0  0  0  0  0  0  0
  -40.7941  -17.2471   19.6585 C   0  0  2  0  0  0  0  0  0  0  0  0
  -37.0895  -14.6215   18.1765 C   0  0  0  0  0  0  0  0  0  0  0  0
  -25.8919  -11.6644   20.3295 N   0  0  0  0  0  0  0  0  0  0  0  0
  -26.2108  -12.9621   20.1872 N   0  0  0  0  0  0  0  0  0  0  0  0
  -31.2545  -17.2058   26.2101 N   0  0  3  0  0  0  0  0  0  0  0  0
  -35.5435  -17.7215   19.1064 N   0  0  0  0  0  0  0  0  0  0  0  0
  -30.0175  -13.2509   20.2845 N   0  0  0  0  0  0  0  0  0  0  0  0
  -25.3355  -15.1546   20.3810 N   0  0  0  0  0  0  0  0  0  0  0  0
  -21.8455  -12.5331   21.5403 N   0  0  0  0  0  0  0  0  0  0  0  0
  -30.4671  -14.5799   22.1803 N   0  0  0  0  0  0  0  0  0  0  0  0
  -32.2870  -18.5605   17.6964 N   0  0  0  0  0  0  0  0  0  0  0  0
  -38.6801  -16.4810   18.8216 N   0  0  0  0  0  0  0  0  0  0  0  0
  -41.2346  -18.2520   20.6670 N   0  3  0  0  0  0  0  0  0  0  0  0
  -22.5258  -14.7024   21.2401 O   0  0  0  0  0  0  0  0  0  0  0  0
  -33.2585  -16.6704   18.6485 O   0  0  0  0  0  0  0  0  0  0  0  0
  -36.6025  -17.3684   17.0594 O   0  0  0  0  0  0  0  0  0  0  0  0
  -38.9597  -16.6586   21.1166 O   0  0  0  0  0  0  0  0  0  0  0  0
  -32.0430  -14.3452   20.4941 O   0  0  0  0  0  0  0  0  0  0  0  0
  -21.8313   -6.9657   21.7378 O   0  0  0  0  0  0  0  0  0  0  0  0
  -33.6889  -18.7111   24.9059 O   0  0  0  0  0  0  0  0  0  1  0  0
  -16.7224   -6.5063   19.7151 F   0  0  0  0  0  0  0  0  0  0  0  0
  -33.5526  -15.7770   26.6317 F   0  0  0  0  0  0  0  0  0  0  0  0
  -32.8014  -13.2245   22.7279 F   0  0  0  0  0  0  0  0  0  0  0  0
  -21.1845   -4.9465   19.9638 F   0  0  0  0  0  0  0  0  0  0  0  0
  -29.3741  -16.7998   23.9085 Cl  0  0  0  0  0  0  0  0  0  0  0  0
  1  2  1  0  0  0  0
  1  5  2  0  0  0  0
  2  6  2  0  0  0  0
  3  8  2  0  0  0  0
  3 16  1  0  0  0  0
  4  9  1  0  0  0  0
  4 16  2  0  0  0  0
  5 18  1  0  0  0  0
  6 20  1  0  0  0  0
  7 10  2  0  0  0  0
  7 19  1  0  0  0  0
  8 24  1  0  0  0  0
  9 24  2  0  0  0  0
 10 25  1  0  0  0  0
 11 12  2  0  0  0  0
 11 26  1  0  0  0  0
 12 27  1  0  0  0  0
 13 21  1  0  0  0  0
 13 25  2  0  0  0  0
 14 27  2  0  0  0  0
 14 30  1  0  0  0  0
 15 28  2  0  0  0  0
 15 29  1  0  0  0  0
 16 32  1  0  0  0  0
 17 32  1  0  0  0  0
 17 33  2  0  0  0  0
 17 34  1  0  0  0  0
 18 20  2  0  0  0  0
 18 39  1  0  0  0  0
 19 21  2  0  0  0  0
 19 40  1  0  0  0  0
 20 51  1  0  0  0  0
 21 41  1  0  0  0  0
 22 28  1  0  0  0  0
 22 31  2  0  0  0  0
 22 66  1  0  0  0  0
 23 29  2  0  0  0  0
 23 31  1  0  0  0  0
 23 71  1  0  0  0  0
 24 80  1  0  0  0  0
 25 81  1  0  0  0  0
 26 30  2  0  0  0  0
 26 80  1  0  0  0  0
 27 82  1  0  0  0  0
 28 83  1  0  0  0  0
 29 84  1  0  0  0  0
 30 85  1  0  0  0  0
 31 86  1  0  0  0  0
 32 64  2  0  0  0  0
 33 65  1  0  0  0  0
 33 69  1  0  0  0  0
 34 70  1  0  0  0  0
 34 75  2  0  0  0  0
 35 52  1  0  0  0  0
 35 72  1  0  0  0  0
 35 76  2  0  0  0  0
 36 61  1  0  0  0  0
 36 67  1  0  0  0  0
 36 77  2  0  0  0  0
 37 62  1  0  0  0  0
 37 73  1  0  0  0  0
 37 78  2  0  0  0  0
 38 68  1  0  0  0  0
 38 71  1  0  0  0  0
 38 79  2  0  0  0  0
 39 42  1  0  0  0  0
 40 52  1  0  0  0  0
 41 67  1  0  0  0  0
 42 45  1  0  0  0  0
 43 46  1  0  0  0  0
 43 49  1  0  0  0  0
 44 47  1  0  0  0  0
 44 48  1  0  0  0  0
 45 51  1  0  0  0  0
 46 53  1  0  0  0  0
 47 54  1  0  0  0  0
 48 66  1  0  0  0  0
 49 68  1  0  0  0  0
 50 53  1  0  0  0  0
 50 68  1  0  0  0  0
 51 72  1  0  0  0  0
 52 67  1  0  0  0  0
 53 65  1  0  0  0  0
 54 60  1  0  0  0  0
 54 66  1  0  0  0  0
 55 62  1  0  0  0  0
 56 63  1  0  0  0  0
 57 63  1  0  0  0  0
 58 63  1  0  0  0  0
 59 74  1  0  0  0  0
 60 81  1  0  0  0  0
 61 63  1  0  0  0  0
 61 73  1  0  0  0  0
 62 74  1  0  0  0  0
 64 65  1  0  0  0  0
M  CHG  1  74   1
M  ISO  4  38 100  60 101  71 100  81 101
M  END
> <Batch ID>
0024

> <Smiles>
CNC(C)C(=O)NC(C(=O)N1Cc2cc([101O:1][101CH2:1]C3CCCN3c3c(F)cc(F)c([100NH:0][100C:0](=O)N4CCCC(n5nc(-c6ccc(Oc7ccc(F)cc7F)cc6)c(C(N)=O)c5N)C4)c3Cl)ccc2CC1C(=O)NC1CCCc2ccccc21)C(C)(C)C

> <Shape>
0.148

> <Color>
0.189

> <Negative vol penalty>
0.000

$$$$

  -OEChem-04042321203D

 90 98  0     1  0  0  0  0  0999 V2000
  -37.1938  -27.2326   11.3461 C   0  0  0  0  0  0  0  0  0  0  0  0
  -36.5075  -26.5611   12.3528 C   0  0  0  0  0  0  0  0  0  0  0  0
  -32.7251  -17.3833   23.4332 C   0  0  0  0  0  0  0  0  0  0  0  0
  -23.0633   -9.8724   19.9381 C   0  0  0  0  0  0  0  0  0  0  0  0
  -23.8254   -9.8666   22.2308 C   0  0  0  0  0  0  0  0  0  0  0  0
  -31.9656  -18.2646   24.2026 C   0  0  0  0  0  0  0  0  0  0  0  0
  -36.8523  -28.5464   11.0279 C   0  0  0  0  0  0  0  0  0  0  0  0
  -35.4799  -27.2035   13.0427 C   0  0  0  0  0  0  0  0  0  0  0  0
  -30.3524  -24.6571   15.2176 C   0  0  0  0  0  0  0  0  0  0  0  0
  -32.0958  -16.5217   22.5346 C   0  0  0  0  0  0  0  0  0  0  0  0
  -22.3127   -8.7228   20.1847 C   0  0  0  0  0  0  0  0  0  0  0  0
  -23.0748   -8.7171   22.4774 C   0  0  0  0  0  0  0  0  0  0  0  0
  -29.9934  -24.2094   16.4882 C   0  0  0  0  0  0  0  0  0  0  0  0
  -19.8425   -7.9364   23.0802 C   0  0  0  0  0  0  0  0  0  0  0  0
  -19.0864   -7.8969   24.2516 C   0  0  0  0  0  0  0  0  0  0  0  0
  -28.9112  -26.3217   16.9200 C   0  0  0  0  0  0  0  0  0  0  0  0
  -20.3169   -5.9494   24.9800 C   0  0  0  0  0  0  0  0  0  0  0  0
  -23.8196  -10.4443   20.9612 C   0  0  0  0  0  0  0  0  0  0  0  0
  -30.5769  -18.2845   24.0735 C   0  0  0  0  0  0  0  0  0  0  0  0
  -24.1765  -12.9678   20.8498 C   0  0  0  0  0  0  0  0  0  0  0  0
  -35.8136  -29.2019   11.7076 C   0  0  0  0  0  0  0  0  0  0  0  0
  -30.0024  -25.9465   14.7920 C   0  0  0  0  0  0  0  0  0  0  0  0
  -35.1251  -28.5277   12.7341 C   0  0  0  0  0  0  0  0  0  0  0  0
  -29.2647  -26.7824   15.6425 C   0  0  0  0  0  0  0  0  0  0  0  0
  -30.7071  -16.5416   22.4054 C   0  0  0  0  0  0  0  0  0  0  0  0
  -22.3185   -8.1452   21.4543 C   0  0  0  0  0  0  0  0  0  0  0  0
  -29.2751  -25.0428   17.3407 C   0  0  0  0  0  0  0  0  0  0  0  0
  -20.8357   -6.9825   22.8585 C   0  0  0  0  0  0  0  0  0  0  0  0
  -19.3236   -6.9034   25.2016 C   0  0  0  0  0  0  0  0  0  0  0  0
  -21.0729   -5.9890   23.8084 C   0  0  0  0  0  0  0  0  0  0  0  0
  -29.9476  -17.4229   23.1749 C   0  0  0  0  0  0  0  0  0  0  0  0
  -24.5956  -11.6314   20.7069 C   0  0  0  0  0  0  0  0  0  0  0  0
  -25.2728  -13.7120   20.4882 C   0  0  0  0  0  0  0  0  0  0  0  0
  -29.8232  -19.2308   24.9112 C   0  0  0  0  0  0  0  0  0  0  0  0
  -22.9095  -13.4897   21.2718 C   0  0  0  0  0  0  0  0  0  0  0  0
  -31.6231  -28.5357   13.9128 C   0  0  0  0  0  0  0  0  0  0  0  0
  -28.6672  -29.6695   13.2062 C   0  0  0  0  0  0  0  0  0  0  0  0
  -28.8543  -22.9831   20.3519 C   0  0  0  0  0  0  0  0  0  0  0  0
  -25.3016  -29.5248   13.7529 C   0  0  0  0  0  0  0  0  0  0  0  0
  -30.7453  -14.7242   20.6613 C   0  0  0  0  0  0  0  0  0  0  0  0
  -35.5120  -30.6384   11.3606 C   0  0  0  0  0  0  0  0  0  0  0  0
  -30.3741  -26.4047   13.4084 C   0  0  0  0  0  0  0  0  0  0  0  0
  -28.8469  -28.1681   15.2258 C   0  0  0  0  0  0  0  0  0  0  0  0
  -34.1615  -31.1207   11.8840 C   0  0  0  0  0  0  0  0  0  0  0  0
  -29.6142  -12.3256   18.2855 C   0  0  0  0  0  0  0  0  0  0  0  0
  -33.9755  -30.7086   13.3408 C   0  0  0  0  0  0  0  0  0  0  0  0
  -28.1732  -12.0411   18.7154 C   0  0  0  0  0  0  0  0  0  0  0  0
  -30.5318  -12.5446   19.4871 C   0  0  0  0  0  0  0  0  0  0  0  0
  -28.6305  -13.2755   20.8728 C   0  0  0  0  0  0  0  0  0  0  0  0
  -33.9880  -29.1823   13.4883 C   0  0  1  0  0  0  0  0  0  0  0  0
  -30.4100  -27.9237   13.2714 C   0  0  1  0  0  0  0  0  0  0  0  0
  -27.6555  -13.1123   19.6953 C   0  0  2  0  0  0  0  0  0  0  0  0
  -23.1447  -30.6018   13.0564 C   0  0  0  0  0  0  0  0  0  0  0  0
  -30.9458  -22.1715   23.2717 C   0  0  0  0  0  0  0  0  0  0  0  0
  -29.3155  -32.0890   14.9484 C   0  0  0  0  0  0  0  0  0  0  0  0
  -26.8706  -32.6267   14.9900 C   0  0  0  0  0  0  0  0  0  0  0  0
  -28.1090  -32.6260   12.8246 C   0  0  0  0  0  0  0  0  0  0  0  0
  -28.8057  -21.4562   25.2050 C   0  0  0  0  0  0  0  0  0  0  0  0
  -29.9173  -20.7315   20.1225 C   0  0  0  0  0  0  0  0  0  0  0  0
  -24.2421  -26.9782   12.6799 C   0  0  0  0  0  0  0  0  0  0  0  0
  -29.3242  -23.2880   18.9451 C   0  0  0  0  0  0  0  0  0  1  0  0
  -28.7809  -21.3254   22.2259 C   0  0  0  0  0  0  0  0  0  0  0  0
  -27.6032  -30.4264   13.9638 C   0  0  1  0  0  0  0  0  0  0  0  0
  -24.1267  -29.4707   12.7932 C   0  0  2  0  0  0  0  0  0  0  0  0
  -29.9969  -20.9907   23.0924 C   0  0  2  0  0  0  0  0  0  0  0  0
  -27.9840  -31.9167   14.1905 C   0  0  0  0  0  0  0  0  0  0  0  0
  -25.8595  -11.5295   20.2871 N   0  0  0  0  0  0  0  0  0  0  0  0
  -26.2439  -12.8113   20.1630 N   0  0  0  0  0  0  0  0  0  0  0  0
  -29.2396  -28.5726   13.8657 N   0  0  0  0  0  0  0  0  0  0  0  0
  -29.9798  -13.5756   20.3687 N   0  0  0  0  0  0  0  0  0  0  0  0
  -25.4911  -15.0424   20.4197 N   0  0  0  0  0  0  0  0  0  0  0  0
  -21.8925  -12.5854   21.6068 N   0  0  0  0  0  0  0  0  0  0  0  0
  -30.1042  -15.6502   21.4836 N   0  0  0  0  0  0  0  0  0  0  0  0
  -32.7183  -28.6242   13.0748 N   0  0  0  0  0  0  0  0  0  0  0  0
  -26.3603  -30.2330   13.2247 N   0  0  0  0  0  0  0  0  0  0  0  0
  -29.5665  -20.5111   24.3900 N   0  0  0  0  0  0  0  0  0  0  0  0
  -29.1717  -21.7305   20.8781 N   0  0  0  0  0  0  0  0  0  0  0  0
  -23.4016  -28.1764   12.9346 N   0  3  0  0  0  0  0  0  0  0  0  0
  -29.4626  -18.8158   26.0120 O   0  0  0  0  0  0  0  0  0  0  0  0
  -22.6807  -14.7215   21.3338 O   0  0  0  0  0  0  0  0  0  0  0  0
  -31.5691  -28.9020   15.0810 O   0  0  0  0  0  0  0  0  0  0  0  0
  -28.9740  -30.0336   12.0682 O   0  0  0  0  0  0  0  0  0  0  0  0
  -28.2246  -23.8487   20.9676 O   0  0  0  0  0  0  0  0  0  0  0  0
  -25.2810  -28.9952   14.8618 O   0  0  0  0  0  0  0  0  0  0  0  0
  -31.8749  -14.8878   20.1932 O   0  0  0  0  0  0  0  0  0  0  0  0
  -21.5860   -7.0236   21.6953 O   0  0  0  0  0  0  0  0  0  0  0  0
  -28.9240  -24.6086   18.5817 O   0  0  0  0  0  0  0  0  0  1  0  0
  -18.5985   -6.8664   26.3272 F   0  0  0  0  0  0  0  0  0  0  0  0
  -22.0266   -5.0705   23.6016 F   0  0  0  0  0  0  0  0  0  0  0  0
  -28.2201  -17.4475   23.0188 Cl  0  0  0  0  0  0  0  0  0  0  0  0
  1  2  1  0  0  0  0
  1  7  2  0  0  0  0
  2  8  2  0  0  0  0
  3  6  2  0  0  0  0
  3 10  1  0  0  0  0
  4 11  2  0  0  0  0
  4 18  1  0  0  0  0
  5 12  1  0  0  0  0
  5 18  2  0  0  0  0
  6 19  1  0  0  0  0
  7 21  1  0  0  0  0
  8 23  1  0  0  0  0
  9 13  2  0  0  0  0
  9 22  1  0  0  0  0
 10 25  2  0  0  0  0
 11 26  1  0  0  0  0
 12 26  2  0  0  0  0
 13 27  1  0  0  0  0
 14 15  2  0  0  0  0
 14 28  1  0  0  0  0
 15 29  1  0  0  0  0
 16 24  1  0  0  0  0
 16 27  2  0  0  0  0
 17 29  2  0  0  0  0
 17 30  1  0  0  0  0
 18 32  1  0  0  0  0
 19 31  2  0  0  0  0
 19 34  1  0  0  0  0
 20 32  1  0  0  0  0
 20 33  2  0  0  0  0
 20 35  1  0  0  0  0
 21 23  2  0  0  0  0
 21 41  1  0  0  0  0
 22 24  2  0  0  0  0
 22 42  1  0  0  0  0
 23 50  1  0  0  0  0
 24 43  1  0  0  0  0
 25 31  1  0  0  0  0
 25 73  1  0  0  0  0
 26 86  1  0  0  0  0
 27 87  1  0  0  0  0
 28 30  2  0  0  0  0
 28 86  1  0  0  0  0
 29 88  1  0  0  0  0
 30 89  1  0  0  0  0
 31 90  1  0  0  0  0
 32 67  2  0  0  0  0
 33 68  1  0  0  0  0
 33 71  1  0  0  0  0
 34 76  1  0  0  0  0
 34 79  2  0  0  0  0
 35 72  1  0  0  0  0
 35 80  2  0  0  0  0
 36 51  1  0  0  0  0
 36 74  1  0  0  0  0
 36 81  2  0  0  0  0
 37 63  1  0  0  0  0
 37 69  1  0  0  0  0
 37 82  2  0  0  0  0
 38 61  1  0  0  0  0
 38 77  1  0  0  0  0
 38 83  2  0  0  0  0
 39 64  1  0  0  0  0
 39 75  1  0  0  0  0
 39 84  2  0  0  0  0
 40 70  1  0  0  0  0
 40 73  1  0  0  0  0
 40 85  2  0  0  0  0
 41 44  1  0  0  0  0
 42 51  1  0  0  0  0
 43 69  1  0  0  0  0
 44 46  1  0  0  0  0
 45 47  1  0  0  0  0
 45 48  1  0  0  0  0
 46 50  1  0  0  0  0
 47 52  1  0  0  0  0
 48 70  1  0  0  0  0
 49 52  1  0  0  0  0
 49 70  1  0  0  0  0
 50 74  1  0  0  0  0
 51 69  1  0  0  0  0
 52 68  1  0  0  0  0
 53 64  1  0  0  0  0
 54 65  1  0  0  0  0
 55 66  1  0  0  0  0
 56 66  1  0  0  0  0
 57 66  1  0  0  0  0
 58 76  1  0  0  0  0
 59 77  1  0  0  0  0
 60 78  1  0  0  0  0
 61 87  1  0  0  0  0
 62 65  1  0  0  0  0
 62 77  1  0  0  0  0
 63 66  1  0  0  0  0
 63 75  1  0  0  0  0
 64 78  1  0  0  0  0
 65 76  1  0  0  0  0
 67 68  1  0  0  0  0
M  CHG  1  78   1
M  ISO  4  40 100  61 101  73 100  87 101
M  END
> <Batch ID>
0024

> <Smiles>
CNC(C)C(=O)NC(C(=O)N1Cc2cc([101O:1][101CH2:1]C(=O)N(C)CC(C)N(C)C(=O)c3cccc([100NH:0][100C:0](=O)N4CCCC(n5nc(-c6ccc(Oc7ccc(F)cc7F)cc6)c(C(N)=O)c5N)C4)c3Cl)ccc2CC1C(=O)NC1CCCc2ccccc21)C(C)(C)C

> <Shape>
0.213

> <Color>
0.193

> <Negative vol penalty>
0.000

$$$$

  -OEChem-04042321203D

 84 92  0     1  0  0  0  0  0999 V2000
  -21.4698  -30.8849   14.5937 C   0  0  0  0  0  0  0  0  0  0  0  0
  -22.6597  -30.3741   15.1022 C   0  0  0  0  0  0  0  0  0  0  0  0
  -27.9831  -17.8148   18.1761 C   0  0  0  0  0  0  0  0  0  0  0  0
  -25.8425   -8.2418   22.6385 C   0  0  0  0  0  0  0  0  0  0  0  0
  -24.9001   -9.6402   20.9084 C   0  0  0  0  0  0  0  0  0  0  0  0
  -20.8732  -31.9913   15.1970 C   0  0  0  0  0  0  0  0  0  0  0  0
  -23.2544  -30.9702   16.2138 C   0  0  0  0  0  0  0  0  0  0  0  0
  -24.8425  -27.5770   19.6210 C   0  0  0  0  0  0  0  0  0  0  0  0
  -28.4126  -18.9969   18.7790 C   0  0  0  0  0  0  0  0  0  0  0  0
  -28.4652  -16.5862   18.6278 C   0  0  0  0  0  0  0  0  0  0  0  0
  -24.5590   -7.9384   23.0924 C   0  0  0  0  0  0  0  0  0  0  0  0
  -23.6166   -9.3368   21.3623 C   0  0  0  0  0  0  0  0  0  0  0  0
  -26.0368  -26.9115   19.3479 C   0  0  0  0  0  0  0  0  0  0  0  0
  -22.0189   -5.8938   22.1977 C   0  0  0  0  0  0  0  0  0  0  0  0
  -21.7339   -4.5607   22.4928 C   0  0  0  0  0  0  0  0  0  0  0  0
  -27.2035  -28.4057   20.8397 C   0  0  0  0  0  0  0  0  0  0  0  0
  -29.8066  -17.7222   20.2853 C   0  0  0  0  0  0  0  0  0  0  0  0
  -21.2326   -5.1731   24.7755 C   0  0  0  0  0  0  0  0  0  0  0  0
  -26.0131   -9.0928   21.5465 C   0  0  0  0  0  0  0  0  0  0  0  0
  -28.0848   -8.7105   20.1079 C   0  0  0  0  0  0  0  0  0  0  0  0
  -21.4558  -32.5953   16.3223 C   0  0  0  0  0  0  0  0  0  0  0  0
  -24.8216  -28.6705   20.4985 C   0  0  0  0  0  0  0  0  0  0  0  0
  -22.6658  -32.0865   16.8318 C   0  0  0  0  0  0  0  0  0  0  0  0
  -26.0072  -29.0817   21.1242 C   0  0  0  0  0  0  0  0  0  0  0  0
  -29.3244  -18.9507   19.8336 C   0  0  0  0  0  0  0  0  0  0  0  0
  -29.3770  -16.5400   19.6824 C   0  0  0  0  0  0  0  0  0  0  0  0
  -23.4460   -8.4859   22.4543 C   0  0  0  0  0  0  0  0  0  0  0  0
  -27.2180  -27.3277   19.9551 C   0  0  0  0  0  0  0  0  0  0  0  0
  -21.9108   -6.8666   23.1916 C   0  0  0  0  0  0  0  0  0  0  0  0
  -21.3408   -4.2003   23.7817 C   0  0  0  0  0  0  0  0  0  0  0  0
  -21.5177   -6.5062   24.4804 C   0  0  0  0  0  0  0  0  0  0  0  0
  -27.3388   -9.4070   21.0775 C   0  0  0  0  0  0  0  0  0  0  0  0
  -29.2678   -9.4031   20.0221 C   0  0  0  0  0  0  0  0  0  0  0  0
  -27.7393   -7.5420   19.3523 C   0  0  0  0  0  0  0  0  0  0  0  0
  -24.0826  -31.7502   20.2277 C   0  0  0  0  0  0  0  0  0  0  0  0
  -24.5223  -31.7376   23.4416 C   0  0  0  0  0  0  0  0  0  0  0  0
  -25.9779  -30.2770   26.1609 C   0  0  0  0  0  0  0  0  0  0  0  0
  -30.7739  -15.0692   21.1763 C   0  0  0  0  0  0  0  0  0  0  0  0
  -20.7988  -33.8183   16.9116 C   0  0  0  0  0  0  0  0  0  0  0  0
  -23.5205  -29.3609   20.8032 C   0  0  0  0  0  0  0  0  0  0  0  0
  -26.0347  -30.2374   22.0898 C   0  0  0  0  0  0  0  0  0  0  0  0
  -21.2966  -34.1615   18.3132 C   0  0  0  0  0  0  0  0  0  0  0  0
  -32.1975  -12.1485   22.6324 C   0  0  0  0  0  0  0  0  0  0  0  0
  -22.8198  -34.1018   18.3683 C   0  0  0  0  0  0  0  0  0  0  0  0
  -31.1840  -11.0495   22.3054 C   0  0  0  0  0  0  0  0  0  0  0  0
  -31.5124  -13.4794   22.9376 C   0  0  0  0  0  0  0  0  0  0  0  0
  -29.5543  -12.8419   21.5852 C   0  0  0  0  0  0  0  0  0  0  0  0
  -23.3284  -32.6903   18.0510 C   0  0  1  0  0  0  0  0  0  0  0  0
  -23.7058  -30.7856   21.3164 C   0  0  1  0  0  0  0  0  0  0  0  0
  -30.2001  -11.4988   21.2073 C   0  0  2  0  0  0  0  0  0  0  0  0
  -26.1832  -30.5143   28.6507 C   0  0  0  0  0  0  0  0  0  0  0  0
  -26.4750  -34.0505   23.0577 C   0  0  0  0  0  0  0  0  0  0  0  0
  -27.3376  -33.6139   25.3672 C   0  0  0  0  0  0  0  0  0  0  0  0
  -24.9579  -34.2828   25.0323 C   0  0  0  0  0  0  0  0  0  0  0  0
  -24.7418  -27.6295   26.6317 C   0  0  0  0  0  0  0  0  0  0  0  0
  -32.1347  -20.3350   19.6619 C   0  0  0  0  0  0  0  0  0  0  0  0
  -29.7861  -20.2226   20.4817 C   0  0  0  0  0  0  0  0  0  0  0  0
  -29.5562  -23.1090   19.5081 C   0  0  0  0  0  0  0  0  0  0  0  0
  -29.5855  -24.6058   19.8080 C   0  0  0  0  0  0  0  0  0  0  0  0
  -30.8290  -22.4299   19.9912 C   0  0  0  0  0  0  0  0  0  0  0  0
  -28.2999  -25.2924   19.3691 C   0  0  0  0  0  0  0  0  0  1  0  0
  -25.6990  -31.9608   24.3605 C   0  0  1  0  0  0  0  0  0  0  0  0
  -25.4119  -29.8699   27.5094 C   0  0  2  0  0  0  0  0  0  0  0  0
  -26.1176  -33.4564   24.4348 C   0  0  0  0  0  0  0  0  0  0  0  0
  -27.9930  -10.4611   21.5724 N   0  0  0  0  0  0  0  0  0  0  0  0
  -29.1627  -10.4320   20.9112 N   0  0  0  0  0  0  0  0  0  0  0  0
  -24.7380  -30.8841   22.3503 N   0  0  0  0  0  0  0  0  0  0  0  0
  -30.5989  -13.8431   21.8521 N   0  0  0  0  0  0  0  0  0  0  0  0
  -30.3774   -9.2261   19.2738 N   0  0  0  0  0  0  0  0  0  0  0  0
  -26.4837   -6.9566   19.5640 N   0  0  0  0  0  0  0  0  0  0  0  0
  -29.8660  -15.2919   20.1415 N   0  0  0  0  0  0  0  0  0  0  0  0
  -23.1636  -31.8239   19.1985 N   0  0  0  0  0  0  0  0  0  0  0  0
  -25.3289  -31.3794   25.6464 N   0  0  0  0  0  0  0  0  0  0  0  0
  -25.4784  -28.3902   27.6737 N   0  3  0  0  0  0  0  0  0  0  0  0
  -30.7753  -20.9906   19.6390 N   0  3  1  0  0  0  0  0  0  0  0  0
  -28.5274   -7.0227   18.5260 O   0  0  0  0  0  0  0  0  0  0  0  0
  -25.1289  -32.3820   20.3158 O   0  0  0  0  0  0  0  0  0  0  0  0
  -23.4491  -32.2941   23.6871 O   0  0  0  0  0  0  0  0  0  0  0  0
  -26.9057  -29.6793   25.6200 O   0  0  0  0  0  0  0  0  0  0  0  0
  -31.6807  -15.8508   21.4743 O   0  0  0  0  0  0  0  0  0  0  0  0
  -22.1933   -8.1899   22.8968 O   0  0  0  0  0  0  0  0  0  0  0  0
  -28.3853  -26.6803   19.6898 O   0  0  0  0  0  0  0  0  0  1  0  0
  -21.0657   -2.9202   24.0645 F   0  0  0  0  0  0  0  0  0  0  0  0
  -21.4109   -7.4365   25.4391 F   0  0  0  0  0  0  0  0  0  0  0  0
  1  2  1  0  0  0  0
  1  6  2  0  0  0  0
  2  7  2  0  0  0  0
  3  9  2  0  0  0  0
  3 10  1  0  0  0  0
  4 11  2  0  0  0  0
  4 19  1  0  0  0  0
  5 12  1  0  0  0  0
  5 19  2  0  0  0  0
  6 21  1  0  0  0  0
  7 23  1  0  0  0  0
  8 13  2  0  0  0  0
  8 22  1  0  0  0  0
  9 25  1  0  0  0  0
 10 26  2  0  0  0  0
 11 27  1  0  0  0  0
 12 27  2  0  0  0  0
 13 28  1  0  0  0  0
 14 15  2  0  0  0  0
 14 29  1  0  0  0  0
 15 30  1  0  0  0  0
 16 24  1  0  0  0  0
 16 28  2  0  0  0  0
 17 25  2  0  0  0  0
 17 26  1  0  0  0  0
 18 30  2  0  0  0  0
 18 31  1  0  0  0  0
 19 32  1  0  0  0  0
 20 32  1  0  0  0  0
 20 33  2  0  0  0  0
 20 34  1  0  0  0  0
 21 23  2  0  0  0  0
 21 39  1  0  0  0  0
 22 24  2  0  0  0  0
 22 40  1  0  0  0  0
 23 48  1  0  0  0  0
 24 41  1  0  0  0  0
 25 57  1  0  0  0  0
 26 71  1  0  0  0  0
 27 81  1  0  0  0  0
 28 82  1  0  0  0  0
 29 31  2  0  0  0  0
 29 81  1  0  0  0  0
 30 83  1  0  0  0  0
 31 84  1  0  0  0  0
 32 65  2  0  0  0  0
 33 66  1  0  0  0  0
 33 69  1  0  0  0  0
 34 70  1  0  0  0  0
 34 76  2  0  0  0  0
 35 49  1  0  0  0  0
 35 72  1  0  0  0  0
 35 77  2  0  0  0  0
 36 62  1  0  0  0  0
 36 67  1  0  0  0  0
 36 78  2  0  0  0  0
 37 63  1  0  0  0  0
 37 73  1  0  0  0  0
 37 79  2  0  0  0  0
 38 68  1  0  0  0  0
 38 71  1  0  0  0  0
 38 80  2  0  0  0  0
 39 42  1  0  0  0  0
 40 49  1  0  0  0  0
 41 67  1  0  0  0  0
 42 44  1  0  0  0  0
 43 45  1  0  0  0  0
 43 46  1  0  0  0  0
 44 48  1  0  0  0  0
 45 50  1  0  0  0  0
 46 68  1  0  0  0  0
 47 50  1  0  0  0  0
 47 68  1  0  0  0  0
 48 72  1  0  0  0  0
 49 67  1  0  0  0  0
 50 66  1  0  0  0  0
 51 63  1  0  0  0  0
 52 64  1  0  0  0  0
 53 64  1  0  0  0  0
 54 64  1  0  0  0  0
 55 74  1  0  0  0  0
 56 75  1  0  0  0  0
 57 75  1  0  0  0  0
 58 59  1  0  0  0  0
 58 60  1  0  0  0  0
 59 61  1  0  0  0  0
 60 75  1  0  0  0  0
 61 82  1  0  0  0  0
 62 64  1  0  0  0  0
 62 73  1  0  0  0  0
 63 74  1  0  0  0  0
 65 66  1  0  0  0  0
M  CHG  2  74   1  75   1
M  ISO  4  38 100  61 101  71 100  82 101
M  END
> <Batch ID>
0024

> <Smiles>
CNC(C)C(=O)NC(C(=O)N1Cc2cc([101O:1][101CH2:1]CCCN(C)Cc3cccc([100NH:0][100C:0](=O)N4CCCC(n5nc(-c6ccc(Oc7ccc(F)cc7F)cc6)c(C(N)=O)c5N)C4)c3)ccc2CC1C(=O)NC1CCCc2ccccc21)C(C)(C)C

> <Shape>
0.285

> <Color>
0.089

> <Negative vol penalty>
0.000

$$$$

  -OEChem-04042321203D

 83 91  0     1  0  0  0  0  0999 V2000
  -28.3285  -38.0351   24.2571 C   0  0  0  0  0  0  0  0  0  0  0  0
  -28.7517  -36.9823   23.4522 C   0  0  0  0  0  0  0  0  0  0  0  0
  -26.4991  -12.5879   21.6264 C   0  0  0  0  0  0  0  0  0  0  0  0
  -26.1070  -13.6197   19.4773 C   0  0  0  0  0  0  0  0  0  0  0  0
  -27.4171  -37.8016   25.2860 C   0  0  0  0  0  0  0  0  0  0  0  0
  -28.2645  -35.6951   23.6764 C   0  0  0  0  0  0  0  0  0  0  0  0
  -27.1077  -31.4095   19.4573 C   0  0  0  0  0  0  0  0  0  0  0  0
  -29.0467  -22.6258   19.6565 C   0  0  0  0  0  0  0  0  0  0  0  0
  -28.5588  -23.6722   18.8738 C   0  0  0  0  0  0  0  0  0  0  0  0
  -25.2362  -11.9981   21.5737 C   0  0  0  0  0  0  0  0  0  0  0  0
  -24.8441  -13.0299   19.4245 C   0  0  0  0  0  0  0  0  0  0  0  0
  -27.8403  -30.3103   19.0115 C   0  0  0  0  0  0  0  0  0  0  0  0
  -23.7877   -9.3441   20.0601 C   0  0  0  0  0  0  0  0  0  0  0  0
  -23.6854   -7.9985   20.4128 C   0  0  0  0  0  0  0  0  0  0  0  0
  -26.6178  -28.8879   20.5285 C   0  0  0  0  0  0  0  0  0  0  0  0
  -28.7901  -21.1113   17.7917 C   0  0  0  0  0  0  0  0  0  0  0  0
  -22.1565   -8.5806   22.1906 C   0  0  0  0  0  0  0  0  0  0  0  0
  -26.9345  -13.3987   20.5782 C   0  0  0  0  0  0  0  0  0  0  0  0
  -29.4489  -13.4719   20.1537 C   0  0  0  0  0  0  0  0  0  0  0  0
  -26.9111  -36.5127   25.5169 C   0  0  0  0  0  0  0  0  0  0  0  0
  -26.1306  -31.2578   20.4515 C   0  0  0  0  0  0  0  0  0  0  0  0
  -27.3465  -35.4440   24.7103 C   0  0  0  0  0  0  0  0  0  0  0  0
  -25.8724  -29.9863   20.9834 C   0  0  0  0  0  0  0  0  0  0  0  0
  -29.1624  -21.3453   19.1154 C   0  0  0  0  0  0  0  0  0  0  0  0
  -28.1865  -23.4382   17.5501 C   0  0  0  0  0  0  0  0  0  0  0  0
  -24.4087  -12.2191   20.4727 C   0  0  0  0  0  0  0  0  0  0  0  0
  -27.5974  -29.0497   19.5492 C   0  0  0  0  0  0  0  0  0  0  0  0
  -23.0744  -10.3080   20.7727 C   0  0  0  0  0  0  0  0  0  0  0  0
  -22.8698   -7.6167   21.4780 C   0  0  0  0  0  0  0  0  0  0  0  0
  -28.3022  -22.1577   17.0090 C   0  0  0  0  0  0  0  0  0  0  0  0
  -22.2588   -9.9263   21.8379 C   0  0  0  0  0  0  0  0  0  0  0  0
  -28.2388  -14.0087   20.6324 C   0  0  0  0  0  0  0  0  0  0  0  0
  -30.3882  -14.4315   20.4421 C   0  0  0  0  0  0  0  0  0  0  0  0
  -29.7013  -12.2178   19.5061 C   0  0  0  0  0  0  0  0  0  0  0  0
  -25.7265  -32.3961   23.3917 C   0  0  0  0  0  0  0  0  0  0  0  0
  -22.8610  -30.8934   23.1599 C   0  0  0  0  0  0  0  0  0  0  0  0
  -20.9842  -28.4426   21.7046 C   0  0  0  0  0  0  0  0  0  0  0  0
  -30.0704  -20.3446   21.2416 C   0  0  0  0  0  0  0  0  0  0  0  0
  -25.9638  -36.3008   26.6712 C   0  0  0  0  0  0  0  0  0  0  0  0
  -25.3304  -32.4489   20.9025 C   0  0  0  0  0  0  0  0  0  0  0  0
  -24.8201  -29.7667   22.0384 C   0  0  0  0  0  0  0  0  0  0  0  0
  -25.2094  -34.9754   26.6045 C   0  0  0  0  0  0  0  0  0  0  0  0
  -31.3155  -17.9463   23.5599 C   0  0  0  0  0  0  0  0  0  0  0  0
  -26.1655  -33.8328   26.2771 C   0  0  0  0  0  0  0  0  0  0  0  0
  -30.7830  -16.6148   23.0253 C   0  0  0  0  0  0  0  0  0  0  0  0
  -30.3084  -19.0786   23.3665 C   0  0  0  0  0  0  0  0  0  0  0  0
  -29.2779  -17.9075   21.4598 C   0  0  0  0  0  0  0  0  0  0  0  0
  -26.8218  -34.0382   24.9065 C   0  0  1  0  0  0  0  0  0  0  0  0
  -24.7162  -32.2667   22.2870 C   0  0  1  0  0  0  0  0  0  0  0  0
  -30.2833  -16.7499   21.5735 C   0  0  2  0  0  0  0  0  0  0  0  0
  -18.6870  -27.4335   21.7472 C   0  0  0  0  0  0  0  0  0  0  0  0
  -23.5380  -29.4686   25.7717 C   0  0  0  0  0  0  0  0  0  0  0  0
  -21.7139  -27.8290   25.2690 C   0  0  0  0  0  0  0  0  0  0  0  0
  -21.1666  -30.2416   25.5893 C   0  0  0  0  0  0  0  0  0  0  0  0
  -27.3043  -24.2478   15.3761 C   0  0  0  0  0  0  0  0  0  0  0  0
  -20.5032  -29.1303   18.8665 C   0  0  0  0  0  0  0  0  0  0  0  0
  -28.8778  -26.5714   17.2541 C   0  0  0  0  0  0  0  0  0  0  0  0
  -27.5504  -25.8242   17.3004 C   0  0  0  0  0  0  0  0  0  0  0  0
  -28.7728  -28.0031   17.7662 C   0  0  0  0  0  0  0  0  0  1  0  0
  -22.3510  -29.5089   23.4792 C   0  0  1  0  0  0  0  0  0  0  0  0
  -19.5937  -28.4663   21.0960 C   0  0  2  0  0  0  0  0  0  0  0  0
  -22.2136  -29.2662   25.0088 C   0  0  0  0  0  0  0  0  0  0  0  0
  -28.3924  -15.2158   21.1833 N   0  0  0  0  0  0  0  0  0  0  0  0
  -29.7101  -15.4452   21.0526 N   0  0  0  0  0  0  0  0  0  0  0  0
  -24.0687  -30.9636   22.4510 N   0  0  0  0  0  0  0  0  0  0  0  0
  -29.8832  -19.1490   21.9669 N   0  0  0  0  0  0  0  0  0  0  0  0
  -31.7198  -14.4987   20.2306 N   0  0  0  0  0  0  0  0  0  0  0  0
  -28.6228  -11.3500   19.2870 N   0  0  0  0  0  0  0  0  0  0  0  0
  -29.6577  -20.2825   19.9110 N   0  0  0  0  0  0  0  0  0  0  0  0
  -25.8997  -33.6892   23.8471 N   0  0  0  0  0  0  0  0  0  0  0  0
  -21.1062  -29.3508   22.7350 N   0  0  0  0  0  0  0  0  0  0  0  0
  -27.6955  -24.4918   16.7658 N   0  0  3  0  0  0  0  0  0  0  0  0
  -19.6625  -28.1771   19.6356 N   0  3  0  0  0  0  0  0  0  0  0  0
  -30.8519  -11.8699   19.1475 O   0  0  0  0  0  0  0  0  0  0  0  0
  -26.3048  -31.3965   23.8017 O   0  0  0  0  0  0  0  0  0  0  0  0
  -22.2082  -31.8763   23.5197 O   0  0  0  0  0  0  0  0  0  0  0  0
  -21.8721  -27.6910   21.3082 O   0  0  0  0  0  0  0  0  0  0  0  0
  -30.5858  -21.3411   21.7549 O   0  0  0  0  0  0  0  0  0  0  0  0
  -23.1764  -11.6435   20.4208 O   0  0  0  0  0  0  0  0  0  0  0  0
  -28.3115  -27.9752   19.1163 O   0  0  0  0  0  0  0  0  0  1  0  0
  -22.7705   -6.3243   21.8156 F   0  0  0  0  0  0  0  0  0  0  0  0
  -27.9456  -21.9214   15.7384 F   0  0  0  0  0  0  0  0  0  0  0  0
  -21.5702  -10.8477   22.5254 F   0  0  0  0  0  0  0  0  0  0  0  0
  1  2  1  0  0  0  0
  1  5  2  0  0  0  0
  2  6  2  0  0  0  0
  3 10  2  0  0  0  0
  3 18  1  0  0  0  0
  4 11  1  0  0  0  0
  4 18  2  0  0  0  0
  5 20  1  0  0  0  0
  6 22  1  0  0  0  0
  7 12  2  0  0  0  0
  7 21  1  0  0  0  0
  8  9  2  0  0  0  0
  8 24  1  0  0  0  0
  9 25  1  0  0  0  0
 10 26  1  0  0  0  0
 11 26  2  0  0  0  0
 12 27  1  0  0  0  0
 13 14  2  0  0  0  0
 13 28  1  0  0  0  0
 14 29  1  0  0  0  0
 15 23  1  0  0  0  0
 15 27  2  0  0  0  0
 16 24  2  0  0  0  0
 16 30  1  0  0  0  0
 17 29  2  0  0  0  0
 17 31  1  0  0  0  0
 18 32  1  0  0  0  0
 19 32  1  0  0  0  0
 19 33  2  0  0  0  0
 19 34  1  0  0  0  0
 20 22  2  0  0  0  0
 20 39  1  0  0  0  0
 21 23  2  0  0  0  0
 21 40  1  0  0  0  0
 22 48  1  0  0  0  0
 23 41  1  0  0  0  0
 24 69  1  0  0  0  0
 25 30  2  0  0  0  0
 25 72  1  0  0  0  0
 26 79  1  0  0  0  0
 27 80  1  0  0  0  0
 28 31  2  0  0  0  0
 28 79  1  0  0  0  0
 29 81  1  0  0  0  0
 30 82  1  0  0  0  0
 31 83  1  0  0  0  0
 32 63  2  0  0  0  0
 33 64  1  0  0  0  0
 33 67  1  0  0  0  0
 34 68  1  0  0  0  0
 34 74  2  0  0  0  0
 35 49  1  0  0  0  0
 35 70  1  0  0  0  0
 35 75  2  0  0  0  0
 36 60  1  0  0  0  0
 36 65  1  0  0  0  0
 36 76  2  0  0  0  0
 37 61  1  0  0  0  0
 37 71  1  0  0  0  0
 37 77  2  0  0  0  0
 38 66  1  0  0  0  0
 38 69  1  0  0  0  0
 38 78  2  0  0  0  0
 39 42  1  0  0  0  0
 40 49  1  0  0  0  0
 41 65  1  0  0  0  0
 42 44  1  0  0  0  0
 43 45  1  0  0  0  0
 43 46  1  0  0  0  0
 44 48  1  0  0  0  0
 45 50  1  0  0  0  0
 46 66  1  0  0  0  0
 47 50  1  0  0  0  0
 47 66  1  0  0  0  0
 48 70  1  0  0  0  0
 49 65  1  0  0  0  0
 50 64  1  0  0  0  0
 51 61  1  0  0  0  0
 52 62  1  0  0  0  0
 53 62  1  0  0  0  0
 54 62  1  0  0  0  0
 55 72  1  0  0  0  0
 56 73  1  0  0  0  0
 57 58  1  0  0  0  0
 57 59  1  0  0  0  0
 58 72  1  0  0  0  0
 59 80  1  0  0  0  0
 60 62  1  0  0  0  0
 60 71  1  0  0  0  0
 61 73  1  0  0  0  0
 63 64  1  0  0  0  0
M  CHG  1  73   1
M  ISO  4  38 100  59 101  69 100  80 101
M  END
> <Batch ID>
0024

> <Smiles>
CNC(C)C(=O)NC(C(=O)N1Cc2cc([101O:1][101CH2:1]CCN(C)c3ccc([100NH:0][100C:0](=O)N4CCCC(n5nc(-c6ccc(Oc7ccc(F)cc7F)cc6)c(C(N)=O)c5N)C4)cc3F)ccc2CC1C(=O)NC1CCCc2ccccc21)C(C)(C)C

> <Shape>
0.328

> <Color>
0.095

> <Negative vol penalty>
0.000

$$$$

  -OEChem-04042321203D

 85 94  0     1  0  0  0  0  0999 V2000
  -22.8339   -9.9405   19.7992 C   0  0  0  0  0  0  0  0  0  0  0  0
  -22.1033  -11.0284   20.2662 C   0  0  0  0  0  0  0  0  0  0  0  0
  -18.3538  -28.1892   23.6505 C   0  0  0  0  0  0  0  0  0  0  0  0
  -30.0267  -27.8458   21.4441 C   0  0  0  0  0  0  0  0  0  0  0  0
  -28.5368  -25.9464   21.5409 C   0  0  0  0  0  0  0  0  0  0  0  0
  -24.2271   -9.9925   19.7844 C   0  0  0  0  0  0  0  0  0  0  0  0
  -22.7656  -12.1686   20.7198 C   0  0  0  0  0  0  0  0  0  0  0  0
  -20.9018  -17.9756   20.1616 C   0  0  0  0  0  0  0  0  0  0  0  0
  -17.9661  -27.0688   22.9157 C   0  0  0  0  0  0  0  0  0  0  0  0
  -19.5731  -28.8114   23.3825 C   0  0  0  0  0  0  0  0  0  0  0  0
  -30.9803  -27.1350   22.1728 C   0  0  0  0  0  0  0  0  0  0  0  0
  -29.4904  -25.2355   22.2695 C   0  0  0  0  0  0  0  0  0  0  0  0
  -20.2545  -18.8416   21.0418 C   0  0  0  0  0  0  0  0  0  0  0  0
  -30.5944  -25.1008   25.4623 C   0  0  0  0  0  0  0  0  0  0  0  0
  -30.1582  -24.3906   26.5807 C   0  0  0  0  0  0  0  0  0  0  0  0
  -22.3848  -19.7776   21.6781 C   0  0  0  0  0  0  0  0  0  0  0  0
  -20.0171  -27.1927   21.6447 C   0  0  0  0  0  0  0  0  0  0  0  0
  -30.9520  -22.3368   25.5860 C   0  0  0  0  0  0  0  0  0  0  0  0
  -28.8049  -27.2516   21.1282 C   0  0  0  0  0  0  0  0  0  0  0  0
  -27.6755  -28.0268   18.9762 C   0  0  0  0  0  0  0  0  0  0  0  0
  -24.9066  -11.1376   20.2290 C   0  0  0  0  0  0  0  0  0  0  0  0
  -22.2988  -17.9966   20.0409 C   0  0  0  0  0  0  0  0  0  0  0  0
  -24.1693  -12.2355   20.7122 C   0  0  0  0  0  0  0  0  0  0  0  0
  -23.0473  -18.9125   20.7938 C   0  0  0  0  0  0  0  0  0  0  0  0
  -18.7978  -26.5706   21.9128 C   0  0  0  0  0  0  0  0  0  0  0  0
  -20.4048  -28.3132   22.3796 C   0  0  0  0  0  0  0  0  0  0  0  0
  -30.7121  -25.8298   22.5855 C   0  0  0  0  0  0  0  0  0  0  0  0
  -20.9962  -19.7408   21.8023 C   0  0  0  0  0  0  0  0  0  0  0  0
  -31.2093  -24.4291   24.4057 C   0  0  0  0  0  0  0  0  0  0  0  0
  -30.3370  -23.0086   26.6426 C   0  0  0  0  0  0  0  0  0  0  0  0
  -31.3881  -23.0471   24.4676 C   0  0  0  0  0  0  0  0  0  0  0  0
  -27.8193  -27.9856   20.3760 C   0  0  0  0  0  0  0  0  0  0  0  0
  -26.6019  -28.8572   18.7656 C   0  0  0  0  0  0  0  0  0  0  0  0
  -17.6569  -23.1851   22.2343 C   0  0  0  0  0  0  0  0  0  0  0  0
  -28.4437  -27.3729   17.9574 C   0  0  0  0  0  0  0  0  0  0  0  0
  -24.6278  -15.8991   20.5704 C   0  0  0  0  0  0  0  0  0  0  0  0
  -26.4825  -18.2170   19.2628 C   0  0  0  0  0  0  0  0  0  0  0  0
  -26.9151  -21.5282   18.5587 C   0  0  0  0  0  0  0  0  0  0  0  0
  -21.9271  -30.3105   22.2767 C   0  0  0  0  0  0  0  0  0  0  0  0
  -26.4147  -11.1290   20.2382 C   0  0  0  0  0  0  0  0  0  0  0  0
  -22.9798  -17.0742   19.0673 C   0  0  0  0  0  0  0  0  0  0  0  0
  -24.5476  -18.9889   20.6861 C   0  0  0  0  0  0  0  0  0  0  0  0
  -27.0308  -12.5179   20.3859 C   0  0  0  0  0  0  0  0  0  0  0  0
  -24.2924  -32.5681   20.7264 C   0  0  0  0  0  0  0  0  0  0  0  0
  -26.3379  -13.2934   21.5018 C   0  0  0  0  0  0  0  0  0  0  0  0
  -25.4583  -31.6511   20.3497 C   0  0  0  0  0  0  0  0  0  0  0  0
  -23.6069  -32.1214   22.0167 C   0  0  0  0  0  0  0  0  0  0  0  0
  -19.7263  -23.5178   22.3857 C   0  0  0  0  0  0  0  0  0  0  0  0
  -24.3560  -29.7992   21.6630 C   0  0  0  0  0  0  0  0  0  0  0  0
  -24.8509  -13.4996   21.1893 C   0  0  1  0  0  0  0  0  0  0  0  0
  -18.8009  -22.3793   22.8942 C   0  0  2  0  0  0  0  0  0  0  0  0
  -24.4474  -16.8285   19.4036 C   0  0  1  0  0  0  0  0  0  0  0  0
  -25.0269  -30.1717   20.3329 C   0  0  2  0  0  0  0  0  0  0  0  0
  -28.5479  -23.1235   17.5164 C   0  0  0  0  0  0  0  0  0  0  0  0
  -28.2403  -18.0393   21.7505 C   0  0  0  0  0  0  0  0  0  0  0  0
  -29.2482  -20.2400   21.1104 C   0  0  0  0  0  0  0  0  0  0  0  0
  -29.4961  -18.2701   19.6001 C   0  0  0  0  0  0  0  0  0  0  0  0
  -24.9658  -22.3541   16.4907 C   0  0  0  0  0  0  0  0  0  0  0  0
  -18.3800  -25.3646   21.1221 C   0  0  0  0  0  0  0  0  0  0  0  0
  -19.0444  -20.9977   22.3186 C   0  0  0  0  0  0  0  0  0  1  0  0
  -27.2454  -19.4047   19.7981 C   0  0  1  0  0  0  0  0  0  0  0  0
  -27.3312  -22.2411   17.2847 C   0  0  2  0  0  0  0  0  0  0  0  0
  -28.5294  -18.9860   20.5684 C   0  0  0  0  0  0  0  0  0  0  0  0
  -26.9098  -28.7306   21.0099 N   0  0  0  0  0  0  0  0  0  0  0  0
  -26.1844  -29.2479   20.0038 N   0  0  0  0  0  0  0  0  0  0  0  0
  -18.5253  -24.1556   21.8728 N   0  0  0  0  0  0  0  0  0  0  0  0
  -25.1679  -18.0621   19.7249 N   0  0  0  0  0  0  0  0  0  0  0  0
  -23.2345  -30.7082   21.9375 N   0  0  0  0  0  0  0  0  0  0  0  0
  -25.9839  -29.2840   17.6439 N   0  0  0  0  0  0  0  0  0  0  0  0
  -29.5128  -26.5552   18.3481 N   0  0  0  0  0  0  0  0  0  0  0  0
  -24.6803  -14.5629   20.2225 N   0  0  0  0  0  0  0  0  0  0  0  0
  -27.4918  -20.2795   18.6569 N   0  0  0  0  0  0  0  0  0  0  0  0
  -21.6475  -28.9482   22.1061 N   0  0  0  0  0  0  0  0  0  0  0  0
  -26.2189  -23.0966   16.7829 N   0  3  0  0  0  0  0  0  0  0  0  0
  -16.4666  -23.0422   22.0744 O   0  0  0  0  0  0  0  0  0  0  0  0
  -28.1999  -27.5228   16.7361 O   0  0  0  0  0  0  0  0  0  0  0  0
  -24.7144  -16.3604   21.7024 O   0  0  0  0  0  0  0  0  0  0  0  0
  -27.0304  -17.4588   18.4587 O   0  0  0  0  0  0  0  0  0  0  0  0
  -26.1575  -22.0304   19.3859 O   0  0  0  0  0  0  0  0  0  0  0  0
  -21.0828  -31.1349   22.6420 O   0  0  0  0  0  0  0  0  0  0  0  0
  -31.6425  -25.1358   23.2963 O   0  0  0  0  0  0  0  0  0  0  0  0
  -20.3670  -20.5868   22.6627 O   0  0  0  0  0  0  0  0  0  1  0  0
  -29.9195  -22.3269   27.7174 F   0  0  0  0  0  0  0  0  0  0  0  0
  -31.9792  -22.3965   23.4561 F   0  0  0  0  0  0  0  0  0  0  0  0
  -22.5911  -28.1811   21.4525 F   0  0  0  0  0  0  0  0  0  0  0  0
  1  2  1  0  0  0  0
  1  6  2  0  0  0  0
  2  7  2  0  0  0  0
  3  9  2  0  0  0  0
  3 10  1  0  0  0  0
  4 11  2  0  0  0  0
  4 19  1  0  0  0  0
  5 12  1  0  0  0  0
  5 19  2  0  0  0  0
  6 21  1  0  0  0  0
  7 23  1  0  0  0  0
  8 13  2  0  0  0  0
  8 22  1  0  0  0  0
  9 25  1  0  0  0  0
 10 26  2  0  0  0  0
 11 27  1  0  0  0  0
 12 27  2  0  0  0  0
 13 28  1  0  0  0  0
 14 15  2  0  0  0  0
 14 29  1  0  0  0  0
 15 30  1  0  0  0  0
 16 24  1  0  0  0  0
 16 28  2  0  0  0  0
 17 25  2  0  0  0  0
 17 26  1  0  0  0  0
 18 30  2  0  0  0  0
 18 31  1  0  0  0  0
 19 32  1  0  0  0  0
 20 32  1  0  0  0  0
 20 33  2  0  0  0  0
 20 35  1  0  0  0  0
 21 23  2  0  0  0  0
 21 40  1  0  0  0  0
 22 24  2  0  0  0  0
 22 41  1  0  0  0  0
 23 50  1  0  0  0  0
 24 42  1  0  0  0  0
 25 59  1  0  0  0  0
 26 73  1  0  0  0  0
 27 81  1  0  0  0  0
 28 82  1  0  0  0  0
 29 31  2  0  0  0  0
 29 81  1  0  0  0  0
 30 83  1  0  0  0  0
 31 84  1  0  0  0  0
 32 64  2  0  0  0  0
 33 65  1  0  0  0  0
 33 69  1  0  0  0  0
 34 51  1  0  0  0  0
 34 66  1  0  0  0  0
 34 75  2  0  0  0  0
 35 70  1  0  0  0  0
 35 76  2  0  0  0  0
 36 52  1  0  0  0  0
 36 71  1  0  0  0  0
 36 77  2  0  0  0  0
 37 61  1  0  0  0  0
 37 67  1  0  0  0  0
 37 78  2  0  0  0  0
 38 62  1  0  0  0  0
 38 72  1  0  0  0  0
 38 79  2  0  0  0  0
 39 68  1  0  0  0  0
 39 73  1  0  0  0  0
 39 80  2  0  0  0  0
 40 43  1  0  0  0  0
 41 52  1  0  0  0  0
 42 67  1  0  0  0  0
 43 45  1  0  0  0  0
 44 46  1  0  0  0  0
 44 47  1  0  0  0  0
 45 50  1  0  0  0  0
 46 53  1  0  0  0  0
 47 68  1  0  0  0  0
 48 51  1  0  0  0  0
 48 66  1  0  0  0  0
 49 53  1  0  0  0  0
 49 68  1  0  0  0  0
 50 71  1  0  0  0  0
 51 60  1  0  0  0  0
 52 67  1  0  0  0  0
 53 65  1  0  0  0  0
 54 62  1  0  0  0  0
 55 63  1  0  0  0  0
 56 63  1  0  0  0  0
 57 63  1  0  0  0  0
 58 74  1  0  0  0  0
 59 66  1  0  0  0  0
 60 82  1  0  0  0  0
 61 63  1  0  0  0  0
 61 72  1  0  0  0  0
 62 74  1  0  0  0  0
 64 65  1  0  0  0  0
 73 85  1  0  0  0  0
M  CHG  1  74   1
M  ISO  4  39 100  60 101  73 100  82 101
M  END
> <Batch ID>
0024

> <Smiles>
CNC(C)C(=O)NC(C(=O)N1Cc2cc([101O:1][101CH2:1]C3CN(Cc4cccc([100N:0](F)[100C:0](=O)N5CCCC(n6nc(-c7ccc(Oc8ccc(F)cc8F)cc7)c(C(N)=O)c6N)C5)c4)C3=O)ccc2CC1C(=O)NC1CCCc2ccccc21)C(C)(C)C

> <Shape>
0.222

> <Color>
0.053

> <Negative vol penalty>
0.000

$$$$

  -OEChem-04042321203D

 87 96  0     1  0  0  0  0  0999 V2000
  -25.2417  -22.9621    9.9694 C   0  0  0  0  0  0  0  0  0  0  0  0
  -24.5478  -22.9344   11.1748 C   0  0  0  0  0  0  0  0  0  0  0  0
  -23.0711   -9.8667   19.9412 C   0  0  0  0  0  0  0  0  0  0  0  0
  -23.8311   -9.8719   22.2345 C   0  0  0  0  0  0  0  0  0  0  0  0
  -26.6304  -22.8384    9.9627 C   0  0  0  0  0  0  0  0  0  0  0  0
  -25.2422  -22.7819   12.3744 C   0  0  0  0  0  0  0  0  0  0  0  0
  -24.9933  -24.7483   19.2582 C   0  0  0  0  0  0  0  0  0  0  0  0
  -22.3258   -8.7143   20.1908 C   0  0  0  0  0  0  0  0  0  0  0  0
  -23.0858   -8.7196   22.4842 C   0  0  0  0  0  0  0  0  0  0  0  0
  -25.0288  -24.1964   20.5380 C   0  0  0  0  0  0  0  0  0  0  0  0
  -19.8568   -7.9254   23.0866 C   0  0  0  0  0  0  0  0  0  0  0  0
  -19.0999   -7.8860   24.2576 C   0  0  0  0  0  0  0  0  0  0  0  0
  -27.4345  -24.0713   20.4107 C   0  0  0  0  0  0  0  0  0  0  0  0
  -30.5944  -19.8585   21.4985 C   0  0  0  0  0  0  0  0  0  0  0  0
  -29.5245  -17.8765   22.3726 C   0  0  0  0  0  0  0  0  0  0  0  0
  -31.1554  -17.6870   20.6002 C   0  0  0  0  0  0  0  0  0  0  0  0
  -20.3390   -5.9468   24.9933 C   0  0  0  0  0  0  0  0  0  0  0  0
  -23.8238  -10.4455   20.9631 C   0  0  0  0  0  0  0  0  0  0  0  0
  -24.1686  -12.9702   20.8439 C   0  0  0  0  0  0  0  0  0  0  0  0
  -27.3430  -22.6939   11.1635 C   0  0  0  0  0  0  0  0  0  0  0  0
  -26.1793  -24.9562   18.5396 C   0  0  0  0  0  0  0  0  0  0  0  0
  -26.6416  -22.6547   12.3837 C   0  0  0  0  0  0  0  0  0  0  0  0
  -27.4115  -24.6284   19.1230 C   0  0  0  0  0  0  0  0  0  0  0  0
  -29.6942  -19.2610   22.3806 C   0  0  0  0  0  0  0  0  0  0  0  0
  -31.3250  -19.0714   20.6082 C   0  0  0  0  0  0  0  0  0  0  0  0
  -30.2551  -17.0895   21.4824 C   0  0  0  0  0  0  0  0  0  0  0  0
  -22.3332   -8.1408   21.4623 C   0  0  0  0  0  0  0  0  0  0  0  0
  -26.2493  -23.8551   21.1133 C   0  0  0  0  0  0  0  0  0  0  0  0
  -20.8548   -6.9755   22.8689 C   0  0  0  0  0  0  0  0  0  0  0  0
  -19.3410   -6.8967   25.2109 C   0  0  0  0  0  0  0  0  0  0  0  0
  -21.0959   -5.9862   23.8223 C   0  0  0  0  0  0  0  0  0  0  0  0
  -24.5943  -11.6355   20.7057 C   0  0  0  0  0  0  0  0  0  0  0  0
  -25.2616  -13.7185   20.4808 C   0  0  0  0  0  0  0  0  0  0  0  0
  -22.8988  -13.4874   21.2631 C   0  0  0  0  0  0  0  0  0  0  0  0
  -27.3639  -23.8606   15.8009 C   0  0  0  0  0  0  0  0  0  0  0  0
  -29.7064  -26.0232   16.3997 C   0  0  0  0  0  0  0  0  0  0  0  0
  -31.4099  -27.8884   18.6944 C   0  0  0  0  0  0  0  0  0  0  0  0
  -30.7291  -14.7575   20.6555 C   0  0  0  0  0  0  0  0  0  0  0  0
  -28.8395  -22.5163   11.1027 C   0  0  0  0  0  0  0  0  0  0  0  0
  -26.1259  -25.5773   17.1707 C   0  0  0  0  0  0  0  0  0  0  0  0
  -28.7147  -24.8504   18.4013 C   0  0  0  0  0  0  0  0  0  0  0  0
  -29.5338  -22.7343   12.4446 C   0  0  0  0  0  0  0  0  0  0  0  0
  -29.6116  -12.3459   18.2865 C   0  0  0  0  0  0  0  0  0  0  0  0
  -28.7951  -21.9931   13.5545 C   0  0  0  0  0  0  0  0  0  0  0  0
  -28.1717  -12.0559   18.7160 C   0  0  0  0  0  0  0  0  0  0  0  0
  -30.5271  -12.5732   19.4881 C   0  0  0  0  0  0  0  0  0  0  0  0
  -28.6211  -13.2994   20.8698 C   0  0  0  0  0  0  0  0  0  0  0  0
  -27.3501  -21.1120   21.7410 C   0  0  0  0  0  0  0  0  0  0  0  0
  -26.8055  -21.2861   23.7592 C   0  0  0  0  0  0  0  0  0  0  0  0
  -27.3616  -22.5158   13.7075 C   0  0  1  0  0  0  0  0  0  0  0  0
  -27.3581  -25.2685   16.3259 C   0  0  1  0  0  0  0  0  0  0  0  0
  -27.6480  -13.1277   19.6920 C   0  0  2  0  0  0  0  0  0  0  0  0
  -26.2142  -21.8782   22.4587 C   0  0  0  0  0  0  0  0  0  1  0  0
  -24.8029  -21.4122   22.1274 C   0  0  0  0  0  0  0  0  0  0  0  0
  -33.2964  -29.5318   18.8878 C   0  0  0  0  0  0  0  0  0  0  0  0
  -33.4003  -20.4887   20.4337 C   0  0  0  0  0  0  0  0  0  0  0  0
  -31.5683  -20.7256   18.7237 C   0  0  0  0  0  0  0  0  0  0  0  0
  -33.0483  -18.7278   18.7141 C   0  0  0  0  0  0  0  0  0  0  0  0
  -31.7161  -23.7517   16.0657 C   0  0  0  0  0  0  0  0  0  0  0  0
  -33.4296  -25.1971   17.1807 C   0  0  0  0  0  0  0  0  0  0  0  0
  -32.4065  -25.9173   15.0226 C   0  0  0  0  0  0  0  0  0  0  0  0
  -29.6241  -29.9880   19.7723 C   0  0  0  0  0  0  0  0  0  0  0  0
  -28.9083  -20.1077   23.3380 C   0  0  0  0  0  0  0  0  0  0  0  0
  -31.0232  -25.9962   17.1374 C   0  0  1  0  0  0  0  0  0  0  0  0
  -31.7960  -29.3564   18.7126 C   0  0  2  0  0  0  0  0  0  0  0  0
  -32.2877  -19.7104   19.6652 C   0  0  0  0  0  0  0  0  0  0  0  0
  -32.1193  -25.2095   16.3647 C   0  0  0  0  0  0  0  0  0  0  0  0
  -25.8590  -11.5383   20.2873 N   0  0  0  0  0  0  0  0  0  0  0  0
  -26.2374  -12.8215   20.1594 N   0  0  0  0  0  0  0  0  0  0  0  0
  -28.6097  -25.4545   17.0628 N   0  0  0  0  0  0  0  0  0  0  0  0
  -29.9694  -13.6044   20.3659 N   0  0  0  0  0  0  0  0  0  0  0  0
  -25.4736  -15.0498   20.4083 N   0  0  0  0  0  0  0  0  0  0  0  0
  -21.8858  -12.5793   21.6001 N   0  0  0  0  0  0  0  0  0  0  0  0
  -30.0829  -15.6831   21.4743 N   0  0  0  0  0  0  0  0  0  0  0  0
  -27.3560  -23.7744   14.4218 N   0  0  0  0  0  0  0  0  0  0  0  0
  -31.3667  -27.3875   17.4105 N   0  0  0  0  0  0  0  0  0  0  0  0
  -27.4917  -20.2680   22.9420 N   0  3  0  0  0  0  0  0  0  0  0  0
  -31.1068  -30.0594   19.8314 N   0  3  0  0  0  0  0  0  0  0  0  0
  -22.6640  -14.7183   21.3209 O   0  0  0  0  0  0  0  0  0  0  0  0
  -27.3762  -22.9221   16.5887 O   0  0  0  0  0  0  0  0  0  0  0  0
  -29.6512  -26.5365   15.2794 O   0  0  0  0  0  0  0  0  0  0  0  0
  -31.1740  -27.2489   19.7172 O   0  0  0  0  0  0  0  0  0  0  0  0
  -31.8583  -14.9251   20.1879 O   0  0  0  0  0  0  0  0  0  0  0  0
  -21.6059   -7.0165   21.7063 O   0  0  0  0  0  0  0  0  0  0  0  0
  -26.2868  -23.3156   22.3621 O   0  0  0  0  0  0  0  0  0  1  0  0
  -18.6151   -6.8599   26.3360 F   0  0  0  0  0  0  0  0  0  0  0  0
  -22.0541   -5.0716   23.6192 F   0  0  0  0  0  0  0  0  0  0  0  0
  1  2  1  0  0  0  0
  1  5  2  0  0  0  0
  2  6  2  0  0  0  0
  3  8  2  0  0  0  0
  3 18  1  0  0  0  0
  4  9  1  0  0  0  0
  4 18  2  0  0  0  0
  5 20  1  0  0  0  0
  6 22  1  0  0  0  0
  7 10  2  0  0  0  0
  7 21  1  0  0  0  0
  8 27  1  0  0  0  0
  9 27  2  0  0  0  0
 10 28  1  0  0  0  0
 11 12  2  0  0  0  0
 11 29  1  0  0  0  0
 12 30  1  0  0  0  0
 13 23  1  0  0  0  0
 13 28  2  0  0  0  0
 14 24  2  0  0  0  0
 14 25  1  0  0  0  0
 15 24  1  0  0  0  0
 15 26  2  0  0  0  0
 16 25  2  0  0  0  0
 16 26  1  0  0  0  0
 17 30  2  0  0  0  0
 17 31  1  0  0  0  0
 18 32  1  0  0  0  0
 19 32  1  0  0  0  0
 19 33  2  0  0  0  0
 19 34  1  0  0  0  0
 20 22  2  0  0  0  0
 20 39  1  0  0  0  0
 21 23  2  0  0  0  0
 21 40  1  0  0  0  0
 22 50  1  0  0  0  0
 23 41  1  0  0  0  0
 24 63  1  0  0  0  0
 25 66  1  0  0  0  0
 26 74  1  0  0  0  0
 27 84  1  0  0  0  0
 28 85  1  0  0  0  0
 29 31  2  0  0  0  0
 29 84  1  0  0  0  0
 30 86  1  0  0  0  0
 31 87  1  0  0  0  0
 32 68  2  0  0  0  0
 33 69  1  0  0  0  0
 33 72  1  0  0  0  0
 34 73  1  0  0  0  0
 34 79  2  0  0  0  0
 35 51  1  0  0  0  0
 35 75  1  0  0  0  0
 35 80  2  0  0  0  0
 36 64  1  0  0  0  0
 36 70  1  0  0  0  0
 36 81  2  0  0  0  0
 37 65  1  0  0  0  0
 37 76  1  0  0  0  0
 37 82  2  0  0  0  0
 38 71  1  0  0  0  0
 38 74  1  0  0  0  0
 38 83  2  0  0  0  0
 39 42  1  0  0  0  0
 40 51  1  0  0  0  0
 41 70  1  0  0  0  0
 42 44  1  0  0  0  0
 43 45  1  0  0  0  0
 43 46  1  0  0  0  0
 44 50  1  0  0  0  0
 45 52  1  0  0  0  0
 46 71  1  0  0  0  0
 47 52  1  0  0  0  0
 47 71  1  0  0  0  0
 48 53  1  0  0  0  0
 48 77  1  0  0  0  0
 49 53  1  0  0  0  0
 49 77  1  0  0  0  0
 50 75  1  0  0  0  0
 51 70  1  0  0  0  0
 52 69  1  0  0  0  0
 53 54  1  0  0  0  0
 53 85  1  0  0  0  0
 55 65  1  0  0  0  0
 56 66  1  0  0  0  0
 57 66  1  0  0  0  0
 58 66  1  0  0  0  0
 59 67  1  0  0  0  0
 60 67  1  0  0  0  0
 61 67  1  0  0  0  0
 62 78  1  0  0  0  0
 63 77  1  0  0  0  0
 64 67  1  0  0  0  0
 64 76  1  0  0  0  0
 65 78  1  0  0  0  0
 68 69  1  0  0  0  0
M  CHG  2  77   1  78   1
M  ISO  4  38 100  53 101  74 100  85 101
M  END
> <Batch ID>
0024

> <Smiles>
CNC(C)C(=O)NC(C(=O)N1Cc2cc([101O:1][101C:1]3(C)CN(Cc4cc([100NH:0][100C:0](=O)N5CCCC(n6nc(-c7ccc(Oc8ccc(F)cc8F)cc7)c(C(N)=O)c6N)C5)cc(C(C)(C)C)c4)C3)ccc2CC1C(=O)NC1CCCc2ccccc21)C(C)(C)C

> <Shape>
0.213

> <Color>
0.184

> <Negative vol penalty>
0.000

$$$$

  -OEChem-04042321203D

 86 95  0     1  0  0  0  0  0999 V2000
  -29.8507  -36.6767   23.0785 C   0  0  0  0  0  0  0  0  0  0  0  0
  -30.0093  -35.4543   22.4336 C   0  0  0  0  0  0  0  0  0  0  0  0
  -23.3885   -8.7074   19.2701 C   0  0  0  0  0  0  0  0  0  0  0  0
  -24.7986   -8.2967   21.1885 C   0  0  0  0  0  0  0  0  0  0  0  0
  -28.9335  -36.7996   24.1213 C   0  0  0  0  0  0  0  0  0  0  0  0
  -29.2515  -34.3536   22.8319 C   0  0  0  0  0  0  0  0  0  0  0  0
  -27.0703  -29.8937   19.2463 C   0  0  0  0  0  0  0  0  0  0  0  0
  -27.8334  -19.5511   18.7262 C   0  0  0  0  0  0  0  0  0  0  0  0
  -27.9522  -18.1748   18.9190 C   0  0  0  0  0  0  0  0  0  0  0  0
  -22.2875   -8.2217   19.9754 C   0  0  0  0  0  0  0  0  0  0  0  0
  -23.6976   -7.8110   21.8938 C   0  0  0  0  0  0  0  0  0  0  0  0
  -27.5280  -28.6068   18.9663 C   0  0  0  0  0  0  0  0  0  0  0  0
  -21.8973   -4.9531   22.0422 C   0  0  0  0  0  0  0  0  0  0  0  0
  -22.0614   -3.7729   22.7673 C   0  0  0  0  0  0  0  0  0  0  0  0
  -26.0525  -27.7208   20.6566 C   0  0  0  0  0  0  0  0  0  0  0  0
  -30.1669  -19.8311   19.2859 C   0  0  0  0  0  0  0  0  0  0  0  0
  -21.4933   -4.9443   24.8025 C   0  0  0  0  0  0  0  0  0  0  0  0
  -24.6441   -8.7449   19.8766 C   0  0  0  0  0  0  0  0  0  0  0  0
  -26.3110   -8.7410   17.9455 C   0  0  0  0  0  0  0  0  0  0  0  0
  -28.1571  -35.7023   24.5263 C   0  0  0  0  0  0  0  0  0  0  0  0
  -26.1066  -30.1052   20.2427 C   0  0  0  0  0  0  0  0  0  0  0  0
  -28.3240  -34.4616   23.8820 C   0  0  0  0  0  0  0  0  0  0  0  0
  -25.5823  -29.0110   20.9455 C   0  0  0  0  0  0  0  0  0  0  0  0
  -28.9407  -20.3793   18.9096 C   0  0  0  0  0  0  0  0  0  0  0  0
  -29.1784  -17.6266   19.2953 C   0  0  0  0  0  0  0  0  0  0  0  0
  -22.4421   -7.7735   21.2872 C   0  0  0  0  0  0  0  0  0  0  0  0
  -27.0213  -27.5205   19.6735 C   0  0  0  0  0  0  0  0  0  0  0  0
  -21.5312   -6.1289   22.6972 C   0  0  0  0  0  0  0  0  0  0  0  0
  -21.8594   -3.7685   24.1474 C   0  0  0  0  0  0  0  0  0  0  0  0
  -30.2858  -18.4547   19.4788 C   0  0  0  0  0  0  0  0  0  0  0  0
  -21.3292   -6.1245   24.0774 C   0  0  0  0  0  0  0  0  0  0  0  0
  -25.7819   -9.2460   19.1484 C   0  0  0  0  0  0  0  0  0  0  0  0
  -27.3788   -9.5596   17.6697 C   0  0  0  0  0  0  0  0  0  0  0  0
  -27.8937  -22.3285   17.7878 C   0  0  0  0  0  0  0  0  0  0  0  0
  -25.8760   -7.6313   17.1487 C   0  0  0  0  0  0  0  0  0  0  0  0
  -26.0336  -31.7028   22.9897 C   0  0  0  0  0  0  0  0  0  0  0  0
  -22.9001  -30.8654   22.9442 C   0  0  0  0  0  0  0  0  0  0  0  0
  -20.4901  -28.7213   21.8301 C   0  0  0  0  0  0  0  0  0  0  0  0
  -28.2988  -15.2586   19.3527 C   0  0  0  0  0  0  0  0  0  0  0  0
  -27.2126  -35.8714   25.6898 C   0  0  0  0  0  0  0  0  0  0  0  0
  -25.6037  -31.4966   20.5141 C   0  0  0  0  0  0  0  0  0  0  0  0
  -24.5316  -29.1825   22.0108 C   0  0  0  0  0  0  0  0  0  0  0  0
  -27.6160  -23.8183   17.8793 C   0  0  0  0  0  0  0  0  0  0  0  0
  -26.1793  -34.7534   25.8029 C   0  0  0  0  0  0  0  0  0  0  0  0
  -30.2370  -12.1774   20.5667 C   0  0  0  0  0  0  0  0  0  0  0  0
  -26.8477  -33.3910   25.6485 C   0  0  0  0  0  0  0  0  0  0  0  0
  -29.6915  -11.1351   19.5934 C   0  0  0  0  0  0  0  0  0  0  0  0
  -29.4066  -24.1153   19.5395 C   0  0  0  0  0  0  0  0  0  0  0  0
  -30.1108  -13.5956   20.0246 C   0  0  0  0  0  0  0  0  0  0  0  0
  -29.8296  -22.6675   19.3467 C   0  0  0  0  0  0  0  0  0  0  0  0
  -27.7818  -12.8318   19.5262 C   0  0  0  0  0  0  0  0  0  0  0  0
  -27.5025  -33.2510   24.2689 C   0  0  1  0  0  0  0  0  0  0  0  0
  -24.9955  -31.6515   21.9046 C   0  0  1  0  0  0  0  0  0  0  0  0
  -28.8300  -24.6576   18.2419 C   0  0  2  0  0  0  0  0  0  0  0  0
  -28.4184  -11.6019   18.8603 C   0  0  2  0  0  0  0  0  0  0  0  0
  -18.0268  -28.2703   21.9924 C   0  0  0  0  0  0  0  0  0  0  0  0
  -23.2994  -29.7023   25.7367 C   0  0  0  0  0  0  0  0  0  0  0  0
  -21.1438  -28.4612   25.4521 C   0  0  0  0  0  0  0  0  0  0  0  0
  -21.1577  -30.9555   25.4250 C   0  0  0  0  0  0  0  0  0  0  0  0
  -20.1116  -29.0978   18.9191 C   0  0  0  0  0  0  0  0  0  0  0  0
  -28.4545  -26.1304   18.3815 C   0  0  0  0  0  0  0  0  0  1  0  0
  -22.1003  -29.6892   23.4502 C   0  0  1  0  0  0  0  0  0  0  0  0
  -19.1268  -28.9719   21.2111 C   0  0  2  0  0  0  0  0  0  0  0  0
  -21.9465  -29.6987   24.9973 C   0  0  0  0  0  0  0  0  0  0  0  0
  -26.4581  -10.3034   19.6053 N   0  0  0  0  0  0  0  0  0  0  0  0
  -27.4230  -10.4695   18.6848 N   0  0  0  0  0  0  0  0  0  0  0  0
  -28.8175  -21.8076   18.7103 N   0  0  0  0  0  0  0  0  0  0  0  0
  -24.0766  -30.5631   22.2440 N   0  0  0  0  0  0  0  0  0  0  0  0
  -28.7397  -13.9395   19.6210 N   0  0  0  0  0  0  0  0  0  0  0  0
  -28.2750   -9.5827   16.6604 N   0  0  0  0  0  0  0  0  0  0  0  0
  -26.4129   -6.3648   17.4173 N   0  0  0  0  0  0  0  0  0  0  0  0
  -29.2959  -16.2277   19.4909 N   0  0  0  0  0  0  0  0  0  0  0  0
  -26.5021  -32.9743   23.2604 N   0  0  0  0  0  0  0  0  0  0  0  0
  -20.8354  -29.7130   22.7237 N   0  0  0  0  0  0  0  0  0  0  0  0
  -19.0963  -28.4745   19.8066 N   0  3  0  0  0  0  0  0  0  0  0  0
  -27.2565  -21.6693   16.9617 O   0  0  0  0  0  0  0  0  0  0  0  0
  -25.0484   -7.7619   16.2152 O   0  0  0  0  0  0  0  0  0  0  0  0
  -26.3826  -30.6658   23.5415 O   0  0  0  0  0  0  0  0  0  0  0  0
  -22.4921  -32.0101   23.1561 O   0  0  0  0  0  0  0  0  0  0  0  0
  -21.1781  -27.7416   21.5518 O   0  0  0  0  0  0  0  0  0  0  0  0
  -27.1369  -15.4975   19.0167 O   0  0  0  0  0  0  0  0  0  0  0  0
  -21.3679   -7.2996   21.9758 O   0  0  0  0  0  0  0  0  0  0  0  0
  -27.4668  -26.2635   19.4028 O   0  0  0  0  0  0  0  0  0  1  0  0
  -22.0156   -2.6347   24.8434 F   0  0  0  0  0  0  0  0  0  0  0  0
  -31.4689  -17.9390   19.8419 F   0  0  0  0  0  0  0  0  0  0  0  0
  -20.9762   -7.2507   24.7121 F   0  0  0  0  0  0  0  0  0  0  0  0
  1  2  1  0  0  0  0
  1  5  2  0  0  0  0
  2  6  2  0  0  0  0
  3 10  2  0  0  0  0
  3 18  1  0  0  0  0
  4 11  1  0  0  0  0
  4 18  2  0  0  0  0
  5 20  1  0  0  0  0
  6 22  1  0  0  0  0
  7 12  2  0  0  0  0
  7 21  1  0  0  0  0
  8  9  2  0  0  0  0
  8 24  1  0  0  0  0
  9 25  1  0  0  0  0
 10 26  1  0  0  0  0
 11 26  2  0  0  0  0
 12 27  1  0  0  0  0
 13 14  2  0  0  0  0
 13 28  1  0  0  0  0
 14 29  1  0  0  0  0
 15 23  1  0  0  0  0
 15 27  2  0  0  0  0
 16 24  2  0  0  0  0
 16 30  1  0  0  0  0
 17 29  2  0  0  0  0
 17 31  1  0  0  0  0
 18 32  1  0  0  0  0
 19 32  1  0  0  0  0
 19 33  2  0  0  0  0
 19 35  1  0  0  0  0
 20 22  2  0  0  0  0
 20 40  1  0  0  0  0
 21 23  2  0  0  0  0
 21 41  1  0  0  0  0
 22 52  1  0  0  0  0
 23 42  1  0  0  0  0
 24 67  1  0  0  0  0
 25 30  2  0  0  0  0
 25 72  1  0  0  0  0
 26 82  1  0  0  0  0
 27 83  1  0  0  0  0
 28 31  2  0  0  0  0
 28 82  1  0  0  0  0
 29 84  1  0  0  0  0
 30 85  1  0  0  0  0
 31 86  1  0  0  0  0
 32 65  2  0  0  0  0
 33 66  1  0  0  0  0
 33 70  1  0  0  0  0
 34 43  1  0  0  0  0
 34 67  1  0  0  0  0
 34 76  2  0  0  0  0
 35 71  1  0  0  0  0
 35 77  2  0  0  0  0
 36 53  1  0  0  0  0
 36 73  1  0  0  0  0
 36 78  2  0  0  0  0
 37 62  1  0  0  0  0
 37 68  1  0  0  0  0
 37 79  2  0  0  0  0
 38 63  1  0  0  0  0
 38 74  1  0  0  0  0
 38 80  2  0  0  0  0
 39 69  1  0  0  0  0
 39 72  1  0  0  0  0
 39 81  2  0  0  0  0
 40 44  1  0  0  0  0
 41 53  1  0  0  0  0
 42 68  1  0  0  0  0
 43 54  1  0  0  0  0
 44 46  1  0  0  0  0
 45 47  1  0  0  0  0
 45 49  1  0  0  0  0
 46 52  1  0  0  0  0
 47 55  1  0  0  0  0
 48 50  1  0  0  0  0
 48 54  1  0  0  0  0
 49 69  1  0  0  0  0
 50 67  1  0  0  0  0
 51 55  1  0  0  0  0
 51 69  1  0  0  0  0
 52 73  1  0  0  0  0
 53 68  1  0  0  0  0
 54 61  1  0  0  0  0
 55 66  1  0  0  0  0
 56 63  1  0  0  0  0
 57 64  1  0  0  0  0
 58 64  1  0  0  0  0
 59 64  1  0  0  0  0
 60 75  1  0  0  0  0
 61 83  1  0  0  0  0
 62 64  1  0  0  0  0
 62 74  1  0  0  0  0
 63 75  1  0  0  0  0
 65 66  1  0  0  0  0
M  CHG  1  75   1
M  ISO  4  39 100  61 101  72 100  83 101
M  END
> <Batch ID>
0024

> <Smiles>
CNC(C)C(=O)NC(C(=O)N1Cc2cc([101O:1][101CH2:1]C3CCN(c4ccc([100NH:0][100C:0](=O)N5CCCC(n6nc(-c7ccc(Oc8ccc(F)cc8F)cc7)c(C(N)=O)c6N)C5)c(F)c4)C(=O)C3)ccc2CC1C(=O)NC1CCCc2ccccc21)C(C)(C)C

> <Shape>
0.315

> <Color>
0.099

> <Negative vol penalty>
0.000

$$$$

  -OEChem-04042321203D

 88 97  0     1  0  0  0  0  0999 V2000
  -31.0155  -27.9596   19.5470 C   0  0  0  0  0  0  0  0  0  0  0  0
  -30.7972  -27.2080   20.6971 C   0  0  0  0  0  0  0  0  0  0  0  0
  -23.0742   -9.8676   19.9466 C   0  0  0  0  0  0  0  0  0  0  0  0
  -23.8418   -9.8746   22.2374 C   0  0  0  0  0  0  0  0  0  0  0  0
  -31.6150  -27.3711   18.4343 C   0  0  0  0  0  0  0  0  0  0  0  0
  -31.1775  -25.8669   20.7349 C   0  0  0  0  0  0  0  0  0  0  0  0
  -33.3146  -22.7810   25.5738 C   0  0  0  0  0  0  0  0  0  0  0  0
  -29.5106  -18.4446   23.3677 C   0  0  0  0  0  0  0  0  0  0  0  0
  -29.1171  -18.8788   24.6335 C   0  0  0  0  0  0  0  0  0  0  0  0
  -22.3328   -8.7133   20.1985 C   0  0  0  0  0  0  0  0  0  0  0  0
  -23.1004   -8.7203   22.4894 C   0  0  0  0  0  0  0  0  0  0  0  0
  -32.7017  -21.9184   26.4815 C   0  0  0  0  0  0  0  0  0  0  0  0
  -19.8754   -7.9176   23.1024 C   0  0  0  0  0  0  0  0  0  0  0  0
  -19.1225   -7.8760   24.2758 C   0  0  0  0  0  0  0  0  0  0  0  0
  -33.4439  -20.0291   25.1781 C   0  0  0  0  0  0  0  0  0  0  0  0
  -30.8677  -16.7214   24.3806 C   0  0  0  0  0  0  0  0  0  0  0  0
  -20.3691   -5.9399   25.0071 C   0  0  0  0  0  0  0  0  0  0  0  0
  -23.8288  -10.4483   20.9661 C   0  0  0  0  0  0  0  0  0  0  0  0
  -24.1666  -12.9740   20.8461 C   0  0  0  0  0  0  0  0  0  0  0  0
  -32.0116  -26.0247   18.4618 C   0  0  0  0  0  0  0  0  0  0  0  0
  -33.9886  -22.2737   24.4536 C   0  0  0  0  0  0  0  0  0  0  0  0
  -31.7817  -25.2594   19.6210 C   0  0  0  0  0  0  0  0  0  0  0  0
  -34.0667  -20.8873   24.2591 C   0  0  0  0  0  0  0  0  0  0  0  0
  -30.3859  -17.3659   23.2412 C   0  0  0  0  0  0  0  0  0  0  0  0
  -30.4743  -17.1557   25.6464 C   0  0  0  0  0  0  0  0  0  0  0  0
  -29.5990  -18.2344   25.7728 C   0  0  0  0  0  0  0  0  0  0  0  0
  -22.3459   -8.1396   21.4699 C   0  0  0  0  0  0  0  0  0  0  0  0
  -32.7638  -20.5424   26.2822 C   0  0  0  0  0  0  0  0  0  0  0  0
  -20.8752   -6.9703   22.8812 C   0  0  0  0  0  0  0  0  0  0  0  0
  -19.3693   -6.8872   25.2282 C   0  0  0  0  0  0  0  0  0  0  0  0
  -21.1220   -5.9815   23.8336 C   0  0  0  0  0  0  0  0  0  0  0  0
  -24.5953  -11.6404   20.7063 C   0  0  0  0  0  0  0  0  0  0  0  0
  -25.2564  -13.7252   20.4795 C   0  0  0  0  0  0  0  0  0  0  0  0
  -22.8968  -13.4878   21.2696 C   0  0  0  0  0  0  0  0  0  0  0  0
  -33.6230  -22.5355   21.3070 C   0  0  0  0  0  0  0  0  0  0  0  0
  -36.4115  -20.8797   21.2374 C   0  0  0  0  0  0  0  0  0  0  0  0
  -38.5505  -18.7398   22.8162 C   0  0  0  0  0  0  0  0  0  0  0  0
  -30.7393  -14.7520   20.6499 C   0  0  0  0  0  0  0  0  0  0  0  0
  -32.6129  -25.4196   17.2181 C   0  0  0  0  0  0  0  0  0  0  0  0
  -34.6674  -23.2164   23.4982 C   0  0  0  0  0  0  0  0  0  0  0  0
  -34.7954  -20.2913   23.0834 C   0  0  0  0  0  0  0  0  0  0  0  0
  -33.3271  -24.0941   17.4697 C   0  0  0  0  0  0  0  0  0  0  0  0
  -29.5971  -12.3670   18.2658 C   0  0  0  0  0  0  0  0  0  0  0  0
  -27.8516  -18.6040   28.9400 C   0  0  0  0  0  0  0  0  0  0  0  0
  -32.4663  -23.1798   18.3356 C   0  0  0  0  0  0  0  0  0  0  0  0
  -28.1615  -12.0710   18.7035 C   0  0  0  0  0  0  0  0  0  0  0  0
  -29.1200  -19.3654   29.2818 C   0  0  0  0  0  0  0  0  0  0  0  0
  -27.7933  -18.6911   27.4198 C   0  0  0  0  0  0  0  0  0  0  0  0
  -30.5179  -12.5885   19.4637 C   0  0  0  0  0  0  0  0  0  0  0  0
  -28.6198  -13.3162   20.8571 C   0  0  0  0  0  0  0  0  0  0  0  0
  -32.2027  -23.8086   19.7092 C   0  0  1  0  0  0  0  0  0  0  0  0
  -34.8872  -22.6102   22.1156 C   0  0  1  0  0  0  0  0  0  0  0  0
  -27.6420  -13.1408   19.6826 C   0  0  2  0  0  0  0  0  0  0  0  0
  -30.0880  -19.0021   28.1423 C   0  0  2  0  0  0  0  0  0  0  0  0
  -40.7299  -17.5384   22.4932 C   0  0  0  0  0  0  0  0  0  0  0  0
  -35.0321  -18.8783   19.3931 C   0  0  0  0  0  0  0  0  0  0  0  0
  -36.8858  -17.2651   19.8721 C   0  0  0  0  0  0  0  0  0  0  0  0
  -37.3839  -19.4380   18.7526 C   0  0  0  0  0  0  0  0  0  0  0  0
  -39.7842  -20.1145   25.1285 C   0  0  0  0  0  0  0  0  0  0  0  0
  -30.9291  -14.4170   28.2901 C   0  0  0  0  0  0  0  0  0  0  0  0
  -28.8675  -15.2035   27.1362 C   0  0  0  0  0  0  0  0  0  0  0  0
  -30.8063  -16.9020   21.8876 C   0  0  0  0  0  0  0  0  0  0  0  0
  -31.0057  -16.4472   26.8498 C   0  0  0  0  0  0  0  0  0  0  0  0
  -31.0074  -20.1822   27.8447 C   0  0  0  0  0  0  0  0  0  1  0  0
  -36.7863  -19.4176   21.2091 C   0  0  1  0  0  0  0  0  0  0  0  0
  -40.0529  -18.7910   23.0274 C   0  0  2  0  0  0  0  0  0  0  0  0
  -36.5065  -18.7607   19.8279 C   0  0  0  0  0  0  0  0  0  0  0  0
  -25.8588  -11.5465   20.2837 N   0  0  0  0  0  0  0  0  0  0  0  0
  -26.2335  -12.8307   20.1548 N   0  0  0  0  0  0  0  0  0  0  0  0
  -29.1990  -18.6775   27.0178 N   0  0  3  0  0  0  0  0  0  0  0  0
  -35.4376  -21.2546   22.1738 N   0  0  0  0  0  0  0  0  0  0  0  0
  -29.9689  -13.6158   20.3521 N   0  0  0  0  0  0  0  0  0  0  0  0
  -25.4647  -15.0570   20.4065 N   0  0  0  0  0  0  0  0  0  0  0  0
  -21.8873  -12.5770   21.6098 N   0  0  0  0  0  0  0  0  0  0  0  0
  -33.3649  -23.6692   20.5603 N   0  0  0  0  0  0  0  0  0  0  0  0
  -38.1801  -19.3451   21.6340 N   0  0  0  0  0  0  0  0  0  0  0  0
  -30.1417  -15.6795   21.4944 N   0  0  0  0  0  0  0  0  0  0  0  0
  -40.3680  -18.9129   24.4789 N   0  3  0  0  0  0  0  0  0  0  0  0
  -30.3716  -15.1208   27.0792 N   0  3  0  0  0  0  0  0  0  0  0  0
  -22.6590  -14.7180   21.3283 O   0  0  0  0  0  0  0  0  0  0  0  0
  -32.9336  -21.5236   21.3557 O   0  0  0  0  0  0  0  0  0  0  0  0
  -36.9677  -21.6616   20.4623 O   0  0  0  0  0  0  0  0  0  0  0  0
  -37.7827  -18.2121   23.6177 O   0  0  0  0  0  0  0  0  0  0  0  0
  -31.8735  -14.9293   20.1926 O   0  0  0  0  0  0  0  0  0  0  0  0
  -21.6224   -7.0134   21.7161 O   0  0  0  0  0  0  0  0  0  0  0  0
  -32.1658  -19.6982   27.1664 O   0  0  0  0  0  0  0  0  0  1  0  0
  -18.6472   -6.8483   26.3557 F   0  0  0  0  0  0  0  0  0  0  0  0
  -22.0820   -5.0695   23.6273 F   0  0  0  0  0  0  0  0  0  0  0  0
  1  2  1  0  0  0  0
  1  5  2  0  0  0  0
  2  6  2  0  0  0  0
  3 10  2  0  0  0  0
  3 18  1  0  0  0  0
  4 11  1  0  0  0  0
  4 18  2  0  0  0  0
  5 20  1  0  0  0  0
  6 22  1  0  0  0  0
  7 12  2  0  0  0  0
  7 21  1  0  0  0  0
  8  9  2  0  0  0  0
  8 24  1  0  0  0  0
  9 26  1  0  0  0  0
 10 27  1  0  0  0  0
 11 27  2  0  0  0  0
 12 28  1  0  0  0  0
 13 14  2  0  0  0  0
 13 29  1  0  0  0  0
 14 30  1  0  0  0  0
 15 23  1  0  0  0  0
 15 28  2  0  0  0  0
 16 24  2  0  0  0  0
 16 25  1  0  0  0  0
 17 30  2  0  0  0  0
 17 31  1  0  0  0  0
 18 32  1  0  0  0  0
 19 32  1  0  0  0  0
 19 33  2  0  0  0  0
 19 34  1  0  0  0  0
 20 22  2  0  0  0  0
 20 39  1  0  0  0  0
 21 23  2  0  0  0  0
 21 40  1  0  0  0  0
 22 51  1  0  0  0  0
 23 41  1  0  0  0  0
 24 62  1  0  0  0  0
 25 26  2  0  0  0  0
 25 63  1  0  0  0  0
 26 70  1  0  0  0  0
 27 85  1  0  0  0  0
 28 86  1  0  0  0  0
 29 31  2  0  0  0  0
 29 85  1  0  0  0  0
 30 87  1  0  0  0  0
 31 88  1  0  0  0  0
 32 68  2  0  0  0  0
 33 69  1  0  0  0  0
 33 73  1  0  0  0  0
 34 74  1  0  0  0  0
 34 80  2  0  0  0  0
 35 52  1  0  0  0  0
 35 75  1  0  0  0  0
 35 81  2  0  0  0  0
 36 65  1  0  0  0  0
 36 71  1  0  0  0  0
 36 82  2  0  0  0  0
 37 66  1  0  0  0  0
 37 76  1  0  0  0  0
 37 83  2  0  0  0  0
 38 72  1  0  0  0  0
 38 77  1  0  0  0  0
 38 84  2  0  0  0  0
 39 42  1  0  0  0  0
 40 52  1  0  0  0  0
 41 71  1  0  0  0  0
 42 45  1  0  0  0  0
 43 46  1  0  0  0  0
 43 49  1  0  0  0  0
 44 47  1  0  0  0  0
 44 48  1  0  0  0  0
 45 51  1  0  0  0  0
 46 53  1  0  0  0  0
 47 54  1  0  0  0  0
 48 70  1  0  0  0  0
 49 72  1  0  0  0  0
 50 53  1  0  0  0  0
 50 72  1  0  0  0  0
 51 75  1  0  0  0  0
 52 71  1  0  0  0  0
 53 69  1  0  0  0  0
 54 64  1  0  0  0  0
 54 70  1  0  0  0  0
 55 66  1  0  0  0  0
 56 67  1  0  0  0  0
 57 67  1  0  0  0  0
 58 67  1  0  0  0  0
 59 78  1  0  0  0  0
 60 79  1  0  0  0  0
 61 79  1  0  0  0  0
 62 77  1  0  0  0  0
 63 79  1  0  0  0  0
 64 86  1  0  0  0  0
 65 67  1  0  0  0  0
 65 76  1  0  0  0  0
 66 78  1  0  0  0  0
 68 69  1  0  0  0  0
M  CHG  2  78   1  79   1
M  ISO  4  38 100  64 101  77 100  86 101
M  END
> <Batch ID>
0024

> <Smiles>
CNC(C)C(=O)NC(C(=O)N1Cc2cc([101O:1][101CH2:1]C3CCCN3c3ccc(C[100NH:0][100C:0](=O)N4CCCC(n5nc(-c6ccc(Oc7ccc(F)cc7F)cc6)c(C(N)=O)c5N)C4)cc3CN(C)C)ccc2CC1C(=O)NC1CCCc2ccccc21)C(C)(C)C

> <Shape>
0.191

> <Color>
0.187

> <Negative vol penalty>
0.000

$$$$

  -OEChem-04042321203D

 94104  0     1  0  0  0  0  0999 V2000
  -19.5725  -28.9397   22.7508 C   0  0  0  0  0  0  0  0  0  0  0  0
  -20.5595  -28.1351   23.3088 C   0  0  0  0  0  0  0  0  0  0  0  0
  -29.8753  -23.7154   18.7109 C   0  0  0  0  0  0  0  0  0  0  0  0
  -28.0149  -23.1067   20.1270 C   0  0  0  0  0  0  0  0  0  0  0  0
  -18.4874  -28.3555   22.1009 C   0  0  0  0  0  0  0  0  0  0  0  0
  -20.4680  -26.7466   23.2066 C   0  0  0  0  0  0  0  0  0  0  0  0
  -22.5517  -19.1421   24.2327 C   0  0  0  0  0  0  0  0  0  0  0  0
  -25.4567  -15.6953   22.0057 C   0  0  0  0  0  0  0  0  0  0  0  0
  -24.9182  -14.7587   21.1236 C   0  0  0  0  0  0  0  0  0  0  0  0
  -29.6290  -25.0642   18.9671 C   0  0  0  0  0  0  0  0  0  0  0  0
  -27.7686  -24.4555   20.3833 C   0  0  0  0  0  0  0  0  0  0  0  0
  -22.0536  -17.8400   24.2162 C   0  0  0  0  0  0  0  0  0  0  0  0
  -26.4263  -27.7508   21.1242 C   0  0  0  0  0  0  0  0  0  0  0  0
  -25.1038  -28.1905   21.0680 C   0  0  0  0  0  0  0  0  0  0  0  0
  -21.2520  -18.1817   21.9668 C   0  0  0  0  0  0  0  0  0  0  0  0
  -25.9394  -13.9312   23.5843 C   0  0  0  0  0  0  0  0  0  0  0  0
  -24.9733  -27.5026   18.7557 C   0  0  0  0  0  0  0  0  0  0  0  0
  -29.0682  -22.7366   19.2908 C   0  0  0  0  0  0  0  0  0  0  0  0
  -29.3073  -20.6994   17.7742 C   0  0  0  0  0  0  0  0  0  0  0  0
  -18.3769  -26.9587   22.0020 C   0  0  0  0  0  0  0  0  0  0  0  0
  -22.3939  -19.9788   23.1185 C   0  0  0  0  0  0  0  0  0  0  0  0
  -19.3927  -26.1386   22.5337 C   0  0  0  0  0  0  0  0  0  0  0  0
  -21.7513  -19.4931   21.9707 C   0  0  0  0  0  0  0  0  0  0  0  0
  -25.9674  -15.2816   23.2361 C   0  0  0  0  0  0  0  0  0  0  0  0
  -24.8903  -13.4082   21.4718 C   0  0  0  0  0  0  0  0  0  0  0  0
  -28.5757  -25.4343   19.8033 C   0  0  0  0  0  0  0  0  0  0  0  0
  -21.4011  -17.3606   23.0842 C   0  0  0  0  0  0  0  0  0  0  0  0
  -27.0224  -27.1871   19.9961 C   0  0  0  0  0  0  0  0  0  0  0  0
  -24.3772  -28.0664   19.8838 C   0  0  0  0  0  0  0  0  0  0  0  0
  -25.4009  -12.9945   22.7022 C   0  0  0  0  0  0  0  0  0  0  0  0
  -26.2959  -27.0630   18.8119 C   0  0  0  0  0  0  0  0  0  0  0  0
  -29.3217  -21.3432   19.0261 C   0  0  0  0  0  0  0  0  0  0  0  0
  -29.6078  -19.3896   18.0582 C   0  0  0  0  0  0  0  0  0  0  0  0
  -29.0458  -21.2372   16.4711 C   0  0  0  0  0  0  0  0  0  0  0  0
  -20.9215  -22.7439   22.5804 C   0  0  0  0  0  0  0  0  0  0  0  0
  -22.3548  -22.4966   19.6809 C   0  0  0  0  0  0  0  0  0  0  0  0
  -22.9809  -19.8895   17.2668 C   0  0  0  0  0  0  0  0  0  0  0  0
  -28.8191  -16.2842   23.2428 C   0  0  0  0  0  0  0  0  0  0  0  0
  -17.1853  -26.3797   21.2808 C   0  0  0  0  0  0  0  0  0  0  0  0
  -22.9605  -21.3719   23.1424 C   0  0  0  0  0  0  0  0  0  0  0  0
  -21.5739  -20.3444   20.7410 C   0  0  0  0  0  0  0  0  0  0  0  0
  -16.9489  -24.9090   21.6088 C   0  0  0  0  0  0  0  0  0  0  0  0
  -27.8458  -20.0758   25.0717 C   0  0  0  0  0  0  0  0  0  0  0  0
  -32.0699  -17.0706   21.5340 C   0  0  0  0  0  0  0  0  0  0  0  0
  -24.3633  -10.7526   18.9657 C   0  0  0  0  0  0  0  0  0  0  0  0
  -18.2465  -24.1286   21.4619 C   0  0  0  0  0  0  0  0  0  0  0  0
  -31.6450  -17.8858   20.3122 C   0  0  0  0  0  0  0  0  0  0  0  0
  -28.8289  -19.1185   24.3668 C   0  0  0  0  0  0  0  0  0  0  0  0
  -26.7764  -18.9755   24.9118 C   0  0  0  0  0  0  0  0  0  0  0  0
  -22.9388  -10.9712   19.4367 C   0  0  0  0  0  0  0  0  0  0  0  0
  -25.1851  -11.3802   20.0808 C   0  0  0  0  0  0  0  0  0  0  0  0
  -30.9587  -16.1611   22.0364 C   0  0  0  0  0  0  0  0  0  0  0  0
  -29.4911  -18.1461   21.6423 C   0  0  0  0  0  0  0  0  0  0  0  0
  -19.2987  -24.6252   22.4616 C   0  0  1  0  0  0  0  0  0  0  0  0
  -22.2901  -22.3068   22.1405 C   0  0  1  0  0  0  0  0  0  0  0  0
  -30.1233  -18.1078   20.2400 C   0  0  1  0  0  0  0  0  0  0  0  0
  -27.5960  -18.4586   23.7065 C   0  0  0  0  0  0  0  0  0  0  0  0
  -22.9664  -12.3844   20.0785 C   0  0  1  0  0  0  0  0  0  0  0  0
  -22.7011  -13.4366   18.9920 C   0  0  0  0  0  0  0  0  0  0  0  0
  -24.7958  -19.6579   15.5492 C   0  0  0  0  0  0  0  0  0  0  0  0
  -20.4957  -12.2441   20.6268 C   0  0  0  0  0  0  0  0  0  0  0  0
  -20.3370  -23.7943   17.7956 C   0  0  0  0  0  0  0  0  0  0  0  0
  -21.1421  -22.2587   15.9894 C   0  0  0  0  0  0  0  0  0  0  0  0
  -22.7113  -23.9028   17.0175 C   0  0  0  0  0  0  0  0  0  0  0  0
  -23.7880  -17.2393   18.3079 C   0  0  0  0  0  0  0  0  0  0  0  0
  -26.5433  -16.2831   24.1792 C   0  0  0  0  0  0  0  0  0  0  0  0
  -21.4128  -13.7445   23.2398 C   0  0  0  0  0  0  0  0  0  0  0  0
  -21.6022  -15.1186   23.8515 C   0  0  0  0  0  0  0  0  0  1  0  0
  -21.9818  -21.8837   18.3527 C   0  0  1  0  0  0  0  0  0  0  0  0
  -24.3218  -19.2584   16.9379 C   0  0  2  0  0  0  0  0  0  0  0  0
  -21.9010  -12.4200   21.1792 C   0  0  2  0  0  0  0  0  0  0  0  0
  -21.5331  -22.9494   17.3134 C   0  0  0  0  0  0  0  0  0  0  0  0
  -29.6085  -20.5109   20.0306 N   0  0  0  0  0  0  0  0  0  0  0  0
  -29.7770  -19.3307   19.4103 N   0  0  0  0  0  0  0  0  0  0  0  0
  -24.3549  -12.4801   20.5942 N   0  0  3  0  0  0  0  0  0  0  0  0
  -22.1397  -21.7016   20.8156 N   0  0  0  0  0  0  0  0  0  0  0  0
  -29.7508  -16.9092   22.3973 N   0  0  0  0  0  0  0  0  0  0  0  0
  -29.7411  -18.2940   17.2808 N   0  0  0  0  0  0  0  0  0  0  0  0
  -30.1233  -21.7327   15.7242 N   0  0  0  0  0  0  0  0  0  0  0  0
  -20.5707  -24.0102   22.1526 N   0  0  0  0  0  0  0  0  0  0  0  0
  -23.1299  -21.0869   17.9340 N   0  0  0  0  0  0  0  0  0  0  0  0
  -27.6681  -17.0104   23.5980 N   0  0  0  0  0  0  0  0  0  0  0  0
  -24.2219  -17.7724   16.9909 N   0  3  0  0  0  0  0  0  0  0  0  0
  -21.9765  -13.7376   21.8663 N   0  3  0  0  0  0  0  0  0  0  0  0
  -27.8885  -21.2923   15.9902 O   0  0  0  0  0  0  0  0  0  0  0  0
  -20.2340  -21.9877   23.2565 O   0  0  0  0  0  0  0  0  0  0  0  0
  -22.8266  -23.6360   19.7100 O   0  0  0  0  0  0  0  0  0  0  0  0
  -21.9086  -19.3737   16.9590 O   0  0  0  0  0  0  0  0  0  0  0  0
  -29.0123  -15.1377   23.6696 O   0  0  0  0  0  0  0  0  0  0  0  0
  -28.3353  -26.7504   20.0537 O   0  0  0  0  0  0  0  0  0  0  0  0
  -20.9133  -16.0903   23.0657 O   0  0  0  0  0  0  0  0  0  1  0  0
  -23.1067  -28.4872   19.8304 F   0  0  0  0  0  0  0  0  0  0  0  0
  -25.3791  -11.6991   23.0470 F   0  0  0  0  0  0  0  0  0  0  0  0
  -26.8628  -26.5211   17.7252 F   0  0  0  0  0  0  0  0  0  0  0  0
  1  2  1  0  0  0  0
  1  5  2  0  0  0  0
  2  6  2  0  0  0  0
  3 10  2  0  0  0  0
  3 18  1  0  0  0  0
  4 11  1  0  0  0  0
  4 18  2  0  0  0  0
  5 20  1  0  0  0  0
  6 22  1  0  0  0  0
  7 12  2  0  0  0  0
  7 21  1  0  0  0  0
  8  9  2  0  0  0  0
  8 24  1  0  0  0  0
  9 25  1  0  0  0  0
 10 26  1  0  0  0  0
 11 26  2  0  0  0  0
 12 27  1  0  0  0  0
 13 14  2  0  0  0  0
 13 28  1  0  0  0  0
 14 29  1  0  0  0  0
 15 23  1  0  0  0  0
 15 27  2  0  0  0  0
 16 24  2  0  0  0  0
 16 30  1  0  0  0  0
 17 29  2  0  0  0  0
 17 31  1  0  0  0  0
 18 32  1  0  0  0  0
 19 32  1  0  0  0  0
 19 33  2  0  0  0  0
 19 34  1  0  0  0  0
 20 22  2  0  0  0  0
 20 39  1  0  0  0  0
 21 23  2  0  0  0  0
 21 40  1  0  0  0  0
 22 54  1  0  0  0  0
 23 41  1  0  0  0  0
 24 66  1  0  0  0  0
 25 30  2  0  0  0  0
 25 75  1  0  0  0  0
 26 90  1  0  0  0  0
 27 91  1  0  0  0  0
 28 31  2  0  0  0  0
 28 90  1  0  0  0  0
 29 92  1  0  0  0  0
 30 93  1  0  0  0  0
 31 94  1  0  0  0  0
 32 73  2  0  0  0  0
 33 74  1  0  0  0  0
 33 78  1  0  0  0  0
 34 79  1  0  0  0  0
 34 85  2  0  0  0  0
 35 55  1  0  0  0  0
 35 80  1  0  0  0  0
 35 86  2  0  0  0  0
 36 69  1  0  0  0  0
 36 76  1  0  0  0  0
 36 87  2  0  0  0  0
 37 70  1  0  0  0  0
 37 81  1  0  0  0  0
 37 88  2  0  0  0  0
 38 77  1  0  0  0  0
 38 82  1  0  0  0  0
 38 89  2  0  0  0  0
 39 42  1  0  0  0  0
 40 55  1  0  0  0  0
 41 76  1  0  0  0  0
 42 46  1  0  0  0  0
 43 48  1  0  0  0  0
 43 49  1  0  0  0  0
 44 47  1  0  0  0  0
 44 52  1  0  0  0  0
 45 50  1  0  0  0  0
 45 51  1  0  0  0  0
 46 54  1  0  0  0  0
 47 56  1  0  0  0  0
 48 57  1  0  0  0  0
 49 57  1  0  0  0  0
 50 58  1  0  0  0  0
 51 75  1  0  0  0  0
 52 77  1  0  0  0  0
 53 56  1  0  0  0  0
 53 77  1  0  0  0  0
 54 80  1  0  0  0  0
 55 76  1  0  0  0  0
 56 74  1  0  0  0  0
 57 82  1  0  0  0  0
 58 59  1  0  0  0  0
 58 71  1  0  0  0  0
 58 75  1  0  0  0  0
 60 70  1  0  0  0  0
 61 71  1  0  0  0  0
 62 72  1  0  0  0  0
 63 72  1  0  0  0  0
 64 72  1  0  0  0  0
 65 83  1  0  0  0  0
 66 82  1  0  0  0  0
 67 68  1  0  0  0  0
 67 84  1  0  0  0  0
 68 91  1  0  0  0  0
 69 72  1  0  0  0  0
 69 81  1  0  0  0  0
 70 83  1  0  0  0  0
 71 84  1  0  0  0  0
 73 74  1  0  0  0  0
M  CHG  2  83   1  84   1
M  ISO  4  38 100  68 101  82 100  91 101
M  END
> <Batch ID>
0024

> <Smiles>
CNC(C)C(=O)NC(C(=O)N1Cc2cc([101O:1][101CH2:1]CNC(C)C3(C)CCCN3c3ccc(C[100N:0](C4CCC4)[100C:0](=O)N4CCCC(n5nc(-c6ccc(Oc7ccc(F)cc7F)cc6)c(C(N)=O)c5N)C4)cc3F)ccc2CC1C(=O)NC1CCCc2ccccc21)C(C)(C)C

> <Shape>
0.200

> <Color>
0.074

> <Negative vol penalty>
0.000

$$$$

  -OEChem-04042321203D

 86 95  0     1  0  0  0  0  0999 V2000
  -28.0180  -37.8353   22.3650 C   0  0  0  0  0  0  0  0  0  0  0  0
  -28.5031  -36.6207   21.8910 C   0  0  0  0  0  0  0  0  0  0  0  0
  -22.6815  -14.0304   20.0677 C   0  0  0  0  0  0  0  0  0  0  0  0
  -24.4627  -14.9060   21.4453 C   0  0  0  0  0  0  0  0  0  0  0  0
  -27.0229  -37.8539   23.3415 C   0  0  0  0  0  0  0  0  0  0  0  0
  -27.9943  -35.4239   22.3940 C   0  0  0  0  0  0  0  0  0  0  0  0
  -27.1786  -30.1898   19.3207 C   0  0  0  0  0  0  0  0  0  0  0  0
  -28.2821  -24.0655   18.4507 C   0  0  0  0  0  0  0  0  0  0  0  0
  -27.0287  -23.4702   18.3082 C   0  0  0  0  0  0  0  0  0  0  0  0
  -23.3058  -12.7832   20.0532 C   0  0  0  0  0  0  0  0  0  0  0  0
  -25.0870  -13.6587   21.4308 C   0  0  0  0  0  0  0  0  0  0  0  0
  -27.9420  -29.0267   19.2298 C   0  0  0  0  0  0  0  0  0  0  0  0
  -23.6162  -10.1288   22.1246 C   0  0  0  0  0  0  0  0  0  0  0  0
  -22.8208   -9.0033   22.3394 C   0  0  0  0  0  0  0  0  0  0  0  0
  -26.5919  -28.0133   20.9530 C   0  0  0  0  0  0  0  0  0  0  0  0
  -23.4490   -8.1453   20.1700 C   0  0  0  0  0  0  0  0  0  0  0  0
  -23.2600  -15.0919   20.7637 C   0  0  0  0  0  0  0  0  0  0  0  0
  -21.6677  -16.8464   21.7090 C   0  0  0  0  0  0  0  0  0  0  0  0
  -26.4948  -36.6567   23.8498 C   0  0  0  0  0  0  0  0  0  0  0  0
  -26.1213  -30.2775   20.2376 C   0  0  0  0  0  0  0  0  0  0  0  0
  -26.9922  -35.4264   23.3792 C   0  0  0  0  0  0  0  0  0  0  0  0
  -25.8150  -29.1777   21.0518 C   0  0  0  0  0  0  0  0  0  0  0  0
  -29.0150  -23.8762   19.6224 C   0  0  0  0  0  0  0  0  0  0  0  0
  -26.5081  -22.6857   19.3374 C   0  0  0  0  0  0  0  0  0  0  0  0
  -24.5085  -12.5973   20.7348 C   0  0  0  0  0  0  0  0  0  0  0  0
  -27.6505  -27.9393   20.0481 C   0  0  0  0  0  0  0  0  0  0  0  0
  -24.3280  -10.2626   20.9325 C   0  0  0  0  0  0  0  0  0  0  0  0
  -22.7372   -8.0115   21.3622 C   0  0  0  0  0  0  0  0  0  0  0  0
  -24.2444   -9.2708   19.9552 C   0  0  0  0  0  0  0  0  0  0  0  0
  -27.2409  -22.4965   20.5091 C   0  0  0  0  0  0  0  0  0  0  0  0
  -28.4943  -23.0917   20.6516 C   0  0  0  0  0  0  0  0  0  0  0  0
  -22.6159  -16.3807   20.7786 C   0  0  0  0  0  0  0  0  0  0  0  0
  -21.3694  -18.1191   21.2873 C   0  0  0  0  0  0  0  0  0  0  0  0
  -21.1068  -16.1876   22.8522 C   0  0  0  0  0  0  0  0  0  0  0  0
  -25.4770  -32.1157   22.7495 C   0  0  0  0  0  0  0  0  0  0  0  0
  -22.6356  -30.5528   22.6732 C   0  0  0  0  0  0  0  0  0  0  0  0
  -20.8781  -27.7805   21.7392 C   0  0  0  0  0  0  0  0  0  0  0  0
  -24.3803  -22.1714   18.0907 C   0  0  0  0  0  0  0  0  0  0  0  0
  -25.4536  -36.7271   24.9386 C   0  0  0  0  0  0  0  0  0  0  0  0
  -25.2905  -31.5296   20.3045 C   0  0  0  0  0  0  0  0  0  0  0  0
  -24.6775  -29.2138   22.0383 C   0  0  0  0  0  0  0  0  0  0  0  0
  -24.7026  -35.4148   25.1491 C   0  0  0  0  0  0  0  0  0  0  0  0
  -21.1827  -20.8045   17.3265 C   0  0  0  0  0  0  0  0  0  0  0  0
  -32.6260  -24.6087   19.8077 C   0  0  0  0  0  0  0  0  0  0  0  0
  -25.6786  -34.2437   25.2016 C   0  0  0  0  0  0  0  0  0  0  0  0
  -21.0985  -19.5607   18.2142 C   0  0  0  0  0  0  0  0  0  0  0  0
  -32.0619  -26.0159   19.7845 C   0  0  0  0  0  0  0  0  0  0  0  0
  -31.4667  -23.7742   19.2858 C   0  0  0  0  0  0  0  0  0  0  0  0
  -22.5970  -21.0261   16.7933 C   0  0  0  0  0  0  0  0  0  0  0  0
  -23.5651  -19.8106   18.7050 C   0  0  0  0  0  0  0  0  0  0  0  0
  -26.4479  -34.1070   23.8822 C   0  0  1  0  0  0  0  0  0  0  0  0
  -24.5622  -31.6930   21.6350 C   0  0  1  0  0  0  0  0  0  0  0  0
  -22.1738  -19.5825   19.3182 C   0  0  2  0  0  0  0  0  0  0  0  0
  -30.5863  -25.8382   20.2324 C   0  0  1  0  0  0  0  0  0  0  0  0
  -30.5135  -25.9027   21.7649 C   0  0  0  0  0  0  0  0  0  0  0  0
  -18.5818  -26.7744   21.8486 C   0  0  0  0  0  0  0  0  0  0  0  0
  -23.0869  -29.8479   25.6074 C   0  0  0  0  0  0  0  0  0  0  0  0
  -21.3053  -28.1023   25.3899 C   0  0  0  0  0  0  0  0  0  0  0  0
  -20.7418  -30.5073   25.0417 C   0  0  0  0  0  0  0  0  0  0  0  0
  -20.6384  -27.7185   18.7900 C   0  0  0  0  0  0  0  0  0  0  0  0
  -29.7601  -26.9486   19.5749 C   0  0  0  0  0  0  0  0  0  1  0  0
  -22.0957  -29.2854   23.2907 C   0  0  1  0  0  0  0  0  0  0  0  0
  -19.5434  -27.6245   21.0330 C   0  0  2  0  0  0  0  0  0  0  0  0
  -21.8301  -29.4354   24.8153 C   0  0  0  0  0  0  0  0  0  0  0  0
  -22.9010  -17.2839   19.8368 N   0  0  0  0  0  0  0  0  0  0  0  0
  -22.1273  -18.3299   20.1732 N   0  0  0  0  0  0  0  0  0  0  0  0
  -30.2566  -24.4797   19.7336 N   0  0  3  0  0  0  0  0  0  0  0  0
  -23.8985  -30.4626   22.0709 N   0  0  0  0  0  0  0  0  0  0  0  0
  -23.5611  -21.0393   17.8957 N   0  0  0  0  0  0  0  0  0  0  0  0
  -20.5352  -19.0672   21.7646 N   0  0  0  0  0  0  0  0  0  0  0  0
  -21.5238  -14.8813   23.1420 N   0  0  0  0  0  0  0  0  0  0  0  0
  -25.2345  -22.0826   19.1894 N   0  0  0  0  0  0  0  0  0  0  0  0
  -25.6162  -33.4848   22.8744 N   0  0  0  0  0  0  0  0  0  0  0  0
  -20.9169  -28.9219   22.5118 N   0  0  0  0  0  0  0  0  0  0  0  0
  -19.7329  -26.9763   19.7045 N   0  3  0  0  0  0  0  0  0  0  0  0
  -20.2486  -16.7349   23.5854 O   0  0  0  0  0  0  0  0  0  0  0  0
  -26.0155  -31.2629   23.4455 O   0  0  0  0  0  0  0  0  0  0  0  0
  -21.9586  -31.5830   22.7172 O   0  0  0  0  0  0  0  0  0  0  0  0
  -21.7934  -26.9688   21.6205 O   0  0  0  0  0  0  0  0  0  0  0  0
  -24.3086  -23.1589   17.3547 O   0  0  0  0  0  0  0  0  0  0  0  0
  -25.1178  -11.3802   20.7210 O   0  0  0  0  0  0  0  0  0  0  0  0
  -28.3944  -26.8030   19.9619 O   0  0  0  0  0  0  0  0  0  1  0  0
  -21.9746   -6.9300   21.5692 F   0  0  0  0  0  0  0  0  0  0  0  0
  -24.9268   -9.3933   18.8084 F   0  0  0  0  0  0  0  0  0  0  0  0
  -26.7342  -21.7412   21.4962 F   0  0  0  0  0  0  0  0  0  0  0  0
  -29.3750  -22.8360   22.1166 Cl  0  0  0  0  0  0  0  0  0  0  0  0
  1  2  1  0  0  0  0
  1  5  2  0  0  0  0
  2  6  2  0  0  0  0
  3 10  2  0  0  0  0
  3 17  1  0  0  0  0
  4 11  1  0  0  0  0
  4 17  2  0  0  0  0
  5 19  1  0  0  0  0
  6 21  1  0  0  0  0
  7 12  2  0  0  0  0
  7 20  1  0  0  0  0
  8  9  2  0  0  0  0
  8 23  1  0  0  0  0
  9 24  1  0  0  0  0
 10 25  1  0  0  0  0
 11 25  2  0  0  0  0
 12 26  1  0  0  0  0
 13 14  2  0  0  0  0
 13 27  1  0  0  0  0
 14 28  1  0  0  0  0
 15 22  1  0  0  0  0
 15 26  2  0  0  0  0
 16 28  2  0  0  0  0
 16 29  1  0  0  0  0
 17 32  1  0  0  0  0
 18 32  1  0  0  0  0
 18 33  2  0  0  0  0
 18 34  1  0  0  0  0
 19 21  2  0  0  0  0
 19 39  1  0  0  0  0
 20 22  2  0  0  0  0
 20 40  1  0  0  0  0
 21 51  1  0  0  0  0
 22 41  1  0  0  0  0
 23 31  2  0  0  0  0
 23 67  1  0  0  0  0
 24 30  2  0  0  0  0
 24 72  1  0  0  0  0
 25 81  1  0  0  0  0
 26 82  1  0  0  0  0
 27 29  2  0  0  0  0
 27 81  1  0  0  0  0
 28 83  1  0  0  0  0
 29 84  1  0  0  0  0
 30 31  1  0  0  0  0
 30 85  1  0  0  0  0
 31 86  1  0  0  0  0
 32 65  2  0  0  0  0
 33 66  1  0  0  0  0
 33 70  1  0  0  0  0
 34 71  1  0  0  0  0
 34 76  2  0  0  0  0
 35 52  1  0  0  0  0
 35 73  1  0  0  0  0
 35 77  2  0  0  0  0
 36 62  1  0  0  0  0
 36 68  1  0  0  0  0
 36 78  2  0  0  0  0
 37 63  1  0  0  0  0
 37 74  1  0  0  0  0
 37 79  2  0  0  0  0
 38 69  1  0  0  0  0
 38 72  1  0  0  0  0
 38 80  2  0  0  0  0
 39 42  1  0  0  0  0
 40 52  1  0  0  0  0
 41 68  1  0  0  0  0
 42 45  1  0  0  0  0
 43 46  1  0  0  0  0
 43 49  1  0  0  0  0
 44 47  1  0  0  0  0
 44 48  1  0  0  0  0
 45 51  1  0  0  0  0
 46 53  1  0  0  0  0
 47 54  1  0  0  0  0
 48 67  1  0  0  0  0
 49 69  1  0  0  0  0
 50 53  1  0  0  0  0
 50 69  1  0  0  0  0
 51 73  1  0  0  0  0
 52 68  1  0  0  0  0
 53 66  1  0  0  0  0
 54 55  1  0  0  0  0
 54 61  1  0  0  0  0
 54 67  1  0  0  0  0
 56 63  1  0  0  0  0
 57 64  1  0  0  0  0
 58 64  1  0  0  0  0
 59 64  1  0  0  0  0
 60 75  1  0  0  0  0
 61 82  1  0  0  0  0
 62 64  1  0  0  0  0
 62 74  1  0  0  0  0
 63 75  1  0  0  0  0
 65 66  1  0  0  0  0
M  CHG  1  75   1
M  ISO  4  38 100  61 101  72 100  82 101
M  END
> <Batch ID>
0024

> <Smiles>
CNC(C)C(=O)NC(C(=O)N1Cc2cc([101O:1][101CH2:1]C3(C)CCCN3c3ccc([100NH:0][100C:0](=O)N4CCCC(n5nc(-c6ccc(Oc7ccc(F)cc7F)cc6)c(C(N)=O)c5N)C4)c(F)c3Cl)ccc2CC1C(=O)NC1CCCc2ccccc21)C(C)(C)C

> <Shape>
0.271

> <Color>
0.083

> <Negative vol penalty>
0.000

$$$$

  -OEChem-04042321203D

 86 95  0     1  0  0  0  0  0999 V2000
  -33.5010  -19.0234   23.9680 C   0  0  0  0  0  0  0  0  0  0  0  0
  -32.3804  -19.7850   24.2836 C   0  0  0  0  0  0  0  0  0  0  0  0
  -29.9708  -28.2969   19.1242 C   0  0  0  0  0  0  0  0  0  0  0  0
  -29.1803  -26.3705   20.3494 C   0  0  0  0  0  0  0  0  0  0  0  0
  -33.5010  -18.2258   22.8245 C   0  0  0  0  0  0  0  0  0  0  0  0
  -31.2593  -19.7502   23.4551 C   0  0  0  0  0  0  0  0  0  0  0  0
  -24.1132  -20.1803   23.7102 C   0  0  0  0  0  0  0  0  0  0  0  0
  -31.2694  -27.7894   19.1641 C   0  0  0  0  0  0  0  0  0  0  0  0
  -30.4790  -25.8629   20.3893 C   0  0  0  0  0  0  0  0  0  0  0  0
  -23.0547  -20.8770   23.1288 C   0  0  0  0  0  0  0  0  0  0  0  0
  -32.5798  -24.2332   18.3033 C   0  0  0  0  0  0  0  0  0  0  0  0
  -32.7546  -22.8806   18.0113 C   0  0  0  0  0  0  0  0  0  0  0  0
  -23.1386  -19.4014   21.2223 C   0  0  0  0  0  0  0  0  0  0  0  0
  -19.6238  -27.6657   21.7046 C   0  0  0  0  0  0  0  0  0  0  0  0
  -17.7175  -27.3186   23.1475 C   0  0  0  0  0  0  0  0  0  0  0  0
  -19.4326  -28.9017   23.7716 C   0  0  0  0  0  0  0  0  0  0  0  0
  -33.7008  -22.5289   20.2063 C   0  0  0  0  0  0  0  0  0  0  0  0
  -28.9262  -27.5874   19.7169 C   0  0  0  0  0  0  0  0  0  0  0  0
  -26.6113  -27.8805   18.6861 C   0  0  0  0  0  0  0  0  0  0  0  0
  -32.3758  -18.1737   21.9868 C   0  0  0  0  0  0  0  0  0  0  0  0
  -24.7006  -19.0939   23.0460 C   0  0  0  0  0  0  0  0  0  0  0  0
  -31.2447  -18.9521   22.2985 C   0  0  0  0  0  0  0  0  0  0  0  0
  -24.2028  -18.6910   21.7985 C   0  0  0  0  0  0  0  0  0  0  0  0
  -18.4168  -27.0223   21.9775 C   0  0  0  0  0  0  0  0  0  0  0  0
  -20.1318  -28.6054   22.6016 C   0  0  0  0  0  0  0  0  0  0  0  0
  -31.5235  -26.5725   19.7966 C   0  0  0  0  0  0  0  0  0  0  0  0
  -22.5692  -20.4894   21.8834 C   0  0  0  0  0  0  0  0  0  0  0  0
  -32.9655  -24.7338   19.5468 C   0  0  0  0  0  0  0  0  0  0  0  0
  -33.3150  -22.0284   18.9627 C   0  0  0  0  0  0  0  0  0  0  0  0
  -18.2254  -28.2583   24.0446 C   0  0  0  0  0  0  0  0  0  0  0  0
  -33.5260  -23.8817   20.4983 C   0  0  0  0  0  0  0  0  0  0  0  0
  -27.5846  -28.1114   19.6766 C   0  0  0  0  0  0  0  0  0  0  0  0
  -25.5169  -28.5960   19.1067 C   0  0  0  0  0  0  0  0  0  0  0  0
  -19.3733  -24.5595   19.6006 C   0  0  0  0  0  0  0  0  0  0  0  0
  -26.6894  -27.0900   17.4925 C   0  0  0  0  0  0  0  0  0  0  0  0
  -27.6028  -18.4584   21.9161 C   0  0  0  0  0  0  0  0  0  0  0  0
  -26.3163  -15.5354   21.3478 C   0  0  0  0  0  0  0  0  0  0  0  0
  -23.5193  -13.6569   20.8046 C   0  0  0  0  0  0  0  0  0  0  0  0
  -22.0012  -30.2161   23.1089 C   0  0  0  0  0  0  0  0  0  0  0  0
  -32.4401  -17.3332   20.7362 C   0  0  0  0  0  0  0  0  0  0  0  0
  -25.8241  -18.3362   23.6986 C   0  0  0  0  0  0  0  0  0  0  0  0
  -24.7852  -17.5189   21.0534 C   0  0  0  0  0  0  0  0  0  0  0  0
  -20.3363  -23.4309   19.8831 C   0  0  0  0  0  0  0  0  0  0  0  0
  -31.0731  -17.0636   20.1125 C   0  0  0  0  0  0  0  0  0  0  0  0
  -25.0468  -32.0331   22.7928 C   0  0  0  0  0  0  0  0  0  0  0  0
  -30.2570  -18.3501   20.0384 C   0  0  0  0  0  0  0  0  0  0  0  0
  -25.8985  -31.1558   21.8724 C   0  0  0  0  0  0  0  0  0  0  0  0
  -24.1944  -31.1961   23.7449 C   0  0  0  0  0  0  0  0  0  0  0  0
  -19.2636  -24.1152   21.9195 C   0  0  0  0  0  0  0  0  0  0  0  0
  -24.2149  -29.2958   22.1772 C   0  0  0  0  0  0  0  0  0  0  0  0
  -30.0002  -18.9219   21.4380 C   0  0  1  0  0  0  0  0  0  0  0  0
  -26.6838  -17.5658   22.7012 C   0  0  1  0  0  0  0  0  0  0  0  0
  -19.8747  -22.8968   21.2415 C   0  0  2  0  0  0  0  0  0  0  0  0
  -25.0422  -30.0933   21.1558 C   0  0  2  0  0  0  0  0  0  0  0  0
  -22.7881  -11.3028   20.3346 C   0  0  0  0  0  0  0  0  0  0  0  0
  -27.2473  -15.8260   18.4567 C   0  0  0  0  0  0  0  0  0  0  0  0
  -25.7007  -13.9551   17.8438 C   0  0  0  0  0  0  0  0  0  0  0  0
  -27.5781  -13.5484   19.4352 C   0  0  0  0  0  0  0  0  0  0  0  0
  -21.9225  -13.5328   23.2933 C   0  0  0  0  0  0  0  0  0  0  0  0
  -17.8693  -26.0112   21.0121 C   0  0  0  0  0  0  0  0  0  0  0  0
  -20.9980  -22.2672   22.0470 C   0  0  0  0  0  0  0  0  0  1  0  0
  -25.5794  -14.8974   20.1950 C   0  0  1  0  0  0  0  0  0  0  0  0
  -23.0539  -12.3448   21.4099 C   0  0  2  0  0  0  0  0  0  0  0  0
  -26.5164  -14.5801   18.9956 C   0  0  0  0  0  0  0  0  0  0  0  0
  -27.1472  -28.9111   20.6528 N   0  0  0  0  0  0  0  0  0  0  0  0
  -25.8870  -29.1891   20.2778 N   0  0  0  0  0  0  0  0  0  0  0  0
  -18.7806  -24.9053   20.8114 N   0  0  0  0  0  0  0  0  0  0  0  0
  -25.8864  -16.8140   21.7301 N   0  0  0  0  0  0  0  0  0  0  0  0
  -23.4075  -30.2144   22.9952 N   0  0  0  0  0  0  0  0  0  0  0  0
  -24.2839  -28.7695   18.5853 N   0  0  0  0  0  0  0  0  0  0  0  0
  -27.8882  -26.4204   17.2118 N   0  0  0  0  0  0  0  0  0  0  0  0
  -21.3582  -29.2589   22.3247 N   0  0  0  0  0  0  0  0  0  0  0  0
  -28.9449  -18.1847   22.0992 N   0  0  0  0  0  0  0  0  0  0  0  0
  -24.8948  -13.7316   20.7432 N   0  0  0  0  0  0  0  0  0  0  0  0
  -21.7987  -12.5492   22.1869 N   0  3  0  0  0  0  0  0  0  0  0  0
  -19.2106  -25.0751   18.5046 O   0  0  0  0  0  0  0  0  0  0  0  0
  -25.7300  -26.9937   16.6900 O   0  0  0  0  0  0  0  0  0  0  0  0
  -27.1294  -19.3299   21.1964 O   0  0  0  0  0  0  0  0  0  0  0  0
  -27.2347  -14.9189   21.8938 O   0  0  0  0  0  0  0  0  0  0  0  0
  -22.7405  -14.5268   20.4210 O   0  0  0  0  0  0  0  0  0  0  0  0
  -21.4091  -31.0262   23.8266 O   0  0  0  0  0  0  0  0  0  0  0  0
  -32.7906  -26.0768   19.8355 O   0  0  0  0  0  0  0  0  0  0  0  0
  -21.5365  -21.1680   21.3134 O   0  0  0  0  0  0  0  0  0  1  0  0
  -33.4814  -20.7292   18.6827 F   0  0  0  0  0  0  0  0  0  0  0  0
  -17.5538  -28.5429   25.1681 F   0  0  0  0  0  0  0  0  0  0  0  0
  -33.8974  -24.3565   21.6951 F   0  0  0  0  0  0  0  0  0  0  0  0
  1  2  1  0  0  0  0
  1  5  2  0  0  0  0
  2  6  2  0  0  0  0
  3  8  2  0  0  0  0
  3 18  1  0  0  0  0
  4  9  1  0  0  0  0
  4 18  2  0  0  0  0
  5 20  1  0  0  0  0
  6 22  1  0  0  0  0
  7 10  2  0  0  0  0
  7 21  1  0  0  0  0
  8 26  1  0  0  0  0
  9 26  2  0  0  0  0
 10 27  1  0  0  0  0
 11 12  2  0  0  0  0
 11 28  1  0  0  0  0
 12 29  1  0  0  0  0
 13 23  1  0  0  0  0
 13 27  2  0  0  0  0
 14 24  2  0  0  0  0
 14 25  1  0  0  0  0
 15 24  1  0  0  0  0
 15 30  2  0  0  0  0
 16 25  2  0  0  0  0
 16 30  1  0  0  0  0
 17 29  2  0  0  0  0
 17 31  1  0  0  0  0
 18 32  1  0  0  0  0
 19 32  1  0  0  0  0
 19 33  2  0  0  0  0
 19 35  1  0  0  0  0
 20 22  2  0  0  0  0
 20 40  1  0  0  0  0
 21 23  2  0  0  0  0
 21 41  1  0  0  0  0
 22 51  1  0  0  0  0
 23 42  1  0  0  0  0
 24 60  1  0  0  0  0
 25 72  1  0  0  0  0
 26 82  1  0  0  0  0
 27 83  1  0  0  0  0
 28 31  2  0  0  0  0
 28 82  1  0  0  0  0
 29 84  1  0  0  0  0
 30 85  1  0  0  0  0
 31 86  1  0  0  0  0
 32 65  2  0  0  0  0
 33 66  1  0  0  0  0
 33 70  1  0  0  0  0
 34 43  1  0  0  0  0
 34 67  1  0  0  0  0
 34 76  2  0  0  0  0
 35 71  1  0  0  0  0
 35 77  2  0  0  0  0
 36 52  1  0  0  0  0
 36 73  1  0  0  0  0
 36 78  2  0  0  0  0
 37 62  1  0  0  0  0
 37 68  1  0  0  0  0
 37 79  2  0  0  0  0
 38 63  1  0  0  0  0
 38 74  1  0  0  0  0
 38 80  2  0  0  0  0
 39 69  1  0  0  0  0
 39 72  1  0  0  0  0
 39 81  2  0  0  0  0
 40 44  1  0  0  0  0
 41 52  1  0  0  0  0
 42 68  1  0  0  0  0
 43 53  1  0  0  0  0
 44 46  1  0  0  0  0
 45 47  1  0  0  0  0
 45 48  1  0  0  0  0
 46 51  1  0  0  0  0
 47 54  1  0  0  0  0
 48 69  1  0  0  0  0
 49 53  1  0  0  0  0
 49 67  1  0  0  0  0
 50 54  1  0  0  0  0
 50 69  1  0  0  0  0
 51 73  1  0  0  0  0
 52 68  1  0  0  0  0
 53 61  1  0  0  0  0
 54 66  1  0  0  0  0
 55 63  1  0  0  0  0
 56 64  1  0  0  0  0
 57 64  1  0  0  0  0
 58 64  1  0  0  0  0
 59 75  1  0  0  0  0
 60 67  1  0  0  0  0
 61 83  1  0  0  0  0
 62 64  1  0  0  0  0
 62 74  1  0  0  0  0
 63 75  1  0  0  0  0
 65 66  1  0  0  0  0
M  CHG  1  75   1
M  ISO  4  39 100  61 101  72 100  83 101
M  END
> <Batch ID>
0024

> <Smiles>
CNC(C)C(=O)NC(C(=O)N1Cc2cc([101O:1][101CH2:1]C3CC(=O)N(Cc4cc(F)cc([100NH:0][100C:0](=O)N5CCCC(n6nc(-c7ccc(Oc8ccc(F)cc8F)cc7)c(C(N)=O)c6N)C5)c4)C3)ccc2CC1C(=O)NC1CCCc2ccccc21)C(C)(C)C

> <Shape>
0.231

> <Color>
0.080

> <Negative vol penalty>
0.000

$$$$

  -OEChem-04042321203D

 83 91  0     1  0  0  0  0  0999 V2000
  -30.0861  -20.7541   20.8935 C   0  0  0  0  0  0  0  0  0  0  0  0
  -28.8304  -21.1881   21.3060 C   0  0  0  0  0  0  0  0  0  0  0  0
  -30.1956  -26.0709   22.9891 C   0  0  0  0  0  0  0  0  0  0  0  0
  -28.0854  -25.2242   23.8057 C   0  0  0  0  0  0  0  0  0  0  0  0
  -30.2011  -19.6220   20.0878 C   0  0  0  0  0  0  0  0  0  0  0  0
  -27.6888  -20.4909   20.9121 C   0  0  0  0  0  0  0  0  0  0  0  0
  -22.5682  -19.6718   24.1701 C   0  0  0  0  0  0  0  0  0  0  0  0
  -30.8564  -25.4419   24.0442 C   0  0  0  0  0  0  0  0  0  0  0  0
  -28.7461  -24.5951   24.8609 C   0  0  0  0  0  0  0  0  0  0  0  0
  -21.3353  -20.3226   24.1591 C   0  0  0  0  0  0  0  0  0  0  0  0
  -29.9179  -22.4671   27.5658 C   0  0  0  0  0  0  0  0  0  0  0  0
  -29.5605  -21.1522   27.8639 C   0  0  0  0  0  0  0  0  0  0  0  0
  -20.4570  -18.6215   22.6915 C   0  0  0  0  0  0  0  0  0  0  0  0
  -19.7085  -28.7000   22.5610 C   0  0  0  0  0  0  0  0  0  0  0  0
  -18.2816  -26.8006   23.0007 C   0  0  0  0  0  0  0  0  0  0  0  0
  -30.2094  -20.4712   25.6385 C   0  0  0  0  0  0  0  0  0  0  0  0
  -28.8101  -25.9621   22.8699 C   0  0  0  0  0  0  0  0  0  0  0  0
  -28.3232  -26.3951   20.4035 C   0  0  0  0  0  0  0  0  0  0  0  0
  -29.0611  -18.9050   19.6918 C   0  0  0  0  0  0  0  0  0  0  0  0
  -22.7583  -18.4948   23.4318 C   0  0  0  0  0  0  0  0  0  0  0  0
  -27.7886  -19.3490   20.0993 C   0  0  0  0  0  0  0  0  0  0  0  0
  -21.6925  -17.9562   22.6968 C   0  0  0  0  0  0  0  0  0  0  0  0
  -20.6849  -27.8474   22.0461 C   0  0  0  0  0  0  0  0  0  0  0  0
  -19.2580  -25.9479   22.4857 C   0  0  0  0  0  0  0  0  0  0  0  0
  -30.1316  -24.7040   24.9801 C   0  0  0  0  0  0  0  0  0  0  0  0
  -20.2803  -19.7991   23.4175 C   0  0  0  0  0  0  0  0  0  0  0  0
  -30.4210  -22.7841   26.3039 C   0  0  0  0  0  0  0  0  0  0  0  0
  -29.7063  -20.1542   26.9004 C   0  0  0  0  0  0  0  0  0  0  0  0
  -18.5069  -28.1767   23.0384 C   0  0  0  0  0  0  0  0  0  0  0  0
  -30.5667  -21.7861   25.3404 C   0  0  0  0  0  0  0  0  0  0  0  0
  -20.4597  -26.4713   22.0084 C   0  0  0  0  0  0  0  0  0  0  0  0
  -28.1269  -26.6122   21.7805 C   0  0  0  0  0  0  0  0  0  0  0  0
  -27.4394  -27.2501   19.7916 C   0  0  0  0  0  0  0  0  0  0  0  0
  -29.2239  -25.5004   19.7370 C   0  0  0  0  0  0  0  0  0  0  0  0
  -24.6459  -17.6387   21.0219 C   0  0  0  0  0  0  0  0  0  0  0  0
  -23.3726  -14.7075   21.5779 C   0  0  0  0  0  0  0  0  0  0  0  0
  -20.7903  -12.8605   22.8297 C   0  0  0  0  0  0  0  0  0  0  0  0
  -22.2850  -29.7233   21.5295 C   0  0  0  0  0  0  0  0  0  0  0  0
  -29.2320  -17.7147   18.7815 C   0  0  0  0  0  0  0  0  0  0  0  0
  -24.0865  -17.7902   23.4754 C   0  0  0  0  0  0  0  0  0  0  0  0
  -21.8391  -16.6843   21.9035 C   0  0  0  0  0  0  0  0  0  0  0  0
  -28.0003  -16.8153   18.7171 C   0  0  0  0  0  0  0  0  0  0  0  0
  -25.2137  -31.4385   20.4533 C   0  0  0  0  0  0  0  0  0  0  0  0
  -26.7380  -17.6513   18.5309 C   0  0  0  0  0  0  0  0  0  0  0  0
  -26.3098  -30.3740   20.5404 C   0  0  0  0  0  0  0  0  0  0  0  0
  -24.2013  -31.3042   21.5894 C   0  0  0  0  0  0  0  0  0  0  0  0
  -24.7052  -28.9044   21.8258 C   0  0  0  0  0  0  0  0  0  0  0  0
  -26.5286  -18.6051   19.7132 C   0  0  1  0  0  0  0  0  0  0  0  0
  -24.3184  -16.8775   22.2752 C   0  0  1  0  0  0  0  0  0  0  0  0
  -25.7124  -28.9588   20.6655 C   0  0  2  0  0  0  0  0  0  0  0  0
  -20.0167  -10.4893   23.1056 C   0  0  0  0  0  0  0  0  0  0  0  0
  -22.6200  -14.6118   18.6225 C   0  0  0  0  0  0  0  0  0  0  0  0
  -21.0603  -12.7264   19.1524 C   0  0  0  0  0  0  0  0  0  0  0  0
  -23.5100  -12.4633   19.5425 C   0  0  0  0  0  0  0  0  0  0  0  0
  -20.7588  -13.0917   25.7801 C   0  0  0  0  0  0  0  0  0  0  0  0
  -17.9098  -22.4404   22.7978 C   0  0  0  0  0  0  0  0  0  0  0  0
  -17.8189  -23.9566   22.9209 C   0  0  0  0  0  0  0  0  0  0  0  0
  -19.0864  -21.8505   23.5664 C   0  0  0  0  0  0  0  0  0  1  0  0
  -22.1637  -13.9546   21.0772 C   0  0  1  0  0  0  0  0  0  0  0  0
  -20.7690  -11.6475   23.7422 C   0  0  2  0  0  0  0  0  0  0  0  0
  -22.3360  -13.4641   19.6119 C   0  0  0  0  0  0  0  0  0  0  0  0
  -27.1919  -27.5330   22.0291 N   0  0  0  0  0  0  0  0  0  0  0  0
  -26.7929  -27.9022   20.8001 N   0  0  0  0  0  0  0  0  0  0  0  0
  -23.1589  -16.0357   21.9729 N   0  0  0  0  0  0  0  0  0  0  0  0
  -23.6747  -29.9387   21.6442 N   0  0  0  0  0  0  0  0  0  0  0  0
  -27.1601  -27.5003   18.4948 N   0  0  0  0  0  0  0  0  0  0  0  0
  -28.7813  -24.2037   19.4422 N   0  0  0  0  0  0  0  0  0  0  0  0
  -21.9048  -28.3821   21.5627 N   0  0  0  0  0  0  0  0  0  0  0  0
  -19.0314  -24.5809   22.4492 N   0  0  0  0  0  0  0  0  0  0  0  0
  -25.9942  -17.8890   20.8517 N   0  0  0  0  0  0  0  0  0  0  0  0
  -21.9206  -12.8861   22.0404 N   0  0  0  0  0  0  0  0  0  0  0  0
  -20.1081  -11.9833   25.0350 N   0  3  0  0  0  0  0  0  0  0  0  0
  -30.3923  -25.8356   19.4272 O   0  0  0  0  0  0  0  0  0  0  0  0
  -23.7424  -17.9729   20.2644 O   0  0  0  0  0  0  0  0  0  0  0  0
  -24.4648  -14.1360   21.6237 O   0  0  0  0  0  0  0  0  0  0  0  0
  -19.8921  -13.6993   22.8157 O   0  0  0  0  0  0  0  0  0  0  0  0
  -21.4933  -30.6580   21.3832 O   0  0  0  0  0  0  0  0  0  0  0  0
  -30.7761  -24.0898   26.0097 O   0  0  0  0  0  0  0  0  0  0  0  0
  -19.0761  -20.4328   23.4045 O   0  0  0  0  0  0  0  0  0  1  0  0
  -29.3645  -18.8913   27.1873 F   0  0  0  0  0  0  0  0  0  0  0  0
  -17.5687  -28.9957   23.5317 F   0  0  0  0  0  0  0  0  0  0  0  0
  -31.0506  -22.0843   24.1268 F   0  0  0  0  0  0  0  0  0  0  0  0
  -21.3989  -25.6504   21.5137 F   0  0  0  0  0  0  0  0  0  0  0  0
  1  2  1  0  0  0  0
  1  5  2  0  0  0  0
  2  6  2  0  0  0  0
  3  8  2  0  0  0  0
  3 17  1  0  0  0  0
  4  9  1  0  0  0  0
  4 17  2  0  0  0  0
  5 19  1  0  0  0  0
  6 21  1  0  0  0  0
  7 10  2  0  0  0  0
  7 20  1  0  0  0  0
  8 25  1  0  0  0  0
  9 25  2  0  0  0  0
 10 26  1  0  0  0  0
 11 12  2  0  0  0  0
 11 27  1  0  0  0  0
 12 28  1  0  0  0  0
 13 22  1  0  0  0  0
 13 26  2  0  0  0  0
 14 23  2  0  0  0  0
 14 29  1  0  0  0  0
 15 24  1  0  0  0  0
 15 29  2  0  0  0  0
 16 28  2  0  0  0  0
 16 30  1  0  0  0  0
 17 32  1  0  0  0  0
 18 32  1  0  0  0  0
 18 33  2  0  0  0  0
 18 34  1  0  0  0  0
 19 21  2  0  0  0  0
 19 39  1  0  0  0  0
 20 22  2  0  0  0  0
 20 40  1  0  0  0  0
 21 48  1  0  0  0  0
 22 41  1  0  0  0  0
 23 31  1  0  0  0  0
 23 68  1  0  0  0  0
 24 31  2  0  0  0  0
 24 69  1  0  0  0  0
 25 78  1  0  0  0  0
 26 79  1  0  0  0  0
 27 30  2  0  0  0  0
 27 78  1  0  0  0  0
 28 80  1  0  0  0  0
 29 81  1  0  0  0  0
 30 82  1  0  0  0  0
 31 83  1  0  0  0  0
 32 62  2  0  0  0  0
 33 63  1  0  0  0  0
 33 66  1  0  0  0  0
 34 67  1  0  0  0  0
 34 73  2  0  0  0  0
 35 49  1  0  0  0  0
 35 70  1  0  0  0  0
 35 74  2  0  0  0  0
 36 59  1  0  0  0  0
 36 64  1  0  0  0  0
 36 75  2  0  0  0  0
 37 60  1  0  0  0  0
 37 71  1  0  0  0  0
 37 76  2  0  0  0  0
 38 65  1  0  0  0  0
 38 68  1  0  0  0  0
 38 77  2  0  0  0  0
 39 42  1  0  0  0  0
 40 49  1  0  0  0  0
 41 64  1  0  0  0  0
 42 44  1  0  0  0  0
 43 45  1  0  0  0  0
 43 46  1  0  0  0  0
 44 48  1  0  0  0  0
 45 50  1  0  0  0  0
 46 65  1  0  0  0  0
 47 50  1  0  0  0  0
 47 65  1  0  0  0  0
 48 70  1  0  0  0  0
 49 64  1  0  0  0  0
 50 63  1  0  0  0  0
 51 60  1  0  0  0  0
 52 61  1  0  0  0  0
 53 61  1  0  0  0  0
 54 61  1  0  0  0  0
 55 72  1  0  0  0  0
 56 57  1  0  0  0  0
 56 58  1  0  0  0  0
 57 69  1  0  0  0  0
 58 79  1  0  0  0  0
 59 61  1  0  0  0  0
 59 71  1  0  0  0  0
 60 72  1  0  0  0  0
 62 63  1  0  0  0  0
M  CHG  1  72   1
M  ISO  4  38 100  58 101  68 100  79 101
M  END
> <Batch ID>
0024

> <Smiles>
CNC(C)C(=O)NC(C(=O)N1Cc2cc([101O:1][101CH2:1]CCNc3cc(F)cc([100NH:0][100C:0](=O)N4CCCC(n5nc(-c6ccc(Oc7ccc(F)cc7F)cc6)c(C(N)=O)c5N)C4)c3F)ccc2CC1C(=O)NC1CCCc2ccccc21)C(C)(C)C

> <Shape>
0.199

> <Color>
0.072

> <Negative vol penalty>
0.000

$$$$

  -OEChem-04042321203D

 84 93  0     1  0  0  0  0  0999 V2000
  -27.1005  -38.9859   23.7651 C   0  0  0  0  0  0  0  0  0  0  0  0
  -27.9838  -37.9289   23.5706 C   0  0  0  0  0  0  0  0  0  0  0  0
  -24.4886   -9.3878   21.1868 C   0  0  0  0  0  0  0  0  0  0  0  0
  -24.9393  -10.3075   23.3750 C   0  0  0  0  0  0  0  0  0  0  0  0
  -25.9128  -38.7804   24.4658 C   0  0  0  0  0  0  0  0  0  0  0  0
  -27.6803  -36.6659   24.0776 C   0  0  0  0  0  0  0  0  0  0  0  0
  -28.5606  -29.7070   22.6232 C   0  0  0  0  0  0  0  0  0  0  0  0
  -30.2014  -20.7130   22.2694 C   0  0  0  0  0  0  0  0  0  0  0  0
  -30.0588  -19.4632   21.6667 C   0  0  0  0  0  0  0  0  0  0  0  0
  -24.1951   -8.1533   21.7661 C   0  0  0  0  0  0  0  0  0  0  0  0
  -24.6458   -9.0730   23.9543 C   0  0  0  0  0  0  0  0  0  0  0  0
  -29.0218  -28.5326   23.2164 C   0  0  0  0  0  0  0  0  0  0  0  0
  -21.6028   -6.7204   23.3970 C   0  0  0  0  0  0  0  0  0  0  0  0
  -20.4643   -6.0493   22.9510 C   0  0  0  0  0  0  0  0  0  0  0  0
  -26.9038  -28.2767   24.3423 C   0  0  0  0  0  0  0  0  0  0  0  0
  -21.8354   -4.1862   22.2540 C   0  0  0  0  0  0  0  0  0  0  0  0
  -24.8607  -10.4649   21.9912 C   0  0  0  0  0  0  0  0  0  0  0  0
  -24.2671  -12.7936   21.1357 C   0  0  0  0  0  0  0  0  0  0  0  0
  -25.5900  -37.5120   24.9734 C   0  0  0  0  0  0  0  0  0  0  0  0
  -27.2692  -30.1816   22.8941 C   0  0  0  0  0  0  0  0  0  0  0  0
  -26.4878  -36.4435   24.7869 C   0  0  0  0  0  0  0  0  0  0  0  0
  -26.4277  -29.4559   23.7493 C   0  0  0  0  0  0  0  0  0  0  0  0
  -27.6692  -19.5723   22.0059 C   0  0  0  0  0  0  0  0  0  0  0  0
  -29.0779  -21.3925   22.7404 C   0  0  0  0  0  0  0  0  0  0  0  0
  -28.7927  -18.8928   21.5349 C   0  0  0  0  0  0  0  0  0  0  0  0
  -24.2736   -7.9959   23.1498 C   0  0  0  0  0  0  0  0  0  0  0  0
  -28.1945  -27.8188   24.0783 C   0  0  0  0  0  0  0  0  0  0  0  0
  -22.8577   -6.1244   23.2714 C   0  0  0  0  0  0  0  0  0  0  0  0
  -20.5805   -4.7822   22.3795 C   0  0  0  0  0  0  0  0  0  0  0  0
  -22.9740   -4.8573   22.7000 C   0  0  0  0  0  0  0  0  0  0  0  0
  -27.8118  -20.8221   22.6086 C   0  0  0  0  0  0  0  0  0  0  0  0
  -25.1646  -11.7401   21.3934 C   0  0  0  0  0  0  0  0  0  0  0  0
  -25.0424  -13.7734   20.5652 C   0  0  0  0  0  0  0  0  0  0  0  0
  -22.8586  -12.8790   21.3895 C   0  0  0  0  0  0  0  0  0  0  0  0
  -26.0790  -32.8158   24.2163 C   0  0  0  0  0  0  0  0  0  0  0  0
  -23.2470  -31.5307   23.2941 C   0  0  0  0  0  0  0  0  0  0  0  0
  -21.4618  -28.7399   22.4746 C   0  0  0  0  0  0  0  0  0  0  0  0
  -29.6947  -16.8285   20.4074 C   0  0  0  0  0  0  0  0  0  0  0  0
  -24.3167  -37.3493   25.7651 C   0  0  0  0  0  0  0  0  0  0  0  0
  -26.7772  -31.4358   22.2253 C   0  0  0  0  0  0  0  0  0  0  0  0
  -25.0257  -29.9121   24.0570 C   0  0  0  0  0  0  0  0  0  0  0  0
  -23.8938  -35.8938   25.9462 C   0  0  0  0  0  0  0  0  0  0  0  0
  -29.8039  -13.6267   18.8538 C   0  0  0  0  0  0  0  0  0  0  0  0
  -25.0848  -35.0408   26.3712 C   0  0  0  0  0  0  0  0  0  0  0  0
  -28.5328  -12.9371   19.3548 C   0  0  0  0  0  0  0  0  0  0  0  0
  -30.4357  -14.5046   19.9327 C   0  0  0  0  0  0  0  0  0  0  0  0
  -30.3754  -23.4463   23.6036 C   0  0  0  0  0  0  0  0  0  0  0  0
  -28.2859  -23.6843   23.6165 C   0  0  0  0  0  0  0  0  0  0  0  0
  -28.2579  -14.7935   21.0476 C   0  0  0  0  0  0  0  0  0  0  0  0
  -26.1823  -35.0530   25.3002 C   0  0  1  0  0  0  0  0  0  0  0  0
  -25.6266  -32.1007   22.9747 C   0  0  1  0  0  0  0  0  0  0  0  0
  -29.4353  -24.4461   24.3016 C   0  0  0  0  0  0  0  0  0  0  0  0
  -27.5499  -13.9492   19.9755 C   0  0  2  0  0  0  0  0  0  0  0  0
  -26.3024  -18.9815   21.8771 C   0  0  0  0  0  0  0  0  0  0  0  0
  -19.1597  -28.0010   21.8026 C   0  0  0  0  0  0  0  0  0  0  0  0
  -22.3044  -31.8527   26.1781 C   0  0  0  0  0  0  0  0  0  0  0  0
  -20.4308  -30.2721   25.6689 C   0  0  0  0  0  0  0  0  0  0  0  0
  -20.5954  -32.4423   24.4501 C   0  0  0  0  0  0  0  0  0  0  0  0
  -22.4313  -27.6800   19.8871 C   0  0  0  0  0  0  0  0  0  0  0  0
  -29.5992  -25.9055   23.9294 C   0  0  0  0  0  0  0  0  0  1  0  0
  -22.2413  -30.5969   23.9231 C   0  0  1  0  0  0  0  0  0  0  0  0
  -20.5292  -28.4456   21.3135 C   0  0  2  0  0  0  0  0  0  0  0  0
  -21.4201  -31.2832   25.0510 C   0  0  0  0  0  0  0  0  0  0  0  0
  -26.4144  -12.0239   21.0173 N   0  0  0  0  0  0  0  0  0  0  0  0
  -26.3078  -13.2667   20.5173 N   0  0  0  0  0  0  0  0  0  0  0  0
  -29.2246  -22.6483   23.3455 N   0  0  0  0  0  0  0  0  0  0  0  0
  -24.5928  -31.1477   23.3836 N   0  0  0  0  0  0  0  0  0  0  0  0
  -29.4469  -15.4410   20.4715 N   0  0  0  0  0  0  0  0  0  0  0  0
  -24.7583  -15.0102   20.1046 N   0  0  0  0  0  0  0  0  0  0  0  0
  -22.2186  -11.7817   21.9817 N   0  0  0  0  0  0  0  0  0  0  0  0
  -28.6693  -17.6217   20.9212 N   0  0  0  0  0  0  0  0  0  0  0  0
  -25.8298  -34.1749   24.2052 N   0  0  0  0  0  0  0  0  0  0  0  0
  -21.4315  -30.0721   22.8290 N   0  0  0  0  0  0  0  0  0  0  0  0
  -21.0950  -27.3665   20.4554 N   0  3  0  0  0  0  0  0  0  0  0  0
  -22.1842  -13.8919   21.0846 O   0  0  0  0  0  0  0  0  0  0  0  0
  -26.6132  -32.1812   25.1184 O   0  0  0  0  0  0  0  0  0  0  0  0
  -22.8525  -32.5583   22.7374 O   0  0  0  0  0  0  0  0  0  0  0  0
  -22.1457  -27.8739   23.0157 O   0  0  0  0  0  0  0  0  0  0  0  0
  -30.7277  -17.2808   19.9071 O   0  0  0  0  0  0  0  0  0  0  0  0
  -23.9871   -6.7915   23.7154 O   0  0  0  0  0  0  0  0  0  0  0  0
  -28.6424  -26.6726   24.6592 O   0  0  0  0  0  0  0  0  0  1  0  0
  -19.4869   -4.1373   21.9527 F   0  0  0  0  0  0  0  0  0  0  0  0
  -24.1768   -4.2791   22.5777 F   0  0  0  0  0  0  0  0  0  0  0  0
  -26.7311  -21.4745   23.0630 F   0  0  0  0  0  0  0  0  0  0  0  0
  1  2  1  0  0  0  0
  1  5  2  0  0  0  0
  2  6  2  0  0  0  0
  3 10  2  0  0  0  0
  3 17  1  0  0  0  0
  4 11  1  0  0  0  0
  4 17  2  0  0  0  0
  5 19  1  0  0  0  0
  6 21  1  0  0  0  0
  7 12  2  0  0  0  0
  7 20  1  0  0  0  0
  8  9  2  0  0  0  0
  8 24  1  0  0  0  0
  9 25  1  0  0  0  0
 10 26  1  0  0  0  0
 11 26  2  0  0  0  0
 12 27  1  0  0  0  0
 13 14  2  0  0  0  0
 13 28  1  0  0  0  0
 14 29  1  0  0  0  0
 15 22  1  0  0  0  0
 15 27  2  0  0  0  0
 16 29  2  0  0  0  0
 16 30  1  0  0  0  0
 17 32  1  0  0  0  0
 18 32  1  0  0  0  0
 18 33  2  0  0  0  0
 18 34  1  0  0  0  0
 19 21  2  0  0  0  0
 19 39  1  0  0  0  0
 20 22  2  0  0  0  0
 20 40  1  0  0  0  0
 21 50  1  0  0  0  0
 22 41  1  0  0  0  0
 23 25  2  0  0  0  0
 23 31  1  0  0  0  0
 23 54  1  0  0  0  0
 24 31  2  0  0  0  0
 24 66  1  0  0  0  0
 25 71  1  0  0  0  0
 26 80  1  0  0  0  0
 27 81  1  0  0  0  0
 28 30  2  0  0  0  0
 28 80  1  0  0  0  0
 29 82  1  0  0  0  0
 30 83  1  0  0  0  0
 31 84  1  0  0  0  0
 32 64  2  0  0  0  0
 33 65  1  0  0  0  0
 33 69  1  0  0  0  0
 34 70  1  0  0  0  0
 34 75  2  0  0  0  0
 35 51  1  0  0  0  0
 35 72  1  0  0  0  0
 35 76  2  0  0  0  0
 36 61  1  0  0  0  0
 36 67  1  0  0  0  0
 36 77  2  0  0  0  0
 37 62  1  0  0  0  0
 37 73  1  0  0  0  0
 37 78  2  0  0  0  0
 38 68  1  0  0  0  0
 38 71  1  0  0  0  0
 38 79  2  0  0  0  0
 39 42  1  0  0  0  0
 40 51  1  0  0  0  0
 41 67  1  0  0  0  0
 42 44  1  0  0  0  0
 43 45  1  0  0  0  0
 43 46  1  0  0  0  0
 44 50  1  0  0  0  0
 45 53  1  0  0  0  0
 46 68  1  0  0  0  0
 47 52  1  0  0  0  0
 47 66  1  0  0  0  0
 48 52  1  0  0  0  0
 48 66  1  0  0  0  0
 49 53  1  0  0  0  0
 49 68  1  0  0  0  0
 50 72  1  0  0  0  0
 51 67  1  0  0  0  0
 52 60  1  0  0  0  0
 53 65  1  0  0  0  0
 55 62  1  0  0  0  0
 56 63  1  0  0  0  0
 57 63  1  0  0  0  0
 58 63  1  0  0  0  0
 59 74  1  0  0  0  0
 60 81  1  0  0  0  0
 61 63  1  0  0  0  0
 61 73  1  0  0  0  0
 62 74  1  0  0  0  0
 64 65  1  0  0  0  0
M  CHG  1  74   1
M  ISO  4  38 100  60 101  71 100  81 101
M  END
> <Batch ID>
0024

> <Smiles>
CNC(C)C(=O)NC(C(=O)N1Cc2cc([101O:1][101CH2:1]C3CN(c4ccc([100NH:0][100C:0](=O)N5CCCC(n6nc(-c7ccc(Oc8ccc(F)cc8F)cc7)c(C(N)=O)c6N)C5)c(C)c4F)C3)ccc2CC1C(=O)NC1CCCc2ccccc21)C(C)(C)C

> <Shape>
0.298

> <Color>
0.132

> <Negative vol penalty>
0.000

$$$$

  -OEChem-04042321203D

 85 94  0     1  0  0  0  0  0999 V2000
  -27.2651  -37.3780   20.9540 C   0  0  0  0  0  0  0  0  0  0  0  0
  -28.1773  -36.3971   21.3296 C   0  0  0  0  0  0  0  0  0  0  0  0
  -22.7037  -10.1544   20.4101 C   0  0  0  0  0  0  0  0  0  0  0  0
  -24.5426   -8.9898   21.4585 C   0  0  0  0  0  0  0  0  0  0  0  0
  -25.9622  -37.3430   21.4489 C   0  0  0  0  0  0  0  0  0  0  0  0
  -27.7872  -35.3810   22.2014 C   0  0  0  0  0  0  0  0  0  0  0  0
  -28.0649  -27.6275   21.2891 C   0  0  0  0  0  0  0  0  0  0  0  0
  -21.8112   -9.5285   21.2802 C   0  0  0  0  0  0  0  0  0  0  0  0
  -23.6501   -8.3638   22.3287 C   0  0  0  0  0  0  0  0  0  0  0  0
  -27.9170  -26.2444   21.1820 C   0  0  0  0  0  0  0  0  0  0  0  0
  -21.8192   -6.1855   24.5898 C   0  0  0  0  0  0  0  0  0  0  0  0
  -21.9776   -4.8168   24.8071 C   0  0  0  0  0  0  0  0  0  0  0  0
  -26.0779  -26.3088   22.7509 C   0  0  0  0  0  0  0  0  0  0  0  0
  -25.3834  -19.3425   20.9336 C   0  0  0  0  0  0  0  0  0  0  0  0
  -27.9929  -18.4961   21.4408 C   0  0  0  0  0  0  0  0  0  0  0  0
  -21.6380   -4.4035   22.4510 C   0  0  0  0  0  0  0  0  0  0  0  0
  -24.0694   -9.8851   20.4992 C   0  0  0  0  0  0  0  0  0  0  0  0
  -25.0061  -10.4510   18.1948 C   0  0  0  0  0  0  0  0  0  0  0  0
  -25.5532  -36.3205   22.3196 C   0  0  0  0  0  0  0  0  0  0  0  0
  -27.2089  -28.3593   22.1168 C   0  0  0  0  0  0  0  0  0  0  0  0
  -26.4780  -35.3330   22.7095 C   0  0  0  0  0  0  0  0  0  0  0  0
  -26.2133  -27.6959   22.8527 C   0  0  0  0  0  0  0  0  0  0  0  0
  -26.2488  -20.1524   21.6690 C   0  0  0  0  0  0  0  0  0  0  0  0
  -27.1275  -17.6862   20.7055 C   0  0  0  0  0  0  0  0  0  0  0  0
  -22.2843   -8.6332   22.2395 C   0  0  0  0  0  0  0  0  0  0  0  0
  -26.9261  -25.5868   21.9113 C   0  0  0  0  0  0  0  0  0  0  0  0
  -21.5700   -6.6632   23.3031 C   0  0  0  0  0  0  0  0  0  0  0  0
  -21.8871   -3.9258   23.7377 C   0  0  0  0  0  0  0  0  0  0  0  0
  -25.8228  -18.1093   20.4519 C   0  0  0  0  0  0  0  0  0  0  0  0
  -27.5535  -19.7293   21.9226 C   0  0  0  0  0  0  0  0  0  0  0  0
  -21.4795   -5.7722   22.2338 C   0  0  0  0  0  0  0  0  0  0  0  0
  -24.9919  -10.5309   19.6003 C   0  0  0  0  0  0  0  0  0  0  0  0
  -26.0674  -11.2367   17.8170 C   0  0  0  0  0  0  0  0  0  0  0  0
  -25.7215  -21.8522   23.4637 C   0  0  0  0  0  0  0  0  0  0  0  0
  -25.9113  -21.2274   24.6345 C   0  0  0  0  0  0  0  0  0  0  0  0
  -24.1376   -9.7309   17.3100 C   0  0  0  0  0  0  0  0  0  0  0  0
  -26.2193  -31.7227   23.4524 C   0  0  0  0  0  0  0  0  0  0  0  0
  -23.6233  -30.1864   22.8949 C   0  0  0  0  0  0  0  0  0  0  0  0
  -21.0062  -28.3201   21.7524 C   0  0  0  0  0  0  0  0  0  0  0  0
  -28.8387  -15.8651   20.3865 C   0  0  0  0  0  0  0  0  0  0  0  0
  -24.1478  -36.3512   22.8658 C   0  0  0  0  0  0  0  0  0  0  0  0
  -27.3712  -29.8425   22.3101 C   0  0  0  0  0  0  0  0  0  0  0  0
  -25.3376  -28.5195   23.7570 C   0  0  0  0  0  0  0  0  0  0  0  0
  -25.2705  -23.3002   23.4404 C   0  0  0  0  0  0  0  0  0  0  0  0
  -23.7078  -35.0292   23.4897 C   0  0  0  0  0  0  0  0  0  0  0  0
  -30.3205  -12.7887   19.3780 C   0  0  0  0  0  0  0  0  0  0  0  0
  -24.7951  -34.4858   24.4112 C   0  0  0  0  0  0  0  0  0  0  0  0
  -29.1231  -11.8551   19.1867 C   0  0  0  0  0  0  0  0  0  0  0  0
  -30.1155  -13.7400   20.5556 C   0  0  0  0  0  0  0  0  0  0  0  0
  -27.6678  -13.5757   20.3306 C   0  0  0  0  0  0  0  0  0  0  0  0
  -25.3481  -22.4037   21.1877 C   0  0  0  0  0  0  0  0  0  0  0  0
  -26.0857  -34.2007   23.6336 C   0  0  1  0  0  0  0  0  0  0  0  0
  -26.0318  -30.5761   22.5029 C   0  0  1  0  0  0  0  0  0  0  0  0
  -27.8001  -12.6426   19.1159 C   0  0  2  0  0  0  0  0  0  0  0  0
  -25.4750  -23.7061   21.9805 C   0  0  2  0  0  0  0  0  0  1  0  0
  -18.5044  -28.3461   21.5593 C   0  0  0  0  0  0  0  0  0  0  0  0
  -23.3909  -29.5431   25.8674 C   0  0  0  0  0  0  0  0  0  0  0  0
  -21.0883  -28.6654   25.4250 C   0  0  0  0  0  0  0  0  0  0  0  0
  -21.6122  -31.0646   24.9868 C   0  0  0  0  0  0  0  0  0  0  0  0
  -21.1168  -28.1787   18.7983 C   0  0  0  0  0  0  0  0  0  0  0  0
  -22.5408  -29.2911   23.4426 C   0  0  1  0  0  0  0  0  0  0  0  0
  -19.8209  -28.6782   20.8743 C   0  0  2  0  0  0  0  0  0  0  0  0
  -22.1805  -29.6305   24.9165 C   0  0  0  0  0  0  0  0  0  0  0  0
  -25.9668  -11.3061   20.0825 N   0  0  0  0  0  0  0  0  0  0  0  0
  -26.6037  -11.7204   18.9740 N   0  0  0  0  0  0  0  0  0  0  0  0
  -25.8033  -21.3957   22.1540 N   0  0  0  0  0  0  0  0  0  0  0  0
  -24.9458  -29.7651   23.0789 N   0  0  0  0  0  0  0  0  0  0  0  0
  -28.8445  -14.4545   20.4184 N   0  0  0  0  0  0  0  0  0  0  0  0
  -26.5849  -11.5540   16.6112 N   0  0  0  0  0  0  0  0  0  0  0  0
  -24.4793   -8.4173   16.9609 N   0  0  0  0  0  0  0  0  0  0  0  0
  -27.5760  -16.4329   20.2199 N   0  0  0  0  0  0  0  0  0  0  0  0
  -25.9674  -32.9618   22.8949 N   0  0  0  0  0  0  0  0  0  0  0  0
  -21.4193  -29.3921   22.5149 N   0  0  0  0  0  0  0  0  0  0  0  0
  -19.8837  -27.9282   19.5881 N   0  3  0  0  0  0  0  0  0  0  0  0
  -23.0981  -10.2431   16.8298 O   0  0  0  0  0  0  0  0  0  0  0  0
  -26.5655  -31.5008   24.6067 O   0  0  0  0  0  0  0  0  0  0  0  0
  -23.3079  -31.2342   22.3239 O   0  0  0  0  0  0  0  0  0  0  0  0
  -21.5126  -27.2003   21.7637 O   0  0  0  0  0  0  0  0  0  0  0  0
  -29.8805  -16.5205   20.4715 O   0  0  0  0  0  0  0  0  0  0  0  0
  -21.4137   -8.0224   23.0889 O   0  0  0  0  0  0  0  0  0  0  0  0
  -26.7844  -24.2370   21.7985 O   0  0  0  0  0  0  0  0  0  1  0  0
  -22.0409   -2.6117   23.9462 F   0  0  0  0  0  0  0  0  0  0  0  0
  -24.9826  -17.3379   19.7474 F   0  0  0  0  0  0  0  0  0  0  0  0
  -28.3937  -20.4986   22.6293 F   0  0  0  0  0  0  0  0  0  0  0  0
  -21.2415   -6.2253   20.9952 F   0  0  0  0  0  0  0  0  0  0  0  0
  1  2  1  0  0  0  0
  1  5  2  0  0  0  0
  2  6  2  0  0  0  0
  3  8  2  0  0  0  0
  3 17  1  0  0  0  0
  4  9  1  0  0  0  0
  4 17  2  0  0  0  0
  5 19  1  0  0  0  0
  6 21  1  0  0  0  0
  7 10  2  0  0  0  0
  7 20  1  0  0  0  0
  8 25  1  0  0  0  0
  9 25  2  0  0  0  0
 10 26  1  0  0  0  0
 11 12  2  0  0  0  0
 11 27  1  0  0  0  0
 12 28  1  0  0  0  0
 13 22  1  0  0  0  0
 13 26  2  0  0  0  0
 14 23  1  0  0  0  0
 14 29  2  0  0  0  0
 15 24  2  0  0  0  0
 15 30  1  0  0  0  0
 16 28  2  0  0  0  0
 16 31  1  0  0  0  0
 17 32  1  0  0  0  0
 18 32  1  0  0  0  0
 18 33  2  0  0  0  0
 18 36  1  0  0  0  0
 19 21  2  0  0  0  0
 19 41  1  0  0  0  0
 20 22  2  0  0  0  0
 20 42  1  0  0  0  0
 21 52  1  0  0  0  0
 22 43  1  0  0  0  0
 23 30  2  0  0  0  0
 23 66  1  0  0  0  0
 24 29  1  0  0  0  0
 24 71  1  0  0  0  0
 25 80  1  0  0  0  0
 26 81  1  0  0  0  0
 27 31  2  0  0  0  0
 27 80  1  0  0  0  0
 28 82  1  0  0  0  0
 29 83  1  0  0  0  0
 30 84  1  0  0  0  0
 31 85  1  0  0  0  0
 32 64  2  0  0  0  0
 33 65  1  0  0  0  0
 33 69  1  0  0  0  0
 34 35  2  0  0  0  0
 34 44  1  0  0  0  0
 34 66  1  0  0  0  0
 36 70  1  0  0  0  0
 36 75  2  0  0  0  0
 37 53  1  0  0  0  0
 37 72  1  0  0  0  0
 37 76  2  0  0  0  0
 38 61  1  0  0  0  0
 38 67  1  0  0  0  0
 38 77  2  0  0  0  0
 39 62  1  0  0  0  0
 39 73  1  0  0  0  0
 39 78  2  0  0  0  0
 40 68  1  0  0  0  0
 40 71  1  0  0  0  0
 40 79  2  0  0  0  0
 41 45  1  0  0  0  0
 42 53  1  0  0  0  0
 43 67  1  0  0  0  0
 44 55  1  0  0  0  0
 45 47  1  0  0  0  0
 46 48  1  0  0  0  0
 46 49  1  0  0  0  0
 47 52  1  0  0  0  0
 48 54  1  0  0  0  0
 49 68  1  0  0  0  0
 50 54  1  0  0  0  0
 50 68  1  0  0  0  0
 51 55  1  0  0  0  0
 51 66  1  0  0  0  0
 52 72  1  0  0  0  0
 53 67  1  0  0  0  0
 54 65  1  0  0  0  0
 55 81  1  0  0  0  0
 56 62  1  0  0  0  0
 57 63  1  0  0  0  0
 58 63  1  0  0  0  0
 59 63  1  0  0  0  0
 60 74  1  0  0  0  0
 61 63  1  0  0  0  0
 61 73  1  0  0  0  0
 62 74  1  0  0  0  0
 64 65  1  0  0  0  0
M  CHG  1  74   1
M  ISO  4  40 100  55 101  71 100  81 101
M  END
> <Batch ID>
0024

> <Smiles>
C=C1C[101CH:1]([101O:1]c2ccc3c(c2)CN(C(=O)C(NC(=O)C(C)NC)C(C)(C)C)C(C(=O)NC2CCCc4ccccc42)C3)CN1c1cc(F)c([100NH:0][100C:0](=O)N2CCCC(n3nc(-c4ccc(Oc5ccc(F)cc5F)cc4)c(C(N)=O)c3N)C2)cc1F

> <Shape>
0.272

> <Color>
0.093

> <Negative vol penalty>
0.000

$$$$

  -OEChem-04042321203D

 83 91  0     1  0  0  0  0  0999 V2000
  -17.6400  -24.8632   24.7672 C   0  0  0  0  0  0  0  0  0  0  0  0
  -18.9943  -24.5460   24.7896 C   0  0  0  0  0  0  0  0  0  0  0  0
  -26.5931  -13.5845   21.1269 C   0  0  0  0  0  0  0  0  0  0  0  0
  -28.1215  -12.5829   19.5464 C   0  0  0  0  0  0  0  0  0  0  0  0
  -26.8749  -22.1906   20.1698 C   0  0  0  0  0  0  0  0  0  0  0  0
  -17.2036  -26.0049   24.0963 C   0  0  0  0  0  0  0  0  0  0  0  0
  -19.9131  -25.3697   24.1401 C   0  0  0  0  0  0  0  0  0  0  0  0
  -24.0328  -26.2735   26.9430 C   0  0  0  0  0  0  0  0  0  0  0  0
  -27.4121  -22.5896   21.3936 C   0  0  0  0  0  0  0  0  0  0  0  0
  -26.0506  -12.3285   21.3984 C   0  0  0  0  0  0  0  0  0  0  0  0
  -27.5790  -11.3268   19.8179 C   0  0  0  0  0  0  0  0  0  0  0  0
  -24.9932  -25.2649   27.0069 C   0  0  0  0  0  0  0  0  0  0  0  0
  -23.8636  -10.1951   19.9528 C   0  0  0  0  0  0  0  0  0  0  0  0
  -22.4740  -10.0889   20.0108 C   0  0  0  0  0  0  0  0  0  0  0  0
  -29.1030  -21.9824   19.2595 C   0  0  0  0  0  0  0  0  0  0  0  0
  -26.3143  -26.4266   25.3563 C   0  0  0  0  0  0  0  0  0  0  0  0
  -22.6276   -9.3269   22.2983 C   0  0  0  0  0  0  0  0  0  0  0  0
  -27.6285  -13.7117   20.2009 C   0  0  0  0  0  0  0  0  0  0  0  0
  -27.7203  -21.8870   19.1027 C   0  0  0  0  0  0  0  0  0  0  0  0
  -29.2712  -15.6275   20.5739 C   0  0  0  0  0  0  0  0  0  0  0  0
  -18.1185  -26.8483   23.4465 C   0  0  0  0  0  0  0  0  0  0  0  0
  -24.2009  -27.3626   26.0758 C   0  0  0  0  0  0  0  0  0  0  0  0
  -19.4884  -26.5230   23.4588 C   0  0  0  0  0  0  0  0  0  0  0  0
  -25.3557  -27.4490   25.2851 C   0  0  0  0  0  0  0  0  0  0  0  0
  -28.7949  -22.6849   21.5504 C   0  0  0  0  0  0  0  0  0  0  0  0
  -26.5436  -11.1996   20.7439 C   0  0  0  0  0  0  0  0  0  0  0  0
  -26.1328  -25.3399   26.2114 C   0  0  0  0  0  0  0  0  0  0  0  0
  -24.6352   -9.8671   21.0676 C   0  0  0  0  0  0  0  0  0  0  0  0
  -21.8560   -9.6548   21.1835 C   0  0  0  0  0  0  0  0  0  0  0  0
  -29.6403  -22.3813   20.4833 C   0  0  0  0  0  0  0  0  0  0  0  0
  -24.0172   -9.4331   22.2404 C   0  0  0  0  0  0  0  0  0  0  0  0
  -28.1889  -15.0090   19.9196 C   0  0  0  0  0  0  0  0  0  0  0  0
  -29.4096  -16.8378   19.9394 C   0  0  0  0  0  0  0  0  0  0  0  0
  -27.1553  -21.4652   17.8144 C   0  0  0  0  0  0  0  0  0  0  0  0
  -30.0791  -15.1506   21.6581 C   0  0  0  0  0  0  0  0  0  0  0  0
  -22.5992  -28.5130   23.5828 C   0  0  0  0  0  0  0  0  0  0  0  0
  -24.7581  -30.9240   23.8034 C   0  0  0  0  0  0  0  0  0  0  0  0
  -28.2295  -22.6425   25.0460 C   0  0  0  0  0  0  0  0  0  0  0  0
  -27.8369  -31.9704   24.8394 C   0  0  0  0  0  0  0  0  0  0  0  0
  -17.5942  -28.0458   22.6944 C   0  0  0  0  0  0  0  0  0  0  0  0
  -23.1685  -28.4558   26.0382 C   0  0  0  0  0  0  0  0  0  0  0  0
  -25.5934  -28.6075   24.3525 C   0  0  0  0  0  0  0  0  0  0  0  0
  -18.6737  -29.0683   22.3486 C   0  0  0  0  0  0  0  0  0  0  0  0
  -27.3123  -18.6018   15.6889 C   0  0  0  0  0  0  0  0  0  0  0  0
  -19.9019  -28.3730   21.7699 C   0  0  0  0  0  0  0  0  0  0  0  0
  -27.6240  -17.4568   16.6544 C   0  0  0  0  0  0  0  0  0  0  0  0
  -26.3961  -19.6431   16.3266 C   0  0  0  0  0  0  0  0  0  0  0  0
  -27.1953  -19.0356   18.5843 C   0  0  0  0  0  0  0  0  0  0  0  0
  -20.5184  -27.4051   22.7871 C   0  0  1  0  0  0  0  0  0  0  0  0
  -23.1965  -29.2597   24.7419 C   0  0  1  0  0  0  0  0  0  0  0  0
  -28.1574  -17.9895   17.9976 C   0  0  1  0  0  0  0  0  0  0  0  0
  -29.3342  -33.9842   24.8449 C   0  0  0  0  0  0  0  0  0  0  0  0
  -25.3962  -30.4546   20.8568 C   0  0  0  0  0  0  0  0  0  0  0  0
  -27.4927  -31.7867   21.1704 C   0  0  0  0  0  0  0  0  0  0  0  0
  -25.2696  -32.8609   21.5263 C   0  0  0  0  0  0  0  0  0  0  0  0
  -29.4442  -20.8395   23.8106 C   0  0  0  0  0  0  0  0  0  0  0  0
  -27.8983  -32.0607   27.7969 C   0  0  0  0  0  0  0  0  0  0  0  0
  -29.3706  -23.1146   22.8687 C   0  0  0  0  0  0  0  0  0  0  0  0
  -27.8199  -24.0997   25.0839 C   0  0  0  0  0  0  0  0  0  1  0  0
  -26.1251  -31.1916   23.2214 C   0  0  1  0  0  0  0  0  0  0  0  0
  -28.2756  -33.2036   25.6083 C   0  0  2  0  0  0  0  0  0  0  0  0
  -26.0658  -31.5505   21.7098 C   0  0  0  0  0  0  0  0  0  0  0  0
  -27.6762  -15.7641   18.9445 N   0  0  0  0  0  0  0  0  0  0  0  0
  -28.4395  -16.8695   18.9813 N   0  0  0  0  0  0  0  0  0  0  0  0
  -26.9428  -20.1007   17.6035 N   0  0  0  0  0  0  0  0  0  0  0  0
  -24.5519  -29.6481   24.3468 N   0  0  0  0  0  0  0  0  0  0  0  0
  -30.2653  -17.8674   20.1133 N   0  0  0  0  0  0  0  0  0  0  0  0
  -29.8009  -13.8851   22.1923 N   0  0  0  0  0  0  0  0  0  0  0  0
  -21.2851  -28.1321   23.7760 N   0  0  0  0  0  0  0  0  0  0  0  0
  -26.7298  -32.2232   24.0572 N   0  0  0  0  0  0  0  0  0  0  0  0
  -28.9843  -22.2154   23.9530 N   0  0  0  0  0  0  0  0  0  0  0  0
  -28.8409  -32.8152   26.9313 N   0  3  0  0  0  0  0  0  0  0  0  0
  -26.9209  -22.3608   17.0045 O   0  0  0  0  0  0  0  0  0  0  0  0
  -31.0093  -15.8336   22.1497 O   0  0  0  0  0  0  0  0  0  0  0  0
  -23.2798  -28.2997   22.5864 O   0  0  0  0  0  0  0  0  0  0  0  0
  -23.9070  -31.8166   23.7833 O   0  0  0  0  0  0  0  0  0  0  0  0
  -27.8882  -21.9060   25.9766 O   0  0  0  0  0  0  0  0  0  0  0  0
  -28.4203  -30.8918   24.9214 O   0  0  0  0  0  0  0  0  0  0  0  0
  -26.0146   -9.9738   21.0087 O   0  0  0  0  0  0  0  0  0  0  0  0
  -27.0715  -24.3565   26.2714 O   0  0  0  0  0  0  0  0  0  1  0  0
  -20.5215   -9.5544   21.2395 F   0  0  0  0  0  0  0  0  0  0  0  0
  -30.9702  -22.4703   20.6246 F   0  0  0  0  0  0  0  0  0  0  0  0
  -24.7532   -9.1177   23.3149 F   0  0  0  0  0  0  0  0  0  0  0  0
  1  2  1  0  0  0  0
  1  6  2  0  0  0  0
  2  7  2  0  0  0  0
  3 10  2  0  0  0  0
  3 18  1  0  0  0  0
  4 11  1  0  0  0  0
  4 18  2  0  0  0  0
  5  9  2  0  0  0  0
  5 19  1  0  0  0  0
  6 21  1  0  0  0  0
  7 23  1  0  0  0  0
  8 12  2  0  0  0  0
  8 22  1  0  0  0  0
  9 25  1  0  0  0  0
 10 26  1  0  0  0  0
 11 26  2  0  0  0  0
 12 27  1  0  0  0  0
 13 14  2  0  0  0  0
 13 28  1  0  0  0  0
 14 29  1  0  0  0  0
 15 19  2  0  0  0  0
 15 30  1  0  0  0  0
 16 24  1  0  0  0  0
 16 27  2  0  0  0  0
 17 29  2  0  0  0  0
 17 31  1  0  0  0  0
 18 32  1  0  0  0  0
 19 34  1  0  0  0  0
 20 32  1  0  0  0  0
 20 33  2  0  0  0  0
 20 35  1  0  0  0  0
 21 23  2  0  0  0  0
 21 40  1  0  0  0  0
 22 24  2  0  0  0  0
 22 41  1  0  0  0  0
 23 49  1  0  0  0  0
 24 42  1  0  0  0  0
 25 30  2  0  0  0  0
 25 58  1  0  0  0  0
 26 79  1  0  0  0  0
 27 80  1  0  0  0  0
 28 31  2  0  0  0  0
 28 79  1  0  0  0  0
 29 81  1  0  0  0  0
 30 82  1  0  0  0  0
 31 83  1  0  0  0  0
 32 63  2  0  0  0  0
 33 64  1  0  0  0  0
 33 67  1  0  0  0  0
 34 65  1  0  0  0  0
 34 73  2  0  0  0  0
 35 68  1  0  0  0  0
 35 74  2  0  0  0  0
 36 50  1  0  0  0  0
 36 69  1  0  0  0  0
 36 75  2  0  0  0  0
 37 60  1  0  0  0  0
 37 66  1  0  0  0  0
 37 76  2  0  0  0  0
 38 59  1  0  0  0  0
 38 71  1  0  0  0  0
 38 77  2  0  0  0  0
 39 61  1  0  0  0  0
 39 70  1  0  0  0  0
 39 78  2  0  0  0  0
 40 43  1  0  0  0  0
 41 50  1  0  0  0  0
 42 66  1  0  0  0  0
 43 45  1  0  0  0  0
 44 46  1  0  0  0  0
 44 47  1  0  0  0  0
 45 49  1  0  0  0  0
 46 51  1  0  0  0  0
 47 65  1  0  0  0  0
 48 51  1  0  0  0  0
 48 65  1  0  0  0  0
 49 69  1  0  0  0  0
 50 66  1  0  0  0  0
 51 64  1  0  0  0  0
 52 61  1  0  0  0  0
 53 62  1  0  0  0  0
 54 62  1  0  0  0  0
 55 62  1  0  0  0  0
 56 71  1  0  0  0  0
 57 72  1  0  0  0  0
 58 71  1  0  0  0  0
 59 80  1  0  0  0  0
 60 62  1  0  0  0  0
 60 70  1  0  0  0  0
 61 72  1  0  0  0  0
 63 64  1  0  0  0  0
M  CHG  1  72   1
M  ISO  4  19 100  34 100  59 101  80 101
M  END
> <Batch ID>
0024

> <Smiles>
CNC(C)C(=O)NC(C(=O)N1Cc2cc([101O:1][101CH2:1]C(=O)N(C)Cc3cc[100c:0]([100C:0](=O)N4CCCC(n5nc(-c6ccc(Oc7ccc(F)cc7F)cc6)c(C(N)=O)c5N)C4)cc3F)ccc2CC1C(=O)NC1CCCc2ccccc21)C(C)(C)C

> <Shape>
0.258

> <Color>
0.079

> <Negative vol penalty>
0.000

$$$$

  -OEChem-04042321203D

 84 93  0     1  0  0  0  0  0999 V2000
  -18.0836  -29.4373   24.0067 C   0  0  0  0  0  0  0  0  0  0  0  0
  -19.4710  -29.5280   23.9579 C   0  0  0  0  0  0  0  0  0  0  0  0
  -25.0972  -13.2720   19.5490 C   0  0  0  0  0  0  0  0  0  0  0  0
  -25.9793  -13.8708   21.7170 C   0  0  0  0  0  0  0  0  0  0  0  0
  -17.4357  -28.3542   23.4142 C   0  0  0  0  0  0  0  0  0  0  0  0
  -20.2114  -28.5350   23.3175 C   0  0  0  0  0  0  0  0  0  0  0  0
  -25.3985  -29.2773   20.1476 C   0  0  0  0  0  0  0  0  0  0  0  0
  -30.5429  -24.6516   21.2870 C   0  0  0  0  0  0  0  0  0  0  0  0
  -30.3319  -23.5027   20.5247 C   0  0  0  0  0  0  0  0  0  0  0  0
  -24.9716  -11.9469   19.9660 C   0  0  0  0  0  0  0  0  0  0  0  0
  -25.8537  -12.5457   22.1341 C   0  0  0  0  0  0  0  0  0  0  0  0
  -26.7387  -29.0939   20.4855 C   0  0  0  0  0  0  0  0  0  0  0  0
  -22.8333  -10.1175   21.8405 C   0  0  0  0  0  0  0  0  0  0  0  0
  -21.6460   -9.4518   21.5359 C   0  0  0  0  0  0  0  0  0  0  0  0
  -26.6751  -26.8866   19.5145 C   0  0  0  0  0  0  0  0  0  0  0  0
  -28.0621  -23.3769   21.3429 C   0  0  0  0  0  0  0  0  0  0  0  0
  -22.8905   -7.8095   20.2744 C   0  0  0  0  0  0  0  0  0  0  0  0
  -25.6011  -14.2340   20.4245 C   0  0  0  0  0  0  0  0  0  0  0  0
  -24.7688  -16.6240   20.1040 C   0  0  0  0  0  0  0  0  0  0  0  0
  -18.1679  -27.3524   22.7578 C   0  0  0  0  0  0  0  0  0  0  0  0
  -24.6824  -28.2608   19.4993 C   0  0  0  0  0  0  0  0  0  0  0  0
  -19.5727  -27.4368   22.7168 C   0  0  0  0  0  0  0  0  0  0  0  0
  -25.3267  -27.0605   19.1672 C   0  0  0  0  0  0  0  0  0  0  0  0
  -28.2732  -24.5258   22.1052 C   0  0  0  0  0  0  0  0  0  0  0  0
  -29.5136  -25.1632   22.0772 C   0  0  0  0  0  0  0  0  0  0  0  0
  -29.0915  -22.8653   20.5527 C   0  0  0  0  0  0  0  0  0  0  0  0
  -25.3498  -11.5837   21.2585 C   0  0  0  0  0  0  0  0  0  0  0  0
  -27.3764  -27.8973   20.1715 C   0  0  0  0  0  0  0  0  0  0  0  0
  -24.0492   -9.6293   21.3620 C   0  0  0  0  0  0  0  0  0  0  0  0
  -21.6746   -8.2978   20.7529 C   0  0  0  0  0  0  0  0  0  0  0  0
  -24.0778   -8.4753   20.5789 C   0  0  0  0  0  0  0  0  0  0  0  0
  -25.7316  -15.6028   19.9941 C   0  0  0  0  0  0  0  0  0  0  0  0
  -25.3742  -17.7274   19.5540 C   0  0  0  0  0  0  0  0  0  0  0  0
  -23.4456  -16.5792   20.6543 C   0  0  0  0  0  0  0  0  0  0  0  0
  -22.1292  -26.5082   20.2158 C   0  0  0  0  0  0  0  0  0  0  0  0
  -22.4929  -25.4395   17.1747 C   0  0  0  0  0  0  0  0  0  0  0  0
  -24.5638  -24.9335   14.5098 C   0  0  0  0  0  0  0  0  0  0  0  0
  -29.7915  -21.0610   18.9400 C   0  0  0  0  0  0  0  0  0  0  0  0
  -17.4264  -26.1764   22.1730 C   0  0  0  0  0  0  0  0  0  0  0  0
  -23.2447  -28.4846   19.1178 C   0  0  0  0  0  0  0  0  0  0  0  0
  -24.6080  -25.9459   18.4534 C   0  0  0  0  0  0  0  0  0  0  0  0
  -18.2595  -25.3592   21.1890 C   0  0  0  0  0  0  0  0  0  0  0  0
  -29.6599  -18.1501   16.8939 C   0  0  0  0  0  0  0  0  0  0  0  0
  -29.9291  -27.7727   24.6724 C   0  0  0  0  0  0  0  0  0  0  0  0
  -19.6462  -25.0853   21.7624 C   0  0  0  0  0  0  0  0  0  0  0  0
  -28.5470  -17.3119   17.5271 C   0  0  0  0  0  0  0  0  0  0  0  0
  -30.8374  -28.2545   23.5522 C   0  0  0  0  0  0  0  0  0  0  0  0
  -29.6214  -26.3296   24.2859 C   0  0  0  0  0  0  0  0  0  0  0  0
  -30.4821  -18.8900   17.9477 C   0  0  0  0  0  0  0  0  0  0  0  0
  -28.5866  -18.8642   19.5211 C   0  0  0  0  0  0  0  0  0  0  0  0
  -20.4091  -26.3924   22.0098 C   0  0  1  0  0  0  0  0  0  0  0  0
  -22.4703  -27.1854   18.9185 C   0  0  1  0  0  0  0  0  0  0  0  0
  -27.6904  -18.1515   18.4951 C   0  0  2  0  0  0  0  0  0  0  0  0
  -30.2733  -27.5653   22.3018 C   0  0  2  0  0  0  0  0  0  0  0  0
  -27.1540  -25.0516   22.9438 C   0  0  0  0  0  0  0  0  0  0  0  0
  -24.5827  -24.0069   12.1777 C   0  0  0  0  0  0  0  0  0  0  0  0
  -22.4902  -22.6048   18.3036 C   0  0  0  0  0  0  0  0  0  0  0  0
  -23.4450  -21.8126   16.1289 C   0  0  0  0  0  0  0  0  0  0  0  0
  -21.1932  -22.8846   16.1837 C   0  0  0  0  0  0  0  0  0  0  0  0
  -25.3304  -27.5475   13.3530 C   0  0  0  0  0  0  0  0  0  0  0  0
  -29.1628  -28.3960   21.6601 C   0  0  0  0  0  0  0  0  0  1  0  0
  -23.2534  -24.3105   16.5220 C   0  0  1  0  0  0  0  0  0  0  0  0
  -24.4023  -25.2507   13.0341 C   0  0  2  0  0  0  0  0  0  0  0  0
  -22.6088  -22.9232   16.7997 C   0  0  0  0  0  0  0  0  0  0  0  0
  -26.8626  -16.0203   19.4192 N   0  0  0  0  0  0  0  0  0  0  0  0
  -26.6143  -17.3159   19.1629 N   0  0  0  0  0  0  0  0  0  0  0  0
  -29.7404  -26.3021   22.8268 N   0  0  3  0  0  0  0  0  0  0  0  0
  -23.2017  -26.2101   18.1072 N   0  0  0  0  0  0  0  0  0  0  0  0
  -29.6045  -19.6672   18.8256 N   0  0  0  0  0  0  0  0  0  0  0  0
  -24.9613  -18.9996   19.3714 N   0  0  0  0  0  0  0  0  0  0  0  0
  -22.9805  -15.3652   21.1780 N   0  0  0  0  0  0  0  0  0  0  0  0
  -28.8771  -21.6986   19.7778 N   0  0  0  0  0  0  0  0  0  0  0  0
  -20.9292  -26.9172   20.7654 N   0  0  0  0  0  0  0  0  0  0  0  0
  -23.3536  -24.6504   15.1068 N   0  0  0  0  0  0  0  0  0  0  0  0
  -25.4087  -26.2642   12.6088 N   0  3  0  0  0  0  0  0  0  0  0  0
  -22.6918  -17.5818   20.6659 O   0  0  0  0  0  0  0  0  0  0  0  0
  -22.8972  -25.6752   20.6827 O   0  0  0  0  0  0  0  0  0  0  0  0
  -21.3154  -25.6350   16.8632 O   0  0  0  0  0  0  0  0  0  0  0  0
  -25.6550  -24.9331   15.0754 O   0  0  0  0  0  0  0  0  0  0  0  0
  -30.6792  -21.6500   18.3178 O   0  0  0  0  0  0  0  0  0  0  0  0
  -25.2272  -10.2908   21.6659 O   0  0  0  0  0  0  0  0  0  0  0  0
  -28.6842  -27.7154   20.5007 O   0  0  0  0  0  0  0  0  0  1  0  0
  -20.5345   -7.6578   20.4618 F   0  0  0  0  0  0  0  0  0  0  0  0
  -25.2429   -8.0008   20.1173 F   0  0  0  0  0  0  0  0  0  0  0  0
  1  2  1  0  0  0  0
  1  5  2  0  0  0  0
  2  6  2  0  0  0  0
  3 10  2  0  0  0  0
  3 18  1  0  0  0  0
  4 11  1  0  0  0  0
  4 18  2  0  0  0  0
  5 20  1  0  0  0  0
  6 22  1  0  0  0  0
  7 12  2  0  0  0  0
  7 21  1  0  0  0  0
  8  9  2  0  0  0  0
  8 25  1  0  0  0  0
  9 26  1  0  0  0  0
 10 27  1  0  0  0  0
 11 27  2  0  0  0  0
 12 28  1  0  0  0  0
 13 14  2  0  0  0  0
 13 29  1  0  0  0  0
 14 30  1  0  0  0  0
 15 23  1  0  0  0  0
 15 28  2  0  0  0  0
 16 24  1  0  0  0  0
 16 26  2  0  0  0  0
 17 30  2  0  0  0  0
 17 31  1  0  0  0  0
 18 32  1  0  0  0  0
 19 32  1  0  0  0  0
 19 33  2  0  0  0  0
 19 34  1  0  0  0  0
 20 22  2  0  0  0  0
 20 39  1  0  0  0  0
 21 23  2  0  0  0  0
 21 40  1  0  0  0  0
 22 51  1  0  0  0  0
 23 41  1  0  0  0  0
 24 25  2  0  0  0  0
 24 55  1  0  0  0  0
 25 67  1  0  0  0  0
 26 72  1  0  0  0  0
 27 81  1  0  0  0  0
 28 82  1  0  0  0  0
 29 31  2  0  0  0  0
 29 81  1  0  0  0  0
 30 83  1  0  0  0  0
 31 84  1  0  0  0  0
 32 65  2  0  0  0  0
 33 66  1  0  0  0  0
 33 70  1  0  0  0  0
 34 71  1  0  0  0  0
 34 76  2  0  0  0  0
 35 52  1  0  0  0  0
 35 73  1  0  0  0  0
 35 77  2  0  0  0  0
 36 62  1  0  0  0  0
 36 68  1  0  0  0  0
 36 78  2  0  0  0  0
 37 63  1  0  0  0  0
 37 74  1  0  0  0  0
 37 79  2  0  0  0  0
 38 69  1  0  0  0  0
 38 72  1  0  0  0  0
 38 80  2  0  0  0  0
 39 42  1  0  0  0  0
 40 52  1  0  0  0  0
 41 68  1  0  0  0  0
 42 45  1  0  0  0  0
 43 46  1  0  0  0  0
 43 49  1  0  0  0  0
 44 47  1  0  0  0  0
 44 48  1  0  0  0  0
 45 51  1  0  0  0  0
 46 53  1  0  0  0  0
 47 54  1  0  0  0  0
 48 67  1  0  0  0  0
 49 69  1  0  0  0  0
 50 53  1  0  0  0  0
 50 69  1  0  0  0  0
 51 73  1  0  0  0  0
 52 68  1  0  0  0  0
 53 66  1  0  0  0  0
 54 61  1  0  0  0  0
 54 67  1  0  0  0  0
 56 63  1  0  0  0  0
 57 64  1  0  0  0  0
 58 64  1  0  0  0  0
 59 64  1  0  0  0  0
 60 75  1  0  0  0  0
 61 82  1  0  0  0  0
 62 64  1  0  0  0  0
 62 74  1  0  0  0  0
 63 75  1  0  0  0  0
 65 66  1  0  0  0  0
M  CHG  1  75   1
M  ISO  4  38 100  61 101  72 100  82 101
M  END
> <Batch ID>
0024

> <Smiles>
CNC(C)C(=O)NC(C(=O)N1Cc2cc([101O:1][101CH2:1]C3CCCN3c3ccc([100NH:0][100C:0](=O)N4CCCC(n5nc(-c6ccc(Oc7ccc(F)cc7F)cc6)c(C(N)=O)c5N)C4)cc3C)ccc2CC1C(=O)NC1CCCc2ccccc21)C(C)(C)C

> <Shape>
0.236

> <Color>
0.066

> <Negative vol penalty>
0.000

$$$$

  -OEChem-04042321203D

 86 95  0     1  0  0  0  0  0999 V2000
  -25.8972  -30.1264   24.8217 C   0  0  0  0  0  0  0  0  0  0  0  0
  -26.6584  -29.0211   24.4551 C   0  0  0  0  0  0  0  0  0  0  0  0
  -22.9764   -9.9179   20.0317 C   0  0  0  0  0  0  0  0  0  0  0  0
  -24.2266   -9.5844   22.0720 C   0  0  0  0  0  0  0  0  0  0  0  0
  -25.0741  -30.7469   23.8829 C   0  0  0  0  0  0  0  0  0  0  0  0
  -26.5962  -28.5352   23.1496 C   0  0  0  0  0  0  0  0  0  0  0  0
  -31.1691  -27.4681   21.2537 C   0  0  0  0  0  0  0  0  0  0  0  0
  -30.1732  -16.2326   21.8547 C   0  0  0  0  0  0  0  0  0  0  0  0
  -30.5354  -17.5716   21.7086 C   0  0  0  0  0  0  0  0  0  0  0  0
  -22.3080   -8.7122   20.2442 C   0  0  0  0  0  0  0  0  0  0  0  0
  -23.5582   -8.3787   22.2845 C   0  0  0  0  0  0  0  0  0  0  0  0
  -31.7650  -26.2755   21.6616 C   0  0  0  0  0  0  0  0  0  0  0  0
  -20.5454   -7.3727   23.4385 C   0  0  0  0  0  0  0  0  0  0  0  0
  -20.0674   -7.1162   24.7235 C   0  0  0  0  0  0  0  0  0  0  0  0
  -31.0745  -25.2321   19.5991 C   0  0  0  0  0  0  0  0  0  0  0  0
  -30.5108  -17.8400   24.1096 C   0  0  0  0  0  0  0  0  0  0  0  0
  -21.4437   -5.1339   24.8397 C   0  0  0  0  0  0  0  0  0  0  0  0
  -23.9358  -10.3539   20.9456 C   0  0  0  0  0  0  0  0  0  0  0  0
  -24.0559  -12.8815   20.6218 C   0  0  0  0  0  0  0  0  0  0  0  0
  -25.0091  -30.2742   22.5627 C   0  0  0  0  0  0  0  0  0  0  0  0
  -30.5109  -27.5487   20.0181 C   0  0  0  0  0  0  0  0  0  0  0  0
  -25.7704  -29.1492   22.1926 C   0  0  0  0  0  0  0  0  0  0  0  0
  -30.4733  -26.4276   19.1767 C   0  0  0  0  0  0  0  0  0  0  0  0
  -29.9797  -15.6972   23.1281 C   0  0  0  0  0  0  0  0  0  0  0  0
  -30.7042  -18.3753   22.8361 C   0  0  0  0  0  0  0  0  0  0  0  0
  -22.5988   -7.9426   21.3706 C   0  0  0  0  0  0  0  0  0  0  0  0
  -31.7153  -25.1564   20.8355 C   0  0  0  0  0  0  0  0  0  0  0  0
  -21.4724   -6.5097   22.8540 C   0  0  0  0  0  0  0  0  0  0  0  0
  -20.5166   -5.9968   25.4241 C   0  0  0  0  0  0  0  0  0  0  0  0
  -30.1485  -16.5010   24.2556 C   0  0  0  0  0  0  0  0  0  0  0  0
  -21.9216   -5.3904   23.5546 C   0  0  0  0  0  0  0  0  0  0  0  0
  -24.6270  -11.5990   20.7263 C   0  0  0  0  0  0  0  0  0  0  0  0
  -25.1257  -13.7182   20.4174 C   0  0  0  0  0  0  0  0  0  0  0  0
  -22.6812  -13.2807   20.7024 C   0  0  0  0  0  0  0  0  0  0  0  0
  -27.5253  -28.1399   19.1015 C   0  0  0  0  0  0  0  0  0  0  0  0
  -28.8353  -28.0684   16.1348 C   0  0  0  0  0  0  0  0  0  0  0  0
  -31.3569  -26.9847   14.1066 C   0  0  0  0  0  0  0  0  0  0  0  0
  -31.0169  -12.7762   21.8121 C   0  0  0  0  0  0  0  0  0  0  0  0
  -24.0689  -30.9490   21.5955 C   0  0  0  0  0  0  0  0  0  0  0  0
  -29.8963  -28.8501   19.5811 C   0  0  0  0  0  0  0  0  0  0  0  0
  -29.7966  -26.4679   17.8318 C   0  0  0  0  0  0  0  0  0  0  0  0
  -24.3449  -30.6013   20.1349 C   0  0  0  0  0  0  0  0  0  0  0  0
  -29.5351  -13.7966   18.5772 C   0  0  0  0  0  0  0  0  0  0  0  0
  -24.5407  -29.0973   19.9720 C   0  0  0  0  0  0  0  0  0  0  0  0
  -28.0720  -13.3869   18.7370 C   0  0  0  0  0  0  0  0  0  0  0  0
  -31.3491  -21.9918   23.1446 C   0  0  0  0  0  0  0  0  0  0  0  0
  -30.4641  -12.9194   19.4110 C   0  0  0  0  0  0  0  0  0  0  0  0
  -31.2629  -20.6188   23.8079 C   0  0  0  0  0  0  0  0  0  0  0  0
  -31.2799  -20.3526   21.4025 C   0  0  0  0  0  0  0  0  0  0  0  0
  -28.6401  -12.4510   21.0134 C   0  0  0  0  0  0  0  0  0  0  0  0
  -25.7488  -28.6076   20.7796 C   0  0  1  0  0  0  0  0  0  0  0  0
  -28.8075  -28.6726   18.5272 C   0  0  1  0  0  0  0  0  0  0  0  0
  -31.9479  -21.6807   21.7760 C   0  0  1  0  0  0  0  0  0  0  0  0
  -27.6732  -13.3449   20.2224 C   0  0  2  0  0  0  0  0  0  0  0  0
  -32.1348  -27.0547   11.7217 C   0  0  0  0  0  0  0  0  0  0  0  0
  -26.7188  -26.0020   15.3863 C   0  0  0  0  0  0  0  0  0  0  0  0
  -28.0946  -25.4234   13.3762 C   0  0  0  0  0  0  0  0  0  0  0  0
  -27.1635  -27.7239   13.6279 C   0  0  0  0  0  0  0  0  0  0  0  0
  -31.7040  -13.3050   24.1203 C   0  0  0  0  0  0  0  0  0  0  0  0
  -33.8704  -28.3615   14.8452 C   0  0  0  0  0  0  0  0  0  0  0  0
  -29.5924  -14.2650   23.2807 C   0  0  0  0  0  0  0  0  0  0  0  0
  -31.7109  -22.7796   20.7548 C   0  0  0  0  0  0  0  0  0  1  0  0
  -29.0845  -26.9962   15.1017 C   0  0  1  0  0  0  0  0  0  0  0  0
  -32.2158  -27.7144   13.0896 C   0  0  2  0  0  0  0  0  0  0  0  0
  -27.7765  -26.5347   14.3991 C   0  0  0  0  0  0  0  0  0  0  0  0
  -25.9565  -11.6147   20.5987 N   0  0  0  0  0  0  0  0  0  0  0  0
  -26.2296  -12.9172   20.4117 N   0  0  0  0  0  0  0  0  0  0  0  0
  -31.0626  -19.6988   22.6912 N   0  0  3  0  0  0  0  0  0  0  0  0
  -29.2049  -27.7614   17.4520 N   0  0  0  0  0  0  0  0  0  0  0  0
  -30.0371  -12.8625   20.8094 N   0  0  0  0  0  0  0  0  0  0  0  0
  -25.2205  -15.0536   20.2436 N   0  0  0  0  0  0  0  0  0  0  0  0
  -22.1556  -13.6172   21.9574 N   0  0  0  0  0  0  0  0  0  0  0  0
  -26.9808  -28.9329   20.0935 N   0  0  0  0  0  0  0  0  0  0  0  0
  -30.0938  -27.5307   14.1940 N   0  0  0  0  0  0  0  0  0  0  0  0
  -30.7155  -13.3585   23.0526 N   0  0  0  0  0  0  0  0  0  0  0  0
  -33.6411  -27.7207   13.5247 N   0  3  0  0  0  0  0  0  0  0  0  0
  -21.9363  -13.3216   19.6939 O   0  0  0  0  0  0  0  0  0  0  0  0
  -27.0632  -27.0881   18.6750 O   0  0  0  0  0  0  0  0  0  0  0  0
  -28.3379  -29.1415   15.7847 O   0  0  0  0  0  0  0  0  0  0  0  0
  -31.7645  -26.0239   14.7556 O   0  0  0  0  0  0  0  0  0  0  0  0
  -32.1030  -12.2193   21.6071 O   0  0  0  0  0  0  0  0  0  0  0  0
  -21.9466   -6.7662   21.5784 O   0  0  0  0  0  0  0  0  0  0  0  0
  -32.2956  -23.9909   21.2314 O   0  0  0  0  0  0  0  0  0  1  0  0
  -20.0587   -5.7514   26.6588 F   0  0  0  0  0  0  0  0  0  0  0  0
  -29.9637  -15.9958   25.4833 F   0  0  0  0  0  0  0  0  0  0  0  0
  -22.8130   -4.5584   22.9988 F   0  0  0  0  0  0  0  0  0  0  0  0
  1  2  1  0  0  0  0
  1  5  2  0  0  0  0
  2  6  2  0  0  0  0
  3 10  2  0  0  0  0
  3 18  1  0  0  0  0
  4 11  1  0  0  0  0
  4 18  2  0  0  0  0
  5 20  1  0  0  0  0
  6 22  1  0  0  0  0
  7 12  2  0  0  0  0
  7 21  1  0  0  0  0
  8  9  2  0  0  0  0
  8 24  1  0  0  0  0
  9 25  1  0  0  0  0
 10 26  1  0  0  0  0
 11 26  2  0  0  0  0
 12 27  1  0  0  0  0
 13 14  2  0  0  0  0
 13 28  1  0  0  0  0
 14 29  1  0  0  0  0
 15 23  1  0  0  0  0
 15 27  2  0  0  0  0
 16 25  2  0  0  0  0
 16 30  1  0  0  0  0
 17 29  2  0  0  0  0
 17 31  1  0  0  0  0
 18 32  1  0  0  0  0
 19 32  1  0  0  0  0
 19 33  2  0  0  0  0
 19 34  1  0  0  0  0
 20 22  2  0  0  0  0
 20 39  1  0  0  0  0
 21 23  2  0  0  0  0
 21 40  1  0  0  0  0
 22 51  1  0  0  0  0
 23 41  1  0  0  0  0
 24 30  2  0  0  0  0
 24 61  1  0  0  0  0
 25 68  1  0  0  0  0
 26 82  1  0  0  0  0
 27 83  1  0  0  0  0
 28 31  2  0  0  0  0
 28 82  1  0  0  0  0
 29 84  1  0  0  0  0
 30 85  1  0  0  0  0
 31 86  1  0  0  0  0
 32 66  2  0  0  0  0
 33 67  1  0  0  0  0
 33 71  1  0  0  0  0
 34 72  1  0  0  0  0
 34 77  2  0  0  0  0
 35 52  1  0  0  0  0
 35 73  1  0  0  0  0
 35 78  2  0  0  0  0
 36 63  1  0  0  0  0
 36 69  1  0  0  0  0
 36 79  2  0  0  0  0
 37 64  1  0  0  0  0
 37 74  1  0  0  0  0
 37 80  2  0  0  0  0
 38 70  1  0  0  0  0
 38 75  1  0  0  0  0
 38 81  2  0  0  0  0
 39 42  1  0  0  0  0
 40 52  1  0  0  0  0
 41 69  1  0  0  0  0
 42 44  1  0  0  0  0
 43 45  1  0  0  0  0
 43 47  1  0  0  0  0
 44 51  1  0  0  0  0
 45 54  1  0  0  0  0
 46 48  1  0  0  0  0
 46 53  1  0  0  0  0
 47 70  1  0  0  0  0
 48 68  1  0  0  0  0
 49 53  1  0  0  0  0
 49 68  1  0  0  0  0
 50 54  1  0  0  0  0
 50 70  1  0  0  0  0
 51 73  1  0  0  0  0
 52 69  1  0  0  0  0
 53 62  1  0  0  0  0
 54 67  1  0  0  0  0
 55 64  1  0  0  0  0
 56 65  1  0  0  0  0
 57 65  1  0  0  0  0
 58 65  1  0  0  0  0
 59 75  1  0  0  0  0
 60 76  1  0  0  0  0
 61 75  1  0  0  0  0
 62 83  1  0  0  0  0
 63 65  1  0  0  0  0
 63 74  1  0  0  0  0
 64 76  1  0  0  0  0
 66 67  1  0  0  0  0
M  CHG  1  76   1
M  ISO  4  38 100  62 101  75 100  83 101
M  END
> <Batch ID>
0024

> <Smiles>
CNC(C)C(=O)NC(C(=O)N1Cc2cc([101O:1][101CH2:1]C3CCN(c4ccc(C[100N:0](C)[100C:0](=O)N5CCCC(n6nc(-c7ccc(Oc8ccc(F)cc8F)cc7)c(C(N)=O)c6N)C5)c(F)c4)C3)ccc2CC1C(=O)NC1CCCc2ccccc21)C(C)(C)C

> <Shape>
0.280

> <Color>
0.177

> <Negative vol penalty>
0.000

$$$$

  -OEChem-04042321203D

 88 97  0     1  0  0  0  0  0999 V2000
  -16.4307  -29.4621   22.7670 C   0  0  0  0  0  0  0  0  0  0  0  0
  -17.4970  -29.4465   21.8735 C   0  0  0  0  0  0  0  0  0  0  0  0
  -22.9885   -9.8524   20.0183 C   0  0  0  0  0  0  0  0  0  0  0  0
  -23.7337   -9.9329   22.3151 C   0  0  0  0  0  0  0  0  0  0  0  0
  -16.6708  -29.5804   24.1353 C   0  0  0  0  0  0  0  0  0  0  0  0
  -18.8041  -29.5502   22.3479 C   0  0  0  0  0  0  0  0  0  0  0  0
  -23.6551  -24.3962   21.0078 C   0  0  0  0  0  0  0  0  0  0  0  0
  -22.2169   -8.7271   20.3080 C   0  0  0  0  0  0  0  0  0  0  0  0
  -22.9621   -8.8076   22.6049 C   0  0  0  0  0  0  0  0  0  0  0  0
  -24.6965  -23.5550   20.6154 C   0  0  0  0  0  0  0  0  0  0  0  0
  -23.1806   -5.4605   22.1809 C   0  0  0  0  0  0  0  0  0  0  0  0
  -23.7680   -4.4507   22.9431 C   0  0  0  0  0  0  0  0  0  0  0  0
  -26.2459  -24.8226   21.9720 C   0  0  0  0  0  0  0  0  0  0  0  0
  -29.4590  -18.8241   21.9723 C   0  0  0  0  0  0  0  0  0  0  0  0
  -28.9841  -18.2869   24.6683 C   0  0  0  0  0  0  0  0  0  0  0  0
  -22.0601   -4.7300   24.6291 C   0  0  0  0  0  0  0  0  0  0  0  0
  -23.7470  -10.4553   21.0218 C   0  0  0  0  0  0  0  0  0  0  0  0
  -24.1471  -12.9653   20.8049 C   0  0  0  0  0  0  0  0  0  0  0  0
  -17.9821  -29.6759   24.6274 C   0  0  0  0  0  0  0  0  0  0  0  0
  -23.9026  -25.4458   21.8969 C   0  0  0  0  0  0  0  0  0  0  0  0
  -19.0620  -29.6712   23.7240 C   0  0  0  0  0  0  0  0  0  0  0  0
  -25.2044  -25.6609   22.3783 C   0  0  0  0  0  0  0  0  0  0  0  0
  -30.0181  -17.6931   22.5671 C   0  0  0  0  0  0  0  0  0  0  0  0
  -28.4249  -19.4179   24.0735 C   0  0  0  0  0  0  0  0  0  0  0  0
  -22.2037   -8.2047   21.6013 C   0  0  0  0  0  0  0  0  0  0  0  0
  -25.9887  -23.7678   21.0962 C   0  0  0  0  0  0  0  0  0  0  0  0
  -22.0331   -6.1051   22.6428 C   0  0  0  0  0  0  0  0  0  0  0  0
  -28.6624  -19.6866   22.7255 C   0  0  0  0  0  0  0  0  0  0  0  0
  -23.2077   -4.0855   24.1672 C   0  0  0  0  0  0  0  0  0  0  0  0
  -29.7807  -17.4245   23.9151 C   0  0  0  0  0  0  0  0  0  0  0  0
  -21.4728   -5.7398   23.8668 C   0  0  0  0  0  0  0  0  0  0  0  0
  -24.5447  -11.6174   20.7229 C   0  0  0  0  0  0  0  0  0  0  0  0
  -25.2584  -13.6750   20.4203 C   0  0  0  0  0  0  0  0  0  0  0  0
  -22.8861  -13.5259   21.1939 C   0  0  0  0  0  0  0  0  0  0  0  0
  -22.5039  -28.3324   23.8430 C   0  0  0  0  0  0  0  0  0  0  0  0
  -24.5140  -26.9132   25.6749 C   0  0  0  0  0  0  0  0  0  0  0  0
  -26.4860  -24.8231   27.5134 C   0  0  0  0  0  0  0  0  0  0  0  0
  -30.7627  -14.5767   20.6082 C   0  0  0  0  0  0  0  0  0  0  0  0
  -18.1898  -29.8496   26.1111 C   0  0  0  0  0  0  0  0  0  0  0  0
  -22.8234  -26.4143   22.2985 C   0  0  0  0  0  0  0  0  0  0  0  0
  -25.4305  -26.8235   23.3058 C   0  0  0  0  0  0  0  0  0  0  0  0
  -19.6227  -29.5776   26.5615 C   0  0  0  0  0  0  0  0  0  0  0  0
  -29.5861  -12.1260   18.3090 C   0  0  0  0  0  0  0  0  0  0  0  0
  -24.0182  -21.3232   24.8582 C   0  0  0  0  0  0  0  0  0  0  0  0
  -24.0734  -19.9125   25.4090 C   0  0  0  0  0  0  0  0  0  0  0  0
  -20.6146  -30.2787   25.6387 C   0  0  0  0  0  0  0  0  0  0  0  0
  -28.1396  -11.8821   18.7427 C   0  0  0  0  0  0  0  0  0  0  0  0
  -30.5004  -12.3734   19.5068 C   0  0  0  0  0  0  0  0  0  0  0  0
  -28.6070  -13.2014   20.8497 C   0  0  0  0  0  0  0  0  0  0  0  0
  -25.4774  -21.7243   24.8316 C   0  0  0  0  0  0  0  0  0  0  0  0
  -25.2724  -19.2918   24.7136 C   0  0  0  0  0  0  0  0  0  0  0  0
  -20.4953  -29.7564   24.2019 C   0  0  1  0  0  0  0  0  0  0  0  0
  -22.9647  -26.9075   23.7497 C   0  0  1  0  0  0  0  0  0  0  0  0
  -27.6367  -13.0025   19.6729 C   0  0  2  0  0  0  0  0  0  0  0  0
  -27.6411  -23.8935   29.5379 C   0  0  0  0  0  0  0  0  0  0  0  0
  -26.5845  -29.0577   25.0285 C   0  0  0  0  0  0  0  0  0  0  0  0
  -28.0324  -28.1036   26.8345 C   0  0  0  0  0  0  0  0  0  0  0  0
  -25.7954  -29.0506   27.4016 C   0  0  0  0  0  0  0  0  0  0  0  0
  -24.1522  -23.1449   28.2176 C   0  0  0  0  0  0  0  0  0  0  0  0
  -30.8697  -16.7725   21.7599 C   0  0  0  0  0  0  0  0  0  0  0  0
  -27.5745  -20.3297   24.8949 C   0  0  0  0  0  0  0  0  0  0  0  0
  -26.6528  -21.5893   20.4101 C   0  0  0  0  0  0  0  0  0  1  0  0
  -27.8296  -20.6905   20.7370 C   0  0  0  0  0  0  0  0  0  0  0  0
  -25.9326  -26.8410   26.1806 C   0  0  1  0  0  0  0  0  0  0  0  0
  -26.3025  -24.2204   28.8945 C   0  0  2  0  0  0  0  0  0  0  0  0
  -26.5772  -28.2469   26.3398 C   0  0  0  0  0  0  0  0  0  0  0  0
  -25.8096  -11.4766   20.3179 N   0  0  0  0  0  0  0  0  0  0  0  0
  -26.2165  -12.7452   20.1419 N   0  0  0  0  0  0  0  0  0  0  0  0
  -24.3363  -26.9043   24.2861 N   0  0  0  0  0  0  0  0  0  0  0  0
  -29.9678  -13.4483   20.3476 N   0  0  0  0  0  0  0  0  0  0  0  0
  -25.4996  -14.9975   20.2964 N   0  0  0  0  0  0  0  0  0  0  0  0
  -21.8516  -12.6538   21.5594 N   0  0  0  0  0  0  0  0  0  0  0  0
  -21.1488  -28.4713   24.0754 N   0  0  0  0  0  0  0  0  0  0  0  0
  -25.8875  -26.0613   27.4128 N   0  0  0  0  0  0  0  0  0  0  0  0
  -30.1795  -15.5514   21.4086 N   0  0  0  0  0  0  0  0  0  0  0  0
  -26.1782  -20.4625   24.3778 N   0  3  0  0  0  0  0  0  0  0  0  0
  -25.5027  -22.9658   28.8101 N   0  3  0  0  0  0  0  0  0  0  0  0
  -22.6776  -14.7628   21.2011 O   0  0  0  0  0  0  0  0  0  0  0  0
  -23.3172  -29.2400   23.7153 O   0  0  0  0  0  0  0  0  0  0  0  0
  -23.5870  -26.9814   26.4869 O   0  0  0  0  0  0  0  0  0  0  0  0
  -27.1021  -24.2542   26.6148 O   0  0  0  0  0  0  0  0  0  0  0  0
  -31.9052  -14.7085   20.1562 O   0  0  0  0  0  0  0  0  0  0  0  0
  -21.4507   -7.1068   21.8845 O   0  0  0  0  0  0  0  0  0  0  0  0
  -26.9998  -22.9400   20.7126 O   0  0  0  0  0  0  0  0  0  1  0  0
  -28.1208  -20.7928   22.1255 O   0  0  0  0  0  0  0  0  0  0  0  0
  -23.7710   -3.1147   24.8983 F   0  0  0  0  0  0  0  0  0  0  0  0
  -30.3136  -16.3399   24.4950 F   0  0  0  0  0  0  0  0  0  0  0  0
  -20.3698   -6.3546   24.3152 F   0  0  0  0  0  0  0  0  0  0  0  0
  1  2  1  0  0  0  0
  1  5  2  0  0  0  0
  2  6  2  0  0  0  0
  3  8  2  0  0  0  0
  3 17  1  0  0  0  0
  4  9  1  0  0  0  0
  4 17  2  0  0  0  0
  5 19  1  0  0  0  0
  6 21  1  0  0  0  0
  7 10  2  0  0  0  0
  7 20  1  0  0  0  0
  8 25  1  0  0  0  0
  9 25  2  0  0  0  0
 10 26  1  0  0  0  0
 11 12  2  0  0  0  0
 11 27  1  0  0  0  0
 12 29  1  0  0  0  0
 13 22  1  0  0  0  0
 13 26  2  0  0  0  0
 14 23  2  0  0  0  0
 14 28  1  0  0  0  0
 15 24  1  0  0  0  0
 15 30  2  0  0  0  0
 16 29  2  0  0  0  0
 16 31  1  0  0  0  0
 17 32  1  0  0  0  0
 18 32  1  0  0  0  0
 18 33  2  0  0  0  0
 18 34  1  0  0  0  0
 19 21  2  0  0  0  0
 19 39  1  0  0  0  0
 20 22  2  0  0  0  0
 20 40  1  0  0  0  0
 21 52  1  0  0  0  0
 22 41  1  0  0  0  0
 23 30  1  0  0  0  0
 23 60  1  0  0  0  0
 24 28  2  0  0  0  0
 24 61  1  0  0  0  0
 25 83  1  0  0  0  0
 26 84  1  0  0  0  0
 27 31  2  0  0  0  0
 27 83  1  0  0  0  0
 28 85  1  0  0  0  0
 29 86  1  0  0  0  0
 30 87  1  0  0  0  0
 31 88  1  0  0  0  0
 32 67  2  0  0  0  0
 33 68  1  0  0  0  0
 33 71  1  0  0  0  0
 34 72  1  0  0  0  0
 34 78  2  0  0  0  0
 35 53  1  0  0  0  0
 35 73  1  0  0  0  0
 35 79  2  0  0  0  0
 36 64  1  0  0  0  0
 36 69  1  0  0  0  0
 36 80  2  0  0  0  0
 37 65  1  0  0  0  0
 37 74  1  0  0  0  0
 37 81  2  0  0  0  0
 38 70  1  0  0  0  0
 38 75  1  0  0  0  0
 38 82  2  0  0  0  0
 39 42  1  0  0  0  0
 40 53  1  0  0  0  0
 41 69  1  0  0  0  0
 42 46  1  0  0  0  0
 43 47  1  0  0  0  0
 43 48  1  0  0  0  0
 44 45  1  0  0  0  0
 44 50  1  0  0  0  0
 45 51  1  0  0  0  0
 46 52  1  0  0  0  0
 47 54  1  0  0  0  0
 48 70  1  0  0  0  0
 49 54  1  0  0  0  0
 49 70  1  0  0  0  0
 50 76  1  0  0  0  0
 51 76  1  0  0  0  0
 52 73  1  0  0  0  0
 53 69  1  0  0  0  0
 54 68  1  0  0  0  0
 55 65  1  0  0  0  0
 56 66  1  0  0  0  0
 57 66  1  0  0  0  0
 58 66  1  0  0  0  0
 59 77  1  0  0  0  0
 60 75  1  0  0  0  0
 61 76  1  0  0  0  0
 62 63  1  0  0  0  0
 62 84  1  0  0  0  0
 63 85  1  0  0  0  0
 64 66  1  0  0  0  0
 64 74  1  0  0  0  0
 65 77  1  0  0  0  0
 67 68  1  0  0  0  0
M  CHG  2  76   1  77   1
M  ISO  4  38 100  62 101  75 100  84 101
M  END
> <Batch ID>
0024

> <Smiles>
CNC(C)C(=O)NC(C(=O)N1Cc2cc([101O:1][101CH2:1]COc3cc(C[100NH:0][100C:0](=O)N4CCCC(n5nc(-c6ccc(Oc7ccc(F)cc7F)cc6)c(C(N)=O)c5N)C4)c(F)cc3CN3CCCC3)ccc2CC1C(=O)NC1CCCc2ccccc21)C(C)(C)C

> <Shape>
0.249

> <Color>
0.229

> <Negative vol penalty>
0.000

$$$$

  -OEChem-04042321203D

 85 94  0     1  0  0  0  0  0999 V2000
  -27.8050  -24.0187   17.3029 C   0  0  0  0  0  0  0  0  0  0  0  0
  -26.6309  -24.3139   17.9882 C   0  0  0  0  0  0  0  0  0  0  0  0
  -26.4734  -13.4202   20.3554 C   0  0  0  0  0  0  0  0  0  0  0  0
  -24.0823  -13.4714   20.6976 C   0  0  0  0  0  0  0  0  0  0  0  0
  -29.0231  -24.5183   17.7618 C   0  0  0  0  0  0  0  0  0  0  0  0
  -26.6743  -25.1079   19.1337 C   0  0  0  0  0  0  0  0  0  0  0  0
  -23.0345  -28.6283   19.1963 C   0  0  0  0  0  0  0  0  0  0  0  0
  -20.6722  -24.4158   23.1143 C   0  0  0  0  0  0  0  0  0  0  0  0
  -21.7307  -23.5203   23.2668 C   0  0  0  0  0  0  0  0  0  0  0  0
  -26.4518  -12.0267   20.4127 C   0  0  0  0  0  0  0  0  0  0  0  0
  -24.0606  -12.0779   20.7548 C   0  0  0  0  0  0  0  0  0  0  0  0
  -21.7505  -28.2104   19.5434 C   0  0  0  0  0  0  0  0  0  0  0  0
  -24.1439   -9.4956   18.5764 C   0  0  0  0  0  0  0  0  0  0  0  0
  -23.1451   -8.8345   17.8616 C   0  0  0  0  0  0  0  0  0  0  0  0
  -22.0883  -29.0500   21.7795 C   0  0  0  0  0  0  0  0  0  0  0  0
  -22.3226   -7.8589   19.9131 C   0  0  0  0  0  0  0  0  0  0  0  0
  -25.2887  -14.1425   20.4979 C   0  0  0  0  0  0  0  0  0  0  0  0
  -25.1638  -16.3887   19.2951 C   0  0  0  0  0  0  0  0  0  0  0  0
  -29.0803  -25.3269   18.9079 C   0  0  0  0  0  0  0  0  0  0  0  0
  -23.8605  -29.2513   20.1428 C   0  0  0  0  0  0  0  0  0  0  0  0
  -27.8945  -25.6177   19.6091 C   0  0  0  0  0  0  0  0  0  0  0  0
  -23.3815  -29.4771   21.4412 C   0  0  0  0  0  0  0  0  0  0  0  0
  -20.0321  -24.5355   21.8807 C   0  0  0  0  0  0  0  0  0  0  0  0
  -22.1492  -22.7446   22.1858 C   0  0  0  0  0  0  0  0  0  0  0  0
  -25.2454  -11.3555   20.6123 C   0  0  0  0  0  0  0  0  0  0  0  0
  -21.2783  -28.4186   20.8360 C   0  0  0  0  0  0  0  0  0  0  0  0
  -24.2321   -9.3382   19.9596 C   0  0  0  0  0  0  0  0  0  0  0  0
  -22.2344   -8.0162   18.5299 C   0  0  0  0  0  0  0  0  0  0  0  0
  -23.3214   -8.5199   20.6279 C   0  0  0  0  0  0  0  0  0  0  0  0
  -20.4506  -23.7598   20.7997 C   0  0  0  0  0  0  0  0  0  0  0  0
  -21.5092  -22.8643   20.9522 C   0  0  0  0  0  0  0  0  0  0  0  0
  -25.3104  -15.5821   20.4395 C   0  0  0  0  0  0  0  0  0  0  0  0
  -25.2581  -17.6750   19.7673 C   0  0  0  0  0  0  0  0  0  0  0  0
  -24.9604  -16.0092   17.9275 C   0  0  0  0  0  0  0  0  0  0  0  0
  -26.6675  -28.5662   21.4676 C   0  0  0  0  0  0  0  0  0  0  0  0
  -26.3298  -31.5148   22.7766 C   0  0  0  0  0  0  0  0  0  0  0  0
  -24.2395  -34.0328   23.7448 C   0  0  0  0  0  0  0  0  0  0  0  0
  -23.9685  -21.6002   23.4999 C   0  0  0  0  0  0  0  0  0  0  0  0
  -30.4261  -25.8048   19.3927 C   0  0  0  0  0  0  0  0  0  0  0  0
  -25.2332  -29.7202   19.7451 C   0  0  0  0  0  0  0  0  0  0  0  0
  -24.2212  -30.1597   22.4887 C   0  0  0  0  0  0  0  0  0  0  0  0
  -30.3396  -26.9479   20.4008 C   0  0  0  0  0  0  0  0  0  0  0  0
  -26.6694  -19.4237   24.3029 C   0  0  0  0  0  0  0  0  0  0  0  0
  -16.7287  -25.9673   21.3720 C   0  0  0  0  0  0  0  0  0  0  0  0
  -29.2908  -26.6425   21.4654 C   0  0  0  0  0  0  0  0  0  0  0  0
  -26.5446  -18.2966   23.2752 C   0  0  0  0  0  0  0  0  0  0  0  0
  -17.4040  -27.1611   22.0235 C   0  0  0  0  0  0  0  0  0  0  0  0
  -17.8972  -25.1854   20.7845 C   0  0  0  0  0  0  0  0  0  0  0  0
  -25.3020  -19.9261   24.7626 C   0  0  0  0  0  0  0  0  0  0  0  0
  -24.2635  -19.1894   22.6535 C   0  0  0  0  0  0  0  0  0  0  0  0
  -27.8977  -26.4961   20.8414 C   0  0  1  0  0  0  0  0  0  0  0  0
  -26.1768  -29.8818   20.9329 C   0  0  1  0  0  0  0  0  0  0  0  0
  -25.6148  -18.6948   22.1122 C   0  0  2  0  0  0  0  0  0  0  0  0
  -18.7101  -26.5816   22.5940 C   0  0  2  0  0  0  0  0  0  0  0  0
  -24.2530  -36.3013   24.8178 C   0  0  0  0  0  0  0  0  0  0  0  0
  -26.7884  -30.2206   25.5014 C   0  0  0  0  0  0  0  0  0  0  0  0
  -25.8641  -32.2912   26.5628 C   0  0  0  0  0  0  0  0  0  0  0  0
  -27.9387  -32.4183   25.1835 C   0  0  0  0  0  0  0  0  0  0  0  0
  -23.0561  -35.3018   21.3472 C   0  0  0  0  0  0  0  0  0  0  0  0
  -19.8140  -27.6326   22.5371 C   0  0  0  0  0  0  0  0  0  1  0  0
  -25.7117  -32.0583   24.0422 C   0  0  1  0  0  0  0  0  0  0  0  0
  -24.2898  -35.5313   23.5069 C   0  0  2  0  0  0  0  0  0  0  0  0
  -26.5604  -31.7325   25.3035 C   0  0  0  0  0  0  0  0  0  0  0  0
  -25.4848  -16.2961   21.5547 N   0  0  0  0  0  0  0  0  0  0  0  0
  -25.4484  -17.5649   21.1133 N   0  0  0  0  0  0  0  0  0  0  0  0
  -18.9847  -25.4228   21.7326 N   0  0  3  0  0  0  0  0  0  0  0  0
  -25.5587  -30.5942   22.0530 N   0  0  0  0  0  0  0  0  0  0  0  0
  -24.4776  -20.2887   23.6077 N   0  0  0  0  0  0  0  0  0  0  0  0
  -25.1960  -18.8782   19.1583 N   0  0  0  0  0  0  0  0  0  0  0  0
  -24.8874  -14.6445   17.6166 N   0  0  0  0  0  0  0  0  0  0  0  0
  -23.2262  -21.8374   22.3435 N   0  0  0  0  0  0  0  0  0  0  0  0
  -27.3406  -27.7968   20.5378 N   0  0  0  0  0  0  0  0  0  0  0  0
  -25.5026  -33.4841   23.8146 N   0  0  0  0  0  0  0  0  0  0  0  0
  -23.1308  -35.9630   22.6755 N   0  3  0  0  0  0  0  0  0  0  0  0
  -24.8632  -16.8548   17.0061 O   0  0  0  0  0  0  0  0  0  0  0  0
  -26.4526  -28.2715   22.6375 O   0  0  0  0  0  0  0  0  0  0  0  0
  -27.4524  -31.8986   22.4387 O   0  0  0  0  0  0  0  0  0  0  0  0
  -23.1853  -33.4119   23.8610 O   0  0  0  0  0  0  0  0  0  0  0  0
  -24.1986  -22.4581   24.3562 O   0  0  0  0  0  0  0  0  0  0  0  0
  -25.2239   -9.9957   20.6680 O   0  0  0  0  0  0  0  0  0  0  0  0
  -20.0256  -28.0112   21.1777 O   0  0  0  0  0  0  0  0  0  1  0  0
  -21.2743   -7.3828   17.8435 F   0  0  0  0  0  0  0  0  0  0  0  0
  -23.4004   -8.3658   21.9568 F   0  0  0  0  0  0  0  0  0  0  0  0
  -19.8427  -23.8668   19.6096 F   0  0  0  0  0  0  0  0  0  0  0  0
  -21.9044  -22.1240   19.9067 F   0  0  0  0  0  0  0  0  0  0  0  0
  1  2  1  0  0  0  0
  1  5  2  0  0  0  0
  2  6  2  0  0  0  0
  3 10  2  0  0  0  0
  3 17  1  0  0  0  0
  4 11  1  0  0  0  0
  4 17  2  0  0  0  0
  5 19  1  0  0  0  0
  6 21  1  0  0  0  0
  7 12  2  0  0  0  0
  7 20  1  0  0  0  0
  8  9  2  0  0  0  0
  8 23  1  0  0  0  0
  9 24  1  0  0  0  0
 10 25  1  0  0  0  0
 11 25  2  0  0  0  0
 12 26  1  0  0  0  0
 13 14  2  0  0  0  0
 13 27  1  0  0  0  0
 14 28  1  0  0  0  0
 15 22  1  0  0  0  0
 15 26  2  0  0  0  0
 16 28  2  0  0  0  0
 16 29  1  0  0  0  0
 17 32  1  0  0  0  0
 18 32  1  0  0  0  0
 18 33  2  0  0  0  0
 18 34  1  0  0  0  0
 19 21  2  0  0  0  0
 19 39  1  0  0  0  0
 20 22  2  0  0  0  0
 20 40  1  0  0  0  0
 21 51  1  0  0  0  0
 22 41  1  0  0  0  0
 23 30  2  0  0  0  0
 23 66  1  0  0  0  0
 24 31  2  0  0  0  0
 24 71  1  0  0  0  0
 25 80  1  0  0  0  0
 26 81  1  0  0  0  0
 27 29  2  0  0  0  0
 27 80  1  0  0  0  0
 28 82  1  0  0  0  0
 29 83  1  0  0  0  0
 30 31  1  0  0  0  0
 30 84  1  0  0  0  0
 31 85  1  0  0  0  0
 32 64  2  0  0  0  0
 33 65  1  0  0  0  0
 33 69  1  0  0  0  0
 34 70  1  0  0  0  0
 34 75  2  0  0  0  0
 35 52  1  0  0  0  0
 35 72  1  0  0  0  0
 35 76  2  0  0  0  0
 36 61  1  0  0  0  0
 36 67  1  0  0  0  0
 36 77  2  0  0  0  0
 37 62  1  0  0  0  0
 37 73  1  0  0  0  0
 37 78  2  0  0  0  0
 38 68  1  0  0  0  0
 38 71  1  0  0  0  0
 38 79  2  0  0  0  0
 39 42  1  0  0  0  0
 40 52  1  0  0  0  0
 41 67  1  0  0  0  0
 42 45  1  0  0  0  0
 43 46  1  0  0  0  0
 43 49  1  0  0  0  0
 44 47  1  0  0  0  0
 44 48  1  0  0  0  0
 45 51  1  0  0  0  0
 46 53  1  0  0  0  0
 47 54  1  0  0  0  0
 48 66  1  0  0  0  0
 49 68  1  0  0  0  0
 50 53  1  0  0  0  0
 50 68  1  0  0  0  0
 51 72  1  0  0  0  0
 52 67  1  0  0  0  0
 53 65  1  0  0  0  0
 54 60  1  0  0  0  0
 54 66  1  0  0  0  0
 55 62  1  0  0  0  0
 56 63  1  0  0  0  0
 57 63  1  0  0  0  0
 58 63  1  0  0  0  0
 59 74  1  0  0  0  0
 60 81  1  0  0  0  0
 61 63  1  0  0  0  0
 61 73  1  0  0  0  0
 62 74  1  0  0  0  0
 64 65  1  0  0  0  0
M  CHG  1  74   1
M  ISO  4  38 100  60 101  71 100  81 101
M  END
> <Batch ID>
0024

> <Smiles>
CNC(C)C(=O)NC(C(=O)N1Cc2cc([101O:1][101CH2:1]C3CCCN3c3ccc([100NH:0][100C:0](=O)N4CCCC(n5nc(-c6ccc(Oc7ccc(F)cc7F)cc6)c(C(N)=O)c5N)C4)c(F)c3F)ccc2CC1C(=O)NC1CCCc2ccccc21)C(C)(C)C

> <Shape>
0.277

> <Color>
0.074

> <Negative vol penalty>
0.000

$$$$

  -OEChem-04042321203D

 85 94  0     1  0  0  0  0  0999 V2000
  -17.4855  -26.3724   22.8390 C   0  0  0  0  0  0  0  0  0  0  0  0
  -18.6511  -26.0088   22.1721 C   0  0  0  0  0  0  0  0  0  0  0  0
  -30.1604  -12.2412   20.4429 C   0  0  0  0  0  0  0  0  0  0  0  0
  -29.8226  -12.1373   18.0529 C   0  0  0  0  0  0  0  0  0  0  0  0
  -17.2396  -27.7136   23.1298 C   0  0  0  0  0  0  0  0  0  0  0  0
  -19.5709  -26.9865   21.7946 C   0  0  0  0  0  0  0  0  0  0  0  0
  -26.3796  -26.7744   24.1370 C   0  0  0  0  0  0  0  0  0  0  0  0
  -31.1667  -11.2805   20.3424 C   0  0  0  0  0  0  0  0  0  0  0  0
  -30.8289  -11.1766   17.9524 C   0  0  0  0  0  0  0  0  0  0  0  0
  -27.7519  -26.6871   24.3725 C   0  0  0  0  0  0  0  0  0  0  0  0
  -34.4217  -11.1683   19.4342 C   0  0  0  0  0  0  0  0  0  0  0  0
  -35.6046  -11.3924   20.1386 C   0  0  0  0  0  0  0  0  0  0  0  0
  -28.0961  -28.7766   23.2048 C   0  0  0  0  0  0  0  0  0  0  0  0
  -30.6966  -21.8823   22.5090 C   0  0  0  0  0  0  0  0  0  0  0  0
  -29.4554  -22.4649   20.0795 C   0  0  0  0  0  0  0  0  0  0  0  0
  -35.2575   -9.3449   21.3732 C   0  0  0  0  0  0  0  0  0  0  0  0
  -29.4883  -12.6696   19.2981 C   0  0  0  0  0  0  0  0  0  0  0  0
  -27.2542  -13.5675   20.1408 C   0  0  0  0  0  0  0  0  0  0  0  0
  -18.1614  -28.7072   22.7642 C   0  0  0  0  0  0  0  0  0  0  0  0
  -25.8580  -27.8723   23.4471 C   0  0  0  0  0  0  0  0  0  0  0  0
  -19.3364  -28.3424   22.0795 C   0  0  0  0  0  0  0  0  0  0  0  0
  -26.7210  -28.8757   22.9768 C   0  0  0  0  0  0  0  0  0  0  0  0
  -30.5212  -23.2091   22.1159 C   0  0  0  0  0  0  0  0  0  0  0  0
  -29.6308  -21.1381   20.4725 C   0  0  0  0  0  0  0  0  0  0  0  0
  -31.5009  -10.7482   19.0972 C   0  0  0  0  0  0  0  0  0  0  0  0
  -28.6080  -27.6855   23.9073 C   0  0  0  0  0  0  0  0  0  0  0  0
  -33.6567  -10.0324   19.6994 C   0  0  0  0  0  0  0  0  0  0  0  0
  -36.0226  -10.4808   21.1080 C   0  0  0  0  0  0  0  0  0  0  0  0
  -30.2515  -20.8468   21.6873 C   0  0  0  0  0  0  0  0  0  0  0  0
  -29.9006  -23.5004   20.9012 C   0  0  0  0  0  0  0  0  0  0  0  0
  -34.0746   -9.1208   20.6689 C   0  0  0  0  0  0  0  0  0  0  0  0
  -28.4484  -13.6615   19.4013 C   0  0  0  0  0  0  0  0  0  0  0  0
  -26.6135  -14.7605   19.9115 C   0  0  0  0  0  0  0  0  0  0  0  0
  -26.7676  -12.4973   20.9616 C   0  0  0  0  0  0  0  0  0  0  0  0
  -22.8121  -29.5961   22.0955 C   0  0  0  0  0  0  0  0  0  0  0  0
  -24.6204  -31.7759   23.2741 C   0  0  0  0  0  0  0  0  0  0  0  0
  -26.6973  -33.8157   25.0526 C   0  0  0  0  0  0  0  0  0  0  0  0
  -28.5475  -20.2077   18.3972 C   0  0  0  0  0  0  0  0  0  0  0  0
  -17.8296  -30.1488   23.0581 C   0  0  0  0  0  0  0  0  0  0  0  0
  -24.3938  -27.9771   23.1172 C   0  0  0  0  0  0  0  0  0  0  0  0
  -26.1193  -30.0210   22.2092 C   0  0  0  0  0  0  0  0  0  0  0  0
  -19.0321  -31.0836   22.9559 C   0  0  0  0  0  0  0  0  0  0  0  0
  -26.1935  -18.2135   16.6198 C   0  0  0  0  0  0  0  0  0  0  0  0
  -32.6485  -25.0464   24.5627 C   0  0  0  0  0  0  0  0  0  0  0  0
  -19.8198  -30.8026   21.6802 C   0  0  0  0  0  0  0  0  0  0  0  0
  -26.3917  -16.8125   17.2030 C   0  0  0  0  0  0  0  0  0  0  0  0
  -31.9872  -26.4163   24.5486 C   0  0  0  0  0  0  0  0  0  0  0  0
  -32.4037  -24.2914   23.2583 C   0  0  0  0  0  0  0  0  0  0  0  0
  -27.5145  -18.9720   16.5048 C   0  0  0  0  0  0  0  0  0  0  0  0
  -28.5005  -17.6370   18.3255 C   0  0  0  0  0  0  0  0  0  0  0  0
  -30.2528  -25.5258   22.9431 C   0  0  0  0  0  0  0  0  0  0  0  0
  -20.3700  -29.3713   21.6756 C   0  0  1  0  0  0  0  0  0  0  0  0
  -23.8712  -29.4247   23.1445 C   0  0  1  0  0  0  0  0  0  0  0  0
  -27.1894  -16.8584   18.5210 C   0  0  2  0  0  0  0  0  0  0  0  0
  -30.4996  -26.2879   24.2459 C   0  0  2  0  0  0  0  0  0  1  0  0
  -26.9899  -36.2108   25.7421 C   0  0  0  0  0  0  0  0  0  0  0  0
  -25.5876  -32.4629   20.4641 C   0  0  0  0  0  0  0  0  0  0  0  0
  -26.7188  -34.4800   21.4233 C   0  0  0  0  0  0  0  0  0  0  0  0
  -24.2388  -34.2548   21.5706 C   0  0  0  0  0  0  0  0  0  0  0  0
  -26.5218  -33.1309   27.9264 C   0  0  0  0  0  0  0  0  0  0  0  0
  -25.7046  -32.7930   23.0221 C   0  0  1  0  0  0  0  0  0  0  0  0
  -26.4152  -34.8551   26.1224 C   0  0  2  0  0  0  0  0  0  0  0  0
  -25.5684  -33.4717   21.6299 C   0  0  0  0  0  0  0  0  0  0  0  0
  -28.5620  -14.8225   18.7508 N   0  0  0  0  0  0  0  0  0  0  0  0
  -27.4308  -15.4689   19.0807 N   0  0  0  0  0  0  0  0  0  0  0  0
  -30.9692  -24.2471   22.9425 N   0  0  1  0  0  0  0  0  0  0  0  0
  -24.8757  -30.4632   22.8593 N   0  0  0  0  0  0  0  0  0  0  0  0
  -28.2127  -18.9778   17.7922 N   0  0  0  0  0  0  0  0  0  0  0  0
  -25.4362  -15.2622   20.3414 N   0  0  0  0  0  0  0  0  0  0  0  0
  -27.5519  -11.3428   21.0884 N   0  0  0  0  0  0  0  0  0  0  0  0
  -29.1799  -20.0884   19.6343 N   0  0  0  0  0  0  0  0  0  0  0  0
  -21.5382  -29.2761   22.5245 N   0  0  0  0  0  0  0  0  0  0  0  0
  -25.6623  -33.7218   24.1463 N   0  0  0  0  0  0  0  0  0  0  0  0
  -27.0154  -34.4378   27.4211 N   0  3  0  0  0  0  0  0  0  0  0  0
  -25.6622  -12.5564   21.5516 O   0  0  0  0  0  0  0  0  0  0  0  0
  -23.1262  -29.9912   20.9788 O   0  0  0  0  0  0  0  0  0  0  0  0
  -23.5723  -32.1340   23.8187 O   0  0  0  0  0  0  0  0  0  0  0  0
  -27.7338  -33.1560   25.0216 O   0  0  0  0  0  0  0  0  0  0  0  0
  -28.2676  -21.2875   17.8703 O   0  0  0  0  0  0  0  0  0  0  0  0
  -32.4829   -9.8109   18.9988 O   0  0  0  0  0  0  0  0  0  0  0  0
  -29.9461  -27.5963   24.1446 O   0  0  0  0  0  0  0  0  0  1  0  0
  -37.1593  -10.6954   21.7832 F   0  0  0  0  0  0  0  0  0  0  0  0
  -30.4262  -19.5750   22.0738 F   0  0  0  0  0  0  0  0  0  0  0  0
  -29.7278  -24.7717   20.5123 F   0  0  0  0  0  0  0  0  0  0  0  0
  -33.3444   -8.0272   20.9272 F   0  0  0  0  0  0  0  0  0  0  0  0
  1  2  1  0  0  0  0
  1  5  2  0  0  0  0
  2  6  2  0  0  0  0
  3  8  2  0  0  0  0
  3 17  1  0  0  0  0
  4  9  1  0  0  0  0
  4 17  2  0  0  0  0
  5 19  1  0  0  0  0
  6 21  1  0  0  0  0
  7 10  2  0  0  0  0
  7 20  1  0  0  0  0
  8 25  1  0  0  0  0
  9 25  2  0  0  0  0
 10 26  1  0  0  0  0
 11 12  2  0  0  0  0
 11 27  1  0  0  0  0
 12 28  1  0  0  0  0
 13 22  1  0  0  0  0
 13 26  2  0  0  0  0
 14 23  1  0  0  0  0
 14 29  2  0  0  0  0
 15 24  2  0  0  0  0
 15 30  1  0  0  0  0
 16 28  2  0  0  0  0
 16 31  1  0  0  0  0
 17 32  1  0  0  0  0
 18 32  1  0  0  0  0
 18 33  2  0  0  0  0
 18 34  1  0  0  0  0
 19 21  2  0  0  0  0
 19 39  1  0  0  0  0
 20 22  2  0  0  0  0
 20 40  1  0  0  0  0
 21 52  1  0  0  0  0
 22 41  1  0  0  0  0
 23 30  2  0  0  0  0
 23 66  1  0  0  0  0
 24 29  1  0  0  0  0
 24 71  1  0  0  0  0
 25 80  1  0  0  0  0
 26 81  1  0  0  0  0
 27 31  2  0  0  0  0
 27 80  1  0  0  0  0
 28 82  1  0  0  0  0
 29 83  1  0  0  0  0
 30 84  1  0  0  0  0
 31 85  1  0  0  0  0
 32 64  2  0  0  0  0
 33 65  1  0  0  0  0
 33 69  1  0  0  0  0
 34 70  1  0  0  0  0
 34 75  2  0  0  0  0
 35 53  1  0  0  0  0
 35 72  1  0  0  0  0
 35 76  2  0  0  0  0
 36 61  1  0  0  0  0
 36 67  1  0  0  0  0
 36 77  2  0  0  0  0
 37 62  1  0  0  0  0
 37 73  1  0  0  0  0
 37 78  2  0  0  0  0
 38 68  1  0  0  0  0
 38 71  1  0  0  0  0
 38 79  2  0  0  0  0
 39 42  1  0  0  0  0
 40 53  1  0  0  0  0
 41 67  1  0  0  0  0
 42 45  1  0  0  0  0
 43 46  1  0  0  0  0
 43 49  1  0  0  0  0
 44 47  1  0  0  0  0
 44 48  1  0  0  0  0
 45 52  1  0  0  0  0
 46 54  1  0  0  0  0
 47 55  1  0  0  0  0
 48 66  1  0  0  0  0
 49 68  1  0  0  0  0
 50 54  1  0  0  0  0
 50 68  1  0  0  0  0
 51 55  1  0  0  0  0
 51 66  1  0  0  0  0
 52 72  1  0  0  0  0
 53 67  1  0  0  0  0
 54 65  1  0  0  0  0
 55 81  1  0  0  0  0
 56 62  1  0  0  0  0
 57 63  1  0  0  0  0
 58 63  1  0  0  0  0
 59 63  1  0  0  0  0
 60 74  1  0  0  0  0
 61 63  1  0  0  0  0
 61 73  1  0  0  0  0
 62 74  1  0  0  0  0
 64 65  1  0  0  0  0
M  CHG  1  74   1
M  ISO  4  38 100  55 101  71 100  81 101
M  END
> <Batch ID>
0024

> <Smiles>
CNC(C)C(=O)NC(C(=O)N1Cc2cc([101O:1][101CH:1]3CCCN(c4cc(F)c([100NH:0][100C:0](=O)N5CCCC(n6nc(-c7ccc(Oc8ccc(F)cc8F)cc7)c(C(N)=O)c6N)C5)cc4F)C3)ccc2CC1C(=O)NC1CCCc2ccccc21)C(C)(C)C

> <Shape>
0.253

> <Color>
0.113

> <Negative vol penalty>
0.000

$$$$

  -OEChem-04042321203D

 88 97  0     1  0  0  0  0  0999 V2000
  -30.5538  -25.3749   17.6343 C   0  0  0  0  0  0  0  0  0  0  0  0
  -29.1630  -25.3812   17.6684 C   0  0  0  0  0  0  0  0  0  0  0  0
  -24.7015  -13.4096   19.9688 C   0  0  0  0  0  0  0  0  0  0  0  0
  -25.0890  -15.3805   21.3114 C   0  0  0  0  0  0  0  0  0  0  0  0
  -31.2788  -25.8594   18.7222 C   0  0  0  0  0  0  0  0  0  0  0  0
  -28.4964  -25.8711   18.7910 C   0  0  0  0  0  0  0  0  0  0  0  0
  -23.1782  -28.9066   18.8813 C   0  0  0  0  0  0  0  0  0  0  0  0
  -17.5084  -22.4465   21.1030 C   0  0  0  0  0  0  0  0  0  0  0  0
  -17.5154  -21.0621   20.9334 C   0  0  0  0  0  0  0  0  0  0  0  0
  -25.9934  -13.5075   19.4522 C   0  0  0  0  0  0  0  0  0  0  0  0
  -26.3810  -15.4783   20.7948 C   0  0  0  0  0  0  0  0  0  0  0  0
  -21.8696  -28.4987   19.1357 C   0  0  0  0  0  0  0  0  0  0  0  0
  -29.3136  -13.0290   18.0513 C   0  0  0  0  0  0  0  0  0  0  0  0
  -30.0715  -11.8605   17.9743 C   0  0  0  0  0  0  0  0  0  0  0  0
  -22.1023  -29.2036   21.4309 C   0  0  0  0  0  0  0  0  0  0  0  0
  -19.2254  -20.8630   22.6285 C   0  0  0  0  0  0  0  0  0  0  0  0
  -29.8961  -11.5891   20.3687 C   0  0  0  0  0  0  0  0  0  0  0  0
  -24.2492  -14.3462   20.8984 C   0  0  0  0  0  0  0  0  0  0  0  0
  -22.5094  -13.5424   22.5820 C   0  0  0  0  0  0  0  0  0  0  0  0
  -30.6207  -26.3645   19.8547 C   0  0  0  0  0  0  0  0  0  0  0  0
  -23.9638  -29.4570   19.9043 C   0  0  0  0  0  0  0  0  0  0  0  0
  -29.2133  -26.3616   19.8956 C   0  0  0  0  0  0  0  0  0  0  0  0
  -23.4198  -29.6201   21.1863 C   0  0  0  0  0  0  0  0  0  0  0  0
  -19.2184  -22.2475   22.7981 C   0  0  0  0  0  0  0  0  0  0  0  0
  -18.3600  -23.0393   22.0353 C   0  0  0  0  0  0  0  0  0  0  0  0
  -18.3739  -20.2703   21.6961 C   0  0  0  0  0  0  0  0  0  0  0  0
  -26.8332  -14.5418   19.8652 C   0  0  0  0  0  0  0  0  0  0  0  0
  -21.3324  -28.6444   20.4113 C   0  0  0  0  0  0  0  0  0  0  0  0
  -28.8470  -13.4776   19.2869 C   0  0  0  0  0  0  0  0  0  0  0  0
  -30.3627  -11.1406   19.1330 C   0  0  0  0  0  0  0  0  0  0  0  0
  -29.1382  -12.7576   20.4456 C   0  0  0  0  0  0  0  0  0  0  0  0
  -22.9146  -14.2460   21.4319 C   0  0  0  0  0  0  0  0  0  0  0  0
  -21.1551  -13.7585   22.6573 C   0  0  0  0  0  0  0  0  0  0  0  0
  -19.1232  -25.3956   21.4929 C   0  0  0  0  0  0  0  0  0  0  0  0
  -23.2877  -12.7634   23.5001 C   0  0  0  0  0  0  0  0  0  0  0  0
  -26.6814  -28.6361   21.3340 C   0  0  0  0  0  0  0  0  0  0  0  0
  -26.3304  -31.5134   22.7901 C   0  0  0  0  0  0  0  0  0  0  0  0
  -24.2398  -34.0190   23.7892 C   0  0  0  0  0  0  0  0  0  0  0  0
  -17.5983  -18.1171   20.6432 C   0  0  0  0  0  0  0  0  0  0  0  0
  -31.4474  -26.8339   21.0256 C   0  0  0  0  0  0  0  0  0  0  0  0
  -25.3647  -29.9168   19.6071 C   0  0  0  0  0  0  0  0  0  0  0  0
  -24.2147  -30.2239   22.3141 C   0  0  0  0  0  0  0  0  0  0  0  0
  -30.6633  -27.6819   22.0237 C   0  0  0  0  0  0  0  0  0  0  0  0
  -17.3451  -14.6453   19.8948 C   0  0  0  0  0  0  0  0  0  0  0  0
  -29.3229  -27.0277   22.3430 C   0  0  0  0  0  0  0  0  0  0  0  0
  -18.7055  -14.0839   20.3144 C   0  0  0  0  0  0  0  0  0  0  0  0
  -17.9879  -26.5125   23.2615 C   0  0  0  0  0  0  0  0  0  0  0  0
  -17.4709  -16.0402   19.2847 C   0  0  0  0  0  0  0  0  0  0  0  0
  -17.4178  -25.1173   23.1016 C   0  0  0  0  0  0  0  0  0  0  0  0
  -19.5568  -16.4538   20.5286 C   0  0  0  0  0  0  0  0  0  0  0  0
  -28.4540  -26.9078   21.0852 C   0  0  1  0  0  0  0  0  0  0  0  0
  -18.6440  -26.7755   21.9138 C   0  0  1  0  0  0  0  0  0  0  0  0
  -26.2458  -29.9904   20.8504 C   0  0  1  0  0  0  0  0  0  0  0  0
  -19.4738  -15.0771   21.2081 C   0  0  2  0  0  0  0  0  0  0  0  0
  -24.2390  -36.2227   24.9896 C   0  0  0  0  0  0  0  0  0  0  0  0
  -26.6162  -30.0582   25.4567 C   0  0  0  0  0  0  0  0  0  0  0  0
  -25.6760  -32.0860   26.5847 C   0  0  0  0  0  0  0  0  0  0  0  0
  -27.8242  -32.2442   25.3265 C   0  0  0  0  0  0  0  0  0  0  0  0
  -23.2122  -35.4467   21.4092 C   0  0  0  0  0  0  0  0  0  0  0  0
  -19.7635  -27.7969   21.9849 C   0  0  0  0  0  0  0  0  0  1  0  0
  -25.6555  -31.9986   24.0503 C   0  0  1  0  0  0  0  0  0  0  0  0
  -24.3317  -35.5270   23.6405 C   0  0  2  0  0  0  0  0  0  0  0  0
  -20.1414  -22.8559   23.8035 C   0  0  0  0  0  0  0  0  0  0  0  0
  -26.4284  -31.5836   25.3340 C   0  0  0  0  0  0  0  0  0  0  0  0
  -21.8997  -14.8627   20.8205 N   0  0  0  0  0  0  0  0  0  0  0  0
  -20.8435  -14.5473   21.5892 N   0  0  0  0  0  0  0  0  0  0  0  0
  -18.3375  -24.4575   22.1937 N   0  0  0  0  0  0  0  0  0  0  0  0
  -25.5819  -30.6523   21.9752 N   0  0  0  0  0  0  0  0  0  0  0  0
  -18.2060  -16.9275   20.1888 N   0  0  0  0  0  0  0  0  0  0  0  0
  -20.2123  -13.3487   23.5323 N   0  0  0  0  0  0  0  0  0  0  0  0
  -24.6659  -12.6449   23.2748 N   0  0  0  0  0  0  0  0  0  0  0  0
  -18.3801  -18.8638   21.5240 N   0  0  0  0  0  0  0  0  0  0  0  0
  -27.8551  -28.1848   20.7610 N   0  0  0  0  0  0  0  0  0  0  0  0
  -25.4864  -33.4392   23.8941 N   0  0  0  0  0  0  0  0  0  0  0  0
  -23.2277  -36.0304   22.7752 N   0  3  0  0  0  0  0  0  0  0  0  0
  -19.9899  -25.2163   20.6496 O   0  0  0  0  0  0  0  0  0  0  0  0
  -22.7734  -12.1757   24.4818 O   0  0  0  0  0  0  0  0  0  0  0  0
  -26.0038  -28.0451   22.1666 O   0  0  0  0  0  0  0  0  0  0  0  0
  -27.4768  -31.8904   22.5345 O   0  0  0  0  0  0  0  0  0  0  0  0
  -23.1691  -33.4161   23.8138 O   0  0  0  0  0  0  0  0  0  0  0  0
  -16.4570  -18.4352   20.2993 O   0  0  0  0  0  0  0  0  0  0  0  0
  -28.0940  -14.6374   19.3615 O   0  0  0  0  0  0  0  0  0  0  0  0
  -20.0555  -28.2465   20.6624 O   0  0  0  0  0  0  0  0  0  1  0  0
  -31.0892  -10.0177   19.0588 F   0  0  0  0  0  0  0  0  0  0  0  0
  -28.6917  -13.1830   21.6353 F   0  0  0  0  0  0  0  0  0  0  0  0
  -20.9111  -21.9400   24.4605 F   0  0  0  0  0  0  0  0  0  0  0  0
  -21.0247  -23.7449   23.2631 F   0  0  0  0  0  0  0  0  0  0  0  0
  -19.4754  -23.5425   24.7756 F   0  0  0  0  0  0  0  0  0  0  0  0
  1  2  1  0  0  0  0
  1  5  2  0  0  0  0
  2  6  2  0  0  0  0
  3 10  2  0  0  0  0
  3 18  1  0  0  0  0
  4 11  1  0  0  0  0
  4 18  2  0  0  0  0
  5 20  1  0  0  0  0
  6 22  1  0  0  0  0
  7 12  2  0  0  0  0
  7 21  1  0  0  0  0
  8  9  2  0  0  0  0
  8 25  1  0  0  0  0
  9 26  1  0  0  0  0
 10 27  1  0  0  0  0
 11 27  2  0  0  0  0
 12 28  1  0  0  0  0
 13 14  2  0  0  0  0
 13 29  1  0  0  0  0
 14 30  1  0  0  0  0
 15 23  1  0  0  0  0
 15 28  2  0  0  0  0
 16 24  1  0  0  0  0
 16 26  2  0  0  0  0
 17 30  2  0  0  0  0
 17 31  1  0  0  0  0
 18 32  1  0  0  0  0
 19 32  1  0  0  0  0
 19 33  2  0  0  0  0
 19 35  1  0  0  0  0
 20 22  2  0  0  0  0
 20 40  1  0  0  0  0
 21 23  2  0  0  0  0
 21 41  1  0  0  0  0
 22 51  1  0  0  0  0
 23 42  1  0  0  0  0
 24 25  2  0  0  0  0
 24 63  1  0  0  0  0
 25 67  1  0  0  0  0
 26 72  1  0  0  0  0
 27 82  1  0  0  0  0
 28 83  1  0  0  0  0
 29 31  2  0  0  0  0
 29 82  1  0  0  0  0
 30 84  1  0  0  0  0
 31 85  1  0  0  0  0
 32 65  2  0  0  0  0
 33 66  1  0  0  0  0
 33 70  1  0  0  0  0
 34 52  1  0  0  0  0
 34 67  1  0  0  0  0
 34 76  2  0  0  0  0
 35 71  1  0  0  0  0
 35 77  2  0  0  0  0
 36 53  1  0  0  0  0
 36 73  1  0  0  0  0
 36 78  2  0  0  0  0
 37 61  1  0  0  0  0
 37 68  1  0  0  0  0
 37 79  2  0  0  0  0
 38 62  1  0  0  0  0
 38 74  1  0  0  0  0
 38 80  2  0  0  0  0
 39 69  1  0  0  0  0
 39 72  1  0  0  0  0
 39 81  2  0  0  0  0
 40 43  1  0  0  0  0
 41 53  1  0  0  0  0
 42 68  1  0  0  0  0
 43 45  1  0  0  0  0
 44 46  1  0  0  0  0
 44 48  1  0  0  0  0
 45 51  1  0  0  0  0
 46 54  1  0  0  0  0
 47 49  1  0  0  0  0
 47 52  1  0  0  0  0
 48 69  1  0  0  0  0
 49 67  1  0  0  0  0
 50 54  1  0  0  0  0
 50 69  1  0  0  0  0
 51 73  1  0  0  0  0
 52 60  1  0  0  0  0
 53 68  1  0  0  0  0
 54 66  1  0  0  0  0
 55 62  1  0  0  0  0
 56 64  1  0  0  0  0
 57 64  1  0  0  0  0
 58 64  1  0  0  0  0
 59 75  1  0  0  0  0
 60 83  1  0  0  0  0
 61 64  1  0  0  0  0
 61 74  1  0  0  0  0
 62 75  1  0  0  0  0
 63 86  1  0  0  0  0
 63 87  1  0  0  0  0
 63 88  1  0  0  0  0
 65 66  1  0  0  0  0
M  CHG  1  75   1
M  ISO  4  39 100  60 101  72 100  83 101
M  END
> <Batch ID>
0024

> <Smiles>
CNC(C)C(=O)NC(C(=O)N1Cc2cc([101O:1][101CH2:1]C3CCN(c4ccc([100NH:0][100C:0](=O)N5CCCC(n6nc(-c7ccc(Oc8ccc(F)cc8F)cc7)c(C(N)=O)c6N)C5)cc4C(F)(F)F)C3=O)ccc2CC1C(=O)NC1CCCc2ccccc21)C(C)(C)C

> <Shape>
0.310

> <Color>
0.078

> <Negative vol penalty>
0.000

$$$$

  -OEChem-04042321203D

 86 94  0     1  0  0  0  0  0999 V2000
  -19.0939  -33.6999   21.7692 C   0  0  0  0  0  0  0  0  0  0  0  0
  -20.4176  -33.4641   21.4120 C   0  0  0  0  0  0  0  0  0  0  0  0
  -22.9487  -13.5226   19.4738 C   0  0  0  0  0  0  0  0  0  0  0  0
  -22.2208  -14.9746   21.2623 C   0  0  0  0  0  0  0  0  0  0  0  0
  -18.4569  -32.8549   22.6771 C   0  0  0  0  0  0  0  0  0  0  0  0
  -21.1055  -32.3837   21.9634 C   0  0  0  0  0  0  0  0  0  0  0  0
  -25.3533  -28.9335   19.2141 C   0  0  0  0  0  0  0  0  0  0  0  0
  -21.9233  -12.6287   19.7821 C   0  0  0  0  0  0  0  0  0  0  0  0
  -21.1953  -14.0807   21.5707 C   0  0  0  0  0  0  0  0  0  0  0  0
  -26.7468  -28.9537   19.2525 C   0  0  0  0  0  0  0  0  0  0  0  0
  -19.7167   -9.7907   20.3300 C   0  0  0  0  0  0  0  0  0  0  0  0
  -20.0315   -8.4328   20.3807 C   0  0  0  0  0  0  0  0  0  0  0  0
  -26.7188  -27.2427   20.9528 C   0  0  0  0  0  0  0  0  0  0  0  0
  -28.6664  -22.3072   21.8743 C   0  0  0  0  0  0  0  0  0  0  0  0
  -30.9710  -21.8692   22.4520 C   0  0  0  0  0  0  0  0  0  0  0  0
  -21.6328   -8.8695   22.1364 C   0  0  0  0  0  0  0  0  0  0  0  0
  -23.0975  -14.6956   20.2139 C   0  0  0  0  0  0  0  0  0  0  0  0
  -24.1008  -16.7001   18.9961 C   0  0  0  0  0  0  0  0  0  0  0  0
  -19.1344  -31.7580   23.2325 C   0  0  0  0  0  0  0  0  0  0  0  0
  -24.6305  -28.0741   20.0540 C   0  0  0  0  0  0  0  0  0  0  0  0
  -20.4774  -31.5241   22.8806 C   0  0  0  0  0  0  0  0  0  0  0  0
  -25.3162  -27.2118   20.9213 C   0  0  0  0  0  0  0  0  0  0  0  0
  -29.6108  -21.6250   22.6413 C   0  0  0  0  0  0  0  0  0  0  0  0
  -30.4425  -23.4777   20.7285 C   0  0  0  0  0  0  0  0  0  0  0  0
  -21.0466  -12.9077   20.8305 C   0  0  0  0  0  0  0  0  0  0  0  0
  -27.4297  -28.1103   20.1239 C   0  0  0  0  0  0  0  0  0  0  0  0
  -20.3600  -10.6881   21.1825 C   0  0  0  0  0  0  0  0  0  0  0  0
  -20.9895   -7.9722   21.2839 C   0  0  0  0  0  0  0  0  0  0  0  0
  -29.0823  -23.2336   20.9178 C   0  0  0  0  0  0  0  0  0  0  0  0
  -21.3180  -10.2274   22.0857 C   0  0  0  0  0  0  0  0  0  0  0  0
  -31.3869  -22.7955   21.4956 C   0  0  0  0  0  0  0  0  0  0  0  0
  -24.1568  -15.6191   19.8962 C   0  0  0  0  0  0  0  0  0  0  0  0
  -25.3538  -17.2596   19.0531 C   0  0  0  0  0  0  0  0  0  0  0  0
  -23.0132  -17.1576   18.1815 C   0  0  0  0  0  0  0  0  0  0  0  0
  -22.5095  -28.4778   22.3868 C   0  0  0  0  0  0  0  0  0  0  0  0
  -22.3134  -25.2433   22.2392 C   0  0  0  0  0  0  0  0  0  0  0  0
  -23.7917  -22.2869   21.3899 C   0  0  0  0  0  0  0  0  0  0  0  0
  -29.6006  -18.3352   22.8376 C   0  0  0  0  0  0  0  0  0  0  0  0
  -18.4188  -30.9002   24.2458 C   0  0  0  0  0  0  0  0  0  0  0  0
  -23.1284  -28.0453   19.9815 C   0  0  0  0  0  0  0  0  0  0  0  0
  -24.5876  -26.2559   21.8290 C   0  0  0  0  0  0  0  0  0  0  0  0
  -19.1015  -29.5584   24.4986 C   0  0  0  0  0  0  0  0  0  0  0  0
  -29.8150  -15.6765   20.4793 C   0  0  0  0  0  0  0  0  0  0  0  0
  -20.6020  -29.7513   24.6937 C   0  0  0  0  0  0  0  0  0  0  0  0
  -28.3726  -15.4911   20.0048 C   0  0  0  0  0  0  0  0  0  0  0  0
  -29.8797  -16.0347   21.9623 C   0  0  0  0  0  0  0  0  0  0  0  0
  -27.6185  -17.0116   21.8806 C   0  0  0  0  0  0  0  0  0  0  0  0
  -21.2494  -30.3480   23.4382 C   0  0  1  0  0  0  0  0  0  0  0  0
  -22.4794  -27.4973   21.2487 C   0  0  1  0  0  0  0  0  0  0  0  0
  -27.4993  -16.7041   20.3781 C   0  0  2  0  0  0  0  0  0  0  0  0
  -31.0218  -22.9350   17.8340 C   0  0  0  0  0  0  0  0  0  0  0  0
  -23.4014  -19.8082   21.4232 C   0  0  0  0  0  0  0  0  0  0  0  0
  -22.8759  -25.1974   25.2378 C   0  0  0  0  0  0  0  0  0  0  0  0
  -23.4121  -22.7607   25.0293 C   0  0  0  0  0  0  0  0  0  0  0  0
  -21.1219  -23.5834   24.4806 C   0  0  0  0  0  0  0  0  0  0  0  0
  -23.9882  -22.0994   18.4429 C   0  0  0  0  0  0  0  0  0  0  0  0
  -29.1657  -20.6347   23.6636 C   0  0  0  0  0  0  0  0  0  0  0  0
  -30.7912  -26.8561   19.7969 C   0  0  0  0  0  0  0  0  0  0  0  0
  -30.4642  -24.2143   18.3585 C   0  0  0  0  0  0  0  0  0  0  0  0
  -31.5844  -25.5946   20.1159 C   0  0  0  0  0  0  0  0  0  0  0  0
  -29.4457  -26.9095   20.5109 C   0  0  0  0  0  0  0  0  0  1  0  0
  -23.0334  -24.0970   22.9075 C   0  0  1  0  0  0  0  0  0  0  0  0
  -23.2755  -21.0891   20.6132 C   0  0  2  0  0  0  0  0  0  0  0  0
  -22.6248  -23.9289   24.3982 C   0  0  0  0  0  0  0  0  0  0  0  0
  -25.3510  -15.4972   20.4819 N   0  0  0  0  0  0  0  0  0  0  0  0
  -26.0570  -16.5088   19.9486 N   0  0  0  0  0  0  0  0  0  0  0  0
  -23.1190  -26.2695   21.7257 N   0  0  0  0  0  0  0  0  0  0  0  0
  -29.0311  -17.1938   22.2495 N   0  0  0  0  0  0  0  0  0  0  0  0
  -25.9118  -18.3156   18.4238 N   0  0  0  0  0  0  0  0  0  0  0  0
  -21.7949  -16.4677   18.2447 N   0  0  0  0  0  0  0  0  0  0  0  0
  -21.4215  -29.3288   22.4253 N   0  0  0  0  0  0  0  0  0  0  0  0
  -22.7816  -22.9203   22.0826 N   0  0  0  0  0  0  0  0  0  0  0  0
  -28.7277  -19.3910   23.0703 N   0  0  0  0  0  0  0  0  0  0  0  0
  -30.8323  -24.4152   19.7613 N   0  0  3  0  0  0  0  0  0  0  0  0
  -24.0442  -20.9222   19.3474 N   0  3  0  0  0  0  0  0  0  0  0  0
  -23.1237  -18.1388   17.4079 O   0  0  0  0  0  0  0  0  0  0  0  0
  -23.4495  -28.4623   23.1729 O   0  0  0  0  0  0  0  0  0  0  0  0
  -21.0820  -25.2252   22.1689 O   0  0  0  0  0  0  0  0  0  0  0  0
  -24.9735  -22.6244   21.3859 O   0  0  0  0  0  0  0  0  0  0  0  0
  -30.7992  -18.4100   23.1285 O   0  0  0  0  0  0  0  0  0  0  0  0
  -20.0458  -12.0358   21.1315 O   0  0  0  0  0  0  0  0  0  0  0  0
  -28.7898  -28.1284   20.1638 O   0  0  0  0  0  0  0  0  0  1  0  0
  -21.2906   -6.6679   21.3335 F   0  0  0  0  0  0  0  0  0  0  0  0
  -28.1645  -23.8832   20.1875 F   0  0  0  0  0  0  0  0  0  0  0  0
  -21.9385  -11.0846   22.9080 F   0  0  0  0  0  0  0  0  0  0  0  0
  -33.0809  -23.0681   21.2939 Cl  0  0  0  0  0  0  0  0  0  0  0  0
  1  2  1  0  0  0  0
  1  5  2  0  0  0  0
  2  6  2  0  0  0  0
  3  8  2  0  0  0  0
  3 17  1  0  0  0  0
  4  9  1  0  0  0  0
  4 17  2  0  0  0  0
  5 19  1  0  0  0  0
  6 21  1  0  0  0  0
  7 10  2  0  0  0  0
  7 20  1  0  0  0  0
  8 25  1  0  0  0  0
  9 25  2  0  0  0  0
 10 26  1  0  0  0  0
 11 12  2  0  0  0  0
 11 27  1  0  0  0  0
 12 28  1  0  0  0  0
 13 22  1  0  0  0  0
 13 26  2  0  0  0  0
 14 23  1  0  0  0  0
 14 29  2  0  0  0  0
 15 23  2  0  0  0  0
 15 31  1  0  0  0  0
 16 28  2  0  0  0  0
 16 30  1  0  0  0  0
 17 32  1  0  0  0  0
 18 32  1  0  0  0  0
 18 33  2  0  0  0  0
 18 34  1  0  0  0  0
 19 21  2  0  0  0  0
 19 39  1  0  0  0  0
 20 22  2  0  0  0  0
 20 40  1  0  0  0  0
 21 48  1  0  0  0  0
 22 41  1  0  0  0  0
 23 57  1  0  0  0  0
 24 29  1  0  0  0  0
 24 31  2  0  0  0  0
 24 74  1  0  0  0  0
 25 81  1  0  0  0  0
 26 82  1  0  0  0  0
 27 30  2  0  0  0  0
 27 81  1  0  0  0  0
 28 83  1  0  0  0  0
 29 84  1  0  0  0  0
 30 85  1  0  0  0  0
 31 86  1  0  0  0  0
 32 65  2  0  0  0  0
 33 66  1  0  0  0  0
 33 69  1  0  0  0  0
 34 70  1  0  0  0  0
 34 76  2  0  0  0  0
 35 49  1  0  0  0  0
 35 71  1  0  0  0  0
 35 77  2  0  0  0  0
 36 62  1  0  0  0  0
 36 67  1  0  0  0  0
 36 78  2  0  0  0  0
 37 63  1  0  0  0  0
 37 72  1  0  0  0  0
 37 79  2  0  0  0  0
 38 68  1  0  0  0  0
 38 73  1  0  0  0  0
 38 80  2  0  0  0  0
 39 42  1  0  0  0  0
 40 49  1  0  0  0  0
 41 67  1  0  0  0  0
 42 44  1  0  0  0  0
 43 45  1  0  0  0  0
 43 46  1  0  0  0  0
 44 48  1  0  0  0  0
 45 50  1  0  0  0  0
 46 68  1  0  0  0  0
 47 50  1  0  0  0  0
 47 68  1  0  0  0  0
 48 71  1  0  0  0  0
 49 67  1  0  0  0  0
 50 66  1  0  0  0  0
 51 59  1  0  0  0  0
 52 63  1  0  0  0  0
 53 64  1  0  0  0  0
 54 64  1  0  0  0  0
 55 64  1  0  0  0  0
 56 75  1  0  0  0  0
 57 73  1  0  0  0  0
 58 60  1  0  0  0  0
 58 61  1  0  0  0  0
 59 74  1  0  0  0  0
 60 74  1  0  0  0  0
 61 82  1  0  0  0  0
 62 64  1  0  0  0  0
 62 72  1  0  0  0  0
 63 75  1  0  0  0  0
 65 66  1  0  0  0  0
M  CHG  1  75   1
M  ISO  4  38 100  61 101  73 100  82 101
M  END
> <Batch ID>
0024

> <Smiles>
CCN(CC[101CH2:1][101O:1]c1ccc2c(c1)CN(C(=O)C(NC(=O)C(C)NC)C(C)(C)C)C(C(=O)NC1CCCc3ccccc31)C2)c1c(F)cc(C[100NH:0][100C:0](=O)N2CCCC(n3nc(-c4ccc(Oc5ccc(F)cc5F)cc4)c(C(N)=O)c3N)C2)cc1Cl

> <Shape>
0.195

> <Color>
0.077

> <Negative vol penalty>
0.000

$$$$

  -OEChem-04042321203D

 86 95  0     1  0  0  0  0  0999 V2000
  -26.1687  -29.4592   19.4210 C   0  0  0  0  0  0  0  0  0  0  0  0
  -27.1045  -28.5831   19.9614 C   0  0  0  0  0  0  0  0  0  0  0  0
  -23.0625  -10.0708   19.8834 C   0  0  0  0  0  0  0  0  0  0  0  0
  -23.8937   -9.8453   22.1407 C   0  0  0  0  0  0  0  0  0  0  0  0
  -24.8252  -29.0917   19.3601 C   0  0  0  0  0  0  0  0  0  0  0  0
  -26.6971  -27.3392   20.4423 C   0  0  0  0  0  0  0  0  0  0  0  0
  -29.8451  -22.0912   20.2102 C   0  0  0  0  0  0  0  0  0  0  0  0
  -32.5891  -17.1784   22.9781 C   0  0  0  0  0  0  0  0  0  0  0  0
  -32.1122  -16.0565   22.3003 C   0  0  0  0  0  0  0  0  0  0  0  0
  -22.3085   -8.9085   20.0449 C   0  0  0  0  0  0  0  0  0  0  0  0
  -23.1396   -8.6830   22.3022 C   0  0  0  0  0  0  0  0  0  0  0  0
  -30.6316  -21.4268   21.1503 C   0  0  0  0  0  0  0  0  0  0  0  0
  -19.3947   -8.0129   21.5080 C   0  0  0  0  0  0  0  0  0  0  0  0
  -18.0727   -8.0308   21.0635 C   0  0  0  0  0  0  0  0  0  0  0  0
  -28.7413  -20.0549   21.7534 C   0  0  0  0  0  0  0  0  0  0  0  0
  -18.5596   -6.2183   19.5421 C   0  0  0  0  0  0  0  0  0  0  0  0
  -23.8552  -10.5392   20.9313 C   0  0  0  0  0  0  0  0  0  0  0  0
  -24.2335  -13.0594   21.0447 C   0  0  0  0  0  0  0  0  0  0  0  0
  -24.4025  -27.8389   19.8317 C   0  0  0  0  0  0  0  0  0  0  0  0
  -28.4956  -21.7492   20.0420 C   0  0  0  0  0  0  0  0  0  0  0  0
  -25.3464  -26.9551   20.3889 C   0  0  0  0  0  0  0  0  0  0  0  0
  -27.9405  -20.7147   20.8087 C   0  0  0  0  0  0  0  0  0  0  0  0
  -32.1386  -17.4576   24.2683 C   0  0  0  0  0  0  0  0  0  0  0  0
  -31.1845  -15.2138   22.9126 C   0  0  0  0  0  0  0  0  0  0  0  0
  -22.3470   -8.2146   21.2544 C   0  0  0  0  0  0  0  0  0  0  0  0
  -30.0791  -20.4105   21.9241 C   0  0  0  0  0  0  0  0  0  0  0  0
  -20.2992   -7.0977   20.9695 C   0  0  0  0  0  0  0  0  0  0  0  0
  -17.6551   -7.1335   20.0806 C   0  0  0  0  0  0  0  0  0  0  0  0
  -19.8816   -6.2004   19.9866 C   0  0  0  0  0  0  0  0  0  0  0  0
  -31.2109  -16.6150   24.8807 C   0  0  0  0  0  0  0  0  0  0  0  0
  -30.7339  -15.4931   24.2029 C   0  0  0  0  0  0  0  0  0  0  0  0
  -24.6348  -11.7394   20.7648 C   0  0  0  0  0  0  0  0  0  0  0  0
  -25.3256  -13.8265   20.7200 C   0  0  0  0  0  0  0  0  0  0  0  0
  -22.9851  -13.5485   21.5528 C   0  0  0  0  0  0  0  0  0  0  0  0
  -25.7326  -23.2804   20.3956 C   0  0  0  0  0  0  0  0  0  0  0  0
  -24.5078  -20.5566   19.1295 C   0  0  0  0  0  0  0  0  0  0  0  0
  -25.1576  -17.6148   18.2162 C   0  0  0  0  0  0  0  0  0  0  0  0
  -31.0972  -13.6996   20.9013 C   0  0  0  0  0  0  0  0  0  0  0  0
  -22.9324  -27.5050   19.7880 C   0  0  0  0  0  0  0  0  0  0  0  0
  -27.6677  -22.4573   19.0049 C   0  0  0  0  0  0  0  0  0  0  0  0
  -26.5023  -20.2958   20.6524 C   0  0  0  0  0  0  0  0  0  0  0  0
  -22.6395  -26.0187   19.9762 C   0  0  0  0  0  0  0  0  0  0  0  0
  -29.3139  -13.1793   17.8638 C   0  0  0  0  0  0  0  0  0  0  0  0
  -33.9232  -19.8127   26.4773 C   0  0  0  0  0  0  0  0  0  0  0  0
  -23.4396  -25.4613   21.1492 C   0  0  0  0  0  0  0  0  0  0  0  0
  -27.8857  -12.8839   18.3279 C   0  0  0  0  0  0  0  0  0  0  0  0
  -33.2916  -20.7817   25.4970 C   0  0  0  0  0  0  0  0  0  0  0  0
  -33.8486  -18.4879   25.7343 C   0  0  0  0  0  0  0  0  0  0  0  0
  -30.3530  -12.5814   18.8106 C   0  0  0  0  0  0  0  0  0  0  0  0
  -28.7590  -12.6493   20.6878 C   0  0  0  0  0  0  0  0  0  0  0  0
  -24.9471  -25.5872   20.8982 C   0  0  1  0  0  0  0  0  0  0  0  0
  -26.1691  -22.3752   19.2786 C   0  0  1  0  0  0  0  0  0  0  0  0
  -27.6771  -13.2869   19.8008 C   0  0  2  0  0  0  0  0  0  0  0  0
  -32.1255  -19.9741   24.8665 C   0  0  1  0  0  0  0  0  0  0  0  0
  -30.8711  -20.1369   25.7373 C   0  0  0  0  0  0  0  0  0  0  0  0
  -24.5458  -15.2861   17.5091 C   0  0  0  0  0  0  0  0  0  0  0  0
  -22.6474  -20.4193   21.5440 C   0  0  0  0  0  0  0  0  0  0  0  0
  -22.1909  -18.0258   20.9685 C   0  0  0  0  0  0  0  0  0  0  0  0
  -21.5719  -19.8326   19.3638 C   0  0  0  0  0  0  0  0  0  0  0  0
  -26.5705  -17.9038   15.6318 C   0  0  0  0  0  0  0  0  0  0  0  0
  -31.9052  -20.5015   23.4449 C   0  0  0  0  0  0  0  0  0  1  0  0
  -24.0096  -19.2467   19.6905 C   0  0  1  0  0  0  0  0  0  0  0  0
  -24.9049  -16.6878   17.0410 C   0  0  2  0  0  0  0  0  0  0  0  0
  -22.6316  -19.3900   20.3963 C   0  0  0  0  0  0  0  0  0  0  0  0
  -25.8843  -11.6684   20.2981 N   0  0  0  0  0  0  0  0  0  0  0  0
  -26.2775  -12.9534   20.2822 N   0  0  0  0  0  0  0  0  0  0  0  0
  -32.6346  -18.5806   24.9096 N   0  0  3  0  0  0  0  0  0  0  0  0
  -25.7320  -21.0225   19.6297 N   0  0  0  0  0  0  0  0  0  0  0  0
  -30.0947  -13.0099   20.1870 N   0  0  0  0  0  0  0  0  0  0  0  0
  -25.5549  -15.1559   20.7692 N   0  0  0  0  0  0  0  0  0  0  0  0
  -21.9698  -12.6240   21.8335 N   0  0  0  0  0  0  0  0  0  0  0  0
  -30.7259  -14.0853   22.1889 N   0  0  0  0  0  0  0  0  0  0  0  0
  -25.3955  -24.5565   19.9865 N   0  0  0  0  0  0  0  0  0  0  0  0
  -24.0173  -18.2984   18.5818 N   0  0  0  0  0  0  0  0  0  0  0  0
  -26.1186  -16.5994   16.1807 N   0  3  0  0  0  0  0  0  0  0  0  0
  -22.7705  -14.7707   21.7364 O   0  0  0  0  0  0  0  0  0  0  0  0
  -25.7024  -22.8523   21.5434 O   0  0  0  0  0  0  0  0  0  0  0  0
  -23.8390  -21.1413   18.2736 O   0  0  0  0  0  0  0  0  0  0  0  0
  -26.2557  -17.7192   18.7582 O   0  0  0  0  0  0  0  0  0  0  0  0
  -32.1939  -13.9548   20.3974 O   0  0  0  0  0  0  0  0  0  0  0  0
  -21.6111   -7.0806   21.4124 O   0  0  0  0  0  0  0  0  0  0  0  0
  -30.8444  -19.7609   22.8429 O   0  0  0  0  0  0  0  0  0  1  0  0
  -16.3852   -7.1498   19.6550 F   0  0  0  0  0  0  0  0  0  0  0  0
  -20.7457   -5.3180   19.4664 F   0  0  0  0  0  0  0  0  0  0  0  0
  -30.6671  -16.9861   26.4893 Cl  0  0  0  0  0  0  0  0  0  0  0  0
  -29.5756  -14.4278   24.9414 Cl  0  0  0  0  0  0  0  0  0  0  0  0
  1  2  1  0  0  0  0
  1  5  2  0  0  0  0
  2  6  2  0  0  0  0
  3 10  2  0  0  0  0
  3 17  1  0  0  0  0
  4 11  1  0  0  0  0
  4 17  2  0  0  0  0
  5 19  1  0  0  0  0
  6 21  1  0  0  0  0
  7 12  2  0  0  0  0
  7 20  1  0  0  0  0
  8  9  2  0  0  0  0
  8 23  1  0  0  0  0
  9 24  1  0  0  0  0
 10 25  1  0  0  0  0
 11 25  2  0  0  0  0
 12 26  1  0  0  0  0
 13 14  2  0  0  0  0
 13 27  1  0  0  0  0
 14 28  1  0  0  0  0
 15 22  1  0  0  0  0
 15 26  2  0  0  0  0
 16 28  2  0  0  0  0
 16 29  1  0  0  0  0
 17 32  1  0  0  0  0
 18 32  1  0  0  0  0
 18 33  2  0  0  0  0
 18 34  1  0  0  0  0
 19 21  2  0  0  0  0
 19 39  1  0  0  0  0
 20 22  2  0  0  0  0
 20 40  1  0  0  0  0
 21 51  1  0  0  0  0
 22 41  1  0  0  0  0
 23 30  2  0  0  0  0
 23 67  1  0  0  0  0
 24 31  2  0  0  0  0
 24 72  1  0  0  0  0
 25 81  1  0  0  0  0
 26 82  1  0  0  0  0
 27 29  2  0  0  0  0
 27 81  1  0  0  0  0
 28 83  1  0  0  0  0
 29 84  1  0  0  0  0
 30 31  1  0  0  0  0
 30 85  1  0  0  0  0
 31 86  1  0  0  0  0
 32 65  2  0  0  0  0
 33 66  1  0  0  0  0
 33 70  1  0  0  0  0
 34 71  1  0  0  0  0
 34 76  2  0  0  0  0
 35 52  1  0  0  0  0
 35 73  1  0  0  0  0
 35 77  2  0  0  0  0
 36 62  1  0  0  0  0
 36 68  1  0  0  0  0
 36 78  2  0  0  0  0
 37 63  1  0  0  0  0
 37 74  1  0  0  0  0
 37 79  2  0  0  0  0
 38 69  1  0  0  0  0
 38 72  1  0  0  0  0
 38 80  2  0  0  0  0
 39 42  1  0  0  0  0
 40 52  1  0  0  0  0
 41 68  1  0  0  0  0
 42 45  1  0  0  0  0
 43 46  1  0  0  0  0
 43 49  1  0  0  0  0
 44 47  1  0  0  0  0
 44 48  1  0  0  0  0
 45 51  1  0  0  0  0
 46 53  1  0  0  0  0
 47 54  1  0  0  0  0
 48 67  1  0  0  0  0
 49 69  1  0  0  0  0
 50 53  1  0  0  0  0
 50 69  1  0  0  0  0
 51 73  1  0  0  0  0
 52 68  1  0  0  0  0
 53 66  1  0  0  0  0
 54 55  1  0  0  0  0
 54 61  1  0  0  0  0
 54 67  1  0  0  0  0
 56 63  1  0  0  0  0
 57 64  1  0  0  0  0
 58 64  1  0  0  0  0
 59 64  1  0  0  0  0
 60 75  1  0  0  0  0
 61 82  1  0  0  0  0
 62 64  1  0  0  0  0
 62 74  1  0  0  0  0
 63 75  1  0  0  0  0
 65 66  1  0  0  0  0
M  CHG  1  75   1
M  ISO  4  38 100  61 101  72 100  82 101
M  END
> <Batch ID>
0024

> <Smiles>
CNC(C)C(=O)NC(C(=O)N1Cc2cc([101O:1][101CH2:1]C3(C)CCCN3c3ccc([100NH:0][100C:0](=O)N4CCCC(n5nc(-c6ccc(Oc7ccc(F)cc7F)cc6)c(C(N)=O)c5N)C4)c(Cl)c3Cl)ccc2CC1C(=O)NC1CCCc2ccccc21)C(C)(C)C

> <Shape>
0.207

> <Color>
0.195

> <Negative vol penalty>
0.000

$$$$
