
  -OEChem-04042321223D

 86 95  0     1  0  0  0  0  0999 V2000
  -17.8813  -27.9412   22.5843 C   0  0  0  0  0  0  0  0  0  0  0  0
  -18.8221  -28.9195   22.2829 C   0  0  0  0  0  0  0  0  0  0  0  0
  -24.4475  -13.9789   20.1693 C   0  0  0  0  0  0  0  0  0  0  0  0
  -26.5017  -13.9468   21.4406 C   0  0  0  0  0  0  0  0  0  0  0  0
  -18.2997  -26.6480   22.8903 C   0  0  0  0  0  0  0  0  0  0  0  0
  -20.1808  -28.6020   22.2759 C   0  0  0  0  0  0  0  0  0  0  0  0
  -28.0081  -29.7880   21.5349 C   0  0  0  0  0  0  0  0  0  0  0  0
  -24.4636  -12.5855   20.1079 C   0  0  0  0  0  0  0  0  0  0  0  0
  -26.5178  -12.5534   21.3793 C   0  0  0  0  0  0  0  0  0  0  0  0
  -29.2511  -29.2563   21.8755 C   0  0  0  0  0  0  0  0  0  0  0  0
  -23.6935   -9.9936   22.1382 C   0  0  0  0  0  0  0  0  0  0  0  0
  -22.4994   -9.3196   22.3939 C   0  0  0  0  0  0  0  0  0  0  0  0
  -28.6308  -27.1638   20.8481 C   0  0  0  0  0  0  0  0  0  0  0  0
  -31.2648  -24.2669   22.2559 C   0  0  0  0  0  0  0  0  0  0  0  0
  -22.5760   -8.3458   20.1841 C   0  0  0  0  0  0  0  0  0  0  0  0
  -25.4665  -14.6596   20.8356 C   0  0  0  0  0  0  0  0  0  0  0  0
  -24.8506  -16.8998   21.8890 C   0  0  0  0  0  0  0  0  0  0  0  0
  -19.6651  -26.3184   22.8990 C   0  0  0  0  0  0  0  0  0  0  0  0
  -27.0614  -29.0068   20.8568 C   0  0  0  0  0  0  0  0  0  0  0  0
  -20.6216  -27.2965   22.5587 C   0  0  0  0  0  0  0  0  0  0  0  0
  -27.3774  -27.6887   20.4978 C   0  0  0  0  0  0  0  0  0  0  0  0
  -30.6738  -24.8559   23.3736 C   0  0  0  0  0  0  0  0  0  0  0  0
  -29.1855  -23.1472   21.7463 C   0  0  0  0  0  0  0  0  0  0  0  0
  -25.4988  -11.8727   20.7129 C   0  0  0  0  0  0  0  0  0  0  0  0
  -29.5615  -27.9431   21.5346 C   0  0  0  0  0  0  0  0  0  0  0  0
  -24.3289   -9.8438   20.9055 C   0  0  0  0  0  0  0  0  0  0  0  0
  -21.9407   -8.4957   21.4169 C   0  0  0  0  0  0  0  0  0  0  0  0
  -23.7701   -9.0198   19.9285 C   0  0  0  0  0  0  0  0  0  0  0  0
  -30.5207  -23.4126   21.4421 C   0  0  0  0  0  0  0  0  0  0  0  0
  -29.3386  -24.5904   23.6777 C   0  0  0  0  0  0  0  0  0  0  0  0
  -28.5944  -23.7361   22.8641 C   0  0  0  0  0  0  0  0  0  0  0  0
  -25.4507  -16.0990   20.8988 C   0  0  0  0  0  0  0  0  0  0  0  0
  -25.1155  -18.1887   21.4951 C   0  0  0  0  0  0  0  0  0  0  0  0
  -24.1193  -16.5132   23.0600 C   0  0  0  0  0  0  0  0  0  0  0  0
  -24.1335  -27.9582   21.5140 C   0  0  0  0  0  0  0  0  0  0  0  0
  -24.2451  -26.9027   18.4487 C   0  0  0  0  0  0  0  0  0  0  0  0
  -26.6657  -25.3112   16.2981 C   0  0  0  0  0  0  0  0  0  0  0  0
  -28.6029  -22.0671   19.5462 C   0  0  0  0  0  0  0  0  0  0  0  0
  -20.0619  -24.9012   23.2297 C   0  0  0  0  0  0  0  0  0  0  0  0
  -25.7351  -29.6036   20.4731 C   0  0  0  0  0  0  0  0  0  0  0  0
  -26.4037  -26.8148   19.7518 C   0  0  0  0  0  0  0  0  0  0  0  0
  -21.5281  -24.7724   23.6296 C   0  0  0  0  0  0  0  0  0  0  0  0
  -26.9890  -19.9862   17.1499 C   0  0  0  0  0  0  0  0  0  0  0  0
  -33.0059  -26.1398   25.8503 C   0  0  0  0  0  0  0  0  0  0  0  0
  -22.4090  -25.4785   22.6097 C   0  0  0  0  0  0  0  0  0  0  0  0
  -26.3955  -18.8553   17.9931 C   0  0  0  0  0  0  0  0  0  0  0  0
  -32.9397  -27.3529   24.9395 C   0  0  0  0  0  0  0  0  0  0  0  0
  -31.6905  -25.4233   25.5704 C   0  0  0  0  0  0  0  0  0  0  0  0
  -28.3457  -20.4407   17.6851 C   0  0  0  0  0  0  0  0  0  0  0  0
  -27.7696  -19.6679   19.9523 C   0  0  0  0  0  0  0  0  0  0  0  0
  -22.1066  -26.9819   22.5747 C   0  0  1  0  0  0  0  0  0  0  0  0
  -24.6536  -28.5540   20.2364 C   0  0  1  0  0  0  0  0  0  0  0  0
  -26.3732  -19.2206   19.4903 C   0  0  2  0  0  0  0  0  0  0  0  0
  -32.2468  -26.8257   23.6709 C   0  0  2  0  0  0  0  0  0  0  0  0
  -26.9059  -25.3529   13.8005 C   0  0  0  0  0  0  0  0  0  0  0  0
  -22.5973  -24.3361   18.5375 C   0  0  0  0  0  0  0  0  0  0  0  0
  -24.0282  -23.4361   16.6907 C   0  0  0  0  0  0  0  0  0  0  0  0
  -22.6388  -25.4727   16.3102 C   0  0  0  0  0  0  0  0  0  0  0  0
  -29.4640  -26.2598   16.4669 C   0  0  0  0  0  0  0  0  0  0  0  0
  -31.3982  -27.9280   23.0454 C   0  0  0  0  0  0  0  0  0  1  0  0
  -24.6957  -25.6309   17.7717 C   0  0  1  0  0  0  0  0  0  0  0  0
  -27.3858  -25.9399   15.1188 C   0  0  2  0  0  0  0  0  0  0  0  0
  -23.5017  -24.7278   17.3519 C   0  0  0  0  0  0  0  0  0  0  0  0
  -26.0513  -16.8188   19.9474 N   0  0  0  0  0  0  0  0  0  0  0  0
  -25.8299  -18.0855   20.3379 N   0  0  0  0  0  0  0  0  0  0  0  0
  -31.4418  -25.6955   24.1555 N   0  0  3  0  0  0  0  0  0  0  0  0
  -25.1177  -27.4418   19.4045 N   0  0  0  0  0  0  0  0  0  0  0  0
  -28.2467  -20.7742   19.1077 N   0  0  0  0  0  0  0  0  0  0  0  0
  -24.8046  -19.3889   22.0292 N   0  0  0  0  0  0  0  0  0  0  0  0
  -23.9395  -15.1468   23.3147 N   0  0  0  0  0  0  0  0  0  0  0  0
  -28.4367  -22.2781   20.9145 N   0  0  0  0  0  0  0  0  0  0  0  0
  -22.8061  -27.5782   21.4581 N   0  0  0  0  0  0  0  0  0  0  0  0
  -25.5539  -26.0396   16.6649 N   0  0  0  0  0  0  0  0  0  0  0  0
  -28.8546  -25.7123   15.2276 N   0  3  0  0  0  0  0  0  0  0  0  0
  -23.6254  -17.3548   23.8483 O   0  0  0  0  0  0  0  0  0  0  0  0
  -24.8815  -27.8498   22.4785 O   0  0  0  0  0  0  0  0  0  0  0  0
  -23.1620  -27.4033   18.1357 O   0  0  0  0  0  0  0  0  0  0  0  0
  -27.0490  -24.2755   16.8374 O   0  0  0  0  0  0  0  0  0  0  0  0
  -28.9986  -22.9326   18.7610 O   0  0  0  0  0  0  0  0  0  0  0  0
  -25.5148  -10.5130   20.6535 O   0  0  0  0  0  0  0  0  0  0  0  0
  -30.7738  -27.4215   21.8664 O   0  0  0  0  0  0  0  0  0  1  0  0
  -20.7948   -7.8472   21.6631 F   0  0  0  0  0  0  0  0  0  0  0  0
  -24.3765   -8.8710   18.7427 F   0  0  0  0  0  0  0  0  0  0  0  0
  -31.2987  -22.7084   20.0681 Cl  0  0  0  0  0  0  0  0  0  0  0  0
  -28.6286  -25.3384   25.0770 Cl  0  0  0  0  0  0  0  0  0  0  0  0
  -26.9283  -23.3913   23.2257 Cl  0  0  0  0  0  0  0  0  0  0  0  0
  1  2  1  0  0  0  0
  1  5  2  0  0  0  0
  2  6  2  0  0  0  0
  3  8  2  0  0  0  0
  3 16  1  0  0  0  0
  4  9  1  0  0  0  0
  4 16  2  0  0  0  0
  5 18  1  0  0  0  0
  6 20  1  0  0  0  0
  7 10  2  0  0  0  0
  7 19  1  0  0  0  0
  8 24  1  0  0  0  0
  9 24  2  0  0  0  0
 10 25  1  0  0  0  0
 11 12  2  0  0  0  0
 11 26  1  0  0  0  0
 12 27  1  0  0  0  0
 13 21  1  0  0  0  0
 13 25  2  0  0  0  0
 14 22  1  0  0  0  0
 14 29  2  0  0  0  0
 15 27  2  0  0  0  0
 15 28  1  0  0  0  0
 16 32  1  0  0  0  0
 17 32  1  0  0  0  0
 17 33  2  0  0  0  0
 17 34  1  0  0  0  0
 18 20  2  0  0  0  0
 18 39  1  0  0  0  0
 19 21  2  0  0  0  0
 19 40  1  0  0  0  0
 20 51  1  0  0  0  0
 21 41  1  0  0  0  0
 22 30  2  0  0  0  0
 22 66  1  0  0  0  0
 23 29  1  0  0  0  0
 23 31  2  0  0  0  0
 23 71  1  0  0  0  0
 24 80  1  0  0  0  0
 25 81  1  0  0  0  0
 26 28  2  0  0  0  0
 26 80  1  0  0  0  0
 27 82  1  0  0  0  0
 28 83  1  0  0  0  0
 29 84  1  0  0  0  0
 30 31  1  0  0  0  0
 30 85  1  0  0  0  0
 31 86  1  0  0  0  0
 32 64  2  0  0  0  0
 33 65  1  0  0  0  0
 33 69  1  0  0  0  0
 34 70  1  0  0  0  0
 34 75  2  0  0  0  0
 35 52  1  0  0  0  0
 35 72  1  0  0  0  0
 35 76  2  0  0  0  0
 36 61  1  0  0  0  0
 36 67  1  0  0  0  0
 36 77  2  0  0  0  0
 37 62  1  0  0  0  0
 37 73  1  0  0  0  0
 37 78  2  0  0  0  0
 38 68  1  0  0  0  0
 38 71  1  0  0  0  0
 38 79  2  0  0  0  0
 39 42  1  0  0  0  0
 40 52  1  0  0  0  0
 41 67  1  0  0  0  0
 42 45  1  0  0  0  0
 43 46  1  0  0  0  0
 43 49  1  0  0  0  0
 44 47  1  0  0  0  0
 44 48  1  0  0  0  0
 45 51  1  0  0  0  0
 46 53  1  0  0  0  0
 47 54  1  0  0  0  0
 48 66  1  0  0  0  0
 49 68  1  0  0  0  0
 50 53  1  0  0  0  0
 50 68  1  0  0  0  0
 51 72  1  0  0  0  0
 52 67  1  0  0  0  0
 53 65  1  0  0  0  0
 54 60  1  0  0  0  0
 54 66  1  0  0  0  0
 55 62  1  0  0  0  0
 56 63  1  0  0  0  0
 57 63  1  0  0  0  0
 58 63  1  0  0  0  0
 59 74  1  0  0  0  0
 60 81  1  0  0  0  0
 61 63  1  0  0  0  0
 61 73  1  0  0  0  0
 62 74  1  0  0  0  0
 64 65  1  0  0  0  0
M  CHG  1  74   1
M  ISO  4  38 100  60 101  71 100  81 101
M  END
> <Batch ID>
0025

> <Smiles>
CNC(C)C(=O)NC(C(=O)N1Cc2cc([101O:1][101CH2:1]C3CCCN3c3cc(Cl)c([100NH:0][100C:0](=O)N4CCCC(n5nc(-c6ccc(Oc7ccc(F)cc7F)cc6)c(C(N)=O)c5N)C4)c(Cl)c3Cl)ccc2CC1C(=O)NC1CCCc2ccccc21)C(C)(C)C

> <Shape>
0.216

> <Color>
0.097

> <Negative vol penalty>
0.000

$$$$

  -OEChem-04042321223D

 83 92  0     1  0  0  0  0  0999 V2000
  -21.6470  -17.1089   16.3277 C   0  0  0  0  0  0  0  0  0  0  0  0
  -22.3585  -16.9016   17.5051 C   0  0  0  0  0  0  0  0  0  0  0  0
  -23.1998   -9.8509   19.9535 C   0  0  0  0  0  0  0  0  0  0  0  0
  -23.9113   -9.9307   22.2610 C   0  0  0  0  0  0  0  0  0  0  0  0
  -21.3318  -18.4057   15.9242 C   0  0  0  0  0  0  0  0  0  0  0  0
  -22.7561  -17.9912   18.2792 C   0  0  0  0  0  0  0  0  0  0  0  0
  -23.1433  -18.2224   24.3868 C   0  0  0  0  0  0  0  0  0  0  0  0
  -32.0630  -17.8842   22.7659 C   0  0  0  0  0  0  0  0  0  0  0  0
  -31.7217  -16.6736   22.1631 C   0  0  0  0  0  0  0  0  0  0  0  0
  -22.5078   -8.6668   20.2078 C   0  0  0  0  0  0  0  0  0  0  0  0
  -23.2191   -8.7466   22.5153 C   0  0  0  0  0  0  0  0  0  0  0  0
  -24.2180  -18.0860   25.2643 C   0  0  0  0  0  0  0  0  0  0  0  0
  -20.0217   -7.8018   23.0671 C   0  0  0  0  0  0  0  0  0  0  0  0
  -19.2437   -7.7433   24.2233 C   0  0  0  0  0  0  0  0  0  0  0  0
  -24.4528  -20.4857   25.3402 C   0  0  0  0  0  0  0  0  0  0  0  0
  -30.2502  -16.1681   24.0115 C   0  0  0  0  0  0  0  0  0  0  0  0
  -20.5621   -5.8804   25.0161 C   0  0  0  0  0  0  0  0  0  0  0  0
  -23.9017  -10.4828   20.9801 C   0  0  0  0  0  0  0  0  0  0  0  0
  -24.1231  -13.0194   20.8250 C   0  0  0  0  0  0  0  0  0  0  0  0
  -21.7173  -19.5112   16.6987 C   0  0  0  0  0  0  0  0  0  0  0  0
  -22.7215  -19.4932   23.9701 C   0  0  0  0  0  0  0  0  0  0  0  0
  -22.4469  -19.3041   17.8850 C   0  0  0  0  0  0  0  0  0  0  0  0
  -23.3709  -20.6356   24.4593 C   0  0  0  0  0  0  0  0  0  0  0  0
  -31.4980  -18.2368   23.9916 C   0  0  0  0  0  0  0  0  0  0  0  0
  -30.5916  -17.3788   24.6143 C   0  0  0  0  0  0  0  0  0  0  0  0
  -30.8153  -15.8155   22.7858 C   0  0  0  0  0  0  0  0  0  0  0  0
  -22.5173   -8.1147   21.4887 C   0  0  0  0  0  0  0  0  0  0  0  0
  -24.8748  -19.2176   25.7389 C   0  0  0  0  0  0  0  0  0  0  0  0
  -21.0699   -6.8996   22.8853 C   0  0  0  0  0  0  0  0  0  0  0  0
  -19.5139   -6.7826   25.1978 C   0  0  0  0  0  0  0  0  0  0  0  0
  -21.3401   -5.9389   23.8599 C   0  0  0  0  0  0  0  0  0  0  0  0
  -24.6173  -11.7056   20.7178 C   0  0  0  0  0  0  0  0  0  0  0  0
  -25.1849  -13.8155   20.4710 C   0  0  0  0  0  0  0  0  0  0  0  0
  -22.8208  -13.4791   21.2101 C   0  0  0  0  0  0  0  0  0  0  0  0
  -22.5370  -20.9897   21.1718 C   0  0  0  0  0  0  0  0  0  0  0  0
  -21.0676  -23.2816   22.9355 C   0  0  0  0  0  0  0  0  0  0  0  0
  -20.5855  -24.7210   25.9920 C   0  0  0  0  0  0  0  0  0  0  0  0
  -30.9338  -14.0860   20.9580 C   0  0  0  0  0  0  0  0  0  0  0  0
  -21.3947  -20.8967   16.1975 C   0  0  0  0  0  0  0  0  0  0  0  0
  -21.5435  -19.6244   23.0440 C   0  0  0  0  0  0  0  0  0  0  0  0
  -22.9440  -22.0232   24.0585 C   0  0  0  0  0  0  0  0  0  0  0  0
  -21.5275  -21.9776   17.2671 C   0  0  0  0  0  0  0  0  0  0  0  0
  -29.3627  -13.1183   17.9130 C   0  0  0  0  0  0  0  0  0  0  0  0
  -22.8331  -21.8087   18.0376 C   0  0  0  0  0  0  0  0  0  0  0  0
  -27.9302  -12.7835   18.3346 C   0  0  0  0  0  0  0  0  0  0  0  0
  -30.3790  -12.6976   18.9732 C   0  0  0  0  0  0  0  0  0  0  0  0
  -28.6781  -12.8683   20.7471 C   0  0  0  0  0  0  0  0  0  0  0  0
  -27.9483  -18.8367   25.0987 C   0  0  0  0  0  0  0  0  0  0  0  0
  -28.3951  -19.1964   27.1071 C   0  0  0  0  0  0  0  0  0  0  0  0
  -22.8742  -20.4591   18.7644 C   0  0  1  0  0  0  0  0  0  0  0  0
  -21.5263  -20.9464   22.2828 C   0  0  1  0  0  0  0  0  0  0  0  0
  -27.6134  -13.3322   19.7396 C   0  0  2  0  0  0  0  0  0  0  0  0
  -27.2104  -19.6010   26.2123 C   0  0  0  0  0  0  0  0  0  1  0  0
  -31.8795  -19.5378   24.6180 C   0  0  0  0  0  0  0  0  0  0  0  0
  -19.3578  -26.6011   27.1125 C   0  0  0  0  0  0  0  0  0  0  0  0
  -23.0830  -25.2712   21.7997 C   0  0  0  0  0  0  0  0  0  0  0  0
  -22.4373  -26.8600   23.6237 C   0  0  0  0  0  0  0  0  0  0  0  0
  -20.7391  -26.1305   21.9485 C   0  0  0  0  0  0  0  0  0  0  0  0
  -19.0780  -22.8568   27.7273 C   0  0  0  0  0  0  0  0  0  0  0  0
  -29.9697  -17.7379   25.9316 C   0  0  0  0  0  0  0  0  0  0  0  0
  -21.5268  -24.4947   23.7079 C   0  0  1  0  0  0  0  0  0  0  0  0
  -19.3204  -25.1313   26.7240 C   0  0  2  0  0  0  0  0  0  0  0  0
  -21.9561  -25.6630   22.7762 C   0  0  0  0  0  0  0  0  0  0  0  0
  -25.8936  -11.6650   20.3263 N   0  0  0  0  0  0  0  0  0  0  0  0
  -26.2104  -12.9633   20.1842 N   0  0  0  0  0  0  0  0  0  0  0  0
  -21.7911  -22.0992   23.1461 N   0  0  0  0  0  0  0  0  0  0  0  0
  -30.0168  -13.2577   20.2770 N   0  0  0  0  0  0  0  0  0  0  0  0
  -25.3320  -15.1543   20.3800 N   0  0  0  0  0  0  0  0  0  0  0  0
  -21.8474  -12.5270   21.5423 N   0  0  0  0  0  0  0  0  0  0  0  0
  -30.4667  -14.5865   22.1729 N   0  0  0  0  0  0  0  0  0  0  0  0
  -22.0677  -20.5070   19.9651 N   0  0  0  0  0  0  0  0  0  0  0  0
  -20.4425  -24.8292   24.6249 N   0  0  0  0  0  0  0  0  0  0  0  0
  -29.1885  -18.9930   25.8808 N   0  3  0  0  0  0  0  0  0  0  0  0
  -19.1536  -24.3215   27.9639 N   0  3  0  0  0  0  0  0  0  0  0  0
  -22.5241  -14.6975   21.2423 O   0  0  0  0  0  0  0  0  0  0  0  0
  -23.6591  -21.4299   21.3927 O   0  0  0  0  0  0  0  0  0  0  0  0
  -20.0983  -23.3778   22.1787 O   0  0  0  0  0  0  0  0  0  0  0  0
  -21.6004  -24.3459   26.5750 O   0  0  0  0  0  0  0  0  0  0  0  0
  -32.0409  -14.3550   20.4847 O   0  0  0  0  0  0  0  0  0  0  0  0
  -21.8419   -6.9595   21.7372 O   0  0  0  0  0  0  0  0  0  0  0  0
  -25.9245  -19.0873   26.5951 O   0  0  0  0  0  0  0  0  0  1  0  0
  -18.7677   -6.7275   26.3088 F   0  0  0  0  0  0  0  0  0  0  0  0
  -22.3465   -5.0703   23.6914 F   0  0  0  0  0  0  0  0  0  0  0  0
  1  2  1  0  0  0  0
  1  5  2  0  0  0  0
  2  6  2  0  0  0  0
  3 10  2  0  0  0  0
  3 18  1  0  0  0  0
  4 11  1  0  0  0  0
  4 18  2  0  0  0  0
  5 20  1  0  0  0  0
  6 22  1  0  0  0  0
  7 12  2  0  0  0  0
  7 21  1  0  0  0  0
  8  9  2  0  0  0  0
  8 24  1  0  0  0  0
  9 26  1  0  0  0  0
 10 27  1  0  0  0  0
 11 27  2  0  0  0  0
 12 28  1  0  0  0  0
 13 14  2  0  0  0  0
 13 29  1  0  0  0  0
 14 30  1  0  0  0  0
 15 23  1  0  0  0  0
 15 28  2  0  0  0  0
 16 25  1  0  0  0  0
 16 26  2  0  0  0  0
 17 30  2  0  0  0  0
 17 31  1  0  0  0  0
 18 32  1  0  0  0  0
 19 32  1  0  0  0  0
 19 33  2  0  0  0  0
 19 34  1  0  0  0  0
 20 22  2  0  0  0  0
 20 39  1  0  0  0  0
 21 23  2  0  0  0  0
 21 40  1  0  0  0  0
 22 50  1  0  0  0  0
 23 41  1  0  0  0  0
 24 25  2  0  0  0  0
 24 54  1  0  0  0  0
 25 60  1  0  0  0  0
 26 70  1  0  0  0  0
 27 80  1  0  0  0  0
 28 81  1  0  0  0  0
 29 31  2  0  0  0  0
 29 80  1  0  0  0  0
 30 82  1  0  0  0  0
 31 83  1  0  0  0  0
 32 64  2  0  0  0  0
 33 65  1  0  0  0  0
 33 68  1  0  0  0  0
 34 69  1  0  0  0  0
 34 75  2  0  0  0  0
 35 51  1  0  0  0  0
 35 71  1  0  0  0  0
 35 76  2  0  0  0  0
 36 61  1  0  0  0  0
 36 66  1  0  0  0  0
 36 77  2  0  0  0  0
 37 62  1  0  0  0  0
 37 72  1  0  0  0  0
 37 78  2  0  0  0  0
 38 67  1  0  0  0  0
 38 70  1  0  0  0  0
 38 79  2  0  0  0  0
 39 42  1  0  0  0  0
 40 51  1  0  0  0  0
 41 66  1  0  0  0  0
 42 44  1  0  0  0  0
 43 45  1  0  0  0  0
 43 46  1  0  0  0  0
 44 50  1  0  0  0  0
 45 52  1  0  0  0  0
 46 67  1  0  0  0  0
 47 52  1  0  0  0  0
 47 67  1  0  0  0  0
 48 53  1  0  0  0  0
 48 73  1  0  0  0  0
 49 53  1  0  0  0  0
 49 73  1  0  0  0  0
 50 71  1  0  0  0  0
 51 66  1  0  0  0  0
 52 65  1  0  0  0  0
 53 81  1  0  0  0  0
 55 62  1  0  0  0  0
 56 63  1  0  0  0  0
 57 63  1  0  0  0  0
 58 63  1  0  0  0  0
 59 74  1  0  0  0  0
 60 73  1  0  0  0  0
 61 63  1  0  0  0  0
 61 72  1  0  0  0  0
 62 74  1  0  0  0  0
 64 65  1  0  0  0  0
M  CHG  2  73   1  74   1
M  ISO  4  38 100  53 101  70 100  81 101
M  END
> <Batch ID>
0025

> <Smiles>
CNC(C)C(=O)NC(C(=O)N1Cc2cc([101O:1][101CH:1]3CN(Cc4cc([100NH:0][100C:0](=O)N5CCCC(n6nc(-c7ccc(Oc8ccc(F)cc8F)cc7)c(C(N)=O)c6N)C5)ccc4C)C3)ccc2CC1C(=O)NC1CCCc2ccccc21)C(C)(C)C

> <Shape>
0.177

> <Color>
0.182

> <Negative vol penalty>
0.000

$$$$

  -OEChem-04042321223D

 90 99  0     1  0  0  0  0  0999 V2000
  -29.7622  -31.2230   21.5629 C   0  0  0  0  0  0  0  0  0  0  0  0
  -29.3207  -30.0022   22.0630 C   0  0  0  0  0  0  0  0  0  0  0  0
  -28.8629  -20.7958   20.3644 C   0  0  0  0  0  0  0  0  0  0  0  0
  -30.3920  -19.6940   18.8528 C   0  0  0  0  0  0  0  0  0  0  0  0
  -28.8824  -32.3015   21.4830 C   0  0  0  0  0  0  0  0  0  0  0  0
  -27.9992  -29.8596   22.4846 C   0  0  0  0  0  0  0  0  0  0  0  0
  -25.8876  -25.5615   20.8377 C   0  0  0  0  0  0  0  0  0  0  0  0
  -28.8564  -21.9199   19.5386 C   0  0  0  0  0  0  0  0  0  0  0  0
  -30.3855  -20.8181   18.0269 C   0  0  0  0  0  0  0  0  0  0  0  0
  -26.2219  -24.3884   21.5127 C   0  0  0  0  0  0  0  0  0  0  0  0
  -30.8626  -24.5695   18.9230 C   0  0  0  0  0  0  0  0  0  0  0  0
  -30.9840  -25.8195   19.5300 C   0  0  0  0  0  0  0  0  0  0  0  0
  -24.1452  -24.5065   22.7343 C   0  0  0  0  0  0  0  0  0  0  0  0
  -21.1506  -13.3695   20.4390 C   0  0  0  0  0  0  0  0  0  0  0  0
  -23.3877  -12.5204   20.1050 C   0  0  0  0  0  0  0  0  0  0  0  0
  -28.8418  -26.4690   18.6211 C   0  0  0  0  0  0  0  0  0  0  0  0
  -29.6308  -19.6829   20.0216 C   0  0  0  0  0  0  0  0  0  0  0  0
  -30.0403  -18.4595   22.2223 C   0  0  0  0  0  0  0  0  0  0  0  0
  -27.5469  -32.1694   21.8948 C   0  0  0  0  0  0  0  0  0  0  0  0
  -24.6824  -26.2230   21.1142 C   0  0  0  0  0  0  0  0  0  0  0  0
  -27.1010  -30.9378   22.4115 C   0  0  0  0  0  0  0  0  0  0  0  0
  -23.7967  -25.6865   22.0595 C   0  0  0  0  0  0  0  0  0  0  0  0
  -21.6688  -14.4602   21.1371 C   0  0  0  0  0  0  0  0  0  0  0  0
  -23.0464  -14.5810   21.3192 C   0  0  0  0  0  0  0  0  0  0  0  0
  -23.9059  -13.6111   20.8031 C   0  0  0  0  0  0  0  0  0  0  0  0
  -29.6177  -21.9310   18.3698 C   0  0  0  0  0  0  0  0  0  0  0  0
  -25.3520  -23.8623   22.4632 C   0  0  0  0  0  0  0  0  0  0  0  0
  -29.7308  -24.2693   18.1649 C   0  0  0  0  0  0  0  0  0  0  0  0
  -29.9737  -26.7692   19.3791 C   0  0  0  0  0  0  0  0  0  0  0  0
  -28.7204  -25.2190   18.0140 C   0  0  0  0  0  0  0  0  0  0  0  0
  -22.0100  -12.3995   19.9229 C   0  0  0  0  0  0  0  0  0  0  0  0
  -29.6384  -18.5217   20.8746 C   0  0  0  0  0  0  0  0  0  0  0  0
  -29.8594  -17.1442   22.5742 C   0  0  0  0  0  0  0  0  0  0  0  0
  -30.5331  -19.4978   23.0795 C   0  0  0  0  0  0  0  0  0  0  0  0
  -23.9057  -29.0896   22.2469 C   0  0  0  0  0  0  0  0  0  0  0  0
  -20.8910  -28.1197   21.5447 C   0  0  0  0  0  0  0  0  0  0  0  0
  -18.7245  -25.5323   21.0364 C   0  0  0  0  0  0  0  0  0  0  0  0
  -26.2815  -12.8231   20.5170 C   0  0  0  0  0  0  0  0  0  0  0  0
  -26.6454  -33.3769   21.8336 C   0  0  0  0  0  0  0  0  0  0  0  0
  -24.3242  -27.4730   20.3581 C   0  0  0  0  0  0  0  0  0  0  0  0
  -22.4813  -26.3473   22.3784 C   0  0  0  0  0  0  0  0  0  0  0  0
  -25.1620  -33.0363   21.9517 C   0  0  0  0  0  0  0  0  0  0  0  0
  -29.8361  -12.7361   20.7027 C   0  0  0  0  0  0  0  0  0  0  0  0
  -24.9286  -32.0579   23.0984 C   0  0  0  0  0  0  0  0  0  0  0  0
  -30.2250  -14.2035   20.8966 C   0  0  0  0  0  0  0  0  0  0  0  0
  -28.6385  -12.5858   19.7663 C   0  0  0  0  0  0  0  0  0  0  0  0
  -23.9202  -16.9046   21.3158 C   0  0  0  0  0  0  0  0  0  0  0  0
  -27.8504  -14.8522   20.3245 C   0  0  0  0  0  0  0  0  0  0  0  0
  -23.8079  -15.6073   23.4586 C   0  0  0  0  0  0  0  0  0  0  0  0
  -25.0178  -17.6352   22.0751 C   0  0  0  0  0  0  0  0  0  0  0  0
  -25.6684  -30.7368   22.8556 C   0  0  1  0  0  0  0  0  0  0  0  0
  -23.3060  -28.3425   21.0893 C   0  0  1  0  0  0  0  0  0  0  0  0
  -29.0112  -15.0582   21.3112 C   0  0  2  0  0  0  0  0  0  0  0  0
  -23.6077  -16.9878   24.0977 C   0  0  1  0  0  0  0  0  0  0  0  0
  -20.7232  -15.4833   21.6779 C   0  0  0  0  0  0  0  0  0  0  0  0
  -23.8714  -16.9399   25.6004 C   0  0  0  0  0  0  0  0  0  0  0  0
  -16.3168  -25.0521   20.5166 C   0  0  0  0  0  0  0  0  0  0  0  0
  -20.1372  -28.7958   24.4231 C   0  0  0  0  0  0  0  0  0  0  0  0
  -18.0537  -27.4406   24.1222 C   0  0  0  0  0  0  0  0  0  0  0  0
  -18.4372  -29.4643   22.7150 C   0  0  0  0  0  0  0  0  0  0  0  0
  -19.4243  -24.1477   18.5160 C   0  0  0  0  0  0  0  0  0  0  0  0
  -23.9712  -19.4070   23.4989 C   0  0  0  0  0  0  0  0  0  0  0  0
  -24.5979  -21.8840   23.5466 C   0  0  0  0  0  0  0  0  0  1  0  0
  -19.8050  -27.3810   22.2890 C   0  0  1  0  0  0  0  0  0  0  0  0
  -17.7071  -25.2708   19.9404 C   0  0  2  0  0  0  0  0  0  0  0  0
  -25.0826  -20.4424   23.5702 C   0  0  1  0  0  0  0  0  0  0  0  0
  -19.1339  -28.2588   23.3829 C   0  0  0  0  0  0  0  0  0  0  0  0
  -29.2328  -17.3399   20.4024 N   0  0  0  0  0  0  0  0  0  0  0  0
  -29.3791  -16.5227   21.4592 N   0  0  0  0  0  0  0  0  0  0  0  0
  -23.5593  -15.6711   22.0164 N   0  0  3  0  0  0  0  0  0  0  0  0
  -22.1791  -27.5707   21.6171 N   0  0  0  0  0  0  0  0  0  0  0  0
  -27.5257  -13.4207   20.2240 N   0  0  0  0  0  0  0  0  0  0  0  0
  -30.0659  -16.4702   23.7255 N   0  0  0  0  0  0  0  0  0  0  0  0
  -29.6106  -20.2351   23.8342 N   0  0  0  0  0  0  0  0  0  0  0  0
  -25.3088  -13.7113   20.9748 N   0  0  0  0  0  0  0  0  0  0  0  0
  -24.9502  -29.9241   21.8974 N   0  0  0  0  0  0  0  0  0  0  0  0
  -18.8827  -26.8811   21.2751 N   0  0  0  0  0  0  0  0  0  0  0  0
  -24.5443  -18.0112   23.4622 N   0  3  2  0  0  0  0  0  0  0  0  0
  -18.0876  -24.0605   19.1585 N   0  3  0  0  0  0  0  0  0  0  0  0
  -31.7538  -19.7747   23.1609 O   0  0  0  0  0  0  0  0  0  0  0  0
  -23.4532  -28.9226   23.3734 O   0  0  0  0  0  0  0  0  0  0  0  0
  -20.6055  -29.1420   20.9162 O   0  0  0  0  0  0  0  0  0  0  0  0
  -19.3165  -24.6301   21.6246 O   0  0  0  0  0  0  0  0  0  0  0  0
  -26.1010  -11.6085   20.3983 O   0  0  0  0  0  0  0  0  0  0  0  0
  -29.6113  -23.0276   17.5636 O   0  0  0  0  0  0  0  0  0  0  0  0
  -25.6762  -22.7177   23.1241 O   0  0  0  0  0  0  0  0  0  1  0  0
  -30.0897  -27.9689   19.9633 F   0  0  0  0  0  0  0  0  0  0  0  0
  -27.6302  -24.9359   17.2880 F   0  0  0  0  0  0  0  0  0  0  0  0
  -25.7739  -20.2465   24.7310 F   0  0  0  0  0  0  0  0  0  0  0  0
  -21.3702  -11.0530   19.0628 Cl  0  0  0  0  0  0  0  0  0  0  0  0
  1  2  1  0  0  0  0
  1  5  2  0  0  0  0
  2  6  2  0  0  0  0
  3  8  2  0  0  0  0
  3 17  1  0  0  0  0
  4  9  1  0  0  0  0
  4 17  2  0  0  0  0
  5 19  1  0  0  0  0
  6 21  1  0  0  0  0
  7 10  2  0  0  0  0
  7 20  1  0  0  0  0
  8 26  1  0  0  0  0
  9 26  2  0  0  0  0
 10 27  1  0  0  0  0
 11 12  2  0  0  0  0
 11 28  1  0  0  0  0
 12 29  1  0  0  0  0
 13 22  1  0  0  0  0
 13 27  2  0  0  0  0
 14 23  2  0  0  0  0
 14 31  1  0  0  0  0
 15 25  1  0  0  0  0
 15 31  2  0  0  0  0
 16 29  2  0  0  0  0
 16 30  1  0  0  0  0
 17 32  1  0  0  0  0
 18 32  1  0  0  0  0
 18 33  2  0  0  0  0
 18 34  1  0  0  0  0
 19 21  2  0  0  0  0
 19 39  1  0  0  0  0
 20 22  2  0  0  0  0
 20 40  1  0  0  0  0
 21 51  1  0  0  0  0
 22 41  1  0  0  0  0
 23 24  1  0  0  0  0
 23 55  1  0  0  0  0
 24 25  2  0  0  0  0
 24 70  1  0  0  0  0
 25 75  1  0  0  0  0
 26 85  1  0  0  0  0
 27 86  1  0  0  0  0
 28 30  2  0  0  0  0
 28 85  1  0  0  0  0
 29 87  1  0  0  0  0
 30 88  1  0  0  0  0
 31 90  1  0  0  0  0
 32 68  2  0  0  0  0
 33 69  1  0  0  0  0
 33 73  1  0  0  0  0
 34 74  1  0  0  0  0
 34 80  2  0  0  0  0
 35 52  1  0  0  0  0
 35 76  1  0  0  0  0
 35 81  2  0  0  0  0
 36 64  1  0  0  0  0
 36 71  1  0  0  0  0
 36 82  2  0  0  0  0
 37 65  1  0  0  0  0
 37 77  1  0  0  0  0
 37 83  2  0  0  0  0
 38 72  1  0  0  0  0
 38 75  1  0  0  0  0
 38 84  2  0  0  0  0
 39 42  1  0  0  0  0
 40 52  1  0  0  0  0
 41 71  1  0  0  0  0
 42 44  1  0  0  0  0
 43 45  1  0  0  0  0
 43 46  1  0  0  0  0
 44 51  1  0  0  0  0
 45 53  1  0  0  0  0
 46 72  1  0  0  0  0
 47 50  1  0  0  0  0
 47 70  1  0  0  0  0
 48 53  1  0  0  0  0
 48 72  1  0  0  0  0
 49 54  1  0  0  0  0
 49 70  1  0  0  0  0
 50 78  1  0  0  0  0
 51 76  1  0  0  0  0
 52 71  1  0  0  0  0
 53 69  1  0  0  0  0
 54 56  1  0  0  0  0
 54 78  1  0  0  0  0
 57 65  1  0  0  0  0
 58 67  1  0  0  0  0
 59 67  1  0  0  0  0
 60 67  1  0  0  0  0
 61 79  1  0  0  0  0
 62 66  1  0  0  0  0
 62 78  1  0  0  0  0
 63 66  1  0  0  0  0
 63 86  1  0  0  0  0
 64 67  1  0  0  0  0
 64 77  1  0  0  0  0
 65 79  1  0  0  0  0
 66 89  1  0  0  0  0
 68 69  1  0  0  0  0
M  CHG  2  78   1  79   1
M  ISO  4  38 100  63 101  75 100  86 101
M  END
> <Batch ID>
0025

> <Smiles>
CNC(C)C(=O)NC(C(=O)N1Cc2cc([101O:1][101CH2:1]C(F)CN3CCN(c4c(C)cc(Cl)cc4[100NH:0][100C:0](=O)N4CCCC(n5nc(-c6ccc(Oc7ccc(F)cc7F)cc6)c(C(N)=O)c5N)C4)CC3C)ccc2CC1C(=O)NC1CCCc2ccccc21)C(C)(C)C

> <Shape>
0.284

> <Color>
0.045

> <Negative vol penalty>
0.000

$$$$

  -OEChem-04042321223D

 85 94  0     1  0  0  0  0  0999 V2000
  -30.9148  -34.4824   19.3309 C   0  0  0  0  0  0  0  0  0  0  0  0
  -30.6429  -33.1374   19.5601 C   0  0  0  0  0  0  0  0  0  0  0  0
  -23.5253   -9.4469   19.8015 C   0  0  0  0  0  0  0  0  0  0  0  0
  -24.9699   -8.4456   21.4591 C   0  0  0  0  0  0  0  0  0  0  0  0
  -30.2360  -35.4626   20.0536 C   0  0  0  0  0  0  0  0  0  0  0  0
  -29.6926  -32.7718   20.5129 C   0  0  0  0  0  0  0  0  0  0  0  0
  -26.5794  -29.1373   18.8568 C   0  0  0  0  0  0  0  0  0  0  0  0
  -27.0366  -18.3219   18.9441 C   0  0  0  0  0  0  0  0  0  0  0  0
  -27.4282  -16.9865   18.8506 C   0  0  0  0  0  0  0  0  0  0  0  0
  -22.4097   -9.0950   20.5612 C   0  0  0  0  0  0  0  0  0  0  0  0
  -23.8543   -8.0938   22.2189 C   0  0  0  0  0  0  0  0  0  0  0  0
  -27.0689  -27.8319   18.8546 C   0  0  0  0  0  0  0  0  0  0  0  0
  -21.4763   -5.6906   22.1879 C   0  0  0  0  0  0  0  0  0  0  0  0
  -21.4335   -4.4009   22.7175 C   0  0  0  0  0  0  0  0  0  0  0  0
  -25.8884  -27.3923   20.9119 C   0  0  0  0  0  0  0  0  0  0  0  0
  -29.3751  -17.4630   20.1997 C   0  0  0  0  0  0  0  0  0  0  0  0
  -21.3255   -5.3207   24.9489 C   0  0  0  0  0  0  0  0  0  0  0  0
  -24.8055   -9.1221   20.2505 C   0  0  0  0  0  0  0  0  0  0  0  0
  -26.2518   -9.0814   18.1495 C   0  0  0  0  0  0  0  0  0  0  0  0
  -29.2700  -35.1091   21.0089 C   0  0  0  0  0  0  0  0  0  0  0  0
  -25.7481  -29.5841   19.8940 C   0  0  0  0  0  0  0  0  0  0  0  0
  -29.0012  -33.7482   21.2500 C   0  0  0  0  0  0  0  0  0  0  0  0
  -25.3876  -28.7031   20.9235 C   0  0  0  0  0  0  0  0  0  0  0  0
  -27.8143  -19.2280   19.6653 C   0  0  0  0  0  0  0  0  0  0  0  0
  -28.5974  -16.5570   19.4784 C   0  0  0  0  0  0  0  0  0  0  0  0
  -22.5741   -8.4185   21.7699 C   0  0  0  0  0  0  0  0  0  0  0  0
  -26.7258  -26.9600   19.8838 C   0  0  0  0  0  0  0  0  0  0  0  0
  -21.4439   -6.7954   23.0389 C   0  0  0  0  0  0  0  0  0  0  0  0
  -21.3580   -4.2159   24.0979 C   0  0  0  0  0  0  0  0  0  0  0  0
  -28.9835  -18.7985   20.2931 C   0  0  0  0  0  0  0  0  0  0  0  0
  -21.3684   -6.6104   24.4193 C   0  0  0  0  0  0  0  0  0  0  0  0
  -25.9583   -9.4849   19.4659 C   0  0  0  0  0  0  0  0  0  0  0  0
  -27.4481   -9.6919   17.8620 C   0  0  0  0  0  0  0  0  0  0  0  0
  -25.5094   -8.2310   17.2656 C   0  0  0  0  0  0  0  0  0  0  0  0
  -25.9539  -31.8469   22.1169 C   0  0  0  0  0  0  0  0  0  0  0  0
  -22.8966  -30.9630   22.7444 C   0  0  0  0  0  0  0  0  0  0  0  0
  -21.0444  -27.8761   22.9848 C   0  0  0  0  0  0  0  0  0  0  0  0
  -30.1261  -14.6101   19.9464 C   0  0  0  0  0  0  0  0  0  0  0  0
  -28.5961  -36.2029   21.7989 C   0  0  0  0  0  0  0  0  0  0  0  0
  -25.2068  -30.9872   19.8677 C   0  0  0  0  0  0  0  0  0  0  0  0
  -24.4819  -29.1275   22.0496 C   0  0  0  0  0  0  0  0  0  0  0  0
  -27.3348  -35.7416   22.5246 C   0  0  0  0  0  0  0  0  0  0  0  0
  -31.4348  -11.2989   19.9734 C   0  0  0  0  0  0  0  0  0  0  0  0
  -27.5874  -34.4226   23.2480 C   0  0  0  0  0  0  0  0  0  0  0  0
  -30.2067  -10.4216   19.7204 C   0  0  0  0  0  0  0  0  0  0  0  0
  -28.0933  -22.9369   19.8909 C   0  0  0  0  0  0  0  0  0  0  0  0
  -25.7364  -22.2562   20.3853 C   0  0  0  0  0  0  0  0  0  0  0  0
  -31.0987  -12.5074   20.8453 C   0  0  0  0  0  0  0  0  0  0  0  0
  -28.3431  -21.5825   19.2307 C   0  0  0  0  0  0  0  0  0  0  0  0
  -25.9912  -20.9001   19.7288 C   0  0  0  0  0  0  0  0  0  0  0  0
  -28.7464  -12.4460   20.1158 C   0  0  0  0  0  0  0  0  0  0  0  0
  -27.9596  -33.3126   22.2576 C   0  0  1  0  0  0  0  0  0  0  0  0
  -24.7837  -31.4903   21.2444 C   0  0  1  0  0  0  0  0  0  0  0  0
  -26.6234  -23.3525   19.7903 C   0  0  0  0  0  0  0  0  0  0  0  0
  -29.0215  -11.2511   19.1885 C   0  0  2  0  0  0  0  0  0  0  0  0
  -18.6074  -27.4029   22.6177 C   0  0  0  0  0  0  0  0  0  0  0  0
  -22.6607  -31.3701   25.7591 C   0  0  0  0  0  0  0  0  0  0  0  0
  -20.9977  -29.4992   25.8114 C   0  0  0  0  0  0  0  0  0  0  0  0
  -20.5044  -31.5681   24.5079 C   0  0  0  0  0  0  0  0  0  0  0  0
  -21.6343  -25.7785   20.9821 C   0  0  0  0  0  0  0  0  0  0  0  0
  -26.3858  -24.6866   20.4938 C   0  0  0  0  0  0  0  0  0  1  0  0
  -22.2417  -29.9455   23.6470 C   0  0  1  0  0  0  0  0  0  0  0  0
  -20.0004  -27.3644   22.0087 C   0  0  2  0  0  0  0  0  0  0  0  0
  -21.6272  -30.5916   24.9207 C   0  0  0  0  0  0  0  0  0  0  0  0
  -26.8929  -10.2892   19.9792 N   0  0  0  0  0  0  0  0  0  0  0  0
  -27.7855  -10.3961   18.9802 N   0  0  0  0  0  0  0  0  0  0  0  0
  -27.4192  -20.5688   19.7560 N   0  0  0  0  0  0  0  0  0  0  0  0
  -23.9834  -30.5111   21.9826 N   0  0  0  0  0  0  0  0  0  0  0  0
  -29.9697  -13.2475   20.2773 N   0  0  0  0  0  0  0  0  0  0  0  0
  -28.2340   -9.6895   16.7643 N   0  0  0  0  0  0  0  0  0  0  0  0
  -25.7686   -6.8538   17.2892 N   0  0  0  0  0  0  0  0  0  0  0  0
  -28.9950  -15.2003   19.3835 N   0  0  0  0  0  0  0  0  0  0  0  0
  -26.7776  -32.8197   21.5834 N   0  0  0  0  0  0  0  0  0  0  0  0
  -21.2804  -29.2246   22.8196 N   0  0  0  0  0  0  0  0  0  0  0  0
  -20.3031  -25.9589   21.6163 N   0  3  0  0  0  0  0  0  0  0  0  0
  -24.6536   -8.6810   16.4665 O   0  0  0  0  0  0  0  0  0  0  0  0
  -26.0979  -31.2823   23.1949 O   0  0  0  0  0  0  0  0  0  0  0  0
  -22.4554  -32.1145   22.7110 O   0  0  0  0  0  0  0  0  0  0  0  0
  -21.5927  -27.1529   23.8135 O   0  0  0  0  0  0  0  0  0  0  0  0
  -31.1941  -15.2022   20.1223 O   0  0  0  0  0  0  0  0  0  0  0  0
  -21.4857   -8.0751   22.5115 O   0  0  0  0  0  0  0  0  0  0  0  0
  -27.2027  -25.6855   19.8844 O   0  0  0  0  0  0  0  0  0  1  0  0
  -21.3152   -2.9774   24.6063 F   0  0  0  0  0  0  0  0  0  0  0  0
  -29.7388  -19.6614   20.9874 F   0  0  0  0  0  0  0  0  0  0  0  0
  -21.3357   -7.6679   25.2418 F   0  0  0  0  0  0  0  0  0  0  0  0
  1  2  1  0  0  0  0
  1  5  2  0  0  0  0
  2  6  2  0  0  0  0
  3 10  2  0  0  0  0
  3 18  1  0  0  0  0
  4 11  1  0  0  0  0
  4 18  2  0  0  0  0
  5 20  1  0  0  0  0
  6 22  1  0  0  0  0
  7 12  2  0  0  0  0
  7 21  1  0  0  0  0
  8  9  2  0  0  0  0
  8 24  1  0  0  0  0
  9 25  1  0  0  0  0
 10 26  1  0  0  0  0
 11 26  2  0  0  0  0
 12 27  1  0  0  0  0
 13 14  2  0  0  0  0
 13 28  1  0  0  0  0
 14 29  1  0  0  0  0
 15 23  1  0  0  0  0
 15 27  2  0  0  0  0
 16 25  2  0  0  0  0
 16 30  1  0  0  0  0
 17 29  2  0  0  0  0
 17 31  1  0  0  0  0
 18 32  1  0  0  0  0
 19 32  1  0  0  0  0
 19 33  2  0  0  0  0
 19 34  1  0  0  0  0
 20 22  2  0  0  0  0
 20 39  1  0  0  0  0
 21 23  2  0  0  0  0
 21 40  1  0  0  0  0
 22 52  1  0  0  0  0
 23 41  1  0  0  0  0
 24 30  2  0  0  0  0
 24 67  1  0  0  0  0
 25 72  1  0  0  0  0
 26 81  1  0  0  0  0
 27 82  1  0  0  0  0
 28 31  2  0  0  0  0
 28 81  1  0  0  0  0
 29 83  1  0  0  0  0
 30 84  1  0  0  0  0
 31 85  1  0  0  0  0
 32 65  2  0  0  0  0
 33 66  1  0  0  0  0
 33 70  1  0  0  0  0
 34 71  1  0  0  0  0
 34 76  2  0  0  0  0
 35 53  1  0  0  0  0
 35 73  1  0  0  0  0
 35 77  2  0  0  0  0
 36 62  1  0  0  0  0
 36 68  1  0  0  0  0
 36 78  2  0  0  0  0
 37 63  1  0  0  0  0
 37 74  1  0  0  0  0
 37 79  2  0  0  0  0
 38 69  1  0  0  0  0
 38 72  1  0  0  0  0
 38 80  2  0  0  0  0
 39 42  1  0  0  0  0
 40 53  1  0  0  0  0
 41 68  1  0  0  0  0
 42 44  1  0  0  0  0
 43 45  1  0  0  0  0
 43 48  1  0  0  0  0
 44 52  1  0  0  0  0
 45 55  1  0  0  0  0
 46 49  1  0  0  0  0
 46 54  1  0  0  0  0
 47 50  1  0  0  0  0
 47 54  1  0  0  0  0
 48 69  1  0  0  0  0
 49 67  1  0  0  0  0
 50 67  1  0  0  0  0
 51 55  1  0  0  0  0
 51 69  1  0  0  0  0
 52 73  1  0  0  0  0
 53 68  1  0  0  0  0
 54 61  1  0  0  0  0
 55 66  1  0  0  0  0
 56 63  1  0  0  0  0
 57 64  1  0  0  0  0
 58 64  1  0  0  0  0
 59 64  1  0  0  0  0
 60 75  1  0  0  0  0
 61 82  1  0  0  0  0
 62 64  1  0  0  0  0
 62 74  1  0  0  0  0
 63 75  1  0  0  0  0
 65 66  1  0  0  0  0
M  CHG  1  75   1
M  ISO  4  38 100  61 101  72 100  82 101
M  END
> <Batch ID>
0025

> <Smiles>
CNC(C)C(=O)NC(C(=O)N1Cc2cc([101O:1][101CH2:1]C3CCN(c4ccc([100NH:0][100C:0](=O)N5CCCC(n6nc(-c7ccc(Oc8ccc(F)cc8F)cc7)c(C(N)=O)c6N)C5)cc4F)CC3)ccc2CC1C(=O)NC1CCCc2ccccc21)C(C)(C)C

> <Shape>
0.288

> <Color>
0.102

> <Negative vol penalty>
0.000

$$$$

  -OEChem-04042321223D

 86 95  0     1  0  0  0  0  0999 V2000
  -33.0204  -24.8769   19.0746 C   0  0  0  0  0  0  0  0  0  0  0  0
  -31.6815  -24.7510   19.4308 C   0  0  0  0  0  0  0  0  0  0  0  0
  -22.9896  -10.0287   20.0560 C   0  0  0  0  0  0  0  0  0  0  0  0
  -24.4427   -9.4028   21.8818 C   0  0  0  0  0  0  0  0  0  0  0  0
  -33.8024  -25.8777   19.6497 C   0  0  0  0  0  0  0  0  0  0  0  0
  -31.1241  -25.6252   20.3633 C   0  0  0  0  0  0  0  0  0  0  0  0
  -26.5820  -27.3505   18.9359 C   0  0  0  0  0  0  0  0  0  0  0  0
  -24.9926  -20.5525   21.7069 C   0  0  0  0  0  0  0  0  0  0  0  0
  -25.8056  -19.4217   21.6292 C   0  0  0  0  0  0  0  0  0  0  0  0
  -21.9570   -9.2807   20.6214 C   0  0  0  0  0  0  0  0  0  0  0  0
  -23.4101   -8.6548   22.4473 C   0  0  0  0  0  0  0  0  0  0  0  0
  -25.4949  -26.4933   19.1004 C   0  0  0  0  0  0  0  0  0  0  0  0
  -21.9698   -5.6340   21.9664 C   0  0  0  0  0  0  0  0  0  0  0  0
  -22.2772   -4.3579   22.4383 C   0  0  0  0  0  0  0  0  0  0  0  0
  -24.8904  -27.6581   21.1246 C   0  0  0  0  0  0  0  0  0  0  0  0
  -24.3204  -18.4674   19.9798 C   0  0  0  0  0  0  0  0  0  0  0  0
  -21.5751   -5.0092   24.6565 C   0  0  0  0  0  0  0  0  0  0  0  0
  -24.2325  -10.0897   20.6862 C   0  0  0  0  0  0  0  0  0  0  0  0
  -25.8839  -10.6818   18.8341 C   0  0  0  0  0  0  0  0  0  0  0  0
  -33.2519  -26.7707   20.5825 C   0  0  0  0  0  0  0  0  0  0  0  0
  -26.8383  -28.3627   19.8720 C   0  0  0  0  0  0  0  0  0  0  0  0
  -31.8999  -26.6380   20.9525 C   0  0  0  0  0  0  0  0  0  0  0  0
  -25.9800  -28.5284   20.9683 C   0  0  0  0  0  0  0  0  0  0  0  0
  -23.8435  -20.6407   20.9212 C   0  0  0  0  0  0  0  0  0  0  0  0
  -25.4695  -18.3792   20.7656 C   0  0  0  0  0  0  0  0  0  0  0  0
  -22.1672   -8.5937   21.8170 C   0  0  0  0  0  0  0  0  0  0  0  0
  -24.6505  -26.6452   20.1964 C   0  0  0  0  0  0  0  0  0  0  0  0
  -21.4651   -6.5977   22.8395 C   0  0  0  0  0  0  0  0  0  0  0  0
  -22.0798   -4.0455   23.7834 C   0  0  0  0  0  0  0  0  0  0  0  0
  -23.5074  -19.5982   20.0576 C   0  0  0  0  0  0  0  0  0  0  0  0
  -21.2677   -6.2853   24.1845 C   0  0  0  0  0  0  0  0  0  0  0  0
  -25.2998  -10.8618   20.1023 C   0  0  0  0  0  0  0  0  0  0  0  0
  -26.8441  -11.6608   18.7563 C   0  0  0  0  0  0  0  0  0  0  0  0
  -23.5538  -23.0727   21.3202 C   0  0  0  0  0  0  0  0  0  0  0  0
  -25.5851   -9.7161   17.8173 C   0  0  0  0  0  0  0  0  0  0  0  0
  -29.2352  -29.0361   21.8481 C   0  0  0  0  0  0  0  0  0  0  0  0
  -27.5117  -31.7288   22.3966 C   0  0  0  0  0  0  0  0  0  0  0  0
  -24.0372  -32.5820   22.8630 C   0  0  0  0  0  0  0  0  0  0  0  0
  -27.4698  -16.9842   21.3973 C   0  0  0  0  0  0  0  0  0  0  0  0
  -34.1487  -27.8067   21.2126 C   0  0  0  0  0  0  0  0  0  0  0  0
  -27.9997  -29.2960   19.6659 C   0  0  0  0  0  0  0  0  0  0  0  0
  -26.1998  -29.6122   21.9908 C   0  0  0  0  0  0  0  0  0  0  0  0
  -33.3857  -28.9283   21.9126 C   0  0  0  0  0  0  0  0  0  0  0  0
  -20.6542  -22.7309   21.0642 C   0  0  0  0  0  0  0  0  0  0  0  0
  -29.7673  -14.2666   21.5128 C   0  0  0  0  0  0  0  0  0  0  0  0
  -32.2746  -28.3539   22.7858 C   0  0  0  0  0  0  0  0  0  0  0  0
  -21.2659  -24.1102   20.9462 C   0  0  0  0  0  0  0  0  0  0  0  0
  -28.9372  -13.0699   21.0430 C   0  0  0  0  0  0  0  0  0  0  0  0
  -21.6170  -21.6903   20.5191 C   0  0  0  0  0  0  0  0  0  0  0  0
  -28.9419  -15.2306   22.3632 C   0  0  0  0  0  0  0  0  0  0  0  0
  -26.8589  -14.4886   21.2770 C   0  0  0  0  0  0  0  0  0  0  0  0
  -31.2526  -27.5827   21.9418 C   0  0  1  0  0  0  0  0  0  0  0  0
  -22.5521  -24.1464   21.7578 C   0  0  2  0  0  0  0  0  0  0  0  0
  -28.4636  -29.9664   20.9554 C   0  0  1  0  0  0  0  0  0  0  0  0
  -27.6303  -13.5227   20.3629 C   0  0  2  0  0  0  0  0  0  0  0  0
  -22.8088  -34.7239   22.4147 C   0  0  0  0  0  0  0  0  0  0  0  0
  -28.0813  -32.3319   25.3329 C   0  0  0  0  0  0  0  0  0  0  0  0
  -25.8016  -33.3545   25.4930 C   0  0  0  0  0  0  0  0  0  0  0  0
  -27.5002  -34.3333   23.9505 C   0  0  0  0  0  0  0  0  0  0  0  0
  -22.0599  -31.2211   21.1318 C   0  0  0  0  0  0  0  0  0  0  0  0
  -23.1722  -25.5428   21.6981 C   0  0  0  0  0  0  0  0  0  1  0  0
  -26.4227  -32.1223   23.3653 C   0  0  1  0  0  0  0  0  0  0  0  0
  -23.1485  -33.3370   21.8911 C   0  0  2  0  0  0  0  0  0  0  0  0
  -26.9547  -33.0086   24.5268 C   0  0  0  0  0  0  0  0  0  0  0  0
  -25.8436  -11.8753   20.7813 N   0  0  0  0  0  0  0  0  0  0  0  0
  -26.7795  -12.3410   19.9367 N   0  0  0  0  0  0  0  0  0  0  0  0
  -23.0019  -21.8151   21.0040 N   0  0  0  0  0  0  0  0  0  0  0  0
  -27.3524  -30.4956   21.7488 N   0  0  0  0  0  0  0  0  0  0  0  0
  -27.7215  -15.6197   21.6532 N   0  0  0  0  0  0  0  0  0  0  0  0
  -27.7289  -11.9976   17.7939 N   0  0  0  0  0  0  0  0  0  0  0  0
  -24.5687   -8.7823   18.0608 N   0  0  0  0  0  0  0  0  0  0  0  0
  -26.2955  -17.2306   20.6868 N   0  0  0  0  0  0  0  0  0  0  0  0
  -30.3650  -28.5001   21.2599 N   0  0  0  0  0  0  0  0  0  0  0  0
  -25.3738  -32.7486   22.5679 N   0  0  0  0  0  0  0  0  0  0  0  0
  -21.8759  -32.5940   21.6686 N   0  3  0  0  0  0  0  0  0  0  0  0
  -24.7614  -23.3257   21.3296 O   0  0  0  0  0  0  0  0  0  0  0  0
  -26.2123   -9.6719   16.7319 O   0  0  0  0  0  0  0  0  0  0  0  0
  -28.8360  -28.8216   22.9866 O   0  0  0  0  0  0  0  0  0  0  0  0
  -28.4647  -32.4908   22.2160 O   0  0  0  0  0  0  0  0  0  0  0  0
  -23.5906  -31.9146   23.7934 O   0  0  0  0  0  0  0  0  0  0  0  0
  -28.2531  -17.8670   21.7565 O   0  0  0  0  0  0  0  0  0  0  0  0
  -21.1597   -7.8639   22.3692 O   0  0  0  0  0  0  0  0  0  0  0  0
  -23.5890  -25.8094   20.3597 O   0  0  0  0  0  0  0  0  0  1  0  0
  -22.3736   -2.8196   24.2361 F   0  0  0  0  0  0  0  0  0  0  0  0
  -22.4048  -19.6718   19.2981 F   0  0  0  0  0  0  0  0  0  0  0  0
  -20.7820   -7.2066   25.0278 F   0  0  0  0  0  0  0  0  0  0  0  0
  1  2  1  0  0  0  0
  1  5  2  0  0  0  0
  2  6  2  0  0  0  0
  3 10  2  0  0  0  0
  3 18  1  0  0  0  0
  4 11  1  0  0  0  0
  4 18  2  0  0  0  0
  5 20  1  0  0  0  0
  6 22  1  0  0  0  0
  7 12  2  0  0  0  0
  7 21  1  0  0  0  0
  8  9  2  0  0  0  0
  8 24  1  0  0  0  0
  9 25  1  0  0  0  0
 10 26  1  0  0  0  0
 11 26  2  0  0  0  0
 12 27  1  0  0  0  0
 13 14  2  0  0  0  0
 13 28  1  0  0  0  0
 14 29  1  0  0  0  0
 15 23  1  0  0  0  0
 15 27  2  0  0  0  0
 16 25  2  0  0  0  0
 16 30  1  0  0  0  0
 17 29  2  0  0  0  0
 17 31  1  0  0  0  0
 18 32  1  0  0  0  0
 19 32  1  0  0  0  0
 19 33  2  0  0  0  0
 19 35  1  0  0  0  0
 20 22  2  0  0  0  0
 20 40  1  0  0  0  0
 21 23  2  0  0  0  0
 21 41  1  0  0  0  0
 22 52  1  0  0  0  0
 23 42  1  0  0  0  0
 24 30  2  0  0  0  0
 24 67  1  0  0  0  0
 25 72  1  0  0  0  0
 26 82  1  0  0  0  0
 27 83  1  0  0  0  0
 28 31  2  0  0  0  0
 28 82  1  0  0  0  0
 29 84  1  0  0  0  0
 30 85  1  0  0  0  0
 31 86  1  0  0  0  0
 32 65  2  0  0  0  0
 33 66  1  0  0  0  0
 33 70  1  0  0  0  0
 34 53  1  0  0  0  0
 34 67  1  0  0  0  0
 34 76  2  0  0  0  0
 35 71  1  0  0  0  0
 35 77  2  0  0  0  0
 36 54  1  0  0  0  0
 36 73  1  0  0  0  0
 36 78  2  0  0  0  0
 37 62  1  0  0  0  0
 37 68  1  0  0  0  0
 37 79  2  0  0  0  0
 38 63  1  0  0  0  0
 38 74  1  0  0  0  0
 38 80  2  0  0  0  0
 39 69  1  0  0  0  0
 39 72  1  0  0  0  0
 39 81  2  0  0  0  0
 40 43  1  0  0  0  0
 41 54  1  0  0  0  0
 42 68  1  0  0  0  0
 43 46  1  0  0  0  0
 44 47  1  0  0  0  0
 44 49  1  0  0  0  0
 45 48  1  0  0  0  0
 45 50  1  0  0  0  0
 46 52  1  0  0  0  0
 47 53  1  0  0  0  0
 48 55  1  0  0  0  0
 49 67  1  0  0  0  0
 50 69  1  0  0  0  0
 51 55  1  0  0  0  0
 51 69  1  0  0  0  0
 52 73  1  0  0  0  0
 53 61  1  0  0  0  0
 54 68  1  0  0  0  0
 55 66  1  0  0  0  0
 56 63  1  0  0  0  0
 57 64  1  0  0  0  0
 58 64  1  0  0  0  0
 59 64  1  0  0  0  0
 60 75  1  0  0  0  0
 61 83  1  0  0  0  0
 62 64  1  0  0  0  0
 62 74  1  0  0  0  0
 63 75  1  0  0  0  0
 65 66  1  0  0  0  0
M  CHG  1  75   1
M  ISO  4  39 100  61 101  72 100  83 101
M  END
> <Batch ID>
0025

> <Smiles>
CNC(C)C(=O)NC(C(=O)N1Cc2cc([101O:1][101CH2:1]C3CCCN(c4ccc([100NH:0][100C:0](=O)N5CCCC(n6nc(-c7ccc(Oc8ccc(F)cc8F)cc7)c(C(N)=O)c6N)C5)cc4F)C3=O)ccc2CC1C(=O)NC1CCCc2ccccc21)C(C)(C)C

> <Shape>
0.247

> <Color>
0.088

> <Negative vol penalty>
0.000

$$$$

  -OEChem-04042321223D

 90100  0     1  0  0  0  0  0999 V2000
  -22.1259  -31.9664   14.4646 C   0  0  0  0  0  0  0  0  0  0  0  0
  -23.2652  -31.3756   15.0015 C   0  0  0  0  0  0  0  0  0  0  0  0
  -34.7213  -22.6077   18.9036 C   0  0  0  0  0  0  0  0  0  0  0  0
  -24.0435  -13.2924   20.4783 C   0  0  0  0  0  0  0  0  0  0  0  0
  -26.1945  -12.7141   21.4143 C   0  0  0  0  0  0  0  0  0  0  0  0
  -21.4786  -32.9877   15.1587 C   0  0  0  0  0  0  0  0  0  0  0  0
  -23.7585  -31.8065   16.2326 C   0  0  0  0  0  0  0  0  0  0  0  0
  -33.3892  -22.8580   19.2327 C   0  0  0  0  0  0  0  0  0  0  0  0
  -25.0330  -27.9595   19.2692 C   0  0  0  0  0  0  0  0  0  0  0  0
  -23.9347  -12.0114   19.9371 C   0  0  0  0  0  0  0  0  0  0  0  0
  -26.0856  -11.4331   20.8731 C   0  0  0  0  0  0  0  0  0  0  0  0
  -26.2465  -27.3221   19.0142 C   0  0  0  0  0  0  0  0  0  0  0  0
  -23.1332   -8.9099   21.0193 C   0  0  0  0  0  0  0  0  0  0  0  0
  -35.1306  -22.6518   17.5708 C   0  0  0  0  0  0  0  0  0  0  0  0
  -21.9139   -8.2475   21.1616 C   0  0  0  0  0  0  0  0  0  0  0  0
  -27.2760  -28.5833   20.7943 C   0  0  0  0  0  0  0  0  0  0  0  0
  -32.8754  -23.1962   16.8963 C   0  0  0  0  0  0  0  0  0  0  0  0
  -21.7056   -8.1145   18.7583 C   0  0  0  0  0  0  0  0  0  0  0  0
  -25.1735  -13.6437   21.2169 C   0  0  0  0  0  0  0  0  0  0  0  0
  -24.8501  -15.3944   23.0440 C   0  0  0  0  0  0  0  0  0  0  0  0
  -32.4662  -23.1522   18.2291 C   0  0  0  0  0  0  0  0  0  0  0  0
  -21.9586  -33.4248   16.4034 C   0  0  0  0  0  0  0  0  0  0  0  0
  -24.9345  -28.9231   20.2832 C   0  0  0  0  0  0  0  0  0  0  0  0
  -23.1177  -32.8356   16.9434 C   0  0  0  0  0  0  0  0  0  0  0  0
  -26.0596  -29.2296   21.0618 C   0  0  0  0  0  0  0  0  0  0  0  0
  -24.9557  -11.0818   20.1345 C   0  0  0  0  0  0  0  0  0  0  0  0
  -27.3689  -27.6361   19.7749 C   0  0  0  0  0  0  0  0  0  0  0  0
  -23.6386   -9.1747   19.7464 C   0  0  0  0  0  0  0  0  0  0  0  0
  -34.2076  -22.9460   16.5672 C   0  0  0  0  0  0  0  0  0  0  0  0
  -21.2002   -7.8498   20.0312 C   0  0  0  0  0  0  0  0  0  0  0  0
  -22.9248   -8.7770   18.6159 C   0  0  0  0  0  0  0  0  0  0  0  0
  -25.2868  -14.9670   21.7757 C   0  0  0  0  0  0  0  0  0  0  0  0
  -25.1875  -16.7249   23.0928 C   0  0  0  0  0  0  0  0  0  0  0  0
  -24.1979  -14.6549   24.0848 C   0  0  0  0  0  0  0  0  0  0  0  0
  -24.2248  -32.0203   20.3730 C   0  0  0  0  0  0  0  0  0  0  0  0
  -24.3752  -31.5632   23.5809 C   0  0  0  0  0  0  0  0  0  0  0  0
  -25.5807  -29.7262   26.1923 C   0  0  0  0  0  0  0  0  0  0  0  0
  -29.2967  -19.9187   20.5700 C   0  0  0  0  0  0  0  0  0  0  0  0
  -21.2524  -34.5643   17.0943 C   0  0  0  0  0  0  0  0  0  0  0  0
  -23.6117  -29.5822   20.5633 C   0  0  0  0  0  0  0  0  0  0  0  0
  -26.0014  -30.2421   22.1753 C   0  0  0  0  0  0  0  0  0  0  0  0
  -21.6230  -34.7064   18.5683 C   0  0  0  0  0  0  0  0  0  0  0  0
  -25.8512  -20.5336   20.2865 C   0  0  0  0  0  0  0  0  0  0  0  0
  -32.9985  -27.1105   19.9379 C   0  0  0  0  0  0  0  0  0  0  0  0
  -23.1351  -34.6199   18.7493 C   0  0  0  0  0  0  0  0  0  0  0  0
  -25.2649  -19.2052   20.7637 C   0  0  0  0  0  0  0  0  0  0  0  0
  -32.1653  -28.0309   19.0644 C   0  0  0  0  0  0  0  0  0  0  0  0
  -30.6695  -23.3484   20.1166 C   0  0  0  0  0  0  0  0  0  0  0  0
  -30.0087  -22.4442   17.8950 C   0  0  0  0  0  0  0  0  0  0  0  0
  -27.0851  -20.3313   19.4054 C   0  0  0  0  0  0  0  0  0  0  0  0
  -30.7240  -21.9249   20.6766 C   0  0  0  0  0  0  0  0  0  0  0  0
  -30.1087  -21.0271   18.4564 C   0  0  0  0  0  0  0  0  0  0  0  0
  -27.5490  -18.1641   20.5037 C   0  0  0  0  0  0  0  0  0  0  0  0
  -32.6590  -25.7384   19.4005 C   0  0  0  0  0  0  0  0  0  0  0  0
  -23.6691  -33.2586   18.2877 C   0  0  1  0  0  0  0  0  0  0  0  0
  -23.7514  -30.9210   21.2814 C   0  0  1  0  0  0  0  0  0  0  0  0
  -26.3414  -18.3365   21.4383 C   0  0  2  0  0  0  0  0  0  0  0  0
  -30.8448  -27.2894   18.8571 C   0  0  2  0  0  0  0  0  0  0  0  0
  -30.9921  -23.4291   18.5948 C   0  0  0  0  0  0  0  0  0  0  0  0
  -25.5626  -29.6186   28.6994 C   0  0  0  0  0  0  0  0  0  0  0  0
  -26.3561  -33.8813   23.6923 C   0  0  0  0  0  0  0  0  0  0  0  0
  -27.0084  -33.1223   25.9873 C   0  0  0  0  0  0  0  0  0  0  0  0
  -24.6686  -33.8615   25.5380 C   0  0  0  0  0  0  0  0  0  0  0  0
  -24.3055  -27.0555   26.1842 C   0  0  0  0  0  0  0  0  0  0  0  0
  -29.7444  -27.7474   19.8036 C   0  0  0  0  0  0  0  0  0  1  0  0
  -30.6744  -24.8658   18.1208 C   0  0  0  0  0  0  0  0  0  0  0  0
  -25.4652  -31.6436   24.6223 C   0  0  1  0  0  0  0  0  0  0  0  0
  -24.8960  -29.1461   27.4167 C   0  0  2  0  0  0  0  0  0  0  0  0
  -25.8765  -33.1094   24.9378 C   0  0  0  0  0  0  0  0  0  0  0  0
  -25.8579  -15.9466   21.0698 N   0  0  0  0  0  0  0  0  0  0  0  0
  -25.7823  -17.0028   21.8973 N   0  0  0  0  0  0  0  0  0  0  0  0
  -24.6871  -30.8640   22.4063 N   0  0  0  0  0  0  0  0  0  0  0  0
  -28.0654  -19.4651   20.0737 N   0  0  0  0  0  0  0  0  0  0  0  0
  -29.8849  -21.0091   19.9070 N   0  0  0  0  0  0  0  0  0  0  0  0
  -25.0304  -17.6726   24.0413 N   0  0  0  0  0  0  0  0  0  0  0  0
  -23.9256  -13.2970   23.8697 N   0  0  0  0  0  0  0  0  0  0  0  0
  -23.4017  -32.2458   19.2863 N   0  0  0  0  0  0  0  0  0  0  0  0
  -24.9811  -30.8968   25.7784 N   0  0  0  0  0  0  0  0  0  0  0  0
  -31.1713  -25.8277   19.1530 N   0  3  1  0  0  0  0  0  0  0  0  0
  -24.9465  -27.6571   27.3817 N   0  3  0  0  0  0  0  0  0  0  0  0
  -23.8517  -15.1866   25.1669 O   0  0  0  0  0  0  0  0  0  0  0  0
  -25.2595  -32.6205   20.6392 O   0  0  0  0  0  0  0  0  0  0  0  0
  -23.2848  -32.0948   23.8045 O   0  0  0  0  0  0  0  0  0  0  0  0
  -26.5527  -29.1960   25.6588 O   0  0  0  0  0  0  0  0  0  0  0  0
  -29.8379  -19.3875   21.5477 O   0  0  0  0  0  0  0  0  0  0  0  0
  -24.8496   -9.8317   19.6067 O   0  0  0  0  0  0  0  0  0  0  0  0
  -28.5644  -27.0108   19.5257 O   0  0  0  0  0  0  0  0  0  1  0  0
  -34.6003  -22.9879   15.2873 F   0  0  0  0  0  0  0  0  0  0  0  0
  -20.0301   -7.2123   20.1680 F   0  0  0  0  0  0  0  0  0  0  0  0
  -23.4059   -9.0275   17.3905 F   0  0  0  0  0  0  0  0  0  0  0  0
  1  2  1  0  0  0  0
  1  6  2  0  0  0  0
  2  7  2  0  0  0  0
  3  8  2  0  0  0  0
  3 14  1  0  0  0  0
  4 10  2  0  0  0  0
  4 19  1  0  0  0  0
  5 11  1  0  0  0  0
  5 19  2  0  0  0  0
  6 22  1  0  0  0  0
  7 24  1  0  0  0  0
  8 21  1  0  0  0  0
  9 12  2  0  0  0  0
  9 23  1  0  0  0  0
 10 26  1  0  0  0  0
 11 26  2  0  0  0  0
 12 27  1  0  0  0  0
 13 15  2  0  0  0  0
 13 28  1  0  0  0  0
 14 29  2  0  0  0  0
 15 30  1  0  0  0  0
 16 25  1  0  0  0  0
 16 27  2  0  0  0  0
 17 21  2  0  0  0  0
 17 29  1  0  0  0  0
 18 30  2  0  0  0  0
 18 31  1  0  0  0  0
 19 32  1  0  0  0  0
 20 32  1  0  0  0  0
 20 33  2  0  0  0  0
 20 34  1  0  0  0  0
 21 59  1  0  0  0  0
 22 24  2  0  0  0  0
 22 39  1  0  0  0  0
 23 25  2  0  0  0  0
 23 40  1  0  0  0  0
 24 55  1  0  0  0  0
 25 41  1  0  0  0  0
 26 86  1  0  0  0  0
 27 87  1  0  0  0  0
 28 31  2  0  0  0  0
 28 86  1  0  0  0  0
 29 88  1  0  0  0  0
 30 89  1  0  0  0  0
 31 90  1  0  0  0  0
 32 70  2  0  0  0  0
 33 71  1  0  0  0  0
 33 75  1  0  0  0  0
 34 76  1  0  0  0  0
 34 81  2  0  0  0  0
 35 56  1  0  0  0  0
 35 77  1  0  0  0  0
 35 82  2  0  0  0  0
 36 67  1  0  0  0  0
 36 72  1  0  0  0  0
 36 83  2  0  0  0  0
 37 68  1  0  0  0  0
 37 78  1  0  0  0  0
 37 84  2  0  0  0  0
 38 73  1  0  0  0  0
 38 74  1  0  0  0  0
 38 85  2  0  0  0  0
 39 42  1  0  0  0  0
 40 56  1  0  0  0  0
 41 72  1  0  0  0  0
 42 45  1  0  0  0  0
 43 46  1  0  0  0  0
 43 50  1  0  0  0  0
 44 47  1  0  0  0  0
 44 54  1  0  0  0  0
 45 55  1  0  0  0  0
 46 57  1  0  0  0  0
 47 58  1  0  0  0  0
 48 51  1  0  0  0  0
 48 59  1  0  0  0  0
 49 52  1  0  0  0  0
 49 59  1  0  0  0  0
 50 73  1  0  0  0  0
 51 74  1  0  0  0  0
 52 74  1  0  0  0  0
 53 57  1  0  0  0  0
 53 73  1  0  0  0  0
 54 79  1  0  0  0  0
 55 77  1  0  0  0  0
 56 72  1  0  0  0  0
 57 71  1  0  0  0  0
 58 65  1  0  0  0  0
 58 79  1  0  0  0  0
 59 66  1  0  0  0  0
 60 68  1  0  0  0  0
 61 69  1  0  0  0  0
 62 69  1  0  0  0  0
 63 69  1  0  0  0  0
 64 80  1  0  0  0  0
 65 87  1  0  0  0  0
 66 79  1  0  0  0  0
 67 69  1  0  0  0  0
 67 78  1  0  0  0  0
 68 80  1  0  0  0  0
 70 71  1  0  0  0  0
M  CHG  2  79   1  80   1
M  ISO  4  38 100  65 101  74 100  87 101
M  END
> <Batch ID>
0025

> <Smiles>
CNC(C)C(=O)NC(C(=O)N1Cc2cc([101O:1][101CH2:1]C3CCCN3CC3(c4cccc(F)c4)CC[100N:0]([100C:0](=O)N4CCCC(n5nc(-c6ccc(Oc7ccc(F)cc7F)cc6)c(C(N)=O)c5N)C4)CC3)ccc2CC1C(=O)NC1CCCc2ccccc21)C(C)(C)C

> <Shape>
0.252

> <Color>
0.092

> <Negative vol penalty>
0.000

$$$$

  -OEChem-04042321223D

 83 92  0     1  0  0  0  0  0999 V2000
  -28.0419  -36.9565   22.9053 C   0  0  0  0  0  0  0  0  0  0  0  0
  -28.4645  -35.7505   22.3553 C   0  0  0  0  0  0  0  0  0  0  0  0
  -23.8757   -9.6169   20.3692 C   0  0  0  0  0  0  0  0  0  0  0  0
  -23.3895  -11.0691   22.2378 C   0  0  0  0  0  0  0  0  0  0  0  0
  -27.0392  -36.9661   23.8740 C   0  0  0  0  0  0  0  0  0  0  0  0
  -27.8854  -34.5533   22.7745 C   0  0  0  0  0  0  0  0  0  0  0  0
  -26.8155  -29.5859   19.3560 C   0  0  0  0  0  0  0  0  0  0  0  0
  -23.2632   -8.5552   21.0350 C   0  0  0  0  0  0  0  0  0  0  0  0
  -22.7770  -10.0074   22.9036 C   0  0  0  0  0  0  0  0  0  0  0  0
  -27.5146  -28.3907   19.1936 C   0  0  0  0  0  0  0  0  0  0  0  0
  -19.8106   -8.3909   22.8118 C   0  0  0  0  0  0  0  0  0  0  0  0
  -18.5852   -8.6367   23.4309 C   0  0  0  0  0  0  0  0  0  0  0  0
  -26.0928  -27.3428   20.8367 C   0  0  0  0  0  0  0  0  0  0  0  0
  -27.0837  -21.1494   20.3164 C   0  0  0  0  0  0  0  0  0  0  0  0
  -29.4201  -19.7183   20.8414 C   0  0  0  0  0  0  0  0  0  0  0  0
  -19.5378   -8.0160   25.5627 C   0  0  0  0  0  0  0  0  0  0  0  0
  -23.9389  -10.8739   20.9706 C   0  0  0  0  0  0  0  0  0  0  0  0
  -23.9632  -12.8916   19.4099 C   0  0  0  0  0  0  0  0  0  0  0  0
  -26.4407  -35.7693   24.2983 C   0  0  0  0  0  0  0  0  0  0  0  0
  -25.7550  -29.6718   20.2695 C   0  0  0  0  0  0  0  0  0  0  0  0
  -26.8746  -34.5469   23.7508 C   0  0  0  0  0  0  0  0  0  0  0  0
  -25.3802  -28.5396   21.0069 C   0  0  0  0  0  0  0  0  0  0  0  0
  -28.1935  -21.7997   20.8559 C   0  0  0  0  0  0  0  0  0  0  0  0
  -28.3103  -19.0680   20.3019 C   0  0  0  0  0  0  0  0  0  0  0  0
  -22.7138   -8.7504   22.3021 C   0  0  0  0  0  0  0  0  0  0  0  0
  -27.1552  -27.2697   19.9361 C   0  0  0  0  0  0  0  0  0  0  0  0
  -20.8997   -7.9576   23.5680 C   0  0  0  0  0  0  0  0  0  0  0  0
  -18.4487   -8.4493   24.8064 C   0  0  0  0  0  0  0  0  0  0  0  0
  -27.1421  -19.7835   20.0395 C   0  0  0  0  0  0  0  0  0  0  0  0
  -20.7633   -7.7701   24.9435 C   0  0  0  0  0  0  0  0  0  0  0  0
  -29.3617  -21.0841   21.1184 C   0  0  0  0  0  0  0  0  0  0  0  0
  -24.5720  -11.9708   20.2837 C   0  0  0  0  0  0  0  0  0  0  0  0
  -24.9834  -13.7275   19.0268 C   0  0  0  0  0  0  0  0  0  0  0  0
  -22.5975  -12.9831   18.9829 C   0  0  0  0  0  0  0  0  0  0  0  0
  -25.1864  -31.3740   22.8930 C   0  0  0  0  0  0  0  0  0  0  0  0
  -22.2643  -29.9797   22.6940 C   0  0  0  0  0  0  0  0  0  0  0  0
  -20.3670  -27.3767   21.5666 C   0  0  0  0  0  0  0  0  0  0  0  0
  -29.4532  -16.8243   20.2243 C   0  0  0  0  0  0  0  0  0  0  0  0
  -25.3936  -35.8257   25.3823 C   0  0  0  0  0  0  0  0  0  0  0  0
  -24.9937  -30.9610   20.4134 C   0  0  0  0  0  0  0  0  0  0  0  0
  -24.2361  -28.5739   21.9859 C   0  0  0  0  0  0  0  0  0  0  0  0
  -24.5695  -34.5462   25.5003 C   0  0  0  0  0  0  0  0  0  0  0  0
  -29.9855  -13.3431   19.6995 C   0  0  0  0  0  0  0  0  0  0  0  0
  -25.4790  -33.3218   25.4819 C   0  0  0  0  0  0  0  0  0  0  0  0
  -28.5745  -12.7515   19.7328 C   0  0  0  0  0  0  0  0  0  0  0  0
  -30.1452  -14.4857   20.7009 C   0  0  0  0  0  0  0  0  0  0  0  0
  -27.7287  -14.9589   20.6268 C   0  0  0  0  0  0  0  0  0  0  0  0
  -26.9798  -24.0031   20.9041 C   0  0  0  0  0  0  0  0  0  0  0  0
  -29.0770  -24.1553   20.8262 C   0  0  0  0  0  0  0  0  0  0  0  0
  -26.2534  -33.2295   24.1616 C   0  0  1  0  0  0  0  0  0  0  0  0
  -24.2615  -31.0768   21.7468 C   0  0  1  0  0  0  0  0  0  0  0  0
  -27.5004  -13.8475   19.5893 C   0  0  2  0  0  0  0  0  0  0  0  0
  -27.9486  -25.1940   20.9008 C   0  0  0  0  0  0  0  0  0  1  0  0
  -18.0178  -26.4947   21.5934 C   0  0  0  0  0  0  0  0  0  0  0  0
  -22.6454  -29.0596   25.5781 C   0  0  0  0  0  0  0  0  0  0  0  0
  -20.7729  -27.4338   25.2334 C   0  0  0  0  0  0  0  0  0  0  0  0
  -20.3461  -29.8840   25.0413 C   0  0  0  0  0  0  0  0  0  0  0  0
  -20.1552  -27.5220   18.6182 C   0  0  0  0  0  0  0  0  0  0  0  0
  -21.6491  -28.7065   23.2225 C   0  0  1  0  0  0  0  0  0  0  0  0
  -19.0332  -27.3419   20.8425 C   0  0  2  0  0  0  0  0  0  0  0  0
  -21.3762  -28.7705   24.7519 C   0  0  0  0  0  0  0  0  0  0  0  0
  -25.8778  -12.2000   20.4460 N   0  0  0  0  0  0  0  0  0  0  0  0
  -26.0979  -13.2742   19.6690 N   0  0  0  0  0  0  0  0  0  0  0  0
  -28.1046  -23.1615   21.1223 N   0  0  0  0  0  0  0  0  0  0  0  0
  -23.5266  -29.8593   22.0957 N   0  0  0  0  0  0  0  0  0  0  0  0
  -29.0960  -15.4879   20.5023 N   0  0  0  0  0  0  0  0  0  0  0  0
  -25.0269  -14.7988   18.2065 N   0  0  0  0  0  0  0  0  0  0  0  0
  -21.6799  -12.0439   19.4730 N   0  0  0  0  0  0  0  0  0  0  0  0
  -28.3710  -17.6802   20.0222 N   0  0  0  0  0  0  0  0  0  0  0  0
  -25.3994  -32.7221   23.1092 N   0  0  0  0  0  0  0  0  0  0  0  0
  -20.4603  -28.4610   22.4132 N   0  0  0  0  0  0  0  0  0  0  0  0
  -19.2007  -26.7728   19.4753 N   0  3  0  0  0  0  0  0  0  0  0  0
  -22.2061  -13.8613   18.1773 O   0  0  0  0  0  0  0  0  0  0  0  0
  -25.6699  -30.4487   23.5347 O   0  0  0  0  0  0  0  0  0  0  0  0
  -21.6446  -31.0408   22.8014 O   0  0  0  0  0  0  0  0  0  0  0  0
  -21.2374  -26.5250   21.4007 O   0  0  0  0  0  0  0  0  0  0  0  0
  -30.6325  -17.1772   20.1428 O   0  0  0  0  0  0  0  0  0  0  0  0
  -22.1159   -7.7147   22.9519 O   0  0  0  0  0  0  0  0  0  0  0  0
  -27.8363  -26.1020   19.7800 O   0  0  0  0  0  0  0  0  0  1  0  0
  -17.2723   -8.6869   25.4011 F   0  0  0  0  0  0  0  0  0  0  0  0
  -26.0683  -19.1688   19.5231 F   0  0  0  0  0  0  0  0  0  0  0  0
  -21.8062   -7.3551   25.6754 F   0  0  0  0  0  0  0  0  0  0  0  0
  -30.7587  -21.8509   21.7856 Cl  0  0  0  0  0  0  0  0  0  0  0  0
  1  2  1  0  0  0  0
  1  5  2  0  0  0  0
  2  6  2  0  0  0  0
  3  8  2  0  0  0  0
  3 17  1  0  0  0  0
  4  9  1  0  0  0  0
  4 17  2  0  0  0  0
  5 19  1  0  0  0  0
  6 21  1  0  0  0  0
  7 10  2  0  0  0  0
  7 20  1  0  0  0  0
  8 25  1  0  0  0  0
  9 25  2  0  0  0  0
 10 26  1  0  0  0  0
 11 12  2  0  0  0  0
 11 27  1  0  0  0  0
 12 28  1  0  0  0  0
 13 22  1  0  0  0  0
 13 26  2  0  0  0  0
 14 23  1  0  0  0  0
 14 29  2  0  0  0  0
 15 24  2  0  0  0  0
 15 31  1  0  0  0  0
 16 28  2  0  0  0  0
 16 30  1  0  0  0  0
 17 32  1  0  0  0  0
 18 32  1  0  0  0  0
 18 33  2  0  0  0  0
 18 34  1  0  0  0  0
 19 21  2  0  0  0  0
 19 39  1  0  0  0  0
 20 22  2  0  0  0  0
 20 40  1  0  0  0  0
 21 50  1  0  0  0  0
 22 41  1  0  0  0  0
 23 31  2  0  0  0  0
 23 64  1  0  0  0  0
 24 29  1  0  0  0  0
 24 69  1  0  0  0  0
 25 78  1  0  0  0  0
 26 79  1  0  0  0  0
 27 30  2  0  0  0  0
 27 78  1  0  0  0  0
 28 80  1  0  0  0  0
 29 81  1  0  0  0  0
 30 82  1  0  0  0  0
 31 83  1  0  0  0  0
 32 62  2  0  0  0  0
 33 63  1  0  0  0  0
 33 67  1  0  0  0  0
 34 68  1  0  0  0  0
 34 73  2  0  0  0  0
 35 51  1  0  0  0  0
 35 70  1  0  0  0  0
 35 74  2  0  0  0  0
 36 59  1  0  0  0  0
 36 65  1  0  0  0  0
 36 75  2  0  0  0  0
 37 60  1  0  0  0  0
 37 71  1  0  0  0  0
 37 76  2  0  0  0  0
 38 66  1  0  0  0  0
 38 69  1  0  0  0  0
 38 77  2  0  0  0  0
 39 42  1  0  0  0  0
 40 51  1  0  0  0  0
 41 65  1  0  0  0  0
 42 44  1  0  0  0  0
 43 45  1  0  0  0  0
 43 46  1  0  0  0  0
 44 50  1  0  0  0  0
 45 52  1  0  0  0  0
 46 66  1  0  0  0  0
 47 52  1  0  0  0  0
 47 66  1  0  0  0  0
 48 53  1  0  0  0  0
 48 64  1  0  0  0  0
 49 53  1  0  0  0  0
 49 64  1  0  0  0  0
 50 70  1  0  0  0  0
 51 65  1  0  0  0  0
 52 63  1  0  0  0  0
 53 79  1  0  0  0  0
 54 60  1  0  0  0  0
 55 61  1  0  0  0  0
 56 61  1  0  0  0  0
 57 61  1  0  0  0  0
 58 72  1  0  0  0  0
 59 61  1  0  0  0  0
 59 71  1  0  0  0  0
 60 72  1  0  0  0  0
 62 63  1  0  0  0  0
M  CHG  1  72   1
M  ISO  4  38 100  53 101  69 100  79 101
M  END
> <Batch ID>
0025

> <Smiles>
CNC(C)C(=O)NC(C(=O)N1Cc2cc([101O:1][101CH:1]3CN(c4cc(F)c([100NH:0][100C:0](=O)N5CCCC(n6nc(-c7ccc(Oc8ccc(F)cc8F)cc7)c(C(N)=O)c6N)C5)cc4Cl)C3)ccc2CC1C(=O)NC1CCCc2ccccc21)C(C)(C)C

> <Shape>
0.337

> <Color>
0.099

> <Negative vol penalty>
0.000

$$$$

  -OEChem-04042321223D

 83 92  0     1  0  0  0  0  0999 V2000
  -28.8436  -37.2143   18.9784 C   0  0  0  0  0  0  0  0  0  0  0  0
  -29.3086  -35.9165   19.1649 C   0  0  0  0  0  0  0  0  0  0  0  0
  -24.5923   -9.4601   21.5424 C   0  0  0  0  0  0  0  0  0  0  0  0
  -24.7350  -10.6598   23.6346 C   0  0  0  0  0  0  0  0  0  0  0  0
  -27.7561  -37.6769   19.7182 C   0  0  0  0  0  0  0  0  0  0  0  0
  -28.6870  -35.0808   20.0921 C   0  0  0  0  0  0  0  0  0  0  0  0
  -27.9099  -29.0224   19.6474 C   0  0  0  0  0  0  0  0  0  0  0  0
  -29.0839  -21.3737   21.7565 C   0  0  0  0  0  0  0  0  0  0  0  0
  -29.1348  -20.0567   21.3000 C   0  0  0  0  0  0  0  0  0  0  0  0
  -24.3559   -8.2746   22.2382 C   0  0  0  0  0  0  0  0  0  0  0  0
  -24.4985   -9.4743   24.3305 C   0  0  0  0  0  0  0  0  0  0  0  0
  -28.6146  -27.9446   20.1816 C   0  0  0  0  0  0  0  0  0  0  0  0
  -21.7543   -6.7752   23.7928 C   0  0  0  0  0  0  0  0  0  0  0  0
  -20.7323   -5.9456   23.3315 C   0  0  0  0  0  0  0  0  0  0  0  0
  -27.0423  -27.8292   22.0074 C   0  0  0  0  0  0  0  0  0  0  0  0
  -22.3307   -4.1663   22.9901 C   0  0  0  0  0  0  0  0  0  0  0  0
  -24.7820  -10.6527   22.2406 C   0  0  0  0  0  0  0  0  0  0  0  0
  -24.0675  -12.7983   21.0600 C   0  0  0  0  0  0  0  0  0  0  0  0
  -27.1148  -36.8433   20.6480 C   0  0  0  0  0  0  0  0  0  0  0  0
  -26.7703  -29.5195   20.2960 C   0  0  0  0  0  0  0  0  0  0  0  0
  -27.5908  -35.5331   20.8460 C   0  0  0  0  0  0  0  0  0  0  0  0
  -26.3233  -28.9118   21.4780 C   0  0  0  0  0  0  0  0  0  0  0  0
  -27.8531  -21.9688   22.0336 C   0  0  0  0  0  0  0  0  0  0  0  0
  -27.9550  -19.3347   21.1205 C   0  0  0  0  0  0  0  0  0  0  0  0
  -24.3089   -8.2817   23.6323 C   0  0  0  0  0  0  0  0  0  0  0  0
  -28.1826  -27.3497   21.3633 C   0  0  0  0  0  0  0  0  0  0  0  0
  -23.0645   -6.3004   23.8527 C   0  0  0  0  0  0  0  0  0  0  0  0
  -21.0205   -4.6412   22.9302 C   0  0  0  0  0  0  0  0  0  0  0  0
  -23.3527   -4.9960   23.4514 C   0  0  0  0  0  0  0  0  0  0  0  0
  -26.7241  -19.9297   21.3975 C   0  0  0  0  0  0  0  0  0  0  0  0
  -26.6732  -21.2468   21.8540 C   0  0  0  0  0  0  0  0  0  0  0  0
  -25.0268  -11.8776   21.5223 C   0  0  0  0  0  0  0  0  0  0  0  0
  -24.8036  -13.7823   20.4466 C   0  0  0  0  0  0  0  0  0  0  0  0
  -22.6387  -12.7669   21.1749 C   0  0  0  0  0  0  0  0  0  0  0  0
  -25.9719  -32.3010   21.6111 C   0  0  0  0  0  0  0  0  0  0  0  0
  -23.0732  -30.8786   21.9214 C   0  0  0  0  0  0  0  0  0  0  0  0
  -21.2738  -27.9874   22.1459 C   0  0  0  0  0  0  0  0  0  0  0  0
  -29.1502  -17.2605   20.3360 C   0  0  0  0  0  0  0  0  0  0  0  0
  -25.9728  -37.4034   21.4584 C   0  0  0  0  0  0  0  0  0  0  0  0
  -26.0058  -30.6657   19.6926 C   0  0  0  0  0  0  0  0  0  0  0  0
  -25.0942  -29.3947   22.2023 C   0  0  0  0  0  0  0  0  0  0  0  0
  -25.1345  -36.3320   22.1511 C   0  0  0  0  0  0  0  0  0  0  0  0
  -29.7065  -13.9332   19.1972 C   0  0  0  0  0  0  0  0  0  0  0  0
  -26.0354  -35.3122   22.8404 C   0  0  0  0  0  0  0  0  0  0  0  0
  -28.4597  -13.1775   19.6625 C   0  0  0  0  0  0  0  0  0  0  0  0
  -30.1439  -14.9862   20.2139 C   0  0  0  0  0  0  0  0  0  0  0  0
  -27.8479  -15.1735   21.0869 C   0  0  0  0  0  0  0  0  0  0  0  0
  -27.2030  -24.3936   21.8655 C   0  0  0  0  0  0  0  0  0  0  0  0
  -28.9338  -24.0235   23.0036 C   0  0  0  0  0  0  0  0  0  0  0  0
  -26.9275  -34.5884   21.8245 C   0  0  1  0  0  0  0  0  0  0  0  0
  -25.1547  -31.4182   20.7109 C   0  0  1  0  0  0  0  0  0  0  0  0
  -27.3312  -14.1467   20.0660 C   0  0  2  0  0  0  0  0  0  0  0  0
  -28.1560  -25.3010   22.6561 C   0  0  0  0  0  0  0  0  0  1  0  0
  -18.9275  -27.1446   22.4316 C   0  0  0  0  0  0  0  0  0  0  0  0
  -23.1825  -31.5871   24.8872 C   0  0  0  0  0  0  0  0  0  0  0  0
  -21.3411  -29.9364   25.2780 C   0  0  0  0  0  0  0  0  0  0  0  0
  -20.9468  -31.9195   23.8170 C   0  0  0  0  0  0  0  0  0  0  0  0
  -21.3349  -26.5891   19.5382 C   0  0  0  0  0  0  0  0  0  0  0  0
  -22.4052  -30.0323   22.9782 C   0  0  1  0  0  0  0  0  0  0  0  0
  -20.0122  -27.5286   21.4373 C   0  0  2  0  0  0  0  0  0  0  0  0
  -21.9932  -30.8607   24.2277 C   0  0  0  0  0  0  0  0  0  0  0  0
  -26.2770  -12.2438   21.2276 N   0  0  0  0  0  0  0  0  0  0  0  0
  -26.1083  -13.4056   20.5735 N   0  0  0  0  0  0  0  0  0  0  0  0
  -27.8353  -23.2828   22.4879 N   0  0  0  0  0  0  0  0  0  0  0  0
  -24.3845  -30.5223   21.5759 N   0  0  0  0  0  0  0  0  0  0  0  0
  -29.0248  -15.8708   20.5451 N   0  0  0  0  0  0  0  0  0  0  0  0
  -24.4557  -14.9243   19.8163 N   0  0  0  0  0  0  0  0  0  0  0  0
  -22.0452  -11.6830   21.8361 N   0  0  0  0  0  0  0  0  0  0  0  0
  -28.0103  -17.9970   20.6565 N   0  0  0  0  0  0  0  0  0  0  0  0
  -26.1712  -33.5765   21.1184 N   0  0  0  0  0  0  0  0  0  0  0  0
  -21.2946  -29.3554   22.3172 N   0  0  0  0  0  0  0  0  0  0  0  0
  -20.3017  -26.3462   20.5777 N   0  3  0  0  0  0  0  0  0  0  0  0
  -21.9089  -13.6651   20.6909 O   0  0  0  0  0  0  0  0  0  0  0  0
  -26.3894  -31.8582   22.6748 O   0  0  0  0  0  0  0  0  0  0  0  0
  -22.4518  -31.8166   21.4159 O   0  0  0  0  0  0  0  0  0  0  0  0
  -22.1513  -27.2096   22.5141 O   0  0  0  0  0  0  0  0  0  0  0  0
  -30.1827  -17.7573   19.8788 O   0  0  0  0  0  0  0  0  0  0  0  0
  -24.0779   -7.1251   24.3116 O   0  0  0  0  0  0  0  0  0  0  0  0
  -28.8690  -26.2979   21.8873 O   0  0  0  0  0  0  0  0  0  1  0  0
  -20.0387   -3.8441   22.4886 F   0  0  0  0  0  0  0  0  0  0  0  0
  -24.6093   -4.5339   23.5078 F   0  0  0  0  0  0  0  0  0  0  0  0
  -25.5922  -19.2301   21.2219 F   0  0  0  0  0  0  0  0  0  0  0  0
  -25.1312  -21.9525   22.1876 Cl  0  0  0  0  0  0  0  0  0  0  0  0
  1  2  1  0  0  0  0
  1  5  2  0  0  0  0
  2  6  2  0  0  0  0
  3 10  2  0  0  0  0
  3 17  1  0  0  0  0
  4 11  1  0  0  0  0
  4 17  2  0  0  0  0
  5 19  1  0  0  0  0
  6 21  1  0  0  0  0
  7 12  2  0  0  0  0
  7 20  1  0  0  0  0
  8  9  2  0  0  0  0
  8 23  1  0  0  0  0
  9 24  1  0  0  0  0
 10 25  1  0  0  0  0
 11 25  2  0  0  0  0
 12 26  1  0  0  0  0
 13 14  2  0  0  0  0
 13 27  1  0  0  0  0
 14 28  1  0  0  0  0
 15 22  1  0  0  0  0
 15 26  2  0  0  0  0
 16 28  2  0  0  0  0
 16 29  1  0  0  0  0
 17 32  1  0  0  0  0
 18 32  1  0  0  0  0
 18 33  2  0  0  0  0
 18 34  1  0  0  0  0
 19 21  2  0  0  0  0
 19 39  1  0  0  0  0
 20 22  2  0  0  0  0
 20 40  1  0  0  0  0
 21 50  1  0  0  0  0
 22 41  1  0  0  0  0
 23 31  2  0  0  0  0
 23 64  1  0  0  0  0
 24 30  2  0  0  0  0
 24 69  1  0  0  0  0
 25 78  1  0  0  0  0
 26 79  1  0  0  0  0
 27 29  2  0  0  0  0
 27 78  1  0  0  0  0
 28 80  1  0  0  0  0
 29 81  1  0  0  0  0
 30 31  1  0  0  0  0
 30 82  1  0  0  0  0
 31 83  1  0  0  0  0
 32 62  2  0  0  0  0
 33 63  1  0  0  0  0
 33 67  1  0  0  0  0
 34 68  1  0  0  0  0
 34 73  2  0  0  0  0
 35 51  1  0  0  0  0
 35 70  1  0  0  0  0
 35 74  2  0  0  0  0
 36 59  1  0  0  0  0
 36 65  1  0  0  0  0
 36 75  2  0  0  0  0
 37 60  1  0  0  0  0
 37 71  1  0  0  0  0
 37 76  2  0  0  0  0
 38 66  1  0  0  0  0
 38 69  1  0  0  0  0
 38 77  2  0  0  0  0
 39 42  1  0  0  0  0
 40 51  1  0  0  0  0
 41 65  1  0  0  0  0
 42 44  1  0  0  0  0
 43 45  1  0  0  0  0
 43 46  1  0  0  0  0
 44 50  1  0  0  0  0
 45 52  1  0  0  0  0
 46 66  1  0  0  0  0
 47 52  1  0  0  0  0
 47 66  1  0  0  0  0
 48 53  1  0  0  0  0
 48 64  1  0  0  0  0
 49 53  1  0  0  0  0
 49 64  1  0  0  0  0
 50 70  1  0  0  0  0
 51 65  1  0  0  0  0
 52 63  1  0  0  0  0
 53 79  1  0  0  0  0
 54 60  1  0  0  0  0
 55 61  1  0  0  0  0
 56 61  1  0  0  0  0
 57 61  1  0  0  0  0
 58 72  1  0  0  0  0
 59 61  1  0  0  0  0
 59 71  1  0  0  0  0
 60 72  1  0  0  0  0
 62 63  1  0  0  0  0
M  CHG  1  72   1
M  ISO  4  38 100  53 101  69 100  79 101
M  END
> <Batch ID>
0025

> <Smiles>
CNC(C)C(=O)NC(C(=O)N1Cc2cc([101O:1][101CH:1]3CN(c4ccc([100NH:0][100C:0](=O)N5CCCC(n6nc(-c7ccc(Oc8ccc(F)cc8F)cc7)c(C(N)=O)c6N)C5)c(F)c4Cl)C3)ccc2CC1C(=O)NC1CCCc2ccccc21)C(C)(C)C

> <Shape>
0.292

> <Color>
0.117

> <Negative vol penalty>
0.000

$$$$

  -OEChem-04042321223D

 87 96  0     1  0  0  0  0  0999 V2000
  -37.9669  -31.7768   23.9801 C   0  0  0  0  0  0  0  0  0  0  0  0
  -37.2462  -30.6485   24.3581 C   0  0  0  0  0  0  0  0  0  0  0  0
  -22.6721  -10.1055   20.2352 C   0  0  0  0  0  0  0  0  0  0  0  0
  -24.2725   -9.4907   21.9376 C   0  0  0  0  0  0  0  0  0  0  0  0
  -37.4884  -32.5992   22.9610 C   0  0  0  0  0  0  0  0  0  0  0  0
  -36.0459  -30.3424   23.7178 C   0  0  0  0  0  0  0  0  0  0  0  0
  -35.6752  -25.4341   22.5278 C   0  0  0  0  0  0  0  0  0  0  0  0
  -21.9424   -8.9473   20.5029 C   0  0  0  0  0  0  0  0  0  0  0  0
  -23.5427   -8.3325   22.2053 C   0  0  0  0  0  0  0  0  0  0  0  0
  -35.3430  -24.5530   23.5560 C   0  0  0  0  0  0  0  0  0  0  0  0
  -20.7431   -7.4904   23.9005 C   0  0  0  0  0  0  0  0  0  0  0  0
  -20.5144   -7.1649   25.2374 C   0  0  0  0  0  0  0  0  0  0  0  0
  -33.0556  -24.5313   22.7903 C   0  0  0  0  0  0  0  0  0  0  0  0
  -30.3695  -18.4303   23.9261 C   0  0  0  0  0  0  0  0  0  0  0  0
  -31.9714  -16.6737   22.4664 C   0  0  0  0  0  0  0  0  0  0  0  0
  -21.6769   -5.0700   24.9262 C   0  0  0  0  0  0  0  0  0  0  0  0
  -23.8372  -10.3772   20.9525 C   0  0  0  0  0  0  0  0  0  0  0  0
  -24.1444  -12.9039   20.7812 C   0  0  0  0  0  0  0  0  0  0  0  0
  -36.2864  -32.2977   22.3013 C   0  0  0  0  0  0  0  0  0  0  0  0
  -34.6960  -25.8797   21.6283 C   0  0  0  0  0  0  0  0  0  0  0  0
  -35.5501  -31.1623   22.6898 C   0  0  0  0  0  0  0  0  0  0  0  0
  -33.3784  -25.4161   21.7501 C   0  0  0  0  0  0  0  0  0  0  0  0
  -29.7846  -17.5258   23.0399 C   0  0  0  0  0  0  0  0  0  0  0  0
  -31.7553  -18.4566   24.0824 C   0  0  0  0  0  0  0  0  0  0  0  0
  -30.5856  -16.6475   22.3101 C   0  0  0  0  0  0  0  0  0  0  0  0
  -22.3777   -8.0608   21.4879 C   0  0  0  0  0  0  0  0  0  0  0  0
  -34.0325  -24.1037   23.6891 C   0  0  0  0  0  0  0  0  0  0  0  0
  -21.4388   -6.6057   23.0764 C   0  0  0  0  0  0  0  0  0  0  0  0
  -20.9813   -5.9547   25.7503 C   0  0  0  0  0  0  0  0  0  0  0  0
  -21.9057   -5.3955   23.5893 C   0  0  0  0  0  0  0  0  0  0  0  0
  -32.5563  -17.5783   23.3526 C   0  0  0  0  0  0  0  0  0  0  0  0
  -24.5917  -11.5732   20.6761 C   0  0  0  0  0  0  0  0  0  0  0  0
  -25.2291  -13.6610   20.4117 C   0  0  0  0  0  0  0  0  0  0  0  0
  -33.2429  -20.3836   24.5639 C   0  0  0  0  0  0  0  0  0  0  0  0
  -22.8629  -13.4103   21.1776 C   0  0  0  0  0  0  0  0  0  0  0  0
  -33.4626  -28.7112   20.8766 C   0  0  0  0  0  0  0  0  0  0  0  0
  -31.9347  -27.0008   18.5826 C   0  0  0  0  0  0  0  0  0  0  0  0
  -30.2792  -23.8039   18.3453 C   0  0  0  0  0  0  0  0  0  0  0  0
  -30.6782  -14.7883   20.6127 C   0  0  0  0  0  0  0  0  0  0  0  0
  -35.7853  -33.2425   21.2378 C   0  0  0  0  0  0  0  0  0  0  0  0
  -35.0760  -26.8093   20.5085 C   0  0  0  0  0  0  0  0  0  0  0  0
  -32.2943  -25.8485   20.7981 C   0  0  0  0  0  0  0  0  0  0  0  0
  -34.6944  -32.6422   20.3548 C   0  0  0  0  0  0  0  0  0  0  0  0
  -32.6578  -20.0734   27.4189 C   0  0  0  0  0  0  0  0  0  0  0  0
  -29.6199  -12.3086   18.2871 C   0  0  0  0  0  0  0  0  0  0  0  0
  -33.6416  -31.9423   21.2083 C   0  0  0  0  0  0  0  0  0  0  0  0
  -33.2526  -21.3670   26.9056 C   0  0  0  0  0  0  0  0  0  0  0  0
  -28.1806  -12.0057   18.7099 C   0  0  0  0  0  0  0  0  0  0  0  0
  -31.7504  -19.4669   26.3627 C   0  0  0  0  0  0  0  0  0  0  0  0
  -30.5206  -12.5762   19.4917 C   0  0  0  0  0  0  0  0  0  0  0  0
  -28.5909  -13.3026   20.8399 C   0  0  0  0  0  0  0  0  0  0  0  0
  -34.2563  -30.7834   22.0023 C   0  0  1  0  0  0  0  0  0  0  0  0
  -34.0692  -21.0689   25.6572 C   0  0  2  0  0  0  0  0  0  0  0  0
  -33.8921  -27.6002   19.9607 C   0  0  1  0  0  0  0  0  0  0  0  0
  -27.6315  -13.0903   19.6574 C   0  0  2  0  0  0  0  0  0  0  0  0
  -28.2977  -17.5200   22.8923 C   0  0  0  0  0  0  0  0  0  0  0  0
  -29.9344  -22.2874   16.3758 C   0  0  0  0  0  0  0  0  0  0  0  0
  -29.2564  -28.4375   18.3132 C   0  0  0  0  0  0  0  0  0  0  0  0
  -28.2229  -26.2454   17.6844 C   0  0  0  0  0  0  0  0  0  0  0  0
  -30.0083  -27.2371   16.2521 C   0  0  0  0  0  0  0  0  0  0  0  0
  -31.5368  -21.5161   19.7394 C   0  0  0  0  0  0  0  0  0  0  0  0
  -34.7238  -22.3498   25.1389 C   0  0  0  0  0  0  0  0  0  1  0  0
  -30.6244  -26.2557   18.4992 C   0  0  1  0  0  0  0  0  0  0  0  0
  -30.7785  -22.5745   17.6078 C   0  0  2  0  0  0  0  0  0  0  0  0
  -29.5419  -27.0468   17.7119 C   0  0  0  0  0  0  0  0  0  0  0  0
  -25.8616  -11.4866   20.2713 N   0  0  0  0  0  0  0  0  0  0  0  0
  -26.2215  -12.7724   20.1187 N   0  0  0  0  0  0  0  0  0  0  0  0
  -32.3295  -19.4075   25.0101 N   0  0  0  0  0  0  0  0  0  0  0  0
  -32.7143  -26.7631   19.7235 N   0  0  0  0  0  0  0  0  0  0  0  0
  -29.9390  -13.6174   20.3416 N   0  0  0  0  0  0  0  0  0  0  0  0
  -25.4214  -14.9934   20.3119 N   0  0  0  0  0  0  0  0  0  0  0  0
  -21.8609  -12.4941   21.5253 N   0  0  0  0  0  0  0  0  0  0  0  0
  -30.0102  -15.7213   21.4052 N   0  0  0  0  0  0  0  0  0  0  0  0
  -34.4555  -29.6337   21.1460 N   0  0  0  0  0  0  0  0  0  0  0  0
  -30.9348  -24.9460   17.9364 N   0  0  0  0  0  0  0  0  0  0  0  0
  -30.7306  -21.3809   18.4989 N   0  3  0  0  0  0  0  0  0  0  0  0
  -33.4540  -20.6563   23.3792 O   0  0  0  0  0  0  0  0  0  0  0  0
  -22.6088  -14.6383   21.2063 O   0  0  0  0  0  0  0  0  0  0  0  0
  -32.3150  -28.7309   21.3058 O   0  0  0  0  0  0  0  0  0  0  0  0
  -32.2580  -27.7602   17.6659 O   0  0  0  0  0  0  0  0  0  0  0  0
  -29.3936  -23.7564   19.1961 O   0  0  0  0  0  0  0  0  0  0  0  0
  -31.8090  -14.9631   20.1517 O   0  0  0  0  0  0  0  0  0  0  0  0
  -21.6658   -6.9306   21.7496 O   0  0  0  0  0  0  0  0  0  0  0  0
  -33.7055  -23.2442   24.6922 O   0  0  0  0  0  0  0  0  0  1  0  0
  -20.7628   -5.6430   27.0345 F   0  0  0  0  0  0  0  0  0  0  0  0
  -22.5756   -4.5420   22.8028 F   0  0  0  0  0  0  0  0  0  0  0  0
  -34.2763  -17.5782   23.5153 Cl  0  0  0  0  0  0  0  0  0  0  0  0
  1  2  1  0  0  0  0
  1  5  2  0  0  0  0
  2  6  2  0  0  0  0
  3  8  2  0  0  0  0
  3 17  1  0  0  0  0
  4  9  1  0  0  0  0
  4 17  2  0  0  0  0
  5 19  1  0  0  0  0
  6 21  1  0  0  0  0
  7 10  2  0  0  0  0
  7 20  1  0  0  0  0
  8 26  1  0  0  0  0
  9 26  2  0  0  0  0
 10 27  1  0  0  0  0
 11 12  2  0  0  0  0
 11 28  1  0  0  0  0
 12 29  1  0  0  0  0
 13 22  1  0  0  0  0
 13 27  2  0  0  0  0
 14 23  2  0  0  0  0
 14 24  1  0  0  0  0
 15 25  2  0  0  0  0
 15 31  1  0  0  0  0
 16 29  2  0  0  0  0
 16 30  1  0  0  0  0
 17 32  1  0  0  0  0
 18 32  1  0  0  0  0
 18 33  2  0  0  0  0
 18 35  1  0  0  0  0
 19 21  2  0  0  0  0
 19 40  1  0  0  0  0
 20 22  2  0  0  0  0
 20 41  1  0  0  0  0
 21 52  1  0  0  0  0
 22 42  1  0  0  0  0
 23 25  1  0  0  0  0
 23 56  1  0  0  0  0
 24 31  2  0  0  0  0
 24 68  1  0  0  0  0
 25 73  1  0  0  0  0
 26 83  1  0  0  0  0
 27 84  1  0  0  0  0
 28 30  2  0  0  0  0
 28 83  1  0  0  0  0
 29 85  1  0  0  0  0
 30 86  1  0  0  0  0
 31 87  1  0  0  0  0
 32 66  2  0  0  0  0
 33 67  1  0  0  0  0
 33 71  1  0  0  0  0
 34 53  1  0  0  0  0
 34 68  1  0  0  0  0
 34 77  2  0  0  0  0
 35 72  1  0  0  0  0
 35 78  2  0  0  0  0
 36 54  1  0  0  0  0
 36 74  1  0  0  0  0
 36 79  2  0  0  0  0
 37 63  1  0  0  0  0
 37 69  1  0  0  0  0
 37 80  2  0  0  0  0
 38 64  1  0  0  0  0
 38 75  1  0  0  0  0
 38 81  2  0  0  0  0
 39 70  1  0  0  0  0
 39 73  1  0  0  0  0
 39 82  2  0  0  0  0
 40 43  1  0  0  0  0
 41 54  1  0  0  0  0
 42 69  1  0  0  0  0
 43 46  1  0  0  0  0
 44 47  1  0  0  0  0
 44 49  1  0  0  0  0
 45 48  1  0  0  0  0
 45 50  1  0  0  0  0
 46 52  1  0  0  0  0
 47 53  1  0  0  0  0
 48 55  1  0  0  0  0
 49 68  1  0  0  0  0
 50 70  1  0  0  0  0
 51 55  1  0  0  0  0
 51 70  1  0  0  0  0
 52 74  1  0  0  0  0
 53 62  1  0  0  0  0
 54 69  1  0  0  0  0
 55 67  1  0  0  0  0
 57 64  1  0  0  0  0
 58 65  1  0  0  0  0
 59 65  1  0  0  0  0
 60 65  1  0  0  0  0
 61 76  1  0  0  0  0
 62 84  1  0  0  0  0
 63 65  1  0  0  0  0
 63 75  1  0  0  0  0
 64 76  1  0  0  0  0
 66 67  1  0  0  0  0
M  CHG  1  76   1
M  ISO  4  39 100  62 101  73 100  84 101
M  END
> <Batch ID>
0025

> <Smiles>
CNC(C)C(=O)NC(C(=O)N1Cc2cc([101O:1][101CH2:1]C3CCCN(c4cc(C)c([100NH:0][100C:0](=O)N5CCCC(n6nc(-c7ccc(Oc8ccc(F)cc8F)cc7)c(C(N)=O)c6N)C5)cc4Cl)C3=O)ccc2CC1C(=O)NC1CCCc2ccccc21)C(C)(C)C

> <Shape>
0.237

> <Color>
0.204

> <Negative vol penalty>
0.000

$$$$

  -OEChem-04042321223D

 83 91  0     1  0  0  0  0  0999 V2000
  -26.5142  -38.4687   20.4384 C   0  0  0  0  0  0  0  0  0  0  0  0
  -27.0698  -37.3749   19.7824 C   0  0  0  0  0  0  0  0  0  0  0  0
  -24.4622   -8.8244   20.9391 C   0  0  0  0  0  0  0  0  0  0  0  0
  -22.6773  -10.4456   21.0906 C   0  0  0  0  0  0  0  0  0  0  0  0
  -25.9378  -38.3059   21.6975 C   0  0  0  0  0  0  0  0  0  0  0  0
  -27.0502  -36.1178   20.3856 C   0  0  0  0  0  0  0  0  0  0  0  0
  -26.5804  -29.1554   18.7667 C   0  0  0  0  0  0  0  0  0  0  0  0
  -27.4283  -19.8763   22.2931 C   0  0  0  0  0  0  0  0  0  0  0  0
  -23.5462   -7.7954   21.1571 C   0  0  0  0  0  0  0  0  0  0  0  0
  -21.7612   -9.4165   21.3086 C   0  0  0  0  0  0  0  0  0  0  0  0
  -27.2391  -27.9488   18.9990 C   0  0  0  0  0  0  0  0  0  0  0  0
  -21.9194   -6.4243   23.7835 C   0  0  0  0  0  0  0  0  0  0  0  0
  -22.2714   -5.4260   24.6919 C   0  0  0  0  0  0  0  0  0  0  0  0
  -27.2009  -21.2148   21.9735 C   0  0  0  0  0  0  0  0  0  0  0  0
  -26.1456  -27.7715   21.1419 C   0  0  0  0  0  0  0  0  0  0  0  0
  -26.5608  -20.5715   19.7344 C   0  0  0  0  0  0  0  0  0  0  0  0
  -22.0847   -3.7692   22.9433 C   0  0  0  0  0  0  0  0  0  0  0  0
  -24.0278  -10.1495   20.9059 C   0  0  0  0  0  0  0  0  0  0  0  0
  -25.3626  -11.7573   19.4427 C   0  0  0  0  0  0  0  0  0  0  0  0
  -25.9025  -37.0444   22.3122 C   0  0  0  0  0  0  0  0  0  0  0  0
  -25.7063  -29.6855   19.7265 C   0  0  0  0  0  0  0  0  0  0  0  0
  -26.4739  -35.9383   21.6546 C   0  0  0  0  0  0  0  0  0  0  0  0
  -25.4751  -28.9837   20.9182 C   0  0  0  0  0  0  0  0  0  0  0  0
  -26.7883  -19.2329   20.0540 C   0  0  0  0  0  0  0  0  0  0  0  0
  -27.2221  -18.8853   21.3333 C   0  0  0  0  0  0  0  0  0  0  0  0
  -22.1957   -8.0914   21.3418 C   0  0  0  0  0  0  0  0  0  0  0  0
  -27.0239  -27.2580   20.1880 C   0  0  0  0  0  0  0  0  0  0  0  0
  -21.6500   -6.0951   22.4551 C   0  0  0  0  0  0  0  0  0  0  0  0
  -22.3540   -4.0985   24.2717 C   0  0  0  0  0  0  0  0  0  0  0  0
  -21.7327   -4.7676   22.0350 C   0  0  0  0  0  0  0  0  0  0  0  0
  -26.7671  -21.5624   20.6942 C   0  0  0  0  0  0  0  0  0  0  0  0
  -24.9737  -11.2130   20.6813 C   0  0  0  0  0  0  0  0  0  0  0  0
  -26.2743  -12.7320   19.7670 C   0  0  0  0  0  0  0  0  0  0  0  0
  -24.9377  -11.4126   18.1174 C   0  0  0  0  0  0  0  0  0  0  0  0
  -25.6289  -32.3463   21.4637 C   0  0  0  0  0  0  0  0  0  0  0  0
  -22.7218  -31.2162   22.3547 C   0  0  0  0  0  0  0  0  0  0  0  0
  -20.6522  -28.5306   22.7436 C   0  0  0  0  0  0  0  0  0  0  0  0
  -27.8940  -17.0359   22.9064 C   0  0  0  0  0  0  0  0  0  0  0  0
  -25.3107  -36.9267   23.6945 C   0  0  0  0  0  0  0  0  0  0  0  0
  -24.9830  -30.9749   19.4492 C   0  0  0  0  0  0  0  0  0  0  0  0
  -24.5309  -29.4998   21.9721 C   0  0  0  0  0  0  0  0  0  0  0  0
  -24.9964  -35.4896   24.1021 C   0  0  0  0  0  0  0  0  0  0  0  0
  -28.5624  -13.7714   24.1609 C   0  0  0  0  0  0  0  0  0  0  0  0
  -26.1700  -34.5725   23.7731 C   0  0  0  0  0  0  0  0  0  0  0  0
  -27.7203  -12.8596   23.2656 C   0  0  0  0  0  0  0  0  0  0  0  0
  -27.8520  -15.0918   24.4536 C   0  0  0  0  0  0  0  0  0  0  0  0
  -26.5459  -14.9115   22.3726 C   0  0  0  0  0  0  0  0  0  0  0  0
  -26.4499  -34.5540   22.2655 C   0  0  1  0  0  0  0  0  0  0  0  0
  -24.5089  -31.6786   20.7171 C   0  0  1  0  0  0  0  0  0  0  0  0
  -27.2474  -13.5961   21.9969 C   0  0  2  0  0  0  0  0  0  0  0  0
  -26.5600  -18.1925   19.0060 C   0  0  0  0  0  0  0  0  0  0  0  0
  -18.3492  -27.9157   23.5281 C   0  0  0  0  0  0  0  0  0  0  0  0
  -23.6287  -31.5250   25.2516 C   0  0  0  0  0  0  0  0  0  0  0  0
  -21.7267  -30.0458   25.9316 C   0  0  0  0  0  0  0  0  0  0  0  0
  -21.2690  -32.2298   24.8165 C   0  0  0  0  0  0  0  0  0  0  0  0
  -19.9006  -27.4778   20.0818 C   0  0  0  0  0  0  0  0  0  0  0  0
  -27.9881  -25.2834   19.2785 C   0  0  0  0  0  0  0  0  0  1  0  0
  -28.0386  -23.8238   19.6825 C   0  0  0  0  0  0  0  0  0  0  0  0
  -22.2159  -30.3190   23.4584 C   0  0  1  0  0  0  0  0  0  0  0  0
  -19.2079  -28.3044   22.3346 C   0  0  2  0  0  0  0  0  0  0  0  0
  -22.2294  -31.0209   24.8457 C   0  0  0  0  0  0  0  0  0  0  0  0
  -25.5881  -11.7936   21.7154 N   0  0  0  0  0  0  0  0  0  0  0  0
  -26.3724  -12.7128   21.1272 N   0  0  0  0  0  0  0  0  0  0  0  0
  -23.8524  -30.7679   21.6571 N   0  0  0  0  0  0  0  0  0  0  0  0
  -27.4368  -15.7350   23.2051 N   0  0  0  0  0  0  0  0  0  0  0  0
  -26.9936  -13.5950   19.0185 N   0  0  0  0  0  0  0  0  0  0  0  0
  -23.9945  -10.3874   17.9636 N   0  0  0  0  0  0  0  0  0  0  0  0
  -27.4602  -17.5315   21.6773 N   0  0  0  0  0  0  0  0  0  0  0  0
  -25.4876  -33.7157   21.5831 N   0  0  0  0  0  0  0  0  0  0  0  0
  -20.8987  -29.8554   23.0361 N   0  0  0  0  0  0  0  0  0  0  0  0
  -19.1213  -27.2169   21.3193 N   0  3  0  0  0  0  0  0  0  0  0  0
  -25.3935  -11.9854   17.0987 O   0  0  0  0  0  0  0  0  0  0  0  0
  -26.5521  -31.6691   21.9005 O   0  0  0  0  0  0  0  0  0  0  0  0
  -22.1312  -32.2724   22.1154 O   0  0  0  0  0  0  0  0  0  0  0  0
  -21.4781  -27.6224   22.8017 O   0  0  0  0  0  0  0  0  0  0  0  0
  -28.6393  -17.6534   23.6714 O   0  0  0  0  0  0  0  0  0  0  0  0
  -25.5196  -23.2788   19.2001 O   0  0  0  0  0  0  0  0  0  0  0  0
  -26.2002  -23.9723   21.5243 O   0  0  0  0  0  0  0  0  0  0  0  0
  -21.3015   -7.0875   21.5543 O   0  0  0  0  0  0  0  0  0  0  0  0
  -27.6660  -26.0804   20.4176 O   0  0  0  0  0  0  0  0  0  1  0  0
  -22.6935   -3.1401   25.1437 F   0  0  0  0  0  0  0  0  0  0  0  0
  -21.4761   -4.4454   20.7597 F   0  0  0  0  0  0  0  0  0  0  0  0
  -26.4789  -23.2591   20.2902 S   0  0  0  0  0  0  0  0  0  0  0  0
  1  2  1  0  0  0  0
  1  5  2  0  0  0  0
  2  6  2  0  0  0  0
  3  9  2  0  0  0  0
  3 18  1  0  0  0  0
  4 10  1  0  0  0  0
  4 18  2  0  0  0  0
  5 20  1  0  0  0  0
  6 22  1  0  0  0  0
  7 11  2  0  0  0  0
  7 21  1  0  0  0  0
  8 14  2  0  0  0  0
  8 25  1  0  0  0  0
  9 26  1  0  0  0  0
 10 26  2  0  0  0  0
 11 27  1  0  0  0  0
 12 13  2  0  0  0  0
 12 28  1  0  0  0  0
 13 29  1  0  0  0  0
 14 31  1  0  0  0  0
 15 23  1  0  0  0  0
 15 27  2  0  0  0  0
 16 24  1  0  0  0  0
 16 31  2  0  0  0  0
 17 29  2  0  0  0  0
 17 30  1  0  0  0  0
 18 32  1  0  0  0  0
 19 32  1  0  0  0  0
 19 33  2  0  0  0  0
 19 34  1  0  0  0  0
 20 22  2  0  0  0  0
 20 39  1  0  0  0  0
 21 23  2  0  0  0  0
 21 40  1  0  0  0  0
 22 48  1  0  0  0  0
 23 41  1  0  0  0  0
 24 25  2  0  0  0  0
 24 51  1  0  0  0  0
 25 68  1  0  0  0  0
 26 79  1  0  0  0  0
 27 80  1  0  0  0  0
 28 30  2  0  0  0  0
 28 79  1  0  0  0  0
 29 81  1  0  0  0  0
 30 82  1  0  0  0  0
 31 83  1  0  0  0  0
 32 62  2  0  0  0  0
 33 63  1  0  0  0  0
 33 66  1  0  0  0  0
 34 67  1  0  0  0  0
 34 72  2  0  0  0  0
 35 49  1  0  0  0  0
 35 69  1  0  0  0  0
 35 73  2  0  0  0  0
 36 59  1  0  0  0  0
 36 64  1  0  0  0  0
 36 74  2  0  0  0  0
 37 60  1  0  0  0  0
 37 70  1  0  0  0  0
 37 75  2  0  0  0  0
 38 65  1  0  0  0  0
 38 68  1  0  0  0  0
 38 76  2  0  0  0  0
 39 42  1  0  0  0  0
 40 49  1  0  0  0  0
 41 64  1  0  0  0  0
 42 44  1  0  0  0  0
 43 45  1  0  0  0  0
 43 46  1  0  0  0  0
 44 48  1  0  0  0  0
 45 50  1  0  0  0  0
 46 65  1  0  0  0  0
 47 50  1  0  0  0  0
 47 65  1  0  0  0  0
 48 69  1  0  0  0  0
 49 64  1  0  0  0  0
 50 63  1  0  0  0  0
 52 60  1  0  0  0  0
 53 61  1  0  0  0  0
 54 61  1  0  0  0  0
 55 61  1  0  0  0  0
 56 71  1  0  0  0  0
 57 58  1  0  0  0  0
 57 80  1  0  0  0  0
 58 83  1  0  0  0  0
 59 61  1  0  0  0  0
 59 70  1  0  0  0  0
 60 71  1  0  0  0  0
 62 63  1  0  0  0  0
 77 83  2  0  0  0  0
 78 83  2  0  0  0  0
M  CHG  1  71   1
M  ISO  4  38 100  57 101  68 100  80 101
M  END
> <Batch ID>
0025

> <Smiles>
CNC(C)C(=O)NC(C(=O)N1Cc2cc([101O:1][101CH2:1]CS(=O)(=O)c3ccc([100NH:0][100C:0](=O)N4CCCC(n5nc(-c6ccc(Oc7ccc(F)cc7F)cc6)c(C(N)=O)c5N)C4)c(C)c3)ccc2CC1C(=O)NC1CCCc2ccccc21)C(C)(C)C

> <Shape>
0.275

> <Color>
0.118

> <Negative vol penalty>
0.000

$$$$

  -OEChem-04042321223D

 91100  0     1  0  0  0  0  0999 V2000
  -37.5263  -18.2552   15.2644 C   0  0  0  0  0  0  0  0  0  0  0  0
  -37.5680  -18.1940   16.6536 C   0  0  0  0  0  0  0  0  0  0  0  0
  -23.3586   -9.7669   19.9629 C   0  0  0  0  0  0  0  0  0  0  0  0
  -23.8562   -9.9761   22.3178 C   0  0  0  0  0  0  0  0  0  0  0  0
  -36.5905  -19.0723   14.6315 C   0  0  0  0  0  0  0  0  0  0  0  0
  -36.6745  -18.9508   17.4108 C   0  0  0  0  0  0  0  0  0  0  0  0
  -34.6229  -16.3061   21.2110 C   0  0  0  0  0  0  0  0  0  0  0  0
  -22.6962   -8.5644   20.2097 C   0  0  0  0  0  0  0  0  0  0  0  0
  -23.1938   -8.7737   22.5647 C   0  0  0  0  0  0  0  0  0  0  0  0
  -35.4076  -16.1097   22.3465 C   0  0  0  0  0  0  0  0  0  0  0  0
  -20.0017   -7.7087   22.8765 C   0  0  0  0  0  0  0  0  0  0  0  0
  -19.1262   -7.6637   23.9615 C   0  0  0  0  0  0  0  0  0  0  0  0
  -34.2399  -17.9051   23.4566 C   0  0  0  0  0  0  0  0  0  0  0  0
  -30.2082  -15.7848   27.0782 C   0  0  0  0  0  0  0  0  0  0  0  0
  -20.4444   -5.8977   24.9519 C   0  0  0  0  0  0  0  0  0  0  0  0
  -30.6566  -16.3836   29.3755 C   0  0  0  0  0  0  0  0  0  0  0  0
  -23.9386  -10.4727   21.0170 C   0  0  0  0  0  0  0  0  0  0  0  0
  -24.0677  -13.0080   20.7653 C   0  0  0  0  0  0  0  0  0  0  0  0
  -35.6787  -19.8321   15.3812 C   0  0  0  0  0  0  0  0  0  0  0  0
  -33.6465  -17.3123   21.1858 C   0  0  0  0  0  0  0  0  0  0  0  0
  -35.7265  -19.7799   16.7874 C   0  0  0  0  0  0  0  0  0  0  0  0
  -33.4424  -18.1105   22.3204 C   0  0  0  0  0  0  0  0  0  0  0  0
  -32.3420  -15.2431   28.0733 C   0  0  0  0  0  0  0  0  0  0  0  0
  -31.4813  -15.2241   26.9759 C   0  0  0  0  0  0  0  0  0  0  0  0
  -22.6138   -8.0678   21.5106 C   0  0  0  0  0  0  0  0  0  0  0  0
  -35.2182  -16.9112   23.4685 C   0  0  0  0  0  0  0  0  0  0  0  0
  -21.0985   -6.8482   22.8292 C   0  0  0  0  0  0  0  0  0  0  0  0
  -19.3476   -6.7582   24.9992 C   0  0  0  0  0  0  0  0  0  0  0  0
  -21.3199   -5.9427   23.8669 C   0  0  0  0  0  0  0  0  0  0  0  0
  -29.7959  -16.3646   28.2780 C   0  0  0  0  0  0  0  0  0  0  0  0
  -31.9297  -15.8229   29.2732 C   0  0  0  0  0  0  0  0  0  0  0  0
  -24.6235  -11.7146   20.7626 C   0  0  0  0  0  0  0  0  0  0  0  0
  -25.1230  -13.8359   20.4696 C   0  0  0  0  0  0  0  0  0  0  0  0
  -36.0875  -15.0457   27.6871 C   0  0  0  0  0  0  0  0  0  0  0  0
  -36.7049  -14.4912   28.7363 C   0  0  0  0  0  0  0  0  0  0  0  0
  -22.7181  -13.4239   21.0131 C   0  0  0  0  0  0  0  0  0  0  0  0
  -33.1703  -19.9330   19.4511 C   0  0  0  0  0  0  0  0  0  0  0  0
  -30.3776  -20.0444   21.0975 C   0  0  0  0  0  0  0  0  0  0  0  0
  -28.6240  -19.1668   23.8906 C   0  0  0  0  0  0  0  0  0  0  0  0
  -31.0458  -13.2986   21.1639 C   0  0  0  0  0  0  0  0  0  0  0  0
  -34.7165  -20.7370   14.6532 C   0  0  0  0  0  0  0  0  0  0  0  0
  -32.7901  -17.4938   19.9627 C   0  0  0  0  0  0  0  0  0  0  0  0
  -32.3936  -19.1911   22.3516 C   0  0  0  0  0  0  0  0  0  0  0  0
  -36.6586  -15.1849   26.3115 C   0  0  0  0  0  0  0  0  0  0  0  0
  -33.5584  -21.2200   15.5224 C   0  0  0  0  0  0  0  0  0  0  0  0
  -29.2922  -13.8955   18.1234 C   0  0  0  0  0  0  0  0  0  0  0  0
  -34.0716  -21.7033   16.8751 C   0  0  0  0  0  0  0  0  0  0  0  0
  -27.8467  -13.5210   18.4552 C   0  0  0  0  0  0  0  0  0  0  0  0
  -30.2889  -12.9773   18.8272 C   0  0  0  0  0  0  0  0  0  0  0  0
  -28.6662  -12.5001   20.6197 C   0  0  0  0  0  0  0  0  0  0  0  0
  -34.6839  -16.5362   26.6100 C   0  0  0  0  0  0  0  0  0  0  0  0
  -34.7576  -20.5669   17.6430 C   0  0  1  0  0  0  0  0  0  0  0  0
  -32.1749  -18.8864   19.8653 C   0  0  1  0  0  0  0  0  0  0  0  0
  -27.6255  -13.4331   19.9773 C   0  0  2  0  0  0  0  0  0  0  0  0
  -35.4984  -15.8104   25.5477 C   0  0  1  0  0  0  0  0  0  1  0  0
  -36.0985  -14.3722   30.0937 C   0  0  0  0  0  0  0  0  0  0  0  0
  -26.6495  -18.9276   25.4208 C   0  0  0  0  0  0  0  0  0  0  0  0
  -32.4941  -12.3739   23.9351 C   0  0  0  0  0  0  0  0  0  0  0  0
  -31.0997  -22.9028   21.8834 C   0  0  0  0  0  0  0  0  0  0  0  0
  -29.3553  -22.7769   23.6749 C   0  0  0  0  0  0  0  0  0  0  0  0
  -28.6971  -22.5626   21.2783 C   0  0  0  0  0  0  0  0  0  0  0  0
  -27.8318  -16.5964   22.6560 C   0  0  0  0  0  0  0  0  0  0  0  0
  -33.7089  -14.6367   27.9510 C   0  0  0  0  0  0  0  0  0  0  0  0
  -30.9455  -14.2220   24.7545 C   0  0  0  0  0  0  0  0  0  0  0  0
  -29.9284  -20.6608   22.4003 C   0  0  1  0  0  0  0  0  0  0  0  0
  -27.2383  -18.5720   24.0645 C   0  0  2  0  0  0  0  0  0  0  0  0
  -31.6516  -13.5871   23.5533 C   0  0  2  0  0  0  0  0  0  0  0  0
  -29.7913  -22.2068   22.3083 C   0  0  0  0  0  0  0  0  0  0  0  0
  -25.9304  -11.7156   20.4869 N   0  0  0  0  0  0  0  0  0  0  0  0
  -26.2045  -13.0198   20.3135 N   0  0  0  0  0  0  0  0  0  0  0  0
  -31.5858  -19.3338   21.1290 N   0  0  0  0  0  0  0  0  0  0  0  0
  -30.0256  -12.9395   20.2678 N   0  0  0  0  0  0  0  0  0  0  0  0
  -25.2219  -15.1750   20.3304 N   0  0  0  0  0  0  0  0  0  0  0  0
  -21.7592  -12.4435   21.3021 N   0  0  0  0  0  0  0  0  0  0  0  0
  -31.8789  -14.6425   25.7517 N   0  0  0  0  0  0  0  0  0  0  0  0
  -33.7709  -19.6867   18.2312 N   0  0  0  0  0  0  0  0  0  0  0  0
  -28.6974  -19.9729   22.7743 N   0  0  0  0  0  0  0  0  0  0  0  0
  -30.7107  -13.2414   22.5112 N   0  0  0  0  0  0  0  0  0  0  0  0
  -34.8003  -15.6629   27.8415 N   0  3  1  0  0  0  0  0  0  0  0  0
  -27.2941  -17.0870   23.9511 N   0  3  0  0  0  0  0  0  0  0  0  0
  -22.3694  -14.6278   20.9630 O   0  0  0  0  0  0  0  0  0  0  0  0
  -33.3771  -20.8935   20.1834 O   0  0  0  0  0  0  0  0  0  0  0  0
  -29.6784  -20.1821   20.0906 O   0  0  0  0  0  0  0  0  0  0  0  0
  -29.5479  -18.9421   24.6694 O   0  0  0  0  0  0  0  0  0  0  0  0
  -32.1703  -13.6497   20.7909 O   0  0  0  0  0  0  0  0  0  0  0  0
  -21.9673   -6.8946   21.7518 O   0  0  0  0  0  0  0  0  0  0  0  0
  -35.9833  -16.7221   24.5779 O   0  0  0  0  0  0  0  0  0  1  0  0
  -18.5076   -6.7162   26.0417 F   0  0  0  0  0  0  0  0  0  0  0  0
  -22.3725   -5.1143   23.8276 F   0  0  0  0  0  0  0  0  0  0  0  0
  -28.2250  -17.0563   28.4040 Cl  0  0  0  0  0  0  0  0  0  0  0  0
  -32.9645  -15.8667   30.6547 Cl  0  0  0  0  0  0  0  0  0  0  0  0
  1  2  1  0  0  0  0
  1  5  2  0  0  0  0
  2  6  2  0  0  0  0
  3  8  2  0  0  0  0
  3 17  1  0  0  0  0
  4  9  1  0  0  0  0
  4 17  2  0  0  0  0
  5 19  1  0  0  0  0
  6 21  1  0  0  0  0
  7 10  2  0  0  0  0
  7 20  1  0  0  0  0
  8 25  1  0  0  0  0
  9 25  2  0  0  0  0
 10 26  1  0  0  0  0
 11 12  2  0  0  0  0
 11 27  1  0  0  0  0
 12 28  1  0  0  0  0
 13 22  1  0  0  0  0
 13 26  2  0  0  0  0
 14 24  1  0  0  0  0
 14 30  2  0  0  0  0
 15 28  2  0  0  0  0
 15 29  1  0  0  0  0
 16 30  1  0  0  0  0
 16 31  2  0  0  0  0
 17 32  1  0  0  0  0
 18 32  1  0  0  0  0
 18 33  2  0  0  0  0
 18 36  1  0  0  0  0
 19 21  2  0  0  0  0
 19 41  1  0  0  0  0
 20 22  2  0  0  0  0
 20 42  1  0  0  0  0
 21 52  1  0  0  0  0
 22 43  1  0  0  0  0
 23 24  2  0  0  0  0
 23 31  1  0  0  0  0
 23 63  1  0  0  0  0
 24 75  1  0  0  0  0
 25 86  1  0  0  0  0
 26 87  1  0  0  0  0
 27 29  2  0  0  0  0
 27 86  1  0  0  0  0
 28 88  1  0  0  0  0
 29 89  1  0  0  0  0
 30 90  1  0  0  0  0
 31 91  1  0  0  0  0
 32 69  2  0  0  0  0
 33 70  1  0  0  0  0
 33 73  1  0  0  0  0
 34 35  2  0  0  0  0
 34 44  1  0  0  0  0
 34 79  1  0  0  0  0
 35 56  1  0  0  0  0
 36 74  1  0  0  0  0
 36 81  2  0  0  0  0
 37 53  1  0  0  0  0
 37 76  1  0  0  0  0
 37 82  2  0  0  0  0
 38 65  1  0  0  0  0
 38 71  1  0  0  0  0
 38 83  2  0  0  0  0
 39 66  1  0  0  0  0
 39 77  1  0  0  0  0
 39 84  2  0  0  0  0
 40 72  1  0  0  0  0
 40 78  1  0  0  0  0
 40 85  2  0  0  0  0
 41 45  1  0  0  0  0
 42 53  1  0  0  0  0
 43 71  1  0  0  0  0
 44 55  1  0  0  0  0
 45 47  1  0  0  0  0
 46 48  1  0  0  0  0
 46 49  1  0  0  0  0
 47 52  1  0  0  0  0
 48 54  1  0  0  0  0
 49 72  1  0  0  0  0
 50 54  1  0  0  0  0
 50 72  1  0  0  0  0
 51 55  1  0  0  0  0
 51 79  1  0  0  0  0
 52 76  1  0  0  0  0
 53 71  1  0  0  0  0
 54 70  1  0  0  0  0
 55 87  1  0  0  0  0
 57 66  1  0  0  0  0
 58 67  1  0  0  0  0
 59 68  1  0  0  0  0
 60 68  1  0  0  0  0
 61 68  1  0  0  0  0
 62 80  1  0  0  0  0
 63 79  1  0  0  0  0
 64 67  1  0  0  0  0
 64 75  1  0  0  0  0
 65 68  1  0  0  0  0
 65 77  1  0  0  0  0
 66 80  1  0  0  0  0
 67 78  1  0  0  0  0
 69 70  1  0  0  0  0
M  CHG  2  79   1  80   1
M  ISO  4  40 100  55 101  78 100  87 101
M  END
> <Batch ID>
0025

> <Smiles>
CC=C1C[101CH:1]([101O:1]c2ccc3c(c2)CN(C(=O)C(NC(=O)C(C)NC)C(C)(C)C)C(C(=O)NC2CCCc4ccccc42)C3)CN1Cc1c(Cl)cc(Cl)cc1NCC(C)[100NH:0][100C:0](=O)N1CCCC(n2nc(-c3ccc(Oc4ccc(F)cc4F)cc3)c(C(N)=O)c2N)C1

> <Shape>
0.159

> <Color>
0.178

> <Negative vol penalty>
0.000

$$$$

  -OEChem-04042321223D

 93102  0     1  0  0  0  0  0999 V2000
  -27.9974  -31.8693   21.3168 C   0  0  0  0  0  0  0  0  0  0  0  0
  -28.1516  -30.5716   21.7938 C   0  0  0  0  0  0  0  0  0  0  0  0
  -22.5887  -10.3097   20.4216 C   0  0  0  0  0  0  0  0  0  0  0  0
  -24.4004   -9.2124   21.5838 C   0  0  0  0  0  0  0  0  0  0  0  0
  -26.7629  -32.2862   20.8206 C   0  0  0  0  0  0  0  0  0  0  0  0
  -27.0712  -29.6903   21.7758 C   0  0  0  0  0  0  0  0  0  0  0  0
  -28.3434  -25.0914   20.0798 C   0  0  0  0  0  0  0  0  0  0  0  0
  -21.8272   -9.1444   20.5084 C   0  0  0  0  0  0  0  0  0  0  0  0
  -23.6388   -8.0470   21.6706 C   0  0  0  0  0  0  0  0  0  0  0  0
  -29.0082  -24.2467   20.9677 C   0  0  0  0  0  0  0  0  0  0  0  0
  -21.1079   -6.8632   23.5716 C   0  0  0  0  0  0  0  0  0  0  0  0
  -21.0830   -6.1969   24.7968 C   0  0  0  0  0  0  0  0  0  0  0  0
  -26.9346  -23.1004   21.4205 C   0  0  0  0  0  0  0  0  0  0  0  0
  -34.8272  -19.4618   24.0673 C   0  0  0  0  0  0  0  0  0  0  0  0
  -32.5966  -18.5619   23.8403 C   0  0  0  0  0  0  0  0  0  0  0  0
  -34.4933  -17.3109   23.0188 C   0  0  0  0  0  0  0  0  0  0  0  0
  -22.0111   -4.2294   23.7456 C   0  0  0  0  0  0  0  0  0  0  0  0
  -23.8754  -10.3437   20.9593 C   0  0  0  0  0  0  0  0  0  0  0  0
  -24.3438  -12.8130   21.3962 C   0  0  0  0  0  0  0  0  0  0  0  0
  -25.6694  -31.4066   20.7875 C   0  0  0  0  0  0  0  0  0  0  0  0
  -26.9648  -24.9536   19.8634 C   0  0  0  0  0  0  0  0  0  0  0  0
  -25.8206  -30.0962   21.2798 C   0  0  0  0  0  0  0  0  0  0  0  0
  -26.2551  -23.9429   20.5274 C   0  0  0  0  0  0  0  0  0  0  0  0
  -33.4514  -19.5788   24.2654 C   0  0  0  0  0  0  0  0  0  0  0  0
  -35.3481  -18.3279   23.4439 C   0  0  0  0  0  0  0  0  0  0  0  0
  -33.1175  -17.4279   23.2170 C   0  0  0  0  0  0  0  0  0  0  0  0
  -22.3522   -8.0130   21.1329 C   0  0  0  0  0  0  0  0  0  0  0  0
  -28.3033  -23.2529   21.6404 C   0  0  0  0  0  0  0  0  0  0  0  0
  -21.5844   -6.2126   22.4334 C   0  0  0  0  0  0  0  0  0  0  0  0
  -21.5346   -4.8800   24.8838 C   0  0  0  0  0  0  0  0  0  0  0  0
  -22.0360   -4.8958   22.5204 C   0  0  0  0  0  0  0  0  0  0  0  0
  -24.6628  -11.5471   20.8695 C   0  0  0  0  0  0  0  0  0  0  0  0
  -25.4061  -13.6091   21.0438 C   0  0  0  0  0  0  0  0  0  0  0  0
  -31.2083  -16.4532   21.8738 C   0  0  0  0  0  0  0  0  0  0  0  0
  -30.7960  -17.4387   21.0618 C   0  0  0  0  0  0  0  0  0  0  0  0
  -23.1904  -13.2319   22.1378 C   0  0  0  0  0  0  0  0  0  0  0  0
  -30.9319  -14.3605   20.6072 C   0  0  0  0  0  0  0  0  0  0  0  0
  -24.4267  -26.8134   20.3141 C   0  0  0  0  0  0  0  0  0  0  0  0
  -22.8769  -24.4030   18.7940 C   0  0  0  0  0  0  0  0  0  0  0  0
  -30.8939  -21.6362   23.6804 C   0  0  0  0  0  0  0  0  0  0  0  0
  -22.7912  -21.1015   17.9339 C   0  0  0  0  0  0  0  0  0  0  0  0
  -24.3420  -31.9172   20.2855 C   0  0  0  0  0  0  0  0  0  0  0  0
  -26.2674  -25.8555   18.8822 C   0  0  0  0  0  0  0  0  0  0  0  0
  -24.7778  -23.7404   20.3148 C   0  0  0  0  0  0  0  0  0  0  0  0
  -23.3478  -30.8070   19.9550 C   0  0  0  0  0  0  0  0  0  0  0  0
  -29.2462  -12.7757   17.8710 C   0  0  0  0  0  0  0  0  0  0  0  0
  -23.3108  -29.7726   21.0755 C   0  0  0  0  0  0  0  0  0  0  0  0
  -27.8891  -12.3919   18.4592 C   0  0  0  0  0  0  0  0  0  0  0  0
  -31.0667  -14.4092   23.1076 C   0  0  0  0  0  0  0  0  0  0  0  0
  -30.3581  -12.6576   18.9086 C   0  0  0  0  0  0  0  0  0  0  0  0
  -32.4287  -15.0629   23.3573 C   0  0  0  0  0  0  0  0  0  0  0  0
  -28.7521  -13.0566   20.7480 C   0  0  0  0  0  0  0  0  0  0  0  0
  -24.6788  -29.1033   21.2539 C   0  0  1  0  0  0  0  0  0  0  0  0
  -30.5245  -15.1005   21.8563 C   0  0  1  0  0  0  0  0  0  0  0  0
  -24.7650  -25.9566   19.1270 C   0  0  1  0  0  0  0  0  0  0  0  0
  -27.5961  -13.1916   19.7411 C   0  0  2  0  0  0  0  0  0  0  0  0
  -31.4141  -18.7938   21.0186 C   0  0  0  0  0  0  0  0  0  0  0  0
  -21.3797  -19.4177   16.7216 C   0  0  0  0  0  0  0  0  0  0  0  0
  -20.9536  -24.3146   21.1612 C   0  0  0  0  0  0  0  0  0  0  0  0
  -20.1919  -22.0651   20.3688 C   0  0  0  0  0  0  0  0  0  0  0  0
  -19.8649  -24.0713   18.9228 C   0  0  0  0  0  0  0  0  0  0  0  0
  -33.1435  -22.6822   23.3681 C   0  0  0  0  0  0  0  0  0  0  0  0
  -24.9364  -20.5428   15.9730 C   0  0  0  0  0  0  0  0  0  0  0  0
  -38.8207  -18.9234   21.9373 C   0  0  0  0  0  0  0  0  0  0  0  0
  -36.5897  -18.8363   20.8348 C   0  0  0  0  0  0  0  0  0  0  0  0
  -32.8908  -20.7994   24.9363 C   0  0  0  0  0  0  0  0  0  0  0  0
  -36.8191  -18.2029   23.2320 C   0  0  0  0  0  0  0  0  0  0  0  0
  -30.3507  -22.6360   22.6814 C   0  0  0  0  0  0  0  0  0  1  0  0
  -22.1914  -23.1303   19.2295 C   0  0  1  0  0  0  0  0  0  0  0  0
  -22.5241  -20.4127   16.6077 C   0  0  2  0  0  0  0  0  0  0  0  0
  -20.8279  -23.4001   19.9263 C   0  0  0  0  0  0  0  0  0  0  0  0
  -25.8359  -11.5350   20.2309 N   0  0  0  0  0  0  0  0  0  0  0  0
  -26.2633  -12.8031   20.3540 N   0  0  0  0  0  0  0  0  0  0  0  0
  -32.2552  -16.4020   22.7882 N   0  0  0  0  0  0  0  0  0  0  0  0
  -30.0319  -13.4126   20.1197 N   0  0  0  0  0  0  0  0  0  0  0  0
  -24.1397  -24.6515   19.3503 N   0  0  0  0  0  0  0  0  0  0  0  0
  -25.6812  -14.9130   21.2598 N   0  0  0  0  0  0  0  0  0  0  0  0
  -23.2225  -13.1328   23.5354 N   0  0  0  0  0  0  0  0  0  0  0  0
  -24.8941  -28.1105   20.2232 N   0  0  0  0  0  0  0  0  0  0  0  0
  -22.0991  -22.2893   18.0410 N   0  0  0  0  0  0  0  0  0  0  0  0
  -32.2544  -21.7038   23.9822 N   0  0  0  0  0  0  0  0  0  0  0  0
  -23.7392  -19.6812   16.1500 N   0  3  0  0  0  0  0  0  0  0  0  0
  -37.3319  -19.0595   22.1273 N   0  3  0  0  0  0  0  0  0  0  0  0
  -22.1556  -13.6653   21.5766 O   0  0  0  0  0  0  0  0  0  0  0  0
  -32.0167  -14.6207   20.0801 O   0  0  0  0  0  0  0  0  0  0  0  0
  -23.7875  -26.3335   21.2430 O   0  0  0  0  0  0  0  0  0  0  0  0
  -22.3157  -25.1456   17.9845 O   0  0  0  0  0  0  0  0  0  0  0  0
  -30.1170  -20.8192   24.1842 O   0  0  0  0  0  0  0  0  0  0  0  0
  -23.5362  -20.6310   18.7907 O   0  0  0  0  0  0  0  0  0  0  0  0
  -21.6092   -6.8758   21.2180 O   0  0  0  0  0  0  0  0  0  0  0  0
  -28.9496  -22.4276   22.5081 O   0  0  0  0  0  0  0  0  0  1  0  0
  -21.5120   -4.2408   26.0606 F   0  0  0  0  0  0  0  0  0  0  0  0
  -22.4959   -4.2659   21.4307 F   0  0  0  0  0  0  0  0  0  0  0  0
  1  2  1  0  0  0  0
  1  5  2  0  0  0  0
  2  6  2  0  0  0  0
  3  8  2  0  0  0  0
  3 18  1  0  0  0  0
  4  9  1  0  0  0  0
  4 18  2  0  0  0  0
  5 20  1  0  0  0  0
  6 22  1  0  0  0  0
  7 10  2  0  0  0  0
  7 21  1  0  0  0  0
  8 27  1  0  0  0  0
  9 27  2  0  0  0  0
 10 28  1  0  0  0  0
 11 12  2  0  0  0  0
 11 29  1  0  0  0  0
 12 30  1  0  0  0  0
 13 23  1  0  0  0  0
 13 28  2  0  0  0  0
 14 24  2  0  0  0  0
 14 25  1  0  0  0  0
 15 24  1  0  0  0  0
 15 26  2  0  0  0  0
 16 25  2  0  0  0  0
 16 26  1  0  0  0  0
 17 30  2  0  0  0  0
 17 31  1  0  0  0  0
 18 32  1  0  0  0  0
 19 32  1  0  0  0  0
 19 33  2  0  0  0  0
 19 36  1  0  0  0  0
 20 22  2  0  0  0  0
 20 42  1  0  0  0  0
 21 23  2  0  0  0  0
 21 43  1  0  0  0  0
 22 53  1  0  0  0  0
 23 44  1  0  0  0  0
 24 66  1  0  0  0  0
 25 67  1  0  0  0  0
 26 74  1  0  0  0  0
 27 90  1  0  0  0  0
 28 91  1  0  0  0  0
 29 31  2  0  0  0  0
 29 90  1  0  0  0  0
 30 92  1  0  0  0  0
 31 93  1  0  0  0  0
 32 72  2  0  0  0  0
 33 73  1  0  0  0  0
 33 77  1  0  0  0  0
 34 35  2  0  0  0  0
 34 54  1  0  0  0  0
 34 74  1  0  0  0  0
 35 57  1  0  0  0  0
 36 78  1  0  0  0  0
 36 84  2  0  0  0  0
 37 54  1  0  0  0  0
 37 75  1  0  0  0  0
 37 85  2  0  0  0  0
 38 55  1  0  0  0  0
 38 79  1  0  0  0  0
 38 86  2  0  0  0  0
 39 69  1  0  0  0  0
 39 76  1  0  0  0  0
 39 87  2  0  0  0  0
 40 68  1  0  0  0  0
 40 81  1  0  0  0  0
 40 88  2  0  0  0  0
 41 70  1  0  0  0  0
 41 80  1  0  0  0  0
 41 89  2  0  0  0  0
 42 45  1  0  0  0  0
 43 55  1  0  0  0  0
 44 76  1  0  0  0  0
 45 47  1  0  0  0  0
 46 48  1  0  0  0  0
 46 50  1  0  0  0  0
 47 53  1  0  0  0  0
 48 56  1  0  0  0  0
 49 51  1  0  0  0  0
 49 54  1  0  0  0  0
 50 75  1  0  0  0  0
 51 74  1  0  0  0  0
 52 56  1  0  0  0  0
 52 75  1  0  0  0  0
 53 79  1  0  0  0  0
 55 76  1  0  0  0  0
 56 73  1  0  0  0  0
 58 70  1  0  0  0  0
 59 71  1  0  0  0  0
 60 71  1  0  0  0  0
 61 71  1  0  0  0  0
 62 81  1  0  0  0  0
 63 82  1  0  0  0  0
 64 83  1  0  0  0  0
 65 83  1  0  0  0  0
 66 81  1  0  0  0  0
 67 83  1  0  0  0  0
 68 91  1  0  0  0  0
 69 71  1  0  0  0  0
 69 80  1  0  0  0  0
 70 82  1  0  0  0  0
 72 73  1  0  0  0  0
M  CHG  2  82   1  83   1
M  ISO  4  37 100  54 100  68 101  91 101
M  END
> <Batch ID>
0025

> <Smiles>
CC=C1[100CH:0]([100C:0](=O)N2CCCC(n3nc(-c4ccc(Oc5ccc(F)cc5F)cc4)c(C(N)=O)c3N)C2)CCN1c1cc(CN(C)C)cc(CN(C)C(=O)[101CH2:1][101O:1]c2ccc3c(c2)CN(C(=O)C(NC(=O)C(C)NC)C(C)(C)C)C(C(=O)NC2CCCc4ccccc42)C3)c1

> <Shape>
0.268

> <Color>
0.166

> <Negative vol penalty>
0.000

$$$$

  -OEChem-04042321223D

 85 93  0     1  0  0  0  0  0999 V2000
  -27.4410  -31.2841   26.9889 C   0  0  0  0  0  0  0  0  0  0  0  0
  -28.1879  -30.6946   25.9740 C   0  0  0  0  0  0  0  0  0  0  0  0
  -22.9827  -10.1123   19.9037 C   0  0  0  0  0  0  0  0  0  0  0  0
  -23.9438   -9.8302   22.1023 C   0  0  0  0  0  0  0  0  0  0  0  0
  -26.1449  -30.8400   27.2470 C   0  0  0  0  0  0  0  0  0  0  0  0
  -27.6394  -29.6597   25.2173 C   0  0  0  0  0  0  0  0  0  0  0  0
  -28.6077  -28.5298   19.2766 C   0  0  0  0  0  0  0  0  0  0  0  0
  -22.2367   -8.9471   20.0803 C   0  0  0  0  0  0  0  0  0  0  0  0
  -23.1977   -8.6650   22.2789 C   0  0  0  0  0  0  0  0  0  0  0  0
  -29.4528  -27.6385   18.6169 C   0  0  0  0  0  0  0  0  0  0  0  0
  -23.3582   -5.4320   21.3026 C   0  0  0  0  0  0  0  0  0  0  0  0
  -24.0105   -4.3191   21.8330 C   0  0  0  0  0  0  0  0  0  0  0  0
  -27.6369  -26.0612   18.4342 C   0  0  0  0  0  0  0  0  0  0  0  0
  -29.2688  -18.7802   21.3327 C   0  0  0  0  0  0  0  0  0  0  0  0
  -30.2280  -19.1851   18.7445 C   0  0  0  0  0  0  0  0  0  0  0  0
  -22.4725   -4.3057   23.6963 C   0  0  0  0  0  0  0  0  0  0  0  0
  -23.8363  -10.5539   20.9146 C   0  0  0  0  0  0  0  0  0  0  0  0
  -24.2265  -13.0702   21.0679 C   0  0  0  0  0  0  0  0  0  0  0  0
  -25.5767  -29.8056   26.4867 C   0  0  0  0  0  0  0  0  0  0  0  0
  -27.2714  -28.1884   19.5301 C   0  0  0  0  0  0  0  0  0  0  0  0
  -26.3349  -29.2004   25.4663 C   0  0  0  0  0  0  0  0  0  0  0  0
  -26.7762  -26.9509   19.0950 C   0  0  0  0  0  0  0  0  0  0  0  0
  -29.5395  -17.6867   20.5102 C   0  0  0  0  0  0  0  0  0  0  0  0
  -29.9573  -20.2787   19.5670 C   0  0  0  0  0  0  0  0  0  0  0  0
  -22.3442   -8.2234   21.2679 C   0  0  0  0  0  0  0  0  0  0  0  0
  -28.9683  -26.4029   18.1982 C   0  0  0  0  0  0  0  0  0  0  0  0
  -22.2631   -5.9819   21.9690 C   0  0  0  0  0  0  0  0  0  0  0  0
  -23.5676   -3.7559   23.0298 C   0  0  0  0  0  0  0  0  0  0  0  0
  -29.4777  -20.0762   20.8611 C   0  0  0  0  0  0  0  0  0  0  0  0
  -21.8203   -5.4188   23.1658 C   0  0  0  0  0  0  0  0  0  0  0  0
  -30.0191  -17.8891   19.2161 C   0  0  0  0  0  0  0  0  0  0  0  0
  -24.6077  -11.7572   20.7326 C   0  0  0  0  0  0  0  0  0  0  0  0
  -25.2996  -13.8441   20.6990 C   0  0  0  0  0  0  0  0  0  0  0  0
  -23.0111  -13.5476   21.6600 C   0  0  0  0  0  0  0  0  0  0  0  0
  -25.5161  -27.7913   22.1502 C   0  0  0  0  0  0  0  0  0  0  0  0
  -23.0990  -27.4689   20.0109 C   0  0  0  0  0  0  0  0  0  0  0  0
  -22.1269  -26.6911   16.8334 C   0  0  0  0  0  0  0  0  0  0  0  0
  -30.9538  -14.4036   20.8836 C   0  0  0  0  0  0  0  0  0  0  0  0
  -24.1891  -29.3274   26.8339 C   0  0  0  0  0  0  0  0  0  0  0  0
  -26.3656  -29.1718   20.2192 C   0  0  0  0  0  0  0  0  0  0  0  0
  -25.3441  -26.5447   19.3248 C   0  0  0  0  0  0  0  0  0  0  0  0
  -23.5457  -28.4791   25.7399 C   0  0  0  0  0  0  0  0  0  0  0  0
  -29.3993  -12.7328   17.9691 C   0  0  0  0  0  0  0  0  0  0  0  0
  -24.5295  -27.4313   25.2290 C   0  0  0  0  0  0  0  0  0  0  0  0
  -28.0078  -12.3789   18.4912 C   0  0  0  0  0  0  0  0  0  0  0  0
  -30.4297  -12.7878   19.0930 C   0  0  0  0  0  0  0  0  0  0  0  0
  -28.6634  -13.3433   20.7318 C   0  0  0  0  0  0  0  0  0  0  0  0
  -25.7658  -28.0920   24.6074 C   0  0  1  0  0  0  0  0  0  0  0  0
  -25.1597  -28.5115   20.8805 C   0  0  1  0  0  0  0  0  0  0  0  0
  -27.5924  -13.3254   19.6309 C   0  0  2  0  0  0  0  0  0  0  0  0
  -20.0815  -26.4812   15.3948 C   0  0  0  0  0  0  0  0  0  0  0  0
  -22.4226  -24.8188   21.3636 C   0  0  0  0  0  0  0  0  0  0  0  0
  -21.0475  -24.2256   19.3573 C   0  0  0  0  0  0  0  0  0  0  0  0
  -20.4389  -26.2091   20.7422 C   0  0  0  0  0  0  0  0  0  0  0  0
  -31.5157  -16.4519   22.1359 C   0  0  0  0  0  0  0  0  0  0  0  0
  -23.0762  -28.7902   14.9756 C   0  0  0  0  0  0  0  0  0  0  0  0
  -29.3034  -16.3141   21.0531 C   0  0  0  0  0  0  0  0  0  0  0  0
  -30.8309  -23.3682   17.5899 C   0  0  0  0  0  0  0  0  0  0  0  0
  -30.6567  -21.8654   17.7729 C   0  0  0  0  0  0  0  0  0  0  0  0
  -29.5231  -24.1395   17.7238 C   0  0  0  0  0  0  0  0  0  1  0  0
  -22.4838  -26.3133   19.2591 C   0  0  1  0  0  0  0  0  0  0  0  0
  -21.2003  -27.3993   15.8617 C   0  0  2  0  0  0  0  0  0  0  0  0
  -21.6257  -25.3983   20.1778 C   0  0  0  0  0  0  0  0  0  0  0  0
  -25.8276  -11.6966   20.1921 N   0  0  0  0  0  0  0  0  0  0  0  0
  -26.2222  -12.9812   20.1849 N   0  0  0  0  0  0  0  0  0  0  0  0
  -24.4994  -27.5380   20.0084 N   0  0  0  0  0  0  0  0  0  0  0  0
  -29.9901  -13.6604   20.1823 N   0  0  0  0  0  0  0  0  0  0  0  0
  -25.5345  -15.1717   20.7675 N   0  0  0  0  0  0  0  0  0  0  0  0
  -22.0118  -12.6174   21.9767 N   0  0  0  0  0  0  0  0  0  0  0  0
  -30.1648  -21.5657   19.0960 N   0  0  0  0  0  0  0  0  0  0  0  0
  -25.4626  -28.5842   23.2807 N   0  0  0  0  0  0  0  0  0  0  0  0
  -21.7483  -26.8978   18.1430 N   0  0  0  0  0  0  0  0  0  0  0  0
  -30.5493  -15.6394   21.4106 N   0  0  0  0  0  0  0  0  0  0  0  0
  -21.9594  -27.8611   14.6652 N   0  3  0  0  0  0  0  0  0  0  0  0
  -22.8104  -14.7651   21.8859 O   0  0  0  0  0  0  0  0  0  0  0  0
  -25.8158  -26.6039   22.1076 O   0  0  0  0  0  0  0  0  0  0  0  0
  -22.3640  -28.2843   20.5735 O   0  0  0  0  0  0  0  0  0  0  0  0
  -23.0881  -26.0184   16.4671 O   0  0  0  0  0  0  0  0  0  0  0  0
  -32.1123  -13.9906   21.0220 O   0  0  0  0  0  0  0  0  0  0  0  0
  -21.6161   -7.0864   21.4407 O   0  0  0  0  0  0  0  0  0  0  0  0
  -29.7912  -25.5308   17.5546 O   0  0  0  0  0  0  0  0  0  1  0  0
  -24.1932   -2.6861   23.5383 F   0  0  0  0  0  0  0  0  0  0  0  0
  -29.2134  -21.1197   21.6601 F   0  0  0  0  0  0  0  0  0  0  0  0
  -20.7680   -5.9419   23.8099 F   0  0  0  0  0  0  0  0  0  0  0  0
  -30.3645  -16.5604   18.1699 Cl  0  0  0  0  0  0  0  0  0  0  0  0
  1  2  1  0  0  0  0
  1  5  2  0  0  0  0
  2  6  2  0  0  0  0
  3  8  2  0  0  0  0
  3 17  1  0  0  0  0
  4  9  1  0  0  0  0
  4 17  2  0  0  0  0
  5 19  1  0  0  0  0
  6 21  1  0  0  0  0
  7 10  2  0  0  0  0
  7 20  1  0  0  0  0
  8 25  1  0  0  0  0
  9 25  2  0  0  0  0
 10 26  1  0  0  0  0
 11 12  2  0  0  0  0
 11 27  1  0  0  0  0
 12 28  1  0  0  0  0
 13 22  1  0  0  0  0
 13 26  2  0  0  0  0
 14 23  2  0  0  0  0
 14 29  1  0  0  0  0
 15 24  1  0  0  0  0
 15 31  2  0  0  0  0
 16 28  2  0  0  0  0
 16 30  1  0  0  0  0
 17 32  1  0  0  0  0
 18 32  1  0  0  0  0
 18 33  2  0  0  0  0
 18 34  1  0  0  0  0
 19 21  2  0  0  0  0
 19 39  1  0  0  0  0
 20 22  2  0  0  0  0
 20 40  1  0  0  0  0
 21 48  1  0  0  0  0
 22 41  1  0  0  0  0
 23 31  1  0  0  0  0
 23 57  1  0  0  0  0
 24 29  2  0  0  0  0
 24 70  1  0  0  0  0
 25 80  1  0  0  0  0
 26 81  1  0  0  0  0
 27 30  2  0  0  0  0
 27 80  1  0  0  0  0
 28 82  1  0  0  0  0
 29 83  1  0  0  0  0
 30 84  1  0  0  0  0
 31 85  1  0  0  0  0
 32 64  2  0  0  0  0
 33 65  1  0  0  0  0
 33 68  1  0  0  0  0
 34 69  1  0  0  0  0
 34 75  2  0  0  0  0
 35 49  1  0  0  0  0
 35 71  1  0  0  0  0
 35 76  2  0  0  0  0
 36 61  1  0  0  0  0
 36 66  1  0  0  0  0
 36 77  2  0  0  0  0
 37 62  1  0  0  0  0
 37 72  1  0  0  0  0
 37 78  2  0  0  0  0
 38 67  1  0  0  0  0
 38 73  1  0  0  0  0
 38 79  2  0  0  0  0
 39 42  1  0  0  0  0
 40 49  1  0  0  0  0
 41 66  1  0  0  0  0
 42 44  1  0  0  0  0
 43 45  1  0  0  0  0
 43 46  1  0  0  0  0
 44 48  1  0  0  0  0
 45 50  1  0  0  0  0
 46 67  1  0  0  0  0
 47 50  1  0  0  0  0
 47 67  1  0  0  0  0
 48 71  1  0  0  0  0
 49 66  1  0  0  0  0
 50 65  1  0  0  0  0
 51 62  1  0  0  0  0
 52 63  1  0  0  0  0
 53 63  1  0  0  0  0
 54 63  1  0  0  0  0
 55 73  1  0  0  0  0
 56 74  1  0  0  0  0
 57 73  1  0  0  0  0
 58 59  1  0  0  0  0
 58 60  1  0  0  0  0
 59 70  1  0  0  0  0
 60 81  1  0  0  0  0
 61 63  1  0  0  0  0
 61 72  1  0  0  0  0
 62 74  1  0  0  0  0
 64 65  1  0  0  0  0
M  CHG  1  74   1
M  ISO  4  38 100  60 101  73 100  81 101
M  END
> <Batch ID>
0025

> <Smiles>
CNC(C)C(=O)NC(C(=O)N1Cc2cc([101O:1][101CH2:1]CCNc3cc(Cl)c(C[100N:0](C)[100C:0](=O)N4CCCC(n5nc(-c6ccc(Oc7ccc(F)cc7F)cc6)c(C(N)=O)c5N)C4)cc3F)ccc2CC1C(=O)NC1CCCc2ccccc21)C(C)(C)C

> <Shape>
0.337

> <Color>
0.188

> <Negative vol penalty>
0.000

$$$$

  -OEChem-04042321223D

 86 95  0     1  0  0  0  0  0999 V2000
  -16.5148  -27.9551   21.3120 C   0  0  0  0  0  0  0  0  0  0  0  0
  -17.6904  -27.9695   20.5700 C   0  0  0  0  0  0  0  0  0  0  0  0
  -25.8572  -12.7323   20.6420 C   0  0  0  0  0  0  0  0  0  0  0  0
  -25.1093  -14.9314   19.9776 C   0  0  0  0  0  0  0  0  0  0  0  0
  -16.4803  -28.5574   22.5679 C   0  0  0  0  0  0  0  0  0  0  0  0
  -18.8352  -28.5757   21.0886 C   0  0  0  0  0  0  0  0  0  0  0  0
  -25.4077  -27.1789   19.2407 C   0  0  0  0  0  0  0  0  0  0  0  0
  -30.5167  -24.4583   19.9374 C   0  0  0  0  0  0  0  0  0  0  0  0
  -30.4332  -23.0889   20.1888 C   0  0  0  0  0  0  0  0  0  0  0  0
  -24.5418  -12.3741   20.9372 C   0  0  0  0  0  0  0  0  0  0  0  0
  -23.7939  -14.5732   20.2727 C   0  0  0  0  0  0  0  0  0  0  0  0
  -26.7220  -27.0099   18.8047 C   0  0  0  0  0  0  0  0  0  0  0  0
  -22.3286  -12.8692   23.4433 C   0  0  0  0  0  0  0  0  0  0  0  0
  -22.0951  -12.1924   24.6404 C   0  0  0  0  0  0  0  0  0  0  0  0
  -27.4731  -28.6752   20.3892 C   0  0  0  0  0  0  0  0  0  0  0  0
  -32.4529  -23.2082   21.5093 C   0  0  0  0  0  0  0  0  0  0  0  0
  -21.1912  -10.3221   23.4067 C   0  0  0  0  0  0  0  0  0  0  0  0
  -26.1409  -14.0110   20.1622 C   0  0  0  0  0  0  0  0  0  0  0  0
  -28.3569  -13.7742   18.9209 C   0  0  0  0  0  0  0  0  0  0  0  0
  -17.6221  -29.1821   23.0960 C   0  0  0  0  0  0  0  0  0  0  0  0
  -25.1229  -28.0867   20.2645 C   0  0  0  0  0  0  0  0  0  0  0  0
  -18.8270  -29.1682   22.3644 C   0  0  0  0  0  0  0  0  0  0  0  0
  -26.1602  -28.8397   20.8387 C   0  0  0  0  0  0  0  0  0  0  0  0
  -31.5684  -25.2027   20.4718 C   0  0  0  0  0  0  0  0  0  0  0  0
  -31.4012  -22.4638   20.9747 C   0  0  0  0  0  0  0  0  0  0  0  0
  -23.5102  -13.2946   20.7525 C   0  0  0  0  0  0  0  0  0  0  0  0
  -27.7521  -27.7564   19.3774 C   0  0  0  0  0  0  0  0  0  0  0  0
  -21.9933  -12.2724   22.2279 C   0  0  0  0  0  0  0  0  0  0  0  0
  -21.5264  -10.9189   24.6221 C   0  0  0  0  0  0  0  0  0  0  0  0
  -21.4247  -10.9989   22.2096 C   0  0  0  0  0  0  0  0  0  0  0  0
  -32.5364  -24.5776   21.2578 C   0  0  0  0  0  0  0  0  0  0  0  0
  -27.4996  -14.3817   19.8577 C   0  0  0  0  0  0  0  0  0  0  0  0
  -29.5256  -14.4902   19.0101 C   0  0  0  0  0  0  0  0  0  0  0  0
  -30.5747  -28.7991   20.3836 C   0  0  0  0  0  0  0  0  0  0  0  0
  -28.1182  -12.6620   18.0481 C   0  0  0  0  0  0  0  0  0  0  0  0
  -22.5186  -29.6411   22.4730 C   0  0  0  0  0  0  0  0  0  0  0  0
  -24.9892  -29.1447   24.2222 C   0  0  0  0  0  0  0  0  0  0  0  0
  -27.9380  -28.5344   26.2067 C   0  0  0  0  0  0  0  0  0  0  0  0
  -30.3401  -20.1790   20.7794 C   0  0  0  0  0  0  0  0  0  0  0  0
  -17.5311  -29.8119   24.4636 C   0  0  0  0  0  0  0  0  0  0  0  0
  -23.7136  -28.3459   20.7234 C   0  0  0  0  0  0  0  0  0  0  0  0
  -25.8022  -29.8295   21.9134 C   0  0  0  0  0  0  0  0  0  0  0  0
  -30.9633  -27.5231   21.0975 C   0  0  0  0  0  0  0  0  0  0  0  0
  -18.6542  -30.8074   24.7356 C   0  0  0  0  0  0  0  0  0  0  0  0
  -31.7789  -27.3802   17.8696 C   0  0  0  0  0  0  0  0  0  0  0  0
  -31.4577  -17.0222   22.6529 C   0  0  0  0  0  0  0  0  0  0  0  0
  -19.9976  -30.1825   24.3901 C   0  0  0  0  0  0  0  0  0  0  0  0
  -30.9347  -28.6575   17.9135 C   0  0  0  0  0  0  0  0  0  0  0  0
  -31.1818  -15.9766   21.5750 C   0  0  0  0  0  0  0  0  0  0  0  0
  -32.5312  -27.0879   19.1688 C   0  0  0  0  0  0  0  0  0  0  0  0
  -31.6545  -18.4155   22.0691 C   0  0  0  0  0  0  0  0  0  0  0  0
  -29.5736  -17.8131   20.8189 C   0  0  0  0  0  0  0  0  0  0  0  0
  -20.0761  -29.8484   22.8950 C   0  0  1  0  0  0  0  0  0  0  0  0
  -29.8928  -28.7018   19.0274 C   0  0  1  0  0  0  0  0  0  1  0  0
  -23.6150  -28.6461   22.2298 C   0  0  1  0  0  0  0  0  0  0  0  0
  -30.2823  -16.5035   20.4393 C   0  0  2  0  0  0  0  0  0  0  0  0
  -28.2374  -28.4342   28.6962 C   0  0  0  0  0  0  0  0  0  0  0  0
  -25.7411  -32.0890   23.9584 C   0  0  0  0  0  0  0  0  0  0  0  0
  -27.4937  -31.7251   25.7088 C   0  0  0  0  0  0  0  0  0  0  0  0
  -25.0866  -31.3818   26.2662 C   0  0  0  0  0  0  0  0  0  0  0  0
  -29.1317  -25.8296   26.0709 C   0  0  0  0  0  0  0  0  0  0  0  0
  -26.2690  -29.7029   24.7913 C   0  0  1  0  0  0  0  0  0  0  0  0
  -28.0456  -27.6290   27.4204 C   0  0  2  0  0  0  0  0  0  0  0  0
  -26.1475  -31.2091   25.1574 C   0  0  0  0  0  0  0  0  0  0  0  0
  -28.0746  -15.4049   20.4952 N   0  0  0  0  0  0  0  0  0  0  0  0
  -29.3059  -15.4457   19.9582 N   0  0  0  0  0  0  0  0  0  0  0  0
  -31.6250  -26.5739   20.2020 N   0  0  3  0  0  0  0  0  0  0  0  0
  -24.8205  -29.2370   22.8353 N   0  0  0  0  0  0  0  0  0  0  0  0
  -30.5400  -18.8451   21.2120 N   0  0  0  0  0  0  0  0  0  0  0  0
  -30.7095  -14.3894   18.3692 N   0  0  0  0  0  0  0  0  0  0  0  0
  -28.4127  -11.3729   18.5126 N   0  0  0  0  0  0  0  0  0  0  0  0
  -31.3158  -21.0722   21.2299 N   0  0  0  0  0  0  0  0  0  0  0  0
  -21.2712  -29.0725   22.6468 N   0  0  0  0  0  0  0  0  0  0  0  0
  -26.6263  -28.8421   25.9137 N   0  0  0  0  0  0  0  0  0  0  0  0
  -29.2014  -26.6999   27.2728 N   0  3  0  0  0  0  0  0  0  0  0  0
  -30.7977  -29.8982   20.8958 O   0  0  0  0  0  0  0  0  0  0  0  0
  -27.6729  -12.8085   16.8846 O   0  0  0  0  0  0  0  0  0  0  0  0
  -22.7837  -30.8372   22.5025 O   0  0  0  0  0  0  0  0  0  0  0  0
  -24.1575  -28.6450   24.9849 O   0  0  0  0  0  0  0  0  0  0  0  0
  -28.9197  -28.9320   25.5832 O   0  0  0  0  0  0  0  0  0  0  0  0
  -29.3889  -20.4910   20.0600 O   0  0  0  0  0  0  0  0  0  0  0  0
  -22.2265  -12.9453   21.0403 O   0  0  0  0  0  0  0  0  0  0  0  0
  -29.0336  -27.5832   18.9501 O   0  0  0  0  0  0  0  0  0  1  0  0
  -21.3037  -10.2684   25.7717 F   0  0  0  0  0  0  0  0  0  0  0  0
  -21.1016  -10.4200   21.0450 F   0  0  0  0  0  0  0  0  0  0  0  0
  -33.8548  -25.4622   21.9387 Cl  0  0  0  0  0  0  0  0  0  0  0  0
  1  2  1  0  0  0  0
  1  5  2  0  0  0  0
  2  6  2  0  0  0  0
  3 10  2  0  0  0  0
  3 18  1  0  0  0  0
  4 11  1  0  0  0  0
  4 18  2  0  0  0  0
  5 20  1  0  0  0  0
  6 22  1  0  0  0  0
  7 12  2  0  0  0  0
  7 21  1  0  0  0  0
  8  9  2  0  0  0  0
  8 24  1  0  0  0  0
  9 25  1  0  0  0  0
 10 26  1  0  0  0  0
 11 26  2  0  0  0  0
 12 27  1  0  0  0  0
 13 14  2  0  0  0  0
 13 28  1  0  0  0  0
 14 29  1  0  0  0  0
 15 23  1  0  0  0  0
 15 27  2  0  0  0  0
 16 25  2  0  0  0  0
 16 31  1  0  0  0  0
 17 29  2  0  0  0  0
 17 30  1  0  0  0  0
 18 32  1  0  0  0  0
 19 32  1  0  0  0  0
 19 33  2  0  0  0  0
 19 35  1  0  0  0  0
 20 22  2  0  0  0  0
 20 40  1  0  0  0  0
 21 23  2  0  0  0  0
 21 41  1  0  0  0  0
 22 53  1  0  0  0  0
 23 42  1  0  0  0  0
 24 31  2  0  0  0  0
 24 67  1  0  0  0  0
 25 72  1  0  0  0  0
 26 82  1  0  0  0  0
 27 83  1  0  0  0  0
 28 30  2  0  0  0  0
 28 82  1  0  0  0  0
 29 84  1  0  0  0  0
 30 85  1  0  0  0  0
 31 86  1  0  0  0  0
 32 65  2  0  0  0  0
 33 66  1  0  0  0  0
 33 70  1  0  0  0  0
 34 43  1  0  0  0  0
 34 54  1  0  0  0  0
 34 76  2  0  0  0  0
 35 71  1  0  0  0  0
 35 77  2  0  0  0  0
 36 55  1  0  0  0  0
 36 73  1  0  0  0  0
 36 78  2  0  0  0  0
 37 62  1  0  0  0  0
 37 68  1  0  0  0  0
 37 79  2  0  0  0  0
 38 63  1  0  0  0  0
 38 74  1  0  0  0  0
 38 80  2  0  0  0  0
 39 69  1  0  0  0  0
 39 72  1  0  0  0  0
 39 81  2  0  0  0  0
 40 44  1  0  0  0  0
 41 55  1  0  0  0  0
 42 68  1  0  0  0  0
 43 67  1  0  0  0  0
 44 47  1  0  0  0  0
 45 48  1  0  0  0  0
 45 50  1  0  0  0  0
 46 49  1  0  0  0  0
 46 51  1  0  0  0  0
 47 53  1  0  0  0  0
 48 54  1  0  0  0  0
 49 56  1  0  0  0  0
 50 67  1  0  0  0  0
 51 69  1  0  0  0  0
 52 56  1  0  0  0  0
 52 69  1  0  0  0  0
 53 73  1  0  0  0  0
 54 83  1  0  0  0  0
 55 68  1  0  0  0  0
 56 66  1  0  0  0  0
 57 63  1  0  0  0  0
 58 64  1  0  0  0  0
 59 64  1  0  0  0  0
 60 64  1  0  0  0  0
 61 75  1  0  0  0  0
 62 64  1  0  0  0  0
 62 74  1  0  0  0  0
 63 75  1  0  0  0  0
 65 66  1  0  0  0  0
M  CHG  1  75   1
M  ISO  4  39 100  54 101  72 100  83 101
M  END
> <Batch ID>
0025

> <Smiles>
CNC(C)C(=O)NC(C(=O)N1Cc2cc([101O:1][101CH:1]3CCCN(c4ccc([100NH:0][100C:0](=O)N5CCCC(n6nc(-c7ccc(Oc8ccc(F)cc8F)cc7)c(C(N)=O)c6N)C5)cc4Cl)CC3=O)ccc2CC1C(=O)NC1CCCc2ccccc21)C(C)(C)C

> <Shape>
0.323

> <Color>
0.085

> <Negative vol penalty>
0.000

$$$$

  -OEChem-04042321223D

 86 95  0     1  0  0  0  0  0999 V2000
  -24.7835  -38.3103   21.5743 C   0  0  0  0  0  0  0  0  0  0  0  0
  -25.5507  -37.4166   20.8339 C   0  0  0  0  0  0  0  0  0  0  0  0
  -22.7138  -10.5684   22.0234 C   0  0  0  0  0  0  0  0  0  0  0  0
  -22.7479  -10.0289   19.6686 C   0  0  0  0  0  0  0  0  0  0  0  0
  -24.2013  -37.9006   22.7731 C   0  0  0  0  0  0  0  0  0  0  0  0
  -25.7370  -36.1130   21.2924 C   0  0  0  0  0  0  0  0  0  0  0  0
  -26.5910  -29.4184   18.8903 C   0  0  0  0  0  0  0  0  0  0  0  0
  -22.1764   -9.3121   22.3035 C   0  0  0  0  0  0  0  0  0  0  0  0
  -22.2106   -8.7725   19.9487 C   0  0  0  0  0  0  0  0  0  0  0  0
  -27.4481  -28.3270   19.0247 C   0  0  0  0  0  0  0  0  0  0  0  0
  -23.2920   -6.1329   22.5883 C   0  0  0  0  0  0  0  0  0  0  0  0
  -23.8372   -5.4177   23.6545 C   0  0  0  0  0  0  0  0  0  0  0  0
  -26.3286  -27.7075   21.0698 C   0  0  0  0  0  0  0  0  0  0  0  0
  -27.9152  -18.9745   17.8036 C   0  0  0  0  0  0  0  0  0  0  0  0
  -26.2090  -21.1245   18.3027 C   0  0  0  0  0  0  0  0  0  0  0  0
  -21.6797   -5.3938   24.7417 C   0  0  0  0  0  0  0  0  0  0  0  0
  -22.9994  -10.9269   20.7059 C   0  0  0  0  0  0  0  0  0  0  0  0
  -24.7701  -12.7543   20.8876 C   0  0  0  0  0  0  0  0  0  0  0  0
  -24.3725  -36.5885   23.2417 C   0  0  0  0  0  0  0  0  0  0  0  0
  -25.6017  -29.6692   19.8520 C   0  0  0  0  0  0  0  0  0  0  0  0
  -25.1576  -35.6858   22.4993 C   0  0  0  0  0  0  0  0  0  0  0  0
  -25.4586  -28.8013   20.9439 C   0  0  0  0  0  0  0  0  0  0  0  0
  -28.4433  -20.2182   18.1498 C   0  0  0  0  0  0  0  0  0  0  0  0
  -26.5339  -18.8058   17.7069 C   0  0  0  0  0  0  0  0  0  0  0  0
  -27.5902  -21.2932   18.3993 C   0  0  0  0  0  0  0  0  0  0  0  0
  -21.9248   -8.4141   21.2661 C   0  0  0  0  0  0  0  0  0  0  0  0
  -27.3188  -27.4730   20.1161 C   0  0  0  0  0  0  0  0  0  0  0  0
  -21.9407   -6.4786   22.5988 C   0  0  0  0  0  0  0  0  0  0  0  0
  -23.0311   -5.0481   24.7312 C   0  0  0  0  0  0  0  0  0  0  0  0
  -21.1345   -6.1091   23.6754 C   0  0  0  0  0  0  0  0  0  0  0  0
  -25.6808  -19.8807   17.9564 C   0  0  0  0  0  0  0  0  0  0  0  0
  -23.5540  -12.2247   20.4159 C   0  0  0  0  0  0  0  0  0  0  0  0
  -24.8386  -14.0073   20.3292 C   0  0  0  0  0  0  0  0  0  0  0  0
  -25.7502  -12.1662   21.7532 C   0  0  0  0  0  0  0  0  0  0  0  0
  -24.9828  -32.0498   21.8653 C   0  0  0  0  0  0  0  0  0  0  0  0
  -22.2977  -30.3298   22.4606 C   0  0  0  0  0  0  0  0  0  0  0  0
  -20.7348  -27.2961   22.4330 C   0  0  0  0  0  0  0  0  0  0  0  0
  -24.2449  -17.0493   15.5636 C   0  0  0  0  0  0  0  0  0  0  0  0
  -23.7627  -36.2056   24.5669 C   0  0  0  0  0  0  0  0  0  0  0  0
  -24.6678  -30.8355   19.6785 C   0  0  0  0  0  0  0  0  0  0  0  0
  -24.3997  -29.0150   21.9934 C   0  0  0  0  0  0  0  0  0  0  0  0
  -23.6988  -34.6975   24.7949 C   0  0  0  0  0  0  0  0  0  0  0  0
  -21.3685  -16.7300   17.8714 C   0  0  0  0  0  0  0  0  0  0  0  0
  -25.0298  -34.0460   24.4334 C   0  0  0  0  0  0  0  0  0  0  0  0
  -21.7594  -15.5256   18.7262 C   0  0  0  0  0  0  0  0  0  0  0  0
  -21.9856  -16.6606   16.4778 C   0  0  0  0  0  0  0  0  0  0  0  0
  -28.9795  -23.4385   18.0605 C   0  0  0  0  0  0  0  0  0  0  0  0
  -27.6982  -23.5006   19.7271 C   0  0  0  0  0  0  0  0  0  0  0  0
  -23.8553  -15.2890   17.3363 C   0  0  0  0  0  0  0  0  0  0  0  0
  -25.3622  -34.2561   22.9512 C   0  0  1  0  0  0  0  0  0  0  0  0
  -24.0293  -31.2895   20.9875 C   0  0  1  0  0  0  0  0  0  0  0  0
  -28.9110  -24.3481   19.3009 C   0  0  0  0  0  0  0  0  0  0  0  0
  -23.2877  -15.3513   18.7623 C   0  0  2  0  0  0  0  0  0  0  0  0
  -29.9266  -20.3717   18.2447 C   0  0  0  0  0  0  0  0  0  0  0  0
  -18.5542  -26.1982   23.0135 C   0  0  0  0  0  0  0  0  0  0  0  0
  -23.0297  -30.4465   25.4204 C   0  0  0  0  0  0  0  0  0  0  0  0
  -21.4030  -28.5866   25.8244 C   0  0  0  0  0  0  0  0  0  0  0  0
  -20.5985  -30.7733   24.9333 C   0  0  0  0  0  0  0  0  0  0  0  0
  -26.4220  -18.0442   14.9718 C   0  0  0  0  0  0  0  0  0  0  0  0
  -20.2815  -26.4515   19.6330 C   0  0  0  0  0  0  0  0  0  0  0  0
  -26.0080  -17.4578   17.3320 C   0  0  0  0  0  0  0  0  0  0  0  0
  -28.6559  -25.8203   19.0499 C   0  0  0  0  0  0  0  0  0  1  0  0
  -21.9231  -29.2332   23.4281 C   0  0  1  0  0  0  0  0  0  0  0  0
  -19.3707  -26.8704   21.9207 C   0  0  2  0  0  0  0  0  0  0  0  0
  -21.7599  -29.7567   24.8830 C   0  0  0  0  0  0  0  0  0  0  0  0
  -22.8972  -13.0720   19.6193 N   0  0  0  0  0  0  0  0  0  0  0  0
  -23.7034  -14.1467   19.5861 N   0  0  0  0  0  0  0  0  0  0  0  0
  -28.1041  -22.5500   18.7476 N   0  0  0  0  0  0  0  0  0  0  0  0
  -23.5149  -30.1727   21.7827 N   0  0  0  0  0  0  0  0  0  0  0  0
  -23.4325  -16.4514   16.5410 N   0  0  0  0  0  0  0  0  0  0  0  0
  -25.7584  -14.9923   20.4062 N   0  0  0  0  0  0  0  0  0  0  0  0
  -26.7905  -11.4240   21.1776 N   0  0  0  0  0  0  0  0  0  0  0  0
  -24.5923  -33.3492   22.1271 N   0  0  0  0  0  0  0  0  0  0  0  0
  -20.7272  -28.5993   22.8835 N   0  0  0  0  0  0  0  0  0  0  0  0
  -25.5454  -17.4107   15.9466 N   0  0  0  0  0  0  0  0  0  0  0  0
  -19.5184  -25.9130   20.7882 N   0  3  0  0  0  0  0  0  0  0  0  0
  -25.6956  -12.2812   23.0011 O   0  0  0  0  0  0  0  0  0  0  0  0
  -25.9969  -31.4979   22.2760 O   0  0  0  0  0  0  0  0  0  0  0  0
  -21.5349  -31.2870   22.3065 O   0  0  0  0  0  0  0  0  0  0  0  0
  -21.7086  -26.5463   22.4369 O   0  0  0  0  0  0  0  0  0  0  0  0
  -23.8283  -17.2573   14.4169 O   0  0  0  0  0  0  0  0  0  0  0  0
  -21.4007   -7.1880   21.5391 O   0  0  0  0  0  0  0  0  0  0  0  0
  -28.1545  -26.4074   20.2500 O   0  0  0  0  0  0  0  0  0  1  0  0
  -23.5544   -4.3600   25.7543 F   0  0  0  0  0  0  0  0  0  0  0  0
  -19.8354   -6.4373   23.6905 F   0  0  0  0  0  0  0  0  0  0  0  0
  -23.9667  -19.7086   17.8479 Cl  0  0  0  0  0  0  0  0  0  0  0  0
  1  2  1  0  0  0  0
  1  5  2  0  0  0  0
  2  6  2  0  0  0  0
  3  8  2  0  0  0  0
  3 17  1  0  0  0  0
  4  9  1  0  0  0  0
  4 17  2  0  0  0  0
  5 19  1  0  0  0  0
  6 21  1  0  0  0  0
  7 10  2  0  0  0  0
  7 20  1  0  0  0  0
  8 26  1  0  0  0  0
  9 26  2  0  0  0  0
 10 27  1  0  0  0  0
 11 12  2  0  0  0  0
 11 28  1  0  0  0  0
 12 29  1  0  0  0  0
 13 22  1  0  0  0  0
 13 27  2  0  0  0  0
 14 23  1  0  0  0  0
 14 24  2  0  0  0  0
 15 25  1  0  0  0  0
 15 31  2  0  0  0  0
 16 29  2  0  0  0  0
 16 30  1  0  0  0  0
 17 32  1  0  0  0  0
 18 32  1  0  0  0  0
 18 33  2  0  0  0  0
 18 34  1  0  0  0  0
 19 21  2  0  0  0  0
 19 39  1  0  0  0  0
 20 22  2  0  0  0  0
 20 40  1  0  0  0  0
 21 50  1  0  0  0  0
 22 41  1  0  0  0  0
 23 25  2  0  0  0  0
 23 54  1  0  0  0  0
 24 31  1  0  0  0  0
 24 61  1  0  0  0  0
 25 68  1  0  0  0  0
 26 82  1  0  0  0  0
 27 83  1  0  0  0  0
 28 30  2  0  0  0  0
 28 82  1  0  0  0  0
 29 84  1  0  0  0  0
 30 85  1  0  0  0  0
 31 86  1  0  0  0  0
 32 66  2  0  0  0  0
 33 67  1  0  0  0  0
 33 71  1  0  0  0  0
 34 72  1  0  0  0  0
 34 77  2  0  0  0  0
 35 51  1  0  0  0  0
 35 73  1  0  0  0  0
 35 78  2  0  0  0  0
 36 63  1  0  0  0  0
 36 69  1  0  0  0  0
 36 79  2  0  0  0  0
 37 64  1  0  0  0  0
 37 74  1  0  0  0  0
 37 80  2  0  0  0  0
 38 70  1  0  0  0  0
 38 75  1  0  0  0  0
 38 81  2  0  0  0  0
 39 42  1  0  0  0  0
 40 51  1  0  0  0  0
 41 69  1  0  0  0  0
 42 44  1  0  0  0  0
 43 45  1  0  0  0  0
 43 46  1  0  0  0  0
 44 50  1  0  0  0  0
 45 53  1  0  0  0  0
 46 70  1  0  0  0  0
 47 52  1  0  0  0  0
 47 68  1  0  0  0  0
 48 52  1  0  0  0  0
 48 68  1  0  0  0  0
 49 53  1  0  0  0  0
 49 70  1  0  0  0  0
 50 73  1  0  0  0  0
 51 69  1  0  0  0  0
 52 62  1  0  0  0  0
 53 67  1  0  0  0  0
 55 64  1  0  0  0  0
 56 65  1  0  0  0  0
 57 65  1  0  0  0  0
 58 65  1  0  0  0  0
 59 75  1  0  0  0  0
 60 76  1  0  0  0  0
 61 75  1  0  0  0  0
 62 83  1  0  0  0  0
 63 65  1  0  0  0  0
 63 74  1  0  0  0  0
 64 76  1  0  0  0  0
 66 67  1  0  0  0  0
M  CHG  1  76   1
M  ISO  4  38 100  62 101  75 100  83 101
M  END
> <Batch ID>
0025

> <Smiles>
CNC(C)C(=O)NC(C(=O)N1Cc2cc([101O:1][101CH2:1]C3CN(c4cc(Cl)c(C[100N:0](C)[100C:0](=O)N5CCCC(n6nc(-c7ccc(Oc8ccc(F)cc8F)cc7)c(C(N)=O)c6N)C5)cc4C)C3)ccc2CC1C(=O)NC1CCCc2ccccc21)C(C)(C)C

> <Shape>
0.285

> <Color>
0.132

> <Negative vol penalty>
0.000

$$$$

  -OEChem-04042321223D

 85 93  0     1  0  0  0  0  0999 V2000
  -17.7152  -14.6740   22.0360 C   0  0  0  0  0  0  0  0  0  0  0  0
  -18.8627  -15.2706   21.5234 C   0  0  0  0  0  0  0  0  0  0  0  0
  -22.9026  -31.0220   20.8255 C   0  0  0  0  0  0  0  0  0  0  0  0
  -22.7261  -29.1423   22.3330 C   0  0  0  0  0  0  0  0  0  0  0  0
  -17.8240  -13.6369   22.9613 C   0  0  0  0  0  0  0  0  0  0  0  0
  -20.1198  -14.8310   21.9368 C   0  0  0  0  0  0  0  0  0  0  0  0
  -25.2184  -14.5537   18.5555 C   0  0  0  0  0  0  0  0  0  0  0  0
  -21.5202  -31.0035   20.6405 C   0  0  0  0  0  0  0  0  0  0  0  0
  -21.3437  -29.1238   22.1480 C   0  0  0  0  0  0  0  0  0  0  0  0
  -26.3159  -15.4059   18.4416 C   0  0  0  0  0  0  0  0  0  0  0  0
  -18.6594  -30.8456   23.2663 C   0  0  0  0  0  0  0  0  0  0  0  0
  -17.8573  -30.7068   24.3990 C   0  0  0  0  0  0  0  0  0  0  0  0
  -27.5201  -14.0587   20.0399 C   0  0  0  0  0  0  0  0  0  0  0  0
  -29.5939  -22.8847   20.4750 C   0  0  0  0  0  0  0  0  0  0  0  0
  -16.9250  -28.6719   23.4895 C   0  0  0  0  0  0  0  0  0  0  0  0
  -28.3219  -21.9055   22.7567 C   0  0  0  0  0  0  0  0  0  0  0  0
  -23.5056  -30.0914   21.6717 C   0  0  0  0  0  0  0  0  0  0  0  0
  -25.6515  -30.8254   22.8396 C   0  0  0  0  0  0  0  0  0  0  0  0
  -19.0832  -13.1778   23.3790 C   0  0  0  0  0  0  0  0  0  0  0  0
  -25.2596  -13.4519   19.4220 C   0  0  0  0  0  0  0  0  0  0  0  0
  -20.2455  -13.7876   22.8696 C   0  0  0  0  0  0  0  0  0  0  0  0
  -26.4227  -13.1926   20.1610 C   0  0  0  0  0  0  0  0  0  0  0  0
  -29.5521  -21.5114   20.7150 C   0  0  0  0  0  0  0  0  0  0  0  0
  -28.9998  -23.7686   21.3759 C   0  0  0  0  0  0  0  0  0  0  0  0
  -20.7407  -30.0544   21.3017 C   0  0  0  0  0  0  0  0  0  0  0  0
  -27.4659  -15.1602   19.1860 C   0  0  0  0  0  0  0  0  0  0  0  0
  -18.5942  -29.8975   22.2451 C   0  0  0  0  0  0  0  0  0  0  0  0
  -16.9901  -29.6200   24.5106 C   0  0  0  0  0  0  0  0  0  0  0  0
  -28.9161  -21.0217   21.8558 C   0  0  0  0  0  0  0  0  0  0  0  0
  -28.3637  -23.2790   22.5167 C   0  0  0  0  0  0  0  0  0  0  0  0
  -17.7270  -28.8107   22.3568 C   0  0  0  0  0  0  0  0  0  0  0  0
  -24.9336  -30.1097   21.8628 C   0  0  0  0  0  0  0  0  0  0  0  0
  -26.9663  -30.5087   22.6001 C   0  0  0  0  0  0  0  0  0  0  0  0
  -25.1726  -31.6983   23.8713 C   0  0  0  0  0  0  0  0  0  0  0  0
  -23.6172  -12.5568   21.9920 C   0  0  0  0  0  0  0  0  0  0  0  0
  -25.3761   -9.8478   21.6923 C   0  0  0  0  0  0  0  0  0  0  0  0
  -29.3399  -18.2367   19.3837 C   0  0  0  0  0  0  0  0  0  0  0  0
  -28.2122   -8.3489   20.5275 C   0  0  0  0  0  0  0  0  0  0  0  0
  -29.6342  -25.8117   20.0457 C   0  0  0  0  0  0  0  0  0  0  0  0
  -19.1500  -12.0856   24.4169 C   0  0  0  0  0  0  0  0  0  0  0  0
  -24.0771  -12.5269   19.5134 C   0  0  0  0  0  0  0  0  0  0  0  0
  -26.5251  -12.0117   21.0902 C   0  0  0  0  0  0  0  0  0  0  0  0
  -20.5232  -11.4269   24.5204 C   0  0  0  0  0  0  0  0  0  0  0  0
  -29.9231  -29.2208   19.0599 C   0  0  0  0  0  0  0  0  0  0  0  0
  -21.6213  -12.4850   24.5597 C   0  0  0  0  0  0  0  0  0  0  0  0
  -28.7453  -29.9019   19.7606 C   0  0  0  0  0  0  0  0  0  0  0  0
  -29.5620  -27.8165   18.5791 C   0  0  0  0  0  0  0  0  0  0  0  0
  -27.8193  -27.6151   20.3088 C   0  0  0  0  0  0  0  0  0  0  0  0
  -21.6272  -13.3219   23.2748 C   0  0  1  0  0  0  0  0  0  0  0  0
  -24.0421  -11.7283   20.8127 C   0  0  1  0  0  0  0  0  0  0  0  0
  -28.1547  -29.0074   20.8682 C   0  0  2  0  0  0  0  0  0  0  0  0
  -29.3873   -6.1324   20.4694 C   0  0  0  0  0  0  0  0  0  0  0  0
  -26.2100  -10.2164   24.6042 C   0  0  0  0  0  0  0  0  0  0  0  0
  -28.0656   -8.5833   24.2068 C   0  0  0  0  0  0  0  0  0  0  0  0
  -25.6923   -7.8565   23.9580 C   0  0  0  0  0  0  0  0  0  0  0  0
  -28.1441  -20.2106   18.4213 C   0  0  0  0  0  0  0  0  0  0  0  0
  -28.1257   -8.2496   17.5708 C   0  0  0  0  0  0  0  0  0  0  0  0
  -30.1925  -20.5624   19.7436 C   0  0  0  0  0  0  0  0  0  0  0  0
  -28.2722  -17.3579   18.7669 C   0  0  0  0  0  0  0  0  0  1  0  0
  -26.7121   -9.3773   22.2146 C   0  0  1  0  0  0  0  0  0  0  0  0
  -28.4249   -7.0634   19.7485 C   0  0  2  0  0  0  0  0  0  0  0  0
  -26.6677   -9.0318   23.7299 C   0  0  0  0  0  0  0  0  0  0  0  0
  -25.7267  -29.3926   21.0623 N   0  0  0  0  0  0  0  0  0  0  0  0
  -26.9565  -29.6561   21.5357 N   0  0  0  0  0  0  0  0  0  0  0  0
  -25.3401  -11.1401   21.1497 N   0  0  0  0  0  0  0  0  0  0  0  0
  -29.0130  -27.0254   19.6826 N   0  0  0  0  0  0  0  0  0  0  0  0
  -28.1184  -30.8793   23.1983 N   0  0  0  0  0  0  0  0  0  0  0  0
  -23.7917  -31.9135   23.9767 N   0  0  0  0  0  0  0  0  0  0  0  0
  -29.0434  -25.1633   21.1297 N   0  0  0  0  0  0  0  0  0  0  0  0
  -22.2507  -12.5865   22.1955 N   0  0  0  0  0  0  0  0  0  0  0  0
  -27.1161   -8.2661   21.3600 N   0  0  0  0  0  0  0  0  0  0  0  0
  -29.2293  -19.6140   19.1903 N   0  0  0  0  0  0  0  0  0  0  0  0
  -28.9820   -7.3618   18.3988 N   0  3  0  0  0  0  0  0  0  0  0  0
  -25.9475  -32.2834   24.6655 O   0  0  0  0  0  0  0  0  0  0  0  0
  -24.4662  -13.1257   22.6681 O   0  0  0  0  0  0  0  0  0  0  0  0
  -24.4020   -9.0937   21.7567 O   0  0  0  0  0  0  0  0  0  0  0  0
  -30.2471  -17.7032   20.0296 O   0  0  0  0  0  0  0  0  0  0  0  0
  -28.9471   -9.3272   20.4119 O   0  0  0  0  0  0  0  0  0  0  0  0
  -30.6342  -25.3930   19.4569 O   0  0  0  0  0  0  0  0  0  0  0  0
  -19.3918  -30.0362   21.1216 O   0  0  0  0  0  0  0  0  0  0  0  0
  -28.5384  -15.9908   19.0773 O   0  0  0  0  0  0  0  0  0  1  0  0
  -16.2211  -29.4861   25.5991 F   0  0  0  0  0  0  0  0  0  0  0  0
  -28.8701  -19.7036   22.0945 F   0  0  0  0  0  0  0  0  0  0  0  0
  -27.7899  -24.1190   23.3898 F   0  0  0  0  0  0  0  0  0  0  0  0
  -17.6609  -27.8960   21.3796 F   0  0  0  0  0  0  0  0  0  0  0  0
  1  2  1  0  0  0  0
  1  5  2  0  0  0  0
  2  6  2  0  0  0  0
  3  8  2  0  0  0  0
  3 17  1  0  0  0  0
  4  9  1  0  0  0  0
  4 17  2  0  0  0  0
  5 19  1  0  0  0  0
  6 21  1  0  0  0  0
  7 10  2  0  0  0  0
  7 20  1  0  0  0  0
  8 25  1  0  0  0  0
  9 25  2  0  0  0  0
 10 26  1  0  0  0  0
 11 12  2  0  0  0  0
 11 27  1  0  0  0  0
 12 28  1  0  0  0  0
 13 22  1  0  0  0  0
 13 26  2  0  0  0  0
 14 23  1  0  0  0  0
 14 24  2  0  0  0  0
 15 28  2  0  0  0  0
 15 31  1  0  0  0  0
 16 29  1  0  0  0  0
 16 30  2  0  0  0  0
 17 32  1  0  0  0  0
 18 32  1  0  0  0  0
 18 33  2  0  0  0  0
 18 34  1  0  0  0  0
 19 21  2  0  0  0  0
 19 40  1  0  0  0  0
 20 22  2  0  0  0  0
 20 41  1  0  0  0  0
 21 49  1  0  0  0  0
 22 42  1  0  0  0  0
 23 29  2  0  0  0  0
 23 58  1  0  0  0  0
 24 30  1  0  0  0  0
 24 69  1  0  0  0  0
 25 80  1  0  0  0  0
 26 81  1  0  0  0  0
 27 31  2  0  0  0  0
 27 80  1  0  0  0  0
 28 82  1  0  0  0  0
 29 83  1  0  0  0  0
 30 84  1  0  0  0  0
 31 85  1  0  0  0  0
 32 63  2  0  0  0  0
 33 64  1  0  0  0  0
 33 67  1  0  0  0  0
 34 68  1  0  0  0  0
 34 74  2  0  0  0  0
 35 50  1  0  0  0  0
 35 70  1  0  0  0  0
 35 75  2  0  0  0  0
 36 60  1  0  0  0  0
 36 65  1  0  0  0  0
 36 76  2  0  0  0  0
 37 59  1  0  0  0  0
 37 72  1  0  0  0  0
 37 77  2  0  0  0  0
 38 61  1  0  0  0  0
 38 71  1  0  0  0  0
 38 78  2  0  0  0  0
 39 66  1  0  0  0  0
 39 69  1  0  0  0  0
 39 79  2  0  0  0  0
 40 43  1  0  0  0  0
 41 50  1  0  0  0  0
 42 65  1  0  0  0  0
 43 45  1  0  0  0  0
 44 46  1  0  0  0  0
 44 47  1  0  0  0  0
 45 49  1  0  0  0  0
 46 51  1  0  0  0  0
 47 66  1  0  0  0  0
 48 51  1  0  0  0  0
 48 66  1  0  0  0  0
 49 70  1  0  0  0  0
 50 65  1  0  0  0  0
 51 64  1  0  0  0  0
 52 61  1  0  0  0  0
 53 62  1  0  0  0  0
 54 62  1  0  0  0  0
 55 62  1  0  0  0  0
 56 72  1  0  0  0  0
 57 73  1  0  0  0  0
 58 72  1  0  0  0  0
 59 81  1  0  0  0  0
 60 62  1  0  0  0  0
 60 71  1  0  0  0  0
 61 73  1  0  0  0  0
 63 64  1  0  0  0  0
M  CHG  1  73   1
M  ISO  4  39 100  59 101  69 100  81 101
M  END
> <Batch ID>
0025

> <Smiles>
CNC(C)C(=O)NC(C(=O)N1Cc2cc([101O:1][101CH2:1]C(=O)N(C)Cc3cc([100NH:0][100C:0](=O)N4CCCC(n5nc(-c6ccc(Oc7ccc(F)cc7F)cc6)c(C(N)=O)c5N)C4)c(F)cc3F)ccc2CC1C(=O)NC1CCCc2ccccc21)C(C)(C)C

> <Shape>
0.280

> <Color>
0.092

> <Negative vol penalty>
0.000

$$$$

  -OEChem-04042321223D

 86 95  0     1  0  0  0  0  0999 V2000
  -26.1713  -33.8917   25.5608 C   0  0  0  0  0  0  0  0  0  0  0  0
  -26.7005  -32.7795   24.9138 C   0  0  0  0  0  0  0  0  0  0  0  0
  -27.1054  -12.6392   21.6558 C   0  0  0  0  0  0  0  0  0  0  0  0
  -26.4980  -14.0816   19.8153 C   0  0  0  0  0  0  0  0  0  0  0  0
  -24.8884  -33.8359   26.1039 C   0  0  0  0  0  0  0  0  0  0  0  0
  -25.9473  -31.6106   24.8105 C   0  0  0  0  0  0  0  0  0  0  0  0
  -26.1357  -29.5818   20.1744 C   0  0  0  0  0  0  0  0  0  0  0  0
  -26.2972  -11.6303   21.1318 C   0  0  0  0  0  0  0  0  0  0  0  0
  -25.6898  -13.0727   19.2913 C   0  0  0  0  0  0  0  0  0  0  0  0
  -27.2829  -28.8636   19.8398 C   0  0  0  0  0  0  0  0  0  0  0  0
  -23.0044  -10.8732   21.0389 C   0  0  0  0  0  0  0  0  0  0  0  0
  -22.1709  -10.1872   21.9222 C   0  0  0  0  0  0  0  0  0  0  0  0
  -26.1165  -26.8012   20.2925 C   0  0  0  0  0  0  0  0  0  0  0  0
  -27.4174  -24.2047   23.0129 C   0  0  0  0  0  0  0  0  0  0  0  0
  -28.9739  -23.8175   20.7303 C   0  0  0  0  0  0  0  0  0  0  0  0
  -23.2760   -8.1148   21.3554 C   0  0  0  0  0  0  0  0  0  0  0  0
  -27.2057  -13.8649   20.9976 C   0  0  0  0  0  0  0  0  0  0  0  0
  -29.4024  -15.1338   21.2660 C   0  0  0  0  0  0  0  0  0  0  0  0
  -24.1154  -32.6689   25.9986 C   0  0  0  0  0  0  0  0  0  0  0  0
  -24.9717  -28.9143   20.5817 C   0  0  0  0  0  0  0  0  0  0  0  0
  -24.6533  -31.5388   25.3538 C   0  0  0  0  0  0  0  0  0  0  0  0
  -24.9551  -27.5130   20.6292 C   0  0  0  0  0  0  0  0  0  0  0  0
  -28.5261  -25.0180   22.7786 C   0  0  0  0  0  0  0  0  0  0  0  0
  -27.0869  -23.1978   22.1059 C   0  0  0  0  0  0  0  0  0  0  0  0
  -29.3043  -24.8244   21.6373 C   0  0  0  0  0  0  0  0  0  0  0  0
  -25.5895  -11.8470   19.9496 C   0  0  0  0  0  0  0  0  0  0  0  0
  -27.2743  -27.4732   19.9016 C   0  0  0  0  0  0  0  0  0  0  0  0
  -23.9737  -10.1800   20.3138 C   0  0  0  0  0  0  0  0  0  0  0  0
  -22.3067   -8.8080   22.0805 C   0  0  0  0  0  0  0  0  0  0  0  0
  -24.1095   -8.8008   20.4721 C   0  0  0  0  0  0  0  0  0  0  0  0
  -27.8652  -23.0042   20.9647 C   0  0  0  0  0  0  0  0  0  0  0  0
  -28.0399  -14.9077   21.5386 C   0  0  0  0  0  0  0  0  0  0  0  0
  -29.7256  -16.2347   22.0210 C   0  0  0  0  0  0  0  0  0  0  0  0
  -30.2960  -14.4132   20.4070 C   0  0  0  0  0  0  0  0  0  0  0  0
  -23.2256  -28.8675   23.2374 C   0  0  0  0  0  0  0  0  0  0  0  0
  -21.2493  -27.0266   21.4409 C   0  0  0  0  0  0  0  0  0  0  0  0
  -20.8720  -24.9236   18.7797 C   0  0  0  0  0  0  0  0  0  0  0  0
  -26.4870  -20.7683   24.2141 C   0  0  0  0  0  0  0  0  0  0  0  0
  -22.7519  -32.6407   26.6427 C   0  0  0  0  0  0  0  0  0  0  0  0
  -23.7343  -29.7024   20.9136 C   0  0  0  0  0  0  0  0  0  0  0  0
  -23.7247  -26.7480   21.0408 C   0  0  0  0  0  0  0  0  0  0  0  0
  -21.8751  -31.4871   26.1624 C   0  0  0  0  0  0  0  0  0  0  0  0
  -28.5100  -18.4930   26.0600 C   0  0  0  0  0  0  0  0  0  0  0  0
  -32.7056  -26.0934   21.4307 C   0  0  0  0  0  0  0  0  0  0  0  0
  -22.6646  -30.1818   26.1597 C   0  0  0  0  0  0  0  0  0  0  0  0
  -28.7419  -17.3365   25.0860 C   0  0  0  0  0  0  0  0  0  0  0  0
  -32.0577  -26.9884   20.3892 C   0  0  0  0  0  0  0  0  0  0  0  0
  -31.5343  -25.6883   22.3173 C   0  0  0  0  0  0  0  0  0  0  0  0
  -27.1072  -19.0790   25.9166 C   0  0  0  0  0  0  0  0  0  0  0  0
  -26.9750  -18.3297   23.5725 C   0  0  0  0  0  0  0  0  0  0  0  0
  -23.8577  -30.2607   25.1996 C   0  0  1  0  0  0  0  0  0  0  0  0
  -22.7629  -28.9403   21.8097 C   0  0  1  0  0  0  0  0  0  0  0  0
  -28.3952  -17.7425   23.6409 C   0  0  2  0  0  0  0  0  0  0  0  0
  -30.6896  -26.3313   20.1362 C   0  0  2  0  0  0  0  0  0  0  0  0
  -28.8585  -26.0881   23.7671 C   0  0  0  0  0  0  0  0  0  0  0  0
  -19.1461  -23.5485   17.5849 C   0  0  0  0  0  0  0  0  0  0  0  0
  -21.3750  -24.9411   23.6646 C   0  0  0  0  0  0  0  0  0  0  0  0
  -20.4555  -23.2643   22.0488 C   0  0  0  0  0  0  0  0  0  0  0  0
  -19.1047  -25.2679   22.6680 C   0  0  0  0  0  0  0  0  0  0  0  0
  -21.2295  -26.4467   16.2674 C   0  0  0  0  0  0  0  0  0  0  0  0
  -25.8922  -22.3471   22.3940 C   0  0  0  0  0  0  0  0  0  0  0  0
  -29.6500  -27.4008   19.8172 C   0  0  0  0  0  0  0  0  0  1  0  0
  -21.1205  -25.5474   21.1679 C   0  0  1  0  0  0  0  0  0  0  0  0
  -19.8516  -24.8938   17.6562 C   0  0  2  0  0  0  0  0  0  0  0  0
  -20.5379  -24.7694   22.3814 C   0  0  0  0  0  0  0  0  0  0  0  0
  -27.5325  -15.7936   22.3998 N   0  0  0  0  0  0  0  0  0  0  0  0
  -28.5817  -16.5871   22.6749 N   0  0  0  0  0  0  0  0  0  0  0  0
  -30.4055  -25.6199   21.3906 N   0  0  3  0  0  0  0  0  0  0  0  0
  -22.5419  -27.5638   21.3618 N   0  0  0  0  0  0  0  0  0  0  0  0
  -26.8420  -19.4448   24.5231 N   0  0  0  0  0  0  0  0  0  0  0  0
  -30.8738  -16.9259   22.1829 N   0  0  0  0  0  0  0  0  0  0  0  0
  -29.8001  -13.3066   19.7043 N   0  0  0  0  0  0  0  0  0  0  0  0
  -23.4162  -30.1009   23.8307 N   0  0  0  0  0  0  0  0  0  0  0  0
  -20.3332  -25.4249   19.9457 N   0  0  0  0  0  0  0  0  0  0  0  0
  -26.2592  -21.0316   22.8690 N   0  0  0  0  0  0  0  0  0  0  0  0
  -20.5159  -25.1461   16.3462 N   0  3  0  0  0  0  0  0  0  0  0  0
  -31.5027  -14.7311   20.2793 O   0  0  0  0  0  0  0  0  0  0  0  0
  -23.3956  -27.7733   23.7624 O   0  0  0  0  0  0  0  0  0  0  0  0
  -20.2392  -27.6826   21.7072 O   0  0  0  0  0  0  0  0  0  0  0  0
  -22.0300  -24.5371   18.6382 O   0  0  0  0  0  0  0  0  0  0  0  0
  -26.3861  -21.6511   25.0728 O   0  0  0  0  0  0  0  0  0  0  0  0
  -24.8009  -10.8627   19.4378 O   0  0  0  0  0  0  0  0  0  0  0  0
  -28.3929  -26.7699   19.5761 O   0  0  0  0  0  0  0  0  0  1  0  0
  -21.5072   -8.1496   22.9299 F   0  0  0  0  0  0  0  0  0  0  0  0
  -25.0396   -8.1297   19.7792 F   0  0  0  0  0  0  0  0  0  0  0  0
  -27.4856  -21.7693   19.8198 Cl  0  0  0  0  0  0  0  0  0  0  0  0
  1  2  1  0  0  0  0
  1  5  2  0  0  0  0
  2  6  2  0  0  0  0
  3  8  2  0  0  0  0
  3 17  1  0  0  0  0
  4  9  1  0  0  0  0
  4 17  2  0  0  0  0
  5 19  1  0  0  0  0
  6 21  1  0  0  0  0
  7 10  2  0  0  0  0
  7 20  1  0  0  0  0
  8 26  1  0  0  0  0
  9 26  2  0  0  0  0
 10 27  1  0  0  0  0
 11 12  2  0  0  0  0
 11 28  1  0  0  0  0
 12 29  1  0  0  0  0
 13 22  1  0  0  0  0
 13 27  2  0  0  0  0
 14 23  1  0  0  0  0
 14 24  2  0  0  0  0
 15 25  1  0  0  0  0
 15 31  2  0  0  0  0
 16 29  2  0  0  0  0
 16 30  1  0  0  0  0
 17 32  1  0  0  0  0
 18 32  1  0  0  0  0
 18 33  2  0  0  0  0
 18 34  1  0  0  0  0
 19 21  2  0  0  0  0
 19 39  1  0  0  0  0
 20 22  2  0  0  0  0
 20 40  1  0  0  0  0
 21 51  1  0  0  0  0
 22 41  1  0  0  0  0
 23 25  2  0  0  0  0
 23 55  1  0  0  0  0
 24 31  1  0  0  0  0
 24 61  1  0  0  0  0
 25 68  1  0  0  0  0
 26 82  1  0  0  0  0
 27 83  1  0  0  0  0
 28 30  2  0  0  0  0
 28 82  1  0  0  0  0
 29 84  1  0  0  0  0
 30 85  1  0  0  0  0
 31 86  1  0  0  0  0
 32 66  2  0  0  0  0
 33 67  1  0  0  0  0
 33 71  1  0  0  0  0
 34 72  1  0  0  0  0
 34 77  2  0  0  0  0
 35 52  1  0  0  0  0
 35 73  1  0  0  0  0
 35 78  2  0  0  0  0
 36 63  1  0  0  0  0
 36 69  1  0  0  0  0
 36 79  2  0  0  0  0
 37 64  1  0  0  0  0
 37 74  1  0  0  0  0
 37 80  2  0  0  0  0
 38 70  1  0  0  0  0
 38 75  1  0  0  0  0
 38 81  2  0  0  0  0
 39 42  1  0  0  0  0
 40 52  1  0  0  0  0
 41 69  1  0  0  0  0
 42 45  1  0  0  0  0
 43 46  1  0  0  0  0
 43 49  1  0  0  0  0
 44 47  1  0  0  0  0
 44 48  1  0  0  0  0
 45 51  1  0  0  0  0
 46 53  1  0  0  0  0
 47 54  1  0  0  0  0
 48 68  1  0  0  0  0
 49 70  1  0  0  0  0
 50 53  1  0  0  0  0
 50 70  1  0  0  0  0
 51 73  1  0  0  0  0
 52 69  1  0  0  0  0
 53 67  1  0  0  0  0
 54 62  1  0  0  0  0
 54 68  1  0  0  0  0
 56 64  1  0  0  0  0
 57 65  1  0  0  0  0
 58 65  1  0  0  0  0
 59 65  1  0  0  0  0
 60 76  1  0  0  0  0
 61 75  1  0  0  0  0
 62 83  1  0  0  0  0
 63 65  1  0  0  0  0
 63 74  1  0  0  0  0
 64 76  1  0  0  0  0
 66 67  1  0  0  0  0
M  CHG  1  76   1
M  ISO  4  38 100  62 101  75 100  83 101
M  END
> <Batch ID>
0025

> <Smiles>
CNC(C)C(=O)NC(C(=O)N1Cc2cc([101O:1][101CH2:1]C3CCCN3c3cc(Cl)c(C[100NH:0][100C:0](=O)N4CCCC(n5nc(-c6ccc(Oc7ccc(F)cc7F)cc6)c(C(N)=O)c5N)C4)cc3C)ccc2CC1C(=O)NC1CCCc2ccccc21)C(C)(C)C

> <Shape>
0.249

> <Color>
0.082

> <Negative vol penalty>
0.000

$$$$

  -OEChem-04042321223D

 85 93  0     1  0  0  0  0  0999 V2000
  -25.6855  -24.2017   12.4158 C   0  0  0  0  0  0  0  0  0  0  0  0
  -25.8703  -23.6025   13.6576 C   0  0  0  0  0  0  0  0  0  0  0  0
  -23.0011   -9.9018   19.9706 C   0  0  0  0  0  0  0  0  0  0  0  0
  -23.7337   -9.9316   22.2726 C   0  0  0  0  0  0  0  0  0  0  0  0
  -26.4265  -25.3313   12.0710 C   0  0  0  0  0  0  0  0  0  0  0  0
  -26.7971  -24.1318   14.5550 C   0  0  0  0  0  0  0  0  0  0  0  0
  -26.3466  -24.2670   20.6611 C   0  0  0  0  0  0  0  0  0  0  0  0
  -32.0684  -16.5329   22.5849 C   0  0  0  0  0  0  0  0  0  0  0  0
  -22.2351   -8.7652   20.2290 C   0  0  0  0  0  0  0  0  0  0  0  0
  -22.9677   -8.7949   22.5311 C   0  0  0  0  0  0  0  0  0  0  0  0
  -26.8792  -23.4522   21.6592 C   0  0  0  0  0  0  0  0  0  0  0  0
  -23.2094   -5.4604   22.0280 C   0  0  0  0  0  0  0  0  0  0  0  0
  -23.7991   -4.4362   22.7689 C   0  0  0  0  0  0  0  0  0  0  0  0
  -32.6600  -17.4228   23.4815 C   0  0  0  0  0  0  0  0  0  0  0  0
  -29.8922  -17.4278   23.1327 C   0  0  0  0  0  0  0  0  0  0  0  0
  -28.7060  -25.0022   21.9413 C   0  0  0  0  0  0  0  0  0  0  0  0
  -22.0807   -4.6643   24.4518 C   0  0  0  0  0  0  0  0  0  0  0  0
  -23.7505  -10.4850   20.9924 C   0  0  0  0  0  0  0  0  0  0  0  0
  -30.4837  -18.3177   24.0293 C   0  0  0  0  0  0  0  0  0  0  0  0
  -24.1360  -13.0020   20.8381 C   0  0  0  0  0  0  0  0  0  0  0  0
  -27.3559  -25.8805   12.9683 C   0  0  0  0  0  0  0  0  0  0  0  0
  -26.9966  -25.4521   20.2874 C   0  0  0  0  0  0  0  0  0  0  0  0
  -27.5522  -25.2690   14.2213 C   0  0  0  0  0  0  0  0  0  0  0  0
  -28.1782  -25.8316   20.9400 C   0  0  0  0  0  0  0  0  0  0  0  0
  -30.6845  -16.5355   22.4105 C   0  0  0  0  0  0  0  0  0  0  0  0
  -22.2183   -8.2117   21.5093 C   0  0  0  0  0  0  0  0  0  0  0  0
  -28.0606  -23.8183   22.2974 C   0  0  0  0  0  0  0  0  0  0  0  0
  -22.0554   -6.0866   22.4990 C   0  0  0  0  0  0  0  0  0  0  0  0
  -23.2348   -4.0381   23.9808 C   0  0  0  0  0  0  0  0  0  0  0  0
  -21.4911   -5.6885   23.7109 C   0  0  0  0  0  0  0  0  0  0  0  0
  -31.8677  -18.3151   24.2037 C   0  0  0  0  0  0  0  0  0  0  0  0
  -24.5424  -11.6589   20.7259 C   0  0  0  0  0  0  0  0  0  0  0  0
  -25.2448  -13.7276   20.4767 C   0  0  0  0  0  0  0  0  0  0  0  0
  -29.6173  -19.2457   24.7732 C   0  0  0  0  0  0  0  0  0  0  0  0
  -22.8694  -13.5452   21.2337 C   0  0  0  0  0  0  0  0  0  0  0  0
  -28.3151  -26.5379   17.6067 C   0  0  0  0  0  0  0  0  0  0  0  0
  -28.6260  -29.2705   19.3268 C   0  0  0  0  0  0  0  0  0  0  0  0
  -28.8486  -30.7551   22.3916 C   0  0  0  0  0  0  0  0  0  0  0  0
  -30.7253  -14.6850   20.7016 C   0  0  0  0  0  0  0  0  0  0  0  0
  -28.1677  -27.0745   12.5325 C   0  0  0  0  0  0  0  0  0  0  0  0
  -26.3949  -26.3335   19.2275 C   0  0  0  0  0  0  0  0  0  0  0  0
  -28.9038  -27.1041   20.5898 C   0  0  0  0  0  0  0  0  0  0  0  0
  -28.8598  -27.7947   13.6868 C   0  0  0  0  0  0  0  0  0  0  0  0
  -29.5987  -12.2537   18.3570 C   0  0  0  0  0  0  0  0  0  0  0  0
  -29.5474  -26.7909   14.6068 C   0  0  0  0  0  0  0  0  0  0  0  0
  -28.1494  -11.9927   18.7735 C   0  0  0  0  0  0  0  0  0  0  0  0
  -30.5032  -12.4858   19.5661 C   0  0  0  0  0  0  0  0  0  0  0  0
  -28.5924  -13.2630   20.9129 C   0  0  0  0  0  0  0  0  0  0  0  0
  -28.5302  -25.8284   15.2316 C   0  0  1  0  0  0  0  0  0  0  0  0
  -27.4145  -27.2583   18.5698 C   0  0  1  0  0  0  0  0  0  0  0  0
  -27.6309  -13.0878   19.7262 C   0  0  2  0  0  0  0  0  0  0  0  0
  -29.1352  -32.9995   23.4771 C   0  0  0  0  0  0  0  0  0  0  0  0
  -30.8328  -23.0107   24.1384 C   0  0  0  0  0  0  0  0  0  0  0  0
  -31.5924  -29.2340   18.6135 C   0  0  0  0  0  0  0  0  0  0  0  0
  -31.9828  -30.8910   20.4493 C   0  0  0  0  0  0  0  0  0  0  0  0
  -30.5241  -31.4932   18.5174 C   0  0  0  0  0  0  0  0  0  0  0  0
  -28.2812  -19.5888   26.8262 C   0  0  0  0  0  0  0  0  0  0  0  0
  -26.2395  -30.5493   23.7732 C   0  0  0  0  0  0  0  0  0  0  0  0
  -29.8152  -20.9842   22.9900 C   0  0  0  0  0  0  0  0  0  0  0  0
  -29.6823  -29.8447   20.2397 C   0  0  1  0  0  0  0  0  0  0  0  0
  -28.1404  -31.9621   22.9800 C   0  0  2  0  0  0  0  0  0  0  0  0
  -29.8937  -22.5044   23.0522 C   0  0  1  0  0  0  0  0  0  1  0  0
  -30.9330  -30.3407   19.4605 C   0  0  0  0  0  0  0  0  0  0  0  0
  -25.8103  -11.5356   20.3244 N   0  0  0  0  0  0  0  0  0  0  0  0
  -26.2102  -12.8107   20.1811 N   0  0  0  0  0  0  0  0  0  0  0  0
  -28.2792  -27.9292   19.5427 N   0  0  0  0  0  0  0  0  0  0  0  0
  -29.9512  -13.5392   20.4208 N   0  0  0  0  0  0  0  0  0  0  0  0
  -25.4783  -15.0541   20.3859 N   0  0  0  0  0  0  0  0  0  0  0  0
  -21.8385  -12.6583   21.5724 N   0  0  0  0  0  0  0  0  0  0  0  0
  -30.0838  -15.6332   21.4979 N   0  0  0  0  0  0  0  0  0  0  0  0
  -29.3302  -20.4547   24.2633 N   0  0  0  0  0  0  0  0  0  0  0  0
  -27.8236  -26.4744   16.3168 N   0  0  0  0  0  0  0  0  0  0  0  0
  -29.0214  -30.8784   21.0292 N   0  0  0  0  0  0  0  0  0  0  0  0
  -29.1550  -18.8048   25.9502 N   0  3  0  0  0  0  0  0  0  0  0  0
  -27.2794  -31.5503   24.1246 N   0  3  0  0  0  0  0  0  0  0  0  0
  -22.6532  -14.7803   21.2694 O   0  0  0  0  0  0  0  0  0  0  0  0
  -29.3780  -26.0752   18.0041 O   0  0  0  0  0  0  0  0  0  0  0  0
  -28.1218  -29.9876   18.4590 O   0  0  0  0  0  0  0  0  0  0  0  0
  -29.2155  -29.8003   23.0730 O   0  0  0  0  0  0  0  0  0  0  0  0
  -31.8625  -14.8277   20.2452 O   0  0  0  0  0  0  0  0  0  0  0  0
  -21.4708   -7.1027   21.7619 O   0  0  0  0  0  0  0  0  0  0  0  0
  -28.5830  -23.0245   23.2715 O   0  0  0  0  0  0  0  0  0  1  0  0
  -23.8002   -3.0535   24.6914 F   0  0  0  0  0  0  0  0  0  0  0  0
  -20.3819   -6.2856   24.1680 F   0  0  0  0  0  0  0  0  0  0  0  0
  -32.6361  -19.3994   25.3055 Cl  0  0  0  0  0  0  0  0  0  0  0  0
  1  2  1  0  0  0  0
  1  5  2  0  0  0  0
  2  6  2  0  0  0  0
  3  9  2  0  0  0  0
  3 18  1  0  0  0  0
  4 10  1  0  0  0  0
  4 18  2  0  0  0  0
  5 21  1  0  0  0  0
  6 23  1  0  0  0  0
  7 11  2  0  0  0  0
  7 22  1  0  0  0  0
  8 14  2  0  0  0  0
  8 25  1  0  0  0  0
  9 26  1  0  0  0  0
 10 26  2  0  0  0  0
 11 27  1  0  0  0  0
 12 13  2  0  0  0  0
 12 28  1  0  0  0  0
 13 29  1  0  0  0  0
 14 31  1  0  0  0  0
 15 19  1  0  0  0  0
 15 25  2  0  0  0  0
 16 24  1  0  0  0  0
 16 27  2  0  0  0  0
 17 29  2  0  0  0  0
 17 30  1  0  0  0  0
 18 32  1  0  0  0  0
 19 31  2  0  0  0  0
 19 34  1  0  0  0  0
 20 32  1  0  0  0  0
 20 33  2  0  0  0  0
 20 35  1  0  0  0  0
 21 23  2  0  0  0  0
 21 40  1  0  0  0  0
 22 24  2  0  0  0  0
 22 41  1  0  0  0  0
 23 49  1  0  0  0  0
 24 42  1  0  0  0  0
 25 70  1  0  0  0  0
 26 81  1  0  0  0  0
 27 82  1  0  0  0  0
 28 30  2  0  0  0  0
 28 81  1  0  0  0  0
 29 83  1  0  0  0  0
 30 84  1  0  0  0  0
 31 85  1  0  0  0  0
 32 64  2  0  0  0  0
 33 65  1  0  0  0  0
 33 68  1  0  0  0  0
 34 71  1  0  0  0  0
 34 74  2  0  0  0  0
 35 69  1  0  0  0  0
 35 76  2  0  0  0  0
 36 50  1  0  0  0  0
 36 72  1  0  0  0  0
 36 77  2  0  0  0  0
 37 60  1  0  0  0  0
 37 66  1  0  0  0  0
 37 78  2  0  0  0  0
 38 61  1  0  0  0  0
 38 73  1  0  0  0  0
 38 79  2  0  0  0  0
 39 67  1  0  0  0  0
 39 70  1  0  0  0  0
 39 80  2  0  0  0  0
 40 43  1  0  0  0  0
 41 50  1  0  0  0  0
 42 66  1  0  0  0  0
 43 45  1  0  0  0  0
 44 46  1  0  0  0  0
 44 47  1  0  0  0  0
 45 49  1  0  0  0  0
 46 51  1  0  0  0  0
 47 67  1  0  0  0  0
 48 51  1  0  0  0  0
 48 67  1  0  0  0  0
 49 72  1  0  0  0  0
 50 66  1  0  0  0  0
 51 65  1  0  0  0  0
 52 61  1  0  0  0  0
 53 62  1  0  0  0  0
 54 63  1  0  0  0  0
 55 63  1  0  0  0  0
 56 63  1  0  0  0  0
 57 74  1  0  0  0  0
 58 75  1  0  0  0  0
 59 62  1  0  0  0  0
 59 71  1  0  0  0  0
 60 63  1  0  0  0  0
 60 73  1  0  0  0  0
 61 75  1  0  0  0  0
 62 82  1  0  0  0  0
 64 65  1  0  0  0  0
M  CHG  2  74   1  75   1
M  ISO  4  39 100  62 101  70 100  82 101
M  END
> <Batch ID>
0025

> <Smiles>
CN=C(NC[101CH:1](C)[101O:1]c1ccc2c(c1)CN(C(=O)C(NC(=O)C(C)NC)C(C)(C)C)C(C(=O)NC1CCCc3ccccc31)C2)c1cc([100NH:0][100C:0](=O)N2CCCC(n3nc(-c4ccc(Oc5ccc(F)cc5F)cc4)c(C(N)=O)c3N)C2)ccc1Cl

> <Shape>
0.238

> <Color>
0.194

> <Negative vol penalty>
0.000

$$$$

  -OEChem-04042321223D

 85 94  0     1  0  0  0  0  0999 V2000
  -26.0875  -29.7518   27.6477 C   0  0  0  0  0  0  0  0  0  0  0  0
  -26.8201  -28.9333   26.7941 C   0  0  0  0  0  0  0  0  0  0  0  0
  -22.9437  -10.1872   19.9100 C   0  0  0  0  0  0  0  0  0  0  0  0
  -24.0235   -9.6606   22.0061 C   0  0  0  0  0  0  0  0  0  0  0  0
  -24.7322  -29.9732   27.4066 C   0  0  0  0  0  0  0  0  0  0  0  0
  -26.1975  -28.3347   25.6993 C   0  0  0  0  0  0  0  0  0  0  0  0
  -28.6775  -27.2125   20.2133 C   0  0  0  0  0  0  0  0  0  0  0  0
  -22.1891   -9.0180   20.0049 C   0  0  0  0  0  0  0  0  0  0  0  0
  -23.2688   -8.4914   22.1011 C   0  0  0  0  0  0  0  0  0  0  0  0
  -29.2314  -26.0629   19.6518 C   0  0  0  0  0  0  0  0  0  0  0  0
  -20.1258   -7.6225   22.9882 C   0  0  0  0  0  0  0  0  0  0  0  0
  -19.5432   -7.3274   24.2207 C   0  0  0  0  0  0  0  0  0  0  0  0
  -27.1196  -25.5683   18.5961 C   0  0  0  0  0  0  0  0  0  0  0  0
  -30.2802  -19.1974   19.2438 C   0  0  0  0  0  0  0  0  0  0  0  0
  -29.6826  -19.9382   21.4643 C   0  0  0  0  0  0  0  0  0  0  0  0
  -20.7833   -5.2559   24.3108 C   0  0  0  0  0  0  0  0  0  0  0  0
  -23.8609  -10.5085   20.9105 C   0  0  0  0  0  0  0  0  0  0  0  0
  -24.3022  -12.9895   21.3075 C   0  0  0  0  0  0  0  0  0  0  0  0
  -24.0950  -29.3848   26.3028 C   0  0  0  0  0  0  0  0  0  0  0  0
  -27.3351  -27.5434   19.9789 C   0  0  0  0  0  0  0  0  0  0  0  0
  -24.8321  -28.5473   25.4439 C   0  0  0  0  0  0  0  0  0  0  0  0
  -26.5517  -26.7240   19.1537 C   0  0  0  0  0  0  0  0  0  0  0  0
  -29.6570  -17.5824   20.9292 C   0  0  0  0  0  0  0  0  0  0  0  0
  -30.0895  -20.2296   20.1623 C   0  0  0  0  0  0  0  0  0  0  0  0
  -22.3516   -8.1701   21.1005 C   0  0  0  0  0  0  0  0  0  0  0  0
  -28.4517  -25.2390   18.8454 C   0  0  0  0  0  0  0  0  0  0  0  0
  -21.0371   -6.7343   22.4169 C   0  0  0  0  0  0  0  0  0  0  0  0
  -19.8719   -6.1441   24.8820 C   0  0  0  0  0  0  0  0  0  0  0  0
  -21.3659   -5.5510   23.0783 C   0  0  0  0  0  0  0  0  0  0  0  0
  -30.0639  -17.8737   19.6272 C   0  0  0  0  0  0  0  0  0  0  0  0
  -29.4664  -18.6146   21.8478 C   0  0  0  0  0  0  0  0  0  0  0  0
  -24.6412  -11.7159   20.8127 C   0  0  0  0  0  0  0  0  0  0  0  0
  -25.3656  -13.7867   20.9609 C   0  0  0  0  0  0  0  0  0  0  0  0
  -23.1308  -13.4140   22.0170 C   0  0  0  0  0  0  0  0  0  0  0  0
  -24.7592  -27.8950   21.8077 C   0  0  0  0  0  0  0  0  0  0  0  0
  -23.4063  -28.8968   19.0349 C   0  0  0  0  0  0  0  0  0  0  0  0
  -23.4285  -28.8626   15.6224 C   0  0  0  0  0  0  0  0  0  0  0  0
  -31.0299  -14.2613   20.8731 C   0  0  0  0  0  0  0  0  0  0  0  0
  -22.6170  -29.6154   26.1099 C   0  0  0  0  0  0  0  0  0  0  0  0
  -26.7600  -28.8012   20.5702 C   0  0  0  0  0  0  0  0  0  0  0  0
  -25.1110  -27.0456   18.8546 C   0  0  0  0  0  0  0  0  0  0  0  0
  -22.1197  -29.2446   24.7152 C   0  0  0  0  0  0  0  0  0  0  0  0
  -29.2836  -12.9296   17.8934 C   0  0  0  0  0  0  0  0  0  0  0  0
  -22.6662  -27.8830   24.2980 C   0  0  0  0  0  0  0  0  0  0  0  0
  -27.9183  -12.5371   18.4553 C   0  0  0  0  0  0  0  0  0  0  0  0
  -30.3771  -12.8525   18.9546 C   0  0  0  0  0  0  0  0  0  0  0  0
  -28.7168  -13.2485   20.7436 C   0  0  0  0  0  0  0  0  0  0  0  0
  -29.6505  -22.7038   20.2894 C   0  0  0  0  0  0  0  0  0  0  0  0
  -30.4397  -22.0433   18.4540 C   0  0  0  0  0  0  0  0  0  0  0  0
  -24.1981  -27.9001   24.2318 C   0  0  1  0  0  0  0  0  0  0  0  0
  -25.2389  -28.7675   20.6825 C   0  0  1  0  0  0  0  0  0  0  0  0
  -27.5846  -13.3604   19.7115 C   0  0  2  0  0  0  0  0  0  0  0  0
  -30.0521  -23.4267   18.9960 C   0  0  0  0  0  0  0  0  0  1  0  0
  -22.1751  -29.7446   13.6354 C   0  0  0  0  0  0  0  0  0  0  0  0
  -21.2121  -26.8292   19.5043 C   0  0  0  0  0  0  0  0  0  0  0  0
  -20.5538  -27.0850   17.1023 C   0  0  0  0  0  0  0  0  0  0  0  0
  -20.4012  -29.0354   18.6500 C   0  0  0  0  0  0  0  0  0  0  0  0
  -31.6973  -16.1573   22.3012 C   0  0  0  0  0  0  0  0  0  0  0  0
  -25.7948  -30.3451   14.6419 C   0  0  0  0  0  0  0  0  0  0  0  0
  -29.4249  -16.1606   21.3411 C   0  0  0  0  0  0  0  0  0  0  0  0
  -22.6748  -28.2246   17.8982 C   0  0  1  0  0  0  0  0  0  0  0  0
  -23.3238  -29.9826   14.6031 C   0  0  2  0  0  0  0  0  0  0  0  0
  -21.2370  -27.7862   18.2957 C   0  0  0  0  0  0  0  0  0  0  0  0
  -25.8271  -11.7002   20.1985 N   0  0  0  0  0  0  0  0  0  0  0  0
  -26.2426  -12.9738   20.3049 N   0  0  0  0  0  0  0  0  0  0  0  0
  -30.3049  -21.5490   19.7802 N   0  0  0  0  0  0  0  0  0  0  0  0
  -24.5927  -28.2829   19.4611 N   0  0  0  0  0  0  0  0  0  0  0  0
  -30.0153  -13.6081   20.1543 N   0  0  0  0  0  0  0  0  0  0  0  0
  -25.6267  -15.0967   21.1564 N   0  0  0  0  0  0  0  0  0  0  0  0
  -22.1354  -12.4662   22.2908 N   0  0  0  0  0  0  0  0  0  0  0  0
  -24.6443  -28.5508   23.0186 N   0  0  0  0  0  0  0  0  0  0  0  0
  -22.7272  -29.1525   16.7737 N   0  0  0  0  0  0  0  0  0  0  0  0
  -30.6774  -15.4378   21.5514 N   0  0  0  0  0  0  0  0  0  0  0  0
  -24.5859  -30.0878   13.8177 N   0  3  0  0  0  0  0  0  0  0  0  0
  -22.9642  -14.6023   22.3826 O   0  0  0  0  0  0  0  0  0  0  0  0
  -24.5101  -26.7145   21.5930 O   0  0  0  0  0  0  0  0  0  0  0  0
  -22.9460  -29.9325   19.5218 O   0  0  0  0  0  0  0  0  0  0  0  0
  -24.0654  -27.8318   15.4164 O   0  0  0  0  0  0  0  0  0  0  0  0
  -32.1872  -13.8232   20.8989 O   0  0  0  0  0  0  0  0  0  0  0  0
  -21.6152   -7.0292   21.1936 O   0  0  0  0  0  0  0  0  0  0  0  0
  -28.9897  -24.1160   18.2966 O   0  0  0  0  0  0  0  0  0  1  0  0
  -19.3136   -5.8615   26.0663 F   0  0  0  0  0  0  0  0  0  0  0  0
  -22.2416   -4.6944   22.5350 F   0  0  0  0  0  0  0  0  0  0  0  0
  -30.3115  -16.6265   18.4584 Cl  0  0  0  0  0  0  0  0  0  0  0  0
  -28.9644  -18.2988   23.4697 Cl  0  0  0  0  0  0  0  0  0  0  0  0
  1  2  1  0  0  0  0
  1  5  2  0  0  0  0
  2  6  2  0  0  0  0
  3  8  2  0  0  0  0
  3 17  1  0  0  0  0
  4  9  1  0  0  0  0
  4 17  2  0  0  0  0
  5 19  1  0  0  0  0
  6 21  1  0  0  0  0
  7 10  2  0  0  0  0
  7 20  1  0  0  0  0
  8 25  1  0  0  0  0
  9 25  2  0  0  0  0
 10 26  1  0  0  0  0
 11 12  2  0  0  0  0
 11 27  1  0  0  0  0
 12 28  1  0  0  0  0
 13 22  1  0  0  0  0
 13 26  2  0  0  0  0
 14 24  1  0  0  0  0
 14 30  2  0  0  0  0
 15 24  2  0  0  0  0
 15 31  1  0  0  0  0
 16 28  2  0  0  0  0
 16 29  1  0  0  0  0
 17 32  1  0  0  0  0
 18 32  1  0  0  0  0
 18 33  2  0  0  0  0
 18 34  1  0  0  0  0
 19 21  2  0  0  0  0
 19 39  1  0  0  0  0
 20 22  2  0  0  0  0
 20 40  1  0  0  0  0
 21 50  1  0  0  0  0
 22 41  1  0  0  0  0
 23 30  1  0  0  0  0
 23 31  2  0  0  0  0
 23 60  1  0  0  0  0
 24 66  1  0  0  0  0
 25 80  1  0  0  0  0
 26 81  1  0  0  0  0
 27 29  2  0  0  0  0
 27 80  1  0  0  0  0
 28 82  1  0  0  0  0
 29 83  1  0  0  0  0
 30 84  1  0  0  0  0
 31 85  1  0  0  0  0
 32 64  2  0  0  0  0
 33 65  1  0  0  0  0
 33 69  1  0  0  0  0
 34 70  1  0  0  0  0
 34 75  2  0  0  0  0
 35 51  1  0  0  0  0
 35 71  1  0  0  0  0
 35 76  2  0  0  0  0
 36 61  1  0  0  0  0
 36 67  1  0  0  0  0
 36 77  2  0  0  0  0
 37 62  1  0  0  0  0
 37 72  1  0  0  0  0
 37 78  2  0  0  0  0
 38 68  1  0  0  0  0
 38 73  1  0  0  0  0
 38 79  2  0  0  0  0
 39 42  1  0  0  0  0
 40 51  1  0  0  0  0
 41 67  1  0  0  0  0
 42 44  1  0  0  0  0
 43 45  1  0  0  0  0
 43 46  1  0  0  0  0
 44 50  1  0  0  0  0
 45 52  1  0  0  0  0
 46 68  1  0  0  0  0
 47 52  1  0  0  0  0
 47 68  1  0  0  0  0
 48 53  1  0  0  0  0
 48 66  1  0  0  0  0
 49 53  1  0  0  0  0
 49 66  1  0  0  0  0
 50 71  1  0  0  0  0
 51 67  1  0  0  0  0
 52 65  1  0  0  0  0
 53 81  1  0  0  0  0
 54 62  1  0  0  0  0
 55 63  1  0  0  0  0
 56 63  1  0  0  0  0
 57 63  1  0  0  0  0
 58 73  1  0  0  0  0
 59 74  1  0  0  0  0
 60 73  1  0  0  0  0
 61 63  1  0  0  0  0
 61 72  1  0  0  0  0
 62 74  1  0  0  0  0
 64 65  1  0  0  0  0
M  CHG  1  74   1
M  ISO  4  38 100  53 101  73 100  81 101
M  END
> <Batch ID>
0025

> <Smiles>
CNC(C)C(=O)NC(C(=O)N1Cc2cc([101O:1][101CH:1]3CN(c4cc(Cl)c(C[100N:0](C)[100C:0](=O)N5CCCC(n6nc(-c7ccc(Oc8ccc(F)cc8F)cc7)c(C(N)=O)c6N)C5)c(Cl)c4)C3)ccc2CC1C(=O)NC1CCCc2ccccc21)C(C)(C)C

> <Shape>
0.326

> <Color>
0.167

> <Negative vol penalty>
0.000

$$$$

  -OEChem-04042321223D

 90 99  0     1  0  0  0  0  0999 V2000
  -29.9123  -30.5423   25.2769 C   0  0  0  0  0  0  0  0  0  0  0  0
  -29.4139  -29.3820   24.6932 C   0  0  0  0  0  0  0  0  0  0  0  0
  -23.1069  -10.0634   19.8833 C   0  0  0  0  0  0  0  0  0  0  0  0
  -23.9738   -9.6625   22.1025 C   0  0  0  0  0  0  0  0  0  0  0  0
  -29.0437  -31.5782   25.6179 C   0  0  0  0  0  0  0  0  0  0  0  0
  -28.0464  -29.2566   24.4511 C   0  0  0  0  0  0  0  0  0  0  0  0
  -25.3899  -26.3699   19.7483 C   0  0  0  0  0  0  0  0  0  0  0  0
  -26.8491  -20.2722   20.3619 C   0  0  0  0  0  0  0  0  0  0  0  0
  -22.3819   -8.8738   19.9516 C   0  0  0  0  0  0  0  0  0  0  0  0
  -23.2487   -8.4729   22.1708 C   0  0  0  0  0  0  0  0  0  0  0  0
  -24.8279  -25.1001   19.6237 C   0  0  0  0  0  0  0  0  0  0  0  0
  -20.0568   -7.5338   22.7628 C   0  0  0  0  0  0  0  0  0  0  0  0
  -19.3560   -7.2705   23.9397 C   0  0  0  0  0  0  0  0  0  0  0  0
  -27.9030  -19.4390   20.7370 C   0  0  0  0  0  0  0  0  0  0  0  0
  -22.6438  -26.0315   20.0499 C   0  0  0  0  0  0  0  0  0  0  0  0
  -20.6411   -5.2487   24.2526 C   0  0  0  0  0  0  0  0  0  0  0  0
  -23.9029  -10.4578   20.9587 C   0  0  0  0  0  0  0  0  0  0  0  0
  -24.2251  -12.9670   21.2870 C   0  0  0  0  0  0  0  0  0  0  0  0
  -27.6661  -31.4694   25.3710 C   0  0  0  0  0  0  0  0  0  0  0  0
  -24.5831  -27.4803   20.0359 C   0  0  0  0  0  0  0  0  0  0  0  0
  -27.1584  -30.2915   24.7903 C   0  0  0  0  0  0  0  0  0  0  0  0
  -23.1977  -27.3147   20.1751 C   0  0  0  0  0  0  0  0  0  0  0  0
  -28.1245  -18.6900   18.4507 C   0  0  0  0  0  0  0  0  0  0  0  0
  -26.4327  -20.3142   19.0313 C   0  0  0  0  0  0  0  0  0  0  0  0
  -22.4527   -8.0785   21.0954 C   0  0  0  0  0  0  0  0  0  0  0  0
  -23.4551  -24.9303   19.7773 C   0  0  0  0  0  0  0  0  0  0  0  0
  -21.0497   -6.6545   22.3307 C   0  0  0  0  0  0  0  0  0  0  0  0
  -19.6482   -6.1279   24.6846 C   0  0  0  0  0  0  0  0  0  0  0  0
  -21.3419   -5.5120   23.0756 C   0  0  0  0  0  0  0  0  0  0  0  0
  -28.5407  -18.6480   19.7814 C   0  0  0  0  0  0  0  0  0  0  0  0
  -27.0704  -19.5231   18.0757 C   0  0  0  0  0  0  0  0  0  0  0  0
  -24.6526  -11.6862   20.8885 C   0  0  0  0  0  0  0  0  0  0  0  0
  -25.2949  -13.7852   21.0179 C   0  0  0  0  0  0  0  0  0  0  0  0
  -22.9730  -13.3800   21.8503 C   0  0  0  0  0  0  0  0  0  0  0  0
  -24.4137  -29.5717   22.4236 C   0  0  0  0  0  0  0  0  0  0  0  0
  -22.2260  -30.9996   20.5008 C   0  0  0  0  0  0  0  0  0  0  0  0
  -19.9664  -30.6991   17.9609 C   0  0  0  0  0  0  0  0  0  0  0  0
  -24.6434  -22.0108   19.5368 C   0  0  0  0  0  0  0  0  0  0  0  0
  -29.4190  -15.4658   17.7347 C   0  0  0  0  0  0  0  0  0  0  0  0
  -26.7604  -32.5964   25.8003 C   0  0  0  0  0  0  0  0  0  0  0  0
  -25.2012  -28.8475   20.1407 C   0  0  0  0  0  0  0  0  0  0  0  0
  -22.2852  -28.4776   20.4643 C   0  0  0  0  0  0  0  0  0  0  0  0
  -25.3725  -32.5372   25.1673 C   0  0  0  0  0  0  0  0  0  0  0  0
  -30.0588  -12.6922   19.7645 C   0  0  0  0  0  0  0  0  0  0  0  0
  -24.8055  -31.1239   25.2554 C   0  0  0  0  0  0  0  0  0  0  0  0
  -28.6790  -12.2698   20.2649 C   0  0  0  0  0  0  0  0  0  0  0  0
  -26.6968  -16.2264   15.6287 C   0  0  0  0  0  0  0  0  0  0  0  0
  -26.7702  -14.8885   16.3020 C   0  0  0  0  0  0  0  0  0  0  0  0
  -29.9971  -13.1291   18.3064 C   0  0  0  0  0  0  0  0  0  0  0  0
  -27.6398  -13.8459   18.5558 C   0  0  0  0  0  0  0  0  0  0  0  0
  -25.6844  -30.1280   24.4892 C   0  0  1  0  0  0  0  0  0  0  0  0
  -24.3517  -29.8273   20.9442 C   0  0  1  0  0  0  0  0  0  0  0  0
  -27.6460  -13.3841   20.0277 C   0  0  1  0  0  0  0  0  0  0  0  0
  -27.0753  -16.1380   17.0819 C   0  0  0  0  0  0  0  0  0  0  0  0
  -18.3035  -32.0319   16.6358 C   0  0  0  0  0  0  0  0  0  0  0  0
  -20.2881  -30.9191   22.8562 C   0  0  0  0  0  0  0  0  0  0  0  0
  -18.4221  -31.3595   21.2461 C   0  0  0  0  0  0  0  0  0  0  0  0
  -20.2393  -33.0434   21.5373 C   0  0  0  0  0  0  0  0  0  0  0  0
  -20.7596  -20.1587   18.6910 C   0  0  0  0  0  0  0  0  0  0  0  0
  -21.4036  -30.1883   15.4247 C   0  0  0  0  0  0  0  0  0  0  0  0
  -28.8146  -17.8387   17.4281 C   0  0  0  0  0  0  0  0  0  0  0  0
  -22.5082  -21.8593   18.1532 C   0  0  0  0  0  0  0  0  0  0  0  0
  -20.7323  -30.8870   20.3130 C   0  0  1  0  0  0  0  0  0  0  0  0
  -19.7377  -31.5319   16.7124 C   0  0  2  0  0  0  0  0  0  0  0  0
  -23.5555  -22.7736   18.7801 C   0  0  1  0  0  0  0  0  0  1  0  0
  -19.9376  -31.5298   21.4846 C   0  0  0  0  0  0  0  0  0  0  0  0
  -25.8969  -11.6859   20.4029 N   0  0  0  0  0  0  0  0  0  0  0  0
  -26.2604  -12.9764   20.4945 N   0  0  0  0  0  0  0  0  0  0  0  0
  -22.9380  -29.7934   20.5640 N   0  0  0  0  0  0  0  0  0  0  0  0
  -28.9987  -14.1801   18.1048 N   0  0  0  0  0  0  0  0  0  0  0  0
  -25.4945  -15.1105   21.1801 N   0  0  0  0  0  0  0  0  0  0  0  0
  -21.9830  -12.4106   22.0611 N   0  0  0  0  0  0  0  0  0  0  0  0
  -25.3585  -21.1701   18.6909 N   0  0  0  0  0  0  0  0  0  0  0  0
  -25.4435  -30.2322   23.0659 N   0  0  0  0  0  0  0  0  0  0  0  0
  -20.4406  -31.4643   19.0054 N   0  0  0  0  0  0  0  0  0  0  0  0
  -28.4240  -16.4368   17.5281 N   0  0  0  0  0  0  0  0  0  0  0  0
  -21.8455  -21.0382   19.2001 N   0  3  0  0  0  0  0  0  0  0  0  0
  -20.0197  -30.7241   15.4922 N   0  3  0  0  0  0  0  0  0  0  0  0
  -22.7331  -14.5761   22.1423 O   0  0  0  0  0  0  0  0  0  0  0  0
  -23.5875  -28.8312   22.9439 O   0  0  0  0  0  0  0  0  0  0  0  0
  -22.7429  -32.1167   20.5810 O   0  0  0  0  0  0  0  0  0  0  0  0
  -19.7430  -29.4914   18.0062 O   0  0  0  0  0  0  0  0  0  0  0  0
  -24.8206  -22.1834   20.7393 O   0  0  0  0  0  0  0  0  0  0  0  0
  -30.6175  -15.7316   17.5745 O   0  0  0  0  0  0  0  0  0  0  0  0
  -21.7451   -6.9178   21.1625 O   0  0  0  0  0  0  0  0  0  0  0  0
  -22.9040  -23.6919   19.6569 O   0  0  0  0  0  0  0  0  0  1  0  0
  -18.9762   -5.8760   25.8156 F   0  0  0  0  0  0  0  0  0  0  0  0
  -22.2955   -4.6642   22.6662 F   0  0  0  0  0  0  0  0  0  0  0  0
  -29.8395  -17.6300   20.2908 Cl  0  0  0  0  0  0  0  0  0  0  0  0
  -26.5536  -19.5783   16.4204 Cl  0  0  0  0  0  0  0  0  0  0  0  0
  1  2  1  0  0  0  0
  1  5  2  0  0  0  0
  2  6  2  0  0  0  0
  3  9  2  0  0  0  0
  3 17  1  0  0  0  0
  4 10  1  0  0  0  0
  4 17  2  0  0  0  0
  5 19  1  0  0  0  0
  6 21  1  0  0  0  0
  7 11  2  0  0  0  0
  7 20  1  0  0  0  0
  8 14  2  0  0  0  0
  8 24  1  0  0  0  0
  9 25  1  0  0  0  0
 10 25  2  0  0  0  0
 11 26  1  0  0  0  0
 12 13  2  0  0  0  0
 12 27  1  0  0  0  0
 13 28  1  0  0  0  0
 14 30  1  0  0  0  0
 15 22  1  0  0  0  0
 15 26  2  0  0  0  0
 16 28  2  0  0  0  0
 16 29  1  0  0  0  0
 17 32  1  0  0  0  0
 18 32  1  0  0  0  0
 18 33  2  0  0  0  0
 18 34  1  0  0  0  0
 19 21  2  0  0  0  0
 19 40  1  0  0  0  0
 20 22  2  0  0  0  0
 20 41  1  0  0  0  0
 21 51  1  0  0  0  0
 22 42  1  0  0  0  0
 23 30  2  0  0  0  0
 23 31  1  0  0  0  0
 23 61  1  0  0  0  0
 24 31  2  0  0  0  0
 24 73  1  0  0  0  0
 25 85  1  0  0  0  0
 26 86  1  0  0  0  0
 27 29  2  0  0  0  0
 27 85  1  0  0  0  0
 28 87  1  0  0  0  0
 29 88  1  0  0  0  0
 30 89  1  0  0  0  0
 31 90  1  0  0  0  0
 32 67  2  0  0  0  0
 33 68  1  0  0  0  0
 33 71  1  0  0  0  0
 34 72  1  0  0  0  0
 34 79  2  0  0  0  0
 35 52  1  0  0  0  0
 35 74  1  0  0  0  0
 35 80  2  0  0  0  0
 36 63  1  0  0  0  0
 36 69  1  0  0  0  0
 36 81  2  0  0  0  0
 37 64  1  0  0  0  0
 37 75  1  0  0  0  0
 37 82  2  0  0  0  0
 38 65  1  0  0  0  0
 38 73  1  0  0  0  0
 38 83  2  0  0  0  0
 39 70  1  0  0  0  0
 39 76  1  0  0  0  0
 39 84  2  0  0  0  0
 40 43  1  0  0  0  0
 41 52  1  0  0  0  0
 42 69  1  0  0  0  0
 43 45  1  0  0  0  0
 44 46  1  0  0  0  0
 44 49  1  0  0  0  0
 45 51  1  0  0  0  0
 46 53  1  0  0  0  0
 47 48  1  0  0  0  0
 47 54  1  0  0  0  0
 48 54  1  0  0  0  0
 49 70  1  0  0  0  0
 50 53  1  0  0  0  0
 50 70  1  0  0  0  0
 51 74  1  0  0  0  0
 52 69  1  0  0  0  0
 53 68  1  0  0  0  0
 54 76  1  0  0  0  0
 55 64  1  0  0  0  0
 56 66  1  0  0  0  0
 57 66  1  0  0  0  0
 58 66  1  0  0  0  0
 59 77  1  0  0  0  0
 60 78  1  0  0  0  0
 61 76  1  0  0  0  0
 62 65  1  0  0  0  0
 62 77  1  0  0  0  0
 63 66  1  0  0  0  0
 63 75  1  0  0  0  0
 64 78  1  0  0  0  0
 65 86  1  0  0  0  0
 67 68  1  0  0  0  0
M  CHG  2  77   1  78   1
M  ISO  4  39 100  65 101  76 100  86 101
M  END
> <Batch ID>
0025

> <Smiles>
CNC[101CH:1](C(=O)Nc1ccc(Cl)c(C[100N:0](C2CC2)[100C:0](=O)N2CCCC(n3nc(-c4ccc(Oc5ccc(F)cc5F)cc4)c(C(N)=O)c3N)C2)c1Cl)[101O:1]c1ccc2c(c1)CN(C(=O)C(NC(=O)C(C)NC)C(C)(C)C)C(C(=O)NC1CCCc3ccccc31)C2

> <Shape>
0.285

> <Color>
0.150

> <Negative vol penalty>
0.000

$$$$

  -OEChem-04042321223D

 86 95  0     1  0  0  0  0  0999 V2000
  -23.3081  -11.3866   17.8710 C   0  0  0  0  0  0  0  0  0  0  0  0
  -22.6244  -12.5760   18.1020 C   0  0  0  0  0  0  0  0  0  0  0  0
  -30.1483  -28.2558   18.0481 C   0  0  0  0  0  0  0  0  0  0  0  0
  -29.9807  -26.7907   19.9618 C   0  0  0  0  0  0  0  0  0  0  0  0
  -24.4145  -11.0568   18.6527 C   0  0  0  0  0  0  0  0  0  0  0  0
  -23.0462  -13.4359   19.1155 C   0  0  0  0  0  0  0  0  0  0  0  0
  -22.8302  -19.5561   19.0784 C   0  0  0  0  0  0  0  0  0  0  0  0
  -31.5327  -28.0851   18.0386 C   0  0  0  0  0  0  0  0  0  0  0  0
  -31.3651  -26.6199   19.9523 C   0  0  0  0  0  0  0  0  0  0  0  0
  -21.9277  -20.4662   19.6271 C   0  0  0  0  0  0  0  0  0  0  0  0
  -33.6398  -24.8242   18.2141 C   0  0  0  0  0  0  0  0  0  0  0  0
  -34.1325  -23.5284   18.3676 C   0  0  0  0  0  0  0  0  0  0  0  0
  -23.3552  -20.7095   21.5563 C   0  0  0  0  0  0  0  0  0  0  0  0
  -18.0135  -26.9309   22.8235 C   0  0  0  0  0  0  0  0  0  0  0  0
  -19.6029  -28.7470   22.9356 C   0  0  0  0  0  0  0  0  0  0  0  0
  -35.3103  -24.2126   20.3631 C   0  0  0  0  0  0  0  0  0  0  0  0
  -29.3723  -27.6086   19.0097 C   0  0  0  0  0  0  0  0  0  0  0  0
  -26.9849  -27.0076   18.3416 C   0  0  0  0  0  0  0  0  0  0  0  0
  -24.8558  -11.9176   19.6700 C   0  0  0  0  0  0  0  0  0  0  0  0
  -23.9986  -19.2071   19.7707 C   0  0  0  0  0  0  0  0  0  0  0  0
  -24.1587  -13.1166   19.9124 C   0  0  0  0  0  0  0  0  0  0  0  0
  -24.2722  -19.7967   21.0131 C   0  0  0  0  0  0  0  0  0  0  0  0
  -18.9847  -26.1168   22.2407 C   0  0  0  0  0  0  0  0  0  0  0  0
  -20.5742  -27.9329   22.3529 C   0  0  0  0  0  0  0  0  0  0  0  0
  -32.1410  -27.2672   18.9907 C   0  0  0  0  0  0  0  0  0  0  0  0
  -22.1887  -21.0409   20.8675 C   0  0  0  0  0  0  0  0  0  0  0  0
  -33.9824  -25.8143   19.1350 C   0  0  0  0  0  0  0  0  0  0  0  0
  -34.9677  -23.2225   19.4421 C   0  0  0  0  0  0  0  0  0  0  0  0
  -34.8176  -25.5085   20.2095 C   0  0  0  0  0  0  0  0  0  0  0  0
  -18.3225  -28.2460   23.1709 C   0  0  0  0  0  0  0  0  0  0  0  0
  -20.2651  -26.6178   22.0055 C   0  0  0  0  0  0  0  0  0  0  0  0
  -27.9424  -27.7850   19.0203 C   0  0  0  0  0  0  0  0  0  0  0  0
  -25.7807  -27.5785   18.6742 C   0  0  0  0  0  0  0  0  0  0  0  0
  -27.1676  -25.8711   17.4868 C   0  0  0  0  0  0  0  0  0  0  0  0
  -25.1735  -16.5083   20.9706 C   0  0  0  0  0  0  0  0  0  0  0  0
  -27.7741  -18.3572   21.5544 C   0  0  0  0  0  0  0  0  0  0  0  0
  -29.0532  -21.4795   22.0660 C   0  0  0  0  0  0  0  0  0  0  0  0
  -22.2995  -29.7670   22.4285 C   0  0  0  0  0  0  0  0  0  0  0  0
  -26.0282  -11.4959   20.5199 C   0  0  0  0  0  0  0  0  0  0  0  0
  -24.9751  -18.2441   19.1530 C   0  0  0  0  0  0  0  0  0  0  0  0
  -25.5223  -19.4709   21.7875 C   0  0  0  0  0  0  0  0  0  0  0  0
  -26.6372  -12.6389   21.3279 C   0  0  0  0  0  0  0  0  0  0  0  0
  -24.7400  -31.9424   21.0183 C   0  0  0  0  0  0  0  0  0  0  0  0
  -18.8437  -22.4597   24.5765 C   0  0  0  0  0  0  0  0  0  0  0  0
  -25.5427  -13.4495   22.0147 C   0  0  0  0  0  0  0  0  0  0  0  0
  -25.7120  -30.9908   20.3170 C   0  0  0  0  0  0  0  0  0  0  0  0
  -19.3183  -21.4833   23.5186 C   0  0  0  0  0  0  0  0  0  0  0  0
  -24.2107  -31.3517   22.3239 C   0  0  0  0  0  0  0  0  0  0  0  0
  -24.5932  -29.0603   21.5039 C   0  0  0  0  0  0  0  0  0  0  0  0
  -19.3886  -23.7935   24.1034 C   0  0  0  0  0  0  0  0  0  0  0  0
  -24.6006  -14.0870   20.9862 C   0  0  1  0  0  0  0  0  0  0  0  0
  -25.8815  -17.5715   20.1795 C   0  0  1  0  0  0  0  0  0  0  0  0
  -25.1031  -29.5846   20.1515 C   0  0  2  0  0  0  0  0  0  0  0  0
  -19.0782  -22.2475   22.2250 C   0  0  2  0  0  0  0  0  0  0  0  0
  -30.7922  -23.2561   22.4080 C   0  0  0  0  0  0  0  0  0  0  0  0
  -27.6194  -17.4386   24.4600 C   0  0  0  0  0  0  0  0  0  0  0  0
  -29.1366  -19.3352   25.0674 C   0  0  0  0  0  0  0  0  0  0  0  0
  -29.9352  -17.5473   23.5221 C   0  0  0  0  0  0  0  0  0  0  0  0
  -29.3762  -21.8874   19.1525 C   0  0  0  0  0  0  0  0  0  0  0  0
  -18.6068  -24.7094   21.8839 C   0  0  0  0  0  0  0  0  0  0  0  0
  -19.9325  -21.7661   21.0669 C   0  0  0  0  0  0  0  0  0  1  0  0
  -28.2325  -19.2260   22.7006 C   0  0  1  0  0  0  0  0  0  0  0  0
  -30.2585  -22.1843   21.4703 C   0  0  2  0  0  0  0  0  0  0  0  0
  -28.7064  -18.3917   23.9241 C   0  0  0  0  0  0  0  0  0  0  0  0
  -27.3938  -28.7744   19.7304 N   0  0  0  0  0  0  0  0  0  0  0  0
  -26.0786  -28.6227   19.4996 N   0  0  0  0  0  0  0  0  0  0  0  0
  -26.4430  -18.5190   21.1445 N   0  0  0  0  0  0  0  0  0  0  0  0
  -23.6452  -30.0213   22.0891 N   0  0  0  0  0  0  0  0  0  0  0  0
  -24.5068  -27.2843   18.3382 N   0  0  0  0  0  0  0  0  0  0  0  0
  -28.4717  -25.4152   17.2511 N   0  0  0  0  0  0  0  0  0  0  0  0
  -21.8634  -28.4767   22.1294 N   0  0  0  0  0  0  0  0  0  0  0  0
  -25.2164  -15.2541   20.3920 N   0  0  0  0  0  0  0  0  0  0  0  0
  -29.2503  -20.1177   22.1552 N   0  0  0  0  0  0  0  0  0  0  0  0
  -19.4384  -23.6815   22.5888 N   0  3  1  0  0  0  0  0  0  0  0  0
  -29.8945  -22.8298   20.1773 N   0  3  0  0  0  0  0  0  0  0  0  0
  -26.2040  -25.2875   16.9350 O   0  0  0  0  0  0  0  0  0  0  0  0
  -24.6298  -16.8035   22.0284 O   0  0  0  0  0  0  0  0  0  0  0  0
  -28.5697  -17.5692   21.0370 O   0  0  0  0  0  0  0  0  0  0  0  0
  -28.0397  -22.0777   22.4203 O   0  0  0  0  0  0  0  0  0  0  0  0
  -21.5786  -30.6386   22.9211 O   0  0  0  0  0  0  0  0  0  0  0  0
  -33.4918  -27.1002   18.9817 O   0  0  0  0  0  0  0  0  0  0  0  0
  -21.3092  -21.9289   21.4056 O   0  0  0  0  0  0  0  0  0  1  0  0
  -35.4395  -21.9777   19.5903 F   0  0  0  0  0  0  0  0  0  0  0  0
  -35.1493  -26.4551   21.0981 F   0  0  0  0  0  0  0  0  0  0  0  0
  -17.1239  -29.2504   23.8897 Cl  0  0  0  0  0  0  0  0  0  0  0  0
  -21.4680  -25.6011   21.2809 Cl  0  0  0  0  0  0  0  0  0  0  0  0
  1  2  1  0  0  0  0
  1  5  2  0  0  0  0
  2  6  2  0  0  0  0
  3  8  2  0  0  0  0
  3 17  1  0  0  0  0
  4  9  1  0  0  0  0
  4 17  2  0  0  0  0
  5 19  1  0  0  0  0
  6 21  1  0  0  0  0
  7 10  2  0  0  0  0
  7 20  1  0  0  0  0
  8 25  1  0  0  0  0
  9 25  2  0  0  0  0
 10 26  1  0  0  0  0
 11 12  2  0  0  0  0
 11 27  1  0  0  0  0
 12 28  1  0  0  0  0
 13 22  1  0  0  0  0
 13 26  2  0  0  0  0
 14 23  1  0  0  0  0
 14 30  2  0  0  0  0
 15 24  2  0  0  0  0
 15 30  1  0  0  0  0
 16 28  2  0  0  0  0
 16 29  1  0  0  0  0
 17 32  1  0  0  0  0
 18 32  1  0  0  0  0
 18 33  2  0  0  0  0
 18 34  1  0  0  0  0
 19 21  2  0  0  0  0
 19 39  1  0  0  0  0
 20 22  2  0  0  0  0
 20 40  1  0  0  0  0
 21 51  1  0  0  0  0
 22 41  1  0  0  0  0
 23 31  2  0  0  0  0
 23 60  1  0  0  0  0
 24 31  1  0  0  0  0
 24 71  1  0  0  0  0
 25 81  1  0  0  0  0
 26 82  1  0  0  0  0
 27 29  2  0  0  0  0
 27 81  1  0  0  0  0
 28 83  1  0  0  0  0
 29 84  1  0  0  0  0
 30 85  1  0  0  0  0
 31 86  1  0  0  0  0
 32 65  2  0  0  0  0
 33 66  1  0  0  0  0
 33 69  1  0  0  0  0
 34 70  1  0  0  0  0
 34 76  2  0  0  0  0
 35 52  1  0  0  0  0
 35 72  1  0  0  0  0
 35 77  2  0  0  0  0
 36 62  1  0  0  0  0
 36 67  1  0  0  0  0
 36 78  2  0  0  0  0
 37 63  1  0  0  0  0
 37 73  1  0  0  0  0
 37 79  2  0  0  0  0
 38 68  1  0  0  0  0
 38 71  1  0  0  0  0
 38 80  2  0  0  0  0
 39 42  1  0  0  0  0
 40 52  1  0  0  0  0
 41 67  1  0  0  0  0
 42 45  1  0  0  0  0
 43 46  1  0  0  0  0
 43 48  1  0  0  0  0
 44 47  1  0  0  0  0
 44 50  1  0  0  0  0
 45 51  1  0  0  0  0
 46 53  1  0  0  0  0
 47 54  1  0  0  0  0
 48 68  1  0  0  0  0
 49 53  1  0  0  0  0
 49 68  1  0  0  0  0
 50 74  1  0  0  0  0
 51 72  1  0  0  0  0
 52 67  1  0  0  0  0
 53 66  1  0  0  0  0
 54 61  1  0  0  0  0
 54 74  1  0  0  0  0
 55 63  1  0  0  0  0
 56 64  1  0  0  0  0
 57 64  1  0  0  0  0
 58 64  1  0  0  0  0
 59 75  1  0  0  0  0
 60 74  1  0  0  0  0
 61 82  1  0  0  0  0
 62 64  1  0  0  0  0
 62 73  1  0  0  0  0
 63 75  1  0  0  0  0
 65 66  1  0  0  0  0
M  CHG  2  74   1  75   1
M  ISO  4  38 100  61 101  71 100  82 101
M  END
> <Batch ID>
0025

> <Smiles>
CNC(C)C(=O)NC(C(=O)N1Cc2cc([101O:1][101CH2:1]C3CCCN3Cc3cc(Cl)cc([100NH:0][100C:0](=O)N4CCCC(n5nc(-c6ccc(Oc7ccc(F)cc7F)cc6)c(C(N)=O)c5N)C4)c3Cl)ccc2CC1C(=O)NC1CCCc2ccccc21)C(C)(C)C

> <Shape>
0.211

> <Color>
0.081

> <Negative vol penalty>
0.000

$$$$

  -OEChem-04042321223D

 86 95  0     1  0  0  0  0  0999 V2000
  -26.1077  -38.6408   25.3765 C   0  0  0  0  0  0  0  0  0  0  0  0
  -27.0652  -37.9052   24.6855 C   0  0  0  0  0  0  0  0  0  0  0  0
  -24.1804   -9.8336   22.1537 C   0  0  0  0  0  0  0  0  0  0  0  0
  -24.6270  -11.3987   23.9393 C   0  0  0  0  0  0  0  0  0  0  0  0
  -25.1602  -37.9858   26.1620 C   0  0  0  0  0  0  0  0  0  0  0  0
  -27.0763  -36.5140   24.7804 C   0  0  0  0  0  0  0  0  0  0  0  0
  -28.5958  -30.6673   20.9303 C   0  0  0  0  0  0  0  0  0  0  0  0
  -23.8043   -8.8716   23.0909 C   0  0  0  0  0  0  0  0  0  0  0  0
  -24.2509  -10.4366   24.8766 C   0  0  0  0  0  0  0  0  0  0  0  0
  -29.3492  -29.4964   21.0017 C   0  0  0  0  0  0  0  0  0  0  0  0
  -21.0966   -8.1689   24.9902 C   0  0  0  0  0  0  0  0  0  0  0  0
  -19.9339   -7.4401   24.7402 C   0  0  0  0  0  0  0  0  0  0  0  0
  -27.6144  -28.4682   22.3255 C   0  0  0  0  0  0  0  0  0  0  0  0
  -28.0689  -20.9310   19.9052 C   0  0  0  0  0  0  0  0  0  0  0  0
  -30.2821  -19.2687   19.5573 C   0  0  0  0  0  0  0  0  0  0  0  0
  -21.2161   -5.3924   24.7466 C   0  0  0  0  0  0  0  0  0  0  0  0
  -24.5918  -11.0972   22.5778 C   0  0  0  0  0  0  0  0  0  0  0  0
  -24.1502  -13.0410   20.9858 C   0  0  0  0  0  0  0  0  0  0  0  0
  -25.1537  -36.5854   26.2589 C   0  0  0  0  0  0  0  0  0  0  0  0
  -27.3488  -30.7513   21.5661 C   0  0  0  0  0  0  0  0  0  0  0  0
  -26.1286  -35.8397   25.5690 C   0  0  0  0  0  0  0  0  0  0  0  0
  -26.8460  -29.6404   22.2584 C   0  0  0  0  0  0  0  0  0  0  0  0
  -29.3540  -21.4730   19.8992 C   0  0  0  0  0  0  0  0  0  0  0  0
  -28.9969  -18.7267   19.5634 C   0  0  0  0  0  0  0  0  0  0  0  0
  -23.8395   -9.1730   24.4524 C   0  0  0  0  0  0  0  0  0  0  0  0
  -28.8598  -28.3976   21.7019 C   0  0  0  0  0  0  0  0  0  0  0  0
  -22.3191   -7.5096   25.1183 C   0  0  0  0  0  0  0  0  0  0  0  0
  -19.9936   -6.0518   24.6184 C   0  0  0  0  0  0  0  0  0  0  0  0
  -27.8902  -19.5578   19.7374 C   0  0  0  0  0  0  0  0  0  0  0  0
  -22.3788   -6.1213   24.9965 C   0  0  0  0  0  0  0  0  0  0  0  0
  -30.4607  -20.6419   19.7253 C   0  0  0  0  0  0  0  0  0  0  0  0
  -24.9810  -12.0913   21.6101 C   0  0  0  0  0  0  0  0  0  0  0  0
  -24.9927  -13.7441   20.1599 C   0  0  0  0  0  0  0  0  0  0  0  0
  -30.0906  -23.7820   19.1662 C   0  0  0  0  0  0  0  0  0  0  0  0
  -22.7427  -13.2673   21.1388 C   0  0  0  0  0  0  0  0  0  0  0  0
  -26.1306  -32.5500   23.8866 C   0  0  0  0  0  0  0  0  0  0  0  0
  -23.3798  -31.0254   23.0924 C   0  0  0  0  0  0  0  0  0  0  0  0
  -21.8785  -28.2941   21.7023 C   0  0  0  0  0  0  0  0  0  0  0  0
  -29.8104  -16.3689   19.2092 C   0  0  0  0  0  0  0  0  0  0  0  0
  -24.1389  -35.9247   27.1580 C   0  0  0  0  0  0  0  0  0  0  0  0
  -26.5364  -32.0125   21.4571 C   0  0  0  0  0  0  0  0  0  0  0  0
  -25.5039  -29.6725   22.9414 C   0  0  0  0  0  0  0  0  0  0  0  0
  -29.9258  -25.1716   19.7379 C   0  0  0  0  0  0  0  0  0  0  0  0
  -23.9869  -34.4266   26.9073 C   0  0  0  0  0  0  0  0  0  0  0  0
  -29.7798  -12.8333   18.7903 C   0  0  0  0  0  0  0  0  0  0  0  0
  -25.3555  -33.7609   26.8046 C   0  0  0  0  0  0  0  0  0  0  0  0
  -28.4603  -12.4032   19.4352 C   0  0  0  0  0  0  0  0  0  0  0  0
  -30.4325  -13.9872   19.5493 C   0  0  0  0  0  0  0  0  0  0  0  0
  -28.9629  -23.5772   21.2272 C   0  0  0  0  0  0  0  0  0  0  0  0
  -28.2470  -14.7220   20.4172 C   0  0  0  0  0  0  0  0  0  0  0  0
  -26.1578  -34.3278   25.6271 C   0  0  1  0  0  0  0  0  0  0  0  0
  -25.5092  -32.1601   22.5753 C   0  0  1  0  0  0  0  0  0  0  0  0
  -29.6746  -24.9214   21.2180 C   0  0  2  0  0  0  0  0  0  0  0  0
  -27.5200  -13.6053   19.6504 C   0  0  2  0  0  0  0  0  0  0  0  0
  -19.6160  -27.3157   21.2319 C   0  0  0  0  0  0  0  0  0  0  0  0
  -23.1023  -30.2596   26.0329 C   0  0  0  0  0  0  0  0  0  0  0  0
  -21.4125  -28.5416   25.3540 C   0  0  0  0  0  0  0  0  0  0  0  0
  -20.9690  -30.9597   24.9315 C   0  0  0  0  0  0  0  0  0  0  0  0
  -22.3588  -28.2907   18.7820 C   0  0  0  0  0  0  0  0  0  0  0  0
  -28.8737  -26.0264   21.8846 C   0  0  0  0  0  0  0  0  0  1  0  0
  -22.6965  -29.7537   23.5339 C   0  0  1  0  0  0  0  0  0  0  0  0
  -20.7531  -28.1686   20.6913 C   0  0  2  0  0  0  0  0  0  0  0  0
  -22.0712  -29.8784   24.9520 C   0  0  0  0  0  0  0  0  0  0  0  0
  -26.2536  -12.1802   21.2145 N   0  0  0  0  0  0  0  0  0  0  0  0
  -26.2288  -13.1941   20.3327 N   0  0  0  0  0  0  0  0  0  0  0  0
  -29.5007  -22.8817   20.0731 N   0  0  0  0  0  0  0  0  0  0  0  0
  -24.7501  -30.9304   22.8114 N   0  0  0  0  0  0  0  0  0  0  0  0
  -29.4842  -15.0914   19.7117 N   0  0  0  0  0  0  0  0  0  0  0  0
  -24.7895  -14.7730   19.3099 N   0  0  0  0  0  0  0  0  0  0  0  0
  -22.0281  -12.4543   22.0291 N   0  0  0  0  0  0  0  0  0  0  0  0
  -28.8182  -17.3314   19.3930 N   0  0  0  0  0  0  0  0  0  0  0  0
  -25.6904  -33.7638   24.3790 N   0  0  0  0  0  0  0  0  0  0  0  0
  -21.7383  -29.4201   22.4856 N   0  0  0  0  0  0  0  0  0  0  0  0
  -21.2531  -27.5432   19.4344 N   0  3  0  0  0  0  0  0  0  0  0  0
  -30.6037  -23.5782   18.0754 O   0  0  0  0  0  0  0  0  0  0  0  0
  -22.1336  -14.1532   20.4926 O   0  0  0  0  0  0  0  0  0  0  0  0
  -26.9478  -31.8041   24.4134 O   0  0  0  0  0  0  0  0  0  0  0  0
  -22.7204  -32.0633   22.9935 O   0  0  0  0  0  0  0  0  0  0  0  0
  -22.7888  -27.4731   21.7910 O   0  0  0  0  0  0  0  0  0  0  0  0
  -30.8791  -16.5858   18.6323 O   0  0  0  0  0  0  0  0  0  0  0  0
  -23.4724   -8.2345   25.3673 O   0  0  0  0  0  0  0  0  0  0  0  0
  -29.5934  -27.2537   21.7737 O   0  0  0  0  0  0  0  0  0  1  0  0
  -18.8768   -5.3519   24.3799 F   0  0  0  0  0  0  0  0  0  0  0  0
  -26.6504  -19.0477   19.7449 F   0  0  0  0  0  0  0  0  0  0  0  0
  -23.5502   -5.4822   25.1198 F   0  0  0  0  0  0  0  0  0  0  0  0
  -32.0695  -21.2717   19.7125 Cl  0  0  0  0  0  0  0  0  0  0  0  0
  1  2  1  0  0  0  0
  1  5  2  0  0  0  0
  2  6  2  0  0  0  0
  3  8  2  0  0  0  0
  3 17  1  0  0  0  0
  4  9  1  0  0  0  0
  4 17  2  0  0  0  0
  5 19  1  0  0  0  0
  6 21  1  0  0  0  0
  7 10  2  0  0  0  0
  7 20  1  0  0  0  0
  8 25  1  0  0  0  0
  9 25  2  0  0  0  0
 10 26  1  0  0  0  0
 11 12  2  0  0  0  0
 11 27  1  0  0  0  0
 12 28  1  0  0  0  0
 13 22  1  0  0  0  0
 13 26  2  0  0  0  0
 14 23  1  0  0  0  0
 14 29  2  0  0  0  0
 15 24  2  0  0  0  0
 15 31  1  0  0  0  0
 16 28  2  0  0  0  0
 16 30  1  0  0  0  0
 17 32  1  0  0  0  0
 18 32  1  0  0  0  0
 18 33  2  0  0  0  0
 18 35  1  0  0  0  0
 19 21  2  0  0  0  0
 19 40  1  0  0  0  0
 20 22  2  0  0  0  0
 20 41  1  0  0  0  0
 21 51  1  0  0  0  0
 22 42  1  0  0  0  0
 23 31  2  0  0  0  0
 23 66  1  0  0  0  0
 24 29  1  0  0  0  0
 24 71  1  0  0  0  0
 25 81  1  0  0  0  0
 26 82  1  0  0  0  0
 27 30  2  0  0  0  0
 27 81  1  0  0  0  0
 28 83  1  0  0  0  0
 29 84  1  0  0  0  0
 30 85  1  0  0  0  0
 31 86  1  0  0  0  0
 32 64  2  0  0  0  0
 33 65  1  0  0  0  0
 33 69  1  0  0  0  0
 34 43  1  0  0  0  0
 34 66  1  0  0  0  0
 34 75  2  0  0  0  0
 35 70  1  0  0  0  0
 35 76  2  0  0  0  0
 36 52  1  0  0  0  0
 36 72  1  0  0  0  0
 36 77  2  0  0  0  0
 37 61  1  0  0  0  0
 37 67  1  0  0  0  0
 37 78  2  0  0  0  0
 38 62  1  0  0  0  0
 38 73  1  0  0  0  0
 38 79  2  0  0  0  0
 39 68  1  0  0  0  0
 39 71  1  0  0  0  0
 39 80  2  0  0  0  0
 40 44  1  0  0  0  0
 41 52  1  0  0  0  0
 42 67  1  0  0  0  0
 43 53  1  0  0  0  0
 44 46  1  0  0  0  0
 45 47  1  0  0  0  0
 45 48  1  0  0  0  0
 46 51  1  0  0  0  0
 47 54  1  0  0  0  0
 48 68  1  0  0  0  0
 49 53  1  0  0  0  0
 49 66  1  0  0  0  0
 50 54  1  0  0  0  0
 50 68  1  0  0  0  0
 51 72  1  0  0  0  0
 52 67  1  0  0  0  0
 53 60  1  0  0  0  0
 54 65  1  0  0  0  0
 55 62  1  0  0  0  0
 56 63  1  0  0  0  0
 57 63  1  0  0  0  0
 58 63  1  0  0  0  0
 59 74  1  0  0  0  0
 60 82  1  0  0  0  0
 61 63  1  0  0  0  0
 61 73  1  0  0  0  0
 62 74  1  0  0  0  0
 64 65  1  0  0  0  0
M  CHG  1  74   1
M  ISO  4  39 100  60 101  71 100  82 101
M  END
> <Batch ID>
0025

> <Smiles>
CNC(C)C(=O)NC(C(=O)N1Cc2cc([101O:1][101CH2:1]C3CC(=O)N(c4cc(F)c([100NH:0][100C:0](=O)N5CCCC(n6nc(-c7ccc(Oc8ccc(F)cc8F)cc7)c(C(N)=O)c6N)C5)cc4Cl)C3)ccc2CC1C(=O)NC1CCCc2ccccc21)C(C)(C)C

> <Shape>
0.341

> <Color>
0.119

> <Negative vol penalty>
0.000

$$$$

  -OEChem-04042321223D

 88 97  0     1  0  0  0  0  0999 V2000
  -37.7748  -26.6739   13.1386 C   0  0  0  0  0  0  0  0  0  0  0  0
  -38.1526  -26.5855   14.4746 C   0  0  0  0  0  0  0  0  0  0  0  0
  -23.0085   -9.8754   19.9843 C   0  0  0  0  0  0  0  0  0  0  0  0
  -23.7291   -9.9451   22.2893 C   0  0  0  0  0  0  0  0  0  0  0  0
  -36.4250  -26.6281   12.7925 C   0  0  0  0  0  0  0  0  0  0  0  0
  -37.1805  -26.4523   15.4654 C   0  0  0  0  0  0  0  0  0  0  0  0
  -37.1774  -20.7912   19.9201 C   0  0  0  0  0  0  0  0  0  0  0  0
  -22.2483   -8.7380   20.2564 C   0  0  0  0  0  0  0  0  0  0  0  0
  -22.9688   -8.8077   22.5614 C   0  0  0  0  0  0  0  0  0  0  0  0
  -37.2327  -19.8468   20.9453 C   0  0  0  0  0  0  0  0  0  0  0  0
  -23.2340   -5.4674   22.1108 C   0  0  0  0  0  0  0  0  0  0  0  0
  -23.8262   -4.4585   22.8704 C   0  0  0  0  0  0  0  0  0  0  0  0
  -35.1969  -20.7425   21.8947 C   0  0  0  0  0  0  0  0  0  0  0  0
  -30.4768  -18.3948   23.9633 C   0  0  0  0  0  0  0  0  0  0  0  0
  -32.0235  -16.5770   22.5191 C   0  0  0  0  0  0  0  0  0  0  0  0
  -22.0978   -4.7015   24.5409 C   0  0  0  0  0  0  0  0  0  0  0  0
  -23.7490  -10.4789   21.0008 C   0  0  0  0  0  0  0  0  0  0  0  0
  -24.1196  -12.9956   20.8097 C   0  0  0  0  0  0  0  0  0  0  0  0
  -35.4365  -26.4845   13.7787 C   0  0  0  0  0  0  0  0  0  0  0  0
  -36.1220  -21.7061   19.8695 C   0  0  0  0  0  0  0  0  0  0  0  0
  -35.8161  -26.4058   15.1323 C   0  0  0  0  0  0  0  0  0  0  0  0
  -35.1295  -21.6827   20.8631 C   0  0  0  0  0  0  0  0  0  0  0  0
  -31.8625  -18.3777   24.1218 C   0  0  0  0  0  0  0  0  0  0  0  0
  -32.6358  -17.4688   23.3997 C   0  0  0  0  0  0  0  0  0  0  0  0
  -30.6377  -16.5941   22.3607 C   0  0  0  0  0  0  0  0  0  0  0  0
  -22.2284   -8.2042   21.5449 C   0  0  0  0  0  0  0  0  0  0  0  0
  -36.2450  -19.8227   21.9303 C   0  0  0  0  0  0  0  0  0  0  0  0
  -22.0737   -6.0935   22.5663 C   0  0  0  0  0  0  0  0  0  0  0  0
  -23.2581   -4.0755   24.0854 C   0  0  0  0  0  0  0  0  0  0  0  0
  -21.5056   -5.7105   23.7814 C   0  0  0  0  0  0  0  0  0  0  0  0
  -29.8644  -17.5030   23.0828 C   0  0  0  0  0  0  0  0  0  0  0  0
  -24.5349  -11.6535   20.7202 C   0  0  0  0  0  0  0  0  0  0  0  0
  -25.2257  -13.7225   20.4428 C   0  0  0  0  0  0  0  0  0  0  0  0
  -22.8477  -13.5368   21.1905 C   0  0  0  0  0  0  0  0  0  0  0  0
  -34.5110  -24.5727   18.0630 C   0  0  0  0  0  0  0  0  0  0  0  0
  -32.2502  -22.7106   18.9750 C   0  0  0  0  0  0  0  0  0  0  0  0
  -30.0962  -20.1929   19.7864 C   0  0  0  0  0  0  0  0  0  0  0  0
  -30.6988  -14.7179   20.6807 C   0  0  0  0  0  0  0  0  0  0  0  0
  -33.9875  -26.4874   13.3601 C   0  0  0  0  0  0  0  0  0  0  0  0
  -36.0551  -22.7804   18.8183 C   0  0  0  0  0  0  0  0  0  0  0  0
  -34.0316  -22.7084   20.7880 C   0  0  0  0  0  0  0  0  0  0  0  0
  -33.0408  -25.9680   14.4390 C   0  0  0  0  0  0  0  0  0  0  0  0
  -33.4183  -21.2650   25.8982 C   0  0  0  0  0  0  0  0  0  0  0  0
  -33.4102  -20.2054   26.9813 C   0  0  0  0  0  0  0  0  0  0  0  0
  -29.5996  -12.2438   18.3681 C   0  0  0  0  0  0  0  0  0  0  0  0
  -33.3710  -26.5991   15.7879 C   0  0  0  0  0  0  0  0  0  0  0  0
  -28.1498  -11.9801   18.7813 C   0  0  0  0  0  0  0  0  0  0  0  0
  -32.3745  -20.7487   24.9144 C   0  0  0  0  0  0  0  0  0  0  0  0
  -33.2633  -18.9129   26.1864 C   0  0  0  0  0  0  0  0  0  0  0  0
  -30.4964  -12.5002   19.5780 C   0  0  0  0  0  0  0  0  0  0  0  0
  -28.5739  -13.2859   20.9031 C   0  0  0  0  0  0  0  0  0  0  0  0
  -34.7925  -26.2357   16.2338 C   0  0  1  0  0  0  0  0  0  0  0  0
  -34.6159  -23.1106   18.3836 C   0  0  1  0  0  0  0  0  0  0  0  0
  -27.6195  -13.0864   19.7143 C   0  0  2  0  0  0  0  0  0  0  0  0
  -27.6666  -19.5720   19.6915 C   0  0  0  0  0  0  0  0  0  0  0  0
  -36.5422  -16.8265   24.9795 C   0  0  0  0  0  0  0  0  0  0  0  0
  -31.6847  -24.5799   21.3181 C   0  0  0  0  0  0  0  0  0  0  0  0
  -29.6071  -23.2605   21.7773 C   0  0  0  0  0  0  0  0  0  0  0  0
  -29.8622  -24.4677   19.6092 C   0  0  0  0  0  0  0  0  0  0  0  0
  -30.6445  -17.8417   18.0745 C   0  0  0  0  0  0  0  0  0  0  0  0
  -34.8297  -16.3010   23.1790 C   0  0  0  0  0  0  0  0  0  0  0  0
  -36.9124  -17.6437   22.6117 C   0  0  0  0  0  0  0  0  0  1  0  0
  -31.2303  -22.3850   20.0367 C   0  0  1  0  0  0  0  0  0  0  0  0
  -29.0109  -19.4978   18.9842 C   0  0  2  0  0  0  0  0  0  0  0  0
  -36.3138  -16.5390   23.4913 C   0  0  1  0  0  0  0  0  0  0  0  0
  -30.6215  -23.6605   20.6847 C   0  0  0  0  0  0  0  0  0  0  0  0
  -25.8057  -11.5321   20.3272 N   0  0  0  0  0  0  0  0  0  0  0  0
  -26.1983  -12.8073   20.1663 N   0  0  0  0  0  0  0  0  0  0  0  0
  -32.4607  -19.2866   25.0153 N   0  0  0  0  0  0  0  0  0  0  0  0
  -33.5773  -22.8570   19.3965 N   0  0  0  0  0  0  0  0  0  0  0  0
  -29.9334  -13.5631   20.4136 N   0  0  0  0  0  0  0  0  0  0  0  0
  -25.4514  -15.0489   20.3329 N   0  0  0  0  0  0  0  0  0  0  0  0
  -21.8205  -12.6487   21.5377 N   0  0  0  0  0  0  0  0  0  0  0  0
  -30.0474  -15.6741   21.4591 N   0  0  0  0  0  0  0  0  0  0  0  0
  -34.0136  -17.4353   23.5429 N   0  0  0  0  0  0  0  0  0  0  0  0
  -34.8291  -24.8862   16.7554 N   0  0  0  0  0  0  0  0  0  0  0  0
  -30.2492  -21.5091   19.4053 N   0  0  0  0  0  0  0  0  0  0  0  0
  -29.3562  -18.0624   18.7806 N   0  3  0  0  0  0  0  0  0  0  0  0
  -22.6235  -14.7709   21.2061 O   0  0  0  0  0  0  0  0  0  0  0  0
  -34.1655  -25.3595   18.9367 O   0  0  0  0  0  0  0  0  0  0  0  0
  -31.8820  -22.8380   17.8038 O   0  0  0  0  0  0  0  0  0  0  0  0
  -30.7410  -19.6260   20.6658 O   0  0  0  0  0  0  0  0  0  0  0  0
  -31.8375  -14.8608   20.2279 O   0  0  0  0  0  0  0  0  0  0  0  0
  -21.4865   -7.0945   21.8108 O   0  0  0  0  0  0  0  0  0  0  0  0
  -36.3027  -18.8951   22.9258 O   0  0  0  0  0  0  0  0  0  1  0  0
  -23.8261   -3.1055   24.8139 F   0  0  0  0  0  0  0  0  0  0  0  0
  -20.3903   -6.3075   24.2236 F   0  0  0  0  0  0  0  0  0  0  0  0
  -28.1454  -17.5575   22.9174 Cl  0  0  0  0  0  0  0  0  0  0  0  0
  1  2  1  0  0  0  0
  1  5  2  0  0  0  0
  2  6  2  0  0  0  0
  3  8  2  0  0  0  0
  3 17  1  0  0  0  0
  4  9  1  0  0  0  0
  4 17  2  0  0  0  0
  5 19  1  0  0  0  0
  6 21  1  0  0  0  0
  7 10  2  0  0  0  0
  7 20  1  0  0  0  0
  8 26  1  0  0  0  0
  9 26  2  0  0  0  0
 10 27  1  0  0  0  0
 11 12  2  0  0  0  0
 11 28  1  0  0  0  0
 12 29  1  0  0  0  0
 13 22  1  0  0  0  0
 13 27  2  0  0  0  0
 14 23  1  0  0  0  0
 14 31  2  0  0  0  0
 15 24  1  0  0  0  0
 15 25  2  0  0  0  0
 16 29  2  0  0  0  0
 16 30  1  0  0  0  0
 17 32  1  0  0  0  0
 18 32  1  0  0  0  0
 18 33  2  0  0  0  0
 18 34  1  0  0  0  0
 19 21  2  0  0  0  0
 19 39  1  0  0  0  0
 20 22  2  0  0  0  0
 20 40  1  0  0  0  0
 21 52  1  0  0  0  0
 22 41  1  0  0  0  0
 23 24  2  0  0  0  0
 23 69  1  0  0  0  0
 24 75  1  0  0  0  0
 25 31  1  0  0  0  0
 25 74  1  0  0  0  0
 26 84  1  0  0  0  0
 27 85  1  0  0  0  0
 28 30  2  0  0  0  0
 28 84  1  0  0  0  0
 29 86  1  0  0  0  0
 30 87  1  0  0  0  0
 31 88  1  0  0  0  0
 32 67  2  0  0  0  0
 33 68  1  0  0  0  0
 33 72  1  0  0  0  0
 34 73  1  0  0  0  0
 34 79  2  0  0  0  0
 35 53  1  0  0  0  0
 35 76  1  0  0  0  0
 35 80  2  0  0  0  0
 36 63  1  0  0  0  0
 36 70  1  0  0  0  0
 36 81  2  0  0  0  0
 37 64  1  0  0  0  0
 37 77  1  0  0  0  0
 37 82  2  0  0  0  0
 38 71  1  0  0  0  0
 38 74  1  0  0  0  0
 38 83  2  0  0  0  0
 39 42  1  0  0  0  0
 40 53  1  0  0  0  0
 41 70  1  0  0  0  0
 42 46  1  0  0  0  0
 43 44  1  0  0  0  0
 43 48  1  0  0  0  0
 44 49  1  0  0  0  0
 45 47  1  0  0  0  0
 45 50  1  0  0  0  0
 46 52  1  0  0  0  0
 47 54  1  0  0  0  0
 48 69  1  0  0  0  0
 49 69  1  0  0  0  0
 50 71  1  0  0  0  0
 51 54  1  0  0  0  0
 51 71  1  0  0  0  0
 52 76  1  0  0  0  0
 53 70  1  0  0  0  0
 54 68  1  0  0  0  0
 55 64  1  0  0  0  0
 56 65  1  0  0  0  0
 57 66  1  0  0  0  0
 58 66  1  0  0  0  0
 59 66  1  0  0  0  0
 60 78  1  0  0  0  0
 61 65  1  0  0  0  0
 61 75  1  0  0  0  0
 62 65  1  0  0  0  0
 62 85  1  0  0  0  0
 63 66  1  0  0  0  0
 63 77  1  0  0  0  0
 64 78  1  0  0  0  0
 67 68  1  0  0  0  0
M  CHG  1  78   1
M  ISO  4  38 100  62 101  74 100  85 101
M  END
> <Batch ID>
0025

> <Smiles>
CNC(C)C(=O)NC(C(=O)N1Cc2cc([101O:1][101CH2:1]C(C)CNc3cc([100NH:0][100C:0](=O)N4CCCC(n5nc(-c6ccc(Oc7ccc(F)cc7F)cc6)c(C(N)=O)c5N)C4)c(Cl)cc3N3CCCC3)ccc2CC1C(=O)NC1CCCc2ccccc21)C(C)(C)C

> <Shape>
0.225

> <Color>
0.195

> <Negative vol penalty>
0.000

$$$$

  -OEChem-04042321223D

 84 92  0     1  0  0  0  0  0999 V2000
  -30.6644  -34.2415   23.2111 C   0  0  0  0  0  0  0  0  0  0  0  0
  -30.8940  -33.0573   22.5181 C   0  0  0  0  0  0  0  0  0  0  0  0
  -22.9657  -15.0173   20.0566 C   0  0  0  0  0  0  0  0  0  0  0  0
  -22.7158  -13.1048   18.6017 C   0  0  0  0  0  0  0  0  0  0  0  0
  -29.7126  -34.2787   24.2293 C   0  0  0  0  0  0  0  0  0  0  0  0
  -30.1727  -31.9092   22.8436 C   0  0  0  0  0  0  0  0  0  0  0  0
  -28.2905  -27.5302   18.9981 C   0  0  0  0  0  0  0  0  0  0  0  0
  -32.1383  -16.6417   22.8787 C   0  0  0  0  0  0  0  0  0  0  0  0
  -21.9382  -15.6698   19.3754 C   0  0  0  0  0  0  0  0  0  0  0  0
  -21.6882  -13.7572   17.9205 C   0  0  0  0  0  0  0  0  0  0  0  0
  -28.8109  -26.2775   18.6761 C   0  0  0  0  0  0  0  0  0  0  0  0
  -21.5551  -17.3622   16.4749 C   0  0  0  0  0  0  0  0  0  0  0  0
  -21.7528  -18.6998   16.1322 C   0  0  0  0  0  0  0  0  0  0  0  0
  -32.7237  -17.8748   23.1657 C   0  0  0  0  0  0  0  0  0  0  0  0
  -27.3258  -25.2552   20.2787 C   0  0  0  0  0  0  0  0  0  0  0  0
  -19.8226  -19.3216   17.4454 C   0  0  0  0  0  0  0  0  0  0  0  0
  -23.3546  -13.7348   19.6697 C   0  0  0  0  0  0  0  0  0  0  0  0
  -24.2933  -12.2215   21.4963 C   0  0  0  0  0  0  0  0  0  0  0  0
  -28.9724  -33.1330   24.5609 C   0  0  0  0  0  0  0  0  0  0  0  0
  -27.2898  -27.6562   19.9724 C   0  0  0  0  0  0  0  0  0  0  0  0
  -29.2111  -31.9308   23.8680 C   0  0  0  0  0  0  0  0  0  0  0  0
  -26.7925  -26.5103   20.6095 C   0  0  0  0  0  0  0  0  0  0  0  0
  -31.2392  -16.5263   21.8185 C   0  0  0  0  0  0  0  0  0  0  0  0
  -31.5109  -18.8772   21.3322 C   0  0  0  0  0  0  0  0  0  0  0  0
  -21.2994  -15.0398   18.3074 C   0  0  0  0  0  0  0  0  0  0  0  0
  -28.3306  -25.1401   19.3185 C   0  0  0  0  0  0  0  0  0  0  0  0
  -20.4910  -17.0043   17.3027 C   0  0  0  0  0  0  0  0  0  0  0  0
  -20.8866  -19.6795   16.6175 C   0  0  0  0  0  0  0  0  0  0  0  0
  -19.6248  -17.9840   17.7880 C   0  0  0  0  0  0  0  0  0  0  0  0
  -32.4100  -18.9926   22.3924 C   0  0  0  0  0  0  0  0  0  0  0  0
  -30.9255  -17.6441   21.0452 C   0  0  0  0  0  0  0  0  0  0  0  0
  -24.4164  -13.0605   20.3725 C   0  0  0  0  0  0  0  0  0  0  0  0
  -25.5808  -11.8364   21.7799 C   0  0  0  0  0  0  0  0  0  0  0  0
  -23.1200  -11.8256   22.2190 C   0  0  0  0  0  0  0  0  0  0  0  0
  -27.0680  -29.1228   22.7837 C   0  0  0  0  0  0  0  0  0  0  0  0
  -23.9759  -28.1592   22.6036 C   0  0  0  0  0  0  0  0  0  0  0  0
  -21.6936  -25.9698   21.3212 C   0  0  0  0  0  0  0  0  0  0  0  0
  -30.8394  -14.5861   20.3115 C   0  0  0  0  0  0  0  0  0  0  0  0
  -27.9878  -33.2097   25.7008 C   0  0  0  0  0  0  0  0  0  0  0  0
  -26.7200  -29.0117   20.2892 C   0  0  0  0  0  0  0  0  0  0  0  0
  -25.7046  -26.5895   21.6481 C   0  0  0  0  0  0  0  0  0  0  0  0
  -27.0005  -32.0458   25.7321 C   0  0  0  0  0  0  0  0  0  0  0  0
  -29.8215  -11.0920   19.7074 C   0  0  0  0  0  0  0  0  0  0  0  0
  -27.7309  -30.7208   25.5386 C   0  0  0  0  0  0  0  0  0  0  0  0
  -28.3010  -11.1519   19.8438 C   0  0  0  0  0  0  0  0  0  0  0  0
  -30.3982  -12.4130   19.2071 C   0  0  0  0  0  0  0  0  0  0  0  0
  -28.4816  -13.6514   20.1679 C   0  0  0  0  0  0  0  0  0  0  0  0
  -28.4312  -30.6708   24.1753 C   0  0  1  0  0  0  0  0  0  0  0  0
  -26.0653  -29.0779   21.6656 C   0  0  1  0  0  0  0  0  0  0  0  0
  -27.8747  -12.3489   20.7111 C   0  0  1  0  0  0  0  0  0  0  0  0
  -19.2482  -25.4102   21.3865 C   0  0  0  0  0  0  0  0  0  0  0  0
  -24.3426  -26.8880   25.3530 C   0  0  0  0  0  0  0  0  0  0  0  0
  -22.2514  -25.5727   24.9468 C   0  0  0  0  0  0  0  0  0  0  0  0
  -22.1593  -28.0641   25.0303 C   0  0  0  0  0  0  0  0  0  0  0  0
  -30.0726  -14.4850   22.6719 C   0  0  0  0  0  0  0  0  0  0  0  0
  -21.3848  -26.4623   18.4193 C   0  0  0  0  0  0  0  0  0  0  0  0
  -30.0071  -21.9768   19.7997 C   0  0  0  0  0  0  0  0  0  0  0  0
  -30.1165  -20.8930   20.8653 C   0  0  0  0  0  0  0  0  0  0  0  0
  -28.8456  -22.9337   20.0413 C   0  0  0  0  0  0  0  0  0  1  0  0
  -23.2128  -26.9291   23.0319 C   0  0  1  0  0  0  0  0  0  0  0  0
  -20.3396  -26.1916   20.6716 C   0  0  2  0  0  0  0  0  0  0  0  0
  -23.0134  -26.8619   24.5724 C   0  0  0  0  0  0  0  0  0  0  0  0
  -25.6822  -13.2007   19.9699 N   0  0  0  0  0  0  0  0  0  0  0  0
  -26.3663  -12.4447   20.8455 N   0  0  0  0  0  0  0  0  0  0  0  0
  -25.1843  -27.9380   21.9277 N   0  0  0  0  0  0  0  0  0  0  0  0
  -29.9410  -13.5397   20.0214 N   0  0  0  0  0  0  0  0  0  0  0  0
  -26.1064  -11.0402   22.7351 N   0  0  0  0  0  0  0  0  0  0  0  0
  -21.8768  -12.3129   21.7932 N   0  0  0  0  0  0  0  0  0  0  0  0
  -31.2024  -19.9908   20.5666 N   0  0  0  0  0  0  0  0  0  0  0  0
  -27.4735  -30.3990   23.1248 N   0  0  0  0  0  0  0  0  0  0  0  0
  -21.9698  -26.9333   22.2681 N   0  0  0  0  0  0  0  0  0  0  0  0
  -30.6558  -15.2325   21.5530 N   0  0  0  0  0  0  0  0  0  0  0  0
  -20.3716  -25.7577   19.2463 N   0  3  0  0  0  0  0  0  0  0  0  0
  -23.1742  -11.0754   23.2229 O   0  0  0  0  0  0  0  0  0  0  0  0
  -27.4448  -28.0772   23.2998 O   0  0  0  0  0  0  0  0  0  0  0  0
  -23.5133  -29.2752   22.8529 O   0  0  0  0  0  0  0  0  0  0  0  0
  -22.4308  -25.0332   21.0215 O   0  0  0  0  0  0  0  0  0  0  0  0
  -31.7511  -14.8972   19.5358 O   0  0  0  0  0  0  0  0  0  0  0  0
  -20.2965  -15.6761   17.6427 O   0  0  0  0  0  0  0  0  0  0  0  0
  -28.8373  -23.9162   19.0065 O   0  0  0  0  0  0  0  0  0  1  0  0
  -21.0776  -20.9641   16.2896 F   0  0  0  0  0  0  0  0  0  0  0  0
  -18.6015  -17.6464   18.5847 F   0  0  0  0  0  0  0  0  0  0  0  0
  -33.1620  -20.4977   22.7868 Cl  0  0  0  0  0  0  0  0  0  0  0  0
  -29.8065  -17.4951   19.7262 Cl  0  0  0  0  0  0  0  0  0  0  0  0
  1  2  1  0  0  0  0
  1  5  2  0  0  0  0
  2  6  2  0  0  0  0
  3  9  2  0  0  0  0
  3 17  1  0  0  0  0
  4 10  1  0  0  0  0
  4 17  2  0  0  0  0
  5 19  1  0  0  0  0
  6 21  1  0  0  0  0
  7 11  2  0  0  0  0
  7 20  1  0  0  0  0
  8 14  1  0  0  0  0
  8 23  2  0  0  0  0
  9 25  1  0  0  0  0
 10 25  2  0  0  0  0
 11 26  1  0  0  0  0
 12 13  2  0  0  0  0
 12 27  1  0  0  0  0
 13 28  1  0  0  0  0
 14 30  2  0  0  0  0
 15 22  1  0  0  0  0
 15 26  2  0  0  0  0
 16 28  2  0  0  0  0
 16 29  1  0  0  0  0
 17 32  1  0  0  0  0
 18 32  1  0  0  0  0
 18 33  2  0  0  0  0
 18 34  1  0  0  0  0
 19 21  2  0  0  0  0
 19 39  1  0  0  0  0
 20 22  2  0  0  0  0
 20 40  1  0  0  0  0
 21 48  1  0  0  0  0
 22 41  1  0  0  0  0
 23 31  1  0  0  0  0
 23 72  1  0  0  0  0
 24 30  1  0  0  0  0
 24 31  2  0  0  0  0
 24 69  1  0  0  0  0
 25 79  1  0  0  0  0
 26 80  1  0  0  0  0
 27 29  2  0  0  0  0
 27 79  1  0  0  0  0
 28 81  1  0  0  0  0
 29 82  1  0  0  0  0
 30 83  1  0  0  0  0
 31 84  1  0  0  0  0
 32 63  2  0  0  0  0
 33 64  1  0  0  0  0
 33 67  1  0  0  0  0
 34 68  1  0  0  0  0
 34 74  2  0  0  0  0
 35 49  1  0  0  0  0
 35 70  1  0  0  0  0
 35 75  2  0  0  0  0
 36 60  1  0  0  0  0
 36 65  1  0  0  0  0
 36 76  2  0  0  0  0
 37 61  1  0  0  0  0
 37 71  1  0  0  0  0
 37 77  2  0  0  0  0
 38 66  1  0  0  0  0
 38 72  1  0  0  0  0
 38 78  2  0  0  0  0
 39 42  1  0  0  0  0
 40 49  1  0  0  0  0
 41 65  1  0  0  0  0
 42 44  1  0  0  0  0
 43 45  1  0  0  0  0
 43 46  1  0  0  0  0
 44 48  1  0  0  0  0
 45 50  1  0  0  0  0
 46 66  1  0  0  0  0
 47 50  1  0  0  0  0
 47 66  1  0  0  0  0
 48 70  1  0  0  0  0
 49 65  1  0  0  0  0
 50 64  1  0  0  0  0
 51 61  1  0  0  0  0
 52 62  1  0  0  0  0
 53 62  1  0  0  0  0
 54 62  1  0  0  0  0
 55 72  1  0  0  0  0
 56 73  1  0  0  0  0
 57 58  1  0  0  0  0
 57 59  1  0  0  0  0
 58 69  1  0  0  0  0
 59 80  1  0  0  0  0
 60 62  1  0  0  0  0
 60 71  1  0  0  0  0
 61 73  1  0  0  0  0
 63 64  1  0  0  0  0
M  CHG  1  73   1
M  ISO  4  38 100  59 101  72 100  80 101
M  END
> <Batch ID>
0025

> <Smiles>
CNC(C)C(=O)NC(C(=O)N1Cc2cc([101O:1][101CH2:1]CCNc3c(Cl)ccc([100N:0](C)[100C:0](=O)N4CCCC(n5nc(-c6ccc(Oc7ccc(F)cc7F)cc6)c(C(N)=O)c5N)C4)c3Cl)ccc2CC1C(=O)NC1CCCc2ccccc21)C(C)(C)C

> <Shape>
0.236

> <Color>
0.094

> <Negative vol penalty>
0.000

$$$$

  -OEChem-04042321223D

 87 96  0     1  0  0  0  0  0999 V2000
  -16.9602  -28.0393   20.2975 C   0  0  0  0  0  0  0  0  0  0  0  0
  -18.1888  -28.3488   19.7228 C   0  0  0  0  0  0  0  0  0  0  0  0
  -24.9708  -13.9787   21.8705 C   0  0  0  0  0  0  0  0  0  0  0  0
  -26.2999  -14.0773   19.8553 C   0  0  0  0  0  0  0  0  0  0  0  0
  -16.8313  -27.9998   21.6852 C   0  0  0  0  0  0  0  0  0  0  0  0
  -19.2889  -28.6202   20.5356 C   0  0  0  0  0  0  0  0  0  0  0  0
  -25.1427  -27.2306   19.3922 C   0  0  0  0  0  0  0  0  0  0  0  0
  -29.3141  -24.9901   17.0646 C   0  0  0  0  0  0  0  0  0  0  0  0
  -28.2590  -24.1018   17.2725 C   0  0  0  0  0  0  0  0  0  0  0  0
  -24.9511  -12.5864   21.7894 C   0  0  0  0  0  0  0  0  0  0  0  0
  -26.2803  -12.6849   19.7743 C   0  0  0  0  0  0  0  0  0  0  0  0
  -26.2030  -27.9806   18.8853 C   0  0  0  0  0  0  0  0  0  0  0  0
  -23.2904  -10.2167   20.0428 C   0  0  0  0  0  0  0  0  0  0  0  0
  -22.0710   -9.5731   20.2536 C   0  0  0  0  0  0  0  0  0  0  0  0
  -26.9420  -28.4448   21.1342 C   0  0  0  0  0  0  0  0  0  0  0  0
  -30.2917  -24.3218   19.1705 C   0  0  0  0  0  0  0  0  0  0  0  0
  -23.0254   -8.3773   22.1234 C   0  0  0  0  0  0  0  0  0  0  0  0
  -25.6451  -14.7242   20.9034 C   0  0  0  0  0  0  0  0  0  0  0  0
  -26.1798  -16.9464   22.0364 C   0  0  0  0  0  0  0  0  0  0  0  0
  -17.9327  -28.2613   22.5153 C   0  0  0  0  0  0  0  0  0  0  0  0
  -24.9675  -27.0909   20.7765 C   0  0  0  0  0  0  0  0  0  0  0  0
  -19.1742  -28.5854   21.9357 C   0  0  0  0  0  0  0  0  0  0  0  0
  -25.8801  -27.6904   21.6561 C   0  0  0  0  0  0  0  0  0  0  0  0
  -30.3305  -25.1001   18.0136 C   0  0  0  0  0  0  0  0  0  0  0  0
  -28.2202  -23.3235   18.4294 C   0  0  0  0  0  0  0  0  0  0  0  0
  -25.6059  -11.9395   20.7414 C   0  0  0  0  0  0  0  0  0  0  0  0
  -27.1012  -28.5902   19.7563 C   0  0  0  0  0  0  0  0  0  0  0  0
  -24.3774   -9.9405   20.8722 C   0  0  0  0  0  0  0  0  0  0  0  0
  -21.9385   -8.6535   21.2939 C   0  0  0  0  0  0  0  0  0  0  0  0
  -24.2449   -9.0208   21.9125 C   0  0  0  0  0  0  0  0  0  0  0  0
  -29.2365  -23.4335   19.3784 C   0  0  0  0  0  0  0  0  0  0  0  0
  -25.6653  -16.1625   20.9863 C   0  0  0  0  0  0  0  0  0  0  0  0
  -25.9606  -18.2421   21.6369 C   0  0  0  0  0  0  0  0  0  0  0  0
  -30.6197  -28.3479   18.1489 C   0  0  0  0  0  0  0  0  0  0  0  0
  -26.8005  -16.5397   23.2632 C   0  0  0  0  0  0  0  0  0  0  0  0
  -22.6895  -27.8966   22.8417 C   0  0  0  0  0  0  0  0  0  0  0  0
  -24.5367  -26.2371   24.9290 C   0  0  0  0  0  0  0  0  0  0  0  0
  -27.6276  -25.0447   25.7481 C   0  0  0  0  0  0  0  0  0  0  0  0
  -26.0605  -22.2222   17.7443 C   0  0  0  0  0  0  0  0  0  0  0  0
  -17.7332  -28.2530   24.0103 C   0  0  0  0  0  0  0  0  0  0  0  0
  -23.8341  -26.2564   21.3069 C   0  0  0  0  0  0  0  0  0  0  0  0
  -25.7479  -27.5541   23.1502 C   0  0  0  0  0  0  0  0  0  0  0  0
  -19.0386  -28.1856   24.7986 C   0  0  0  0  0  0  0  0  0  0  0  0
  -32.2358  -28.4534   20.6466 C   0  0  0  0  0  0  0  0  0  0  0  0
  -23.2110  -20.0884   17.8090 C   0  0  0  0  0  0  0  0  0  0  0  0
  -20.0502  -29.1827   24.2425 C   0  0  0  0  0  0  0  0  0  0  0  0
  -31.8569  -29.6872   19.8412 C   0  0  0  0  0  0  0  0  0  0  0  0
  -23.6378  -18.9413   18.7278 C   0  0  0  0  0  0  0  0  0  0  0  0
  -31.8110  -27.1409   19.9937 C   0  0  0  0  0  0  0  0  0  0  0  0
  -24.3697  -20.5853   16.9464 C   0  0  0  0  0  0  0  0  0  0  0  0
  -26.0118  -19.7992   18.6061 C   0  0  0  0  0  0  0  0  0  0  0  0
  -20.3968  -28.8615   22.7837 C   0  0  1  0  0  0  0  0  0  0  0  0
  -30.5277  -29.5201   19.1125 C   0  0  2  0  0  0  0  0  0  0  0  0
  -23.4546  -26.6072   22.7423 C   0  0  1  0  0  0  0  0  0  0  0  0
  -24.8945  -19.3085   19.5411 C   0  0  2  0  0  0  0  0  0  0  0  0
  -29.3659  -23.7671   27.0301 C   0  0  0  0  0  0  0  0  0  0  0  0
  -24.4999  -28.7018   26.7273 C   0  0  0  0  0  0  0  0  0  0  0  0
  -26.4372  -27.7302   27.9808 C   0  0  0  0  0  0  0  0  0  0  0  0
  -24.2533  -26.5256   27.9348 C   0  0  0  0  0  0  0  0  0  0  0  0
  -27.1676  -22.5932   24.1551 C   0  0  0  0  0  0  0  0  0  0  0  0
  -31.4657  -26.0567   17.7893 C   0  0  0  0  0  0  0  0  0  0  0  0
  -29.3306  -29.3664   20.0445 C   0  0  0  0  0  0  0  0  0  1  0  0
  -25.6824  -26.5810   25.8499 C   0  0  1  0  0  0  0  0  0  0  0  0
  -28.0886  -23.6741   26.2099 C   0  0  2  0  0  0  0  0  0  0  0  0
  -25.2198  -27.3890   27.0951 C   0  0  0  0  0  0  0  0  0  0  0  0
  -25.1574  -16.8988   19.9943 N   0  0  0  0  0  0  0  0  0  0  0  0
  -25.3515  -18.1588   20.4194 N   0  0  0  0  0  0  0  0  0  0  0  0
  -31.3434  -27.2500   18.6139 N   0  0  0  0  0  0  0  0  0  0  0  0
  -24.6197  -26.7333   23.6202 N   0  0  0  0  0  0  0  0  0  0  0  0
  -25.5233  -20.9181   17.7850 N   0  0  0  0  0  0  0  0  0  0  0  0
  -26.2312  -19.4332   22.2118 N   0  0  0  0  0  0  0  0  0  0  0  0
  -28.1911  -16.3665   23.2830 N   0  0  0  0  0  0  0  0  0  0  0  0
  -27.1348  -22.4304   18.6086 N   0  0  0  0  0  0  0  0  0  0  0  0
  -21.3212  -27.7499   22.7168 N   0  0  0  0  0  0  0  0  0  0  0  0
  -26.3433  -25.3198   26.1677 N   0  0  0  0  0  0  0  0  0  0  0  0
  -28.3466  -22.7919   25.0368 N   0  3  0  0  0  0  0  0  0  0  0  0
  -30.0601  -28.4060   17.0525 O   0  0  0  0  0  0  0  0  0  0  0  0
  -26.1395  -16.3200   24.3064 O   0  0  0  0  0  0  0  0  0  0  0  0
  -23.2956  -28.9466   23.0202 O   0  0  0  0  0  0  0  0  0  0  0  0
  -23.6059  -25.5476   25.3530 O   0  0  0  0  0  0  0  0  0  0  0  0
  -28.3373  -25.7977   25.0849 O   0  0  0  0  0  0  0  0  0  0  0  0
  -25.5841  -23.0979   17.0176 O   0  0  0  0  0  0  0  0  0  0  0  0
  -25.5871  -10.5808   20.6621 O   0  0  0  0  0  0  0  0  0  0  0  0
  -28.1367  -29.3234   19.2642 O   0  0  0  0  0  0  0  0  0  1  0  0
  -20.7670   -8.0367   21.4972 F   0  0  0  0  0  0  0  0  0  0  0  0
  -25.2852   -8.7523   22.7134 F   0  0  0  0  0  0  0  0  0  0  0  0
  -29.2273  -22.4889   20.8250 Cl  0  0  0  0  0  0  0  0  0  0  0  0
  1  2  1  0  0  0  0
  1  5  2  0  0  0  0
  2  6  2  0  0  0  0
  3 10  2  0  0  0  0
  3 18  1  0  0  0  0
  4 11  1  0  0  0  0
  4 18  2  0  0  0  0
  5 20  1  0  0  0  0
  6 22  1  0  0  0  0
  7 12  2  0  0  0  0
  7 21  1  0  0  0  0
  8  9  2  0  0  0  0
  8 24  1  0  0  0  0
  9 25  1  0  0  0  0
 10 26  1  0  0  0  0
 11 26  2  0  0  0  0
 12 27  1  0  0  0  0
 13 14  2  0  0  0  0
 13 28  1  0  0  0  0
 14 29  1  0  0  0  0
 15 23  1  0  0  0  0
 15 27  2  0  0  0  0
 16 24  2  0  0  0  0
 16 31  1  0  0  0  0
 17 29  2  0  0  0  0
 17 30  1  0  0  0  0
 18 32  1  0  0  0  0
 19 32  1  0  0  0  0
 19 33  2  0  0  0  0
 19 35  1  0  0  0  0
 20 22  2  0  0  0  0
 20 40  1  0  0  0  0
 21 23  2  0  0  0  0
 21 41  1  0  0  0  0
 22 52  1  0  0  0  0
 23 42  1  0  0  0  0
 24 61  1  0  0  0  0
 25 31  2  0  0  0  0
 25 73  1  0  0  0  0
 26 83  1  0  0  0  0
 27 84  1  0  0  0  0
 28 30  2  0  0  0  0
 28 83  1  0  0  0  0
 29 85  1  0  0  0  0
 30 86  1  0  0  0  0
 31 87  1  0  0  0  0
 32 66  2  0  0  0  0
 33 67  1  0  0  0  0
 33 71  1  0  0  0  0
 34 53  1  0  0  0  0
 34 68  1  0  0  0  0
 34 77  2  0  0  0  0
 35 72  1  0  0  0  0
 35 78  2  0  0  0  0
 36 54  1  0  0  0  0
 36 74  1  0  0  0  0
 36 79  2  0  0  0  0
 37 63  1  0  0  0  0
 37 69  1  0  0  0  0
 37 80  2  0  0  0  0
 38 64  1  0  0  0  0
 38 75  1  0  0  0  0
 38 81  2  0  0  0  0
 39 70  1  0  0  0  0
 39 73  1  0  0  0  0
 39 82  2  0  0  0  0
 40 43  1  0  0  0  0
 41 54  1  0  0  0  0
 42 69  1  0  0  0  0
 43 46  1  0  0  0  0
 44 47  1  0  0  0  0
 44 49  1  0  0  0  0
 45 48  1  0  0  0  0
 45 50  1  0  0  0  0
 46 52  1  0  0  0  0
 47 53  1  0  0  0  0
 48 55  1  0  0  0  0
 49 68  1  0  0  0  0
 50 70  1  0  0  0  0
 51 55  1  0  0  0  0
 51 70  1  0  0  0  0
 52 74  1  0  0  0  0
 53 62  1  0  0  0  0
 54 69  1  0  0  0  0
 55 67  1  0  0  0  0
 56 64  1  0  0  0  0
 57 65  1  0  0  0  0
 58 65  1  0  0  0  0
 59 65  1  0  0  0  0
 60 76  1  0  0  0  0
 61 68  1  0  0  0  0
 62 84  1  0  0  0  0
 63 65  1  0  0  0  0
 63 75  1  0  0  0  0
 64 76  1  0  0  0  0
 66 67  1  0  0  0  0
M  CHG  1  76   1
M  ISO  4  39 100  62 101  73 100  84 101
M  END
> <Batch ID>
0025

> <Smiles>
CNC(C)C(=O)NC(C(=O)N1Cc2cc([101O:1][101CH2:1]C3CCCN(Cc4ccc([100NH:0][100C:0](=O)N5CCCC(n6nc(-c7ccc(Oc8ccc(F)cc8F)cc7)c(C(N)=O)c6N)C5)c(Cl)c4)C3=O)ccc2CC1C(=O)NC1CCCc2ccccc21)C(C)(C)C

> <Shape>
0.204

> <Color>
0.076

> <Negative vol penalty>
0.000

$$$$

  -OEChem-04042321223D

 86 95  0     1  0  0  0  0  0999 V2000
  -31.1980  -24.4523   16.7243 C   0  0  0  0  0  0  0  0  0  0  0  0
  -30.1150  -24.3272   17.5886 C   0  0  0  0  0  0  0  0  0  0  0  0
  -24.4411   -8.4317   20.4940 C   0  0  0  0  0  0  0  0  0  0  0  0
  -23.0891  -10.3726   20.9860 C   0  0  0  0  0  0  0  0  0  0  0  0
  -32.0302  -25.5679   16.8083 C   0  0  0  0  0  0  0  0  0  0  0  0
  -29.8643  -25.3171   18.5382 C   0  0  0  0  0  0  0  0  0  0  0  0
  -24.9663  -26.5806   18.7805 C   0  0  0  0  0  0  0  0  0  0  0  0
  -23.5724  -19.2939   21.5282 C   0  0  0  0  0  0  0  0  0  0  0  0
  -24.3853  -18.1915   21.2643 C   0  0  0  0  0  0  0  0  0  0  0  0
  -23.4033   -7.6015   20.9171 C   0  0  0  0  0  0  0  0  0  0  0  0
  -22.0512   -9.5423   21.4091 C   0  0  0  0  0  0  0  0  0  0  0  0
  -24.1188  -25.7146   19.4700 C   0  0  0  0  0  0  0  0  0  0  0  0
  -22.1181   -6.5187   23.8497 C   0  0  0  0  0  0  0  0  0  0  0  0
  -22.4439   -5.4480   24.6822 C   0  0  0  0  0  0  0  0  0  0  0  0
  -24.2080  -27.1683   21.3931 C   0  0  0  0  0  0  0  0  0  0  0  0
  -25.8593  -18.8481   23.0625 C   0  0  0  0  0  0  0  0  0  0  0  0
  -21.5687   -3.9057   23.0414 C   0  0  0  0  0  0  0  0  0  0  0  0
  -24.2841   -9.8173   20.5285 C   0  0  0  0  0  0  0  0  0  0  0  0
  -25.9486  -10.7137   18.8157 C   0  0  0  0  0  0  0  0  0  0  0  0
  -31.7838  -26.5766   17.7529 C   0  0  0  0  0  0  0  0  0  0  0  0
  -25.4506  -27.7433   19.3969 C   0  0  0  0  0  0  0  0  0  0  0  0
  -30.6947  -26.4466   18.6357 C   0  0  0  0  0  0  0  0  0  0  0  0
  -25.0595  -28.0486   20.7084 C   0  0  0  0  0  0  0  0  0  0  0  0
  -23.9030  -20.1734   22.5592 C   0  0  0  0  0  0  0  0  0  0  0  0
  -25.5288  -17.9686   22.0315 C   0  0  0  0  0  0  0  0  0  0  0  0
  -22.2083   -8.1567   21.3746 C   0  0  0  0  0  0  0  0  0  0  0  0
  -23.7417  -26.0069   20.7775 C   0  0  0  0  0  0  0  0  0  0  0  0
  -21.5174   -6.2829   22.6130 C   0  0  0  0  0  0  0  0  0  0  0  0
  -22.1693   -4.1416   24.2781 C   0  0  0  0  0  0  0  0  0  0  0  0
  -21.2428   -4.9764   22.2089 C   0  0  0  0  0  0  0  0  0  0  0  0
  -25.0464  -19.9504   23.3264 C   0  0  0  0  0  0  0  0  0  0  0  0
  -25.3561  -10.6755   20.0921 C   0  0  0  0  0  0  0  0  0  0  0  0
  -26.9102  -11.6895   18.9125 C   0  0  0  0  0  0  0  0  0  0  0  0
  -23.5332  -22.6225   22.7091 C   0  0  0  0  0  0  0  0  0  0  0  0
  -25.6557   -9.9366   17.6469 C   0  0  0  0  0  0  0  0  0  0  0  0
  -28.3329  -28.8383   20.1700 C   0  0  0  0  0  0  0  0  0  0  0  0
  -26.6739  -31.5052   20.9812 C   0  0  0  0  0  0  0  0  0  0  0  0
  -23.5666  -32.2681   22.6483 C   0  0  0  0  0  0  0  0  0  0  0  0
  -27.5234  -16.4819   22.4285 C   0  0  0  0  0  0  0  0  0  0  0  0
  -32.7388  -27.7409   17.8373 C   0  0  0  0  0  0  0  0  0  0  0  0
  -26.3427  -28.6808   18.6303 C   0  0  0  0  0  0  0  0  0  0  0  0
  -25.5355  -29.2945   21.4081 C   0  0  0  0  0  0  0  0  0  0  0  0
  -32.1849  -28.9273   18.6222 C   0  0  0  0  0  0  0  0  0  0  0  0
  -20.8058  -22.1147   23.6544 C   0  0  0  0  0  0  0  0  0  0  0  0
  -29.8173  -13.7797   22.0928 C   0  0  0  0  0  0  0  0  0  0  0  0
  -31.5542  -28.4554   19.9285 C   0  0  0  0  0  0  0  0  0  0  0  0
  -21.1791  -23.4817   23.1228 C   0  0  0  0  0  0  0  0  0  0  0  0
  -28.9892  -12.6826   21.4200 C   0  0  0  0  0  0  0  0  0  0  0  0
  -21.5935  -21.0426   22.9217 C   0  0  0  0  0  0  0  0  0  0  0  0
  -28.9871  -14.5859   23.0900 C   0  0  0  0  0  0  0  0  0  0  0  0
  -26.9108  -14.0449   21.8794 C   0  0  0  0  0  0  0  0  0  0  0  0
  -30.3755  -27.5113   19.6626 C   0  0  1  0  0  0  0  0  0  0  0  0
  -22.6655  -23.7080   23.3547 C   0  0  2  0  0  0  0  0  0  0  0  0
  -27.1877  -29.5739   19.5335 C   0  0  1  0  0  0  0  0  0  0  0  0
  -27.6874  -13.2478   20.8188 C   0  0  2  0  0  0  0  0  0  0  0  0
  -22.0429  -34.2503   22.4321 C   0  0  0  0  0  0  0  0  0  0  0  0
  -28.2471  -32.6075   23.3518 C   0  0  0  0  0  0  0  0  0  0  0  0
  -26.1045  -33.5401   24.2506 C   0  0  0  0  0  0  0  0  0  0  0  0
  -26.9794  -34.3266   22.0509 C   0  0  0  0  0  0  0  0  0  0  0  0
  -21.2350  -30.5545   22.0267 C   0  0  0  0  0  0  0  0  0  0  0  0
  -23.0669  -25.1017   22.8706 C   0  0  0  0  0  0  0  0  0  1  0  0
  -25.9985  -32.0038   22.2358 C   0  0  1  0  0  0  0  0  0  0  0  0
  -22.3021  -32.8128   22.0089 C   0  0  2  0  0  0  0  0  0  0  0  0
  -26.8349  -33.0917   22.9668 C   0  0  0  0  0  0  0  0  0  0  0  0
  -25.8963  -11.5569   20.9379 N   0  0  0  0  0  0  0  0  0  0  0  0
  -26.8384  -12.1581   20.1914 N   0  0  0  0  0  0  0  0  0  0  0  0
  -23.0376  -21.3068   22.8056 N   0  0  0  0  0  0  0  0  0  0  0  0
  -26.4112  -30.1764   20.6189 N   0  0  0  0  0  0  0  0  0  0  0  0
  -27.7719  -15.0932   22.4490 N   0  0  0  0  0  0  0  0  0  0  0  0
  -27.8019  -12.1839   18.0277 N   0  0  0  0  0  0  0  0  0  0  0  0
  -24.6368   -8.9771   17.7205 N   0  0  0  0  0  0  0  0  0  0  0  0
  -26.3541  -16.8486   21.7629 N   0  0  0  0  0  0  0  0  0  0  0  0
  -29.2050  -28.2637   19.2651 N   0  0  0  0  0  0  0  0  0  0  0  0
  -24.6663  -32.4431   21.8352 N   0  0  0  0  0  0  0  0  0  0  0  0
  -21.1254  -31.9875   22.4030 N   0  3  0  0  0  0  0  0  0  0  0  0
  -24.6207  -22.9272   22.2121 O   0  0  0  0  0  0  0  0  0  0  0  0
  -26.2902  -10.0772   16.5740 O   0  0  0  0  0  0  0  0  0  0  0  0
  -28.4196  -28.7963   21.3916 O   0  0  0  0  0  0  0  0  0  0  0  0
  -27.4020  -32.2688   20.3420 O   0  0  0  0  0  0  0  0  0  0  0  0
  -23.5782  -31.7435   23.7597 O   0  0  0  0  0  0  0  0  0  0  0  0
  -28.3051  -17.2887   22.9384 O   0  0  0  0  0  0  0  0  0  0  0  0
  -21.1952   -7.3468   21.7873 O   0  0  0  0  0  0  0  0  0  0  0  0
  -22.9151  -25.1630   21.4530 O   0  0  0  0  0  0  0  0  0  1  0  0
  -22.4837   -3.1134   25.0770 F   0  0  0  0  0  0  0  0  0  0  0  0
  -20.6670   -4.7436   21.0214 F   0  0  0  0  0  0  0  0  0  0  0  0
  -25.4925  -21.0145   24.6124 Cl  0  0  0  0  0  0  0  0  0  0  0  0
  1  2  1  0  0  0  0
  1  5  2  0  0  0  0
  2  6  2  0  0  0  0
  3 10  2  0  0  0  0
  3 18  1  0  0  0  0
  4 11  1  0  0  0  0
  4 18  2  0  0  0  0
  5 20  1  0  0  0  0
  6 22  1  0  0  0  0
  7 12  2  0  0  0  0
  7 21  1  0  0  0  0
  8  9  2  0  0  0  0
  8 24  1  0  0  0  0
  9 25  1  0  0  0  0
 10 26  1  0  0  0  0
 11 26  2  0  0  0  0
 12 27  1  0  0  0  0
 13 14  2  0  0  0  0
 13 28  1  0  0  0  0
 14 29  1  0  0  0  0
 15 23  1  0  0  0  0
 15 27  2  0  0  0  0
 16 25  2  0  0  0  0
 16 31  1  0  0  0  0
 17 29  2  0  0  0  0
 17 30  1  0  0  0  0
 18 32  1  0  0  0  0
 19 32  1  0  0  0  0
 19 33  2  0  0  0  0
 19 35  1  0  0  0  0
 20 22  2  0  0  0  0
 20 40  1  0  0  0  0
 21 23  2  0  0  0  0
 21 41  1  0  0  0  0
 22 52  1  0  0  0  0
 23 42  1  0  0  0  0
 24 31  2  0  0  0  0
 24 67  1  0  0  0  0
 25 72  1  0  0  0  0
 26 82  1  0  0  0  0
 27 83  1  0  0  0  0
 28 30  2  0  0  0  0
 28 82  1  0  0  0  0
 29 84  1  0  0  0  0
 30 85  1  0  0  0  0
 31 86  1  0  0  0  0
 32 65  2  0  0  0  0
 33 66  1  0  0  0  0
 33 70  1  0  0  0  0
 34 53  1  0  0  0  0
 34 67  1  0  0  0  0
 34 76  2  0  0  0  0
 35 71  1  0  0  0  0
 35 77  2  0  0  0  0
 36 54  1  0  0  0  0
 36 73  1  0  0  0  0
 36 78  2  0  0  0  0
 37 62  1  0  0  0  0
 37 68  1  0  0  0  0
 37 79  2  0  0  0  0
 38 63  1  0  0  0  0
 38 74  1  0  0  0  0
 38 80  2  0  0  0  0
 39 69  1  0  0  0  0
 39 72  1  0  0  0  0
 39 81  2  0  0  0  0
 40 43  1  0  0  0  0
 41 54  1  0  0  0  0
 42 68  1  0  0  0  0
 43 46  1  0  0  0  0
 44 47  1  0  0  0  0
 44 49  1  0  0  0  0
 45 48  1  0  0  0  0
 45 50  1  0  0  0  0
 46 52  1  0  0  0  0
 47 53  1  0  0  0  0
 48 55  1  0  0  0  0
 49 67  1  0  0  0  0
 50 69  1  0  0  0  0
 51 55  1  0  0  0  0
 51 69  1  0  0  0  0
 52 73  1  0  0  0  0
 53 61  1  0  0  0  0
 54 68  1  0  0  0  0
 55 66  1  0  0  0  0
 56 63  1  0  0  0  0
 57 64  1  0  0  0  0
 58 64  1  0  0  0  0
 59 64  1  0  0  0  0
 60 75  1  0  0  0  0
 61 83  1  0  0  0  0
 62 64  1  0  0  0  0
 62 74  1  0  0  0  0
 63 75  1  0  0  0  0
 65 66  1  0  0  0  0
M  CHG  1  75   1
M  ISO  4  39 100  61 101  72 100  83 101
M  END
> <Batch ID>
0025

> <Smiles>
CNC(C)C(=O)NC(C(=O)N1Cc2cc([101O:1][101CH2:1]C3CCCN(c4ccc([100NH:0][100C:0](=O)N5CCCC(n6nc(-c7ccc(Oc8ccc(F)cc8F)cc7)c(C(N)=O)c6N)C5)cc4Cl)C3=O)ccc2CC1C(=O)NC1CCCc2ccccc21)C(C)(C)C

> <Shape>
0.239

> <Color>
0.095

> <Negative vol penalty>
0.000

$$$$

  -OEChem-04042321223D

 90 99  0     1  0  0  0  0  0999 V2000
  -26.0237  -21.6593   15.1332 C   0  0  0  0  0  0  0  0  0  0  0  0
  -25.8855  -21.5759   16.5150 C   0  0  0  0  0  0  0  0  0  0  0  0
  -30.2884  -22.0252   20.9372 C   0  0  0  0  0  0  0  0  0  0  0  0
  -28.2504  -23.2796   21.2691 C   0  0  0  0  0  0  0  0  0  0  0  0
  -26.1614  -22.9045   14.5214 C   0  0  0  0  0  0  0  0  0  0  0  0
  -25.8860  -22.7378   17.2859 C   0  0  0  0  0  0  0  0  0  0  0  0
  -22.4645  -12.4841   21.5026 C   0  0  0  0  0  0  0  0  0  0  0  0
  -22.2366  -22.7413   20.7969 C   0  0  0  0  0  0  0  0  0  0  0  0
  -22.0282  -13.3837   22.4721 C   0  0  0  0  0  0  0  0  0  0  0  0
  -30.8521  -23.1161   20.2756 C   0  0  0  0  0  0  0  0  0  0  0  0
  -28.8141  -24.3705   20.6076 C   0  0  0  0  0  0  0  0  0  0  0  0
  -22.4594  -21.9863   21.9476 C   0  0  0  0  0  0  0  0  0  0  0  0
  -30.9890  -26.8584   21.3152 C   0  0  0  0  0  0  0  0  0  0  0  0
  -30.8230  -28.1189   21.8891 C   0  0  0  0  0  0  0  0  0  0  0  0
  -23.0904  -23.9903   23.1329 C   0  0  0  0  0  0  0  0  0  0  0  0
  -29.6787  -28.8739   19.8997 C   0  0  0  0  0  0  0  0  0  0  0  0
  -28.9875  -22.1069   21.4339 C   0  0  0  0  0  0  0  0  0  0  0  0
  -28.4573  -20.7015   23.4958 C   0  0  0  0  0  0  0  0  0  0  0  0
  -26.1539  -24.0829   15.2843 C   0  0  0  0  0  0  0  0  0  0  0  0
  -22.4499  -24.1273   20.8025 C   0  0  0  0  0  0  0  0  0  0  0  0
  -26.0251  -24.0000   16.6839 C   0  0  0  0  0  0  0  0  0  0  0  0
  -23.8165  -12.4259   21.1001 C   0  0  0  0  0  0  0  0  0  0  0  0
  -22.8671  -24.7610   21.9817 C   0  0  0  0  0  0  0  0  0  0  0  0
  -24.7498  -13.2881   21.7238 C   0  0  0  0  0  0  0  0  0  0  0  0
  -22.9391  -14.2382   23.0727 C   0  0  0  0  0  0  0  0  0  0  0  0
  -30.1150  -24.2888   20.1108 C   0  0  0  0  0  0  0  0  0  0  0  0
  -22.8891  -22.6104   23.1150 C   0  0  0  0  0  0  0  0  0  0  0  0
  -30.5000  -26.6057   20.0336 C   0  0  0  0  0  0  0  0  0  0  0  0
  -30.1679  -29.1266   21.1814 C   0  0  0  0  0  0  0  0  0  0  0  0
  -29.8448  -27.6134   19.3258 C   0  0  0  0  0  0  0  0  0  0  0  0
  -24.2843  -14.1862   22.7079 C   0  0  0  0  0  0  0  0  0  0  0  0
  -28.4044  -20.9801   22.1169 C   0  0  0  0  0  0  0  0  0  0  0  0
  -27.7571  -19.5283   23.6362 C   0  0  0  0  0  0  0  0  0  0  0  0
  -29.0833  -21.4375   24.5551 C   0  0  0  0  0  0  0  0  0  0  0  0
  -24.3875  -26.1050   19.2412 C   0  0  0  0  0  0  0  0  0  0  0  0
  -22.6585  -28.3832   20.7717 C   0  0  0  0  0  0  0  0  0  0  0  0
  -20.6751  -29.2252   23.4183 C   0  0  0  0  0  0  0  0  0  0  0  0
  -27.0467  -14.3112   21.6963 C   0  0  0  0  0  0  0  0  0  0  0  0
  -26.3533  -25.4031   14.5828 C   0  0  0  0  0  0  0  0  0  0  0  0
  -22.1793  -24.9312   19.5604 C   0  0  0  0  0  0  0  0  0  0  0  0
  -24.1372  -11.4221   20.0082 C   0  0  0  0  0  0  0  0  0  0  0  0
  -23.0912  -26.2490   22.0457 C   0  0  0  0  0  0  0  0  0  0  0  0
  -25.9678  -26.6097   15.4347 C   0  0  0  0  0  0  0  0  0  0  0  0
  -25.2845  -11.7978   19.0739 C   0  0  0  0  0  0  0  0  0  0  0  0
  -26.6583  -11.5589   19.6905 C   0  0  0  0  0  0  0  0  0  0  0  0
  -24.8071  -17.0303   20.3975 C   0  0  0  0  0  0  0  0  0  0  0  0
  -26.5489  -26.4793   16.8390 C   0  0  0  0  0  0  0  0  0  0  0  0
  -25.6083  -18.2702   20.7873 C   0  0  0  0  0  0  0  0  0  0  0  0
  -26.7391  -11.9216   21.1663 C   0  0  0  0  0  0  0  0  0  0  0  0
  -25.7174  -15.8317   20.1554 C   0  0  0  0  0  0  0  0  0  0  0  0
  -27.4228  -16.7544   21.6968 C   0  0  0  0  0  0  0  0  0  0  0  0
  -25.9960  -25.2393   17.5518 C   0  0  1  0  0  0  0  0  0  0  0  0
  -22.9229  -26.2631   19.5370 C   0  0  1  0  0  0  0  0  0  0  0  0
  -26.5291  -17.9724   21.9813 C   0  0  1  0  0  0  0  0  0  0  0  0
  -19.4455  -31.1710   24.4180 C   0  0  0  0  0  0  0  0  0  0  0  0
  -24.1765  -19.5622   25.6934 C   0  0  0  0  0  0  0  0  0  0  0  0
  -25.2984  -29.5252   21.7901 C   0  0  0  0  0  0  0  0  0  0  0  0
  -24.0001  -30.8229   23.4926 C   0  0  0  0  0  0  0  0  0  0  0  0
  -23.6315  -31.2412   21.0611 C   0  0  0  0  0  0  0  0  0  0  0  0
  -18.0639  -27.8559   23.1619 C   0  0  0  0  0  0  0  0  0  0  0  0
  -21.1409  -15.5330   24.2197 C   0  0  0  0  0  0  0  0  0  0  0  0
  -21.0087  -16.5535   25.3344 C   0  0  0  0  0  0  0  0  0  0  0  0
  -21.7674  -18.8250   26.0439 C   0  0  0  0  0  0  0  0  0  0  0  0
  -22.3183  -20.6998   24.4111 C   0  0  0  0  0  0  0  0  0  1  0  0
  -22.7700  -29.1010   22.0952 C   0  0  1  0  0  0  0  0  0  0  0  0
  -19.3540  -29.9694   23.4903 C   0  0  2  0  0  0  0  0  0  0  0  0
  -22.7054  -19.9924   25.7158 C   0  0  2  0  0  0  0  0  0  0  0  0
  -23.9227  -30.1442   22.1083 C   0  0  0  0  0  0  0  0  0  0  0  0
  -27.7245  -20.0581   21.4303 N   0  0  0  0  0  0  0  0  0  0  0  0
  -27.3437  -19.1885   22.3816 N   0  0  0  0  0  0  0  0  0  0  0  0
  -26.1640  -13.2405   21.4414 N   0  0  0  0  0  0  0  0  0  0  0  0
  -22.8191  -26.9908   20.8035 N   0  0  0  0  0  0  0  0  0  0  0  0
  -26.6299  -15.5936   21.2830 N   0  0  0  0  0  0  0  0  0  0  0  0
  -27.4608  -18.7644   24.7091 N   0  0  0  0  0  0  0  0  0  0  0  0
  -29.7612  -22.6219   24.2359 N   0  0  0  0  0  0  0  0  0  0  0  0
  -22.5077  -15.1405   24.0670 N   0  0  0  0  0  0  0  0  0  0  0  0
  -24.6543  -25.4892   18.0333 N   0  0  0  0  0  0  0  0  0  0  0  0
  -21.4516  -29.6637   22.3666 N   0  0  0  0  0  0  0  0  0  0  0  0
  -18.2787  -29.0683   23.9931 N   0  3  0  0  0  0  0  0  0  0  0  0
  -21.8628  -17.7306   25.0398 N   0  3  0  0  0  0  0  0  0  0  0  0
  -29.0568  -21.0475   25.7470 O   0  0  0  0  0  0  0  0  0  0  0  0
  -25.2144  -26.5130   20.0485 O   0  0  0  0  0  0  0  0  0  0  0  0
  -22.4300  -29.0333   19.7486 O   0  0  0  0  0  0  0  0  0  0  0  0
  -20.9886  -28.3456   24.2174 O   0  0  0  0  0  0  0  0  0  0  0  0
  -28.1524  -14.1310   22.2220 O   0  0  0  0  0  0  0  0  0  0  0  0
  -30.6649  -25.3536   19.4655 O   0  0  0  0  0  0  0  0  0  0  0  0
  -23.1095  -21.8708   24.2470 O   0  0  0  0  0  0  0  0  0  1  0  0
  -30.0072  -30.3365   21.7332 F   0  0  0  0  0  0  0  0  0  0  0  0
  -29.3718  -27.3763   18.0946 F   0  0  0  0  0  0  0  0  0  0  0  0
  -25.1403  -14.9533   23.4022 F   0  0  0  0  0  0  0  0  0  0  0  0
  1  2  1  0  0  0  0
  1  5  2  0  0  0  0
  2  6  2  0  0  0  0
  3 10  2  0  0  0  0
  3 17  1  0  0  0  0
  4 11  1  0  0  0  0
  4 17  2  0  0  0  0
  5 19  1  0  0  0  0
  6 21  1  0  0  0  0
  7  9  2  0  0  0  0
  7 22  1  0  0  0  0
  8 12  2  0  0  0  0
  8 20  1  0  0  0  0
  9 25  1  0  0  0  0
 10 26  1  0  0  0  0
 11 26  2  0  0  0  0
 12 27  1  0  0  0  0
 13 14  2  0  0  0  0
 13 28  1  0  0  0  0
 14 29  1  0  0  0  0
 15 23  1  0  0  0  0
 15 27  2  0  0  0  0
 16 29  2  0  0  0  0
 16 30  1  0  0  0  0
 17 32  1  0  0  0  0
 18 32  1  0  0  0  0
 18 33  2  0  0  0  0
 18 34  1  0  0  0  0
 19 21  2  0  0  0  0
 19 39  1  0  0  0  0
 20 23  2  0  0  0  0
 20 40  1  0  0  0  0
 21 52  1  0  0  0  0
 22 24  2  0  0  0  0
 22 41  1  0  0  0  0
 23 42  1  0  0  0  0
 24 31  1  0  0  0  0
 24 71  1  0  0  0  0
 25 31  2  0  0  0  0
 25 76  1  0  0  0  0
 26 86  1  0  0  0  0
 27 87  1  0  0  0  0
 28 30  2  0  0  0  0
 28 86  1  0  0  0  0
 29 88  1  0  0  0  0
 30 89  1  0  0  0  0
 31 90  1  0  0  0  0
 32 69  2  0  0  0  0
 33 70  1  0  0  0  0
 33 74  1  0  0  0  0
 34 75  1  0  0  0  0
 34 81  2  0  0  0  0
 35 53  1  0  0  0  0
 35 77  1  0  0  0  0
 35 82  2  0  0  0  0
 36 65  1  0  0  0  0
 36 72  1  0  0  0  0
 36 83  2  0  0  0  0
 37 66  1  0  0  0  0
 37 78  1  0  0  0  0
 37 84  2  0  0  0  0
 38 71  1  0  0  0  0
 38 73  1  0  0  0  0
 38 85  2  0  0  0  0
 39 43  1  0  0  0  0
 40 53  1  0  0  0  0
 41 44  1  0  0  0  0
 42 72  1  0  0  0  0
 43 47  1  0  0  0  0
 44 45  1  0  0  0  0
 45 49  1  0  0  0  0
 46 48  1  0  0  0  0
 46 50  1  0  0  0  0
 47 52  1  0  0  0  0
 48 54  1  0  0  0  0
 49 71  1  0  0  0  0
 50 73  1  0  0  0  0
 51 54  1  0  0  0  0
 51 73  1  0  0  0  0
 52 77  1  0  0  0  0
 53 72  1  0  0  0  0
 54 70  1  0  0  0  0
 55 66  1  0  0  0  0
 56 67  1  0  0  0  0
 57 68  1  0  0  0  0
 58 68  1  0  0  0  0
 59 68  1  0  0  0  0
 60 79  1  0  0  0  0
 61 62  1  0  0  0  0
 61 76  1  0  0  0  0
 62 80  1  0  0  0  0
 63 67  1  0  0  0  0
 63 80  1  0  0  0  0
 64 67  1  0  0  0  0
 64 87  1  0  0  0  0
 65 68  1  0  0  0  0
 65 78  1  0  0  0  0
 66 79  1  0  0  0  0
 69 70  1  0  0  0  0
M  CHG  2  79   1  80   1
M  ISO  4  38 100  64 101  71 100  87 101
M  END
> <Batch ID>
0025

> <Smiles>
CNC(C)C(=O)NC(C(=O)N1Cc2cc([101O:1][101CH2:1]C(C)CNCCNc3ccc4c(c3F)[100N:0]([100C:0](=O)N3CCCC(n5nc(-c6ccc(Oc7ccc(F)cc7F)cc6)c(C(N)=O)c5N)C3)CCCC4)ccc2CC1C(=O)NC1CCCc2ccccc21)C(C)(C)C

> <Shape>
0.196

> <Color>
0.049

> <Negative vol penalty>
0.000

$$$$

  -OEChem-04042321223D

 84 92  0     1  0  0  0  0  0999 V2000
  -19.4543  -27.9985   22.5483 C   0  0  0  0  0  0  0  0  0  0  0  0
  -19.3084  -26.9146   23.4081 C   0  0  0  0  0  0  0  0  0  0  0  0
  -28.4329  -12.5650   21.0932 C   0  0  0  0  0  0  0  0  0  0  0  0
  -28.0406  -13.0650   18.7623 C   0  0  0  0  0  0  0  0  0  0  0  0
  -20.1176  -27.8381   21.3325 C   0  0  0  0  0  0  0  0  0  0  0  0
  -19.8249  -25.6693   23.0521 C   0  0  0  0  0  0  0  0  0  0  0  0
  -22.7505  -19.8047   25.9441 C   0  0  0  0  0  0  0  0  0  0  0  0
  -29.8044  -12.4985   20.8481 C   0  0  0  0  0  0  0  0  0  0  0  0
  -29.4122  -12.9985   18.5172 C   0  0  0  0  0  0  0  0  0  0  0  0
  -22.5992  -18.4188   25.9547 C   0  0  0  0  0  0  0  0  0  0  0  0
  -33.4388  -12.5532   20.9076 C   0  0  0  0  0  0  0  0  0  0  0  0
  -34.2902  -13.1935   21.8079 C   0  0  0  0  0  0  0  0  0  0  0  0
  -23.7955  -18.2784   23.8646 C   0  0  0  0  0  0  0  0  0  0  0  0
  -23.5750  -11.3614   24.7646 C   0  0  0  0  0  0  0  0  0  0  0  0
  -21.3301  -11.7370   23.9542 C   0  0  0  0  0  0  0  0  0  0  0  0
  -33.2191  -15.3035   21.3203 C   0  0  0  0  0  0  0  0  0  0  0  0
  -27.5509  -12.8483   20.0503 C   0  0  0  0  0  0  0  0  0  0  0  0
  -25.3901  -14.0533   20.6715 C   0  0  0  0  0  0  0  0  0  0  0  0
  -20.6509  -26.5924   20.9657 C   0  0  0  0  0  0  0  0  0  0  0  0
  -23.4171  -20.4399   24.8865 C   0  0  0  0  0  0  0  0  0  0  0  0
  -20.4948  -25.4917   21.8296 C   0  0  0  0  0  0  0  0  0  0  0  0
  -23.9562  -19.6722   23.8443 C   0  0  0  0  0  0  0  0  0  0  0  0
  -23.5254  -10.0493   24.2940 C   0  0  0  0  0  0  0  0  0  0  0  0
  -22.4773  -12.2053   24.5947 C   0  0  0  0  0  0  0  0  0  0  0  0
  -22.3782   -9.5810   23.6535 C   0  0  0  0  0  0  0  0  0  0  0  0
  -30.2941  -12.7153   19.5602 C   0  0  0  0  0  0  0  0  0  0  0  0
  -23.1192  -17.6557   24.9134 C   0  0  0  0  0  0  0  0  0  0  0  0
  -32.4775  -13.2880   20.2136 C   0  0  0  0  0  0  0  0  0  0  0  0
  -34.1804  -14.5687   22.0143 C   0  0  0  0  0  0  0  0  0  0  0  0
  -32.3676  -14.6631   20.4199 C   0  0  0  0  0  0  0  0  0  0  0  0
  -21.2805  -10.4248   23.4837 C   0  0  0  0  0  0  0  0  0  0  0  0
  -26.1340  -12.9166   20.3027 C   0  0  0  0  0  0  0  0  0  0  0  0
  -24.1003  -13.5961   20.7897 C   0  0  0  0  0  0  0  0  0  0  0  0
  -25.8259  -15.4020   20.8879 C   0  0  0  0  0  0  0  0  0  0  0  0
  -22.5981  -22.5748   22.6784 C   0  0  0  0  0  0  0  0  0  0  0  0
  -25.7609  -22.4723   21.9652 C   0  0  0  0  0  0  0  0  0  0  0  0
  -28.6957  -20.7327   22.0525 C   0  0  0  0  0  0  0  0  0  0  0  0
  -22.1485   -7.8861   21.8190 C   0  0  0  0  0  0  0  0  0  0  0  0
  -21.3184  -26.4564   19.6201 C   0  0  0  0  0  0  0  0  0  0  0  0
  -23.5952  -21.9334   24.9033 C   0  0  0  0  0  0  0  0  0  0  0  0
  -24.6980  -20.3039   22.6957 C   0  0  0  0  0  0  0  0  0  0  0  0
  -22.1643  -25.1928   19.4848 C   0  0  0  0  0  0  0  0  0  0  0  0
  -21.1293  -10.2322   19.1450 C   0  0  0  0  0  0  0  0  0  0  0  0
  -21.3976  -23.9794   20.0011 C   0  0  0  0  0  0  0  0  0  0  0  0
  -22.2809  -11.2354   19.1168 C   0  0  0  0  0  0  0  0  0  0  0  0
  -21.5896   -8.8547   19.6123 C   0  0  0  0  0  0  0  0  0  0  0  0
  -23.4354   -9.8805   20.9093 C   0  0  0  0  0  0  0  0  0  0  0  0
  -21.0629  -24.1308   21.4899 C   0  0  1  0  0  0  0  0  0  0  0  0
  -23.8433  -22.5212   23.5176 C   0  0  1  0  0  0  0  0  0  0  0  0
  -22.9894  -11.2864   20.4805 C   0  0  1  0  0  0  0  0  0  0  0  0
  -24.7180   -9.1703   24.4919 C   0  0  0  0  0  0  0  0  0  0  0  0
  -20.8195   -6.9918   24.6709 C   0  0  0  0  0  0  0  0  0  0  0  0
  -31.1017  -20.8924   21.3575 C   0  0  0  0  0  0  0  0  0  0  0  0
  -24.9632  -21.8896   19.0783 C   0  0  0  0  0  0  0  0  0  0  0  0
  -27.3117  -21.1321   18.6556 C   0  0  0  0  0  0  0  0  0  0  0  0
  -26.8667  -23.4917   19.3315 C   0  0  0  0  0  0  0  0  0  0  0  0
  -29.6376  -20.5379   24.8513 C   0  0  0  0  0  0  0  0  0  0  0  0
  -22.2375   -7.1491   24.1600 C   0  0  0  0  0  0  0  0  0  0  0  0
  -21.4384  -14.4489   24.9299 C   0  0  0  0  0  0  0  0  0  0  0  0
  -21.8106  -15.7791   25.5630 C   0  0  0  0  0  0  0  0  0  1  0  0
  -26.6223  -21.6455   21.0414 C   0  0  1  0  0  0  0  0  0  0  0  0
  -30.0965  -21.1409   22.4713 C   0  0  2  0  0  0  0  0  0  0  0  0
  -26.4254  -22.0277   19.5472 C   0  0  0  0  0  0  0  0  0  0  0  0
  -25.3797  -11.8197   20.1938 N   0  0  0  0  0  0  0  0  0  0  0  0
  -24.1483  -12.2651   20.4962 N   0  0  0  0  0  0  0  0  0  0  0  0
  -24.8405  -21.7681   22.7544 N   0  0  0  0  0  0  0  0  0  0  0  0
  -22.3147   -8.9263   20.8818 N   0  0  0  0  0  0  0  0  0  0  0  0
  -22.9412  -14.2069   21.1150 N   0  0  0  0  0  0  0  0  0  0  0  0
  -27.1857  -15.6993   20.7236 N   0  0  0  0  0  0  0  0  0  0  0  0
  -22.5270  -13.5080   25.0626 N   0  0  0  0  0  0  0  0  0  0  0  0
  -22.2285  -23.8516   22.3009 N   0  0  0  0  0  0  0  0  0  0  0  0
  -27.9925  -21.7927   21.5203 N   0  0  0  0  0  0  0  0  0  0  0  0
  -22.3403   -8.2215   23.1729 N   0  0  0  0  0  0  0  0  0  0  0  0
  -30.5242  -20.3679   23.6715 N   0  3  0  0  0  0  0  0  0  0  0  0
  -25.0357  -16.3130   21.2333 O   0  0  0  0  0  0  0  0  0  0  0  0
  -22.0166  -21.5345   22.3932 O   0  0  0  0  0  0  0  0  0  0  0  0
  -25.9044  -23.6972   21.9910 O   0  0  0  0  0  0  0  0  0  0  0  0
  -28.2692  -19.5872   22.1809 O   0  0  0  0  0  0  0  0  0  0  0  0
  -21.9012   -6.7249   21.4708 O   0  0  0  0  0  0  0  0  0  0  0  0
  -31.6324  -12.6507   19.3207 O   0  0  0  0  0  0  0  0  0  0  0  0
  -22.9724  -16.3028   24.9209 O   0  0  0  0  0  0  0  0  0  1  0  0
  -34.9971  -15.1832   22.8800 F   0  0  0  0  0  0  0  0  0  0  0  0
  -31.4453  -15.3741   19.7570 F   0  0  0  0  0  0  0  0  0  0  0  0
  -19.8393   -9.8895   22.6942 Cl  0  0  0  0  0  0  0  0  0  0  0  0
  1  2  1  0  0  0  0
  1  5  2  0  0  0  0
  2  6  2  0  0  0  0
  3  8  2  0  0  0  0
  3 17  1  0  0  0  0
  4  9  1  0  0  0  0
  4 17  2  0  0  0  0
  5 19  1  0  0  0  0
  6 21  1  0  0  0  0
  7 10  2  0  0  0  0
  7 20  1  0  0  0  0
  8 26  1  0  0  0  0
  9 26  2  0  0  0  0
 10 27  1  0  0  0  0
 11 12  2  0  0  0  0
 11 28  1  0  0  0  0
 12 29  1  0  0  0  0
 13 22  1  0  0  0  0
 13 27  2  0  0  0  0
 14 23  2  0  0  0  0
 14 24  1  0  0  0  0
 15 24  2  0  0  0  0
 15 31  1  0  0  0  0
 16 29  2  0  0  0  0
 16 30  1  0  0  0  0
 17 32  1  0  0  0  0
 18 32  1  0  0  0  0
 18 33  2  0  0  0  0
 18 34  1  0  0  0  0
 19 21  2  0  0  0  0
 19 39  1  0  0  0  0
 20 22  2  0  0  0  0
 20 40  1  0  0  0  0
 21 48  1  0  0  0  0
 22 41  1  0  0  0  0
 23 25  1  0  0  0  0
 23 51  1  0  0  0  0
 24 70  1  0  0  0  0
 25 31  2  0  0  0  0
 25 73  1  0  0  0  0
 26 80  1  0  0  0  0
 27 81  1  0  0  0  0
 28 30  2  0  0  0  0
 28 80  1  0  0  0  0
 29 82  1  0  0  0  0
 30 83  1  0  0  0  0
 31 84  1  0  0  0  0
 32 64  2  0  0  0  0
 33 65  1  0  0  0  0
 33 68  1  0  0  0  0
 34 69  1  0  0  0  0
 34 75  2  0  0  0  0
 35 49  1  0  0  0  0
 35 71  1  0  0  0  0
 35 76  2  0  0  0  0
 36 61  1  0  0  0  0
 36 66  1  0  0  0  0
 36 77  2  0  0  0  0
 37 62  1  0  0  0  0
 37 72  1  0  0  0  0
 37 78  2  0  0  0  0
 38 67  1  0  0  0  0
 38 73  1  0  0  0  0
 38 79  2  0  0  0  0
 39 42  1  0  0  0  0
 40 49  1  0  0  0  0
 41 66  1  0  0  0  0
 42 44  1  0  0  0  0
 43 45  1  0  0  0  0
 43 46  1  0  0  0  0
 44 48  1  0  0  0  0
 45 50  1  0  0  0  0
 46 67  1  0  0  0  0
 47 50  1  0  0  0  0
 47 67  1  0  0  0  0
 48 71  1  0  0  0  0
 49 66  1  0  0  0  0
 50 65  1  0  0  0  0
 52 58  1  0  0  0  0
 53 62  1  0  0  0  0
 54 63  1  0  0  0  0
 55 63  1  0  0  0  0
 56 63  1  0  0  0  0
 57 74  1  0  0  0  0
 58 73  1  0  0  0  0
 59 60  1  0  0  0  0
 59 70  1  0  0  0  0
 60 81  1  0  0  0  0
 61 63  1  0  0  0  0
 61 72  1  0  0  0  0
 62 74  1  0  0  0  0
 64 65  1  0  0  0  0
M  CHG  1  74   1
M  ISO  4  38 100  60 101  73 100  81 101
M  END
> <Batch ID>
0025

> <Smiles>
CC[100N:0](c1c(C)cc(NC[101CH2:1][101O:1]c2ccc3c(c2)CN(C(=O)C(NC(=O)C(C)NC)C(C)(C)C)C(C(=O)NC2CCCc4ccccc42)C3)cc1Cl)[100C:0](=O)N1CCCC(n2nc(-c3ccc(Oc4ccc(F)cc4F)cc3)c(C(N)=O)c2N)C1

> <Shape>
0.190

> <Color>
0.088

> <Negative vol penalty>
0.000

$$$$

  -OEChem-04042321223D

 84 93  0     1  0  0  0  0  0999 V2000
  -26.7870  -39.0652   21.4168 C   0  0  0  0  0  0  0  0  0  0  0  0
  -27.7797  -38.1253   21.6746 C   0  0  0  0  0  0  0  0  0  0  0  0
  -25.7407  -24.3606   15.0512 C   0  0  0  0  0  0  0  0  0  0  0  0
  -25.4177  -23.0142   14.8821 C   0  0  0  0  0  0  0  0  0  0  0  0
  -24.2922  -12.3749   19.6155 C   0  0  0  0  0  0  0  0  0  0  0  0
  -23.5739  -13.4315   21.6661 C   0  0  0  0  0  0  0  0  0  0  0  0
  -25.5280  -38.9253   21.9992 C   0  0  0  0  0  0  0  0  0  0  0  0
  -27.5143  -37.0455   22.5160 C   0  0  0  0  0  0  0  0  0  0  0  0
  -28.2012  -30.2666   20.1780 C   0  0  0  0  0  0  0  0  0  0  0  0
  -26.2039  -24.8170   16.2852 C   0  0  0  0  0  0  0  0  0  0  0  0
  -25.5578  -22.1243   15.9470 C   0  0  0  0  0  0  0  0  0  0  0  0
  -23.1860  -11.5268   19.6651 C   0  0  0  0  0  0  0  0  0  0  0  0
  -22.4677  -12.5834   21.7156 C   0  0  0  0  0  0  0  0  0  0  0  0
  -28.5123  -28.9421   19.8693 C   0  0  0  0  0  0  0  0  0  0  0  0
  -22.2696   -8.7228   21.3151 C   0  0  0  0  0  0  0  0  0  0  0  0
  -22.4806   -7.3681   21.0585 C   0  0  0  0  0  0  0  0  0  0  0  0
  -27.7042  -28.2360   22.0365 C   0  0  0  0  0  0  0  0  0  0  0  0
  -20.9561   -7.4850   19.1879 C   0  0  0  0  0  0  0  0  0  0  0  0
  -24.4862  -13.3273   20.6161 C   0  0  0  0  0  0  0  0  0  0  0  0
  -26.9866  -13.8310   20.5729 C   0  0  0  0  0  0  0  0  0  0  0  0
  -25.2440  -37.8380   22.8404 C   0  0  0  0  0  0  0  0  0  0  0  0
  -27.6255  -30.5791   21.4126 C   0  0  0  0  0  0  0  0  0  0  0  0
  -26.2507  -36.8916   23.1113 C   0  0  0  0  0  0  0  0  0  0  0  0
  -27.3789  -29.5592   22.3464 C   0  0  0  0  0  0  0  0  0  0  0  0
  -26.3440  -23.9271   17.3501 C   0  0  0  0  0  0  0  0  0  0  0  0
  -26.0210  -22.5808   17.1811 C   0  0  0  0  0  0  0  0  0  0  0  0
  -22.2737  -11.6310   20.7151 C   0  0  0  0  0  0  0  0  0  0  0  0
  -28.2647  -27.9295   20.7964 C   0  0  0  0  0  0  0  0  0  0  0  0
  -21.4018   -9.4586   20.5081 C   0  0  0  0  0  0  0  0  0  0  0  0
  -21.8238   -6.7492   19.9949 C   0  0  0  0  0  0  0  0  0  0  0  0
  -20.7451   -8.8397   19.4445 C   0  0  0  0  0  0  0  0  0  0  0  0
  -25.6290  -14.2034   20.5658 C   0  0  0  0  0  0  0  0  0  0  0  0
  -27.6695  -15.0211   20.5111 C   0  0  0  0  0  0  0  0  0  0  0  0
  -28.0072  -23.9187   19.1893 C   0  0  0  0  0  0  0  0  0  0  0  0
  -27.5776  -12.5259   20.6300 C   0  0  0  0  0  0  0  0  0  0  0  0
  -26.2576  -33.2401   23.6763 C   0  0  0  0  0  0  0  0  0  0  0  0
  -24.4132  -30.8040   23.9486 C   0  0  0  0  0  0  0  0  0  0  0  0
  -22.3985  -28.0680   23.6442 C   0  0  0  0  0  0  0  0  0  0  0  0
  -25.8739  -20.2885   18.2337 C   0  0  0  0  0  0  0  0  0  0  0  0
  -23.8829  -37.7547   23.4847 C   0  0  0  0  0  0  0  0  0  0  0  0
  -27.3307  -31.9995   21.8119 C   0  0  0  0  0  0  0  0  0  0  0  0
  -26.7904  -29.9466   23.6754 C   0  0  0  0  0  0  0  0  0  0  0  0
  -28.2704  -24.2671   20.6460 C   0  0  0  0  0  0  0  0  0  0  0  0
  -23.5674  -36.3790   24.0662 C   0  0  0  0  0  0  0  0  0  0  0  0
  -26.4594  -19.4831   21.9395 C   0  0  0  0  0  0  0  0  0  0  0  0
  -24.7489  -35.8592   24.8789 C   0  0  0  0  0  0  0  0  0  0  0  0
  -27.1223  -18.1147   21.7999 C   0  0  0  0  0  0  0  0  0  0  0  0
  -26.3125  -25.7774   20.6811 C   0  0  0  0  0  0  0  0  0  0  0  0
  -26.6004  -20.3246   20.6774 C   0  0  0  0  0  0  0  0  0  0  0  0
  -26.1566  -25.6120   19.1773 C   0  0  0  0  0  0  0  0  0  0  0  0
  -25.8424  -18.2036   19.5898 C   0  0  0  0  0  0  0  0  0  0  0  0
  -25.9936  -35.6931   23.9987 C   0  0  1  0  0  0  0  0  0  0  0  0
  -26.0682  -32.1322   22.6823 C   0  0  1  0  0  0  0  0  0  0  0  0
  -26.9395  -17.4956   20.4000 C   0  0  2  0  0  0  0  0  0  0  0  0
  -27.7641  -25.6248   21.0839 C   0  0  2  0  0  0  0  0  0  1  0  0
  -20.2545  -27.0944   24.5117 C   0  0  0  0  0  0  0  0  0  0  0  0
  -25.8086  -30.0662   26.5587 C   0  0  0  0  0  0  0  0  0  0  0  0
  -24.0278  -28.3488   26.9427 C   0  0  0  0  0  0  0  0  0  0  0  0
  -23.4208  -30.7649   26.8132 C   0  0  0  0  0  0  0  0  0  0  0  0
  -21.1849  -28.0377   20.9451 C   0  0  0  0  0  0  0  0  0  0  0  0
  -24.0901  -29.5403   24.7050 C   0  0  1  0  0  0  0  0  0  0  0  0
  -20.9020  -27.9382   23.4248 C   0  0  2  0  0  0  0  0  0  0  0  0
  -24.3525  -29.6796   26.2312 C   0  0  0  0  0  0  0  0  0  0  0  0
  -25.4577  -15.5266   20.5046 N   0  0  0  0  0  0  0  0  0  0  0  0
  -26.7165  -15.9960   20.4727 N   0  0  0  0  0  0  0  0  0  0  0  0
  -26.8266  -24.4253   18.6206 N   0  0  0  0  0  0  0  0  0  0  0  0
  -25.7259  -30.9437   23.4820 N   0  0  0  0  0  0  0  0  0  0  0  0
  -26.1145  -19.6407   19.4702 N   0  0  0  0  0  0  0  0  0  0  0  0
  -28.9861  -15.3182   20.4866 N   0  0  0  0  0  0  0  0  0  0  0  0
  -27.8626  -11.9760   21.8873 N   0  0  0  0  0  0  0  0  0  0  0  0
  -26.1549  -21.6572   18.2479 N   0  0  0  0  0  0  0  0  0  0  0  0
  -25.8939  -34.4871   23.2049 N   0  0  0  0  0  0  0  0  0  0  0  0
  -22.7127  -29.2014   24.3640 N   0  0  0  0  0  0  0  0  0  0  0  0
  -20.6252  -27.3000   22.1068 N   0  3  0  0  0  0  0  0  0  0  0  0
  -28.8106  -23.1732   18.6211 O   0  0  0  0  0  0  0  0  0  0  0  0
  -27.8602  -11.8738   19.5964 O   0  0  0  0  0  0  0  0  0  0  0  0
  -26.6996  -32.9835   24.7900 O   0  0  0  0  0  0  0  0  0  0  0  0
  -23.5292  -31.6485   23.7796 O   0  0  0  0  0  0  0  0  0  0  0  0
  -23.2074  -27.2444   23.2227 O   0  0  0  0  0  0  0  0  0  0  0  0
  -25.4657  -19.6712   17.2477 O   0  0  0  0  0  0  0  0  0  0  0  0
  -21.1940  -10.8037   20.7636 O   0  0  0  0  0  0  0  0  0  0  0  0
  -28.5667  -26.6381   20.4868 O   0  0  0  0  0  0  0  0  0  1  0  0
  -22.0277   -5.4486   19.7477 F   0  0  0  0  0  0  0  0  0  0  0  0
  -19.9111   -9.5417   18.6650 F   0  0  0  0  0  0  0  0  0  0  0  0
  1  2  1  0  0  0  0
  1  7  2  0  0  0  0
  2  8  2  0  0  0  0
  3  4  1  0  0  0  0
  3 10  2  0  0  0  0
  4 11  2  0  0  0  0
  5 12  2  0  0  0  0
  5 19  1  0  0  0  0
  6 13  1  0  0  0  0
  6 19  2  0  0  0  0
  7 21  1  0  0  0  0
  8 23  1  0  0  0  0
  9 14  2  0  0  0  0
  9 22  1  0  0  0  0
 10 25  1  0  0  0  0
 11 26  1  0  0  0  0
 12 27  1  0  0  0  0
 13 27  2  0  0  0  0
 14 28  1  0  0  0  0
 15 16  2  0  0  0  0
 15 29  1  0  0  0  0
 16 30  1  0  0  0  0
 17 24  1  0  0  0  0
 17 28  2  0  0  0  0
 18 30  2  0  0  0  0
 18 31  1  0  0  0  0
 19 32  1  0  0  0  0
 20 32  1  0  0  0  0
 20 33  2  0  0  0  0
 20 35  1  0  0  0  0
 21 23  2  0  0  0  0
 21 40  1  0  0  0  0
 22 24  2  0  0  0  0
 22 41  1  0  0  0  0
 23 52  1  0  0  0  0
 24 42  1  0  0  0  0
 25 26  2  0  0  0  0
 25 66  1  0  0  0  0
 26 71  1  0  0  0  0
 27 81  1  0  0  0  0
 28 82  1  0  0  0  0
 29 31  2  0  0  0  0
 29 81  1  0  0  0  0
 30 83  1  0  0  0  0
 31 84  1  0  0  0  0
 32 64  2  0  0  0  0
 33 65  1  0  0  0  0
 33 69  1  0  0  0  0
 34 43  1  0  0  0  0
 34 66  1  0  0  0  0
 34 75  2  0  0  0  0
 35 70  1  0  0  0  0
 35 76  2  0  0  0  0
 36 53  1  0  0  0  0
 36 72  1  0  0  0  0
 36 77  2  0  0  0  0
 37 61  1  0  0  0  0
 37 67  1  0  0  0  0
 37 78  2  0  0  0  0
 38 62  1  0  0  0  0
 38 73  1  0  0  0  0
 38 79  2  0  0  0  0
 39 68  1  0  0  0  0
 39 71  1  0  0  0  0
 39 80  2  0  0  0  0
 40 44  1  0  0  0  0
 41 53  1  0  0  0  0
 42 67  1  0  0  0  0
 43 55  1  0  0  0  0
 44 46  1  0  0  0  0
 45 47  1  0  0  0  0
 45 49  1  0  0  0  0
 46 52  1  0  0  0  0
 47 54  1  0  0  0  0
 48 50  1  0  0  0  0
 48 55  1  0  0  0  0
 49 68  1  0  0  0  0
 50 66  1  0  0  0  0
 51 54  1  0  0  0  0
 51 68  1  0  0  0  0
 52 72  1  0  0  0  0
 53 67  1  0  0  0  0
 54 65  1  0  0  0  0
 55 82  1  0  0  0  0
 56 62  1  0  0  0  0
 57 63  1  0  0  0  0
 58 63  1  0  0  0  0
 59 63  1  0  0  0  0
 60 74  1  0  0  0  0
 61 63  1  0  0  0  0
 61 73  1  0  0  0  0
 62 74  1  0  0  0  0
 64 65  1  0  0  0  0
M  CHG  1  74   1
M  ISO  4  39 100  55 101  71 100  82 101
M  END
> <Batch ID>
0025

> <Smiles>
CNC(C)C(=O)NC(C(=O)N1Cc2cc([101O:1][101CH:1]3CCN(c4ccccc4[100NH:0][100C:0](=O)N4CCCC(n5nc(-c6ccc(Oc7ccc(F)cc7F)cc6)c(C(N)=O)c5N)C4)C(=O)C3)ccc2CC1C(=O)NC1CCCc2ccccc21)C(C)(C)C

> <Shape>
0.274

> <Color>
0.071

> <Negative vol penalty>
0.000

$$$$

  -OEChem-04042321223D

 87 96  0     1  0  0  0  0  0999 V2000
  -18.7831  -27.1898   18.7047 C   0  0  0  0  0  0  0  0  0  0  0  0
  -20.1665  -27.3186   18.6325 C   0  0  0  0  0  0  0  0  0  0  0  0
  -24.3865  -13.8347   21.5568 C   0  0  0  0  0  0  0  0  0  0  0  0
  -26.6533  -13.5335   20.7769 C   0  0  0  0  0  0  0  0  0  0  0  0
  -18.0777  -27.8230   19.7271 C   0  0  0  0  0  0  0  0  0  0  0  0
  -20.8451  -28.0816   19.5821 C   0  0  0  0  0  0  0  0  0  0  0  0
  -25.0199  -25.7849   21.2970 C   0  0  0  0  0  0  0  0  0  0  0  0
  -30.3069  -24.7612   17.9773 C   0  0  0  0  0  0  0  0  0  0  0  0
  -29.7203  -23.5269   17.6984 C   0  0  0  0  0  0  0  0  0  0  0  0
  -24.2873  -12.4644   21.7975 C   0  0  0  0  0  0  0  0  0  0  0  0
  -26.5540  -12.1632   21.0177 C   0  0  0  0  0  0  0  0  0  0  0  0
  -26.1468  -25.8169   20.4767 C   0  0  0  0  0  0  0  0  0  0  0  0
  -23.7701   -9.6507   19.9975 C   0  0  0  0  0  0  0  0  0  0  0  0
  -22.6089   -9.0020   19.5773 C   0  0  0  0  0  0  0  0  0  0  0  0
  -27.0474  -27.6256   21.7945 C   0  0  0  0  0  0  0  0  0  0  0  0
  -22.1512   -8.3449   21.8567 C   0  0  0  0  0  0  0  0  0  0  0  0
  -25.5695  -14.3693   21.0464 C   0  0  0  0  0  0  0  0  0  0  0  0
  -25.5358  -16.8253   21.7351 C   0  0  0  0  0  0  0  0  0  0  0  0
  -18.7489  -28.5862   20.6953 C   0  0  0  0  0  0  0  0  0  0  0  0
  -24.8931  -26.6819   22.3674 C   0  0  0  0  0  0  0  0  0  0  0  0
  -20.1477  -28.7267   20.6176 C   0  0  0  0  0  0  0  0  0  0  0  0
  -25.9191  -27.6013   22.6284 C   0  0  0  0  0  0  0  0  0  0  0  0
  -29.7605  -22.9763   20.0505 C   0  0  0  0  0  0  0  0  0  0  0  0
  -30.6204  -25.1031   19.2928 C   0  0  0  0  0  0  0  0  0  0  0  0
  -29.4470  -22.6344   18.7349 C   0  0  0  0  0  0  0  0  0  0  0  0
  -25.3710  -11.6286   21.5280 C   0  0  0  0  0  0  0  0  0  0  0  0
  -27.1594  -26.7392   20.7236 C   0  0  0  0  0  0  0  0  0  0  0  0
  -24.1219   -9.6464   21.3473 C   0  0  0  0  0  0  0  0  0  0  0  0
  -21.7995   -8.3492   20.5069 C   0  0  0  0  0  0  0  0  0  0  0  0
  -23.3124   -8.9935   22.2769 C   0  0  0  0  0  0  0  0  0  0  0  0
  -30.3471  -24.2107   20.3294 C   0  0  0  0  0  0  0  0  0  0  0  0
  -25.6725  -15.7846   20.7970 C   0  0  0  0  0  0  0  0  0  0  0  0
  -25.7197  -17.9733   21.0037 C   0  0  0  0  0  0  0  0  0  0  0  0
  -32.5010  -26.4813   20.1423 C   0  0  0  0  0  0  0  0  0  0  0  0
  -25.2667  -16.7602   23.1419 C   0  0  0  0  0  0  0  0  0  0  0  0
  -22.8455  -28.9909   23.1286 C   0  0  0  0  0  0  0  0  0  0  0  0
  -24.5479  -29.0560   25.8891 C   0  0  0  0  0  0  0  0  0  0  0  0
  -28.0211  -28.8617   26.8461 C   0  0  0  0  0  0  0  0  0  0  0  0
  -28.4828  -20.9143   17.1672 C   0  0  0  0  0  0  0  0  0  0  0  0
  -17.9385  -29.2908   21.7543 C   0  0  0  0  0  0  0  0  0  0  0  0
  -23.6836  -26.6168   23.2592 C   0  0  0  0  0  0  0  0  0  0  0  0
  -25.8406  -28.5722   23.7772 C   0  0  0  0  0  0  0  0  0  0  0  0
  -33.0661  -27.8512   20.4311 C   0  0  0  0  0  0  0  0  0  0  0  0
  -18.7721  -29.7737   22.9385 C   0  0  0  0  0  0  0  0  0  0  0  0
  -25.9634  -18.6863   15.9983 C   0  0  0  0  0  0  0  0  0  0  0  0
  -20.0335  -30.4793   22.4509 C   0  0  0  0  0  0  0  0  0  0  0  0
  -25.6519  -17.8184   17.2197 C   0  0  0  0  0  0  0  0  0  0  0  0
  -27.4485  -19.0343   15.9138 C   0  0  0  0  0  0  0  0  0  0  0  0
  -27.7041  -18.7668   18.3494 C   0  0  0  0  0  0  0  0  0  0  0  0
  -31.2405  -28.8910   19.1880 C   0  0  0  0  0  0  0  0  0  0  0  0
  -20.9221  -29.5255   21.6435 C   0  0  1  0  0  0  0  0  0  0  0  0
  -23.4235  -27.9195   24.0093 C   0  0  1  0  0  0  0  0  0  0  0  0
  -26.2098  -18.4444   18.5130 C   0  0  2  0  0  0  0  0  0  0  0  0
  -30.4169  -27.6088   19.2324 C   0  0  2  0  0  0  0  0  0  0  0  0
  -29.4602  -22.0053   21.1517 C   0  0  0  0  0  0  0  0  0  0  0  0
  -29.0846  -28.0684   28.9761 C   0  0  0  0  0  0  0  0  0  0  0  0
  -24.4654  -31.9999   26.6868 C   0  0  0  0  0  0  0  0  0  0  0  0
  -26.7043  -31.6984   27.7659 C   0  0  0  0  0  0  0  0  0  0  0  0
  -24.7373  -30.4088   28.5969 C   0  0  0  0  0  0  0  0  0  0  0  0
  -29.7195  -26.9110   25.4077 C   0  0  0  0  0  0  0  0  0  0  0  0
  -29.2590  -27.7436   20.2346 C   0  0  0  0  0  0  0  0  0  1  0  0
  -25.7719  -29.7953   26.3731 C   0  0  1  0  0  0  0  0  0  0  0  0
  -28.7068  -27.7039   27.5488 C   0  0  2  0  0  0  0  0  0  0  0  0
  -25.4160  -30.9694   27.3281 C   0  0  0  0  0  0  0  0  0  0  0  0
  -25.9237  -16.2319   19.5637 N   0  0  0  0  0  0  0  0  0  0  0  0
  -25.9462  -17.5662   19.7219 N   0  0  0  0  0  0  0  0  0  0  0  0
  -31.2313  -26.3989   19.5423 N   0  0  0  0  0  0  0  0  0  0  0  0
  -24.6352  -28.4735   24.6167 N   0  0  0  0  0  0  0  0  0  0  0  0
  -27.9057  -19.6267   17.1727 N   0  0  0  0  0  0  0  0  0  0  0  0
  -25.7080  -19.2810   21.3385 N   0  0  0  0  0  0  0  0  0  0  0  0
  -25.1050  -15.5000   23.7336 N   0  0  0  0  0  0  0  0  0  0  0  0
  -28.8495  -21.3871   18.4268 N   0  0  0  0  0  0  0  0  0  0  0  0
  -21.6506  -28.6422   22.5287 N   0  0  0  0  0  0  0  0  0  0  0  0
  -26.6491  -28.7900   26.9632 N   0  0  0  0  0  0  0  0  0  0  0  0
  -32.0776  -28.9480   20.4038 N   0  3  0  0  0  0  0  0  0  0  0  0
  -29.9468  -27.3160   26.8188 N   0  3  0  0  0  0  0  0  0  0  0  0
  -33.2431  -25.5193   20.3698 O   0  0  0  0  0  0  0  0  0  0  0  0
  -25.1562  -17.7896   23.8501 O   0  0  0  0  0  0  0  0  0  0  0  0
  -23.4390  -30.0558   23.0039 O   0  0  0  0  0  0  0  0  0  0  0  0
  -23.5535  -28.9914   26.6162 O   0  0  0  0  0  0  0  0  0  0  0  0
  -28.6409  -29.7438   26.2558 O   0  0  0  0  0  0  0  0  0  0  0  0
  -28.6151  -21.5617   16.1254 O   0  0  0  0  0  0  0  0  0  0  0  0
  -25.2746  -10.2914   21.7630 O   0  0  0  0  0  0  0  0  0  0  0  0
  -28.2601  -26.7729   19.9240 O   0  0  0  0  0  0  0  0  0  1  0  0
  -20.6836   -7.7277   20.1035 F   0  0  0  0  0  0  0  0  0  0  0  0
  -23.6445   -8.9870   23.5752 F   0  0  0  0  0  0  0  0  0  0  0  0
  -30.7367  -24.6340   21.9656 Cl  0  0  0  0  0  0  0  0  0  0  0  0
  1  2  1  0  0  0  0
  1  5  2  0  0  0  0
  2  6  2  0  0  0  0
  3 10  2  0  0  0  0
  3 17  1  0  0  0  0
  4 11  1  0  0  0  0
  4 17  2  0  0  0  0
  5 19  1  0  0  0  0
  6 21  1  0  0  0  0
  7 12  2  0  0  0  0
  7 20  1  0  0  0  0
  8  9  2  0  0  0  0
  8 24  1  0  0  0  0
  9 25  1  0  0  0  0
 10 26  1  0  0  0  0
 11 26  2  0  0  0  0
 12 27  1  0  0  0  0
 13 14  2  0  0  0  0
 13 28  1  0  0  0  0
 14 29  1  0  0  0  0
 15 22  1  0  0  0  0
 15 27  2  0  0  0  0
 16 29  2  0  0  0  0
 16 30  1  0  0  0  0
 17 32  1  0  0  0  0
 18 32  1  0  0  0  0
 18 33  2  0  0  0  0
 18 35  1  0  0  0  0
 19 21  2  0  0  0  0
 19 40  1  0  0  0  0
 20 22  2  0  0  0  0
 20 41  1  0  0  0  0
 21 51  1  0  0  0  0
 22 42  1  0  0  0  0
 23 25  2  0  0  0  0
 23 31  1  0  0  0  0
 23 55  1  0  0  0  0
 24 31  2  0  0  0  0
 24 67  1  0  0  0  0
 25 72  1  0  0  0  0
 26 83  1  0  0  0  0
 27 84  1  0  0  0  0
 28 30  2  0  0  0  0
 28 83  1  0  0  0  0
 29 85  1  0  0  0  0
 30 86  1  0  0  0  0
 31 87  1  0  0  0  0
 32 65  2  0  0  0  0
 33 66  1  0  0  0  0
 33 70  1  0  0  0  0
 34 43  1  0  0  0  0
 34 67  1  0  0  0  0
 34 77  2  0  0  0  0
 35 71  1  0  0  0  0
 35 78  2  0  0  0  0
 36 52  1  0  0  0  0
 36 73  1  0  0  0  0
 36 79  2  0  0  0  0
 37 62  1  0  0  0  0
 37 68  1  0  0  0  0
 37 80  2  0  0  0  0
 38 63  1  0  0  0  0
 38 74  1  0  0  0  0
 38 81  2  0  0  0  0
 39 69  1  0  0  0  0
 39 72  1  0  0  0  0
 39 82  2  0  0  0  0
 40 44  1  0  0  0  0
 41 52  1  0  0  0  0
 42 68  1  0  0  0  0
 43 75  1  0  0  0  0
 44 46  1  0  0  0  0
 45 47  1  0  0  0  0
 45 48  1  0  0  0  0
 46 51  1  0  0  0  0
 47 53  1  0  0  0  0
 48 69  1  0  0  0  0
 49 53  1  0  0  0  0
 49 69  1  0  0  0  0
 50 54  1  0  0  0  0
 50 75  1  0  0  0  0
 51 73  1  0  0  0  0
 52 68  1  0  0  0  0
 53 66  1  0  0  0  0
 54 61  1  0  0  0  0
 54 67  1  0  0  0  0
 56 63  1  0  0  0  0
 57 64  1  0  0  0  0
 58 64  1  0  0  0  0
 59 64  1  0  0  0  0
 60 76  1  0  0  0  0
 61 84  1  0  0  0  0
 62 64  1  0  0  0  0
 62 74  1  0  0  0  0
 63 76  1  0  0  0  0
 65 66  1  0  0  0  0
M  CHG  2  75   1  76   1
M  ISO  4  39 100  61 101  72 100  84 101
M  END
> <Batch ID>
0025

> <Smiles>
CNC(C)C(=O)NC(C(=O)N1Cc2cc([101O:1][101CH2:1]C3CNCC(=O)N3c3ccc([100NH:0][100C:0](=O)N4CCCC(n5nc(-c6ccc(Oc7ccc(F)cc7F)cc6)c(C(N)=O)c5N)C4)c(C)c3Cl)ccc2CC1C(=O)NC1CCCc2ccccc21)C(C)(C)C

> <Shape>
0.226

> <Color>
0.061

> <Negative vol penalty>
0.000

$$$$

  -OEChem-04042321223D

 83 92  0     1  0  0  0  0  0999 V2000
  -26.3228  -34.9963   21.2330 C   0  0  0  0  0  0  0  0  0  0  0  0
  -26.8214  -33.6987   21.1771 C   0  0  0  0  0  0  0  0  0  0  0  0
  -23.0262   -9.9727   19.8913 C   0  0  0  0  0  0  0  0  0  0  0  0
  -24.1948   -9.6810   21.9856 C   0  0  0  0  0  0  0  0  0  0  0  0
  -25.1095  -35.2488   21.8718 C   0  0  0  0  0  0  0  0  0  0  0  0
  -26.1073  -32.6529   21.7611 C   0  0  0  0  0  0  0  0  0  0  0  0
  -30.6342  -19.1360   22.8695 C   0  0  0  0  0  0  0  0  0  0  0  0
  -25.7339  -26.8787   19.7549 C   0  0  0  0  0  0  0  0  0  0  0  0
  -29.7257  -20.1987   22.9114 C   0  0  0  0  0  0  0  0  0  0  0  0
  -22.3843   -8.7486   20.0789 C   0  0  0  0  0  0  0  0  0  0  0  0
  -23.5529   -8.4569   22.1734 C   0  0  0  0  0  0  0  0  0  0  0  0
  -26.4025  -25.7123   20.1242 C   0  0  0  0  0  0  0  0  0  0  0  0
  -20.5227   -7.3667   23.1981 C   0  0  0  0  0  0  0  0  0  0  0  0
  -19.9964   -7.0998   24.4620 C   0  0  0  0  0  0  0  0  0  0  0  0
  -28.2449  -19.0684   21.3430 C   0  0  0  0  0  0  0  0  0  0  0  0
  -24.5713  -25.1317   21.5832 C   0  0  0  0  0  0  0  0  0  0  0  0
  -21.4231   -5.1586   24.6460 C   0  0  0  0  0  0  0  0  0  0  0  0
  -23.9315  -10.4388   20.8446 C   0  0  0  0  0  0  0  0  0  0  0  0
  -29.1580  -18.0315   21.3242 C   0  0  0  0  0  0  0  0  0  0  0  0
  -24.1518  -12.9698   21.0752 C   0  0  0  0  0  0  0  0  0  0  0  0
  -30.3338  -18.0515   22.0668 C   0  0  0  0  0  0  0  0  0  0  0  0
  -24.3756  -34.2042   22.4554 C   0  0  0  0  0  0  0  0  0  0  0  0
  -24.4818  -27.1862   20.3062 C   0  0  0  0  0  0  0  0  0  0  0  0
  -24.8837  -32.8919   22.4095 C   0  0  0  0  0  0  0  0  0  0  0  0
  -23.8877  -26.3013   21.2174 C   0  0  0  0  0  0  0  0  0  0  0  0
  -28.5409  -20.1649   22.1539 C   0  0  0  0  0  0  0  0  0  0  0  0
  -22.6476   -7.9908   21.2200 C   0  0  0  0  0  0  0  0  0  0  0  0
  -25.8225  -24.8401   21.0406 C   0  0  0  0  0  0  0  0  0  0  0  0
  -21.4991   -6.5296   22.6581 C   0  0  0  0  0  0  0  0  0  0  0  0
  -20.4466   -5.9958   25.1860 C   0  0  0  0  0  0  0  0  0  0  0  0
  -21.9493   -5.4256   23.3821 C   0  0  0  0  0  0  0  0  0  0  0  0
  -24.5954  -11.7029   20.6510 C   0  0  0  0  0  0  0  0  0  0  0  0
  -25.1298  -13.8359   20.6510 C   0  0  0  0  0  0  0  0  0  0  0  0
  -29.1099  -16.7758   20.5714 C   0  0  0  0  0  0  0  0  0  0  0  0
  -22.9620  -13.3315   21.7889 C   0  0  0  0  0  0  0  0  0  0  0  0
  -23.3395  -29.5495   22.0990 C   0  0  0  0  0  0  0  0  0  0  0  0
  -20.5081  -28.0557   21.5756 C   0  0  0  0  0  0  0  0  0  0  0  0
  -18.8526  -25.1740   20.7998 C   0  0  0  0  0  0  0  0  0  0  0  0
  -30.7176  -14.8288   20.3781 C   0  0  0  0  0  0  0  0  0  0  0  0
  -23.0922  -34.5331   23.1761 C   0  0  0  0  0  0  0  0  0  0  0  0
  -23.7615  -28.4351   19.8773 C   0  0  0  0  0  0  0  0  0  0  0  0
  -31.1178  -16.8120   21.8276 C   0  0  0  0  0  0  0  0  0  0  0  0
  -22.5362  -26.5755   21.8228 C   0  0  0  0  0  0  0  0  0  0  0  0
  -22.2139  -33.3134   23.4433 C   0  0  0  0  0  0  0  0  0  0  0  0
  -29.0396  -13.1574   17.5348 C   0  0  0  0  0  0  0  0  0  0  0  0
  -23.0484  -32.1678   24.0073 C   0  0  0  0  0  0  0  0  0  0  0  0
  -27.7336  -12.6677   18.1571 C   0  0  0  0  0  0  0  0  0  0  0  0
  -30.1602  -13.2454   18.5661 C   0  0  0  0  0  0  0  0  0  0  0  0
  -28.5084  -13.5892   20.3786 C   0  0  0  0  0  0  0  0  0  0  0  0
  -24.1263  -31.7273   23.0095 C   0  0  1  0  0  0  0  0  0  0  0  0
  -22.7221  -28.9035   20.8910 C   0  0  1  0  0  0  0  0  0  0  0  0
  -27.3509  -13.5322   19.3701 C   0  0  2  0  0  0  0  0  0  0  0  0
  -16.5388  -24.2555   20.4832 C   0  0  0  0  0  0  0  0  0  0  0  0
  -20.1122  -28.0168   24.6008 C   0  0  0  0  0  0  0  0  0  0  0  0
  -18.3229  -26.2962   24.2745 C   0  0  0  0  0  0  0  0  0  0  0  0
  -18.0578  -28.5715   23.2869 C   0  0  0  0  0  0  0  0  0  0  0  0
  -19.3970  -24.4587   17.9800 C   0  0  0  0  0  0  0  0  0  0  0  0
  -26.4208  -21.2927   21.4767 C   0  0  0  0  0  0  0  0  0  0  0  0
  -25.6693  -22.5810   21.7680 C   0  0  0  0  0  0  0  0  0  1  0  0
  -19.7285  -26.9673   22.2733 C   0  0  1  0  0  0  0  0  0  0  0  0
  -17.7442  -24.8861   19.8033 C   0  0  2  0  0  0  0  0  0  0  0  0
  -19.0817  -27.4585   23.5991 C   0  0  0  0  0  0  0  0  0  0  0  0
  -25.7642  -11.7550   20.0066 N   0  0  0  0  0  0  0  0  0  0  0  0
  -26.0633  -13.0651   20.0227 N   0  0  0  0  0  0  0  0  0  0  0  0
  -30.2424  -16.0177   20.9610 N   0  0  0  0  0  0  0  0  0  0  0  0
  -21.8745  -27.8126   21.3765 N   0  0  0  0  0  0  0  0  0  0  0  0
  -29.7587  -14.0244   19.7382 N   0  0  0  0  0  0  0  0  0  0  0  0
  -25.2738  -15.1739   20.7578 N   0  0  0  0  0  0  0  0  0  0  0  0
  -22.0639  -12.3172   22.1479 N   0  0  0  0  0  0  0  0  0  0  0  0
  -27.6433  -21.2533   22.2160 N   0  0  0  0  0  0  0  0  0  0  0  0
  -23.5454  -30.9094   21.9664 N   0  0  0  0  0  0  0  0  0  0  0  0
  -18.7732  -26.4584   21.2951 N   0  0  0  0  0  0  0  0  0  0  0  0
  -18.2278  -23.9545   18.7454 N   0  3  0  0  0  0  0  0  0  0  0  0
  -28.2323  -16.5164   19.7676 O   0  0  0  0  0  0  0  0  0  0  0  0
  -22.6950  -14.5209   22.0847 O   0  0  0  0  0  0  0  0  0  0  0  0
  -23.6078  -28.8650   23.0795 O   0  0  0  0  0  0  0  0  0  0  0  0
  -19.9246  -29.0807   21.2141 O   0  0  0  0  0  0  0  0  0  0  0  0
  -19.7016  -24.3414   21.1107 O   0  0  0  0  0  0  0  0  0  0  0  0
  -31.9210  -14.5459   20.3912 O   0  0  0  0  0  0  0  0  0  0  0  0
  -22.0212   -6.7964   21.4036 O   0  0  0  0  0  0  0  0  0  0  0  0
  -26.4778  -23.6933   21.4058 O   0  0  0  0  0  0  0  0  0  1  0  0
  -19.9423   -5.7404   26.4003 F   0  0  0  0  0  0  0  0  0  0  0  0
  -22.8880   -4.6184   22.8691 F   0  0  0  0  0  0  0  0  0  0  0  0
  1  2  1  0  0  0  0
  1  5  2  0  0  0  0
  2  6  2  0  0  0  0
  3 10  2  0  0  0  0
  3 18  1  0  0  0  0
  4 11  1  0  0  0  0
  4 18  2  0  0  0  0
  5 22  1  0  0  0  0
  6 24  1  0  0  0  0
  7  9  2  0  0  0  0
  7 21  1  0  0  0  0
  8 12  2  0  0  0  0
  8 23  1  0  0  0  0
  9 26  1  0  0  0  0
 10 27  1  0  0  0  0
 11 27  2  0  0  0  0
 12 28  1  0  0  0  0
 13 14  2  0  0  0  0
 13 29  1  0  0  0  0
 14 30  1  0  0  0  0
 15 19  1  0  0  0  0
 15 26  2  0  0  0  0
 16 25  1  0  0  0  0
 16 28  2  0  0  0  0
 17 30  2  0  0  0  0
 17 31  1  0  0  0  0
 18 32  1  0  0  0  0
 19 21  2  0  0  0  0
 19 34  1  0  0  0  0
 20 32  1  0  0  0  0
 20 33  2  0  0  0  0
 20 35  1  0  0  0  0
 21 42  1  0  0  0  0
 22 24  2  0  0  0  0
 22 40  1  0  0  0  0
 23 25  2  0  0  0  0
 23 41  1  0  0  0  0
 24 50  1  0  0  0  0
 25 43  1  0  0  0  0
 26 70  1  0  0  0  0
 27 80  1  0  0  0  0
 28 81  1  0  0  0  0
 29 31  2  0  0  0  0
 29 80  1  0  0  0  0
 30 82  1  0  0  0  0
 31 83  1  0  0  0  0
 32 63  2  0  0  0  0
 33 64  1  0  0  0  0
 33 68  1  0  0  0  0
 34 65  1  0  0  0  0
 34 74  2  0  0  0  0
 35 69  1  0  0  0  0
 35 75  2  0  0  0  0
 36 51  1  0  0  0  0
 36 71  1  0  0  0  0
 36 76  2  0  0  0  0
 37 60  1  0  0  0  0
 37 66  1  0  0  0  0
 37 77  2  0  0  0  0
 38 61  1  0  0  0  0
 38 72  1  0  0  0  0
 38 78  2  0  0  0  0
 39 65  1  0  0  0  0
 39 67  1  0  0  0  0
 39 79  2  0  0  0  0
 40 44  1  0  0  0  0
 41 51  1  0  0  0  0
 42 65  1  0  0  0  0
 43 66  1  0  0  0  0
 44 46  1  0  0  0  0
 45 47  1  0  0  0  0
 45 48  1  0  0  0  0
 46 50  1  0  0  0  0
 47 52  1  0  0  0  0
 48 67  1  0  0  0  0
 49 52  1  0  0  0  0
 49 67  1  0  0  0  0
 50 71  1  0  0  0  0
 51 66  1  0  0  0  0
 52 64  1  0  0  0  0
 53 61  1  0  0  0  0
 54 62  1  0  0  0  0
 55 62  1  0  0  0  0
 56 62  1  0  0  0  0
 57 73  1  0  0  0  0
 58 59  1  0  0  0  0
 58 70  1  0  0  0  0
 59 81  1  0  0  0  0
 60 62  1  0  0  0  0
 60 72  1  0  0  0  0
 61 73  1  0  0  0  0
 63 64  1  0  0  0  0
M  CHG  1  73   1
M  ISO  4  39 100  59 101  65 100  81 101
M  END
> <Batch ID>
0025

> <Smiles>
CNC(C)C(=O)NC(C(=O)N1Cc2cc([101O:1][101CH2:1]CNc3ccc4c(c3)C(=O)[100N:0]([100C:0](=O)N3CCCC(n5nc(-c6ccc(Oc7ccc(F)cc7F)cc6)c(C(N)=O)c5N)C3)C4)ccc2CC1C(=O)NC1CCCc2ccccc21)C(C)(C)C

> <Shape>
0.339

> <Color>
0.179

> <Negative vol penalty>
0.000

$$$$

  -OEChem-04042321223D

 91100  0     1  0  0  0  0  0999 V2000
  -26.9727  -33.9132   26.2086 C   0  0  0  0  0  0  0  0  0  0  0  0
  -27.3559  -32.7635   25.5254 C   0  0  0  0  0  0  0  0  0  0  0  0
  -24.3776  -12.8338   21.5411 C   0  0  0  0  0  0  0  0  0  0  0  0
  -26.0107  -12.5857   19.7780 C   0  0  0  0  0  0  0  0  0  0  0  0
  -25.6351  -34.1058   26.5516 C   0  0  0  0  0  0  0  0  0  0  0  0
  -26.4016  -31.8052   25.1857 C   0  0  0  0  0  0  0  0  0  0  0  0
  -26.9217  -30.1469   20.4291 C   0  0  0  0  0  0  0  0  0  0  0  0
  -23.8534  -11.5787   21.2322 C   0  0  0  0  0  0  0  0  0  0  0  0
  -25.4865  -11.3305   19.4691 C   0  0  0  0  0  0  0  0  0  0  0  0
  -27.9317  -29.2171   20.1858 C   0  0  0  0  0  0  0  0  0  0  0  0
  -24.6416   -8.3406   21.8040 C   0  0  0  0  0  0  0  0  0  0  0  0
  -24.3633   -7.4760   22.8625 C   0  0  0  0  0  0  0  0  0  0  0  0
  -26.3000  -27.4410   20.2343 C   0  0  0  0  0  0  0  0  0  0  0  0
  -30.0184  -22.2908   18.1715 C   0  0  0  0  0  0  0  0  0  0  0  0
  -32.4504  -21.4161   19.2218 C   0  0  0  0  0  0  0  0  0  0  0  0
  -22.0393   -7.4184   22.2045 C   0  0  0  0  0  0  0  0  0  0  0  0
  -25.4562  -13.3374   20.8139 C   0  0  0  0  0  0  0  0  0  0  0  0
  -27.0287  -14.9239   22.0459 C   0  0  0  0  0  0  0  0  0  0  0  0
  -24.6625  -33.1539   26.2074 C   0  0  0  0  0  0  0  0  0  0  0  0
  -25.5926  -29.7289   20.5880 C   0  0  0  0  0  0  0  0  0  0  0  0
  -25.0500  -31.9846   25.5255 C   0  0  0  0  0  0  0  0  0  0  0  0
  -25.2746  -28.3678   20.4770 C   0  0  0  0  0  0  0  0  0  0  0  0
  -31.2108  -22.8841   17.7570 C   0  0  0  0  0  0  0  0  0  0  0  0
  -32.4268  -22.4467   18.2821 C   0  0  0  0  0  0  0  0  0  0  0  0
  -30.0420  -21.2602   19.1113 C   0  0  0  0  0  0  0  0  0  0  0  0
  -24.4079  -10.8270   20.1963 C   0  0  0  0  0  0  0  0  0  0  0  0
  -27.6213  -27.8637   20.0912 C   0  0  0  0  0  0  0  0  0  0  0  0
  -23.6187   -8.7442   20.9457 C   0  0  0  0  0  0  0  0  0  0  0  0
  -23.0622   -7.0148   23.0628 C   0  0  0  0  0  0  0  0  0  0  0  0
  -22.3176   -8.2830   21.1459 C   0  0  0  0  0  0  0  0  0  0  0  0
  -31.2579  -20.8228   19.6364 C   0  0  0  0  0  0  0  0  0  0  0  0
  -25.9978  -14.6341   21.1321 C   0  0  0  0  0  0  0  0  0  0  0  0
  -27.1696  -16.2887   21.9832 C   0  0  0  0  0  0  0  0  0  0  0  0
  -27.7909  -14.0386   22.8771 C   0  0  0  0  0  0  0  0  0  0  0  0
  -23.4622  -29.8725   22.9426 C   0  0  0  0  0  0  0  0  0  0  0  0
  -21.4674  -28.6659   20.6872 C   0  0  0  0  0  0  0  0  0  0  0  0
  -29.3328  -25.6061   17.3262 C   0  0  0  0  0  0  0  0  0  0  0  0
  -21.1010  -26.9115   17.7830 C   0  0  0  0  0  0  0  0  0  0  0  0
  -27.5347  -21.0188   19.0684 C   0  0  0  0  0  0  0  0  0  0  0  0
  -23.2364  -33.3836   26.6411 C   0  0  0  0  0  0  0  0  0  0  0  0
  -24.5109  -30.7472   20.8234 C   0  0  0  0  0  0  0  0  0  0  0  0
  -23.8604  -27.8696   20.6196 C   0  0  0  0  0  0  0  0  0  0  0  0
  -22.2284  -32.4967   25.9147 C   0  0  0  0  0  0  0  0  0  0  0  0
  -35.5520  -24.4312   17.8270 C   0  0  0  0  0  0  0  0  0  0  0  0
  -35.5949  -23.5094   16.6251 C   0  0  0  0  0  0  0  0  0  0  0  0
  -24.2656  -19.8021   19.7820 C   0  0  0  0  0  0  0  0  0  0  0  0
  -22.7157  -31.0516   25.8811 C   0  0  0  0  0  0  0  0  0  0  0  0
  -24.5096  -18.3729   20.2721 C   0  0  0  0  0  0  0  0  0  0  0  0
  -34.5873  -23.7156   18.7657 C   0  0  0  0  0  0  0  0  0  0  0  0
  -34.1452  -23.0561   16.4969 C   0  0  0  0  0  0  0  0  0  0  0  0
  -25.2281  -20.1893   18.6607 C   0  0  0  0  0  0  0  0  0  0  0  0
  -26.8943  -18.5581   19.4559 C   0  0  0  0  0  0  0  0  0  0  0  0
  -24.0403  -30.9337   25.1176 C   0  0  1  0  0  0  0  0  0  0  0  0
  -23.2670  -30.1565   21.4801 C   0  0  1  0  0  0  0  0  0  0  0  0
  -25.9914  -18.1451   20.6298 C   0  0  2  0  0  0  0  0  0  0  0  0
  -29.1375  -24.4439   14.2442 C   0  0  0  0  0  0  0  0  0  0  0  0
  -19.3460  -26.0550   16.2070 C   0  0  0  0  0  0  0  0  0  0  0  0
  -20.7840  -26.4415   22.6609 C   0  0  0  0  0  0  0  0  0  0  0  0
  -19.8123  -25.1429   20.7537 C   0  0  0  0  0  0  0  0  0  0  0  0
  -18.8290  -27.3454   21.3899 C   0  0  0  0  0  0  0  0  0  0  0  0
  -22.1796  -28.5030   15.5329 C   0  0  0  0  0  0  0  0  0  0  0  0
  -31.1563  -23.9913   16.7445 C   0  0  0  0  0  0  0  0  0  0  0  0
  -30.3129  -26.2174   18.3222 C   0  0  0  0  0  0  0  0  0  0  0  0
  -28.9840  -23.8281   15.5933 C   0  0  0  0  0  0  0  0  0  0  0  0
  -29.7278  -27.3950   19.0916 C   0  0  0  0  0  0  0  0  0  1  0  0
  -21.0777  -27.2788   20.2363 C   0  0  1  0  0  0  0  0  0  0  0  0
  -20.2966  -27.1979   16.5278 C   0  0  2  0  0  0  0  0  0  0  0  0
  -20.1528  -26.5610   21.2594 C   0  0  0  0  0  0  0  0  0  0  0  0
  -25.5176  -15.7270   20.5329 N   0  0  0  0  0  0  0  0  0  0  0  0
  -26.2500  -16.7168   21.0713 N   0  0  0  0  0  0  0  0  0  0  0  0
  -33.6399  -23.0341   17.8750 N   0  0  0  0  0  0  0  0  0  0  0  0
  -22.8389  -28.9033   20.8553 N   0  0  0  0  0  0  0  0  0  0  0  0
  -26.6130  -19.9505   19.0727 N   0  0  0  0  0  0  0  0  0  0  0  0
  -27.9889  -17.1524   22.6196 N   0  0  0  0  0  0  0  0  0  0  0  0
  -27.5172  -12.6653   22.8179 N   0  0  0  0  0  0  0  0  0  0  0  0
  -28.8129  -20.6794   19.5109 N   0  0  0  0  0  0  0  0  0  0  0  0
  -23.8070  -30.9823   23.6902 N   0  0  0  0  0  0  0  0  0  0  0  0
  -20.4948  -27.4303   18.9075 N   0  0  0  0  0  0  0  0  0  0  0  0
  -29.8065  -24.5182   16.5844 N   0  0  0  0  0  0  0  0  0  0  0  0
  -21.2058  -27.3939   15.3634 N   0  3  0  0  0  0  0  0  0  0  0  0
  -28.6769  -14.4547   23.6616 O   0  0  0  0  0  0  0  0  0  0  0  0
  -23.3098  -28.7312   23.3621 O   0  0  0  0  0  0  0  0  0  0  0  0
  -20.5877  -29.5097   20.8763 O   0  0  0  0  0  0  0  0  0  0  0  0
  -28.1942  -26.0653   17.2042 O   0  0  0  0  0  0  0  0  0  0  0  0
  -22.1592  -26.2866   17.7678 O   0  0  0  0  0  0  0  0  0  0  0  0
  -27.2067  -22.1576   18.7253 O   0  0  0  0  0  0  0  0  0  0  0  0
  -23.8968   -9.6020   19.8948 O   0  0  0  0  0  0  0  0  0  0  0  0
  -28.6053  -26.9540   19.8545 O   0  0  0  0  0  0  0  0  0  1  0  0
  -22.7954   -6.1833   24.0784 F   0  0  0  0  0  0  0  0  0  0  0  0
  -21.3311   -8.6663   20.3240 F   0  0  0  0  0  0  0  0  0  0  0  0
  -31.3324  -19.5497   20.8019 Cl  0  0  0  0  0  0  0  0  0  0  0  0
  1  2  1  0  0  0  0
  1  5  2  0  0  0  0
  2  6  2  0  0  0  0
  3  8  2  0  0  0  0
  3 17  1  0  0  0  0
  4  9  1  0  0  0  0
  4 17  2  0  0  0  0
  5 19  1  0  0  0  0
  6 21  1  0  0  0  0
  7 10  2  0  0  0  0
  7 20  1  0  0  0  0
  8 26  1  0  0  0  0
  9 26  2  0  0  0  0
 10 27  1  0  0  0  0
 11 12  2  0  0  0  0
 11 28  1  0  0  0  0
 12 29  1  0  0  0  0
 13 22  1  0  0  0  0
 13 27  2  0  0  0  0
 14 23  1  0  0  0  0
 14 25  2  0  0  0  0
 15 24  1  0  0  0  0
 15 31  2  0  0  0  0
 16 29  2  0  0  0  0
 16 30  1  0  0  0  0
 17 32  1  0  0  0  0
 18 32  1  0  0  0  0
 18 33  2  0  0  0  0
 18 34  1  0  0  0  0
 19 21  2  0  0  0  0
 19 40  1  0  0  0  0
 20 22  2  0  0  0  0
 20 41  1  0  0  0  0
 21 53  1  0  0  0  0
 22 42  1  0  0  0  0
 23 24  2  0  0  0  0
 23 62  1  0  0  0  0
 24 71  1  0  0  0  0
 25 31  1  0  0  0  0
 25 76  1  0  0  0  0
 26 87  1  0  0  0  0
 27 88  1  0  0  0  0
 28 30  2  0  0  0  0
 28 87  1  0  0  0  0
 29 89  1  0  0  0  0
 30 90  1  0  0  0  0
 31 91  1  0  0  0  0
 32 69  2  0  0  0  0
 33 70  1  0  0  0  0
 33 74  1  0  0  0  0
 34 75  1  0  0  0  0
 34 81  2  0  0  0  0
 35 54  1  0  0  0  0
 35 77  1  0  0  0  0
 35 82  2  0  0  0  0
 36 66  1  0  0  0  0
 36 72  1  0  0  0  0
 36 83  2  0  0  0  0
 37 63  1  0  0  0  0
 37 79  1  0  0  0  0
 37 84  2  0  0  0  0
 38 67  1  0  0  0  0
 38 78  1  0  0  0  0
 38 85  2  0  0  0  0
 39 73  1  0  0  0  0
 39 76  1  0  0  0  0
 39 86  2  0  0  0  0
 40 43  1  0  0  0  0
 41 54  1  0  0  0  0
 42 72  1  0  0  0  0
 43 47  1  0  0  0  0
 44 45  1  0  0  0  0
 44 49  1  0  0  0  0
 45 50  1  0  0  0  0
 46 48  1  0  0  0  0
 46 51  1  0  0  0  0
 47 53  1  0  0  0  0
 48 55  1  0  0  0  0
 49 71  1  0  0  0  0
 50 71  1  0  0  0  0
 51 73  1  0  0  0  0
 52 55  1  0  0  0  0
 52 73  1  0  0  0  0
 53 77  1  0  0  0  0
 54 72  1  0  0  0  0
 55 70  1  0  0  0  0
 56 64  1  0  0  0  0
 57 67  1  0  0  0  0
 58 68  1  0  0  0  0
 59 68  1  0  0  0  0
 60 68  1  0  0  0  0
 61 80  1  0  0  0  0
 62 79  1  0  0  0  0
 63 65  1  0  0  0  0
 64 79  1  0  0  0  0
 65 88  1  0  0  0  0
 66 68  1  0  0  0  0
 66 78  1  0  0  0  0
 67 80  1  0  0  0  0
 69 70  1  0  0  0  0
M  CHG  1  80   1
M  ISO  4  39 100  65 101  76 100  88 101
M  END
> <Batch ID>
0025

> <Smiles>
CCN(Cc1cc([100NH:0][100C:0](=O)N2CCCC(n3nc(-c4ccc(Oc5ccc(F)cc5F)cc4)c(C(N)=O)c3N)C2)c(Cl)cc1N1CCCC1)C(=O)C[101CH2:1][101O:1]c1ccc2c(c1)CN(C(=O)C(NC(=O)C(C)NC)C(C)(C)C)C(C(=O)NC1CCCc3ccccc31)C2

> <Shape>
0.281

> <Color>
0.082

> <Negative vol penalty>
0.000

$$$$

  -OEChem-04042321223D

 86 95  0     1  0  0  0  0  0999 V2000
  -24.0451  -28.1933   17.5625 C   0  0  0  0  0  0  0  0  0  0  0  0
  -24.7971  -27.0644   17.2535 C   0  0  0  0  0  0  0  0  0  0  0  0
  -23.2429  -10.0754   22.1387 C   0  0  0  0  0  0  0  0  0  0  0  0
  -23.6193   -9.4240   19.8429 C   0  0  0  0  0  0  0  0  0  0  0  0
  -24.4307  -29.0190   18.6177 C   0  0  0  0  0  0  0  0  0  0  0  0
  -25.9360  -26.7612   17.9988 C   0  0  0  0  0  0  0  0  0  0  0  0
  -29.7141  -21.1665   20.3949 C   0  0  0  0  0  0  0  0  0  0  0  0
  -22.5355   -8.8935   22.3582 C   0  0  0  0  0  0  0  0  0  0  0  0
  -22.9120   -8.2419   20.0623 C   0  0  0  0  0  0  0  0  0  0  0  0
  -31.0181  -20.6735   20.4076 C   0  0  0  0  0  0  0  0  0  0  0  0
  -23.2426   -5.6363   22.9269 C   0  0  0  0  0  0  0  0  0  0  0  0
  -23.5196   -4.9219   24.0925 C   0  0  0  0  0  0  0  0  0  0  0  0
  -31.5439  -22.1287   22.2583 C   0  0  0  0  0  0  0  0  0  0  0  0
  -31.7434  -16.7648   22.7116 C   0  0  0  0  0  0  0  0  0  0  0  0
  -30.1005  -18.4548   24.2041 C   0  0  0  0  0  0  0  0  0  0  0  0
  -21.2186   -5.1643   24.7879 C   0  0  0  0  0  0  0  0  0  0  0  0
  -23.7847  -10.3407   20.8811 C   0  0  0  0  0  0  0  0  0  0  0  0
  -24.0347  -12.8779   20.7912 C   0  0  0  0  0  0  0  0  0  0  0  0
  -25.5695  -28.7205   19.3824 C   0  0  0  0  0  0  0  0  0  0  0  0
  -29.3175  -22.1539   21.3083 C   0  0  0  0  0  0  0  0  0  0  0  0
  -26.3380  -27.5845   19.0643 C   0  0  0  0  0  0  0  0  0  0  0  0
  -30.2335  -22.6308   22.2568 C   0  0  0  0  0  0  0  0  0  0  0  0
  -32.3057  -17.6530   23.6283 C   0  0  0  0  0  0  0  0  0  0  0  0
  -31.4843  -18.4980   24.3746 C   0  0  0  0  0  0  0  0  0  0  0  0
  -30.3596  -16.7216   22.5411 C   0  0  0  0  0  0  0  0  0  0  0  0
  -22.3700   -7.9767   21.3200 C   0  0  0  0  0  0  0  0  0  0  0  0
  -31.9341  -21.1566   21.3375 C   0  0  0  0  0  0  0  0  0  0  0  0
  -21.9536   -6.1148   22.6918 C   0  0  0  0  0  0  0  0  0  0  0  0
  -22.5076   -4.6859   25.0229 C   0  0  0  0  0  0  0  0  0  0  0  0
  -20.9416   -5.8787   23.6223 C   0  0  0  0  0  0  0  0  0  0  0  0
  -29.5382  -17.5665   23.2874 C   0  0  0  0  0  0  0  0  0  0  0  0
  -24.5151  -11.5618   20.6536 C   0  0  0  0  0  0  0  0  0  0  0  0
  -25.1070  -13.6709   20.4631 C   0  0  0  0  0  0  0  0  0  0  0  0
  -22.7353  -13.3421   21.1809 C   0  0  0  0  0  0  0  0  0  0  0  0
  -28.2574  -25.1405   21.0632 C   0  0  0  0  0  0  0  0  0  0  0  0
  -27.8510  -24.8459   24.2680 C   0  0  0  0  0  0  0  0  0  0  0  0
  -28.7426  -23.2878   27.1704 C   0  0  0  0  0  0  0  0  0  0  0  0
  -30.5238  -14.9177   20.7902 C   0  0  0  0  0  0  0  0  0  0  0  0
  -25.9735  -29.6688   20.4834 C   0  0  0  0  0  0  0  0  0  0  0  0
  -27.8997  -22.6560   21.2989 C   0  0  0  0  0  0  0  0  0  0  0  0
  -29.8521  -23.6759   23.2719 C   0  0  0  0  0  0  0  0  0  0  0  0
  -26.9820  -29.0719   21.4617 C   0  0  0  0  0  0  0  0  0  0  0  0
  -29.5625  -12.4863   18.3733 C   0  0  0  0  0  0  0  0  0  0  0  0
  -36.7540  -19.1400   22.5659 C   0  0  0  0  0  0  0  0  0  0  0  0
  -28.1069  -28.3705   20.7072 C   0  0  0  0  0  0  0  0  0  0  0  0
  -28.1242  -12.1373   18.7624 C   0  0  0  0  0  0  0  0  0  0  0  0
  -35.8980  -19.4992   21.3675 C   0  0  0  0  0  0  0  0  0  0  0  0
  -30.4369  -12.7378   19.6005 C   0  0  0  0  0  0  0  0  0  0  0  0
  -28.4689  -13.3778   20.9372 C   0  0  0  0  0  0  0  0  0  0  0  0
  -35.7913  -19.2314   23.7342 C   0  0  0  0  0  0  0  0  0  0  0  0
  -27.5658  -27.2086   19.8652 C   0  0  1  0  0  0  0  0  0  0  0  0
  -27.7489  -24.0318   21.9407 C   0  0  1  0  0  0  0  0  0  0  0  0
  -27.5342  -13.1794   19.7328 C   0  0  2  0  0  0  0  0  0  0  0  0
  -34.6032  -18.7495   21.6435 C   0  0  2  0  0  0  0  0  0  0  0  0
  -32.0637  -19.4575   25.3617 C   0  0  0  0  0  0  0  0  0  0  0  0
  -28.2644  -23.2883   29.6338 C   0  0  0  0  0  0  0  0  0  0  0  0
  -29.4997  -27.3937   24.5851 C   0  0  0  0  0  0  0  0  0  0  0  0
  -29.7891  -26.8221   27.0053 C   0  0  0  0  0  0  0  0  0  0  0  0
  -27.5077  -27.2461   26.0900 C   0  0  0  0  0  0  0  0  0  0  0  0
  -27.8029  -20.4821   27.1062 C   0  0  0  0  0  0  0  0  0  0  0  0
  -33.7968  -17.6839   23.7916 C   0  0  0  0  0  0  0  0  0  0  0  0
  -33.3994  -19.3297   20.9242 C   0  0  0  0  0  0  0  0  0  1  0  0
  -28.7087  -25.1058   25.4828 C   0  0  1  0  0  0  0  0  0  0  0  0
  -27.9096  -22.6815   28.2852 C   0  0  2  0  0  0  0  0  0  0  0  0
  -28.8843  -26.6236   25.7705 C   0  0  0  0  0  0  0  0  0  0  0  0
  -25.7931  -11.5170   20.2680 N   0  0  0  0  0  0  0  0  0  0  0  0
  -26.1248  -12.8149   20.1603 N   0  0  0  0  0  0  0  0  0  0  0  0
  -28.4559  -24.1401   23.2184 N   0  0  0  0  0  0  0  0  0  0  0  0
  -29.8171  -13.7388   20.4715 N   0  0  0  0  0  0  0  0  0  0  0  0
  -25.2692  -15.0099   20.4068 N   0  0  0  0  0  0  0  0  0  0  0  0
  -21.7737  -13.5517   20.1830 N   0  0  0  0  0  0  0  0  0  0  0  0
  -29.8212  -15.8103   21.5990 N   0  0  0  0  0  0  0  0  0  0  0  0
  -27.2919  -26.0614   20.7038 N   0  0  0  0  0  0  0  0  0  0  0  0
  -28.1031  -24.3561   26.5780 N   0  0  0  0  0  0  0  0  0  0  0  0
  -34.4329  -18.8798   23.1510 N   0  3  1  0  0  0  0  0  0  0  0  0
  -28.1342  -21.2101   28.3582 N   0  3  0  0  0  0  0  0  0  0  0  0
  -22.4410  -13.5800   22.3768 O   0  0  0  0  0  0  0  0  0  0  0  0
  -29.4386  -25.1598   20.7376 O   0  0  0  0  0  0  0  0  0  0  0  0
  -26.6849  -25.2480   24.2538 O   0  0  0  0  0  0  0  0  0  0  0  0
  -29.8515  -22.8590   26.8588 O   0  0  0  0  0  0  0  0  0  0  0  0
  -31.6575  -15.1327   20.3539 O   0  0  0  0  0  0  0  0  0  0  0  0
  -21.6801   -6.8231   21.5338 O   0  0  0  0  0  0  0  0  0  0  0  0
  -33.2077  -20.6776   21.3516 O   0  0  0  0  0  0  0  0  0  1  0  0
  -22.7734   -3.9985   26.1415 F   0  0  0  0  0  0  0  0  0  0  0  0
  -19.7011   -6.3349   23.4014 F   0  0  0  0  0  0  0  0  0  0  0  0
  -27.8198  -17.5453   23.1081 Cl  0  0  0  0  0  0  0  0  0  0  0  0
  1  2  1  0  0  0  0
  1  5  2  0  0  0  0
  2  6  2  0  0  0  0
  3  8  2  0  0  0  0
  3 17  1  0  0  0  0
  4  9  1  0  0  0  0
  4 17  2  0  0  0  0
  5 19  1  0  0  0  0
  6 21  1  0  0  0  0
  7 10  2  0  0  0  0
  7 20  1  0  0  0  0
  8 26  1  0  0  0  0
  9 26  2  0  0  0  0
 10 27  1  0  0  0  0
 11 12  2  0  0  0  0
 11 28  1  0  0  0  0
 12 29  1  0  0  0  0
 13 22  1  0  0  0  0
 13 27  2  0  0  0  0
 14 23  1  0  0  0  0
 14 25  2  0  0  0  0
 15 24  1  0  0  0  0
 15 31  2  0  0  0  0
 16 29  2  0  0  0  0
 16 30  1  0  0  0  0
 17 32  1  0  0  0  0
 18 32  1  0  0  0  0
 18 33  2  0  0  0  0
 18 34  1  0  0  0  0
 19 21  2  0  0  0  0
 19 39  1  0  0  0  0
 20 22  2  0  0  0  0
 20 40  1  0  0  0  0
 21 51  1  0  0  0  0
 22 41  1  0  0  0  0
 23 24  2  0  0  0  0
 23 61  1  0  0  0  0
 24 55  1  0  0  0  0
 25 31  1  0  0  0  0
 25 72  1  0  0  0  0
 26 82  1  0  0  0  0
 27 83  1  0  0  0  0
 28 30  2  0  0  0  0
 28 82  1  0  0  0  0
 29 84  1  0  0  0  0
 30 85  1  0  0  0  0
 31 86  1  0  0  0  0
 32 66  2  0  0  0  0
 33 67  1  0  0  0  0
 33 70  1  0  0  0  0
 34 71  1  0  0  0  0
 34 77  2  0  0  0  0
 35 52  1  0  0  0  0
 35 73  1  0  0  0  0
 35 78  2  0  0  0  0
 36 63  1  0  0  0  0
 36 68  1  0  0  0  0
 36 79  2  0  0  0  0
 37 64  1  0  0  0  0
 37 74  1  0  0  0  0
 37 80  2  0  0  0  0
 38 69  1  0  0  0  0
 38 72  1  0  0  0  0
 38 81  2  0  0  0  0
 39 42  1  0  0  0  0
 40 52  1  0  0  0  0
 41 68  1  0  0  0  0
 42 45  1  0  0  0  0
 43 46  1  0  0  0  0
 43 48  1  0  0  0  0
 44 47  1  0  0  0  0
 44 50  1  0  0  0  0
 45 51  1  0  0  0  0
 46 53  1  0  0  0  0
 47 54  1  0  0  0  0
 48 69  1  0  0  0  0
 49 53  1  0  0  0  0
 49 69  1  0  0  0  0
 50 75  1  0  0  0  0
 51 73  1  0  0  0  0
 52 68  1  0  0  0  0
 53 67  1  0  0  0  0
 54 62  1  0  0  0  0
 54 75  1  0  0  0  0
 56 64  1  0  0  0  0
 57 65  1  0  0  0  0
 58 65  1  0  0  0  0
 59 65  1  0  0  0  0
 60 76  1  0  0  0  0
 61 75  1  0  0  0  0
 62 83  1  0  0  0  0
 63 65  1  0  0  0  0
 63 74  1  0  0  0  0
 64 76  1  0  0  0  0
 66 67  1  0  0  0  0
M  CHG  2  75   1  76   1
M  ISO  4  38 100  62 101  72 100  83 101
M  END
> <Batch ID>
0025

> <Smiles>
CNC(C)C(=O)NC(C(=O)N1Cc2cc([101O:1][101CH2:1]C3CCCN3Cc3cc([100NH:0][100C:0](=O)N4CCCC(n5nc(-c6ccc(Oc7ccc(F)cc7F)cc6)c(C(N)=O)c5N)C4)c(Cl)cc3C)ccc2CC1C(=O)NC1CCCc2ccccc21)C(C)(C)C

> <Shape>
0.240

> <Color>
0.179

> <Negative vol penalty>
0.000

$$$$

  -OEChem-04042321223D

 85 94  0     1  0  0  0  0  0999 V2000
  -20.6196  -28.3225   30.0941 C   0  0  0  0  0  0  0  0  0  0  0  0
  -21.7274  -28.7616   29.3761 C   0  0  0  0  0  0  0  0  0  0  0  0
  -26.7029  -12.6923   21.7345 C   0  0  0  0  0  0  0  0  0  0  0  0
  -26.1139  -14.0728   19.8412 C   0  0  0  0  0  0  0  0  0  0  0  0
  -19.7242  -27.4257   29.5129 C   0  0  0  0  0  0  0  0  0  0  0  0
  -21.9409  -28.3031   28.0766 C   0  0  0  0  0  0  0  0  0  0  0  0
  -24.6164  -30.4215   21.7781 C   0  0  0  0  0  0  0  0  0  0  0  0
  -29.2924  -23.9252   20.3866 C   0  0  0  0  0  0  0  0  0  0  0  0
  -29.7892  -22.7381   20.9248 C   0  0  0  0  0  0  0  0  0  0  0  0
  -25.3997  -12.1969   21.7786 C   0  0  0  0  0  0  0  0  0  0  0  0
  -24.8108  -13.5773   19.8853 C   0  0  0  0  0  0  0  0  0  0  0  0
  -25.5301  -30.0178   20.8055 C   0  0  0  0  0  0  0  0  0  0  0  0
  -23.5469   -9.9092   20.1153 C   0  0  0  0  0  0  0  0  0  0  0  0
  -23.3815   -8.5336   20.2762 C   0  0  0  0  0  0  0  0  0  0  0  0
  -23.8738  -28.5311   19.8751 C   0  0  0  0  0  0  0  0  0  0  0  0
  -22.1575   -8.9203   22.3231 C   0  0  0  0  0  0  0  0  0  0  0  0
  -27.0600  -13.6303   20.7658 C   0  0  0  0  0  0  0  0  0  0  0  0
  -29.4923  -13.6152   19.9971 C   0  0  0  0  0  0  0  0  0  0  0  0
  -19.9217  -26.9635   28.2022 C   0  0  0  0  0  0  0  0  0  0  0  0
  -23.3259  -29.8740   21.8132 C   0  0  0  0  0  0  0  0  0  0  0  0
  -21.0480  -27.3982   27.4777 C   0  0  0  0  0  0  0  0  0  0  0  0
  -22.9448  -28.9314   20.8477 C   0  0  0  0  0  0  0  0  0  0  0  0
  -28.7296  -23.9305   19.1103 C   0  0  0  0  0  0  0  0  0  0  0  0
  -29.7233  -21.5564   20.1867 C   0  0  0  0  0  0  0  0  0  0  0  0
  -24.4537  -12.6393   20.8540 C   0  0  0  0  0  0  0  0  0  0  0  0
  -25.1598  -29.0704   19.8556 C   0  0  0  0  0  0  0  0  0  0  0  0
  -23.0177  -10.7904   21.0583 C   0  0  0  0  0  0  0  0  0  0  0  0
  -22.6868   -8.0391   21.3801 C   0  0  0  0  0  0  0  0  0  0  0  0
  -22.3230  -10.2959   22.1621 C   0  0  0  0  0  0  0  0  0  0  0  0
  -29.1606  -21.5617   18.9103 C   0  0  0  0  0  0  0  0  0  0  0  0
  -28.6638  -22.7488   18.3721 C   0  0  0  0  0  0  0  0  0  0  0  0
  -28.4058  -14.1429   20.7201 C   0  0  0  0  0  0  0  0  0  0  0  0
  -30.5381  -14.4578   20.2851 C   0  0  0  0  0  0  0  0  0  0  0  0
  -28.2114  -26.3700   19.1349 C   0  0  0  0  0  0  0  0  0  0  0  0
  -29.5511  -12.4662   19.1416 C   0  0  0  0  0  0  0  0  0  0  0  0
  -21.6757  -28.1533   23.9156 C   0  0  0  0  0  0  0  0  0  0  0  0
  -19.2556  -28.6129   21.8051 C   0  0  0  0  0  0  0  0  0  0  0  0
  -18.2949  -29.2856   18.6002 C   0  0  0  0  0  0  0  0  0  0  0  0
  -30.8213  -20.1786   21.9873 C   0  0  0  0  0  0  0  0  0  0  0  0
  -18.9522  -25.9580   27.6332 C   0  0  0  0  0  0  0  0  0  0  0  0
  -22.3433  -30.3397   22.8526 C   0  0  0  0  0  0  0  0  0  0  0  0
  -21.5648  -28.3282   20.8296 C   0  0  0  0  0  0  0  0  0  0  0  0
  -19.0477  -25.8102   26.1169 C   0  0  0  0  0  0  0  0  0  0  0  0
  -32.1620  -17.3723   23.7207 C   0  0  0  0  0  0  0  0  0  0  0  0
  -20.5049  -25.6862   25.6833 C   0  0  0  0  0  0  0  0  0  0  0  0
  -31.4543  -16.1772   23.0779 C   0  0  0  0  0  0  0  0  0  0  0  0
  -31.2355  -18.5805   23.8447 C   0  0  0  0  0  0  0  0  0  0  0  0
  -27.3796  -25.3900   17.4718 C   0  0  0  0  0  0  0  0  0  0  0  0
  -29.8658  -17.7908   21.9554 C   0  0  0  0  0  0  0  0  0  0  0  0
  -21.3005  -26.9428   26.0568 C   0  0  1  0  0  0  0  0  0  0  0  0
  -27.2934  -26.8487   17.9887 C   0  0  1  0  0  0  0  0  0  0  0  0
  -21.2228  -29.3363   23.1075 C   0  0  1  0  0  0  0  0  0  0  0  0
  -30.7779  -16.5703   21.7499 C   0  0  2  0  0  0  0  0  0  0  0  0
  -16.2487  -29.5600   17.1735 C   0  0  0  0  0  0  0  0  0  0  0  0
  -18.8718  -25.5860   21.7776 C   0  0  0  0  0  0  0  0  0  0  0  0
  -17.5177  -25.8466   19.6880 C   0  0  0  0  0  0  0  0  0  0  0  0
  -16.7482  -26.9066   21.8110 C   0  0  0  0  0  0  0  0  0  0  0  0
  -18.9930  -32.0833   17.9337 C   0  0  0  0  0  0  0  0  0  0  0  0
  -25.9232  -27.3411   18.4124 C   0  0  0  0  0  0  0  0  0  1  0  0
  -18.7401  -27.8760   20.5925 C   0  0  1  0  0  0  0  0  0  0  0  0
  -17.2823  -30.2664   18.0370 C   0  0  2  0  0  0  0  0  0  0  0  0
  -17.9962  -26.5636   20.9685 C   0  0  0  0  0  0  0  0  0  0  0  0
  -28.7312  -15.2360   21.4152 N   0  0  0  0  0  0  0  0  0  0  0  0
  -30.0340  -15.4020   21.1304 N   0  0  0  0  0  0  0  0  0  0  0  0
  -28.2509  -25.1190   18.6081 N   0  0  0  0  0  0  0  0  0  0  0  0
  -20.6420  -28.8111   21.8702 N   0  0  0  0  0  0  0  0  0  0  0  0
  -30.6342  -18.8971   22.5473 N   0  0  0  0  0  0  0  0  0  0  0  0
  -31.8304  -14.4757   19.8952 N   0  0  0  0  0  0  0  0  0  0  0  0
  -28.3848  -11.7116   18.9552 N   0  0  0  0  0  0  0  0  0  0  0  0
  -30.2307  -20.3529   20.7362 N   0  0  0  0  0  0  0  0  0  0  0  0
  -21.0209  -28.0137   25.1244 N   0  0  0  0  0  0  0  0  0  0  0  0
  -17.9266  -28.8321   19.8492 N   0  0  0  0  0  0  0  0  0  0  0  0
  -17.9660  -31.2958   17.2042 N   0  3  0  0  0  0  0  0  0  0  0  0
  -28.6881  -26.8611   20.1326 O   0  0  0  0  0  0  0  0  0  0  0  0
  -30.6106  -12.1093   18.5727 O   0  0  0  0  0  0  0  0  0  0  0  0
  -22.5532  -27.4205   23.4744 O   0  0  0  0  0  0  0  0  0  0  0  0
  -18.4567  -29.0046   22.6595 O   0  0  0  0  0  0  0  0  0  0  0  0
  -19.3091  -28.9521   17.9914 O   0  0  0  0  0  0  0  0  0  0  0  0
  -31.4815  -21.0479   22.5621 O   0  0  0  0  0  0  0  0  0  0  0  0
  -23.1821  -12.1559   20.8967 O   0  0  0  0  0  0  0  0  0  0  0  0
  -26.0499  -28.6742   18.9055 O   0  0  0  0  0  0  0  0  0  1  0  0
  -22.5267   -6.7182   21.5337 F   0  0  0  0  0  0  0  0  0  0  0  0
  -21.8113  -11.1376   23.0707 F   0  0  0  0  0  0  0  0  0  0  0  0
  -29.1015  -20.4215   18.2048 F   0  0  0  0  0  0  0  0  0  0  0  0
  -27.9815  -22.7207   16.7843 Cl  0  0  0  0  0  0  0  0  0  0  0  0
  1  2  1  0  0  0  0
  1  5  2  0  0  0  0
  2  6  2  0  0  0  0
  3 10  2  0  0  0  0
  3 17  1  0  0  0  0
  4 11  1  0  0  0  0
  4 17  2  0  0  0  0
  5 19  1  0  0  0  0
  6 21  1  0  0  0  0
  7 12  2  0  0  0  0
  7 20  1  0  0  0  0
  8  9  2  0  0  0  0
  8 23  1  0  0  0  0
  9 24  1  0  0  0  0
 10 25  1  0  0  0  0
 11 25  2  0  0  0  0
 12 26  1  0  0  0  0
 13 14  2  0  0  0  0
 13 27  1  0  0  0  0
 14 28  1  0  0  0  0
 15 22  1  0  0  0  0
 15 26  2  0  0  0  0
 16 28  2  0  0  0  0
 16 29  1  0  0  0  0
 17 32  1  0  0  0  0
 18 32  1  0  0  0  0
 18 33  2  0  0  0  0
 18 35  1  0  0  0  0
 19 21  2  0  0  0  0
 19 40  1  0  0  0  0
 20 22  2  0  0  0  0
 20 41  1  0  0  0  0
 21 50  1  0  0  0  0
 22 42  1  0  0  0  0
 23 31  2  0  0  0  0
 23 65  1  0  0  0  0
 24 30  2  0  0  0  0
 24 70  1  0  0  0  0
 25 80  1  0  0  0  0
 26 81  1  0  0  0  0
 27 29  2  0  0  0  0
 27 80  1  0  0  0  0
 28 82  1  0  0  0  0
 29 83  1  0  0  0  0
 30 31  1  0  0  0  0
 30 84  1  0  0  0  0
 31 85  1  0  0  0  0
 32 63  2  0  0  0  0
 33 64  1  0  0  0  0
 33 68  1  0  0  0  0
 34 51  1  0  0  0  0
 34 65  1  0  0  0  0
 34 74  2  0  0  0  0
 35 69  1  0  0  0  0
 35 75  2  0  0  0  0
 36 52  1  0  0  0  0
 36 71  1  0  0  0  0
 36 76  2  0  0  0  0
 37 60  1  0  0  0  0
 37 66  1  0  0  0  0
 37 77  2  0  0  0  0
 38 61  1  0  0  0  0
 38 72  1  0  0  0  0
 38 78  2  0  0  0  0
 39 67  1  0  0  0  0
 39 70  1  0  0  0  0
 39 79  2  0  0  0  0
 40 43  1  0  0  0  0
 41 52  1  0  0  0  0
 42 66  1  0  0  0  0
 43 45  1  0  0  0  0
 44 46  1  0  0  0  0
 44 47  1  0  0  0  0
 45 50  1  0  0  0  0
 46 53  1  0  0  0  0
 47 67  1  0  0  0  0
 48 51  1  0  0  0  0
 48 65  1  0  0  0  0
 49 53  1  0  0  0  0
 49 67  1  0  0  0  0
 50 71  1  0  0  0  0
 51 59  1  0  0  0  0
 52 66  1  0  0  0  0
 53 64  1  0  0  0  0
 54 61  1  0  0  0  0
 55 62  1  0  0  0  0
 56 62  1  0  0  0  0
 57 62  1  0  0  0  0
 58 73  1  0  0  0  0
 59 81  1  0  0  0  0
 60 62  1  0  0  0  0
 60 72  1  0  0  0  0
 61 73  1  0  0  0  0
 63 64  1  0  0  0  0
M  CHG  1  73   1
M  ISO  4  39 100  59 101  70 100  81 101
M  END
> <Batch ID>
0025

> <Smiles>
CNC(C)C(=O)NC(C(=O)N1Cc2cc([101O:1][101CH2:1]C3CN(c4ccc([100NH:0][100C:0](=O)N5CCCC(n6nc(-c7ccc(Oc8ccc(F)cc8F)cc7)c(C(N)=O)c6N)C5)c(F)c4Cl)C3=O)ccc2CC1C(=O)NC1CCCc2ccccc21)C(C)(C)C

> <Shape>
0.295

> <Color>
0.074

> <Negative vol penalty>
0.000

$$$$

  -OEChem-04042321223D

 84 93  0     1  0  0  0  0  0999 V2000
  -17.2335  -30.9334   24.3553 C   0  0  0  0  0  0  0  0  0  0  0  0
  -18.5400  -31.2934   24.6695 C   0  0  0  0  0  0  0  0  0  0  0  0
  -24.6429  -14.1166   19.9132 C   0  0  0  0  0  0  0  0  0  0  0  0
  -26.2429  -14.2985   21.7143 C   0  0  0  0  0  0  0  0  0  0  0  0
  -16.9843  -29.7424   23.6746 C   0  0  0  0  0  0  0  0  0  0  0  0
  -19.5982  -30.4620   24.3041 C   0  0  0  0  0  0  0  0  0  0  0  0
  -26.4583  -30.7286   22.2586 C   0  0  0  0  0  0  0  0  0  0  0  0
  -30.0640  -25.3431   22.4915 C   0  0  0  0  0  0  0  0  0  0  0  0
  -29.6016  -24.3813   21.5933 C   0  0  0  0  0  0  0  0  0  0  0  0
  -24.7139  -12.7257   19.9906 C   0  0  0  0  0  0  0  0  0  0  0  0
  -26.3139  -12.9076   21.7917 C   0  0  0  0  0  0  0  0  0  0  0  0
  -27.7016  -30.1896   22.5862 C   0  0  0  0  0  0  0  0  0  0  0  0
  -23.4614  -10.2728   21.9520 C   0  0  0  0  0  0  0  0  0  0  0  0
  -22.2631   -9.5597   21.9192 C   0  0  0  0  0  0  0  0  0  0  0  0
  -27.1577  -28.1951   21.3431 C   0  0  0  0  0  0  0  0  0  0  0  0
  -28.2698  -24.7867   24.0108 C   0  0  0  0  0  0  0  0  0  0  0  0
  -23.0006   -8.4124   19.9249 C   0  0  0  0  0  0  0  0  0  0  0  0
  -25.4074  -14.9030   20.7750 C   0  0  0  0  0  0  0  0  0  0  0  0
  -24.4531  -17.1866   21.3933 C   0  0  0  0  0  0  0  0  0  0  0  0
  -18.0407  -28.9007   23.2921 C   0  0  0  0  0  0  0  0  0  0  0  0
  -25.5494  -29.9992   21.4786 C   0  0  0  0  0  0  0  0  0  0  0  0
  -19.3628  -29.2580   23.6187 C   0  0  0  0  0  0  0  0  0  0  0  0
  -25.9045  -28.7281   21.0049 C   0  0  0  0  0  0  0  0  0  0  0  0
  -27.8074  -23.8250   23.1126 C   0  0  0  0  0  0  0  0  0  0  0  0
  -29.3981  -25.5458   23.7003 C   0  0  0  0  0  0  0  0  0  0  0  0
  -28.4733  -23.6223   21.9038 C   0  0  0  0  0  0  0  0  0  0  0  0
  -25.5494  -12.1212   20.9298 C   0  0  0  0  0  0  0  0  0  0  0  0
  -28.0503  -28.9214   22.1309 C   0  0  0  0  0  0  0  0  0  0  0  0
  -24.4293  -10.0558   20.9713 C   0  0  0  0  0  0  0  0  0  0  0  0
  -22.0327   -8.6295   20.9056 C   0  0  0  0  0  0  0  0  0  0  0  0
  -24.1989   -9.1256   19.9577 C   0  0  0  0  0  0  0  0  0  0  0  0
  -25.3349  -16.3398   20.6952 C   0  0  0  0  0  0  0  0  0  0  0  0
  -24.7852  -18.4509   20.9716 C   0  0  0  0  0  0  0  0  0  0  0  0
  -23.4257  -16.8596   22.3384 C   0  0  0  0  0  0  0  0  0  0  0  0
  -22.6263  -28.8381   21.9377 C   0  0  0  0  0  0  0  0  0  0  0  0
  -22.8529  -28.0862   18.7904 C   0  0  0  0  0  0  0  0  0  0  0  0
  -24.8543  -27.4213   16.1072 C   0  0  0  0  0  0  0  0  0  0  0  0
  -28.5800  -22.3352   19.7408 C   0  0  0  0  0  0  0  0  0  0  0  0
  -17.7184  -27.6003   22.5994 C   0  0  0  0  0  0  0  0  0  0  0  0
  -24.2228  -30.6058   21.1116 C   0  0  0  0  0  0  0  0  0  0  0  0
  -24.9726  -27.9126   20.1475 C   0  0  0  0  0  0  0  0  0  0  0  0
  -18.9240  -26.9582   21.9177 C   0  0  0  0  0  0  0  0  0  0  0  0
  -27.7834  -19.9810   17.1912 C   0  0  0  0  0  0  0  0  0  0  0  0
  -30.3113  -27.6483   26.6094 C   0  0  0  0  0  0  0  0  0  0  0  0
  -20.1302  -26.9628   22.8514 C   0  0  0  0  0  0  0  0  0  0  0  0
  -27.0028  -18.8935   17.9330 C   0  0  0  0  0  0  0  0  0  0  0  0
  -31.3537  -28.0287   25.5699 C   0  0  0  0  0  0  0  0  0  0  0  0
  -29.6869  -26.3784   26.0399 C   0  0  0  0  0  0  0  0  0  0  0  0
  -28.9151  -20.5495   18.0455 C   0  0  0  0  0  0  0  0  0  0  0  0
  -27.7305  -19.9367   20.1168 C   0  0  0  0  0  0  0  0  0  0  0  0
  -20.5391  -28.3946   23.2175 C   0  0  1  0  0  0  0  0  0  0  0  0
  -23.1718  -29.5641   20.7406 C   0  0  1  0  0  0  0  0  0  0  0  0
  -26.5394  -19.3793   19.3204 C   0  0  2  0  0  0  0  0  0  0  0  0
  -30.6950  -27.6503   24.2358 C   0  0  2  0  0  0  0  0  0  0  0  0
  -26.5972  -23.0253   23.4719 C   0  0  0  0  0  0  0  0  0  0  0  0
  -24.7503  -26.8041   13.6771 C   0  0  0  0  0  0  0  0  0  0  0  0
  -22.1321  -25.2207   19.5515 C   0  0  0  0  0  0  0  0  0  0  0  0
  -22.9618  -24.4893   17.3054 C   0  0  0  0  0  0  0  0  0  0  0  0
  -21.0277  -26.0562   17.4690 C   0  0  0  0  0  0  0  0  0  0  0  0
  -26.2655  -29.8941   15.2994 C   0  0  0  0  0  0  0  0  0  0  0  0
  -29.8405  -28.7942   23.6913 C   0  0  0  0  0  0  0  0  0  1  0  0
  -23.3510  -26.8944   18.0091 C   0  0  1  0  0  0  0  0  0  0  0  0
  -24.8340  -27.9427   14.6817 C   0  0  2  0  0  0  0  0  0  0  0  0
  -22.3851  -25.6795   18.1015 C   0  0  0  0  0  0  0  0  0  0  0  0
  -26.1647  -17.0097   19.8910 N   0  0  0  0  0  0  0  0  0  0  0  0
  -25.8057  -18.2907   20.0811 N   0  0  0  0  0  0  0  0  0  0  0  0
  -29.8568  -26.4984   24.5905 N   0  0  3  0  0  0  0  0  0  0  0  0
  -23.6845  -28.5465   19.8211 N   0  0  0  0  0  0  0  0  0  0  0  0
  -28.4008  -20.9934   19.3429 N   0  0  0  0  0  0  0  0  0  0  0  0
  -24.3009  -19.6728   21.2794 N   0  0  0  0  0  0  0  0  0  0  0  0
  -23.2173  -15.5112   22.6588 N   0  0  0  0  0  0  0  0  0  0  0  0
  -28.0203  -22.6491   20.9789 N   0  0  0  0  0  0  0  0  0  0  0  0
  -21.2680  -29.0065   22.1271 N   0  0  0  0  0  0  0  0  0  0  0  0
  -23.5876  -27.3675   16.6495 N   0  0  0  0  0  0  0  0  0  0  0  0
  -26.0686  -28.7283   14.3999 N   0  3  0  0  0  0  0  0  0  0  0  0
  -22.7027  -17.7358   22.8703 O   0  0  0  0  0  0  0  0  0  0  0  0
  -23.3817  -28.1730   22.6368 O   0  0  0  0  0  0  0  0  0  0  0  0
  -21.7692  -28.5946   18.4924 O   0  0  0  0  0  0  0  0  0  0  0  0
  -25.8897  -27.0910   16.6810 O   0  0  0  0  0  0  0  0  0  0  0  0
  -29.1617  -23.1528   19.0231 O   0  0  0  0  0  0  0  0  0  0  0  0
  -25.6188  -10.7640   21.0057 O   0  0  0  0  0  0  0  0  0  0  0  0
  -29.2630  -28.3927   22.4497 O   0  0  0  0  0  0  0  0  0  1  0  0
  -20.8825   -7.9436   20.8751 F   0  0  0  0  0  0  0  0  0  0  0  0
  -25.1255   -8.9119   19.0135 F   0  0  0  0  0  0  0  0  0  0  0  0
  1  2  1  0  0  0  0
  1  5  2  0  0  0  0
  2  6  2  0  0  0  0
  3 10  2  0  0  0  0
  3 18  1  0  0  0  0
  4 11  1  0  0  0  0
  4 18  2  0  0  0  0
  5 20  1  0  0  0  0
  6 22  1  0  0  0  0
  7 12  2  0  0  0  0
  7 21  1  0  0  0  0
  8  9  2  0  0  0  0
  8 25  1  0  0  0  0
  9 26  1  0  0  0  0
 10 27  1  0  0  0  0
 11 27  2  0  0  0  0
 12 28  1  0  0  0  0
 13 14  2  0  0  0  0
 13 29  1  0  0  0  0
 14 30  1  0  0  0  0
 15 23  1  0  0  0  0
 15 28  2  0  0  0  0
 16 24  1  0  0  0  0
 16 25  2  0  0  0  0
 17 30  2  0  0  0  0
 17 31  1  0  0  0  0
 18 32  1  0  0  0  0
 19 32  1  0  0  0  0
 19 33  2  0  0  0  0
 19 34  1  0  0  0  0
 20 22  2  0  0  0  0
 20 39  1  0  0  0  0
 21 23  2  0  0  0  0
 21 40  1  0  0  0  0
 22 51  1  0  0  0  0
 23 41  1  0  0  0  0
 24 26  2  0  0  0  0
 24 55  1  0  0  0  0
 25 67  1  0  0  0  0
 26 72  1  0  0  0  0
 27 81  1  0  0  0  0
 28 82  1  0  0  0  0
 29 31  2  0  0  0  0
 29 81  1  0  0  0  0
 30 83  1  0  0  0  0
 31 84  1  0  0  0  0
 32 65  2  0  0  0  0
 33 66  1  0  0  0  0
 33 70  1  0  0  0  0
 34 71  1  0  0  0  0
 34 76  2  0  0  0  0
 35 52  1  0  0  0  0
 35 73  1  0  0  0  0
 35 77  2  0  0  0  0
 36 62  1  0  0  0  0
 36 68  1  0  0  0  0
 36 78  2  0  0  0  0
 37 63  1  0  0  0  0
 37 74  1  0  0  0  0
 37 79  2  0  0  0  0
 38 69  1  0  0  0  0
 38 72  1  0  0  0  0
 38 80  2  0  0  0  0
 39 42  1  0  0  0  0
 40 52  1  0  0  0  0
 41 68  1  0  0  0  0
 42 45  1  0  0  0  0
 43 46  1  0  0  0  0
 43 49  1  0  0  0  0
 44 47  1  0  0  0  0
 44 48  1  0  0  0  0
 45 51  1  0  0  0  0
 46 53  1  0  0  0  0
 47 54  1  0  0  0  0
 48 67  1  0  0  0  0
 49 69  1  0  0  0  0
 50 53  1  0  0  0  0
 50 69  1  0  0  0  0
 51 73  1  0  0  0  0
 52 68  1  0  0  0  0
 53 66  1  0  0  0  0
 54 61  1  0  0  0  0
 54 67  1  0  0  0  0
 56 63  1  0  0  0  0
 57 64  1  0  0  0  0
 58 64  1  0  0  0  0
 59 64  1  0  0  0  0
 60 75  1  0  0  0  0
 61 82  1  0  0  0  0
 62 64  1  0  0  0  0
 62 74  1  0  0  0  0
 63 75  1  0  0  0  0
 65 66  1  0  0  0  0
M  CHG  1  75   1
M  ISO  4  38 100  61 101  72 100  82 101
M  END
> <Batch ID>
0025

> <Smiles>
CNC(C)C(=O)NC(C(=O)N1Cc2cc([101O:1][101CH2:1]C3CCCN3c3ccc([100NH:0][100C:0](=O)N4CCCC(n5nc(-c6ccc(Oc7ccc(F)cc7F)cc6)c(C(N)=O)c5N)C4)c(C)c3)ccc2CC1C(=O)NC1CCCc2ccccc21)C(C)(C)C

> <Shape>
0.238

> <Color>
0.110

> <Negative vol penalty>
0.000

$$$$

  -OEChem-04042321223D

 90 99  0     1  0  0  0  0  0999 V2000
  -15.5313  -27.1934   23.4910 C   0  0  0  0  0  0  0  0  0  0  0  0
  -15.8511  -25.8624   23.2433 C   0  0  0  0  0  0  0  0  0  0  0  0
  -28.2657  -10.6469   16.9021 C   0  0  0  0  0  0  0  0  0  0  0  0
  -29.4360  -10.8817   17.6238 C   0  0  0  0  0  0  0  0  0  0  0  0
  -29.7150  -22.4482   18.2944 C   0  0  0  0  0  0  0  0  0  0  0  0
  -29.5962  -22.8245   20.6779 C   0  0  0  0  0  0  0  0  0  0  0  0
  -16.5138  -28.1768   23.3838 C   0  0  0  0  0  0  0  0  0  0  0  0
  -17.1535  -25.5140   22.8870 C   0  0  0  0  0  0  0  0  0  0  0  0
  -20.1314  -20.3770   24.3865 C   0  0  0  0  0  0  0  0  0  0  0  0
  -27.1649  -11.4878   17.0656 C   0  0  0  0  0  0  0  0  0  0  0  0
  -29.5055  -11.9574   18.5091 C   0  0  0  0  0  0  0  0  0  0  0  0
  -30.3424  -23.6832   18.1306 C   0  0  0  0  0  0  0  0  0  0  0  0
  -30.2236  -24.0595   20.5142 C   0  0  0  0  0  0  0  0  0  0  0  0
  -20.3597  -19.1889   23.6937 C   0  0  0  0  0  0  0  0  0  0  0  0
  -33.3644  -25.2121   20.0369 C   0  0  0  0  0  0  0  0  0  0  0  0
  -34.3922  -25.5375   20.9219 C   0  0  0  0  0  0  0  0  0  0  0  0
  -22.5144  -20.0178   22.9942 C   0  0  0  0  0  0  0  0  0  0  0  0
  -33.1493  -27.4762   21.6525 C   0  0  0  0  0  0  0  0  0  0  0  0
  -29.3419  -22.0189   19.5680 C   0  0  0  0  0  0  0  0  0  0  0  0
  -27.4715  -20.3294   19.1742 C   0  0  0  0  0  0  0  0  0  0  0  0
  -17.8311  -27.8392   23.0354 C   0  0  0  0  0  0  0  0  0  0  0  0
  -21.0899  -21.4006   24.3793 C   0  0  0  0  0  0  0  0  0  0  0  0
  -18.1542  -26.4940   22.7737 C   0  0  0  0  0  0  0  0  0  0  0  0
  -22.2970  -21.2170   23.6898 C   0  0  0  0  0  0  0  0  0  0  0  0
  -27.2343  -12.5635   17.9509 C   0  0  0  0  0  0  0  0  0  0  0  0
  -28.4046  -12.7983   18.6727 C   0  0  0  0  0  0  0  0  0  0  0  0
  -30.5967  -24.4888   19.2405 C   0  0  0  0  0  0  0  0  0  0  0  0
  -21.5501  -19.0103   22.9950 C   0  0  0  0  0  0  0  0  0  0  0  0
  -32.2290  -26.0187   19.9597 C   0  0  0  0  0  0  0  0  0  0  0  0
  -34.2847  -26.6695   21.7297 C   0  0  0  0  0  0  0  0  0  0  0  0
  -32.1215  -27.1507   20.7675 C   0  0  0  0  0  0  0  0  0  0  0  0
  -28.6932  -20.7435   19.7378 C   0  0  0  0  0  0  0  0  0  0  0  0
  -27.2969  -19.0479   19.6365 C   0  0  0  0  0  0  0  0  0  0  0  0
  -25.1405  -14.2306   20.2730 C   0  0  0  0  0  0  0  0  0  0  0  0
  -26.5746  -21.0397   18.3099 C   0  0  0  0  0  0  0  0  0  0  0  0
  -21.1491  -24.4111   23.3611 C   0  0  0  0  0  0  0  0  0  0  0  0
  -24.0613  -24.4271   24.7898 C   0  0  0  0  0  0  0  0  0  0  0  0
  -26.7597  -22.6493   25.8874 C   0  0  0  0  0  0  0  0  0  0  0  0
  -22.9098  -17.1407   22.7500 C   0  0  0  0  0  0  0  0  0  1  0  0
  -29.2641  -13.9568   20.7380 C   0  0  0  0  0  0  0  0  0  0  0  0
  -18.8480  -28.9429   22.8858 C   0  0  0  0  0  0  0  0  0  0  0  0
  -20.8399  -22.6656   25.1537 C   0  0  0  0  0  0  0  0  0  0  0  0
  -23.3667  -22.2769   23.6675 C   0  0  0  0  0  0  0  0  0  0  0  0
  -20.2906  -28.4438   22.8689 C   0  0  0  0  0  0  0  0  0  0  0  0
  -25.2074  -11.4436   22.0552 C   0  0  0  0  0  0  0  0  0  0  0  0
  -25.6436  -11.0991   20.6351 C   0  0  0  0  0  0  0  0  0  0  0  0
  -29.7872  -16.4669   23.2084 C   0  0  0  0  0  0  0  0  0  0  0  0
  -20.4299  -27.2453   21.9356 C   0  0  0  0  0  0  0  0  0  0  0  0
  -25.3417  -12.9190   22.4316 C   0  0  0  0  0  0  0  0  0  0  0  0
  -29.4487  -17.7692   22.4793 C   0  0  0  0  0  0  0  0  0  0  0  0
  -24.8459  -11.8308   19.5624 C   0  0  0  0  0  0  0  0  0  0  0  0
  -30.4852  -15.4668   22.2884 C   0  0  0  0  0  0  0  0  0  0  0  0
  -29.4424  -16.4855   20.3024 C   0  0  0  0  0  0  0  0  0  0  0  0
  -19.5614  -26.0735   22.4090 C   0  0  1  0  0  0  0  0  0  0  0  0
  -24.4649  -13.8439   21.5849 C   0  0  1  0  0  0  0  0  0  0  0  0
  -21.6670  -23.8458   24.6534 C   0  0  1  0  0  0  0  0  0  0  0  0
  -28.6799  -17.4992   21.1710 C   0  0  2  0  0  0  0  0  0  0  0  0
  -29.0006  -22.9426   26.9782 C   0  0  0  0  0  0  0  0  0  0  0  0
  -25.2125  -25.4325   22.1490 C   0  0  0  0  0  0  0  0  0  0  0  0
  -27.4882  -24.8034   22.9817 C   0  0  0  0  0  0  0  0  0  0  0  0
  -26.1563  -26.5353   24.1855 C   0  0  0  0  0  0  0  0  0  0  0  0
  -25.9695  -21.0061   28.2186 C   0  0  0  0  0  0  0  0  0  0  0  0
  -26.0340  -13.4518   18.1067 C   0  0  0  0  0  0  0  0  0  0  0  0
  -23.0546  -15.8872   21.9327 C   0  0  0  0  0  0  0  0  0  0  0  0
  -25.4697  -24.1076   24.3500 C   0  0  1  0  0  0  0  0  0  0  0  0
  -27.5194  -22.6800   27.2013 C   0  0  2  0  0  0  0  0  0  0  0  0
  -26.0609  -25.2003   23.4152 C   0  0  0  0  0  0  0  0  0  0  0  0
  -29.2550  -19.8015   20.5000 N   0  0  0  0  0  0  0  0  0  0  0  0
  -28.3822  -18.7828   20.4187 N   0  0  0  0  0  0  0  0  0  0  0  0
  -25.3254  -13.1974   19.3547 N   0  0  0  0  0  0  0  0  0  0  0  0
  -23.0726  -23.4986   24.4347 N   0  0  0  0  0  0  0  0  0  0  0  0
  -29.6972  -15.2575   21.0718 N   0  0  0  0  0  0  0  0  0  0  0  0
  -26.3223  -18.1334   19.4462 N   0  0  0  0  0  0  0  0  0  0  0  0
  -25.5554  -21.8072   18.8899 N   0  0  0  0  0  0  0  0  0  0  0  0
  -28.4950  -13.8854   19.5770 N   0  0  0  0  0  0  0  0  0  0  0  0
  -20.1914  -25.3944   23.5209 N   0  0  0  0  0  0  0  0  0  0  0  0
  -26.2379  -23.8856   25.5702 N   0  0  0  0  0  0  0  0  0  0  0  0
  -24.2167  -15.0852   22.3883 N   0  3  0  0  0  0  0  0  0  0  0  0
  -27.3749  -21.3790   27.9137 N   0  3  0  0  0  0  0  0  0  0  0  0
  -25.4965  -15.3940   20.0679 O   0  0  0  0  0  0  0  0  0  0  0  0
  -26.6640  -20.9819   17.0600 O   0  0  0  0  0  0  0  0  0  0  0  0
  -21.5871  -23.9877   22.2978 O   0  0  0  0  0  0  0  0  0  0  0  0
  -23.8475  -25.4589   25.4312 O   0  0  0  0  0  0  0  0  0  0  0  0
  -26.6442  -21.6315   25.2084 O   0  0  0  0  0  0  0  0  0  0  0  0
  -23.6614  -17.4884   23.6510 O   0  0  0  0  0  0  0  0  0  0  0  0
  -29.5312  -12.9823   21.4457 O   0  0  0  0  0  0  0  0  0  0  0  0
  -31.2091  -25.6939   19.0811 O   0  0  0  0  0  0  0  0  0  0  0  0
  -21.7751  -17.8518   22.3174 O   0  0  0  0  0  0  0  0  0  1  0  0
  -35.2711  -26.9810   22.5807 F   0  0  0  0  0  0  0  0  0  0  0  0
  -31.0326  -27.9289   20.6986 F   0  0  0  0  0  0  0  0  0  0  0  0
  1  2  1  0  0  0  0
  1  7  2  0  0  0  0
  2  8  2  0  0  0  0
  3  4  1  0  0  0  0
  3 10  2  0  0  0  0
  4 11  2  0  0  0  0
  5 12  2  0  0  0  0
  5 19  1  0  0  0  0
  6 13  1  0  0  0  0
  6 19  2  0  0  0  0
  7 21  1  0  0  0  0
  8 23  1  0  0  0  0
  9 14  2  0  0  0  0
  9 22  1  0  0  0  0
 10 25  1  0  0  0  0
 11 26  1  0  0  0  0
 12 27  1  0  0  0  0
 13 27  2  0  0  0  0
 14 28  1  0  0  0  0
 15 16  2  0  0  0  0
 15 29  1  0  0  0  0
 16 30  1  0  0  0  0
 17 24  1  0  0  0  0
 17 28  2  0  0  0  0
 18 30  2  0  0  0  0
 18 31  1  0  0  0  0
 19 32  1  0  0  0  0
 20 32  1  0  0  0  0
 20 33  2  0  0  0  0
 20 35  1  0  0  0  0
 21 23  2  0  0  0  0
 21 41  1  0  0  0  0
 22 24  2  0  0  0  0
 22 42  1  0  0  0  0
 23 54  1  0  0  0  0
 24 43  1  0  0  0  0
 25 26  2  0  0  0  0
 25 63  1  0  0  0  0
 26 75  1  0  0  0  0
 27 87  1  0  0  0  0
 28 88  1  0  0  0  0
 29 31  2  0  0  0  0
 29 87  1  0  0  0  0
 30 89  1  0  0  0  0
 31 90  1  0  0  0  0
 32 68  2  0  0  0  0
 33 69  1  0  0  0  0
 33 73  1  0  0  0  0
 34 55  1  0  0  0  0
 34 70  1  0  0  0  0
 34 80  2  0  0  0  0
 35 74  1  0  0  0  0
 35 81  2  0  0  0  0
 36 56  1  0  0  0  0
 36 76  1  0  0  0  0
 36 82  2  0  0  0  0
 37 65  1  0  0  0  0
 37 71  1  0  0  0  0
 37 83  2  0  0  0  0
 38 66  1  0  0  0  0
 38 77  1  0  0  0  0
 38 84  2  0  0  0  0
 39 64  1  0  0  0  0
 39 85  2  0  0  0  0
 39 88  1  0  0  0  0
 40 72  1  0  0  0  0
 40 75  1  0  0  0  0
 40 86  2  0  0  0  0
 41 44  1  0  0  0  0
 42 56  1  0  0  0  0
 43 71  1  0  0  0  0
 44 48  1  0  0  0  0
 45 46  1  0  0  0  0
 45 49  1  0  0  0  0
 46 51  1  0  0  0  0
 47 50  1  0  0  0  0
 47 52  1  0  0  0  0
 48 54  1  0  0  0  0
 49 55  1  0  0  0  0
 50 57  1  0  0  0  0
 51 70  1  0  0  0  0
 52 72  1  0  0  0  0
 53 57  1  0  0  0  0
 53 72  1  0  0  0  0
 54 76  1  0  0  0  0
 55 78  1  0  0  0  0
 56 71  1  0  0  0  0
 57 69  1  0  0  0  0
 58 66  1  0  0  0  0
 59 67  1  0  0  0  0
 60 67  1  0  0  0  0
 61 67  1  0  0  0  0
 62 79  1  0  0  0  0
 63 70  1  0  0  0  0
 64 78  1  0  0  0  0
 65 67  1  0  0  0  0
 65 77  1  0  0  0  0
 66 79  1  0  0  0  0
 68 69  1  0  0  0  0
M  CHG  2  78   1  79   1
M  ISO  4  39 101  40 100  75 100  88 101
M  END
> <Batch ID>
0025

> <Smiles>
CNC(C)C(=O)NC(C(=O)N1Cc2cc([101O:1][101C:1](=O)CNC3CCCCN(Cc4ccccc4[100NH:0][100C:0](=O)N4CCCC(n5nc(-c6ccc(Oc7ccc(F)cc7F)cc6)c(C(N)=O)c5N)C4)C3=O)ccc2CC1C(=O)NC1CCCc2ccccc21)C(C)(C)C

> <Shape>
0.224

> <Color>
0.072

> <Negative vol penalty>
0.000

$$$$

  -OEChem-04042321223D

 90100  0     1  0  0  0  0  0999 V2000
  -16.5351  -24.8497   24.8011 C   0  0  0  0  0  0  0  0  0  0  0  0
  -17.8075  -24.3103   24.9609 C   0  0  0  0  0  0  0  0  0  0  0  0
  -23.0730  -10.1174   21.5448 C   0  0  0  0  0  0  0  0  0  0  0  0
  -24.0198  -10.9173   23.6187 C   0  0  0  0  0  0  0  0  0  0  0  0
  -16.3546  -25.9851   24.0122 C   0  0  0  0  0  0  0  0  0  0  0  0
  -18.9000  -24.9055   24.3311 C   0  0  0  0  0  0  0  0  0  0  0  0
  -22.9087  -25.3408   27.3947 C   0  0  0  0  0  0  0  0  0  0  0  0
  -27.7742  -17.4558   24.9314 C   0  0  0  0  0  0  0  0  0  0  0  0
  -27.0828  -18.4588   25.6107 C   0  0  0  0  0  0  0  0  0  0  0  0
  -22.3528   -9.1507   22.2465 C   0  0  0  0  0  0  0  0  0  0  0  0
  -23.2995   -9.9506   24.3204 C   0  0  0  0  0  0  0  0  0  0  0  0
  -23.6696  -24.1934   27.6145 C   0  0  0  0  0  0  0  0  0  0  0  0
  -22.9484   -6.1374   23.6571 C   0  0  0  0  0  0  0  0  0  0  0  0
  -22.9378   -4.8399   23.1454 C   0  0  0  0  0  0  0  0  0  0  0  0
  -25.2865  -24.9634   25.9984 C   0  0  0  0  0  0  0  0  0  0  0  0
  -20.5323   -4.9392   22.9432 C   0  0  0  0  0  0  0  0  0  0  0  0
  -23.9066  -11.0007   22.2309 C   0  0  0  0  0  0  0  0  0  0  0  0
  -24.2364  -13.3070   21.1918 C   0  0  0  0  0  0  0  0  0  0  0  0
  -17.4468  -26.6000   23.3802 C   0  0  0  0  0  0  0  0  0  0  0  0
  -23.3262  -26.3045   26.4655 C   0  0  0  0  0  0  0  0  0  0  0  0
  -18.7337  -26.0493   23.5319 C   0  0  0  0  0  0  0  0  0  0  0  0
  -24.5304  -26.1233   25.7705 C   0  0  0  0  0  0  0  0  0  0  0  0
  -27.8894  -17.5062   23.5422 C   0  0  0  0  0  0  0  0  0  0  0  0
  -26.5065  -19.5122   24.9009 C   0  0  0  0  0  0  0  0  0  0  0  0
  -22.4660   -9.0673   23.6342 C   0  0  0  0  0  0  0  0  0  0  0  0
  -24.8573  -24.0032   26.9142 C   0  0  0  0  0  0  0  0  0  0  0  0
  -21.7509   -6.8359   23.8119 C   0  0  0  0  0  0  0  0  0  0  0  0
  -21.7298   -4.2408   22.7885 C   0  0  0  0  0  0  0  0  0  0  0  0
  -20.5429   -6.2368   23.4549 C   0  0  0  0  0  0  0  0  0  0  0  0
  -27.3132  -18.5596   22.8323 C   0  0  0  0  0  0  0  0  0  0  0  0
  -26.6217  -19.5626   23.5116 C   0  0  0  0  0  0  0  0  0  0  0  0
  -24.6513  -11.9991   21.5066 C   0  0  0  0  0  0  0  0  0  0  0  0
  -25.2945  -13.8461   20.5017 C   0  0  0  0  0  0  0  0  0  0  0  0
  -31.0579  -16.6219   20.1889 C   0  0  0  0  0  0  0  0  0  0  0  0
  -30.2542  -15.9464   21.0528 C   0  0  0  0  0  0  0  0  0  0  0  0
  -23.0047  -13.9749   21.4960 C   0  0  0  0  0  0  0  0  0  0  0  0
  -31.1014  -13.6830   20.5024 C   0  0  0  0  0  0  0  0  0  0  0  0
  -22.1301  -27.4853   23.7675 C   0  0  0  0  0  0  0  0  0  0  0  0
  -24.6592  -29.5046   23.9875 C   0  0  0  0  0  0  0  0  0  0  0  0
  -27.7942  -30.1004   25.1973 C   0  0  0  0  0  0  0  0  0  0  0  0
  -17.1954  -27.7980   22.4990 C   0  0  0  0  0  0  0  0  0  0  0  0
  -22.5076  -27.5494   26.2594 C   0  0  0  0  0  0  0  0  0  0  0  0
  -25.0330  -27.1376   24.7769 C   0  0  0  0  0  0  0  0  0  0  0  0
  -32.4213  -16.9115   20.8142 C   0  0  0  0  0  0  0  0  0  0  0  0
  -18.4596  -28.5877   22.1695 C   0  0  0  0  0  0  0  0  0  0  0  0
  -29.1409  -12.0111   18.0123 C   0  0  0  0  0  0  0  0  0  0  0  0
  -19.5834  -27.6456   21.7499 C   0  0  0  0  0  0  0  0  0  0  0  0
  -27.7503  -11.9357   18.6412 C   0  0  0  0  0  0  0  0  0  0  0  0
  -32.1159  -15.0064   22.4055 C   0  0  0  0  0  0  0  0  0  0  0  0
  -30.2375  -11.8675   19.0630 C   0  0  0  0  0  0  0  0  0  0  0  0
  -28.7457  -12.7753   20.8158 C   0  0  0  0  0  0  0  0  0  0  0  0
  -31.0740  -17.2239   22.9438 C   0  0  0  0  0  0  0  0  0  0  0  0
  -19.9473  -26.6808   22.8850 C   0  0  1  0  0  0  0  0  0  0  0  0
  -30.8370  -14.6492   21.6296 C   0  0  1  0  0  0  0  0  0  0  0  0
  -22.7671  -28.2192   24.9135 C   0  0  1  0  0  0  0  0  0  0  0  0
  -32.3285  -16.5364   22.3205 C   0  0  2  0  0  0  0  0  0  0  0  0
  -27.6089  -12.9467   19.7928 C   0  0  2  0  0  0  0  0  0  0  0  0
  -29.6187  -31.8232   25.1776 C   0  0  0  0  0  0  0  0  0  0  0  0
  -25.4086  -28.6750   21.1485 C   0  0  0  0  0  0  0  0  0  0  0  0
  -27.6799  -29.6542   21.5365 C   0  0  0  0  0  0  0  0  0  0  0  0
  -25.6614  -31.1175   21.6227 C   0  0  0  0  0  0  0  0  0  0  0  0
  -27.6641  -30.4401   28.1344 C   0  0  0  0  0  0  0  0  0  0  0  0
  -28.6406  -16.4069   22.8613 C   0  0  0  0  0  0  0  0  0  0  0  0
  -25.6818  -20.4802   27.0476 C   0  0  0  0  0  0  0  0  0  0  0  0
  -24.9008  -21.7003   27.5063 C   0  0  0  0  0  0  0  0  0  1  0  0
  -26.0892  -29.4836   23.5041 C   0  0  1  0  0  0  0  0  0  0  0  0
  -28.3885  -31.3043   25.9057 C   0  0  2  0  0  0  0  0  0  0  0  0
  -26.1996  -29.7124   21.9702 C   0  0  0  0  0  0  0  0  0  0  0  0
  -25.8773  -11.7240   21.0536 N   0  0  0  0  0  0  0  0  0  0  0  0
  -26.2418  -12.8665   20.4470 N   0  0  0  0  0  0  0  0  0  0  0  0
  -30.0550  -12.8301   20.1508 N   0  0  0  0  0  0  0  0  0  0  0  0
  -24.1940  -28.3353   24.6058 N   0  0  0  0  0  0  0  0  0  0  0  0
  -25.4977  -15.0579   19.9424 N   0  0  0  0  0  0  0  0  0  0  0  0
  -22.0244  -13.2749   22.2126 N   0  0  0  0  0  0  0  0  0  0  0  0
  -25.8278  -20.4893   25.6100 N   0  0  0  0  0  0  0  0  0  0  0  0
  -20.7591  -27.3515   23.8776 N   0  0  0  0  0  0  0  0  0  0  0  0
  -26.8063  -30.4674   24.3081 N   0  0  0  0  0  0  0  0  0  0  0  0
  -29.8204  -16.8894   22.0946 N   0  3  2  0  0  0  0  0  0  0  0  0
  -28.7829  -30.9440   27.2970 N   0  3  0  0  0  0  0  0  0  0  0  0
  -22.7735  -15.1518   21.1286 O   0  0  0  0  0  0  0  0  0  0  0  0
  -32.2047  -13.6896   19.9502 O   0  0  0  0  0  0  0  0  0  0  0  0
  -22.8303  -27.0722   22.8506 O   0  0  0  0  0  0  0  0  0  0  0  0
  -23.9821  -30.5234   23.8290 O   0  0  0  0  0  0  0  0  0  0  0  0
  -28.1713  -28.9499   25.4086 O   0  0  0  0  0  0  0  0  0  0  0  0
  -21.7631   -8.1243   24.3193 O   0  0  0  0  0  0  0  0  0  0  0  0
  -25.6016  -22.8839   27.1265 O   0  0  0  0  0  0  0  0  0  1  0  0
  -21.7200   -2.9953   22.2957 F   0  0  0  0  0  0  0  0  0  0  0  0
  -19.3894   -6.9032   23.6003 F   0  0  0  0  0  0  0  0  0  0  0  0
  -27.4754  -18.5926   21.1043 Cl  0  0  0  0  0  0  0  0  0  0  0  0
  -25.8943  -20.8861   22.6512 Cl  0  0  0  0  0  0  0  0  0  0  0  0
  1  2  1  0  0  0  0
  1  5  2  0  0  0  0
  2  6  2  0  0  0  0
  3 10  2  0  0  0  0
  3 17  1  0  0  0  0
  4 11  1  0  0  0  0
  4 17  2  0  0  0  0
  5 19  1  0  0  0  0
  6 21  1  0  0  0  0
  7 12  2  0  0  0  0
  7 20  1  0  0  0  0
  8  9  2  0  0  0  0
  8 23  1  0  0  0  0
  9 24  1  0  0  0  0
 10 25  1  0  0  0  0
 11 25  2  0  0  0  0
 12 26  1  0  0  0  0
 13 14  2  0  0  0  0
 13 27  1  0  0  0  0
 14 28  1  0  0  0  0
 15 22  1  0  0  0  0
 15 26  2  0  0  0  0
 16 28  2  0  0  0  0
 16 29  1  0  0  0  0
 17 32  1  0  0  0  0
 18 32  1  0  0  0  0
 18 33  2  0  0  0  0
 18 36  1  0  0  0  0
 19 21  2  0  0  0  0
 19 41  1  0  0  0  0
 20 22  2  0  0  0  0
 20 42  1  0  0  0  0
 21 53  1  0  0  0  0
 22 43  1  0  0  0  0
 23 30  2  0  0  0  0
 23 63  1  0  0  0  0
 24 31  2  0  0  0  0
 24 75  1  0  0  0  0
 25 85  1  0  0  0  0
 26 86  1  0  0  0  0
 27 29  2  0  0  0  0
 27 85  1  0  0  0  0
 28 87  1  0  0  0  0
 29 88  1  0  0  0  0
 30 31  1  0  0  0  0
 30 89  1  0  0  0  0
 31 90  1  0  0  0  0
 32 69  2  0  0  0  0
 33 70  1  0  0  0  0
 33 73  1  0  0  0  0
 34 35  2  0  0  0  0
 34 44  1  0  0  0  0
 35 54  1  0  0  0  0
 35 78  1  0  0  0  0
 36 74  1  0  0  0  0
 36 80  2  0  0  0  0
 37 54  1  0  0  0  0
 37 71  1  0  0  0  0
 37 81  2  0  0  0  0
 38 55  1  0  0  0  0
 38 76  1  0  0  0  0
 38 82  2  0  0  0  0
 39 66  1  0  0  0  0
 39 72  1  0  0  0  0
 39 83  2  0  0  0  0
 40 67  1  0  0  0  0
 40 77  1  0  0  0  0
 40 84  2  0  0  0  0
 41 45  1  0  0  0  0
 42 55  1  0  0  0  0
 43 72  1  0  0  0  0
 44 56  1  0  0  0  0
 45 47  1  0  0  0  0
 46 48  1  0  0  0  0
 46 50  1  0  0  0  0
 47 53  1  0  0  0  0
 48 57  1  0  0  0  0
 49 54  1  0  0  0  0
 49 56  1  0  0  0  0
 50 71  1  0  0  0  0
 51 57  1  0  0  0  0
 51 71  1  0  0  0  0
 52 56  1  0  0  0  0
 52 78  1  0  0  0  0
 53 76  1  0  0  0  0
 55 72  1  0  0  0  0
 57 70  1  0  0  0  0
 58 67  1  0  0  0  0
 59 68  1  0  0  0  0
 60 68  1  0  0  0  0
 61 68  1  0  0  0  0
 62 79  1  0  0  0  0
 63 78  1  0  0  0  0
 64 65  1  0  0  0  0
 64 75  1  0  0  0  0
 65 86  1  0  0  0  0
 66 68  1  0  0  0  0
 66 77  1  0  0  0  0
 67 79  1  0  0  0  0
 69 70  1  0  0  0  0
M  CHG  2  78   1  79   1
M  ISO  4  37 100  54 100  65 101  86 101
M  END
> <Batch ID>
0025

> <Smiles>
CNC(C)C(=O)NC(C(=O)N1Cc2cc([101O:1][101CH2:1]CNc3ccc(CN4CC5CC=C4[100CH:0]([100C:0](=O)N4CCCC(n6nc(-c7ccc(Oc8ccc(F)cc8F)cc7)c(C(N)=O)c6N)C4)C5)c(Cl)c3Cl)ccc2CC1C(=O)NC1CCCc2ccccc21)C(C)(C)C

> <Shape>
0.278

> <Color>
0.128

> <Negative vol penalty>
0.000

$$$$

  -OEChem-04042321223D

 86 95  0     1  0  0  0  0  0999 V2000
  -22.8081   -7.5347   22.3204 C   0  0  0  0  0  0  0  0  0  0  0  0
  -23.9531   -8.1852   22.7689 C   0  0  0  0  0  0  0  0  0  0  0  0
  -19.4382  -25.6077   21.5045 C   0  0  0  0  0  0  0  0  0  0  0  0
  -19.4756  -27.2134   19.6996 C   0  0  0  0  0  0  0  0  0  0  0  0
  -29.7337  -22.8070   19.5930 C   0  0  0  0  0  0  0  0  0  0  0  0
  -22.2217   -7.9111   21.1129 C   0  0  0  0  0  0  0  0  0  0  0  0
  -24.5130   -9.2119   22.0094 C   0  0  0  0  0  0  0  0  0  0  0  0
  -28.0731  -15.3863   22.7305 C   0  0  0  0  0  0  0  0  0  0  0  0
  -29.0767  -24.0326   19.7015 C   0  0  0  0  0  0  0  0  0  0  0  0
  -18.3004  -25.0167   20.9551 C   0  0  0  0  0  0  0  0  0  0  0  0
  -18.3379  -26.6224   19.1502 C   0  0  0  0  0  0  0  0  0  0  0  0
  -29.2278  -16.0229   22.2777 C   0  0  0  0  0  0  0  0  0  0  0  0
  -17.5722  -22.8791   18.4386 C   0  0  0  0  0  0  0  0  0  0  0  0
  -17.5359  -21.4866   18.3660 C   0  0  0  0  0  0  0  0  0  0  0  0
  -28.0831  -16.6415   20.2464 C   0  0  0  0  0  0  0  0  0  0  0  0
  -27.6030  -23.0948   21.3706 C   0  0  0  0  0  0  0  0  0  0  0  0
  -15.5615  -21.4656   19.7584 C   0  0  0  0  0  0  0  0  0  0  0  0
  -20.0257  -26.7062   20.8768 C   0  0  0  0  0  0  0  0  0  0  0  0
  -29.3253  -21.7252   20.3732 C   0  0  0  0  0  0  0  0  0  0  0  0
  -21.3231  -27.9035   22.7182 C   0  0  0  0  0  0  0  0  0  0  0  0
  -22.7691   -8.9494   20.3429 C   0  0  0  0  0  0  0  0  0  0  0  0
  -26.9160  -15.3630   21.9386 C   0  0  0  0  0  0  0  0  0  0  0  0
  -23.9341   -9.6017   20.7897 C   0  0  0  0  0  0  0  0  0  0  0  0
  -26.9142  -16.0060   20.6925 C   0  0  0  0  0  0  0  0  0  0  0  0
  -28.0114  -24.1765   20.5903 C   0  0  0  0  0  0  0  0  0  0  0  0
  -17.7503  -25.5240   19.7780 C   0  0  0  0  0  0  0  0  0  0  0  0
  -29.2338  -16.6482   21.0343 C   0  0  0  0  0  0  0  0  0  0  0  0
  -16.6033  -23.5649   19.1711 C   0  0  0  0  0  0  0  0  0  0  0  0
  -16.5306  -20.7799   19.0259 C   0  0  0  0  0  0  0  0  0  0  0  0
  -15.5979  -22.8581   19.8309 C   0  0  0  0  0  0  0  0  0  0  0  0
  -28.2600  -21.8691   21.2620 C   0  0  0  0  0  0  0  0  0  0  0  0
  -21.2007  -27.3175   21.4441 C   0  0  0  0  0  0  0  0  0  0  0  0
  -22.6259  -28.3348   22.7741 C   0  0  0  0  0  0  0  0  0  0  0  0
  -30.0473  -20.4541   20.2246 C   0  0  0  0  0  0  0  0  0  0  0  0
  -20.3464  -28.0452   23.7583 C   0  0  0  0  0  0  0  0  0  0  0  0
  -25.1701  -13.0778   20.5846 C   0  0  0  0  0  0  0  0  0  0  0  0
  -23.2135  -15.5550   19.8380 C   0  0  0  0  0  0  0  0  0  0  0  0
  -22.8588  -18.9063   19.2996 C   0  0  0  0  0  0  0  0  0  0  0  0
  -27.6244  -26.5949   20.0004 C   0  0  0  0  0  0  0  0  0  0  0  0
  -22.1270   -9.2892   19.0212 C   0  0  0  0  0  0  0  0  0  0  0  0
  -25.6704  -14.6950   22.4529 C   0  0  0  0  0  0  0  0  0  0  0  0
  -25.6918  -16.0271   19.8128 C   0  0  0  0  0  0  0  0  0  0  0  0
  -22.5671  -10.6387   18.4593 C   0  0  0  0  0  0  0  0  0  0  0  0
  -26.1914  -29.8541   19.9611 C   0  0  0  0  0  0  0  0  0  0  0  0
  -32.7206  -20.3788   22.8102 C   0  0  0  0  0  0  0  0  0  0  0  0
  -24.0828  -10.7854   18.5487 C   0  0  0  0  0  0  0  0  0  0  0  0
  -24.7620  -29.6277   20.4587 C   0  0  0  0  0  0  0  0  0  0  0  0
  -33.2169  -19.3836   21.7664 C   0  0  0  0  0  0  0  0  0  0  0  0
  -31.6567  -21.1669   22.0628 C   0  0  0  0  0  0  0  0  0  0  0  0
  -26.6760  -28.7010   19.0840 C   0  0  0  0  0  0  0  0  0  0  0  0
  -25.1175  -27.1409   20.1824 C   0  0  0  0  0  0  0  0  0  0  0  0
  -24.5568  -10.7368   20.0062 C   0  0  1  0  0  0  0  0  0  0  0  0
  -24.7069  -14.2904   21.3414 C   0  0  1  0  0  0  0  0  0  0  0  0
  -24.6089  -28.2454   21.1231 C   0  0  2  0  0  0  0  0  0  0  0  0
  -31.9548  -19.0299   20.9771 C   0  0  1  0  0  0  0  0  0  0  0  0
  -21.6901  -21.0833   18.8614 C   0  0  0  0  0  0  0  0  0  0  0  0
  -23.3607  -14.6326   16.9333 C   0  0  0  0  0  0  0  0  0  0  0  0
  -22.4592  -16.8665   16.2512 C   0  0  0  0  0  0  0  0  0  0  0  0
  -21.0872  -15.3546   17.6846 C   0  0  0  0  0  0  0  0  0  0  0  0
  -22.4133  -19.3815   22.1866 C   0  0  0  0  0  0  0  0  0  0  0  0
  -31.2265  -17.8276   21.5766 C   0  0  0  0  0  0  0  0  0  1  0  0
  -23.1003  -16.5164   18.6796 C   0  0  1  0  0  0  0  0  0  0  0  0
  -21.8389  -19.9066   19.8132 C   0  0  2  0  0  0  0  0  0  0  0  0
  -22.5256  -15.8406   17.4027 C   0  0  0  0  0  0  0  0  0  0  0  0
  -22.3352  -27.3701   20.7412 N   0  0  0  0  0  0  0  0  0  0  0  0
  -23.1829  -27.9944   21.5766 N   0  0  0  0  0  0  0  0  0  0  0  0
  -31.1393  -20.2431   21.0550 N   0  0  0  0  0  0  0  0  0  0  0  0
  -24.5005  -15.3548   20.3571 N   0  0  0  0  0  0  0  0  0  0  0  0
  -26.5042  -27.4240   19.7802 N   0  0  0  0  0  0  0  0  0  0  0  0
  -23.3379  -28.9682   23.7303 N   0  0  0  0  0  0  0  0  0  0  0  0
  -19.0559  -27.5459   23.5356 N   0  0  0  0  0  0  0  0  0  0  0  0
  -27.3447  -25.4220   20.7008 N   0  0  0  0  0  0  0  0  0  0  0  0
  -24.3058  -12.0024   20.6618 N   0  0  0  0  0  0  0  0  0  0  0  0
  -22.3146  -17.6468   19.1626 N   0  0  0  0  0  0  0  0  0  0  0  0
  -22.2521  -20.4296   21.1461 N   0  3  0  0  0  0  0  0  0  0  0  0
  -29.6262  -19.6649   19.3820 O   0  0  0  0  0  0  0  0  0  0  0  0
  -20.6058  -28.6129   24.8465 O   0  0  0  0  0  0  0  0  0  0  0  0
  -26.2322  -13.1155   19.9746 O   0  0  0  0  0  0  0  0  0  0  0  0
  -22.1965  -15.0075   20.2711 O   0  0  0  0  0  0  0  0  0  0  0  0
  -24.0208  -19.2124   19.0420 O   0  0  0  0  0  0  0  0  0  0  0  0
  -28.7537  -26.9156   19.6213 O   0  0  0  0  0  0  0  0  0  0  0  0
  -16.6402  -24.9474   19.2415 O   0  0  0  0  0  0  0  0  0  0  0  0
  -30.3598  -17.2698   20.5897 O   0  0  0  0  0  0  0  0  0  1  0  0
  -16.4949  -19.4428   18.9549 F   0  0  0  0  0  0  0  0  0  0  0  0
  -14.6636  -23.5114   20.5352 F   0  0  0  0  0  0  0  0  0  0  0  0
  -27.7256  -20.5551   22.2466 Cl  0  0  0  0  0  0  0  0  0  0  0  0
  1  2  1  0  0  0  0
  1  6  2  0  0  0  0
  2  7  2  0  0  0  0
  3 10  2  0  0  0  0
  3 18  1  0  0  0  0
  4 11  1  0  0  0  0
  4 18  2  0  0  0  0
  5  9  2  0  0  0  0
  5 19  1  0  0  0  0
  6 21  1  0  0  0  0
  7 23  1  0  0  0  0
  8 12  2  0  0  0  0
  8 22  1  0  0  0  0
  9 25  1  0  0  0  0
 10 26  1  0  0  0  0
 11 26  2  0  0  0  0
 12 27  1  0  0  0  0
 13 14  2  0  0  0  0
 13 28  1  0  0  0  0
 14 29  1  0  0  0  0
 15 24  1  0  0  0  0
 15 27  2  0  0  0  0
 16 25  2  0  0  0  0
 16 31  1  0  0  0  0
 17 29  2  0  0  0  0
 17 30  1  0  0  0  0
 18 32  1  0  0  0  0
 19 31  2  0  0  0  0
 19 34  1  0  0  0  0
 20 32  1  0  0  0  0
 20 33  2  0  0  0  0
 20 35  1  0  0  0  0
 21 23  2  0  0  0  0
 21 40  1  0  0  0  0
 22 24  2  0  0  0  0
 22 41  1  0  0  0  0
 23 52  1  0  0  0  0
 24 42  1  0  0  0  0
 25 72  1  0  0  0  0
 26 82  1  0  0  0  0
 27 83  1  0  0  0  0
 28 30  2  0  0  0  0
 28 82  1  0  0  0  0
 29 84  1  0  0  0  0
 30 85  1  0  0  0  0
 31 86  1  0  0  0  0
 32 65  2  0  0  0  0
 33 66  1  0  0  0  0
 33 70  1  0  0  0  0
 34 67  1  0  0  0  0
 34 76  2  0  0  0  0
 35 71  1  0  0  0  0
 35 77  2  0  0  0  0
 36 53  1  0  0  0  0
 36 73  1  0  0  0  0
 36 78  2  0  0  0  0
 37 62  1  0  0  0  0
 37 68  1  0  0  0  0
 37 79  2  0  0  0  0
 38 63  1  0  0  0  0
 38 74  1  0  0  0  0
 38 80  2  0  0  0  0
 39 69  1  0  0  0  0
 39 72  1  0  0  0  0
 39 81  2  0  0  0  0
 40 43  1  0  0  0  0
 41 53  1  0  0  0  0
 42 68  1  0  0  0  0
 43 46  1  0  0  0  0
 44 47  1  0  0  0  0
 44 50  1  0  0  0  0
 45 48  1  0  0  0  0
 45 49  1  0  0  0  0
 46 52  1  0  0  0  0
 47 54  1  0  0  0  0
 48 55  1  0  0  0  0
 49 67  1  0  0  0  0
 50 69  1  0  0  0  0
 51 54  1  0  0  0  0
 51 69  1  0  0  0  0
 52 73  1  0  0  0  0
 53 68  1  0  0  0  0
 54 66  1  0  0  0  0
 55 61  1  0  0  0  0
 55 67  1  0  0  0  0
 56 63  1  0  0  0  0
 57 64  1  0  0  0  0
 58 64  1  0  0  0  0
 59 64  1  0  0  0  0
 60 75  1  0  0  0  0
 61 83  1  0  0  0  0
 62 64  1  0  0  0  0
 62 74  1  0  0  0  0
 63 75  1  0  0  0  0
 65 66  1  0  0  0  0
M  CHG  1  75   1
M  ISO  4  39 100  61 101  72 100  83 101
M  END
> <Batch ID>
0025

> <Smiles>
CNC(C)C(=O)NC(C(=O)N1Cc2cc([101O:1][101CH2:1]C3CCCN3C(=O)c3ccc([100NH:0][100C:0](=O)N4CCCC(n5nc(-c6ccc(Oc7ccc(F)cc7F)cc6)c(C(N)=O)c5N)C4)cc3Cl)ccc2CC1C(=O)NC1CCCc2ccccc21)C(C)(C)C

> <Shape>
0.238

> <Color>
0.091

> <Negative vol penalty>
0.000

$$$$

  -OEChem-04042321223D

 85 94  0     1  0  0  0  0  0999 V2000
  -17.2461  -30.6608   23.9511 C   0  0  0  0  0  0  0  0  0  0  0  0
  -18.5957  -30.9984   23.9403 C   0  0  0  0  0  0  0  0  0  0  0  0
  -23.6112  -13.5010   22.5844 C   0  0  0  0  0  0  0  0  0  0  0  0
  -23.3274  -14.4479   20.3799 C   0  0  0  0  0  0  0  0  0  0  0  0
  -16.8438  -29.3885   23.5473 C   0  0  0  0  0  0  0  0  0  0  0  0
  -19.5439  -30.0634   23.5267 C   0  0  0  0  0  0  0  0  0  0  0  0
  -25.8630  -29.6257   20.1811 C   0  0  0  0  0  0  0  0  0  0  0  0
  -22.9867  -12.3279   22.1609 C   0  0  0  0  0  0  0  0  0  0  0  0
  -22.7028  -13.2748   19.9564 C   0  0  0  0  0  0  0  0  0  0  0  0
  -27.1362  -29.0834   20.3506 C   0  0  0  0  0  0  0  0  0  0  0  0
  -23.8061   -9.5724   20.3807 C   0  0  0  0  0  0  0  0  0  0  0  0
  -24.3937   -8.3593   20.7394 C   0  0  0  0  0  0  0  0  0  0  0  0
  -26.3177  -26.9422   19.5992 C   0  0  0  0  0  0  0  0  0  0  0  0
  -26.4141  -24.3650   23.4095 C   0  0  0  0  0  0  0  0  0  0  0  0
  -28.6028  -24.1389   21.6945 C   0  0  0  0  0  0  0  0  0  0  0  0
  -22.3800   -7.7325   21.9182 C   0  0  0  0  0  0  0  0  0  0  0  0
  -23.7816  -14.5610   21.6939 C   0  0  0  0  0  0  0  0  0  0  0  0
  -25.8013  -16.0704   22.0812 C   0  0  0  0  0  0  0  0  0  0  0  0
  -17.7866  -28.4406   23.1193 C   0  0  0  0  0  0  0  0  0  0  0  0
  -24.8033  -28.8263   19.7290 C   0  0  0  0  0  0  0  0  0  0  0  0
  -19.1539  -28.7767   23.1180 C   0  0  0  0  0  0  0  0  0  0  0  0
  -25.0326  -27.4774   19.4223 C   0  0  0  0  0  0  0  0  0  0  0  0
  -27.5188  -25.2004   23.5748 C   0  0  0  0  0  0  0  0  0  0  0  0
  -28.6132  -25.0874   22.7173 C   0  0  0  0  0  0  0  0  0  0  0  0
  -26.4037  -23.4165   22.3867 C   0  0  0  0  0  0  0  0  0  0  0  0
  -22.5325  -12.2148   20.8469 C   0  0  0  0  0  0  0  0  0  0  0  0
  -27.3631  -27.7408   20.0624 C   0  0  0  0  0  0  0  0  0  0  0  0
  -22.5055   -9.8656   20.7908 C   0  0  0  0  0  0  0  0  0  0  0  0
  -23.6807   -7.4393   21.5081 C   0  0  0  0  0  0  0  0  0  0  0  0
  -21.7925   -8.9457   21.5595 C   0  0  0  0  0  0  0  0  0  0  0  0
  -27.4981  -23.3035   21.5293 C   0  0  0  0  0  0  0  0  0  0  0  0
  -24.4262  -15.7733   22.1309 C   0  0  0  0  0  0  0  0  0  0  0  0
  -25.8989  -17.3340   22.6105 C   0  0  0  0  0  0  0  0  0  0  0  0
  -26.8929  -15.2753   21.5996 C   0  0  0  0  0  0  0  0  0  0  0  0
  -22.0087  -27.9129   20.9370 C   0  0  0  0  0  0  0  0  0  0  0  0
  -21.5895  -26.6398   17.9830 C   0  0  0  0  0  0  0  0  0  0  0  0
  -23.0034  -25.4354   15.1199 C   0  0  0  0  0  0  0  0  0  0  0  0
  -24.1121  -22.5909   23.0295 C   0  0  0  0  0  0  0  0  0  0  0  0
  -17.3082  -27.0623   22.7368 C   0  0  0  0  0  0  0  0  0  0  0  0
  -23.4420  -29.4328   19.5258 C   0  0  0  0  0  0  0  0  0  0  0  0
  -23.9334  -26.5815   18.9148 C   0  0  0  0  0  0  0  0  0  0  0  0
  -18.3414  -26.2536   21.9566 C   0  0  0  0  0  0  0  0  0  0  0  0
  -22.4779  -20.1568   25.0499 C   0  0  0  0  0  0  0  0  0  0  0  0
  -31.8794  -26.3947   23.6358 C   0  0  0  0  0  0  0  0  0  0  0  0
  -19.7093  -26.3489   22.6249 C   0  0  0  0  0  0  0  0  0  0  0  0
  -22.9522  -18.8239   24.4665 C   0  0  0  0  0  0  0  0  0  0  0  0
  -31.5550  -27.3502   22.5012 C   0  0  0  0  0  0  0  0  0  0  0  0
  -30.5055  -25.9234   24.0964 C   0  0  0  0  0  0  0  0  0  0  0  0
  -22.2693  -21.2095   23.9627 C   0  0  0  0  0  0  0  0  0  0  0  0
  -23.8925  -20.0859   22.4891 C   0  0  0  0  0  0  0  0  0  0  0  0
  -20.2101  -27.7981   22.6524 C   0  0  1  0  0  0  0  0  0  0  0  0
  -22.3185  -28.4011   19.5501 C   0  0  1  0  0  0  0  0  0  0  0  0
  -24.1789  -19.0133   23.5526 C   0  0  2  0  0  0  0  0  0  0  0  0
  -30.3476  -26.6998   21.8036 C   0  0  2  0  0  0  0  0  0  0  0  0
  -27.5035  -26.2074   24.6784 C   0  0  0  0  0  0  0  0  0  0  0  0
  -22.4059  -24.4310   12.8993 C   0  0  0  0  0  0  0  0  0  0  0  0
  -20.9804  -23.9818   19.3519 C   0  0  0  0  0  0  0  0  0  0  0  0
  -21.3321  -22.8461   17.1486 C   0  0  0  0  0  0  0  0  0  0  0  0
  -19.4994  -24.5182   17.4094 C   0  0  0  0  0  0  0  0  0  0  0  0
  -24.2723  -27.6626   13.6405 C   0  0  0  0  0  0  0  0  0  0  0  0
  -29.4254  -27.7793   21.2462 C   0  0  0  0  0  0  0  0  0  1  0  0
  -21.8993  -25.3105   17.3380 C   0  0  1  0  0  0  0  0  0  0  0  0
  -22.7096  -25.7141   13.6569 C   0  0  2  0  0  0  0  0  0  0  0  0
  -20.9483  -24.1803   17.8233 C   0  0  0  0  0  0  0  0  0  0  0  0
  -23.7022  -16.7681   22.6509 N   0  0  0  0  0  0  0  0  0  0  0  0
  -24.6259  -17.7025   22.9328 N   0  0  0  0  0  0  0  0  0  0  0  0
  -29.7148  -25.9062   22.8666 N   0  0  3  0  0  0  0  0  0  0  0  0
  -22.6184  -27.2197   18.7386 N   0  0  0  0  0  0  0  0  0  0  0  0
  -23.4736  -21.3375   23.1392 N   0  0  0  0  0  0  0  0  0  0  0  0
  -26.9487  -18.1548   22.8272 N   0  0  0  0  0  0  0  0  0  0  0  0
  -26.6159  -14.0000   21.0883 N   0  0  0  0  0  0  0  0  0  0  0  0
  -25.2661  -22.5836   22.2466 N   0  0  0  0  0  0  0  0  0  0  0  0
  -20.7187  -28.1818   21.3530 N   0  0  0  0  0  0  0  0  0  0  0  0
  -21.8694  -25.5390   15.8974 N   0  0  0  0  0  0  0  0  0  0  0  0
  -23.8781  -26.3761   13.0108 N   0  3  0  0  0  0  0  0  0  0  0  0
  -28.0806  -15.6770   21.6371 O   0  0  0  0  0  0  0  0  0  0  0  0
  -22.8753  -27.3337   21.5813 O   0  0  0  0  0  0  0  0  0  0  0  0
  -20.4781  -27.1483   17.8165 O   0  0  0  0  0  0  0  0  0  0  0  0
  -24.1260  -25.1504   15.5313 O   0  0  0  0  0  0  0  0  0  0  0  0
  -23.6832  -23.5908   23.6110 O   0  0  0  0  0  0  0  0  0  0  0  0
  -21.9232  -11.0701   20.4333 O   0  0  0  0  0  0  0  0  0  0  0  0
  -28.6047  -27.2089   20.2277 O   0  0  0  0  0  0  0  0  0  1  0  0
  -24.2445   -6.2738   21.8512 F   0  0  0  0  0  0  0  0  0  0  0  0
  -20.5422   -9.2212   21.9555 F   0  0  0  0  0  0  0  0  0  0  0  0
  -27.5266  -22.1427   20.2499 Cl  0  0  0  0  0  0  0  0  0  0  0  0
  1  2  1  0  0  0  0
  1  5  2  0  0  0  0
  2  6  2  0  0  0  0
  3  8  2  0  0  0  0
  3 17  1  0  0  0  0
  4  9  1  0  0  0  0
  4 17  2  0  0  0  0
  5 19  1  0  0  0  0
  6 21  1  0  0  0  0
  7 10  2  0  0  0  0
  7 20  1  0  0  0  0
  8 26  1  0  0  0  0
  9 26  2  0  0  0  0
 10 27  1  0  0  0  0
 11 12  2  0  0  0  0
 11 28  1  0  0  0  0
 12 29  1  0  0  0  0
 13 22  1  0  0  0  0
 13 27  2  0  0  0  0
 14 23  1  0  0  0  0
 14 25  2  0  0  0  0
 15 24  1  0  0  0  0
 15 31  2  0  0  0  0
 16 29  2  0  0  0  0
 16 30  1  0  0  0  0
 17 32  1  0  0  0  0
 18 32  1  0  0  0  0
 18 33  2  0  0  0  0
 18 34  1  0  0  0  0
 19 21  2  0  0  0  0
 19 39  1  0  0  0  0
 20 22  2  0  0  0  0
 20 40  1  0  0  0  0
 21 51  1  0  0  0  0
 22 41  1  0  0  0  0
 23 24  2  0  0  0  0
 23 55  1  0  0  0  0
 24 67  1  0  0  0  0
 25 31  1  0  0  0  0
 25 72  1  0  0  0  0
 26 81  1  0  0  0  0
 27 82  1  0  0  0  0
 28 30  2  0  0  0  0
 28 81  1  0  0  0  0
 29 83  1  0  0  0  0
 30 84  1  0  0  0  0
 31 85  1  0  0  0  0
 32 65  2  0  0  0  0
 33 66  1  0  0  0  0
 33 70  1  0  0  0  0
 34 71  1  0  0  0  0
 34 76  2  0  0  0  0
 35 52  1  0  0  0  0
 35 73  1  0  0  0  0
 35 77  2  0  0  0  0
 36 62  1  0  0  0  0
 36 68  1  0  0  0  0
 36 78  2  0  0  0  0
 37 63  1  0  0  0  0
 37 74  1  0  0  0  0
 37 79  2  0  0  0  0
 38 69  1  0  0  0  0
 38 72  1  0  0  0  0
 38 80  2  0  0  0  0
 39 42  1  0  0  0  0
 40 52  1  0  0  0  0
 41 68  1  0  0  0  0
 42 45  1  0  0  0  0
 43 46  1  0  0  0  0
 43 49  1  0  0  0  0
 44 47  1  0  0  0  0
 44 48  1  0  0  0  0
 45 51  1  0  0  0  0
 46 53  1  0  0  0  0
 47 54  1  0  0  0  0
 48 67  1  0  0  0  0
 49 69  1  0  0  0  0
 50 53  1  0  0  0  0
 50 69  1  0  0  0  0
 51 73  1  0  0  0  0
 52 68  1  0  0  0  0
 53 66  1  0  0  0  0
 54 61  1  0  0  0  0
 54 67  1  0  0  0  0
 56 63  1  0  0  0  0
 57 64  1  0  0  0  0
 58 64  1  0  0  0  0
 59 64  1  0  0  0  0
 60 75  1  0  0  0  0
 61 82  1  0  0  0  0
 62 64  1  0  0  0  0
 62 74  1  0  0  0  0
 63 75  1  0  0  0  0
 65 66  1  0  0  0  0
M  CHG  1  75   1
M  ISO  4  38 100  61 101  72 100  82 101
M  END
> <Batch ID>
0025

> <Smiles>
CNC(C)C(=O)NC(C(=O)N1Cc2cc([101O:1][101CH2:1]C3CCCN3c3cc(Cl)c([100NH:0][100C:0](=O)N4CCCC(n5nc(-c6ccc(Oc7ccc(F)cc7F)cc6)c(C(N)=O)c5N)C4)cc3C)ccc2CC1C(=O)NC1CCCc2ccccc21)C(C)(C)C

> <Shape>
0.202

> <Color>
0.077

> <Negative vol penalty>
0.000

$$$$

  -OEChem-04042321223D

 91101  0     1  0  0  0  0  0999 V2000
  -16.2275  -26.5424   22.0828 C   0  0  0  0  0  0  0  0  0  0  0  0
  -17.4147  -26.3269   21.3903 C   0  0  0  0  0  0  0  0  0  0  0  0
  -23.5055   -8.9607   20.6353 C   0  0  0  0  0  0  0  0  0  0  0  0
  -23.3564  -11.1271   21.6942 C   0  0  0  0  0  0  0  0  0  0  0  0
  -16.1489  -27.5639   23.0284 C   0  0  0  0  0  0  0  0  0  0  0  0
  -18.5238  -27.1337   21.6423 C   0  0  0  0  0  0  0  0  0  0  0  0
  -22.8066  -24.4671   22.0806 C   0  0  0  0  0  0  0  0  0  0  0  0
  -29.5599  -19.2262   18.9058 C   0  0  0  0  0  0  0  0  0  0  0  0
  -29.6459  -17.9275   19.4073 C   0  0  0  0  0  0  0  0  0  0  0  0
  -22.5891   -8.4486   21.5538 C   0  0  0  0  0  0  0  0  0  0  0  0
  -22.4399  -10.6151   22.6127 C   0  0  0  0  0  0  0  0  0  0  0  0
  -23.4050  -24.0252   20.9014 C   0  0  0  0  0  0  0  0  0  0  0  0
  -19.1476   -9.8561   22.6849 C   0  0  0  0  0  0  0  0  0  0  0  0
  -18.0118  -10.6182   22.9583 C   0  0  0  0  0  0  0  0  0  0  0  0
  -24.9698  -25.8576   21.0160 C   0  0  0  0  0  0  0  0  0  0  0  0
  -27.2444  -19.3357   19.5864 C   0  0  0  0  0  0  0  0  0  0  0  0
  -18.6492  -10.7332   25.2858 C   0  0  0  0  0  0  0  0  0  0  0  0
  -23.8892  -10.2999   20.7055 C   0  0  0  0  0  0  0  0  0  0  0  0
  -24.6999  -10.8789   18.3571 C   0  0  0  0  0  0  0  0  0  0  0  0
  -17.2605  -28.3774   23.2990 C   0  0  0  0  0  0  0  0  0  0  0  0
  -23.2791  -25.6158   22.7315 C   0  0  0  0  0  0  0  0  0  0  0  0
  -18.4596  -28.1680   22.5914 C   0  0  0  0  0  0  0  0  0  0  0  0
  -24.3772  -26.3105   22.2046 C   0  0  0  0  0  0  0  0  0  0  0  0
  -27.3304  -18.0370   20.0880 C   0  0  0  0  0  0  0  0  0  0  0  0
  -28.3592  -19.9303   18.9954 C   0  0  0  0  0  0  0  0  0  0  0  0
  -28.5312  -17.3329   19.9984 C   0  0  0  0  0  0  0  0  0  0  0  0
  -22.0563   -9.2758   22.5425 C   0  0  0  0  0  0  0  0  0  0  0  0
  -24.4849  -24.7221   20.3674 C   0  0  0  0  0  0  0  0  0  0  0  0
  -20.0343   -9.5326   23.7120 C   0  0  0  0  0  0  0  0  0  0  0  0
  -17.7626  -11.0567   24.2587 C   0  0  0  0  0  0  0  0  0  0  0  0
  -19.7851   -9.9711   25.0124 C   0  0  0  0  0  0  0  0  0  0  0  0
  -24.8362  -10.8293   19.7573 C   0  0  0  0  0  0  0  0  0  0  0  0
  -25.8607  -11.4686   17.9198 C   0  0  0  0  0  0  0  0  0  0  0  0
  -27.3886  -22.2133   19.0555 C   0  0  0  0  0  0  0  0  0  0  0  0
  -23.6205  -10.4319   17.5260 C   0  0  0  0  0  0  0  0  0  0  0  0
  -22.0390  -28.4493   23.4641 C   0  0  0  0  0  0  0  0  0  0  0  0
  -24.8494  -28.8372   25.0368 C   0  0  0  0  0  0  0  0  0  0  0  0
  -28.3299  -28.1067   24.4287 C   0  0  0  0  0  0  0  0  0  0  0  0
  -29.7661  -15.1921   20.4866 C   0  0  0  0  0  0  0  0  0  0  0  0
  -17.1133  -29.4995   24.2959 C   0  0  0  0  0  0  0  0  0  0  0  0
  -22.6397  -26.0641   24.0170 C   0  0  0  0  0  0  0  0  0  0  0  0
  -24.9355  -27.5378   22.8759 C   0  0  0  0  0  0  0  0  0  0  0  0
  -18.4467  -30.0689   24.7734 C   0  0  0  0  0  0  0  0  0  0  0  0
  -28.8954  -22.8768   16.6308 C   0  0  0  0  0  0  0  0  0  0  0  0
  -30.4723  -11.9890   19.1015 C   0  0  0  0  0  0  0  0  0  0  0  0
  -23.8206  -16.0854   18.1590 C   0  0  0  0  0  0  0  0  0  0  0  0
  -23.1187  -15.9470   19.4950 C   0  0  0  0  0  0  0  0  0  0  0  0
  -19.3768  -30.3146   23.5896 C   0  0  0  0  0  0  0  0  0  0  0  0
  -28.3249  -23.9827   17.4922 C   0  0  0  0  0  0  0  0  0  0  0  0
  -29.0941  -11.3349   18.9794 C   0  0  0  0  0  0  0  0  0  0  0  0
  -29.2908  -21.6961   17.5005 C   0  0  0  0  0  0  0  0  0  0  0  0
  -30.5827  -12.8486   20.3595 C   0  0  0  0  0  0  0  0  0  0  0  0
  -28.1443  -13.1977   20.3989 C   0  0  0  0  0  0  0  0  0  0  0  0
  -25.0208  -16.9406   18.5041 C   0  0  0  0  0  0  0  0  0  0  0  0
  -24.2501  -15.7358   20.4858 C   0  0  0  0  0  0  0  0  0  0  0  0
  -19.6918  -29.0061   22.8546 C   0  0  1  0  0  0  0  0  0  0  0  0
  -27.0914  -23.4567   18.2107 C   0  0  2  0  0  0  0  0  0  0  0  0
  -22.8763  -27.5406   24.3190 C   0  0  1  0  0  0  0  0  0  0  0  0
  -27.9635  -12.3737   19.1135 C   0  0  2  0  0  0  0  0  0  0  0  0
  -30.2102  -27.6721   26.0328 C   0  0  0  0  0  0  0  0  0  0  0  0
  -25.3991  -31.8248   24.7503 C   0  0  0  0  0  0  0  0  0  0  0  0
  -27.8483  -31.3086   24.8059 C   0  0  0  0  0  0  0  0  0  0  0  0
  -26.4162  -30.7664   26.7751 C   0  0  0  0  0  0  0  0  0  0  0  0
  -28.9713  -25.5133   23.1552 C   0  0  0  0  0  0  0  0  0  0  0  0
  -26.1212  -17.4254   20.7179 C   0  0  0  0  0  0  0  0  0  0  0  0
  -26.4620  -24.5652   19.0550 C   0  0  0  0  0  0  0  0  0  1  0  0
  -26.2123  -29.3755   24.6737 C   0  0  1  0  0  0  0  0  0  0  0  0
  -29.1696  -27.0460   25.1174 C   0  0  2  0  0  0  0  0  0  0  0  0
  -26.4521  -30.8068   25.2318 C   0  0  0  0  0  0  0  0  0  0  0  0
  -25.9925  -11.3461   20.1815 N   0  0  0  0  0  0  0  0  0  0  0  0
  -26.5933  -11.7260   19.0410 N   0  0  0  0  0  0  0  0  0  0  0  0
  -28.2710  -21.2788   18.4774 N   0  0  0  0  0  0  0  0  0  0  0  0
  -24.2720  -27.9401   24.1271 N   0  0  0  0  0  0  0  0  0  0  0  0
  -29.4812  -13.8120   20.4168 N   0  0  0  0  0  0  0  0  0  0  0  0
  -26.3160  -11.7867   16.6894 N   0  0  0  0  0  0  0  0  0  0  0  0
  -22.5884  -11.3326   17.2294 N   0  0  0  0  0  0  0  0  0  0  0  0
  -28.6392  -16.0134   20.5033 N   0  0  0  0  0  0  0  0  0  0  0  0
  -20.6785  -28.2405   23.5859 N   0  0  0  0  0  0  0  0  0  0  0  0
  -27.1787  -28.3846   25.1348 N   0  0  0  0  0  0  0  0  0  0  0  0
  -25.4552  -16.4057   19.8511 N   0  3  0  0  0  0  0  0  0  0  0  0
  -29.8756  -26.2078   24.1074 N   0  3  0  0  0  0  0  0  0  0  0  0
  -26.8108  -22.0572   20.1344 O   0  0  0  0  0  0  0  0  0  0  0  0
  -23.5643   -9.2633   17.0735 O   0  0  0  0  0  0  0  0  0  0  0  0
  -22.5867  -29.2795   22.7481 O   0  0  0  0  0  0  0  0  0  0  0  0
  -24.3199  -29.1939   26.0923 O   0  0  0  0  0  0  0  0  0  0  0  0
  -28.6638  -28.6383   23.3721 O   0  0  0  0  0  0  0  0  0  0  0  0
  -30.9247  -15.6156   20.5009 O   0  0  0  0  0  0  0  0  0  0  0  0
  -21.1619   -8.7766   23.4388 O   0  0  0  0  0  0  0  0  0  0  0  0
  -25.0704  -24.2934   19.2162 O   0  0  0  0  0  0  0  0  0  1  0  0
  -16.6726  -11.7898   24.5209 F   0  0  0  0  0  0  0  0  0  0  0  0
  -20.6339   -9.6644   26.0030 F   0  0  0  0  0  0  0  0  0  0  0  0
  1  2  1  0  0  0  0
  1  5  2  0  0  0  0
  2  6  2  0  0  0  0
  3 10  2  0  0  0  0
  3 18  1  0  0  0  0
  4 11  1  0  0  0  0
  4 18  2  0  0  0  0
  5 20  1  0  0  0  0
  6 22  1  0  0  0  0
  7 12  2  0  0  0  0
  7 21  1  0  0  0  0
  8  9  2  0  0  0  0
  8 25  1  0  0  0  0
  9 26  1  0  0  0  0
 10 27  1  0  0  0  0
 11 27  2  0  0  0  0
 12 28  1  0  0  0  0
 13 14  2  0  0  0  0
 13 29  1  0  0  0  0
 14 30  1  0  0  0  0
 15 23  1  0  0  0  0
 15 28  2  0  0  0  0
 16 24  1  0  0  0  0
 16 25  2  0  0  0  0
 17 30  2  0  0  0  0
 17 31  1  0  0  0  0
 18 32  1  0  0  0  0
 19 32  1  0  0  0  0
 19 33  2  0  0  0  0
 19 35  1  0  0  0  0
 20 22  2  0  0  0  0
 20 40  1  0  0  0  0
 21 23  2  0  0  0  0
 21 41  1  0  0  0  0
 22 56  1  0  0  0  0
 23 42  1  0  0  0  0
 24 26  2  0  0  0  0
 24 65  1  0  0  0  0
 25 72  1  0  0  0  0
 26 77  1  0  0  0  0
 27 88  1  0  0  0  0
 28 89  1  0  0  0  0
 29 31  2  0  0  0  0
 29 88  1  0  0  0  0
 30 90  1  0  0  0  0
 31 91  1  0  0  0  0
 32 70  2  0  0  0  0
 33 71  1  0  0  0  0
 33 75  1  0  0  0  0
 34 57  1  0  0  0  0
 34 72  1  0  0  0  0
 34 82  2  0  0  0  0
 35 76  1  0  0  0  0
 35 83  2  0  0  0  0
 36 58  1  0  0  0  0
 36 78  1  0  0  0  0
 36 84  2  0  0  0  0
 37 67  1  0  0  0  0
 37 73  1  0  0  0  0
 37 85  2  0  0  0  0
 38 68  1  0  0  0  0
 38 79  1  0  0  0  0
 38 86  2  0  0  0  0
 39 74  1  0  0  0  0
 39 77  1  0  0  0  0
 39 87  2  0  0  0  0
 40 43  1  0  0  0  0
 41 58  1  0  0  0  0
 42 73  1  0  0  0  0
 43 48  1  0  0  0  0
 44 49  1  0  0  0  0
 44 51  1  0  0  0  0
 45 50  1  0  0  0  0
 45 52  1  0  0  0  0
 46 47  1  0  0  0  0
 46 54  1  0  0  0  0
 47 55  1  0  0  0  0
 48 56  1  0  0  0  0
 49 57  1  0  0  0  0
 50 59  1  0  0  0  0
 51 72  1  0  0  0  0
 52 74  1  0  0  0  0
 53 59  1  0  0  0  0
 53 74  1  0  0  0  0
 54 80  1  0  0  0  0
 55 80  1  0  0  0  0
 56 78  1  0  0  0  0
 57 66  1  0  0  0  0
 58 73  1  0  0  0  0
 59 71  1  0  0  0  0
 60 68  1  0  0  0  0
 61 69  1  0  0  0  0
 62 69  1  0  0  0  0
 63 69  1  0  0  0  0
 64 81  1  0  0  0  0
 65 80  1  0  0  0  0
 66 89  1  0  0  0  0
 67 69  1  0  0  0  0
 67 79  1  0  0  0  0
 68 81  1  0  0  0  0
 70 71  1  0  0  0  0
M  CHG  2  80   1  81   1
M  ISO  4  39 100  66 101  77 100  89 101
M  END
> <Batch ID>
0025

> <Smiles>
CNC(C)C(=O)NC(C(=O)N1Cc2cc([101O:1][101CH2:1]C3CCCN(c4ccc([100NH:0][100C:0](=O)N5CCCC(n6nc(-c7ccc(Oc8ccc(F)cc8F)cc7)c(C(N)=O)c6N)C5)c(CN5CCCC5)c4)C3=O)ccc2CC1C(=O)NC1CCCc2ccccc21)C(C)(C)C

> <Shape>
0.251

> <Color>
0.084

> <Negative vol penalty>
0.000

$$$$

  -OEChem-04042321223D

 89 98  0     1  0  0  0  0  0999 V2000
  -22.1173  -36.8601   15.2775 C   0  0  0  0  0  0  0  0  0  0  0  0
  -23.2614  -36.7317   16.0584 C   0  0  0  0  0  0  0  0  0  0  0  0
  -22.8920   -9.7607   20.0125 C   0  0  0  0  0  0  0  0  0  0  0  0
  -24.4157   -9.1801   21.7953 C   0  0  0  0  0  0  0  0  0  0  0  0
  -20.9088  -36.3236   15.7200 C   0  0  0  0  0  0  0  0  0  0  0  0
  -23.1974  -36.0676   17.2829 C   0  0  0  0  0  0  0  0  0  0  0  0
  -27.2972  -30.2898   18.5868 C   0  0  0  0  0  0  0  0  0  0  0  0
  -24.8849  -20.6229   18.8923 C   0  0  0  0  0  0  0  0  0  0  0  0
  -21.8714   -9.0620   20.6572 C   0  0  0  0  0  0  0  0  0  0  0  0
  -23.3951   -8.4814   22.4400 C   0  0  0  0  0  0  0  0  0  0  0  0
  -28.2008  -29.3059   18.9888 C   0  0  0  0  0  0  0  0  0  0  0  0
  -21.8696   -5.4772   22.1594 C   0  0  0  0  0  0  0  0  0  0  0  0
  -24.1506  -19.4601   18.6592 C   0  0  0  0  0  0  0  0  0  0  0  0
  -22.1716   -4.2158   22.6724 C   0  0  0  0  0  0  0  0  0  0  0  0
  -27.0884  -29.1443   21.1300 C   0  0  0  0  0  0  0  0  0  0  0  0
  -26.6071  -19.3186   19.9739 C   0  0  0  0  0  0  0  0  0  0  0  0
  -21.5886   -4.9780   24.8897 C   0  0  0  0  0  0  0  0  0  0  0  0
  -24.1642   -9.8197   20.5815 C   0  0  0  0  0  0  0  0  0  0  0  0
  -25.7390  -10.2930   18.6311 C   0  0  0  0  0  0  0  0  0  0  0  0
  -20.8321  -35.6443   16.9460 C   0  0  0  0  0  0  0  0  0  0  0  0
  -26.2752  -30.6942   19.4501 C   0  0  0  0  0  0  0  0  0  0  0  0
  -21.9865  -35.5228   17.7429 C   0  0  0  0  0  0  0  0  0  0  0  0
  -26.1729  -30.1205   20.7281 C   0  0  0  0  0  0  0  0  0  0  0  0
  -26.1132  -20.5521   19.5496 C   0  0  0  0  0  0  0  0  0  0  0  0
  -25.8728  -18.1558   19.7408 C   0  0  0  0  0  0  0  0  0  0  0  0
  -22.1229   -8.4224   21.8710 C   0  0  0  0  0  0  0  0  0  0  0  0
  -28.0968  -28.7348   20.2574 C   0  0  0  0  0  0  0  0  0  0  0  0
  -21.4272   -6.4891   23.0115 C   0  0  0  0  0  0  0  0  0  0  0  0
  -22.0311   -3.9662   24.0375 C   0  0  0  0  0  0  0  0  0  0  0  0
  -24.6446  -18.2265   19.0835 C   0  0  0  0  0  0  0  0  0  0  0  0
  -21.2867   -6.2395   24.3766 C   0  0  0  0  0  0  0  0  0  0  0  0
  -25.2191  -10.5409   19.9157 C   0  0  0  0  0  0  0  0  0  0  0  0
  -26.7151  -11.2450   18.4661 C   0  0  0  0  0  0  0  0  0  0  0  0
  -25.3722   -9.2917   17.6727 C   0  0  0  0  0  0  0  0  0  0  0  0
  -23.2882  -32.8981   19.9945 C   0  0  0  0  0  0  0  0  0  0  0  0
  -22.6126  -30.1648   21.2123 C   0  0  0  0  0  0  0  0  0  0  0  0
  -21.0747  -27.3441   22.3592 C   0  0  0  0  0  0  0  0  0  0  0  0
  -27.5777  -16.6609   20.8387 C   0  0  0  0  0  0  0  0  0  0  0  0
  -19.4933  -35.1225   17.4044 C   0  0  0  0  0  0  0  0  0  0  0  0
  -25.3171  -31.7944   19.0823 C   0  0  0  0  0  0  0  0  0  0  0  0
  -25.0786  -30.6113   21.6362 C   0  0  0  0  0  0  0  0  0  0  0  0
  -19.5916  -34.1073   18.5401 C   0  0  0  0  0  0  0  0  0  0  0  0
  -29.8196  -13.8979   20.9678 C   0  0  0  0  0  0  0  0  0  0  0  0
  -20.5451  -34.6064   19.6212 C   0  0  0  0  0  0  0  0  0  0  0  0
  -28.9430  -12.7018   20.5899 C   0  0  0  0  0  0  0  0  0  0  0  0
  -29.0558  -14.9166   21.8121 C   0  0  0  0  0  0  0  0  0  0  0  0
  -26.9087  -14.1774   20.8566 C   0  0  0  0  0  0  0  0  0  0  0  0
  -28.3128  -21.6471   19.8372 C   0  0  0  0  0  0  0  0  0  0  0  0
  -26.8592  -24.1616   20.0697 C   0  0  0  0  0  0  0  0  0  0  0  0
  -21.9627  -34.7879   19.0655 C   0  0  1  0  0  0  0  0  0  0  0  0
  -23.9009  -31.5742   19.6437 C   0  0  1  0  0  0  0  0  0  0  0  0
  -27.6155  -13.1554   19.9513 C   0  0  2  0  0  0  0  0  0  0  0  0
  -26.1945  -22.8444   20.4688 C   0  0  2  0  0  0  0  0  0  0  0  0
  -28.9657  -22.9789   19.4430 C   0  0  2  0  0  0  0  0  0  0  0  0
  -26.2013  -22.6260   21.9862 C   0  0  0  0  0  0  0  0  0  0  0  0
  -30.4745  -22.8987   19.6724 C   0  0  0  0  0  0  0  0  0  0  0  0
  -19.2460  -26.5860   23.9014 C   0  0  0  0  0  0  0  0  0  0  0  0
  -28.7477  -26.1868   22.4436 C   0  0  0  0  0  0  0  0  0  0  0  0
  -24.4103  -30.7233   23.6124 C   0  0  0  0  0  0  0  0  0  0  0  0
  -23.0075  -29.1330   24.9433 C   0  0  0  0  0  0  0  0  0  0  0  0
  -21.9847  -31.1998   23.9920 C   0  0  0  0  0  0  0  0  0  0  0  0
  -19.5759  -26.0738   20.1458 C   0  0  0  0  0  0  0  0  0  0  0  0
  -28.9662  -25.4555   20.0020 C   0  0  0  0  0  0  0  0  0  0  0  0
  -22.6017  -29.2973   22.4454 C   0  0  1  0  0  0  0  0  0  0  0  0
  -19.6073  -26.9730   22.4758 C   0  0  2  0  0  0  0  0  0  0  0  0
  -28.4389  -26.4961   20.9846 C   0  0  2  0  0  0  0  0  0  1  0  0
  -23.0137  -30.0798   23.7242 C   0  0  0  0  0  0  0  0  0  0  0  0
  -25.8157  -11.5697   20.5237 N   0  0  0  0  0  0  0  0  0  0  0  0
  -26.7206  -11.9766   19.6172 N   0  0  0  0  0  0  0  0  0  0  0  0
  -26.8504  -21.7194   19.7829 N   0  0  2  0  0  0  0  0  0  0  0  0
  -23.8290  -30.7713   20.8763 N   0  0  0  0  0  0  0  0  0  0  0  0
  -27.8119  -15.3031   21.1425 N   0  0  0  0  0  0  0  0  0  0  0  0
  -27.5607  -11.5194   17.4502 N   0  0  0  0  0  0  0  0  0  0  0  0
  -26.0330   -8.0563   17.7110 N   0  0  0  0  0  0  0  0  0  0  0  0
  -26.3768  -16.9039   20.1728 N   0  0  0  0  0  0  0  0  0  0  0  0
  -22.6263  -33.5074   18.9455 N   0  0  0  0  0  0  0  0  0  0  0  0
  -21.2724  -28.7000   22.5126 N   0  0  0  0  0  0  0  0  0  0  0  0
  -28.3562  -24.1003   20.2677 N   0  3  1  0  0  0  0  0  0  0  0  0
  -19.2911  -25.8231   21.5821 N   0  3  0  0  0  0  0  0  0  0  0  0
  -24.4963   -9.4926   16.7975 O   0  0  0  0  0  0  0  0  0  0  0  0
  -23.4052  -33.3353   21.1333 O   0  0  0  0  0  0  0  0  0  0  0  0
  -21.5709  -30.3073   20.5659 O   0  0  0  0  0  0  0  0  0  0  0  0
  -21.9576  -26.5136   22.1562 O   0  0  0  0  0  0  0  0  0  0  0  0
  -28.3956  -17.5399   21.1223 O   0  0  0  0  0  0  0  0  0  0  0  0
  -21.1271   -7.7407   22.5005 O   0  0  0  0  0  0  0  0  0  0  0  0
  -28.9794  -27.7715   20.6418 O   0  0  0  0  0  0  0  0  0  1  0  0
  -22.3196   -2.7543   24.5298 F   0  0  0  0  0  0  0  0  0  0  0  0
  -23.9301  -17.1155   18.8542 F   0  0  0  0  0  0  0  0  0  0  0  0
  -20.8609   -7.2073   25.2000 F   0  0  0  0  0  0  0  0  0  0  0  0
  1  2  1  0  0  0  0
  1  5  2  0  0  0  0
  2  6  2  0  0  0  0
  3  9  2  0  0  0  0
  3 18  1  0  0  0  0
  4 10  1  0  0  0  0
  4 18  2  0  0  0  0
  5 20  1  0  0  0  0
  6 22  1  0  0  0  0
  7 11  2  0  0  0  0
  7 21  1  0  0  0  0
  8 13  2  0  0  0  0
  8 24  1  0  0  0  0
  9 26  1  0  0  0  0
 10 26  2  0  0  0  0
 11 27  1  0  0  0  0
 12 14  2  0  0  0  0
 12 28  1  0  0  0  0
 13 30  1  0  0  0  0
 14 29  1  0  0  0  0
 15 23  1  0  0  0  0
 15 27  2  0  0  0  0
 16 24  2  0  0  0  0
 16 25  1  0  0  0  0
 17 29  2  0  0  0  0
 17 31  1  0  0  0  0
 18 32  1  0  0  0  0
 19 32  1  0  0  0  0
 19 33  2  0  0  0  0
 19 34  1  0  0  0  0
 20 22  2  0  0  0  0
 20 39  1  0  0  0  0
 21 23  2  0  0  0  0
 21 40  1  0  0  0  0
 22 50  1  0  0  0  0
 23 41  1  0  0  0  0
 24 70  1  0  0  0  0
 25 30  2  0  0  0  0
 25 75  1  0  0  0  0
 26 85  1  0  0  0  0
 27 86  1  0  0  0  0
 28 31  2  0  0  0  0
 28 85  1  0  0  0  0
 29 87  1  0  0  0  0
 30 88  1  0  0  0  0
 31 89  1  0  0  0  0
 32 68  2  0  0  0  0
 33 69  1  0  0  0  0
 33 73  1  0  0  0  0
 34 74  1  0  0  0  0
 34 80  2  0  0  0  0
 35 51  1  0  0  0  0
 35 76  1  0  0  0  0
 35 81  2  0  0  0  0
 36 64  1  0  0  0  0
 36 71  1  0  0  0  0
 36 82  2  0  0  0  0
 37 65  1  0  0  0  0
 37 77  1  0  0  0  0
 37 83  2  0  0  0  0
 38 72  1  0  0  0  0
 38 75  1  0  0  0  0
 38 84  2  0  0  0  0
 39 42  1  0  0  0  0
 40 51  1  0  0  0  0
 41 71  1  0  0  0  0
 42 44  1  0  0  0  0
 43 45  1  0  0  0  0
 43 46  1  0  0  0  0
 44 50  1  0  0  0  0
 45 52  1  0  0  0  0
 46 72  1  0  0  0  0
 47 52  1  0  0  0  0
 47 72  1  0  0  0  0
 48 54  1  0  0  0  0
 48 70  1  0  0  0  0
 49 53  1  0  0  0  0
 49 78  1  0  0  0  0
 50 76  1  0  0  0  0
 51 71  1  0  0  0  0
 52 69  1  0  0  0  0
 53 55  1  0  0  0  0
 53 70  1  0  0  0  0
 54 56  1  0  0  0  0
 54 78  1  0  0  0  0
 57 65  1  0  0  0  0
 58 66  1  0  0  0  0
 59 67  1  0  0  0  0
 60 67  1  0  0  0  0
 61 67  1  0  0  0  0
 62 79  1  0  0  0  0
 63 66  1  0  0  0  0
 63 78  1  0  0  0  0
 64 67  1  0  0  0  0
 64 77  1  0  0  0  0
 65 79  1  0  0  0  0
 66 86  1  0  0  0  0
 68 69  1  0  0  0  0
M  CHG  2  78   1  79   1
M  ISO  4  38 100  66 101  75 100  86 101
M  END
> <Batch ID>
0025

> <Smiles>
CNC(C)C(=O)NC(C(=O)N1Cc2cc([101O:1][101CH:1](C)CN3CC(C)N(c4ccc(F)c([100NH:0][100C:0](=O)N5CCCC(n6nc(-c7ccc(Oc8ccc(F)cc8F)cc7)c(C(N)=O)c6N)C5)c4)CC3C)ccc2CC1C(=O)NC1CCCc2ccccc21)C(C)(C)C

> <Shape>
0.283

> <Color>
0.080

> <Negative vol penalty>
0.000

$$$$

  -OEChem-04042321223D

 88 97  0     1  0  0  0  0  0999 V2000
  -29.9081  -36.4557   20.4960 C   0  0  0  0  0  0  0  0  0  0  0  0
  -30.1698  -35.0917   20.5753 C   0  0  0  0  0  0  0  0  0  0  0  0
  -24.4385   -9.4519   21.5163 C   0  0  0  0  0  0  0  0  0  0  0  0
  -24.9736  -10.7484   23.4836 C   0  0  0  0  0  0  0  0  0  0  0  0
  -28.8218  -36.9970   21.1822 C   0  0  0  0  0  0  0  0  0  0  0  0
  -29.3459  -34.2682   21.3419 C   0  0  0  0  0  0  0  0  0  0  0  0
  -27.8024  -28.4639   20.1447 C   0  0  0  0  0  0  0  0  0  0  0  0
  -24.1558   -8.3480   22.3207 C   0  0  0  0  0  0  0  0  0  0  0  0
  -24.6909   -9.6444   24.2880 C   0  0  0  0  0  0  0  0  0  0  0  0
  -28.2936  -27.2467   20.6147 C   0  0  0  0  0  0  0  0  0  0  0  0
  -21.6114   -7.2735   24.2712 C   0  0  0  0  0  0  0  0  0  0  0  0
  -20.4525   -6.5487   23.9934 C   0  0  0  0  0  0  0  0  0  0  0  0
  -26.5363  -27.1822   22.2661 C   0  0  0  0  0  0  0  0  0  0  0  0
  -28.7753  -20.1589   21.7206 C   0  0  0  0  0  0  0  0  0  0  0  0
  -30.1798  -18.8157   19.7191 C   0  0  0  0  0  0  0  0  0  0  0  0
  -21.7832   -4.5704   23.6030 C   0  0  0  0  0  0  0  0  0  0  0  0
  -24.8475  -10.6521   22.0977 C   0  0  0  0  0  0  0  0  0  0  0  0
  -24.2427  -12.7943   20.8516 C   0  0  0  0  0  0  0  0  0  0  0  0
  -27.9785  -36.1783   21.9498 C   0  0  0  0  0  0  0  0  0  0  0  0
  -26.6792  -29.0558   20.7399 C   0  0  0  0  0  0  0  0  0  0  0  0
  -28.2481  -34.7993   22.0401 C   0  0  0  0  0  0  0  0  0  0  0  0
  -26.0314  -28.4057   21.8001 C   0  0  0  0  0  0  0  0  0  0  0  0
  -29.3895  -20.8792   20.6962 C   0  0  0  0  0  0  0  0  0  0  0  0
  -29.5656  -18.0954   20.7437 C   0  0  0  0  0  0  0  0  0  0  0  0
  -24.2820   -8.4443   23.7065 C   0  0  0  0  0  0  0  0  0  0  0  0
  -27.6623  -26.6071   21.6774 C   0  0  0  0  0  0  0  0  0  0  0  0
  -22.8563   -6.6467   24.2149 C   0  0  0  0  0  0  0  0  0  0  0  0
  -28.8635  -18.7670   21.7444 C   0  0  0  0  0  0  0  0  0  0  0  0
  -20.5383   -5.1972   23.6593 C   0  0  0  0  0  0  0  0  0  0  0  0
  -30.0917  -20.2076   19.6954 C   0  0  0  0  0  0  0  0  0  0  0  0
  -22.9422   -5.2951   23.8808 C   0  0  0  0  0  0  0  0  0  0  0  0
  -25.1402  -11.7926   21.2673 C   0  0  0  0  0  0  0  0  0  0  0  0
  -25.0051  -13.6425   20.0863 C   0  0  0  0  0  0  0  0  0  0  0  0
  -22.8447  -12.9446   21.1322 C   0  0  0  0  0  0  0  0  0  0  0  0
  -26.1326  -31.7797   22.2844 C   0  0  0  0  0  0  0  0  0  0  0  0
  -23.0508  -30.7741   22.1683 C   0  0  0  0  0  0  0  0  0  0  0  0
  -28.6459  -23.1128   21.5863 C   0  0  0  0  0  0  0  0  0  0  0  0
  -20.8611  -28.1703   21.9000 C   0  0  0  0  0  0  0  0  0  0  0  0
  -30.3260  -15.8746   19.8292 C   0  0  0  0  0  0  0  0  0  0  0  0
  -26.8442  -36.8164   22.7120 C   0  0  0  0  0  0  0  0  0  0  0  0
  -26.1458  -30.3560   20.2038 C   0  0  0  0  0  0  0  0  0  0  0  0
  -24.8100  -28.9893   22.4605 C   0  0  0  0  0  0  0  0  0  0  0  0
  -25.7995  -35.8161   23.2001 C   0  0  0  0  0  0  0  0  0  0  0  0
  -26.5871  -17.4991   25.1638 C   0  0  0  0  0  0  0  0  0  0  0  0
  -26.3872  -16.3010   24.2353 C   0  0  0  0  0  0  0  0  0  0  0  0
  -29.3017  -13.2390   17.6655 C   0  0  0  0  0  0  0  0  0  0  0  0
  -26.4754  -34.6117   23.8478 C   0  0  0  0  0  0  0  0  0  0  0  0
  -28.0362  -12.6941   18.3317 C   0  0  0  0  0  0  0  0  0  0  0  0
  -26.5199  -18.7428   24.2786 C   0  0  0  0  0  0  0  0  0  0  0  0
  -26.1609  -16.8791   22.8406 C   0  0  0  0  0  0  0  0  0  0  0  0
  -30.3470  -13.6634   18.6955 C   0  0  0  0  0  0  0  0  0  0  0  0
  -28.5991  -14.0520   20.3875 C   0  0  0  0  0  0  0  0  0  0  0  0
  -27.3628  -33.8695   22.8412 C   0  0  1  0  0  0  0  0  0  0  0  0
  -25.3024  -31.1202   21.2197 C   0  0  1  0  0  0  0  0  0  0  0  0
  -27.4915  -13.6719   19.3913 C   0  0  2  0  0  0  0  0  0  0  0  0
  -26.8479  -18.2356   22.8827 C   0  0  0  0  0  0  0  0  0  0  0  0
  -18.4049  -27.6565   21.8752 C   0  0  0  0  0  0  0  0  0  0  0  0
  -22.9420  -31.1605   25.1930 C   0  0  0  0  0  0  0  0  0  0  0  0
  -20.8621  -29.7672   25.2262 C   0  0  0  0  0  0  0  0  0  0  0  0
  -20.8978  -31.9220   23.9698 C   0  0  0  0  0  0  0  0  0  0  0  0
  -21.0060  -27.0443   19.1668 C   0  0  0  0  0  0  0  0  0  0  0  0
  -28.7931  -24.5714   21.1947 C   0  0  0  0  0  0  0  0  0  1  0  0
  -22.1661  -29.9341   23.0576 C   0  0  1  0  0  0  0  0  0  0  0  0
  -19.6305  -27.9742   21.0329 C   0  0  2  0  0  0  0  0  0  0  0  0
  -21.7411  -30.6857   24.3507 C   0  0  0  0  0  0  0  0  0  0  0  0
  -26.3782  -11.9851   20.8043 N   0  0  0  0  0  0  0  0  0  0  0  0
  -26.2639  -13.1175   20.0897 N   0  0  0  0  0  0  0  0  0  0  0  0
  -24.3305  -30.2654   21.9045 N   0  0  0  0  0  0  0  0  0  0  0  0
  -29.7606  -14.5925   19.6638 N   0  0  0  0  0  0  0  0  0  0  0  0
  -24.7149  -14.7786   19.4174 N   0  0  0  0  0  0  0  0  0  0  0  0
  -22.2173  -11.9829   21.9358 N   0  0  0  0  0  0  0  0  0  0  0  0
  -29.2997  -22.2913   20.6742 N   0  0  0  0  0  0  0  0  0  0  0  0
  -29.6639  -16.6819   20.7536 N   0  0  0  0  0  0  0  0  0  0  0  0
  -26.5546  -33.0548   21.9595 N   0  0  0  0  0  0  0  0  0  0  0  0
  -21.0497  -29.4965   22.2266 N   0  0  0  0  0  0  0  0  0  0  0  0
  -19.8455  -26.8534   20.0744 N   0  3  0  0  0  0  0  0  0  0  0  0
  -22.1681  -13.8945   20.6702 O   0  0  0  0  0  0  0  0  0  0  0  0
  -26.3714  -31.1769   23.3243 O   0  0  0  0  0  0  0  0  0  0  0  0
  -22.6197  -31.8386   21.7183 O   0  0  0  0  0  0  0  0  0  0  0  0
  -28.0202  -22.7759   22.5860 O   0  0  0  0  0  0  0  0  0  0  0  0
  -21.5807  -27.2395   22.2554 O   0  0  0  0  0  0  0  0  0  0  0  0
  -31.3077  -16.2399   19.1774 O   0  0  0  0  0  0  0  0  0  0  0  0
  -24.0059   -7.3673   24.4918 O   0  0  0  0  0  0  0  0  0  0  0  0
  -28.2559  -18.0820   22.7542 O   0  0  0  0  0  0  0  0  0  0  0  0
  -28.1400  -25.4192   22.1386 O   0  0  0  0  0  0  0  0  0  1  0  0
  -19.4252   -4.5010   23.3940 F   0  0  0  0  0  0  0  0  0  0  0  0
  -30.6876  -20.8898   18.7070 F   0  0  0  0  0  0  0  0  0  0  0  0
  -24.1352   -4.6872   23.8263 F   0  0  0  0  0  0  0  0  0  0  0  0
  1  2  1  0  0  0  0
  1  5  2  0  0  0  0
  2  6  2  0  0  0  0
  3  8  2  0  0  0  0
  3 17  1  0  0  0  0
  4  9  1  0  0  0  0
  4 17  2  0  0  0  0
  5 19  1  0  0  0  0
  6 21  1  0  0  0  0
  7 10  2  0  0  0  0
  7 20  1  0  0  0  0
  8 25  1  0  0  0  0
  9 25  2  0  0  0  0
 10 26  1  0  0  0  0
 11 12  2  0  0  0  0
 11 27  1  0  0  0  0
 12 29  1  0  0  0  0
 13 22  1  0  0  0  0
 13 26  2  0  0  0  0
 14 23  1  0  0  0  0
 14 28  2  0  0  0  0
 15 24  2  0  0  0  0
 15 30  1  0  0  0  0
 16 29  2  0  0  0  0
 16 31  1  0  0  0  0
 17 32  1  0  0  0  0
 18 32  1  0  0  0  0
 18 33  2  0  0  0  0
 18 34  1  0  0  0  0
 19 21  2  0  0  0  0
 19 40  1  0  0  0  0
 20 22  2  0  0  0  0
 20 41  1  0  0  0  0
 21 53  1  0  0  0  0
 22 42  1  0  0  0  0
 23 30  2  0  0  0  0
 23 72  1  0  0  0  0
 24 28  1  0  0  0  0
 24 73  1  0  0  0  0
 25 83  1  0  0  0  0
 26 85  1  0  0  0  0
 27 31  2  0  0  0  0
 27 83  1  0  0  0  0
 28 84  1  0  0  0  0
 29 86  1  0  0  0  0
 30 87  1  0  0  0  0
 31 88  1  0  0  0  0
 32 66  2  0  0  0  0
 33 67  1  0  0  0  0
 33 70  1  0  0  0  0
 34 71  1  0  0  0  0
 34 77  2  0  0  0  0
 35 54  1  0  0  0  0
 35 74  1  0  0  0  0
 35 78  2  0  0  0  0
 36 63  1  0  0  0  0
 36 68  1  0  0  0  0
 36 79  2  0  0  0  0
 37 62  1  0  0  0  0
 37 72  1  0  0  0  0
 37 80  2  0  0  0  0
 38 64  1  0  0  0  0
 38 75  1  0  0  0  0
 38 81  2  0  0  0  0
 39 69  1  0  0  0  0
 39 73  1  0  0  0  0
 39 82  2  0  0  0  0
 40 43  1  0  0  0  0
 41 54  1  0  0  0  0
 42 68  1  0  0  0  0
 43 47  1  0  0  0  0
 44 45  1  0  0  0  0
 44 49  1  0  0  0  0
 45 50  1  0  0  0  0
 46 48  1  0  0  0  0
 46 51  1  0  0  0  0
 47 53  1  0  0  0  0
 48 55  1  0  0  0  0
 49 56  1  0  0  0  0
 50 56  1  0  0  0  0
 51 69  1  0  0  0  0
 52 55  1  0  0  0  0
 52 69  1  0  0  0  0
 53 74  1  0  0  0  0
 54 68  1  0  0  0  0
 55 67  1  0  0  0  0
 56 84  1  0  0  0  0
 57 64  1  0  0  0  0
 58 65  1  0  0  0  0
 59 65  1  0  0  0  0
 60 65  1  0  0  0  0
 61 76  1  0  0  0  0
 62 85  1  0  0  0  0
 63 65  1  0  0  0  0
 63 75  1  0  0  0  0
 64 76  1  0  0  0  0
 66 67  1  0  0  0  0
M  CHG  1  76   1
M  ISO  4  39 100  62 101  73 100  85 101
M  END
> <Batch ID>
0025

> <Smiles>
CNC(C)C(=O)NC(C(=O)N1Cc2cc([101O:1][101CH2:1]C(=O)Nc3cc(OC4CCCC4)c([100NH:0][100C:0](=O)N4CCCC(n5nc(-c6ccc(Oc7ccc(F)cc7F)cc6)c(C(N)=O)c5N)C4)cc3F)ccc2CC1C(=O)NC1CCCc2ccccc21)C(C)(C)C

> <Shape>
0.326

> <Color>
0.103

> <Negative vol penalty>
0.000

$$$$

  -OEChem-04042321223D

 84 93  0     1  0  0  0  0  0999 V2000
  -28.5900  -37.7038   25.1112 C   0  0  0  0  0  0  0  0  0  0  0  0
  -29.0348  -36.3963   25.2790 C   0  0  0  0  0  0  0  0  0  0  0  0
  -24.4422   -9.5971   20.8355 C   0  0  0  0  0  0  0  0  0  0  0  0
  -25.0872  -10.2952   23.0567 C   0  0  0  0  0  0  0  0  0  0  0  0
  -27.2247  -37.9843   25.1470 C   0  0  0  0  0  0  0  0  0  0  0  0
  -28.1147  -35.3688   25.4839 C   0  0  0  0  0  0  0  0  0  0  0  0
  -28.5498  -29.5889   23.5066 C   0  0  0  0  0  0  0  0  0  0  0  0
  -24.1976   -8.3089   21.3114 C   0  0  0  0  0  0  0  0  0  0  0  0
  -24.8426   -9.0071   23.5326 C   0  0  0  0  0  0  0  0  0  0  0  0
  -28.9614  -28.4124   24.1312 C   0  0  0  0  0  0  0  0  0  0  0  0
  -21.7557   -6.7038   23.0124 C   0  0  0  0  0  0  0  0  0  0  0  0
  -20.5802   -6.0740   22.6034 C   0  0  0  0  0  0  0  0  0  0  0  0
  -26.6619  -27.8779   24.6267 C   0  0  0  0  0  0  0  0  0  0  0  0
  -27.8799  -20.8380   23.0976 C   0  0  0  0  0  0  0  0  0  0  0  0
  -30.0544  -19.6215   21.8430 C   0  0  0  0  0  0  0  0  0  0  0  0
  -21.8791   -4.2986   21.6044 C   0  0  0  0  0  0  0  0  0  0  0  0
  -24.8871  -10.5902   21.7081 C   0  0  0  0  0  0  0  0  0  0  0  0
  -24.2267  -12.9895   21.1467 C   0  0  0  0  0  0  0  0  0  0  0  0
  -26.2868  -36.9584   25.3428 C   0  0  0  0  0  0  0  0  0  0  0  0
  -27.1896  -29.9247   23.4469 C   0  0  0  0  0  0  0  0  0  0  0  0
  -26.7357  -35.6362   25.5236 C   0  0  0  0  0  0  0  0  0  0  0  0
  -26.2353  -29.0580   23.9986 C   0  0  0  0  0  0  0  0  0  0  0  0
  -29.1471  -21.4143   23.1846 C   0  0  0  0  0  0  0  0  0  0  0  0
  -28.7872  -19.0452   21.7561 C   0  0  0  0  0  0  0  0  0  0  0  0
  -24.3978   -8.0139   22.6599 C   0  0  0  0  0  0  0  0  0  0  0  0
  -28.0177  -27.5581   24.6939 C   0  0  0  0  0  0  0  0  0  0  0  0
  -22.9929   -6.1311   22.7173 C   0  0  0  0  0  0  0  0  0  0  0  0
  -20.6419   -4.8714   21.8994 C   0  0  0  0  0  0  0  0  0  0  0  0
  -27.6999  -19.6534   22.3834 C   0  0  0  0  0  0  0  0  0  0  0  0
  -23.0546   -4.9284   22.0133 C   0  0  0  0  0  0  0  0  0  0  0  0
  -30.2344  -20.8061   22.5573 C   0  0  0  0  0  0  0  0  0  0  0  0
  -25.1405  -11.9209   21.2170 C   0  0  0  0  0  0  0  0  0  0  0  0
  -24.9513  -14.0262   20.6114 C   0  0  0  0  0  0  0  0  0  0  0  0
  -22.8464  -13.0404   21.5311 C   0  0  0  0  0  0  0  0  0  0  0  0
  -25.4203  -32.3223   24.5536 C   0  0  0  0  0  0  0  0  0  0  0  0
  -23.0835  -30.8803   22.8266 C   0  0  0  0  0  0  0  0  0  0  0  0
  -21.8840  -28.0259   21.3911 C   0  0  0  0  0  0  0  0  0  0  0  0
  -29.5801  -17.1100   20.3516 C   0  0  0  0  0  0  0  0  0  0  0  0
  -24.8240  -37.3173   25.4211 C   0  0  0  0  0  0  0  0  0  0  0  0
  -26.7597  -31.1843   22.7461 C   0  0  0  0  0  0  0  0  0  0  0  0
  -24.7614  -29.3626   23.9432 C   0  0  0  0  0  0  0  0  0  0  0  0
  -23.8934  -36.1169   25.2687 C   0  0  0  0  0  0  0  0  0  0  0  0
  -29.5424  -14.0810   18.4805 C   0  0  0  0  0  0  0  0  0  0  0  0
  -24.3680  -34.9593   26.1414 C   0  0  0  0  0  0  0  0  0  0  0  0
  -28.3187  -13.3369   19.0199 C   0  0  0  0  0  0  0  0  0  0  0  0
  -30.2696  -14.8500   19.5822 C   0  0  0  0  0  0  0  0  0  0  0  0
  -30.4368  -23.4150   24.1750 C   0  0  0  0  0  0  0  0  0  0  0  0
  -28.3470  -23.5682   24.3541 C   0  0  0  0  0  0  0  0  0  0  0  0
  -28.1998  -15.0123   20.9083 C   0  0  0  0  0  0  0  0  0  0  0  0
  -25.7670  -34.4908   25.7233 C   0  0  1  0  0  0  0  0  0  0  0  0
  -25.3887  -31.6800   23.1956 C   0  0  1  0  0  0  0  0  0  0  0  0
  -29.5174  -24.2980   25.0385 C   0  0  0  0  0  0  0  0  0  0  0  0
  -27.3973  -14.2755   19.8234 C   0  0  2  0  0  0  0  0  0  0  0  0
  -19.9315  -27.1505   20.0801 C   0  0  0  0  0  0  0  0  0  0  0  0
  -21.3879  -30.8705   25.3633 C   0  0  0  0  0  0  0  0  0  0  0  0
  -19.8933  -29.1828   24.2742 C   0  0  0  0  0  0  0  0  0  0  0  0
  -20.1399  -31.4558   23.2765 C   0  0  0  0  0  0  0  0  0  0  0  0
  -23.6063  -27.2803   19.1026 C   0  0  0  0  0  0  0  0  0  0  0  0
  -29.6078  -25.7938   24.8157 C   0  0  0  0  0  0  0  0  0  1  0  0
  -22.0533  -29.8123   23.1042 C   0  0  1  0  0  0  0  0  0  0  0  0
  -21.3260  -27.7527   20.0060 C   0  0  2  0  0  0  0  0  0  0  0  0
  -20.8964  -30.3252   24.0075 C   0  0  0  0  0  0  0  0  0  0  0  0
  -26.3530  -12.2485   20.7625 N   0  0  0  0  0  0  0  0  0  0  0  0
  -26.2061  -13.5346   20.4014 N   0  0  0  0  0  0  0  0  0  0  0  0
  -29.2965  -22.6042   23.9104 N   0  0  0  0  0  0  0  0  0  0  0  0
  -24.3914  -30.6092   23.2528 N   0  0  0  0  0  0  0  0  0  0  0  0
  -29.3350  -15.7215   20.2975 N   0  0  0  0  0  0  0  0  0  0  0  0
  -24.6311  -15.3012   20.3044 N   0  0  0  0  0  0  0  0  0  0  0  0
  -22.2582  -11.8853   22.0642 N   0  0  0  0  0  0  0  0  0  0  0  0
  -28.6064  -17.8413   21.0310 N   0  0  0  0  0  0  0  0  0  0  0  0
  -25.6915  -33.6770   24.5290 N   0  0  0  0  0  0  0  0  0  0  0  0
  -21.6199  -29.3151   21.8029 N   0  0  0  0  0  0  0  0  0  0  0  0
  -22.2089  -26.8044   19.2697 N   0  3  0  0  0  0  0  0  0  0  0  0
  -22.1506  -14.0746   21.3903 O   0  0  0  0  0  0  0  0  0  0  0  0
  -25.2123  -31.6397   25.5498 O   0  0  0  0  0  0  0  0  0  0  0  0
  -22.7418  -31.9138   22.2464 O   0  0  0  0  0  0  0  0  0  0  0  0
  -22.4901  -27.1792   22.0440 O   0  0  0  0  0  0  0  0  0  0  0  0
  -30.5661  -17.6165   19.8101 O   0  0  0  0  0  0  0  0  0  0  0  0
  -24.1589   -6.7572   23.1247 O   0  0  0  0  0  0  0  0  0  0  0  0
  -28.4169  -26.4094   25.3047 O   0  0  0  0  0  0  0  0  0  1  0  0
  -19.5130   -4.2659   21.5081 F   0  0  0  0  0  0  0  0  0  0  0  0
  -26.4776  -19.1076   22.3087 F   0  0  0  0  0  0  0  0  0  0  0  0
  -24.2402   -4.3728   21.7280 F   0  0  0  0  0  0  0  0  0  0  0  0
  -31.8201  -21.4868   22.6396 Cl  0  0  0  0  0  0  0  0  0  0  0  0
  1  2  1  0  0  0  0
  1  5  2  0  0  0  0
  2  6  2  0  0  0  0
  3  8  2  0  0  0  0
  3 17  1  0  0  0  0
  4  9  1  0  0  0  0
  4 17  2  0  0  0  0
  5 19  1  0  0  0  0
  6 21  1  0  0  0  0
  7 10  2  0  0  0  0
  7 20  1  0  0  0  0
  8 25  1  0  0  0  0
  9 25  2  0  0  0  0
 10 26  1  0  0  0  0
 11 12  2  0  0  0  0
 11 27  1  0  0  0  0
 12 28  1  0  0  0  0
 13 22  1  0  0  0  0
 13 26  2  0  0  0  0
 14 23  1  0  0  0  0
 14 29  2  0  0  0  0
 15 24  2  0  0  0  0
 15 31  1  0  0  0  0
 16 28  2  0  0  0  0
 16 30  1  0  0  0  0
 17 32  1  0  0  0  0
 18 32  1  0  0  0  0
 18 33  2  0  0  0  0
 18 34  1  0  0  0  0
 19 21  2  0  0  0  0
 19 39  1  0  0  0  0
 20 22  2  0  0  0  0
 20 40  1  0  0  0  0
 21 50  1  0  0  0  0
 22 41  1  0  0  0  0
 23 31  2  0  0  0  0
 23 65  1  0  0  0  0
 24 29  1  0  0  0  0
 24 70  1  0  0  0  0
 25 79  1  0  0  0  0
 26 80  1  0  0  0  0
 27 30  2  0  0  0  0
 27 79  1  0  0  0  0
 28 81  1  0  0  0  0
 29 82  1  0  0  0  0
 30 83  1  0  0  0  0
 31 84  1  0  0  0  0
 32 63  2  0  0  0  0
 33 64  1  0  0  0  0
 33 68  1  0  0  0  0
 34 69  1  0  0  0  0
 34 74  2  0  0  0  0
 35 51  1  0  0  0  0
 35 71  1  0  0  0  0
 35 75  2  0  0  0  0
 36 60  1  0  0  0  0
 36 66  1  0  0  0  0
 36 76  2  0  0  0  0
 37 61  1  0  0  0  0
 37 72  1  0  0  0  0
 37 77  2  0  0  0  0
 38 67  1  0  0  0  0
 38 70  1  0  0  0  0
 38 78  2  0  0  0  0
 39 42  1  0  0  0  0
 40 51  1  0  0  0  0
 41 66  1  0  0  0  0
 42 44  1  0  0  0  0
 43 45  1  0  0  0  0
 43 46  1  0  0  0  0
 44 50  1  0  0  0  0
 45 53  1  0  0  0  0
 46 67  1  0  0  0  0
 47 52  1  0  0  0  0
 47 65  1  0  0  0  0
 48 52  1  0  0  0  0
 48 65  1  0  0  0  0
 49 53  1  0  0  0  0
 49 67  1  0  0  0  0
 50 71  1  0  0  0  0
 51 66  1  0  0  0  0
 52 59  1  0  0  0  0
 53 64  1  0  0  0  0
 54 61  1  0  0  0  0
 55 62  1  0  0  0  0
 56 62  1  0  0  0  0
 57 62  1  0  0  0  0
 58 73  1  0  0  0  0
 59 80  1  0  0  0  0
 60 62  1  0  0  0  0
 60 72  1  0  0  0  0
 61 73  1  0  0  0  0
 63 64  1  0  0  0  0
M  CHG  1  73   1
M  ISO  4  38 100  59 101  70 100  80 101
M  END
> <Batch ID>
0025

> <Smiles>
CNC(C)C(=O)NC(C(=O)N1Cc2cc([101O:1][101CH2:1]C3CN(c4cc(F)c([100NH:0][100C:0](=O)N5CCCC(n6nc(-c7ccc(Oc8ccc(F)cc8F)cc7)c(C(N)=O)c6N)C5)cc4Cl)C3)ccc2CC1C(=O)NC1CCCc2ccccc21)C(C)(C)C

> <Shape>
0.290

> <Color>
0.126

> <Negative vol penalty>
0.000

$$$$

  -OEChem-04042321223D

 86 95  0     1  0  0  0  0  0999 V2000
  -30.3408  -31.0875   25.8267 C   0  0  0  0  0  0  0  0  0  0  0  0
  -29.8122  -30.0308   25.0923 C   0  0  0  0  0  0  0  0  0  0  0  0
  -23.2794   -9.9278   19.8148 C   0  0  0  0  0  0  0  0  0  0  0  0
  -24.5139   -8.9930   21.6693 C   0  0  0  0  0  0  0  0  0  0  0  0
  -29.4906  -32.0424   26.3830 C   0  0  0  0  0  0  0  0  0  0  0  0
  -28.4330  -29.9277   24.9147 C   0  0  0  0  0  0  0  0  0  0  0  0
  -27.1669  -28.8110   20.1403 C   0  0  0  0  0  0  0  0  0  0  0  0
  -22.0894   -9.7616   20.5232 C   0  0  0  0  0  0  0  0  0  0  0  0
  -23.3239   -8.8268   22.3777 C   0  0  0  0  0  0  0  0  0  0  0  0
  -27.3108  -27.4842   19.7371 C   0  0  0  0  0  0  0  0  0  0  0  0
  -20.7344   -6.6534   22.4233 C   0  0  0  0  0  0  0  0  0  0  0  0
  -20.5353   -5.4390   23.0799 C   0  0  0  0  0  0  0  0  0  0  0  0
  -24.9447  -27.1375   20.0548 C   0  0  0  0  0  0  0  0  0  0  0  0
  -27.6690  -18.3124   18.2994 C   0  0  0  0  0  0  0  0  0  0  0  0
  -29.8308  -17.3915   19.8031 C   0  0  0  0  0  0  0  0  0  0  0  0
  -20.3742   -6.6059   25.1893 C   0  0  0  0  0  0  0  0  0  0  0  0
  -24.4917   -9.5434   20.3878 C   0  0  0  0  0  0  0  0  0  0  0  0
  -26.0578   -9.1435   18.4143 C   0  0  0  0  0  0  0  0  0  0  0  0
  -28.1010  -31.9562   26.2041 C   0  0  0  0  0  0  0  0  0  0  0  0
  -25.9107  -29.3089   20.5148 C   0  0  0  0  0  0  0  0  0  0  0  0
  -27.5633  -30.8815   25.4703 C   0  0  0  0  0  0  0  0  0  0  0  0
  -24.7872  -28.4717   20.4599 C   0  0  0  0  0  0  0  0  0  0  0  0
  -28.4833  -19.2192   18.9779 C   0  0  0  0  0  0  0  0  0  0  0  0
  -29.0165  -16.4848   19.1246 C   0  0  0  0  0  0  0  0  0  0  0  0
  -22.1116   -9.2111   21.8046 C   0  0  0  0  0  0  0  0  0  0  0  0
  -26.2001  -26.6464   19.6971 C   0  0  0  0  0  0  0  0  0  0  0  0
  -20.7536   -7.8441   23.1497 C   0  0  0  0  0  0  0  0  0  0  0  0
  -20.3552   -5.4152   24.4629 C   0  0  0  0  0  0  0  0  0  0  0  0
  -27.9356  -16.9452   18.3728 C   0  0  0  0  0  0  0  0  0  0  0  0
  -20.5734   -7.8203   24.5327 C   0  0  0  0  0  0  0  0  0  0  0  0
  -29.5642  -18.7587   19.7297 C   0  0  0  0  0  0  0  0  0  0  0  0
  -25.7212   -9.7143   19.6563 C   0  0  0  0  0  0  0  0  0  0  0  0
  -27.3227   -9.6109   18.1532 C   0  0  0  0  0  0  0  0  0  0  0  0
  -25.2953   -8.2692   17.5719 C   0  0  0  0  0  0  0  0  0  0  0  0
  -24.6823  -30.5183   23.1854 C   0  0  0  0  0  0  0  0  0  0  0  0
  -22.1107  -31.0753   21.2883 C   0  0  0  0  0  0  0  0  0  0  0  0
  -20.3151  -29.3130   18.7023 C   0  0  0  0  0  0  0  0  0  0  0  0
  -30.3199  -14.4747   19.9039 C   0  0  0  0  0  0  0  0  0  0  0  0
  -27.2188  -32.9860   26.8644 C   0  0  0  0  0  0  0  0  0  0  0  0
  -25.7677  -30.7499   20.9217 C   0  0  0  0  0  0  0  0  0  0  0  0
  -23.4131  -28.9631   20.8324 C   0  0  0  0  0  0  0  0  0  0  0  0
  -25.7952  -33.0115   26.3139 C   0  0  0  0  0  0  0  0  0  0  0  0
  -31.3026  -11.0847   20.3720 C   0  0  0  0  0  0  0  0  0  0  0  0
  -25.2399  -31.5950   26.2040 C   0  0  0  0  0  0  0  0  0  0  0  0
  -30.0148  -10.2962   20.1226 C   0  0  0  0  0  0  0  0  0  0  0  0
  -28.8988  -22.8253   18.1366 C   0  0  0  0  0  0  0  0  0  0  0  0
  -26.9703  -22.5630   19.7098 C   0  0  0  0  0  0  0  0  0  0  0  0
  -31.0286  -12.4071   21.0861 C   0  0  0  0  0  0  0  0  0  0  0  0
  -28.8166  -21.3395   17.7925 C   0  0  0  0  0  0  0  0  0  0  0  0
  -26.8943  -21.0757   19.3674 C   0  0  0  0  0  0  0  0  0  0  0  0
  -28.7321  -12.4725   20.1965 C   0  0  0  0  0  0  0  0  0  0  0  0
  -26.0744  -30.7490   25.2348 C   0  0  1  0  0  0  0  0  0  0  0  0
  -24.5293  -31.0101   21.7739 C   0  0  1  0  0  0  0  0  0  0  0  0
  -27.5357  -23.3862   18.5500 C   0  0  0  0  0  0  0  0  0  0  0  0
  -28.9503  -11.1627   19.4215 C   0  0  2  0  0  0  0  0  0  0  0  0
  -18.9462  -30.1796   16.7860 C   0  0  0  0  0  0  0  0  0  0  0  0
  -19.7536  -30.7328   23.1952 C   0  0  0  0  0  0  0  0  0  0  0  0
  -18.3848  -29.9480   21.2513 C   0  0  0  0  0  0  0  0  0  0  0  0
  -19.3193  -32.2608   21.2637 C   0  0  0  0  0  0  0  0  0  0  0  0
  -21.9167  -27.8030   16.7240 C   0  0  0  0  0  0  0  0  0  0  0  0
  -27.6470  -24.8603   18.9321 C   0  0  0  0  0  0  0  0  0  1  0  0
  -20.8732  -30.2981   20.9097 C   0  0  1  0  0  0  0  0  0  0  0  0
  -20.3007  -29.6417   17.2204 C   0  0  2  0  0  0  0  0  0  0  0  0
  -19.6070  -30.7968   21.6618 C   0  0  0  0  0  0  0  0  0  0  0  0
  -26.6938  -10.4852   20.1501 N   0  0  0  0  0  0  0  0  0  0  0  0
  -27.6541  -10.4020   19.2135 N   0  0  0  0  0  0  0  0  0  0  0  0
  -28.1896  -20.5856   18.8859 N   0  0  0  0  0  0  0  0  0  0  0  0
  -23.3257  -30.3780   21.2297 N   0  0  0  0  0  0  0  0  0  0  0  0
  -30.0135  -13.1761   20.3628 N   0  0  0  0  0  0  0  0  0  0  0  0
  -28.1728   -9.4180   17.1223 N   0  0  0  0  0  0  0  0  0  0  0  0
  -25.4199   -6.8856   17.7580 N   0  0  0  0  0  0  0  0  0  0  0  0
  -29.2881  -15.0962   19.2011 N   0  0  0  0  0  0  0  0  0  0  0  0
  -25.7468  -31.0798   23.8645 N   0  0  0  0  0  0  0  0  0  0  0  0
  -20.7729  -30.3729   19.4562 N   0  0  0  0  0  0  0  0  0  0  0  0
  -20.6024  -28.4236   16.4166 N   0  3  0  0  0  0  0  0  0  0  0  0
  -24.5387   -8.7016   16.6696 O   0  0  0  0  0  0  0  0  0  0  0  0
  -23.8922  -29.6919   23.6263 O   0  0  0  0  0  0  0  0  0  0  0  0
  -22.0042  -32.2595   21.6168 O   0  0  0  0  0  0  0  0  0  0  0  0
  -19.9527  -28.2261   19.1471 O   0  0  0  0  0  0  0  0  0  0  0  0
  -31.4261  -14.9864   20.0949 O   0  0  0  0  0  0  0  0  0  0  0  0
  -20.9506   -9.0490   22.4963 O   0  0  0  0  0  0  0  0  0  0  0  0
  -26.3378  -25.3507   19.3046 O   0  0  0  0  0  0  0  0  0  1  0  0
  -20.1624   -4.2491   25.0931 F   0  0  0  0  0  0  0  0  0  0  0  0
  -27.1447  -16.0830   17.7181 F   0  0  0  0  0  0  0  0  0  0  0  0
  -20.5896   -8.9611   25.2357 F   0  0  0  0  0  0  0  0  0  0  0  0
  -30.5976  -19.8476   20.5847 Cl  0  0  0  0  0  0  0  0  0  0  0  0
  1  2  1  0  0  0  0
  1  5  2  0  0  0  0
  2  6  2  0  0  0  0
  3  8  2  0  0  0  0
  3 17  1  0  0  0  0
  4  9  1  0  0  0  0
  4 17  2  0  0  0  0
  5 19  1  0  0  0  0
  6 21  1  0  0  0  0
  7 10  2  0  0  0  0
  7 20  1  0  0  0  0
  8 25  1  0  0  0  0
  9 25  2  0  0  0  0
 10 26  1  0  0  0  0
 11 12  2  0  0  0  0
 11 27  1  0  0  0  0
 12 28  1  0  0  0  0
 13 22  1  0  0  0  0
 13 26  2  0  0  0  0
 14 23  1  0  0  0  0
 14 29  2  0  0  0  0
 15 24  2  0  0  0  0
 15 31  1  0  0  0  0
 16 28  2  0  0  0  0
 16 30  1  0  0  0  0
 17 32  1  0  0  0  0
 18 32  1  0  0  0  0
 18 33  2  0  0  0  0
 18 34  1  0  0  0  0
 19 21  2  0  0  0  0
 19 39  1  0  0  0  0
 20 22  2  0  0  0  0
 20 40  1  0  0  0  0
 21 52  1  0  0  0  0
 22 41  1  0  0  0  0
 23 31  2  0  0  0  0
 23 67  1  0  0  0  0
 24 29  1  0  0  0  0
 24 72  1  0  0  0  0
 25 81  1  0  0  0  0
 26 82  1  0  0  0  0
 27 30  2  0  0  0  0
 27 81  1  0  0  0  0
 28 83  1  0  0  0  0
 29 84  1  0  0  0  0
 30 85  1  0  0  0  0
 31 86  1  0  0  0  0
 32 65  2  0  0  0  0
 33 66  1  0  0  0  0
 33 70  1  0  0  0  0
 34 71  1  0  0  0  0
 34 76  2  0  0  0  0
 35 53  1  0  0  0  0
 35 73  1  0  0  0  0
 35 77  2  0  0  0  0
 36 62  1  0  0  0  0
 36 68  1  0  0  0  0
 36 78  2  0  0  0  0
 37 63  1  0  0  0  0
 37 74  1  0  0  0  0
 37 79  2  0  0  0  0
 38 69  1  0  0  0  0
 38 72  1  0  0  0  0
 38 80  2  0  0  0  0
 39 42  1  0  0  0  0
 40 53  1  0  0  0  0
 41 68  1  0  0  0  0
 42 44  1  0  0  0  0
 43 45  1  0  0  0  0
 43 48  1  0  0  0  0
 44 52  1  0  0  0  0
 45 55  1  0  0  0  0
 46 49  1  0  0  0  0
 46 54  1  0  0  0  0
 47 50  1  0  0  0  0
 47 54  1  0  0  0  0
 48 69  1  0  0  0  0
 49 67  1  0  0  0  0
 50 67  1  0  0  0  0
 51 55  1  0  0  0  0
 51 69  1  0  0  0  0
 52 73  1  0  0  0  0
 53 68  1  0  0  0  0
 54 61  1  0  0  0  0
 55 66  1  0  0  0  0
 56 63  1  0  0  0  0
 57 64  1  0  0  0  0
 58 64  1  0  0  0  0
 59 64  1  0  0  0  0
 60 75  1  0  0  0  0
 61 82  1  0  0  0  0
 62 64  1  0  0  0  0
 62 74  1  0  0  0  0
 63 75  1  0  0  0  0
 65 66  1  0  0  0  0
M  CHG  1  75   1
M  ISO  4  38 100  61 101  72 100  82 101
M  END
> <Batch ID>
0025

> <Smiles>
CNC(C)C(=O)NC(C(=O)N1Cc2cc([101O:1][101CH2:1]C3CCN(c4cc(F)c([100NH:0][100C:0](=O)N5CCCC(n6nc(-c7ccc(Oc8ccc(F)cc8F)cc7)c(C(N)=O)c6N)C5)cc4Cl)CC3)ccc2CC1C(=O)NC1CCCc2ccccc21)C(C)(C)C

> <Shape>
0.279

> <Color>
0.082

> <Negative vol penalty>
0.000

$$$$

  -OEChem-04042321223D

 85 94  0     1  0  0  0  0  0999 V2000
  -18.2597  -25.6926   20.0356 C   0  0  0  0  0  0  0  0  0  0  0  0
  -19.4078  -26.2136   19.4476 C   0  0  0  0  0  0  0  0  0  0  0  0
  -23.6229  -18.1745   20.4980 C   0  0  0  0  0  0  0  0  0  0  0  0
  -24.5530  -18.0114   18.2742 C   0  0  0  0  0  0  0  0  0  0  0  0
  -17.9352  -26.0313   21.3486 C   0  0  0  0  0  0  0  0  0  0  0  0
  -20.2316  -27.0744   20.1720 C   0  0  0  0  0  0  0  0  0  0  0  0
  -25.1431  -25.9520   19.6598 C   0  0  0  0  0  0  0  0  0  0  0  0
  -22.3530  -17.9076   19.9865 C   0  0  0  0  0  0  0  0  0  0  0  0
  -23.2831  -17.7445   17.7626 C   0  0  0  0  0  0  0  0  0  0  0  0
  -25.7691  -26.3561   18.4814 C   0  0  0  0  0  0  0  0  0  0  0  0
  -20.5970  -15.2052   18.9635 C   0  0  0  0  0  0  0  0  0  0  0  0
  -19.8036  -14.2834   19.6464 C   0  0  0  0  0  0  0  0  0  0  0  0
  -26.7037  -28.2564   19.6368 C   0  0  0  0  0  0  0  0  0  0  0  0
  -18.1273  -15.9872   19.9988 C   0  0  0  0  0  0  0  0  0  0  0  0
  -24.7229  -18.2265   19.6419 C   0  0  0  0  0  0  0  0  0  0  0  0
  -26.9791  -17.5670   20.6330 C   0  0  0  0  0  0  0  0  0  0  0  0
  -18.7606  -26.8890   22.0927 C   0  0  0  0  0  0  0  0  0  0  0  0
  -25.2841  -26.7042   20.8348 C   0  0  0  0  0  0  0  0  0  0  0  0
  -19.9172  -27.4259   21.4957 C   0  0  0  0  0  0  0  0  0  0  0  0
  -26.0806  -27.8582   20.8294 C   0  0  0  0  0  0  0  0  0  0  0  0
  -22.1831  -17.6926   18.6188 C   0  0  0  0  0  0  0  0  0  0  0  0
  -26.5472  -27.5100   18.4691 C   0  0  0  0  0  0  0  0  0  0  0  0
  -20.1556  -16.5181   18.7983 C   0  0  0  0  0  0  0  0  0  0  0  0
  -18.5688  -14.6744   20.1641 C   0  0  0  0  0  0  0  0  0  0  0  0
  -18.9208  -16.9090   19.3159 C   0  0  0  0  0  0  0  0  0  0  0  0
  -26.0349  -18.5027   20.1696 C   0  0  0  0  0  0  0  0  0  0  0  0
  -28.0529  -18.3282   21.0253 C   0  0  0  0  0  0  0  0  0  0  0  0
  -26.8933  -16.1375   20.7024 C   0  0  0  0  0  0  0  0  0  0  0  0
  -23.2890  -28.2816   22.7414 C   0  0  0  0  0  0  0  0  0  0  0  0
  -25.9437  -28.6478   24.5692 C   0  0  0  0  0  0  0  0  0  0  0  0
  -29.3505  -28.7466   24.7430 C   0  0  0  0  0  0  0  0  0  0  0  0
  -30.3937  -23.8213   16.8396 C   0  0  0  0  0  0  0  0  0  0  0  0
  -29.7869  -23.8942   19.3548 C   0  0  0  0  0  0  0  0  0  0  0  0
  -18.3436  -27.2638   23.4928 C   0  0  0  0  0  0  0  0  0  0  0  0
  -24.6241  -26.2402   22.1043 C   0  0  0  0  0  0  0  0  0  0  0  0
  -26.2803  -28.6898   22.0691 C   0  0  0  0  0  0  0  0  0  0  0  0
  -19.4678  -27.8853   24.3174 C   0  0  0  0  0  0  0  0  0  0  0  0
  -29.1927  -22.6423   22.6970 C   0  0  0  0  0  0  0  0  0  0  0  0
  -20.1987  -28.9505   23.5062 C   0  0  0  0  0  0  0  0  0  0  0  0
  -28.3493  -21.3909   22.4716 C   0  0  0  0  0  0  0  0  0  0  0  0
  -28.8862  -23.7077   21.6520 C   0  0  0  0  0  0  0  0  0  0  0  0
  -31.4352  -23.2145   14.6221 C   0  0  0  0  0  0  0  0  0  0  0  0
  -30.6391  -21.4232   16.0897 C   0  0  0  0  0  0  0  0  0  0  0  0
  -28.2555  -21.9648   19.9968 C   0  0  0  0  0  0  0  0  0  0  0  0
  -32.7249  -21.6183   13.0674 C   0  0  0  0  0  0  0  0  0  0  0  0
  -32.9666  -20.7093   15.3297 C   0  0  0  0  0  0  0  0  0  0  0  0
  -20.8491  -28.3432   22.2573 C   0  0  1  0  0  0  0  0  0  0  0  0
  -24.4180  -27.3635   23.1157 C   0  0  1  0  0  0  0  0  0  0  0  0
  -31.4651  -21.8799   13.8655 C   0  0  1  0  0  0  0  0  0  0  0  0
  -31.4904  -20.8230   14.9747 C   0  0  2  0  0  0  0  0  0  0  0  0
  -28.5338  -20.8655   21.0397 C   0  0  2  0  0  0  0  0  0  0  0  0
  -31.2307  -29.1020   26.3666 C   0  0  0  0  0  0  0  0  0  0  0  0
  -25.3942  -31.6490   24.5448 C   0  0  0  0  0  0  0  0  0  0  0  0
  -27.7425  -32.0147   25.3321 C   0  0  0  0  0  0  0  0  0  0  0  0
  -26.1361  -30.7422   26.7543 C   0  0  0  0  0  0  0  0  0  0  0  0
  -30.4365  -26.0367   24.2572 C   0  0  0  0  0  0  0  0  0  0  0  0
  -29.9680  -27.5453   16.5732 C   0  0  0  0  0  0  0  0  0  0  0  0
  -28.7860  -27.3096   15.6336 C   0  0  0  0  0  0  0  0  0  0  0  0
  -30.3094  -26.3065   17.3939 C   0  0  0  0  0  0  0  0  0  0  0  0
  -27.5383  -26.8871   16.3989 C   0  0  0  0  0  0  0  0  0  1  0  0
  -27.0502  -29.6712   24.6544 C   0  0  1  0  0  0  0  0  0  0  0  0
  -30.3306  -28.0792   25.6909 C   0  0  2  0  0  0  0  0  0  0  0  0
  -26.5756  -31.0049   25.2974 C   0  0  0  0  0  0  0  0  0  0  0  0
  -26.4705  -19.7622   20.2589 N   0  0  0  0  0  0  0  0  0  0  0  0
  -27.7002  -19.6232   20.7829 N   0  0  0  0  0  0  0  0  0  0  0  0
  -25.6093  -28.1983   23.2839 N   0  0  0  0  0  0  0  0  0  0  0  0
  -30.7889  -22.8831   15.9098 N   0  0  0  0  0  0  0  0  0  0  0  0
  -29.0153  -23.1888   20.2886 N   0  0  0  0  0  0  0  0  0  0  0  0
  -29.2549  -18.0096   21.5507 N   0  0  0  0  0  0  0  0  0  0  0  0
  -25.7184  -15.5162   20.2574 N   0  0  0  0  0  0  0  0  0  0  0  0
  -22.0682  -27.6476   22.6100 N   0  0  0  0  0  0  0  0  0  0  0  0
  -28.1503  -29.0249   25.3619 N   0  0  0  0  0  0  0  0  0  0  0  0
  -29.7928  -23.3473   18.0160 N   0  0  0  0  0  0  0  0  0  0  0  0
  -30.6475  -25.1620   16.5450 N   0  3  0  0  0  0  0  0  0  0  0  0
  -33.6829  -20.9970   14.0434 N   0  3  0  0  0  0  0  0  0  0  0  0
  -31.1903  -27.1125   24.9511 N   0  3  0  0  0  0  0  0  0  0  0  0
  -27.8243  -15.4330   21.1612 O   0  0  0  0  0  0  0  0  0  0  0  0
  -23.5088  -29.4770   22.5849 O   0  0  0  0  0  0  0  0  0  0  0  0
  -25.4010  -28.2561   25.6054 O   0  0  0  0  0  0  0  0  0  0  0  0
  -29.6238  -28.9993   23.5717 O   0  0  0  0  0  0  0  0  0  0  0  0
  -30.3735  -24.9418   19.6140 O   0  0  0  0  0  0  0  0  0  0  0  0
  -20.9441  -17.4319   18.1193 O   0  0  0  0  0  0  0  0  0  0  0  0
  -27.1632  -27.9100   17.3118 O   0  0  0  0  0  0  0  0  0  1  0  0
  -17.8063  -13.7886   20.8185 F   0  0  0  0  0  0  0  0  0  0  0  0
  -18.4908  -18.1686   19.1593 F   0  0  0  0  0  0  0  0  0  0  0  0
  1  2  1  0  0  0  0
  1  5  2  0  0  0  0
  2  6  2  0  0  0  0
  3  8  2  0  0  0  0
  3 15  1  0  0  0  0
  4  9  1  0  0  0  0
  4 15  2  0  0  0  0
  5 17  1  0  0  0  0
  6 19  1  0  0  0  0
  7 10  2  0  0  0  0
  7 18  1  0  0  0  0
  8 21  1  0  0  0  0
  9 21  2  0  0  0  0
 10 22  1  0  0  0  0
 11 12  2  0  0  0  0
 11 23  1  0  0  0  0
 12 24  1  0  0  0  0
 13 20  1  0  0  0  0
 13 22  2  0  0  0  0
 14 24  2  0  0  0  0
 14 25  1  0  0  0  0
 15 26  1  0  0  0  0
 16 26  1  0  0  0  0
 16 27  2  0  0  0  0
 16 28  1  0  0  0  0
 17 19  2  0  0  0  0
 17 34  1  0  0  0  0
 18 20  2  0  0  0  0
 18 35  1  0  0  0  0
 19 47  1  0  0  0  0
 20 36  1  0  0  0  0
 21 82  1  0  0  0  0
 22 83  1  0  0  0  0
 23 25  2  0  0  0  0
 23 82  1  0  0  0  0
 24 84  1  0  0  0  0
 25 85  1  0  0  0  0
 26 64  2  0  0  0  0
 27 65  1  0  0  0  0
 27 69  1  0  0  0  0
 28 70  1  0  0  0  0
 28 77  2  0  0  0  0
 29 48  1  0  0  0  0
 29 71  1  0  0  0  0
 29 78  2  0  0  0  0
 30 61  1  0  0  0  0
 30 66  1  0  0  0  0
 30 79  2  0  0  0  0
 31 62  1  0  0  0  0
 31 72  1  0  0  0  0
 31 80  2  0  0  0  0
 32 67  1  0  0  0  0
 32 73  1  0  0  0  0
 32 74  2  0  0  0  0
 33 68  1  0  0  0  0
 33 73  1  0  0  0  0
 33 81  2  0  0  0  0
 34 37  1  0  0  0  0
 35 48  1  0  0  0  0
 36 66  1  0  0  0  0
 37 39  1  0  0  0  0
 38 40  1  0  0  0  0
 38 41  1  0  0  0  0
 39 47  1  0  0  0  0
 40 51  1  0  0  0  0
 41 68  1  0  0  0  0
 42 49  1  0  0  0  0
 42 67  1  0  0  0  0
 43 50  1  0  0  0  0
 43 67  1  0  0  0  0
 44 51  1  0  0  0  0
 44 68  1  0  0  0  0
 45 49  1  0  0  0  0
 45 75  1  0  0  0  0
 46 50  1  0  0  0  0
 46 75  1  0  0  0  0
 47 71  1  0  0  0  0
 48 66  1  0  0  0  0
 49 50  1  0  0  0  0
 51 65  1  0  0  0  0
 52 62  1  0  0  0  0
 53 63  1  0  0  0  0
 54 63  1  0  0  0  0
 55 63  1  0  0  0  0
 56 76  1  0  0  0  0
 57 58  1  0  0  0  0
 57 59  1  0  0  0  0
 58 60  1  0  0  0  0
 59 74  1  0  0  0  0
 60 83  1  0  0  0  0
 61 63  1  0  0  0  0
 61 72  1  0  0  0  0
 62 76  1  0  0  0  0
 64 65  1  0  0  0  0
M  CHG  3  74   1  75   1  76   1
M  ISO  4  33 100  60 101  73 100  83 101
M  END
> <Batch ID>
0025

> <Smiles>
CNC(C)C(=O)NC(C(=O)N1Cc2cc([101O:1][101CH2:1]CCCNC(=[100N:0][100C:0](=O)N3CCCC(n4nc(-c5ccc(Oc6ccc(F)cc6F)cc5)c(C(N)=O)c4N)C3)N3CC4CNCC4C3)ccc2CC1C(=O)NC1CCCc2ccccc21)C(C)(C)C

> <Shape>
0.202

> <Color>
0.074

> <Negative vol penalty>
0.000

$$$$

  -OEChem-04042321223D

 83 91  0     1  0  0  0  0  0999 V2000
  -39.2240  -29.0908   21.9185 C   0  0  0  0  0  0  0  0  0  0  0  0
  -38.2337  -28.3696   22.5777 C   0  0  0  0  0  0  0  0  0  0  0  0
  -23.0092   -9.8917   19.9492 C   0  0  0  0  0  0  0  0  0  0  0  0
  -23.7458   -9.8955   22.2502 C   0  0  0  0  0  0  0  0  0  0  0  0
  -39.0028  -29.5512   20.6212 C   0  0  0  0  0  0  0  0  0  0  0  0
  -37.0211  -28.1093   21.9403 C   0  0  0  0  0  0  0  0  0  0  0  0
  -35.5019  -23.3156   22.5378 C   0  0  0  0  0  0  0  0  0  0  0  0
  -22.2504   -8.7472   20.1940 C   0  0  0  0  0  0  0  0  0  0  0  0
  -22.9869   -8.7510   22.4950 C   0  0  0  0  0  0  0  0  0  0  0  0
  -34.9231  -22.9788   23.7607 C   0  0  0  0  0  0  0  0  0  0  0  0
  -23.2476   -5.4248   21.9474 C   0  0  0  0  0  0  0  0  0  0  0  0
  -23.8446   -4.3945   22.6737 C   0  0  0  0  0  0  0  0  0  0  0  0
  -32.7325  -23.1599   22.7668 C   0  0  0  0  0  0  0  0  0  0  0  0
  -32.0442  -16.5166   22.6120 C   0  0  0  0  0  0  0  0  0  0  0  0
  -30.5076  -18.2923   24.1181 C   0  0  0  0  0  0  0  0  0  0  0  0
  -22.1279   -4.5901   24.3625 C   0  0  0  0  0  0  0  0  0  0  0  0
  -23.7569  -10.4659   20.9774 C   0  0  0  0  0  0  0  0  0  0  0  0
  -24.1272  -12.9869   20.8556 C   0  0  0  0  0  0  0  0  0  0  0  0
  -37.7906  -29.2881   19.9640 C   0  0  0  0  0  0  0  0  0  0  0  0
  -34.6986  -23.5882   21.4212 C   0  0  0  0  0  0  0  0  0  0  0  0
  -36.7830  -28.5678   20.6334 C   0  0  0  0  0  0  0  0  0  0  0  0
  -33.3036  -23.4974   21.5303 C   0  0  0  0  0  0  0  0  0  0  0  0
  -30.6575  -16.5382   22.4634 C   0  0  0  0  0  0  0  0  0  0  0  0
  -31.8943  -18.2707   24.2666 C   0  0  0  0  0  0  0  0  0  0  0  0
  -22.2392   -8.1768   21.4668 C   0  0  0  0  0  0  0  0  0  0  0  0
  -33.5381  -22.9038   23.8761 C   0  0  0  0  0  0  0  0  0  0  0  0
  -22.0907   -6.0379   22.4287 C   0  0  0  0  0  0  0  0  0  0  0  0
  -23.2848   -3.9771   23.8812 C   0  0  0  0  0  0  0  0  0  0  0  0
  -21.5309   -5.6205   23.6362 C   0  0  0  0  0  0  0  0  0  0  0  0
  -29.8891  -17.4261   23.2164 C   0  0  0  0  0  0  0  0  0  0  0  0
  -32.6627  -17.3828   23.5136 C   0  0  0  0  0  0  0  0  0  0  0  0
  -24.5414  -11.6478   20.7250 C   0  0  0  0  0  0  0  0  0  0  0  0
  -25.2311  -13.7238   20.5020 C   0  0  0  0  0  0  0  0  0  0  0  0
  -22.8582  -13.5173   21.2606 C   0  0  0  0  0  0  0  0  0  0  0  0
  -34.2300  -26.1219   19.5599 C   0  0  0  0  0  0  0  0  0  0  0  0
  -32.4199  -24.0434   17.8494 C   0  0  0  0  0  0  0  0  0  0  0  0
  -30.5762  -21.1721   17.7951 C   0  0  0  0  0  0  0  0  0  0  0  0
  -30.7062  -14.7107   20.7302 C   0  0  0  0  0  0  0  0  0  0  0  0
  -37.5795  -29.8469   18.5791 C   0  0  0  0  0  0  0  0  0  0  0  0
  -35.3393  -23.9239   20.1024 C   0  0  0  0  0  0  0  0  0  0  0  0
  -32.3976  -23.7608   20.3564 C   0  0  0  0  0  0  0  0  0  0  0  0
  -36.4101  -29.2066   17.8357 C   0  0  0  0  0  0  0  0  0  0  0  0
  -29.5898  -12.3039   18.3556 C   0  0  0  0  0  0  0  0  0  0  0  0
  -35.1847  -29.1216   18.7401 C   0  0  0  0  0  0  0  0  0  0  0  0
  -28.1428  -12.0288   18.7711 C   0  0  0  0  0  0  0  0  0  0  0  0
  -30.4951  -12.5254   19.5660 C   0  0  0  0  0  0  0  0  0  0  0  0
  -28.5822  -13.2734   20.9263 C   0  0  0  0  0  0  0  0  0  0  0  0
  -35.4639  -28.2439   19.9662 C   0  0  1  0  0  0  0  0  0  0  0  0
  -34.4087  -24.6839   19.1623 C   0  0  1  0  0  0  0  0  0  0  0  0
  -27.6196  -13.1081   19.7390 C   0  0  2  0  0  0  0  0  0  0  0  0
  -29.1875  -19.7514   16.2620 C   0  0  0  0  0  0  0  0  0  0  0  0
  -30.1360  -26.0561   18.0568 C   0  0  0  0  0  0  0  0  0  0  0  0
  -28.5609  -24.2339   17.3738 C   0  0  0  0  0  0  0  0  0  0  0  0
  -30.3669  -24.9674   15.8172 C   0  0  0  0  0  0  0  0  0  0  0  0
  -32.3738  -18.8455   18.1337 C   0  0  0  0  0  0  0  0  0  0  0  0
  -32.6793  -20.9346   26.8170 C   0  0  0  0  0  0  0  0  0  0  0  0
  -31.7375  -20.0823   25.9752 C   0  0  0  0  0  0  0  0  0  0  0  0
  -33.6887  -21.7107   25.9791 C   0  0  0  0  0  0  0  0  0  1  0  0
  -30.9710  -23.6201   17.8695 C   0  0  1  0  0  0  0  0  0  0  0  0
  -30.5741  -19.9942   16.8374 C   0  0  2  0  0  0  0  0  0  0  0  0
  -30.0254  -24.7162   17.3021 C   0  0  0  0  0  0  0  0  0  0  0  0
  -25.8093  -11.5374   20.3198 N   0  0  0  0  0  0  0  0  0  0  0  0
  -26.2014  -12.8166   20.1927 N   0  0  0  0  0  0  0  0  0  0  0  0
  -33.0715  -24.0916   19.0899 N   0  0  0  0  0  0  0  0  0  0  0  0
  -29.9384  -13.5641   20.4356 N   0  0  0  0  0  0  0  0  0  0  0  0
  -25.4566  -15.0527   20.4284 N   0  0  0  0  0  0  0  0  0  0  0  0
  -21.8332  -12.6198   21.5894 N   0  0  0  0  0  0  0  0  0  0  0  0
  -30.0606  -15.6444   21.5401 N   0  0  0  0  0  0  0  0  0  0  0  0
  -32.4807  -19.1431   25.1702 N   0  0  0  0  0  0  0  0  0  0  0  0
  -35.4078  -26.8428   19.6081 N   0  0  0  0  0  0  0  0  0  0  0  0
  -30.9072  -22.3487   17.1570 N   0  0  0  0  0  0  0  0  0  0  0  0
  -31.0155  -18.7556   17.5388 N   0  3  0  0  0  0  0  0  0  0  0  0
  -22.6347  -14.7505   21.3130 O   0  0  0  0  0  0  0  0  0  0  0  0
  -33.1064  -26.5462   19.8034 O   0  0  0  0  0  0  0  0  0  0  0  0
  -32.9559  -24.3142   16.7718 O   0  0  0  0  0  0  0  0  0  0  0  0
  -30.3071  -21.0602   18.9891 O   0  0  0  0  0  0  0  0  0  0  0  0
  -31.8417  -14.8662   20.2737 O   0  0  0  0  0  0  0  0  0  0  0  0
  -21.4987   -7.0602   21.7061 O   0  0  0  0  0  0  0  0  0  0  0  0
  -32.9706  -22.5759   25.0686 O   0  0  0  0  0  0  0  0  0  1  0  0
  -23.8574   -2.9866   24.5778 F   0  0  0  0  0  0  0  0  0  0  0  0
  -20.4190   -6.2049   24.1030 F   0  0  0  0  0  0  0  0  0  0  0  0
  -28.1692  -17.4854   23.0641 Cl  0  0  0  0  0  0  0  0  0  0  0  0
  -34.3825  -17.3249   23.6658 Cl  0  0  0  0  0  0  0  0  0  0  0  0
  1  2  1  0  0  0  0
  1  5  2  0  0  0  0
  2  6  2  0  0  0  0
  3  8  2  0  0  0  0
  3 17  1  0  0  0  0
  4  9  1  0  0  0  0
  4 17  2  0  0  0  0
  5 19  1  0  0  0  0
  6 21  1  0  0  0  0
  7 10  2  0  0  0  0
  7 20  1  0  0  0  0
  8 25  1  0  0  0  0
  9 25  2  0  0  0  0
 10 26  1  0  0  0  0
 11 12  2  0  0  0  0
 11 27  1  0  0  0  0
 12 28  1  0  0  0  0
 13 22  1  0  0  0  0
 13 26  2  0  0  0  0
 14 23  2  0  0  0  0
 14 31  1  0  0  0  0
 15 24  1  0  0  0  0
 15 30  2  0  0  0  0
 16 28  2  0  0  0  0
 16 29  1  0  0  0  0
 17 32  1  0  0  0  0
 18 32  1  0  0  0  0
 18 33  2  0  0  0  0
 18 34  1  0  0  0  0
 19 21  2  0  0  0  0
 19 39  1  0  0  0  0
 20 22  2  0  0  0  0
 20 40  1  0  0  0  0
 21 48  1  0  0  0  0
 22 41  1  0  0  0  0
 23 30  1  0  0  0  0
 23 68  1  0  0  0  0
 24 31  2  0  0  0  0
 24 69  1  0  0  0  0
 25 78  1  0  0  0  0
 26 79  1  0  0  0  0
 27 29  2  0  0  0  0
 27 78  1  0  0  0  0
 28 80  1  0  0  0  0
 29 81  1  0  0  0  0
 30 82  1  0  0  0  0
 31 83  1  0  0  0  0
 32 62  2  0  0  0  0
 33 63  1  0  0  0  0
 33 66  1  0  0  0  0
 34 67  1  0  0  0  0
 34 73  2  0  0  0  0
 35 49  1  0  0  0  0
 35 70  1  0  0  0  0
 35 74  2  0  0  0  0
 36 59  1  0  0  0  0
 36 64  1  0  0  0  0
 36 75  2  0  0  0  0
 37 60  1  0  0  0  0
 37 71  1  0  0  0  0
 37 76  2  0  0  0  0
 38 65  1  0  0  0  0
 38 68  1  0  0  0  0
 38 77  2  0  0  0  0
 39 42  1  0  0  0  0
 40 49  1  0  0  0  0
 41 64  1  0  0  0  0
 42 44  1  0  0  0  0
 43 45  1  0  0  0  0
 43 46  1  0  0  0  0
 44 48  1  0  0  0  0
 45 50  1  0  0  0  0
 46 65  1  0  0  0  0
 47 50  1  0  0  0  0
 47 65  1  0  0  0  0
 48 70  1  0  0  0  0
 49 64  1  0  0  0  0
 50 63  1  0  0  0  0
 51 60  1  0  0  0  0
 52 61  1  0  0  0  0
 53 61  1  0  0  0  0
 54 61  1  0  0  0  0
 55 72  1  0  0  0  0
 56 57  1  0  0  0  0
 56 58  1  0  0  0  0
 57 69  1  0  0  0  0
 58 79  1  0  0  0  0
 59 61  1  0  0  0  0
 59 71  1  0  0  0  0
 60 72  1  0  0  0  0
 62 63  1  0  0  0  0
M  CHG  1  72   1
M  ISO  4  38 100  58 101  68 100  79 101
M  END
> <Batch ID>
0025

> <Smiles>
CNC(C)C(=O)NC(C(=O)N1Cc2cc([101O:1][101CH2:1]CCNc3cc(Cl)c([100NH:0][100C:0](=O)N4CCCC(n5nc(-c6ccc(Oc7ccc(F)cc7F)cc6)c(C(N)=O)c5N)C4)cc3Cl)ccc2CC1C(=O)NC1CCCc2ccccc21)C(C)(C)C

> <Shape>
0.211

> <Color>
0.204

> <Negative vol penalty>
0.000

$$$$

  -OEChem-04042321223D

 84 93  0     1  0  0  0  0  0999 V2000
  -28.8892  -32.3284   24.8458 C   0  0  0  0  0  0  0  0  0  0  0  0
  -28.8991  -30.9919   24.4596 C   0  0  0  0  0  0  0  0  0  0  0  0
  -23.1236   -9.8919   19.8144 C   0  0  0  0  0  0  0  0  0  0  0  0
  -23.9912   -9.6917   22.0603 C   0  0  0  0  0  0  0  0  0  0  0  0
  -28.1302  -33.2538   24.1308 C   0  0  0  0  0  0  0  0  0  0  0  0
  -28.1490  -30.5799   23.3586 C   0  0  0  0  0  0  0  0  0  0  0  0
  -30.7299  -27.4753   20.3016 C   0  0  0  0  0  0  0  0  0  0  0  0
  -31.1608  -19.2280   21.0215 C   0  0  0  0  0  0  0  0  0  0  0  0
  -31.0149  -17.8466   20.8954 C   0  0  0  0  0  0  0  0  0  0  0  0
  -22.4233   -8.6968   19.9784 C   0  0  0  0  0  0  0  0  0  0  0  0
  -23.2909   -8.4966   22.2244 C   0  0  0  0  0  0  0  0  0  0  0  0
  -30.8565  -26.1463   20.7035 C   0  0  0  0  0  0  0  0  0  0  0  0
  -20.1173   -7.5419   22.8859 C   0  0  0  0  0  0  0  0  0  0  0  0
  -19.4183   -7.3608   24.0792 C   0  0  0  0  0  0  0  0  0  0  0  0
  -29.0667  -25.5299   19.2082 C   0  0  0  0  0  0  0  0  0  0  0  0
  -29.6163  -19.2215   22.8794 C   0  0  0  0  0  0  0  0  0  0  0  0
  -20.7443   -5.3987   24.5581 C   0  0  0  0  0  0  0  0  0  0  0  0
  -23.9076  -10.3894   20.8554 C   0  0  0  0  0  0  0  0  0  0  0  0
  -24.1763  -12.9232   20.9783 C   0  0  0  0  0  0  0  0  0  0  0  0
  -27.3780  -32.8548   23.0147 C   0  0  0  0  0  0  0  0  0  0  0  0
  -29.7617  -27.8439   19.3564 C   0  0  0  0  0  0  0  0  0  0  0  0
  -27.3782  -31.5007   22.6288 C   0  0  0  0  0  0  0  0  0  0  0  0
  -28.9315  -26.8638   18.7941 C   0  0  0  0  0  0  0  0  0  0  0  0
  -29.4704  -17.8400   22.7532 C   0  0  0  0  0  0  0  0  0  0  0  0
  -30.4615  -19.9155   22.0136 C   0  0  0  0  0  0  0  0  0  0  0  0
  -30.1697  -17.1526   21.7612 C   0  0  0  0  0  0  0  0  0  0  0  0
  -22.5069   -7.9992   21.1834 C   0  0  0  0  0  0  0  0  0  0  0  0
  -30.0230  -25.1738   20.1589 C   0  0  0  0  0  0  0  0  0  0  0  0
  -21.1298   -6.6514   22.5286 C   0  0  0  0  0  0  0  0  0  0  0  0
  -19.7317   -6.2892   24.9154 C   0  0  0  0  0  0  0  0  0  0  0  0
  -21.4433   -5.5799   23.3647 C   0  0  0  0  0  0  0  0  0  0  0  0
  -24.6317  -11.6235   20.6863 C   0  0  0  0  0  0  0  0  0  0  0  0
  -25.2297  -13.7391   20.6450 C   0  0  0  0  0  0  0  0  0  0  0  0
  -29.9783  -22.1554   23.0896 C   0  0  0  0  0  0  0  0  0  0  0  0
  -22.9139  -13.3543   21.5040 C   0  0  0  0  0  0  0  0  0  0  0  0
  -27.2240  -29.7579   19.3742 C   0  0  0  0  0  0  0  0  0  0  0  0
  -27.1566  -29.0531   16.2086 C   0  0  0  0  0  0  0  0  0  0  0  0
  -27.9976  -26.8947   13.7025 C   0  0  0  0  0  0  0  0  0  0  0  0
  -30.6683  -14.9319   20.6812 C   0  0  0  0  0  0  0  0  0  0  0  0
  -26.5357  -33.8828   22.3016 C   0  0  0  0  0  0  0  0  0  0  0  0
  -29.6557  -29.2775   18.9137 C   0  0  0  0  0  0  0  0  0  0  0  0
  -27.8898  -27.2044   17.7610 C   0  0  0  0  0  0  0  0  0  0  0  0
  -30.5228  -23.5552   22.9088 C   0  0  0  0  0  0  0  0  0  0  0  0
  -26.0648  -33.4329   20.9210 C   0  0  0  0  0  0  0  0  0  0  0  0
  -29.5069  -12.7351   18.1313 C   0  0  0  0  0  0  0  0  0  0  0  0
  -25.5150  -32.0113   20.9815 C   0  0  0  0  0  0  0  0  0  0  0  0
  -28.0975  -12.3570   18.5927 C   0  0  0  0  0  0  0  0  0  0  0  0
  -30.4717  -12.8702   19.3079 C   0  0  0  0  0  0  0  0  0  0  0  0
  -28.6141  -13.3921   20.8396 C   0  0  0  0  0  0  0  0  0  0  0  0
  -31.5400  -22.0842   21.3190 C   0  0  0  0  0  0  0  0  0  0  0  0
  -26.5972  -31.0196   21.4251 C   0  0  1  0  0  0  0  0  0  0  0  0
  -28.2910  -29.6217   18.3251 C   0  0  1  0  0  0  0  0  0  0  0  0
  -27.5913  -13.3080   19.6949 C   0  0  2  0  0  0  0  0  0  0  0  0
  -31.1295  -23.5301   21.5178 C   0  0  1  0  0  0  0  0  0  1  0  0
  -28.5599  -17.1217   23.6955 C   0  0  0  0  0  0  0  0  0  0  0  0
  -27.7726  -26.5698   11.2243 C   0  0  0  0  0  0  0  0  0  0  0  0
  -24.2472  -28.2141   16.5852 C   0  0  0  0  0  0  0  0  0  0  0  0
  -24.3731  -27.0394   14.3778 C   0  0  0  0  0  0  0  0  0  0  0  0
  -24.6969  -29.5101   14.4941 C   0  0  0  0  0  0  0  0  0  0  0  0
  -30.9311  -26.9386   13.3134 C   0  0  0  0  0  0  0  0  0  0  0  0
  -26.5110  -27.9799   15.3658 C   0  0  1  0  0  0  0  0  0  0  0  0
  -28.6364  -27.1270   12.3451 C   0  0  2  0  0  0  0  0  0  0  0  0
  -24.9753  -28.1794   15.2266 C   0  0  0  0  0  0  0  0  0  0  0  0
  -25.8773  -11.6098   20.2044 N   0  0  0  0  0  0  0  0  0  0  0  0
  -26.2135  -12.9109   20.1910 N   0  0  0  0  0  0  0  0  0  0  0  0
  -30.6131  -21.3290   22.1443 N   0  0  0  0  0  0  0  0  0  0  0  0
  -27.8207  -28.6208   17.3653 N   0  0  0  0  0  0  0  0  0  0  0  0
  -29.9280  -13.7896   20.3099 N   0  0  0  0  0  0  0  0  0  0  0  0
  -25.4010  -15.0771   20.6988 N   0  0  0  0  0  0  0  0  0  0  0  0
  -21.9437  -12.3847   21.7916 N   0  0  0  0  0  0  0  0  0  0  0  0
  -30.0363  -15.7492   21.6178 N   0  0  0  0  0  0  0  0  0  0  0  0
  -27.4915  -30.7227   20.3266 N   0  0  0  0  0  0  0  0  0  0  0  0
  -27.2298  -27.9702   14.0964 N   0  0  0  0  0  0  0  0  0  0  0  0
  -29.9716  -26.4681   12.2814 N   0  3  0  0  0  0  0  0  0  0  0  0
  -29.1761  -21.8739   23.9683 O   0  0  0  0  0  0  0  0  0  0  0  0
  -22.6481  -14.5650   21.6970 O   0  0  0  0  0  0  0  0  0  0  0  0
  -26.2309  -29.0418   19.3226 O   0  0  0  0  0  0  0  0  0  0  0  0
  -27.0808  -30.2310   15.8500 O   0  0  0  0  0  0  0  0  0  0  0  0
  -28.1602  -25.8610   14.3471 O   0  0  0  0  0  0  0  0  0  0  0  0
  -31.7690  -15.1819   20.1833 O   0  0  0  0  0  0  0  0  0  0  0  0
  -21.8235   -6.8331   21.3439 O   0  0  0  0  0  0  0  0  0  0  0  0
  -30.1441  -23.8760   20.5499 O   0  0  0  0  0  0  0  0  0  1  0  0
  -19.0614   -6.1162   26.0621 F   0  0  0  0  0  0  0  0  0  0  0  0
  -22.4158   -4.7218   23.0274 F   0  0  0  0  0  0  0  0  0  0  0  0
  1  2  1  0  0  0  0
  1  5  2  0  0  0  0
  2  6  2  0  0  0  0
  3 10  2  0  0  0  0
  3 18  1  0  0  0  0
  4 11  1  0  0  0  0
  4 18  2  0  0  0  0
  5 20  1  0  0  0  0
  6 22  1  0  0  0  0
  7 12  2  0  0  0  0
  7 21  1  0  0  0  0
  8  9  2  0  0  0  0
  8 25  1  0  0  0  0
  9 26  1  0  0  0  0
 10 27  1  0  0  0  0
 11 27  2  0  0  0  0
 12 28  1  0  0  0  0
 13 14  2  0  0  0  0
 13 29  1  0  0  0  0
 14 30  1  0  0  0  0
 15 23  1  0  0  0  0
 15 28  2  0  0  0  0
 16 24  1  0  0  0  0
 16 25  2  0  0  0  0
 17 30  2  0  0  0  0
 17 31  1  0  0  0  0
 18 32  1  0  0  0  0
 19 32  1  0  0  0  0
 19 33  2  0  0  0  0
 19 35  1  0  0  0  0
 20 22  2  0  0  0  0
 20 40  1  0  0  0  0
 21 23  2  0  0  0  0
 21 41  1  0  0  0  0
 22 51  1  0  0  0  0
 23 42  1  0  0  0  0
 24 26  2  0  0  0  0
 24 55  1  0  0  0  0
 25 66  1  0  0  0  0
 26 71  1  0  0  0  0
 27 81  1  0  0  0  0
 28 82  1  0  0  0  0
 29 31  2  0  0  0  0
 29 81  1  0  0  0  0
 30 83  1  0  0  0  0
 31 84  1  0  0  0  0
 32 64  2  0  0  0  0
 33 65  1  0  0  0  0
 33 69  1  0  0  0  0
 34 43  1  0  0  0  0
 34 66  1  0  0  0  0
 34 75  2  0  0  0  0
 35 70  1  0  0  0  0
 35 76  2  0  0  0  0
 36 52  1  0  0  0  0
 36 72  1  0  0  0  0
 36 77  2  0  0  0  0
 37 61  1  0  0  0  0
 37 67  1  0  0  0  0
 37 78  2  0  0  0  0
 38 62  1  0  0  0  0
 38 73  1  0  0  0  0
 38 79  2  0  0  0  0
 39 68  1  0  0  0  0
 39 71  1  0  0  0  0
 39 80  2  0  0  0  0
 40 44  1  0  0  0  0
 41 52  1  0  0  0  0
 42 67  1  0  0  0  0
 43 54  1  0  0  0  0
 44 46  1  0  0  0  0
 45 47  1  0  0  0  0
 45 48  1  0  0  0  0
 46 51  1  0  0  0  0
 47 53  1  0  0  0  0
 48 68  1  0  0  0  0
 49 53  1  0  0  0  0
 49 68  1  0  0  0  0
 50 54  1  0  0  0  0
 50 66  1  0  0  0  0
 51 72  1  0  0  0  0
 52 67  1  0  0  0  0
 53 65  1  0  0  0  0
 54 82  1  0  0  0  0
 56 62  1  0  0  0  0
 57 63  1  0  0  0  0
 58 63  1  0  0  0  0
 59 63  1  0  0  0  0
 60 74  1  0  0  0  0
 61 63  1  0  0  0  0
 61 73  1  0  0  0  0
 62 74  1  0  0  0  0
 64 65  1  0  0  0  0
M  CHG  1  74   1
M  ISO  4  39 100  54 101  71 100  82 101
M  END
> <Batch ID>
0025

> <Smiles>
CNC(C)C(=O)NC(C(=O)N1Cc2cc([101O:1][101CH:1]3CC(=O)N(c4ccc([100NH:0][100C:0](=O)N5CCCC(n6nc(-c7ccc(Oc8ccc(F)cc8F)cc7)c(C(N)=O)c6N)C5)c(C)c4)C3)ccc2CC1C(=O)NC1CCCc2ccccc21)C(C)(C)C

> <Shape>
0.277

> <Color>
0.177

> <Negative vol penalty>
0.000

$$$$

  -OEChem-04042321223D

 86 95  0     1  0  0  0  0  0999 V2000
  -29.5758  -23.8472   14.6491 C   0  0  0  0  0  0  0  0  0  0  0  0
  -28.2579  -24.0330   15.0543 C   0  0  0  0  0  0  0  0  0  0  0  0
  -24.4583  -12.5700   21.4291 C   0  0  0  0  0  0  0  0  0  0  0  0
  -25.2119  -14.4823   20.1592 C   0  0  0  0  0  0  0  0  0  0  0  0
  -30.6065  -23.9034   15.5863 C   0  0  0  0  0  0  0  0  0  0  0  0
  -27.9700  -24.2742   16.3972 C   0  0  0  0  0  0  0  0  0  0  0  0
  -23.5308  -27.8571   18.6247 C   0  0  0  0  0  0  0  0  0  0  0  0
  -25.6199  -11.8809   21.0808 C   0  0  0  0  0  0  0  0  0  0  0  0
  -26.3736  -13.7932   19.8111 C   0  0  0  0  0  0  0  0  0  0  0  0
  -22.2563  -27.5764   19.1152 C   0  0  0  0  0  0  0  0  0  0  0  0
  -29.3327  -13.0175   21.2472 C   0  0  0  0  0  0  0  0  0  0  0  0
  -30.5435  -13.7040   21.3382 C   0  0  0  0  0  0  0  0  0  0  0  0
  -23.1297  -27.5701   21.3639 C   0  0  0  0  0  0  0  0  0  0  0  0
  -16.9888  -23.0047   19.7097 C   0  0  0  0  0  0  0  0  0  0  0  0
  -16.6870  -20.7185   18.9891 C   0  0  0  0  0  0  0  0  0  0  0  0
  -30.9171  -13.3580   18.9764 C   0  0  0  0  0  0  0  0  0  0  0  0
  -24.2542  -13.8707   20.9682 C   0  0  0  0  0  0  0  0  0  0  0  0
  -22.8587  -15.4068   22.4516 C   0  0  0  0  0  0  0  0  0  0  0  0
  -30.3320  -24.1550   16.9398 C   0  0  0  0  0  0  0  0  0  0  0  0
  -24.6182  -27.9859   19.5008 C   0  0  0  0  0  0  0  0  0  0  0  0
  -28.9979  -24.3325   17.3536 C   0  0  0  0  0  0  0  0  0  0  0  0
  -24.4165  -27.8550   20.8822 C   0  0  0  0  0  0  0  0  0  0  0  0
  -18.1862  -21.2215   20.8157 C   0  0  0  0  0  0  0  0  0  0  0  0
  -17.8876  -22.5780   20.6872 C   0  0  0  0  0  0  0  0  0  0  0  0
  -17.5859  -20.2918   19.9666 C   0  0  0  0  0  0  0  0  0  0  0  0
  -26.5776  -12.4925   20.2719 C   0  0  0  0  0  0  0  0  0  0  0  0
  -22.0561  -27.4299   20.4847 C   0  0  0  0  0  0  0  0  0  0  0  0
  -28.9141  -12.5011   20.0209 C   0  0  0  0  0  0  0  0  0  0  0  0
  -31.3357  -13.8743   20.2028 C   0  0  0  0  0  0  0  0  0  0  0  0
  -16.3885  -22.0750   18.8606 C   0  0  0  0  0  0  0  0  0  0  0  0
  -29.7063  -12.6714   18.8855 C   0  0  0  0  0  0  0  0  0  0  0  0
  -23.0541  -14.5828   21.3271 C   0  0  0  0  0  0  0  0  0  0  0  0
  -21.5614  -15.8428   22.3366 C   0  0  0  0  0  0  0  0  0  0  0  0
  -18.3900  -23.6039   22.9470 C   0  0  0  0  0  0  0  0  0  0  0  0
  -23.7687  -15.7477   23.5059 C   0  0  0  0  0  0  0  0  0  0  0  0
  -27.3616  -26.4345   19.9142 C   0  0  0  0  0  0  0  0  0  0  0  0
  -27.9314  -28.8072   22.0515 C   0  0  0  0  0  0  0  0  0  0  0  0
  -26.6653  -31.1919   24.1388 C   0  0  0  0  0  0  0  0  0  0  0  0
  -17.3556  -17.8722   19.3041 C   0  0  0  0  0  0  0  0  0  0  0  0
  -31.4750  -24.1597   17.9237 C   0  0  0  0  0  0  0  0  0  0  0  0
  -25.9817  -28.3153   18.9579 C   0  0  0  0  0  0  0  0  0  0  0  0
  -25.5469  -28.0038   21.8663 C   0  0  0  0  0  0  0  0  0  0  0  0
  -19.2732  -24.7371   23.4170 C   0  0  0  0  0  0  0  0  0  0  0  0
  -31.1199  -24.7920   19.2669 C   0  0  0  0  0  0  0  0  0  0  0  0
  -17.8456  -14.3461   19.2423 C   0  0  0  0  0  0  0  0  0  0  0  0
  -29.7796  -24.2634   19.7681 C   0  0  0  0  0  0  0  0  0  0  0  0
  -19.2283  -14.1611   19.8717 C   0  0  0  0  0  0  0  0  0  0  0  0
  -17.7791  -15.6049   18.3793 C   0  0  0  0  0  0  0  0  0  0  0  0
  -19.3735  -24.5811   21.0393 C   0  0  0  0  0  0  0  0  0  0  0  0
  -19.5903  -16.6548   19.6779 C   0  0  0  0  0  0  0  0  0  0  0  0
  -28.6477  -24.6209   18.7973 C   0  0  1  0  0  0  0  0  0  0  0  0
  -27.1127  -27.9162   19.9008 C   0  0  1  0  0  0  0  0  0  0  0  0
  -19.4474  -25.5943   22.1714 C   0  0  2  0  0  0  0  0  0  0  0  0
  -19.6870  -15.4348   20.6085 C   0  0  2  0  0  0  0  0  0  0  0  0
  -19.1517  -20.7637   21.8646 C   0  0  0  0  0  0  0  0  0  0  0  0
  -27.3763  -32.9488   25.7836 C   0  0  0  0  0  0  0  0  0  0  0  0
  -28.5008  -26.6371   24.1195 C   0  0  0  0  0  0  0  0  0  0  0  0
  -28.2641  -28.3751   25.9060 C   0  0  0  0  0  0  0  0  0  0  0  0
  -30.0663  -28.5860   24.1943 C   0  0  0  0  0  0  0  0  0  0  0  0
  -25.4463  -33.3565   22.5301 C   0  0  0  0  0  0  0  0  0  0  0  0
  -20.7370  -26.3966   22.1723 C   0  0  0  0  0  0  0  0  0  1  0  0
  -27.6650  -29.0063   23.5240 C   0  0  1  0  0  0  0  0  0  0  0  0
  -27.0250  -32.6538   24.3336 C   0  0  2  0  0  0  0  0  0  0  0  0
  -28.6029  -28.1463   24.4175 C   0  0  0  0  0  0  0  0  0  0  0  0
  -21.9678  -14.4986   20.5546 N   0  0  0  0  0  0  0  0  0  0  0  0
  -21.0773  -15.2753   21.1948 N   0  0  0  0  0  0  0  0  0  0  0  0
  -18.4900  -23.5469   21.5443 N   0  0  0  0  0  0  0  0  0  0  0  0
  -26.8626  -28.3197   21.2860 N   0  0  0  0  0  0  0  0  0  0  0  0
  -18.2240  -16.7716   19.1446 N   0  0  0  0  0  0  0  0  0  0  0  0
  -20.7988  -16.6524   23.1018 N   0  0  0  0  0  0  0  0  0  0  0  0
  -25.0635  -15.2126   23.4701 N   0  0  0  0  0  0  0  0  0  0  0  0
  -17.8752  -18.9092   20.0782 N   0  0  0  0  0  0  0  0  0  0  0  0
  -28.2628  -26.0067   18.9581 N   0  0  0  0  0  0  0  0  0  0  0  0
  -27.7605  -30.4419   23.7657 N   0  0  0  0  0  0  0  0  0  0  0  0
  -25.8820  -33.5254   23.9403 N   0  3  0  0  0  0  0  0  0  0  0  0
  -17.7821  -22.8809   23.7232 O   0  0  0  0  0  0  0  0  0  0  0  0
  -23.4379  -16.4913   24.4605 O   0  0  0  0  0  0  0  0  0  0  0  0
  -26.7801  -25.7315   20.7324 O   0  0  0  0  0  0  0  0  0  0  0  0
  -29.0445  -29.0810   21.5958 O   0  0  0  0  0  0  0  0  0  0  0  0
  -25.5275  -30.7581   24.3048 O   0  0  0  0  0  0  0  0  0  0  0  0
  -16.2233  -17.8817   18.8143 O   0  0  0  0  0  0  0  0  0  0  0  0
  -27.7114  -11.8205   19.9321 O   0  0  0  0  0  0  0  0  0  0  0  0
  -20.8133  -27.1552   20.9661 O   0  0  0  0  0  0  0  0  0  1  0  0
  -32.4976  -14.5349   20.2899 F   0  0  0  0  0  0  0  0  0  0  0  0
  -15.5251  -22.4852   17.9221 F   0  0  0  0  0  0  0  0  0  0  0  0
  -29.3088  -12.1786   17.7044 F   0  0  0  0  0  0  0  0  0  0  0  0
  1  2  1  0  0  0  0
  1  5  2  0  0  0  0
  2  6  2  0  0  0  0
  3  8  2  0  0  0  0
  3 17  1  0  0  0  0
  4  9  1  0  0  0  0
  4 17  2  0  0  0  0
  5 19  1  0  0  0  0
  6 21  1  0  0  0  0
  7 10  2  0  0  0  0
  7 20  1  0  0  0  0
  8 26  1  0  0  0  0
  9 26  2  0  0  0  0
 10 27  1  0  0  0  0
 11 12  2  0  0  0  0
 11 28  1  0  0  0  0
 12 29  1  0  0  0  0
 13 22  1  0  0  0  0
 13 27  2  0  0  0  0
 14 24  1  0  0  0  0
 14 30  2  0  0  0  0
 15 25  2  0  0  0  0
 15 30  1  0  0  0  0
 16 29  2  0  0  0  0
 16 31  1  0  0  0  0
 17 32  1  0  0  0  0
 18 32  1  0  0  0  0
 18 33  2  0  0  0  0
 18 35  1  0  0  0  0
 19 21  2  0  0  0  0
 19 40  1  0  0  0  0
 20 22  2  0  0  0  0
 20 41  1  0  0  0  0
 21 51  1  0  0  0  0
 22 42  1  0  0  0  0
 23 24  2  0  0  0  0
 23 25  1  0  0  0  0
 23 55  1  0  0  0  0
 24 67  1  0  0  0  0
 25 72  1  0  0  0  0
 26 82  1  0  0  0  0
 27 83  1  0  0  0  0
 28 31  2  0  0  0  0
 28 82  1  0  0  0  0
 29 84  1  0  0  0  0
 30 85  1  0  0  0  0
 31 86  1  0  0  0  0
 32 65  2  0  0  0  0
 33 66  1  0  0  0  0
 33 70  1  0  0  0  0
 34 43  1  0  0  0  0
 34 67  1  0  0  0  0
 34 76  2  0  0  0  0
 35 71  1  0  0  0  0
 35 77  2  0  0  0  0
 36 52  1  0  0  0  0
 36 73  1  0  0  0  0
 36 78  2  0  0  0  0
 37 62  1  0  0  0  0
 37 68  1  0  0  0  0
 37 79  2  0  0  0  0
 38 63  1  0  0  0  0
 38 74  1  0  0  0  0
 38 80  2  0  0  0  0
 39 69  1  0  0  0  0
 39 72  1  0  0  0  0
 39 81  2  0  0  0  0
 40 44  1  0  0  0  0
 41 52  1  0  0  0  0
 42 68  1  0  0  0  0
 43 53  1  0  0  0  0
 44 46  1  0  0  0  0
 45 47  1  0  0  0  0
 45 48  1  0  0  0  0
 46 51  1  0  0  0  0
 47 54  1  0  0  0  0
 48 69  1  0  0  0  0
 49 53  1  0  0  0  0
 49 67  1  0  0  0  0
 50 54  1  0  0  0  0
 50 69  1  0  0  0  0
 51 73  1  0  0  0  0
 52 68  1  0  0  0  0
 53 61  1  0  0  0  0
 54 66  1  0  0  0  0
 56 63  1  0  0  0  0
 57 64  1  0  0  0  0
 58 64  1  0  0  0  0
 59 64  1  0  0  0  0
 60 75  1  0  0  0  0
 61 83  1  0  0  0  0
 62 64  1  0  0  0  0
 62 74  1  0  0  0  0
 63 75  1  0  0  0  0
 65 66  1  0  0  0  0
M  CHG  1  75   1
M  ISO  4  39 100  61 101  72 100  83 101
M  END
> <Batch ID>
0025

> <Smiles>
CNC(C)C(=O)NC(C(=O)N1Cc2cc([101O:1][101CH2:1]C3CC(=O)N(c4cc(F)cc([100NH:0][100C:0](=O)N5CCCC(n6nc(-c7ccc(Oc8ccc(F)cc8F)cc7)c(C(N)=O)c6N)C5)c4C)C3)ccc2CC1C(=O)NC1CCCc2ccccc21)C(C)(C)C

> <Shape>
0.230

> <Color>
0.064

> <Negative vol penalty>
0.000

$$$$

  -OEChem-04042321223D

 87 96  0     1  0  0  0  0  0999 V2000
  -25.6898  -33.6858   27.0920 C   0  0  0  0  0  0  0  0  0  0  0  0
  -26.3610  -32.7499   26.3117 C   0  0  0  0  0  0  0  0  0  0  0  0
  -24.4945   -8.9860   20.6478 C   0  0  0  0  0  0  0  0  0  0  0  0
  -22.8923  -10.7912   20.7527 C   0  0  0  0  0  0  0  0  0  0  0  0
  -24.3256  -33.5369   27.3381 C   0  0  0  0  0  0  0  0  0  0  0  0
  -25.6684  -31.6638   25.7778 C   0  0  0  0  0  0  0  0  0  0  0  0
  -26.6657  -28.9570   20.3755 C   0  0  0  0  0  0  0  0  0  0  0  0
  -27.6183  -20.2607   18.1260 C   0  0  0  0  0  0  0  0  0  0  0  0
  -27.7473  -18.9480   18.5796 C   0  0  0  0  0  0  0  0  0  0  0  0
  -23.5014   -8.0825   21.0260 C   0  0  0  0  0  0  0  0  0  0  0  0
  -21.8991   -9.8877   21.1309 C   0  0  0  0  0  0  0  0  0  0  0  0
  -27.3648  -27.8047   20.0185 C   0  0  0  0  0  0  0  0  0  0  0  0
  -21.9493   -7.1369   23.8758 C   0  0  0  0  0  0  0  0  0  0  0  0
  -22.2691   -6.1956   24.8541 C   0  0  0  0  0  0  0  0  0  0  0  0
  -25.3054  -26.5492   20.0621 C   0  0  0  0  0  0  0  0  0  0  0  0
  -28.6095  -19.7605   20.6853 C   0  0  0  0  0  0  0  0  0  0  0  0
  -21.7920   -4.4129   23.2949 C   0  0  0  0  0  0  0  0  0  0  0  0
  -24.1900  -10.3404   20.5112 C   0  0  0  0  0  0  0  0  0  0  0  0
  -25.5621  -11.6582   18.8117 C   0  0  0  0  0  0  0  0  0  0  0  0
  -23.6139  -32.4536   26.7990 C   0  0  0  0  0  0  0  0  0  0  0  0
  -25.2806  -28.9116   20.5894 C   0  0  0  0  0  0  0  0  0  0  0  0
  -24.2936  -31.4994   26.0179 C   0  0  0  0  0  0  0  0  0  0  0  0
  -24.5907  -27.7028   20.4192 C   0  0  0  0  0  0  0  0  0  0  0  0
  -28.4805  -21.0732   20.2316 C   0  0  0  0  0  0  0  0  0  0  0  0
  -27.9850  -21.3233   18.9519 C   0  0  0  0  0  0  0  0  0  0  0  0
  -28.2429  -18.6979   19.8593 C   0  0  0  0  0  0  0  0  0  0  0  0
  -22.2037   -8.5334   21.2676 C   0  0  0  0  0  0  0  0  0  0  0  0
  -26.6851  -26.6000   19.8646 C   0  0  0  0  0  0  0  0  0  0  0  0
  -21.5508   -6.7162   22.6069 C   0  0  0  0  0  0  0  0  0  0  0  0
  -22.1905   -4.8336   24.5637 C   0  0  0  0  0  0  0  0  0  0  0  0
  -21.4721   -5.3542   22.3165 C   0  0  0  0  0  0  0  0  0  0  0  0
  -25.2155  -11.2742   20.1210 C   0  0  0  0  0  0  0  0  0  0  0  0
  -26.5861  -12.5585   18.9777 C   0  0  0  0  0  0  0  0  0  0  0  0
  -28.8142  -23.4030   17.7704 C   0  0  0  0  0  0  0  0  0  0  0  0
  -25.0080  -11.2387   17.5577 C   0  0  0  0  0  0  0  0  0  0  0  0
  -23.3750  -29.4668   23.0722 C   0  0  0  0  0  0  0  0  0  0  0  0
  -21.0304  -29.0238   20.8746 C   0  0  0  0  0  0  0  0  0  0  0  0
  -20.0682  -27.6534   17.9010 C   0  0  0  0  0  0  0  0  0  0  0  0
  -28.8470  -16.9420   21.5616 C   0  0  0  0  0  0  0  0  0  0  0  0
  -22.1500  -32.3090   27.1316 C   0  0  0  0  0  0  0  0  0  0  0  0
  -24.5371  -30.1690   20.9479 C   0  0  0  0  0  0  0  0  0  0  0  0
  -23.1009  -27.6052   20.6174 C   0  0  0  0  0  0  0  0  0  0  0  0
  -28.1815  -24.7198   17.3778 C   0  0  0  0  0  0  0  0  0  0  0  0
  -21.4115  -31.3331   26.2191 C   0  0  0  0  0  0  0  0  0  0  0  0
  -29.2858  -13.7556   23.0886 C   0  0  0  0  0  0  0  0  0  0  0  0
  -22.2126  -30.0455   26.0548 C   0  0  0  0  0  0  0  0  0  0  0  0
  -28.2945  -12.8576   22.3450 C   0  0  0  0  0  0  0  0  0  0  0  0
  -28.7313  -15.1642   23.2940 C   0  0  0  0  0  0  0  0  0  0  0  0
  -27.2623  -14.9293   21.3304 C   0  0  0  0  0  0  0  0  0  0  0  0
  -26.5999  -23.3974   18.5927 C   0  0  0  0  0  0  0  0  0  0  0  0
  -23.5719  -30.3211   25.4007 C   0  0  1  0  0  0  0  0  0  0  0  0
  -23.2062  -29.8986   21.6430 C   0  0  1  0  0  0  0  0  0  0  0  0
  -27.8024  -13.5189   21.0427 C   0  0  2  0  0  0  0  0  0  0  0  0
  -26.9836  -24.8352   18.3027 C   0  0  1  0  0  0  0  0  0  1  0  0
  -18.0798  -27.4307   16.3863 C   0  0  0  0  0  0  0  0  0  0  0  0
  -19.8358  -26.9377   22.7537 C   0  0  0  0  0  0  0  0  0  0  0  0
  -18.4615  -26.0991   20.8363 C   0  0  0  0  0  0  0  0  0  0  0  0
  -18.1599  -28.4354   21.6570 C   0  0  0  0  0  0  0  0  0  0  0  0
  -21.4537  -29.0439   15.6861 C   0  0  0  0  0  0  0  0  0  0  0  0
  -20.2505  -27.8345   20.3684 C   0  0  1  0  0  0  0  0  0  0  0  0
  -19.3243  -28.2406   16.7151 C   0  0  2  0  0  0  0  0  0  0  0  0
  -28.8813  -22.1922   21.1372 C   0  0  0  0  0  0  0  0  0  0  0  0
  -19.2053  -27.3278   21.4020 C   0  0  0  0  0  0  0  0  0  0  0  0
  -25.9590  -11.8808   21.0501 N   0  0  0  0  0  0  0  0  0  0  0  0
  -26.7831  -12.6550   20.3238 N   0  0  0  0  0  0  0  0  0  0  0  0
  -27.8452  -22.6594   18.4688 N   0  0  0  0  0  0  0  0  0  0  0  0
  -22.4195  -28.8608   20.9734 N   0  0  0  0  0  0  0  0  0  0  0  0
  -28.2887  -15.7289   22.0173 N   0  0  0  0  0  0  0  0  0  0  0  0
  -27.3282  -13.2691   18.1020 N   0  0  0  0  0  0  0  0  0  0  0  0
  -23.9606  -10.3075   17.5681 N   0  0  0  0  0  0  0  0  0  0  0  0
  -28.3731  -17.3643   20.3200 N   0  0  0  0  0  0  0  0  0  0  0  0
  -23.4170  -30.5124   23.9746 N   0  0  0  0  0  0  0  0  0  0  0  0
  -19.6783  -28.2366   19.0880 N   0  0  0  0  0  0  0  0  0  0  0  0
  -20.2028  -28.2618   15.5114 N   0  3  0  0  0  0  0  0  0  0  0  0
  -29.9525  -23.1005   17.4422 O   0  0  0  0  0  0  0  0  0  0  0  0
  -25.4402  -11.6643   16.4597 O   0  0  0  0  0  0  0  0  0  0  0  0
  -23.4592  -28.2732   23.3368 O   0  0  0  0  0  0  0  0  0  0  0  0
  -20.4301  -30.0616   21.1647 O   0  0  0  0  0  0  0  0  0  0  0  0
  -20.9081  -26.7636   17.7861 O   0  0  0  0  0  0  0  0  0  0  0  0
  -29.7038  -17.5465   22.2115 O   0  0  0  0  0  0  0  0  0  0  0  0
  -21.2344   -7.6520   21.6364 O   0  0  0  0  0  0  0  0  0  0  0  0
  -27.3651  -25.4737   19.5169 O   0  0  0  0  0  0  0  0  0  1  0  0
  -22.4991   -3.9298   25.5029 F   0  0  0  0  0  0  0  0  0  0  0  0
  -21.0911   -4.9440   21.0990 F   0  0  0  0  0  0  0  0  0  0  0  0
  -29.3446  -21.7718   22.3502 F   0  0  0  0  0  0  0  0  0  0  0  0
  -29.8746  -22.9763   20.6261 F   0  0  0  0  0  0  0  0  0  0  0  0
  -27.8475  -23.0385   21.4107 F   0  0  0  0  0  0  0  0  0  0  0  0
  1  2  1  0  0  0  0
  1  5  2  0  0  0  0
  2  6  2  0  0  0  0
  3 10  2  0  0  0  0
  3 18  1  0  0  0  0
  4 11  1  0  0  0  0
  4 18  2  0  0  0  0
  5 20  1  0  0  0  0
  6 22  1  0  0  0  0
  7 12  2  0  0  0  0
  7 21  1  0  0  0  0
  8  9  2  0  0  0  0
  8 25  1  0  0  0  0
  9 26  1  0  0  0  0
 10 27  1  0  0  0  0
 11 27  2  0  0  0  0
 12 28  1  0  0  0  0
 13 14  2  0  0  0  0
 13 29  1  0  0  0  0
 14 30  1  0  0  0  0
 15 23  1  0  0  0  0
 15 28  2  0  0  0  0
 16 24  1  0  0  0  0
 16 26  2  0  0  0  0
 17 30  2  0  0  0  0
 17 31  1  0  0  0  0
 18 32  1  0  0  0  0
 19 32  1  0  0  0  0
 19 33  2  0  0  0  0
 19 35  1  0  0  0  0
 20 22  2  0  0  0  0
 20 40  1  0  0  0  0
 21 23  2  0  0  0  0
 21 41  1  0  0  0  0
 22 51  1  0  0  0  0
 23 42  1  0  0  0  0
 24 25  2  0  0  0  0
 24 62  1  0  0  0  0
 25 66  1  0  0  0  0
 26 71  1  0  0  0  0
 27 81  1  0  0  0  0
 28 82  1  0  0  0  0
 29 31  2  0  0  0  0
 29 81  1  0  0  0  0
 30 83  1  0  0  0  0
 31 84  1  0  0  0  0
 32 64  2  0  0  0  0
 33 65  1  0  0  0  0
 33 69  1  0  0  0  0
 34 43  1  0  0  0  0
 34 66  1  0  0  0  0
 34 75  2  0  0  0  0
 35 70  1  0  0  0  0
 35 76  2  0  0  0  0
 36 52  1  0  0  0  0
 36 72  1  0  0  0  0
 36 77  2  0  0  0  0
 37 60  1  0  0  0  0
 37 67  1  0  0  0  0
 37 78  2  0  0  0  0
 38 61  1  0  0  0  0
 38 73  1  0  0  0  0
 38 79  2  0  0  0  0
 39 68  1  0  0  0  0
 39 71  1  0  0  0  0
 39 80  2  0  0  0  0
 40 44  1  0  0  0  0
 41 52  1  0  0  0  0
 42 67  1  0  0  0  0
 43 54  1  0  0  0  0
 44 46  1  0  0  0  0
 45 47  1  0  0  0  0
 45 48  1  0  0  0  0
 46 51  1  0  0  0  0
 47 53  1  0  0  0  0
 48 68  1  0  0  0  0
 49 53  1  0  0  0  0
 49 68  1  0  0  0  0
 50 54  1  0  0  0  0
 50 66  1  0  0  0  0
 51 72  1  0  0  0  0
 52 67  1  0  0  0  0
 53 65  1  0  0  0  0
 54 82  1  0  0  0  0
 55 61  1  0  0  0  0
 56 63  1  0  0  0  0
 57 63  1  0  0  0  0
 58 63  1  0  0  0  0
 59 74  1  0  0  0  0
 60 63  1  0  0  0  0
 60 73  1  0  0  0  0
 61 74  1  0  0  0  0
 62 85  1  0  0  0  0
 62 86  1  0  0  0  0
 62 87  1  0  0  0  0
 64 65  1  0  0  0  0
M  CHG  1  74   1
M  ISO  4  39 100  54 101  71 100  82 101
M  END
> <Batch ID>
0025

> <Smiles>
CNC(C)C(=O)NC(C(=O)N1Cc2cc([101O:1][101CH:1]3CC(=O)N(c4ccc([100NH:0][100C:0](=O)N5CCCC(n6nc(-c7ccc(Oc8ccc(F)cc8F)cc7)c(C(N)=O)c6N)C5)cc4C(F)(F)F)C3)ccc2CC1C(=O)NC1CCCc2ccccc21)C(C)(C)C

> <Shape>
0.322

> <Color>
0.091

> <Negative vol penalty>
0.000

$$$$

  -OEChem-04042321223D

 90 99  0     1  0  0  0  0  0999 V2000
  -28.0540  -31.2525   28.0903 C   0  0  0  0  0  0  0  0  0  0  0  0
  -28.0903  -30.1971   27.1846 C   0  0  0  0  0  0  0  0  0  0  0  0
  -23.8904   -9.8802   22.3211 C   0  0  0  0  0  0  0  0  0  0  0  0
  -23.1556  -10.1657   20.0373 C   0  0  0  0  0  0  0  0  0  0  0  0
  -26.8950  -32.0161   28.2230 C   0  0  0  0  0  0  0  0  0  0  0  0
  -26.9672  -29.9040   26.4119 C   0  0  0  0  0  0  0  0  0  0  0  0
  -26.9022  -27.8113   20.6567 C   0  0  0  0  0  0  0  0  0  0  0  0
  -23.0038   -8.8141   22.4731 C   0  0  0  0  0  0  0  0  0  0  0  0
  -22.2691   -9.0995   20.1893 C   0  0  0  0  0  0  0  0  0  0  0  0
  -26.7486  -26.5314   20.1257 C   0  0  0  0  0  0  0  0  0  0  0  0
  -22.8755   -5.5418   21.6313 C   0  0  0  0  0  0  0  0  0  0  0  0
  -23.3494   -4.3887   22.2570 C   0  0  0  0  0  0  0  0  0  0  0  0
  -24.3950  -26.9529   19.8062 C   0  0  0  0  0  0  0  0  0  0  0  0
  -26.7062  -19.7169   17.0372 C   0  0  0  0  0  0  0  0  0  0  0  0
  -28.4796  -18.4623   15.2868 C   0  0  0  0  0  0  0  0  0  0  0  0
  -21.6685   -4.6303   23.9755 C   0  0  0  0  0  0  0  0  0  0  0  0
  -23.9662  -10.5560   21.1032 C   0  0  0  0  0  0  0  0  0  0  0  0
  -26.2179  -11.5967   20.5079 C   0  0  0  0  0  0  0  0  0  0  0  0
  -25.7603  -31.7383   27.4446 C   0  0  0  0  0  0  0  0  0  0  0  0
  -25.7994  -28.6691   20.7767 C   0  0  0  0  0  0  0  0  0  0  0  0
  -25.7915  -30.6638   26.5353 C   0  0  0  0  0  0  0  0  0  0  0  0
  -24.5377  -28.2441   20.3367 C   0  0  0  0  0  0  0  0  0  0  0  0
  -27.1211  -20.3710   15.8772 C   0  0  0  0  0  0  0  0  0  0  0  0
  -28.0078  -19.7437   15.0020 C   0  0  0  0  0  0  0  0  0  0  0  0
  -27.1781  -18.4355   17.3220 C   0  0  0  0  0  0  0  0  0  0  0  0
  -22.1932   -8.4237   21.4072 C   0  0  0  0  0  0  0  0  0  0  0  0
  -25.4943  -26.1009   19.7030 C   0  0  0  0  0  0  0  0  0  0  0  0
  -21.7981   -6.2392   22.1778 C   0  0  0  0  0  0  0  0  0  0  0  0
  -22.7459   -3.9330   23.4291 C   0  0  0  0  0  0  0  0  0  0  0  0
  -21.1946   -5.7834   23.3499 C   0  0  0  0  0  0  0  0  0  0  0  0
  -28.0647  -17.8082   16.4468 C   0  0  0  0  0  0  0  0  0  0  0  0
  -24.8814  -11.6577   20.9458 C   0  0  0  0  0  0  0  0  0  0  0  0
  -26.6470  -12.9012   20.5321 C   0  0  0  0  0  0  0  0  0  0  0  0
  -27.6296  -20.8440   12.7520 C   0  0  0  0  0  0  0  0  0  0  0  0
  -27.0015  -10.4623   20.1145 C   0  0  0  0  0  0  0  0  0  0  0  0
  -24.3044  -30.0744   23.2045 C   0  0  0  0  0  0  0  0  0  0  0  0
  -22.6400  -31.5281   20.8298 C   0  0  0  0  0  0  0  0  0  0  0  0
  -25.9757  -23.3442   17.4228 C   0  0  0  0  0  0  0  0  0  0  0  0
  -21.5492  -31.4627   17.5968 C   0  0  0  0  0  0  0  0  0  0  0  0
  -25.8586  -18.3087   19.4643 C   0  0  0  0  0  0  0  0  0  0  0  0
  -24.5148  -32.5618   27.6571 C   0  0  0  0  0  0  0  0  0  0  0  0
  -25.9868  -30.0564   21.3269 C   0  0  0  0  0  0  0  0  0  0  0  0
  -23.3258  -29.1340   20.4252 C   0  0  0  0  0  0  0  0  0  0  0  0
  -28.5480  -21.3737   11.6742 C   0  0  0  0  0  0  0  0  0  0  0  0
  -23.4925  -32.4214   26.5322 C   0  0  0  0  0  0  0  0  0  0  0  0
  -29.8383  -21.6522   12.4188 C   0  0  0  0  0  0  0  0  0  0  0  0
  -24.4976  -17.0400   22.5000 C   0  0  0  0  0  0  0  0  0  0  0  0
  -23.2958  -30.9529   26.1698 C   0  0  0  0  0  0  0  0  0  0  0  0
  -24.5861  -15.5216   22.3302 C   0  0  0  0  0  0  0  0  0  0  0  0
  -29.8472  -20.6028   13.5106 C   0  0  0  0  0  0  0  0  0  0  0  0
  -24.1583  -17.7389   21.1846 C   0  0  0  0  0  0  0  0  0  0  0  0
  -25.1235  -15.8804   19.8870 C   0  0  0  0  0  0  0  0  0  0  0  0
  -24.6018  -30.3303   25.6615 C   0  0  1  0  0  0  0  0  0  0  0  0
  -24.6984  -30.6597   21.8779 C   0  0  1  0  0  0  0  0  0  0  0  0
  -25.5270  -15.1380   21.1713 C   0  0  2  0  0  0  0  0  0  0  0  0
  -20.1761  -32.7720   15.9543 C   0  0  0  0  0  0  0  0  0  0  0  0
  -20.0888  -30.5649   22.1986 C   0  0  0  0  0  0  0  0  0  0  0  0
  -18.8498  -31.0539   20.0787 C   0  0  0  0  0  0  0  0  0  0  0  0
  -19.9802  -32.9021   21.3153 C   0  0  0  0  0  0  0  0  0  0  0  0
  -28.3712  -22.9031   16.8579 C   0  0  0  0  0  0  0  0  0  0  0  0
  -23.8551  -31.8187   15.7761 C   0  0  0  0  0  0  0  0  0  0  0  0
  -26.5974  -21.7498   15.5962 C   0  0  0  0  0  0  0  0  0  0  0  0
  -26.4608  -24.2914   18.4999 C   0  0  0  0  0  0  0  0  0  1  0  0
  -21.3807  -31.2130   20.0592 C   0  0  1  0  0  0  0  0  0  0  0  0
  -21.5705  -32.5173   16.5050 C   0  0  2  0  0  0  0  0  0  0  0  0
  -20.0972  -31.4158   20.9129 C   0  0  0  0  0  0  0  0  0  0  0  0
  -24.4874  -12.9025   21.2276 N   0  0  0  0  0  0  0  0  0  0  0  0
  -25.5830  -13.6357   20.9663 N   0  0  0  0  0  0  0  0  0  0  0  0
  -28.4436  -20.3960   13.8107 N   0  0  0  0  0  0  0  0  0  0  0  0
  -23.5589  -30.4792   20.9762 N   0  0  0  0  0  0  0  0  0  0  0  0
  -25.0938  -17.3305   20.1344 N   0  0  0  0  0  0  0  0  0  0  0  0
  -27.8270  -13.4802   20.2241 N   0  0  0  0  0  0  0  0  0  0  0  0
  -26.4054   -9.1943   20.1486 N   0  0  0  0  0  0  0  0  0  0  0  0
  -26.7370  -17.7990   18.5087 N   0  0  0  0  0  0  0  0  0  0  0  0
  -24.8516  -30.7274   24.2924 N   0  0  0  0  0  0  0  0  0  0  0  0
  -21.4283  -32.0267   18.8492 N   0  0  0  0  0  0  0  0  0  0  0  0
  -26.9429  -22.6924   16.6570 N   0  0  0  0  0  0  0  0  0  0  0  0
  -22.4473  -32.0818   15.3813 N   0  3  0  0  0  0  0  0  0  0  0  0
  -26.4157  -20.7963   12.6166 O   0  0  0  0  0  0  0  0  0  0  0  0
  -28.1999  -10.5679   19.7594 O   0  0  0  0  0  0  0  0  0  0  0  0
  -23.5580  -29.1031   23.2385 O   0  0  0  0  0  0  0  0  0  0  0  0
  -22.8057  -32.6649   21.2790 O   0  0  0  0  0  0  0  0  0  0  0  0
  -24.7599  -23.1859   17.2757 O   0  0  0  0  0  0  0  0  0  0  0  0
  -21.6279  -30.2590   17.3618 O   0  0  0  0  0  0  0  0  0  0  0  0
  -25.7625  -19.5077   19.7385 O   0  0  0  0  0  0  0  0  0  0  0  0
  -21.3282   -7.3833   21.5550 O   0  0  0  0  0  0  0  0  0  0  0  0
  -25.3415  -24.8519   19.1850 O   0  0  0  0  0  0  0  0  0  1  0  0
  -23.2001   -2.8248   24.0289 F   0  0  0  0  0  0  0  0  0  0  0  0
  -20.1584   -6.4485   23.8789 F   0  0  0  0  0  0  0  0  0  0  0  0
  -28.6739  -16.2225   16.7620 Cl  0  0  0  0  0  0  0  0  0  0  0  0
  1  2  1  0  0  0  0
  1  5  2  0  0  0  0
  2  6  2  0  0  0  0
  3  8  2  0  0  0  0
  3 17  1  0  0  0  0
  4  9  1  0  0  0  0
  4 17  2  0  0  0  0
  5 19  1  0  0  0  0
  6 21  1  0  0  0  0
  7 10  2  0  0  0  0
  7 20  1  0  0  0  0
  8 26  1  0  0  0  0
  9 26  2  0  0  0  0
 10 27  1  0  0  0  0
 11 12  2  0  0  0  0
 11 28  1  0  0  0  0
 12 29  1  0  0  0  0
 13 22  1  0  0  0  0
 13 27  2  0  0  0  0
 14 23  1  0  0  0  0
 14 25  2  0  0  0  0
 15 24  1  0  0  0  0
 15 31  2  0  0  0  0
 16 29  2  0  0  0  0
 16 30  1  0  0  0  0
 17 32  1  0  0  0  0
 18 32  1  0  0  0  0
 18 33  2  0  0  0  0
 18 35  1  0  0  0  0
 19 21  2  0  0  0  0
 19 41  1  0  0  0  0
 20 22  2  0  0  0  0
 20 42  1  0  0  0  0
 21 53  1  0  0  0  0
 22 43  1  0  0  0  0
 23 24  2  0  0  0  0
 23 62  1  0  0  0  0
 24 69  1  0  0  0  0
 25 31  1  0  0  0  0
 25 74  1  0  0  0  0
 26 86  1  0  0  0  0
 27 87  1  0  0  0  0
 28 30  2  0  0  0  0
 28 86  1  0  0  0  0
 29 88  1  0  0  0  0
 30 89  1  0  0  0  0
 31 90  1  0  0  0  0
 32 67  2  0  0  0  0
 33 68  1  0  0  0  0
 33 72  1  0  0  0  0
 34 44  1  0  0  0  0
 34 69  1  0  0  0  0
 34 79  2  0  0  0  0
 35 73  1  0  0  0  0
 35 80  2  0  0  0  0
 36 54  1  0  0  0  0
 36 75  1  0  0  0  0
 36 81  2  0  0  0  0
 37 64  1  0  0  0  0
 37 70  1  0  0  0  0
 37 82  2  0  0  0  0
 38 63  1  0  0  0  0
 38 77  1  0  0  0  0
 38 83  2  0  0  0  0
 39 65  1  0  0  0  0
 39 76  1  0  0  0  0
 39 84  2  0  0  0  0
 40 71  1  0  0  0  0
 40 74  1  0  0  0  0
 40 85  2  0  0  0  0
 41 45  1  0  0  0  0
 42 54  1  0  0  0  0
 43 70  1  0  0  0  0
 44 46  1  0  0  0  0
 45 48  1  0  0  0  0
 46 50  1  0  0  0  0
 47 49  1  0  0  0  0
 47 51  1  0  0  0  0
 48 53  1  0  0  0  0
 49 55  1  0  0  0  0
 50 69  1  0  0  0  0
 51 71  1  0  0  0  0
 52 55  1  0  0  0  0
 52 71  1  0  0  0  0
 53 75  1  0  0  0  0
 54 70  1  0  0  0  0
 55 68  1  0  0  0  0
 56 65  1  0  0  0  0
 57 66  1  0  0  0  0
 58 66  1  0  0  0  0
 59 66  1  0  0  0  0
 60 77  1  0  0  0  0
 61 78  1  0  0  0  0
 62 77  1  0  0  0  0
 63 87  1  0  0  0  0
 64 66  1  0  0  0  0
 64 76  1  0  0  0  0
 65 78  1  0  0  0  0
 67 68  1  0  0  0  0
M  CHG  1  78   1
M  ISO  4  40 100  63 101  74 100  87 101
M  END
> <Batch ID>
0025

> <Smiles>
CNC(C)C(=O)NC(C(=O)N1Cc2cc([101O:1][101CH2:1]C(=O)N(C)Cc3cc([100NH:0][100C:0](=O)N4CCCC(n5nc(-c6ccc(Oc7ccc(F)cc7F)cc6)c(C(N)=O)c5N)C4)c(Cl)cc3N3CCCC3=O)ccc2CC1C(=O)NC1CCCc2ccccc21)C(C)(C)C

> <Shape>
0.221

> <Color>
0.094

> <Negative vol penalty>
0.000

$$$$

  -OEChem-04042321223D

 92101  0     1  0  0  0  0  0999 V2000
  -18.0676  -27.9381   19.2266 C   0  0  0  0  0  0  0  0  0  0  0  0
  -19.0589  -27.6223   18.3031 C   0  0  0  0  0  0  0  0  0  0  0  0
  -22.6221  -10.3149   20.2363 C   0  0  0  0  0  0  0  0  0  0  0  0
  -24.3637   -9.4036   21.6410 C   0  0  0  0  0  0  0  0  0  0  0  0
  -18.3721  -28.7350   20.3293 C   0  0  0  0  0  0  0  0  0  0  0  0
  -20.3553  -28.1042   18.4812 C   0  0  0  0  0  0  0  0  0  0  0  0
  -25.9441  -23.6325   18.9050 C   0  0  0  0  0  0  0  0  0  0  0  0
  -21.8930   -9.1338   20.3739 C   0  0  0  0  0  0  0  0  0  0  0  0
  -23.6346   -8.2225   21.7787 C   0  0  0  0  0  0  0  0  0  0  0  0
  -27.0954  -22.8631   18.7355 C   0  0  0  0  0  0  0  0  0  0  0  0
  -20.9919   -7.1237   23.5758 C   0  0  0  0  0  0  0  0  0  0  0  0
  -20.8855   -6.5749   24.8537 C   0  0  0  0  0  0  0  0  0  0  0  0
  -28.4691  -24.8152   19.1213 C   0  0  0  0  0  0  0  0  0  0  0  0
  -31.1841  -17.7033   20.9542 C   0  0  0  0  0  0  0  0  0  0  0  0
  -29.8992  -18.9874   23.0715 C   0  0  0  0  0  0  0  0  0  0  0  0
  -21.9598   -4.5555   24.0759 C   0  0  0  0  0  0  0  0  0  0  0  0
  -23.8575  -10.4498   20.8697 C   0  0  0  0  0  0  0  0  0  0  0  0
  -24.2097  -12.9657   21.1018 C   0  0  0  0  0  0  0  0  0  0  0  0
  -19.6751  -29.2189   20.5263 C   0  0  0  0  0  0  0  0  0  0  0  0
  -26.0507  -24.9951   19.1988 C   0  0  0  0  0  0  0  0  0  0  0  0
  -20.6772  -28.9094   19.5869 C   0  0  0  0  0  0  0  0  0  0  0  0
  -27.3195  -25.5881   19.3049 C   0  0  0  0  0  0  0  0  0  0  0  0
  -31.3657  -19.0718   21.1533 C   0  0  0  0  0  0  0  0  0  0  0  0
  -30.7233  -19.7139   22.2119 C   0  0  0  0  0  0  0  0  0  0  0  0
  -30.3600  -16.9768   21.8138 C   0  0  0  0  0  0  0  0  0  0  0  0
  -22.3992   -8.0876   21.1452 C   0  0  0  0  0  0  0  0  0  0  0  0
  -28.3548  -23.4531   18.8430 C   0  0  0  0  0  0  0  0  0  0  0  0
  -21.5823   -6.3884   22.5479 C   0  0  0  0  0  0  0  0  0  0  0  0
  -21.3694   -5.2908   25.1038 C   0  0  0  0  0  0  0  0  0  0  0  0
  -29.7176  -17.6188   22.8724 C   0  0  0  0  0  0  0  0  0  0  0  0
  -22.0662   -5.1043   22.7980 C   0  0  0  0  0  0  0  0  0  0  0  0
  -24.6114  -11.6694   20.7274 C   0  0  0  0  0  0  0  0  0  0  0  0
  -25.2722  -13.7664   20.7605 C   0  0  0  0  0  0  0  0  0  0  0  0
  -22.9857  -13.4066   21.7042 C   0  0  0  0  0  0  0  0  0  0  0  0
  -24.3021  -28.2347   19.8273 C   0  0  0  0  0  0  0  0  0  0  0  0
  -26.8209  -28.0745   21.7721 C   0  0  0  0  0  0  0  0  0  0  0  0
  -25.2330  -30.6314   23.7618 C   0  0  0  0  0  0  0  0  0  0  0  0
  -30.7416  -14.7986   20.6070 C   0  0  0  0  0  0  0  0  0  0  0  0
  -19.9454  -30.1159   21.7082 C   0  0  0  0  0  0  0  0  0  0  0  0
  -24.8345  -25.8727   19.3249 C   0  0  0  0  0  0  0  0  0  0  0  0
  -27.3870  -27.0623   19.5891 C   0  0  0  0  0  0  0  0  0  0  0  0
  -21.4302  -30.2767   22.0238 C   0  0  0  0  0  0  0  0  0  0  0  0
  -31.2434  -23.8909   23.0157 C   0  0  0  0  0  0  0  0  0  0  0  0
  -30.1478  -23.4079   22.0735 C   0  0  0  0  0  0  0  0  0  0  0  0
  -32.4288  -22.9340   22.9776 C   0  0  0  0  0  0  0  0  0  0  0  0
  -29.4018  -12.7646   18.0100 C   0  0  0  0  0  0  0  0  0  0  0  0
  -22.2196  -30.5575   20.7491 C   0  0  0  0  0  0  0  0  0  0  0  0
  -28.0030  -12.4049   18.5162 C   0  0  0  0  0  0  0  0  0  0  0  0
  -29.7252  -21.9738   22.3893 C   0  0  0  0  0  0  0  0  0  0  0  0
  -32.0013  -21.5036   23.2989 C   0  0  0  0  0  0  0  0  0  0  0  0
  -30.4211  -12.8136   19.1468 C   0  0  0  0  0  0  0  0  0  0  0  0
  -28.6496  -13.3128   20.7845 C   0  0  0  0  0  0  0  0  0  0  0  0
  -22.1009  -29.3927   19.7588 C   0  0  1  0  0  0  0  0  0  0  0  0
  -25.0010  -27.0135   20.3486 C   0  0  1  0  0  0  0  0  0  0  0  0
  -27.5754  -13.3147   19.6846 C   0  0  2  0  0  0  0  0  0  0  0  0
  -25.9760  -31.7422   25.8858 C   0  0  0  0  0  0  0  0  0  0  0  0
  -25.1400  -25.9278   23.1418 C   0  0  0  0  0  0  0  0  0  0  0  0
  -24.4199  -27.6528   24.8073 C   0  0  0  0  0  0  0  0  0  0  0  0
  -26.8285  -27.0314   24.6200 C   0  0  0  0  0  0  0  0  0  0  0  0
  -32.8515  -22.1645   15.4296 C   0  0  0  0  0  0  0  0  0  0  0  0
  -33.5317  -23.6004   17.2318 C   0  0  0  0  0  0  0  0  0  0  0  0
  -24.9976  -33.3299   22.5695 C   0  0  0  0  0  0  0  0  0  0  0  0
  -32.2573  -19.8288   20.2135 C   0  0  0  0  0  0  0  0  0  0  0  0
  -32.3587  -21.4812   18.3432 C   0  0  0  0  0  0  0  0  0  0  0  0
  -30.6288  -23.3487   18.1535 C   0  0  0  0  0  0  0  0  0  1  0  0
  -25.7582  -28.4098   22.7906 C   0  0  1  0  0  0  0  0  0  0  0  0
  -25.8979  -31.8525   24.3710 C   0  0  2  0  0  0  0  0  0  0  0  0
  -31.4989  -22.3318   17.4082 C   0  0  1  0  0  0  0  0  0  0  0  0
  -25.5324  -27.2595   23.8121 C   0  0  0  0  0  0  0  0  0  0  0  0
  -25.8336  -11.6435   20.1894 N   0  0  0  0  0  0  0  0  0  0  0  0
  -26.2091  -12.9335   20.2231 N   0  0  0  0  0  0  0  0  0  0  0  0
  -30.8938  -21.0872   22.4268 N   0  0  0  0  0  0  0  0  0  0  0  0
  -26.3948  -27.4219   20.6086 N   0  0  0  0  0  0  0  0  0  0  0  0
  -29.9507  -13.6978   20.2154 N   0  0  0  0  0  0  0  0  0  0  0  0
  -25.4872  -15.0946   20.8706 N   0  0  0  0  0  0  0  0  0  0  0  0
  -22.9037  -13.4406   23.1030 N   0  0  0  0  0  0  0  0  0  0  0  0
  -30.1770  -15.5866   21.6094 N   0  0  0  0  0  0  0  0  0  0  0  0
  -22.9620  -28.3002   20.1581 N   0  0  0  0  0  0  0  0  0  0  0  0
  -26.1573  -29.6761   23.3953 N   0  0  0  0  0  0  0  0  0  0  0  0
  -32.3953  -23.0521   16.4961 N   0  0  0  0  0  0  0  0  0  0  0  0
  -25.1322  -33.0843   24.0284 N   0  3  0  0  0  0  0  0  0  0  0  0
  -31.5033  -20.6729   19.2472 N   0  3  0  0  0  0  0  0  0  0  0  0
  -21.9884  -13.7444   21.0225 O   0  0  0  0  0  0  0  0  0  0  0  0
  -24.9316  -29.0586   19.1742 O   0  0  0  0  0  0  0  0  0  0  0  0
  -27.9941  -28.3755   22.0076 O   0  0  0  0  0  0  0  0  0  0  0  0
  -24.0152  -30.5331   23.6280 O   0  0  0  0  0  0  0  0  0  0  0  0
  -31.8266  -15.0410   20.0723 O   0  0  0  0  0  0  0  0  0  0  0  0
  -21.6879   -6.9350   21.2800 O   0  0  0  0  0  0  0  0  0  0  0  0
  -29.4748  -22.6955   18.6807 O   0  0  0  0  0  0  0  0  0  1  0  0
  -21.2685   -4.7645   26.3314 F   0  0  0  0  0  0  0  0  0  0  0  0
  -28.9233  -16.9306   23.7048 F   0  0  0  0  0  0  0  0  0  0  0  0
  -22.6354   -4.3936   21.8148 F   0  0  0  0  0  0  0  0  0  0  0  0
  1  2  1  0  0  0  0
  1  5  2  0  0  0  0
  2  6  2  0  0  0  0
  3  8  2  0  0  0  0
  3 17  1  0  0  0  0
  4  9  1  0  0  0  0
  4 17  2  0  0  0  0
  5 19  1  0  0  0  0
  6 21  1  0  0  0  0
  7 10  2  0  0  0  0
  7 20  1  0  0  0  0
  8 26  1  0  0  0  0
  9 26  2  0  0  0  0
 10 27  1  0  0  0  0
 11 12  2  0  0  0  0
 11 28  1  0  0  0  0
 12 29  1  0  0  0  0
 13 22  1  0  0  0  0
 13 27  2  0  0  0  0
 14 23  1  0  0  0  0
 14 25  2  0  0  0  0
 15 24  1  0  0  0  0
 15 30  2  0  0  0  0
 16 29  2  0  0  0  0
 16 31  1  0  0  0  0
 17 32  1  0  0  0  0
 18 32  1  0  0  0  0
 18 33  2  0  0  0  0
 18 34  1  0  0  0  0
 19 21  2  0  0  0  0
 19 39  1  0  0  0  0
 20 22  2  0  0  0  0
 20 40  1  0  0  0  0
 21 53  1  0  0  0  0
 22 41  1  0  0  0  0
 23 24  2  0  0  0  0
 23 63  1  0  0  0  0
 24 72  1  0  0  0  0
 25 30  1  0  0  0  0
 25 77  1  0  0  0  0
 26 88  1  0  0  0  0
 27 89  1  0  0  0  0
 28 31  2  0  0  0  0
 28 88  1  0  0  0  0
 29 90  1  0  0  0  0
 30 91  1  0  0  0  0
 31 92  1  0  0  0  0
 32 70  2  0  0  0  0
 33 71  1  0  0  0  0
 33 75  1  0  0  0  0
 34 76  1  0  0  0  0
 34 83  2  0  0  0  0
 35 54  1  0  0  0  0
 35 78  1  0  0  0  0
 35 84  2  0  0  0  0
 36 66  1  0  0  0  0
 36 73  1  0  0  0  0
 36 85  2  0  0  0  0
 37 67  1  0  0  0  0
 37 79  1  0  0  0  0
 37 86  2  0  0  0  0
 38 74  1  0  0  0  0
 38 77  1  0  0  0  0
 38 87  2  0  0  0  0
 39 42  1  0  0  0  0
 40 54  1  0  0  0  0
 41 73  1  0  0  0  0
 42 47  1  0  0  0  0
 43 44  1  0  0  0  0
 43 45  1  0  0  0  0
 44 49  1  0  0  0  0
 45 50  1  0  0  0  0
 46 48  1  0  0  0  0
 46 51  1  0  0  0  0
 47 53  1  0  0  0  0
 48 55  1  0  0  0  0
 49 72  1  0  0  0  0
 50 72  1  0  0  0  0
 51 74  1  0  0  0  0
 52 55  1  0  0  0  0
 52 74  1  0  0  0  0
 53 78  1  0  0  0  0
 54 73  1  0  0  0  0
 55 71  1  0  0  0  0
 56 67  1  0  0  0  0
 57 69  1  0  0  0  0
 58 69  1  0  0  0  0
 59 69  1  0  0  0  0
 60 80  1  0  0  0  0
 61 80  1  0  0  0  0
 62 81  1  0  0  0  0
 63 82  1  0  0  0  0
 64 68  1  0  0  0  0
 64 82  1  0  0  0  0
 65 68  1  0  0  0  0
 65 89  1  0  0  0  0
 66 69  1  0  0  0  0
 66 79  1  0  0  0  0
 67 81  1  0  0  0  0
 68 80  1  0  0  0  0
 70 71  1  0  0  0  0
M  CHG  2  81   1  82   1
M  ISO  4  38 100  65 101  77 100  89 101
M  END
> <Batch ID>
0025

> <Smiles>
CNC(C)C(=O)NC(C(=O)N1Cc2cc([101O:1][101CH2:1]C(CNCc3cc([100NH:0][100C:0](=O)N4CCCC(n5nc(-c6ccc(Oc7ccc(F)cc7F)cc6)c(C(N)=O)c5N)C4)c(F)cc3N3CCCCC3)N(C)C)ccc2CC1C(=O)NC1CCCc2ccccc21)C(C)(C)C

> <Shape>
0.347

> <Color>
0.195

> <Negative vol penalty>
0.000

$$$$

  -OEChem-04042321223D

 88 98  0     1  0  0  0  0  0999 V2000
  -27.9499  -11.8848   17.9836 C   0  0  0  0  0  0  0  0  0  0  0  0
  -27.3030  -12.9473   17.3608 C   0  0  0  0  0  0  0  0  0  0  0  0
  -29.4012  -22.3536   19.6430 C   0  0  0  0  0  0  0  0  0  0  0  0
  -27.6679  -21.2826   20.9413 C   0  0  0  0  0  0  0  0  0  0  0  0
  -27.5488  -11.4741   19.2541 C   0  0  0  0  0  0  0  0  0  0  0  0
  -26.2537  -13.5991   18.0078 C   0  0  0  0  0  0  0  0  0  0  0  0
  -23.2535  -20.0719   18.6535 C   0  0  0  0  0  0  0  0  0  0  0  0
  -20.1249  -28.4231   23.1644 C   0  0  0  0  0  0  0  0  0  0  0  0
  -18.9335  -28.5010   22.4433 C   0  0  0  0  0  0  0  0  0  0  0  0
  -30.3264  -21.4183   20.1064 C   0  0  0  0  0  0  0  0  0  0  0  0
  -28.5931  -20.3472   21.4047 C   0  0  0  0  0  0  0  0  0  0  0  0
  -22.0125  -20.6990   18.5504 C   0  0  0  0  0  0  0  0  0  0  0  0
  -30.0860  -17.5421   20.2543 C   0  0  0  0  0  0  0  0  0  0  0  0
  -29.7019  -16.2012   20.2605 C   0  0  0  0  0  0  0  0  0  0  0  0
  -21.4578  -19.9539   20.7767 C   0  0  0  0  0  0  0  0  0  0  0  0
  -20.2440  -26.0528   22.7120 C   0  0  0  0  0  0  0  0  0  0  0  0
  -30.0345  -16.1169   22.6520 C   0  0  0  0  0  0  0  0  0  0  0  0
  -28.0720  -22.2859   20.0605 C   0  0  0  0  0  0  0  0  0  0  0  0
  -26.3127  -23.1553   18.4306 C   0  0  0  0  0  0  0  0  0  0  0  0
  -26.5005  -12.1274   19.9211 C   0  0  0  0  0  0  0  0  0  0  0  0
  -23.6021  -19.3707   19.8168 C   0  0  0  0  0  0  0  0  0  0  0  0
  -25.8373  -13.1959   19.2879 C   0  0  0  0  0  0  0  0  0  0  0  0
  -22.7047  -19.3210   20.8930 C   0  0  0  0  0  0  0  0  0  0  0  0
  -20.7802  -27.1990   23.2987 C   0  0  0  0  0  0  0  0  0  0  0  0
  -19.0525  -26.1307   21.9909 C   0  0  0  0  0  0  0  0  0  0  0  0
  -18.3972  -27.3547   21.8566 C   0  0  0  0  0  0  0  0  0  0  0  0
  -29.9223  -20.4150   20.9872 C   0  0  0  0  0  0  0  0  0  0  0  0
  -21.1133  -20.6376   19.6109 C   0  0  0  0  0  0  0  0  0  0  0  0
  -30.4444  -18.1704   21.4470 C   0  0  0  0  0  0  0  0  0  0  0  0
  -29.6761  -15.4886   21.4593 C   0  0  0  0  0  0  0  0  0  0  0  0
  -30.4186  -17.4578   22.6458 C   0  0  0  0  0  0  0  0  0  0  0  0
  -27.1160  -23.2522   19.5826 C   0  0  0  0  0  0  0  0  0  0  0  0
  -25.5846  -24.3199   18.4208 C   0  0  0  0  0  0  0  0  0  0  0  0
  -26.2318  -22.1064   17.4565 C   0  0  0  0  0  0  0  0  0  0  0  0
  -24.3220  -16.3471   20.4824 C   0  0  0  0  0  0  0  0  0  0  0  0
  -24.9658  -17.5558   23.4229 C   0  0  0  0  0  0  0  0  0  0  0  0
  -24.4355  -20.0224   25.7211 C   0  0  0  0  0  0  0  0  0  0  0  0
  -23.8974  -28.1102   22.7380 C   0  0  0  0  0  0  0  0  0  0  0  0
  -26.0711  -11.6172   21.2739 C   0  0  0  0  0  0  0  0  0  0  0  0
  -24.9552  -18.7223   19.9226 C   0  0  0  0  0  0  0  0  0  0  0  0
  -23.0389  -18.5981   22.1714 C   0  0  0  0  0  0  0  0  0  0  0  0
  -25.1976  -12.6018   22.0470 C   0  0  0  0  0  0  0  0  0  0  0  0
  -15.6205  -28.0425   19.4630 C   0  0  0  0  0  0  0  0  0  0  0  0
  -14.9301  -27.1720   20.4934 C   0  0  0  0  0  0  0  0  0  0  0  0
  -25.8050  -28.8857   19.8335 C   0  0  0  0  0  0  0  0  0  0  0  0
  -24.1063  -13.1696   21.1450 C   0  0  0  0  0  0  0  0  0  0  0  0
  -26.2848  -27.5211   19.3359 C   0  0  0  0  0  0  0  0  0  0  0  0
  -17.0952  -27.7333   19.6948 C   0  0  0  0  0  0  0  0  0  0  0  0
  -15.8510  -27.2876   21.7027 C   0  0  0  0  0  0  0  0  0  0  0  0
  -25.7753  -28.9517   21.3588 C   0  0  0  0  0  0  0  0  0  0  0  0
  -25.4883  -26.5088   21.5129 C   0  0  0  0  0  0  0  0  0  0  0  0
  -20.3433  -23.5410   20.4850 C   0  0  0  0  0  0  0  0  0  0  0  0
  -18.5408  -23.3748   19.4430 C   0  0  0  0  0  0  0  0  0  0  0  0
  -24.7112  -13.9440   19.9678 C   0  0  1  0  0  0  0  0  0  0  0  0
  -25.0012  -17.6009   20.9559 C   0  0  1  0  0  0  0  0  0  0  0  0
  -25.4819  -26.3752   19.9805 C   0  0  2  0  0  0  0  0  0  0  0  0
  -19.9001  -22.6687   19.2970 C   0  0  0  0  0  0  0  0  0  1  0  0
  -25.0709  -20.7172   28.0472 C   0  0  0  0  0  0  0  0  0  0  0  0
  -23.0810  -15.4457   24.5654 C   0  0  0  0  0  0  0  0  0  0  0  0
  -23.0124  -16.7605   26.6950 C   0  0  0  0  0  0  0  0  0  0  0  0
  -25.1714  -15.8045   25.8905 C   0  0  0  0  0  0  0  0  0  0  0  0
  -25.6606  -22.5390   24.7595 C   0  0  0  0  0  0  0  0  0  0  0  0
  -22.0541  -27.1163   24.0697 C   0  0  0  0  0  0  0  0  0  0  0  0
  -18.4982  -24.8822   21.3703 C   0  0  0  0  0  0  0  0  0  0  0  0
  -24.1665  -17.7854   24.6829 C   0  0  1  0  0  0  0  0  0  0  0  0
  -25.3990  -20.8351   26.5670 C   0  0  2  0  0  0  0  0  0  0  0  0
  -23.8505  -16.4611   25.4337 C   0  0  0  0  0  0  0  0  0  0  0  0
  -26.9173  -24.3886   20.2557 N   0  0  0  0  0  0  0  0  0  0  0  0
  -25.9809  -25.0166   19.5244 N   0  0  0  0  0  0  0  0  0  0  0  0
  -17.1937  -27.4522   21.1324 N   0  0  0  0  0  0  0  0  0  0  0  0
  -24.3716  -17.9747   22.2240 N   0  0  0  0  0  0  0  0  0  0  0  0
  -24.9969  -27.8384   21.9072 N   0  0  0  0  0  0  0  0  0  0  0  0
  -24.6505  -24.8058   17.5759 N   0  0  0  0  0  0  0  0  0  0  0  0
  -27.0500  -20.9799   17.6181 N   0  0  0  0  0  0  0  0  0  0  0  0
  -25.1591  -15.2508   20.3993 N   0  0  0  0  0  0  0  0  0  0  0  0
  -24.9183  -18.7550   25.4722 N   0  0  0  0  0  0  0  0  0  0  0  0
  -23.2106  -26.9983   23.2098 N   0  0  0  0  0  0  0  0  0  0  0  0
  -19.2365  -24.4594   20.1601 N   0  3  0  0  0  0  0  0  0  0  0  0
  -25.3367  -22.2742   26.1849 N   0  3  0  0  0  0  0  0  0  0  0  0
  -25.4689  -22.1736   16.4631 O   0  0  0  0  0  0  0  0  0  0  0  0
  -23.1266  -16.3720   20.2138 O   0  0  0  0  0  0  0  0  0  0  0  0
  -26.0794  -17.0309   23.5004 O   0  0  0  0  0  0  0  0  0  0  0  0
  -23.3602  -20.4661   25.3242 O   0  0  0  0  0  0  0  0  0  0  0  0
  -23.5501  -29.2589   23.0328 O   0  0  0  0  0  0  0  0  0  0  0  0
  -30.8247  -19.5019   21.4394 O   0  0  0  0  0  0  0  0  0  0  0  0
  -19.9012  -21.2483   19.5127 O   0  0  0  0  0  0  0  0  0  1  0  0
  -29.3058  -14.2013   21.4653 F   0  0  0  0  0  0  0  0  0  0  0  0
  -30.7607  -18.0563   23.7950 F   0  0  0  0  0  0  0  0  0  0  0  0
  1  2  1  0  0  0  0
  1  5  2  0  0  0  0
  2  6  2  0  0  0  0
  3 10  2  0  0  0  0
  3 18  1  0  0  0  0
  4 11  1  0  0  0  0
  4 18  2  0  0  0  0
  5 20  1  0  0  0  0
  6 22  1  0  0  0  0
  7 12  2  0  0  0  0
  7 21  1  0  0  0  0
  8  9  2  0  0  0  0
  8 24  1  0  0  0  0
  9 26  1  0  0  0  0
 10 27  1  0  0  0  0
 11 27  2  0  0  0  0
 12 28  1  0  0  0  0
 13 14  2  0  0  0  0
 13 29  1  0  0  0  0
 14 30  1  0  0  0  0
 15 23  1  0  0  0  0
 15 28  2  0  0  0  0
 16 24  2  0  0  0  0
 16 25  1  0  0  0  0
 17 30  2  0  0  0  0
 17 31  1  0  0  0  0
 18 32  1  0  0  0  0
 19 32  1  0  0  0  0
 19 33  2  0  0  0  0
 19 34  1  0  0  0  0
 20 22  2  0  0  0  0
 20 39  1  0  0  0  0
 21 23  2  0  0  0  0
 21 40  1  0  0  0  0
 22 54  1  0  0  0  0
 23 41  1  0  0  0  0
 24 63  1  0  0  0  0
 25 26  2  0  0  0  0
 25 64  1  0  0  0  0
 26 70  1  0  0  0  0
 27 85  1  0  0  0  0
 28 86  1  0  0  0  0
 29 31  2  0  0  0  0
 29 85  1  0  0  0  0
 30 87  1  0  0  0  0
 31 88  1  0  0  0  0
 32 68  2  0  0  0  0
 33 69  1  0  0  0  0
 33 73  1  0  0  0  0
 34 74  1  0  0  0  0
 34 80  2  0  0  0  0
 35 55  1  0  0  0  0
 35 75  1  0  0  0  0
 35 81  2  0  0  0  0
 36 65  1  0  0  0  0
 36 71  1  0  0  0  0
 36 82  2  0  0  0  0
 37 66  1  0  0  0  0
 37 76  1  0  0  0  0
 37 83  2  0  0  0  0
 38 72  1  0  0  0  0
 38 77  1  0  0  0  0
 38 84  2  0  0  0  0
 39 42  1  0  0  0  0
 40 55  1  0  0  0  0
 41 71  1  0  0  0  0
 42 46  1  0  0  0  0
 43 44  1  0  0  0  0
 43 48  1  0  0  0  0
 44 49  1  0  0  0  0
 45 47  1  0  0  0  0
 45 50  1  0  0  0  0
 46 54  1  0  0  0  0
 47 56  1  0  0  0  0
 48 70  1  0  0  0  0
 49 70  1  0  0  0  0
 50 72  1  0  0  0  0
 51 56  1  0  0  0  0
 51 72  1  0  0  0  0
 52 57  1  0  0  0  0
 52 78  1  0  0  0  0
 53 57  1  0  0  0  0
 53 78  1  0  0  0  0
 54 75  1  0  0  0  0
 55 71  1  0  0  0  0
 56 69  1  0  0  0  0
 57 86  1  0  0  0  0
 58 66  1  0  0  0  0
 59 67  1  0  0  0  0
 60 67  1  0  0  0  0
 61 67  1  0  0  0  0
 62 79  1  0  0  0  0
 63 77  1  0  0  0  0
 64 78  1  0  0  0  0
 65 67  1  0  0  0  0
 65 76  1  0  0  0  0
 66 79  1  0  0  0  0
 68 69  1  0  0  0  0
M  CHG  2  78   1  79   1
M  ISO  4  38 100  57 101  77 100  86 101
M  END
> <Batch ID>
0025

> <Smiles>
CNC(C)C(=O)NC(C(=O)N1Cc2cc([101O:1][101CH:1]3CN(Cc4cc(C[100NH:0][100C:0](=O)N5CCCC(n6nc(-c7ccc(Oc8ccc(F)cc8F)cc7)c(C(N)=O)c6N)C5)ccc4N4CCCC4)C3)ccc2CC1C(=O)NC1CCCc2ccccc21)C(C)(C)C

> <Shape>
0.195

> <Color>
0.074

> <Negative vol penalty>
0.000

$$$$

  -OEChem-04042321223D

 87 96  0     1  0  0  0  0  0999 V2000
  -29.7299  -23.2707   16.4792 C   0  0  0  0  0  0  0  0  0  0  0  0
  -28.4905  -23.4051   17.0965 C   0  0  0  0  0  0  0  0  0  0  0  0
  -26.0319  -13.2439   21.0966 C   0  0  0  0  0  0  0  0  0  0  0  0
  -26.2985  -13.1518   18.6972 C   0  0  0  0  0  0  0  0  0  0  0  0
  -30.8622  -23.8402   17.0601 C   0  0  0  0  0  0  0  0  0  0  0  0
  -28.3828  -24.1082   18.2959 C   0  0  0  0  0  0  0  0  0  0  0  0
  -24.4292  -27.2723   18.3447 C   0  0  0  0  0  0  0  0  0  0  0  0
  -22.2982  -22.3342   23.3106 C   0  0  0  0  0  0  0  0  0  0  0  0
  -24.8966  -12.4392   21.0014 C   0  0  0  0  0  0  0  0  0  0  0  0
  -25.1632  -12.3470   18.6019 C   0  0  0  0  0  0  0  0  0  0  0  0
  -23.1706  -26.7153   18.5666 C   0  0  0  0  0  0  0  0  0  0  0  0
  -24.1975   -9.1556   20.5987 C   0  0  0  0  0  0  0  0  0  0  0  0
  -24.0727   -8.1011   21.5031 C   0  0  0  0  0  0  0  0  0  0  0  0
  -23.0469  -21.6858   24.2927 C   0  0  0  0  0  0  0  0  0  0  0  0
  -23.2792  -27.4050   20.8757 C   0  0  0  0  0  0  0  0  0  0  0  0
  -22.0121   -9.0540   22.3298 C   0  0  0  0  0  0  0  0  0  0  0  0
  -26.7329  -13.6003   19.9445 C   0  0  0  0  0  0  0  0  0  0  0  0
  -29.2375  -14.0074   20.2062 C   0  0  0  0  0  0  0  0  0  0  0  0
  -30.7668  -24.5589   18.2622 C   0  0  0  0  0  0  0  0  0  0  0  0
  -25.1282  -27.8914   19.3910 C   0  0  0  0  0  0  0  0  0  0  0  0
  -29.5151  -24.6867   18.8942 C   0  0  0  0  0  0  0  0  0  0  0  0
  -24.5454  -27.9714   20.6638 C   0  0  0  0  0  0  0  0  0  0  0  0
  -24.5042  -20.7868   22.5882 C   0  0  0  0  0  0  0  0  0  0  0  0
  -22.6524  -22.2088   21.9673 C   0  0  0  0  0  0  0  0  0  0  0  0
  -24.4623  -11.9907   19.7541 C   0  0  0  0  0  0  0  0  0  0  0  0
  -22.5966  -26.7790   19.8329 C   0  0  0  0  0  0  0  0  0  0  0  0
  -23.2297  -10.1594   20.5598 C   0  0  0  0  0  0  0  0  0  0  0  0
  -22.9800   -8.0502   22.3686 C   0  0  0  0  0  0  0  0  0  0  0  0
  -22.1370  -10.1085   21.4254 C   0  0  0  0  0  0  0  0  0  0  0  0
  -24.1500  -20.9121   23.9316 C   0  0  0  0  0  0  0  0  0  0  0  0
  -23.7554  -21.4351   21.6061 C   0  0  0  0  0  0  0  0  0  0  0  0
  -27.9054  -14.4320   20.0421 C   0  0  0  0  0  0  0  0  0  0  0  0
  -29.9668  -15.1708   20.2417 C   0  0  0  0  0  0  0  0  0  0  0  0
  -29.7683  -12.6801   20.3166 C   0  0  0  0  0  0  0  0  0  0  0  0
  -27.8941  -27.3596   20.8642 C   0  0  0  0  0  0  0  0  0  0  0  0
  -27.1926  -30.1551   22.3526 C   0  0  0  0  0  0  0  0  0  0  0  0
  -24.8137  -32.3925   23.3434 C   0  0  0  0  0  0  0  0  0  0  0  0
  -25.8008  -18.7093   19.9971 C   0  0  0  0  0  0  0  0  0  0  0  0
  -32.0263  -25.1164   18.8766 C   0  0  0  0  0  0  0  0  0  0  0  0
  -26.4734  -28.5110   19.1288 C   0  0  0  0  0  0  0  0  0  0  0  0
  -25.2457  -28.6429   21.8158 C   0  0  0  0  0  0  0  0  0  0  0  0
  -31.7655  -26.1651   19.9548 C   0  0  0  0  0  0  0  0  0  0  0  0
  -28.5555  -18.4578   17.7778 C   0  0  0  0  0  0  0  0  0  0  0  0
  -30.6825  -25.6849   20.9157 C   0  0  0  0  0  0  0  0  0  0  0  0
  -29.7540  -18.1544   18.6712 C   0  0  0  0  0  0  0  0  0  0  0  0
  -24.1921  -16.5622   21.6055 C   0  0  0  0  0  0  0  0  0  0  0  0
  -24.2585  -17.1955   22.9631 C   0  0  0  0  0  0  0  0  0  0  0  0
  -27.6016  -19.4236   18.4647 C   0  0  0  0  0  0  0  0  0  0  0  0
  -28.2455  -18.5608   20.7032 C   0  0  0  0  0  0  0  0  0  0  0  0
  -29.3538  -25.4632   20.1830 C   0  0  1  0  0  0  0  0  0  0  0  0
  -27.3172  -28.6636   20.3906 C   0  0  1  0  0  0  0  0  0  0  0  0
  -29.3492  -17.6781   20.0762 C   0  0  1  0  0  0  0  0  0  0  0  0
  -24.1881  -18.0609   21.7348 C   0  0  0  0  0  0  0  0  0  0  0  0
  -24.5411  -34.5625   24.5738 C   0  0  0  0  0  0  0  0  0  0  0  0
  -27.5914  -28.6989   25.0041 C   0  0  0  0  0  0  0  0  0  0  0  0
  -26.4069  -30.5893   26.1405 C   0  0  0  0  0  0  0  0  0  0  0  0
  -28.5465  -31.0090   24.9287 C   0  0  0  0  0  0  0  0  0  0  0  0
  -23.6758  -33.7331   20.9628 C   0  0  0  0  0  0  0  0  0  0  0  0
  -25.6904  -19.9540   22.2061 C   0  0  0  0  0  0  0  0  0  0  0  0
  -20.0819  -24.2098   20.0682 C   0  0  0  0  0  0  0  0  0  0  0  0
  -20.7370  -23.6786   21.3375 C   0  0  0  0  0  0  0  0  0  0  0  0
  -21.0043  -25.1099   19.2545 C   0  0  0  0  0  0  0  0  0  1  0  0
  -26.4437  -30.5408   23.6053 C   0  0  1  0  0  0  0  0  0  0  0  0
  -24.7372  -33.9033   23.2174 C   0  0  2  0  0  0  0  0  0  0  0  0
  -27.2345  -30.1951   24.8986 C   0  0  0  0  0  0  0  0  0  0  0  0
  -27.7920  -15.7613   19.9780 N   0  0  0  0  0  0  0  0  0  0  0  0
  -29.0623  -16.1821   20.1025 N   0  0  0  0  0  0  0  0  0  0  0  0
  -26.5617  -29.2282   21.5108 N   0  0  0  0  0  0  0  0  0  0  0  0
  -27.1688  -18.9225   19.7688 N   0  0  0  0  0  0  0  0  0  0  0  0
  -31.2870  -15.4172   20.3782 N   0  0  0  0  0  0  0  0  0  0  0  0
  -28.8792  -11.5981   20.2601 N   0  0  0  0  0  0  0  0  0  0  0  0
  -21.8862  -22.8667   21.0177 N   0  0  0  0  0  0  0  0  0  0  0  0
  -28.6970  -26.7284   19.9334 N   0  0  0  0  0  0  0  0  0  0  0  0
  -26.1157  -31.9555   23.4656 N   0  0  0  0  0  0  0  0  0  0  0  0
  -25.3260  -18.8574   21.3074 N   0  0  0  0  0  0  0  0  0  0  0  0
  -23.5997  -34.2928   22.3368 N   0  3  0  0  0  0  0  0  0  0  0  0
  -30.9929  -12.4607   20.4775 O   0  0  0  0  0  0  0  0  0  0  0  0
  -27.6315  -26.9566   21.9914 O   0  0  0  0  0  0  0  0  0  0  0  0
  -28.2936  -30.6632   22.1256 O   0  0  0  0  0  0  0  0  0  0  0  0
  -23.8178  -31.6723   23.3379 O   0  0  0  0  0  0  0  0  0  0  0  0
  -25.0340  -18.3963   19.0762 O   0  0  0  0  0  0  0  0  0  0  0  0
  -23.3546  -11.2052   19.6608 O   0  0  0  0  0  0  0  0  0  0  0  0
  -21.3685  -26.2355   20.0525 O   0  0  0  0  0  0  0  0  0  1  0  0
  -22.8595   -7.0367   23.2360 F   0  0  0  0  0  0  0  0  0  0  0  0
  -21.2034  -11.0693   21.3919 F   0  0  0  0  0  0  0  0  0  0  0  0
  -25.0479  -20.1275   25.1806 Cl  0  0  0  0  0  0  0  0  0  0  0  0
  -24.1952  -21.2800   19.9353 Cl  0  0  0  0  0  0  0  0  0  0  0  0
  1  2  1  0  0  0  0
  1  5  2  0  0  0  0
  2  6  2  0  0  0  0
  3  9  2  0  0  0  0
  3 17  1  0  0  0  0
  4 10  1  0  0  0  0
  4 17  2  0  0  0  0
  5 19  1  0  0  0  0
  6 21  1  0  0  0  0
  7 11  2  0  0  0  0
  7 20  1  0  0  0  0
  8 14  2  0  0  0  0
  8 24  1  0  0  0  0
  9 25  1  0  0  0  0
 10 25  2  0  0  0  0
 11 26  1  0  0  0  0
 12 13  2  0  0  0  0
 12 27  1  0  0  0  0
 13 28  1  0  0  0  0
 14 30  1  0  0  0  0
 15 22  1  0  0  0  0
 15 26  2  0  0  0  0
 16 28  2  0  0  0  0
 16 29  1  0  0  0  0
 17 32  1  0  0  0  0
 18 32  1  0  0  0  0
 18 33  2  0  0  0  0
 18 34  1  0  0  0  0
 19 21  2  0  0  0  0
 19 39  1  0  0  0  0
 20 22  2  0  0  0  0
 20 40  1  0  0  0  0
 21 50  1  0  0  0  0
 22 41  1  0  0  0  0
 23 30  2  0  0  0  0
 23 31  1  0  0  0  0
 23 59  1  0  0  0  0
 24 31  2  0  0  0  0
 24 72  1  0  0  0  0
 25 82  1  0  0  0  0
 26 83  1  0  0  0  0
 27 29  2  0  0  0  0
 27 82  1  0  0  0  0
 28 84  1  0  0  0  0
 29 85  1  0  0  0  0
 30 86  1  0  0  0  0
 31 87  1  0  0  0  0
 32 66  2  0  0  0  0
 33 67  1  0  0  0  0
 33 70  1  0  0  0  0
 34 71  1  0  0  0  0
 34 77  2  0  0  0  0
 35 51  1  0  0  0  0
 35 73  1  0  0  0  0
 35 78  2  0  0  0  0
 36 63  1  0  0  0  0
 36 68  1  0  0  0  0
 36 79  2  0  0  0  0
 37 64  1  0  0  0  0
 37 74  1  0  0  0  0
 37 80  2  0  0  0  0
 38 69  1  0  0  0  0
 38 75  1  0  0  0  0
 38 81  2  0  0  0  0
 39 42  1  0  0  0  0
 40 51  1  0  0  0  0
 41 68  1  0  0  0  0
 42 44  1  0  0  0  0
 43 45  1  0  0  0  0
 43 48  1  0  0  0  0
 44 50  1  0  0  0  0
 45 52  1  0  0  0  0
 46 47  1  0  0  0  0
 46 53  1  0  0  0  0
 47 53  1  0  0  0  0
 48 69  1  0  0  0  0
 49 52  1  0  0  0  0
 49 69  1  0  0  0  0
 50 73  1  0  0  0  0
 51 68  1  0  0  0  0
 52 67  1  0  0  0  0
 53 75  1  0  0  0  0
 54 64  1  0  0  0  0
 55 65  1  0  0  0  0
 56 65  1  0  0  0  0
 57 65  1  0  0  0  0
 58 76  1  0  0  0  0
 59 75  1  0  0  0  0
 60 61  1  0  0  0  0
 60 62  1  0  0  0  0
 61 72  1  0  0  0  0
 62 83  1  0  0  0  0
 63 65  1  0  0  0  0
 63 74  1  0  0  0  0
 64 76  1  0  0  0  0
 66 67  1  0  0  0  0
M  CHG  1  76   1
M  ISO  4  38 100  62 101  75 100  83 101
M  END
> <Batch ID>
0025

> <Smiles>
CNC(C)C(=O)NC(C(=O)N1Cc2cc([101O:1][101CH2:1]CCNc3ccc(Cl)c(C[100N:0](C4CC4)[100C:0](=O)N4CCCC(n5nc(-c6ccc(Oc7ccc(F)cc7F)cc6)c(C(N)=O)c5N)C4)c3Cl)ccc2CC1C(=O)NC1CCCc2ccccc21)C(C)(C)C

> <Shape>
0.293

> <Color>
0.066

> <Negative vol penalty>
0.000

$$$$

  -OEChem-04042321223D

 83 92  0     1  0  0  0  0  0999 V2000
  -31.5812  -34.2702   19.3415 C   0  0  0  0  0  0  0  0  0  0  0  0
  -32.5294  -33.3068   19.6706 C   0  0  0  0  0  0  0  0  0  0  0  0
  -23.0101   -9.9251   19.9443 C   0  0  0  0  0  0  0  0  0  0  0  0
  -23.7937   -9.8759   22.2292 C   0  0  0  0  0  0  0  0  0  0  0  0
  -30.2954  -34.1919   19.8746 C   0  0  0  0  0  0  0  0  0  0  0  0
  -32.1924  -32.2650   20.5340 C   0  0  0  0  0  0  0  0  0  0  0  0
  -33.6187  -25.3543   21.7683 C   0  0  0  0  0  0  0  0  0  0  0  0
  -32.8776  -17.1718   23.4483 C   0  0  0  0  0  0  0  0  0  0  0  0
  -32.2485  -16.3208   22.5397 C   0  0  0  0  0  0  0  0  0  0  0  0
  -22.2301   -8.7946   20.1875 C   0  0  0  0  0  0  0  0  0  0  0  0
  -23.0136   -8.7455   22.4724 C   0  0  0  0  0  0  0  0  0  0  0  0
  -34.0134  -24.5035   22.7999 C   0  0  0  0  0  0  0  0  0  0  0  0
  -19.7666   -8.0497   23.0997 C   0  0  0  0  0  0  0  0  0  0  0  0
  -19.0210   -8.0200   24.2781 C   0  0  0  0  0  0  0  0  0  0  0  0
  -31.7382  -24.4255   23.5978 C   0  0  0  0  0  0  0  0  0  0  0  0
  -30.7321  -18.0891   24.0748 C   0  0  0  0  0  0  0  0  0  0  0  0
  -20.2033   -6.0320   24.9760 C   0  0  0  0  0  0  0  0  0  0  0  0
  -23.7920  -10.4657   20.9652 C   0  0  0  0  0  0  0  0  0  0  0  0
  -24.2184  -12.9792   20.8739 C   0  0  0  0  0  0  0  0  0  0  0  0
  -29.9396  -33.1432   20.7374 C   0  0  0  0  0  0  0  0  0  0  0  0
  -32.2805  -25.7564   21.6499 C   0  0  0  0  0  0  0  0  0  0  0  0
  -30.9009  -32.1733   21.0803 C   0  0  0  0  0  0  0  0  0  0  0  0
  -31.3287  -25.2793   22.5623 C   0  0  0  0  0  0  0  0  0  0  0  0
  -32.1194  -18.0559   24.2159 C   0  0  0  0  0  0  0  0  0  0  0  0
  -30.8612  -16.3539   22.3986 C   0  0  0  0  0  0  0  0  0  0  0  0
  -22.2318   -8.2048   21.4515 C   0  0  0  0  0  0  0  0  0  0  0  0
  -33.0736  -24.0413   23.7166 C   0  0  0  0  0  0  0  0  0  0  0  0
  -20.7305   -7.0705   22.8593 C   0  0  0  0  0  0  0  0  0  0  0  0
  -19.2393   -7.0112   25.2163 C   0  0  0  0  0  0  0  0  0  0  0  0
  -30.1030  -17.2381   23.1661 C   0  0  0  0  0  0  0  0  0  0  0  0
  -20.9489   -6.0617   23.7975 C   0  0  0  0  0  0  0  0  0  0  0  0
  -24.5985  -11.6331   20.7144 C   0  0  0  0  0  0  0  0  0  0  0  0
  -25.3316  -13.6959   20.5085 C   0  0  0  0  0  0  0  0  0  0  0  0
  -22.9706  -13.5322   21.3133 C   0  0  0  0  0  0  0  0  0  0  0  0
  -30.7580  -28.5444   21.7612 C   0  0  0  0  0  0  0  0  0  0  0  0
  -28.1993  -26.7381   20.9169 C   0  0  0  0  0  0  0  0  0  0  0  0
  -26.7141  -23.6660   20.8591 C   0  0  0  0  0  0  0  0  0  0  0  0
  -30.8317  -14.5531   20.6372 C   0  0  0  0  0  0  0  0  0  0  0  0
  -28.5512  -33.1269   21.3262 C   0  0  0  0  0  0  0  0  0  0  0  0
  -31.8660  -26.6532   20.5157 C   0  0  0  0  0  0  0  0  0  0  0  0
  -29.8759  -25.6652   22.4671 C   0  0  0  0  0  0  0  0  0  0  0  0
  -28.1647  -31.7825   21.9375 C   0  0  0  0  0  0  0  0  0  0  0  0
  -29.6111  -12.2100   18.2503 C   0  0  0  0  0  0  0  0  0  0  0  0
  -29.2932  -31.2510   22.8154 C   0  0  0  0  0  0  0  0  0  0  0  0
  -28.1669  -11.9617   18.6918 C   0  0  0  0  0  0  0  0  0  0  0  0
  -30.5460  -12.3917   19.4448 C   0  0  0  0  0  0  0  0  0  0  0  0
  -28.6793  -13.1621   20.8559 C   0  0  0  0  0  0  0  0  0  0  0  0
  -33.0944  -20.9131   23.7326 C   0  0  0  0  0  0  0  0  0  0  0  0
  -34.2334  -20.9313   25.4832 C   0  0  0  0  0  0  0  0  0  0  0  0
  -30.5663  -31.0142   21.9939 C   0  0  1  0  0  0  0  0  0  0  0  0
  -30.5708  -27.4094   20.7946 C   0  0  1  0  0  0  0  0  0  0  0  0
  -27.6889  -13.0375   19.6866 C   0  0  2  0  0  0  0  0  0  0  0  0
  -34.0439  -21.9550   24.3502 C   0  0  0  0  0  0  0  0  0  1  0  0
  -24.6070  -22.5100   20.1374 C   0  0  0  0  0  0  0  0  0  0  0  0
  -26.7330  -27.9160   23.3195 C   0  0  0  0  0  0  0  0  0  0  0  0
  -25.0529  -26.0716   23.1102 C   0  0  0  0  0  0  0  0  0  0  0  0
  -25.3448  -27.7075   21.2498 C   0  0  0  0  0  0  0  0  0  0  0  0
  -28.1840  -21.9008   18.9932 C   0  0  0  0  0  0  0  0  0  0  0  0
  -32.7960  -18.9722   25.1925 C   0  0  0  0  0  0  0  0  0  0  0  0
  -27.1363  -25.9731   21.6677 C   0  0  1  0  0  0  0  0  0  0  0  0
  -26.0227  -22.9023   19.7442 C   0  0  2  0  0  0  0  0  0  0  0  0
  -26.0944  -26.9111   22.3400 C   0  0  0  0  0  0  0  0  0  0  0  0
  -25.8549  -11.5000   20.2812 N   0  0  0  0  0  0  0  0  0  0  0  0
  -26.2740  -12.7716   20.1654 N   0  0  0  0  0  0  0  0  0  0  0  0
  -29.5211  -26.5490   21.3444 N   0  0  0  0  0  0  0  0  0  0  0  0
  -30.0316  -13.4292   20.3414 N   0  0  0  0  0  0  0  0  0  0  0  0
  -25.5864  -15.0203   20.4503 N   0  0  0  0  0  0  0  0  0  0  0  0
  -21.9319  -12.6535   21.6498 N   0  0  0  0  0  0  0  0  0  0  0  0
  -30.2248  -15.4886   21.4745 N   0  0  0  0  0  0  0  0  0  0  0  0
  -30.4574  -29.7865   21.2355 N   0  0  0  0  0  0  0  0  0  0  0  0
  -26.5629  -25.0290   20.7146 N   0  0  0  0  0  0  0  0  0  0  0  0
  -33.7658  -19.8876   24.5522 N   0  3  0  0  0  0  0  0  0  0  0  0
  -26.7810  -21.6613   19.4187 N   0  3  0  0  0  0  0  0  0  0  0  0
  -22.7771  -14.7692   21.3890 O   0  0  0  0  0  0  0  0  0  0  0  0
  -31.1449  -28.3105   22.9002 O   0  0  0  0  0  0  0  0  0  0  0  0
  -27.8697  -27.4708   19.9809 O   0  0  0  0  0  0  0  0  0  0  0  0
  -27.3239  -23.1092   21.7694 O   0  0  0  0  0  0  0  0  0  0  0  0
  -31.9610  -14.6896   20.1596 O   0  0  0  0  0  0  0  0  0  0  0  0
  -21.4705   -7.1018   21.6893 O   0  0  0  0  0  0  0  0  0  0  0  0
  -33.4563  -23.2113   24.7248 O   0  0  0  0  0  0  0  0  0  1  0  0
  -18.5243   -6.9836   26.3486 F   0  0  0  0  0  0  0  0  0  0  0  0
  -28.7691  -17.2796   23.0377 F   0  0  0  0  0  0  0  0  0  0  0  0
  -21.8743   -5.1189   23.5728 F   0  0  0  0  0  0  0  0  0  0  0  0
  1  2  1  0  0  0  0
  1  5  2  0  0  0  0
  2  6  2  0  0  0  0
  3 10  2  0  0  0  0
  3 18  1  0  0  0  0
  4 11  1  0  0  0  0
  4 18  2  0  0  0  0
  5 20  1  0  0  0  0
  6 22  1  0  0  0  0
  7 12  2  0  0  0  0
  7 21  1  0  0  0  0
  8  9  2  0  0  0  0
  8 24  1  0  0  0  0
  9 25  1  0  0  0  0
 10 26  1  0  0  0  0
 11 26  2  0  0  0  0
 12 27  1  0  0  0  0
 13 14  2  0  0  0  0
 13 28  1  0  0  0  0
 14 29  1  0  0  0  0
 15 23  1  0  0  0  0
 15 27  2  0  0  0  0
 16 24  2  0  0  0  0
 16 30  1  0  0  0  0
 17 29  2  0  0  0  0
 17 31  1  0  0  0  0
 18 32  1  0  0  0  0
 19 32  1  0  0  0  0
 19 33  2  0  0  0  0
 19 34  1  0  0  0  0
 20 22  2  0  0  0  0
 20 39  1  0  0  0  0
 21 23  2  0  0  0  0
 21 40  1  0  0  0  0
 22 50  1  0  0  0  0
 23 41  1  0  0  0  0
 24 59  1  0  0  0  0
 25 30  2  0  0  0  0
 25 69  1  0  0  0  0
 26 79  1  0  0  0  0
 27 80  1  0  0  0  0
 28 31  2  0  0  0  0
 28 79  1  0  0  0  0
 29 81  1  0  0  0  0
 30 82  1  0  0  0  0
 31 83  1  0  0  0  0
 32 63  2  0  0  0  0
 33 64  1  0  0  0  0
 33 67  1  0  0  0  0
 34 68  1  0  0  0  0
 34 74  2  0  0  0  0
 35 51  1  0  0  0  0
 35 70  1  0  0  0  0
 35 75  2  0  0  0  0
 36 60  1  0  0  0  0
 36 65  1  0  0  0  0
 36 76  2  0  0  0  0
 37 61  1  0  0  0  0
 37 71  1  0  0  0  0
 37 77  2  0  0  0  0
 38 66  1  0  0  0  0
 38 69  1  0  0  0  0
 38 78  2  0  0  0  0
 39 42  1  0  0  0  0
 40 51  1  0  0  0  0
 41 65  1  0  0  0  0
 42 44  1  0  0  0  0
 43 45  1  0  0  0  0
 43 46  1  0  0  0  0
 44 50  1  0  0  0  0
 45 52  1  0  0  0  0
 46 66  1  0  0  0  0
 47 52  1  0  0  0  0
 47 66  1  0  0  0  0
 48 53  1  0  0  0  0
 48 72  1  0  0  0  0
 49 53  1  0  0  0  0
 49 72  1  0  0  0  0
 50 70  1  0  0  0  0
 51 65  1  0  0  0  0
 52 64  1  0  0  0  0
 53 80  1  0  0  0  0
 54 61  1  0  0  0  0
 55 62  1  0  0  0  0
 56 62  1  0  0  0  0
 57 62  1  0  0  0  0
 58 73  1  0  0  0  0
 59 72  1  0  0  0  0
 60 62  1  0  0  0  0
 60 71  1  0  0  0  0
 61 73  1  0  0  0  0
 63 64  1  0  0  0  0
M  CHG  2  72   1  73   1
M  ISO  4  38 100  53 101  69 100  80 101
M  END
> <Batch ID>
0025

> <Smiles>
CNC(C)C(=O)NC(C(=O)N1Cc2cc([101O:1][101CH:1]3CN(Cc4ccc([100NH:0][100C:0](=O)N5CCCC(n6nc(-c7ccc(Oc8ccc(F)cc8F)cc7)c(C(N)=O)c6N)C5)c(F)c4)C3)ccc2CC1C(=O)NC1CCCc2ccccc21)C(C)(C)C

> <Shape>
0.221

> <Color>
0.195

> <Negative vol penalty>
0.000

$$$$

  -OEChem-04042321223D

 82 90  0     1  0  0  0  0  0999 V2000
  -27.0772  -10.6880   23.0616 C   0  0  0  0  0  0  0  0  0  0  0  0
  -27.9014  -11.7757   22.7916 C   0  0  0  0  0  0  0  0  0  0  0  0
  -23.1923  -29.3757   21.8102 C   0  0  0  0  0  0  0  0  0  0  0  0
  -21.5923  -27.7481   21.0177 C   0  0  0  0  0  0  0  0  0  0  0  0
  -25.8701  -10.5431   22.3790 C   0  0  0  0  0  0  0  0  0  0  0  0
  -27.5196  -12.7186   21.8378 C   0  0  0  0  0  0  0  0  0  0  0  0
  -28.6146  -18.7426   21.9724 C   0  0  0  0  0  0  0  0  0  0  0  0
  -31.7838  -27.0873   19.8848 C   0  0  0  0  0  0  0  0  0  0  0  0
  -22.1497  -30.2464   22.1271 C   0  0  0  0  0  0  0  0  0  0  0  0
  -20.5497  -28.6188   21.3346 C   0  0  0  0  0  0  0  0  0  0  0  0
  -29.5864  -19.5332   21.3605 C   0  0  0  0  0  0  0  0  0  0  0  0
  -18.8683  -29.5858   24.1021 C   0  0  0  0  0  0  0  0  0  0  0  0
  -17.7615  -29.0550   24.7645 C   0  0  0  0  0  0  0  0  0  0  0  0
  -31.4842  -28.3203   20.4640 C   0  0  0  0  0  0  0  0  0  0  0  0
  -29.8439  -28.7324   18.7388 C   0  0  0  0  0  0  0  0  0  0  0  0
  -28.0437  -20.0377   19.5759 C   0  0  0  0  0  0  0  0  0  0  0  0
  -16.3395  -29.7355   22.9336 C   0  0  0  0  0  0  0  0  0  0  0  0
  -22.9136  -28.1266   21.2554 C   0  0  0  0  0  0  0  0  0  0  0  0
  -30.1434  -27.4994   18.1596 C   0  0  0  0  0  0  0  0  0  0  0  0
  -24.5679  -26.2520   21.7626 C   0  0  0  0  0  0  0  0  0  0  0  0
  -25.4688  -11.4898   21.4233 C   0  0  0  0  0  0  0  0  0  0  0  0
  -27.3516  -18.5846   21.3840 C   0  0  0  0  0  0  0  0  0  0  0  0
  -26.3067  -12.5855   21.1408 C   0  0  0  0  0  0  0  0  0  0  0  0
  -27.0568  -19.2466   20.1837 C   0  0  0  0  0  0  0  0  0  0  0  0
  -31.1133  -26.6769   18.7325 C   0  0  0  0  0  0  0  0  0  0  0  0
  -20.8284  -29.8680   21.8894 C   0  0  0  0  0  0  0  0  0  0  0  0
  -29.3020  -20.1786   20.1606 C   0  0  0  0  0  0  0  0  0  0  0  0
  -18.7108  -30.1915   22.8554 C   0  0  0  0  0  0  0  0  0  0  0  0
  -16.4971  -29.1298   24.1802 C   0  0  0  0  0  0  0  0  0  0  0  0
  -17.4464  -30.2663   22.2712 C   0  0  0  0  0  0  0  0  0  0  0  0
  -30.5143  -29.1428   19.8910 C   0  0  0  0  0  0  0  0  0  0  0  0
  -23.9902  -27.2269   20.9273 C   0  0  0  0  0  0  0  0  0  0  0  0
  -25.5419  -25.6701   20.9885 C   0  0  0  0  0  0  0  0  0  0  0  0
  -29.4216  -27.0967   16.9456 C   0  0  0  0  0  0  0  0  0  0  0  0
  -24.2521  -25.9035   23.1171 C   0  0  0  0  0  0  0  0  0  0  0  0
  -25.6999  -16.1187   20.2458 C   0  0  0  0  0  0  0  0  0  0  0  0
  -23.3505  -18.3343   19.9396 C   0  0  0  0  0  0  0  0  0  0  0  0
  -22.4929  -21.6208   19.6080 C   0  0  0  0  0  0  0  0  0  0  0  0
  -24.1775  -11.2655   20.6771 C   0  0  0  0  0  0  0  0  0  0  0  0
  -26.3054  -17.7498   22.0704 C   0  0  0  0  0  0  0  0  0  0  0  0
  -25.7094  -19.1257   19.5216 C   0  0  0  0  0  0  0  0  0  0  0  0
  -23.6699  -12.5085   19.9507 C   0  0  0  0  0  0  0  0  0  0  0  0
  -26.4200  -25.3436   16.1343 C   0  0  0  0  0  0  0  0  0  0  0  0
  -24.8045  -13.1780   19.1817 C   0  0  0  0  0  0  0  0  0  0  0  0
  -25.5318  -25.5701   17.3590 C   0  0  0  0  0  0  0  0  0  0  0  0
  -27.2812  -26.5664   15.8287 C   0  0  0  0  0  0  0  0  0  0  0  0
  -27.2071  -27.2712   18.1957 C   0  0  0  0  0  0  0  0  0  0  0  0
  -25.9155  -13.6426   20.1311 C   0  0  1  0  0  0  0  0  0  0  0  0
  -25.2247  -17.2454   21.1191 C   0  0  1  0  0  0  0  0  0  0  0  0
  -26.3597  -26.0437   18.5684 C   0  0  1  0  0  0  0  0  0  0  0  0
  -21.0036  -23.6353   19.4618 C   0  0  0  0  0  0  0  0  0  0  0  0
  -23.1142  -17.4970   17.0150 C   0  0  0  0  0  0  0  0  0  0  0  0
  -21.8373  -19.6074   16.5864 C   0  0  0  0  0  0  0  0  0  0  0  0
  -20.9300  -17.9015   18.1641 C   0  0  0  0  0  0  0  0  0  0  0  0
  -32.7935  -25.1638   17.7088 C   0  0  0  0  0  0  0  0  0  0  0  0
  -22.4905  -21.9764   22.5461 C   0  0  0  0  0  0  0  0  0  0  0  0
  -30.8259  -23.1688   18.8505 C   0  0  0  0  0  0  0  0  0  0  0  0
  -30.4373  -24.3939   18.0317 C   0  0  0  0  0  0  0  0  0  0  0  0
  -29.7893  -22.0535   18.7811 C   0  0  0  0  0  0  0  0  0  1  0  0
  -22.9220  -19.2956   18.8573 C   0  0  1  0  0  0  0  0  0  0  0  0
  -21.4586  -22.4693   20.3255 C   0  0  2  0  0  0  0  0  0  0  0  0
  -22.2270  -18.5763   17.6669 C   0  0  0  0  0  0  0  0  0  0  0  0
  -24.5507  -27.2653   19.7155 N   0  0  0  0  0  0  0  0  0  0  0  0
  -25.4907  -26.3073   19.7837 N   0  0  0  0  0  0  0  0  0  0  0  0
  -28.0312  -26.9803   17.0140 N   0  0  0  0  0  0  0  0  0  0  0  0
  -24.7219  -18.2932   20.2282 N   0  0  0  0  0  0  0  0  0  0  0  0
  -26.4287  -24.6808   21.2278 N   0  0  0  0  0  0  0  0  0  0  0  0
  -23.2231  -26.6013   23.7640 N   0  0  0  0  0  0  0  0  0  0  0  0
  -25.5287  -14.8653   20.8018 N   0  0  0  0  0  0  0  0  0  0  0  0
  -22.0951  -20.3041   19.5111 N   0  0  0  0  0  0  0  0  0  0  0  0
  -31.4289  -25.4335   18.1662 N   0  0  3  0  0  0  0  0  0  0  0  0
  -22.0244  -23.0150   21.5916 N   0  3  0  0  0  0  0  0  0  0  0  0
  -30.1112  -26.8784   15.9506 O   0  0  0  0  0  0  0  0  0  0  0  0
  -24.8754  -25.0113   23.7408 O   0  0  0  0  0  0  0  0  0  0  0  0
  -26.1847  -16.3681   19.1483 O   0  0  0  0  0  0  0  0  0  0  0  0
  -22.4988  -17.6504   20.5129 O   0  0  0  0  0  0  0  0  0  0  0  0
  -23.5464  -22.0809   19.1734 O   0  0  0  0  0  0  0  0  0  0  0  0
  -19.8107  -30.7172   22.1987 O   0  0  0  0  0  0  0  0  0  0  0  0
  -30.2489  -20.9503   19.5609 O   0  0  0  0  0  0  0  0  0  1  0  0
  -15.4345  -28.6187   24.8158 F   0  0  0  0  0  0  0  0  0  0  0  0
  -17.2890  -30.8459   21.0733 F   0  0  0  0  0  0  0  0  0  0  0  0
  -30.1464  -30.6652   20.6050 Cl  0  0  0  0  0  0  0  0  0  0  0  0
  1  2  1  0  0  0  0
  1  5  2  0  0  0  0
  2  6  2  0  0  0  0
  3  9  2  0  0  0  0
  3 18  1  0  0  0  0
  4 10  1  0  0  0  0
  4 18  2  0  0  0  0
  5 21  1  0  0  0  0
  6 23  1  0  0  0  0
  7 11  2  0  0  0  0
  7 22  1  0  0  0  0
  8 14  2  0  0  0  0
  8 25  1  0  0  0  0
  9 26  1  0  0  0  0
 10 26  2  0  0  0  0
 11 27  1  0  0  0  0
 12 13  2  0  0  0  0
 12 28  1  0  0  0  0
 13 29  1  0  0  0  0
 14 31  1  0  0  0  0
 15 19  1  0  0  0  0
 15 31  2  0  0  0  0
 16 24  1  0  0  0  0
 16 27  2  0  0  0  0
 17 29  2  0  0  0  0
 17 30  1  0  0  0  0
 18 32  1  0  0  0  0
 19 25  2  0  0  0  0
 19 34  1  0  0  0  0
 20 32  1  0  0  0  0
 20 33  2  0  0  0  0
 20 35  1  0  0  0  0
 21 23  2  0  0  0  0
 21 39  1  0  0  0  0
 22 24  2  0  0  0  0
 22 40  1  0  0  0  0
 23 48  1  0  0  0  0
 24 41  1  0  0  0  0
 25 71  1  0  0  0  0
 26 78  1  0  0  0  0
 27 79  1  0  0  0  0
 28 30  2  0  0  0  0
 28 78  1  0  0  0  0
 29 80  1  0  0  0  0
 30 81  1  0  0  0  0
 31 82  1  0  0  0  0
 32 63  2  0  0  0  0
 33 64  1  0  0  0  0
 33 67  1  0  0  0  0
 34 65  1  0  0  0  0
 34 73  2  0  0  0  0
 35 68  1  0  0  0  0
 35 74  2  0  0  0  0
 36 49  1  0  0  0  0
 36 69  1  0  0  0  0
 36 75  2  0  0  0  0
 37 60  1  0  0  0  0
 37 66  1  0  0  0  0
 37 76  2  0  0  0  0
 38 61  1  0  0  0  0
 38 70  1  0  0  0  0
 38 77  2  0  0  0  0
 39 42  1  0  0  0  0
 40 49  1  0  0  0  0
 41 66  1  0  0  0  0
 42 44  1  0  0  0  0
 43 45  1  0  0  0  0
 43 46  1  0  0  0  0
 44 48  1  0  0  0  0
 45 50  1  0  0  0  0
 46 65  1  0  0  0  0
 47 50  1  0  0  0  0
 47 65  1  0  0  0  0
 48 69  1  0  0  0  0
 49 66  1  0  0  0  0
 50 64  1  0  0  0  0
 51 61  1  0  0  0  0
 52 62  1  0  0  0  0
 53 62  1  0  0  0  0
 54 62  1  0  0  0  0
 55 71  1  0  0  0  0
 56 72  1  0  0  0  0
 57 58  1  0  0  0  0
 57 59  1  0  0  0  0
 58 71  1  0  0  0  0
 59 79  1  0  0  0  0
 60 62  1  0  0  0  0
 60 70  1  0  0  0  0
 61 72  1  0  0  0  0
 63 64  1  0  0  0  0
M  CHG  1  72   1
M  ISO  4  19 100  34 100  59 101  79 101
M  END
> <Batch ID>
0025

> <Smiles>
CNC(C)C(=O)NC(C(=O)N1Cc2cc([101O:1][101CH2:1]CCN(C)c3ccc(Cl)c[100c:0]3[100C:0](=O)N3CCCC(n4nc(-c5ccc(Oc6ccc(F)cc6F)cc5)c(C(N)=O)c4N)C3)ccc2CC1C(=O)NC1CCCc2ccccc21)C(C)(C)C

> <Shape>
0.187

> <Color>
0.057

> <Negative vol penalty>
0.000

$$$$

  -OEChem-04042321223D

 89 98  0     1  0  0  0  0  0999 V2000
  -28.1762  -18.4130   18.2990 C   0  0  0  0  0  0  0  0  0  0  0  0
  -27.2945  -19.4488   18.5908 C   0  0  0  0  0  0  0  0  0  0  0  0
  -24.9715  -16.9017   23.1345 C   0  0  0  0  0  0  0  0  0  0  0  0
  -24.1639  -18.1412   21.2244 C   0  0  0  0  0  0  0  0  0  0  0  0
  -29.4782  -18.4462   18.7967 C   0  0  0  0  0  0  0  0  0  0  0  0
  -27.7140  -20.5180   19.3816 C   0  0  0  0  0  0  0  0  0  0  0  0
  -26.0089  -26.3765   18.8566 C   0  0  0  0  0  0  0  0  0  0  0  0
  -17.2008  -26.8363   24.8412 C   0  0  0  0  0  0  0  0  0  0  0  0
  -17.6402  -25.5477   25.1444 C   0  0  0  0  0  0  0  0  0  0  0  0
  -25.4302  -15.8937   22.2865 C   0  0  0  0  0  0  0  0  0  0  0  0
  -24.6227  -17.1332   20.3763 C   0  0  0  0  0  0  0  0  0  0  0  0
  -25.0618  -27.1422   19.5352 C   0  0  0  0  0  0  0  0  0  0  0  0
  -26.4933  -12.8256   20.6494 C   0  0  0  0  0  0  0  0  0  0  0  0
  -26.2291  -11.5039   21.0083 C   0  0  0  0  0  0  0  0  0  0  0  0
  -26.7890  -27.9659   21.0041 C   0  0  0  0  0  0  0  0  0  0  0  0
  -23.8574  -11.9599   20.9413 C   0  0  0  0  0  0  0  0  0  0  0  0
  -24.3382  -18.0254   22.6034 C   0  0  0  0  0  0  0  0  0  0  0  0
  -24.5745  -20.2011   23.9142 C   0  0  0  0  0  0  0  0  0  0  0  0
  -29.9168  -19.5211   19.5860 C   0  0  0  0  0  0  0  0  0  0  0  0
  -27.3536  -26.3914   19.2542 C   0  0  0  0  0  0  0  0  0  0  0  0
  -29.0227  -20.5650   19.8915 C   0  0  0  0  0  0  0  0  0  0  0  0
  -27.7517  -27.2015   20.3272 C   0  0  0  0  0  0  0  0  0  0  0  0
  -19.4798  -27.5115   24.4084 C   0  0  0  0  0  0  0  0  0  0  0  0
  -18.1207  -27.8182   24.4731 C   0  0  0  0  0  0  0  0  0  0  0  0
  -18.9993  -25.2409   25.0798 C   0  0  0  0  0  0  0  0  0  0  0  0
  -25.2559  -16.0095   20.9074 C   0  0  0  0  0  0  0  0  0  0  0  0
  -25.4513  -27.9348   20.6109 C   0  0  0  0  0  0  0  0  0  0  0  0
  -25.4397  -13.7145   20.4366 C   0  0  0  0  0  0  0  0  0  0  0  0
  -24.9111  -11.0710   21.1542 C   0  0  0  0  0  0  0  0  0  0  0  0
  -24.1217  -13.2817   20.5825 C   0  0  0  0  0  0  0  0  0  0  0  0
  -19.9192  -26.2229   24.7117 C   0  0  0  0  0  0  0  0  0  0  0  0
  -23.8636  -19.0667   23.4789 C   0  0  0  0  0  0  0  0  0  0  0  0
  -23.6894  -20.8718   24.7225 C   0  0  0  0  0  0  0  0  0  0  0  0
  -25.9151  -20.6120   23.6146 C   0  0  0  0  0  0  0  0  0  0  0  0
  -29.3936  -24.2129   20.3477 C   0  0  0  0  0  0  0  0  0  0  0  0
  -31.5269  -26.6415   20.0778 C   0  0  0  0  0  0  0  0  0  0  0  0
  -22.5206  -28.6309   22.5965 C   0  0  0  0  0  0  0  0  0  0  0  0
  -32.0877  -30.0059   19.9641 C   0  0  0  0  0  0  0  0  0  0  0  0
  -18.5937  -22.8538   25.7750 C   0  0  0  0  0  0  0  0  0  0  0  0
  -31.3189  -19.4897   20.1407 C   0  0  0  0  0  0  0  0  0  0  0  0
  -28.3676  -25.5804   18.4949 C   0  0  0  0  0  0  0  0  0  0  0  0
  -29.1863  -27.2683   20.7808 C   0  0  0  0  0  0  0  0  0  0  0  0
  -31.7987  -20.8425   20.6603 C   0  0  0  0  0  0  0  0  0  0  0  0
  -16.6903  -31.2624   24.4091 C   0  0  0  0  0  0  0  0  0  0  0  0
  -17.1340  -31.0866   22.9709 C   0  0  0  0  0  0  0  0  0  0  0  0
  -19.2097  -19.4450   26.5982 C   0  0  0  0  0  0  0  0  0  0  0  0
  -30.7265  -21.4911   21.5300 C   0  0  0  0  0  0  0  0  0  0  0  0
  -20.5339  -19.1360   25.8959 C   0  0  0  0  0  0  0  0  0  0  0  0
  -17.5016  -30.2013   25.1437 C   0  0  0  0  0  0  0  0  0  0  0  0
  -17.2499  -29.5725   22.8374 C   0  0  0  0  0  0  0  0  0  0  0  0
  -18.3334  -20.3825   25.7694 C   0  0  0  0  0  0  0  0  0  0  0  0
  -20.3118  -21.3155   24.6360 C   0  0  0  0  0  0  0  0  0  0  0  0
  -29.4480  -21.7541   20.7252 C   0  0  1  0  0  0  0  0  0  0  0  0
  -29.6205  -25.2756   19.3101 C   0  0  1  0  0  0  0  0  0  0  0  0
  -21.2560  -20.4266   25.4617 C   0  0  2  0  0  0  0  0  0  0  0  0
  -33.9394  -31.6891   19.7760 C   0  0  0  0  0  0  0  0  0  0  0  0
  -32.2697  -26.1468   22.9956 C   0  0  0  0  0  0  0  0  0  0  0  0
  -33.3758  -28.3927   23.0222 C   0  0  0  0  0  0  0  0  0  0  0  0
  -34.2113  -26.6110   21.4891 C   0  0  0  0  0  0  0  0  0  0  0  0
  -20.4800  -27.3918   21.8531 C   0  0  0  0  0  0  0  0  0  0  0  0
  -30.9955  -31.0977   17.4394 C   0  0  0  0  0  0  0  0  0  0  0  0
  -20.4557  -28.5808   24.0103 C   0  0  0  0  0  0  0  0  0  0  0  0
  -23.1937  -28.1805   21.3171 C   0  0  0  0  0  0  0  0  0  1  0  0
  -32.0092  -27.7468   20.9860 C   0  0  1  0  0  0  0  0  0  0  0  0
  -32.9155  -30.8578   19.0189 C   0  0  2  0  0  0  0  0  0  0  0  0
  -32.9391  -27.2218   22.1162 C   0  0  0  0  0  0  0  0  0  0  0  0
  -22.6225  -19.0161   23.9702 N   0  0  0  0  0  0  0  0  0  0  0  0
  -22.5468  -20.1271   24.7226 N   0  0  0  0  0  0  0  0  0  0  0  0
  -17.6547  -29.1121   24.1713 N   0  0  0  0  0  0  0  0  0  0  0  0
  -30.1393  -26.4523   20.0104 N   0  0  0  0  0  0  0  0  0  0  0  0
  -19.0825  -21.5850   25.3982 N   0  0  0  0  0  0  0  0  0  0  0  0
  -23.7850  -22.0198   25.4262 N   0  0  0  0  0  0  0  0  0  0  0  0
  -26.6870  -19.8063   22.7664 N   0  0  0  0  0  0  0  0  0  0  0  0
  -19.4069  -23.9211   25.3952 N   0  0  0  0  0  0  0  0  0  0  0  0
  -29.6077  -22.9262   19.8915 N   0  0  0  0  0  0  0  0  0  0  0  0
  -32.6261  -28.7462   20.1207 N   0  0  0  0  0  0  0  0  0  0  0  0
  -21.2053  -28.2175   22.8106 N   0  0  0  0  0  0  0  0  0  0  0  0
  -32.0356  -31.7824   18.2496 N   0  3  0  0  0  0  0  0  0  0  0  0
  -26.4192  -21.6539   24.0981 O   0  0  0  0  0  0  0  0  0  0  0  0
  -29.0511  -24.5363   21.4790 O   0  0  0  0  0  0  0  0  0  0  0  0
  -32.3507  -25.9754   19.4458 O   0  0  0  0  0  0  0  0  0  0  0  0
  -23.1598  -29.3300   23.3887 O   0  0  0  0  0  0  0  0  0  0  0  0
  -31.0676  -30.4181   20.5120 O   0  0  0  0  0  0  0  0  0  0  0  0
  -17.5457  -22.9822   26.4131 O   0  0  0  0  0  0  0  0  0  0  0  0
  -25.7037  -15.0262   20.0796 O   0  0  0  0  0  0  0  0  0  0  0  0
  -24.5288  -28.6826   21.2755 O   0  0  0  0  0  0  0  0  0  1  0  0
  -24.6575   -9.8013   21.4973 F   0  0  0  0  0  0  0  0  0  0  0  0
  -23.1053  -14.1307   20.3782 F   0  0  0  0  0  0  0  0  0  0  0  0
  -21.6100  -25.8436   24.6326 Cl  0  0  0  0  0  0  0  0  0  0  0  0
  1  2  1  0  0  0  0
  1  5  2  0  0  0  0
  2  6  2  0  0  0  0
  3 10  2  0  0  0  0
  3 17  1  0  0  0  0
  4 11  1  0  0  0  0
  4 17  2  0  0  0  0
  5 19  1  0  0  0  0
  6 21  1  0  0  0  0
  7 12  2  0  0  0  0
  7 20  1  0  0  0  0
  8  9  1  0  0  0  0
  8 24  2  0  0  0  0
  9 25  2  0  0  0  0
 10 26  1  0  0  0  0
 11 26  2  0  0  0  0
 12 27  1  0  0  0  0
 13 14  2  0  0  0  0
 13 28  1  0  0  0  0
 14 29  1  0  0  0  0
 15 22  1  0  0  0  0
 15 27  2  0  0  0  0
 16 29  2  0  0  0  0
 16 30  1  0  0  0  0
 17 32  1  0  0  0  0
 18 32  1  0  0  0  0
 18 33  2  0  0  0  0
 18 34  1  0  0  0  0
 19 21  2  0  0  0  0
 19 40  1  0  0  0  0
 20 22  2  0  0  0  0
 20 41  1  0  0  0  0
 21 53  1  0  0  0  0
 22 42  1  0  0  0  0
 23 24  1  0  0  0  0
 23 31  2  0  0  0  0
 23 62  1  0  0  0  0
 24 69  1  0  0  0  0
 25 31  1  0  0  0  0
 25 74  1  0  0  0  0
 26 85  1  0  0  0  0
 27 86  1  0  0  0  0
 28 30  2  0  0  0  0
 28 85  1  0  0  0  0
 29 87  1  0  0  0  0
 30 88  1  0  0  0  0
 31 89  1  0  0  0  0
 32 67  2  0  0  0  0
 33 68  1  0  0  0  0
 33 72  1  0  0  0  0
 34 73  1  0  0  0  0
 34 79  2  0  0  0  0
 35 54  1  0  0  0  0
 35 75  1  0  0  0  0
 35 80  2  0  0  0  0
 36 64  1  0  0  0  0
 36 70  1  0  0  0  0
 36 81  2  0  0  0  0
 37 63  1  0  0  0  0
 37 77  1  0  0  0  0
 37 82  2  0  0  0  0
 38 65  1  0  0  0  0
 38 76  1  0  0  0  0
 38 83  2  0  0  0  0
 39 71  1  0  0  0  0
 39 74  1  0  0  0  0
 39 84  2  0  0  0  0
 40 43  1  0  0  0  0
 41 54  1  0  0  0  0
 42 70  1  0  0  0  0
 43 47  1  0  0  0  0
 44 45  1  0  0  0  0
 44 49  1  0  0  0  0
 45 50  1  0  0  0  0
 46 48  1  0  0  0  0
 46 51  1  0  0  0  0
 47 53  1  0  0  0  0
 48 55  1  0  0  0  0
 49 69  1  0  0  0  0
 50 69  1  0  0  0  0
 51 71  1  0  0  0  0
 52 55  1  0  0  0  0
 52 71  1  0  0  0  0
 53 75  1  0  0  0  0
 54 70  1  0  0  0  0
 55 68  1  0  0  0  0
 56 65  1  0  0  0  0
 57 66  1  0  0  0  0
 58 66  1  0  0  0  0
 59 66  1  0  0  0  0
 60 77  1  0  0  0  0
 61 78  1  0  0  0  0
 62 77  1  0  0  0  0
 63 86  1  0  0  0  0
 64 66  1  0  0  0  0
 64 76  1  0  0  0  0
 65 78  1  0  0  0  0
 67 68  1  0  0  0  0
M  CHG  1  78   1
M  ISO  4  39 100  63 101  74 100  86 101
M  END
> <Batch ID>
0025

> <Smiles>
CNC(C)C(=O)NC(C(=O)N1Cc2cc([101O:1][101CH2:1]C(=O)N(C)Cc3c(N4CCCC4)ccc([100NH:0][100C:0](=O)N4CCCC(n5nc(-c6ccc(Oc7ccc(F)cc7F)cc6)c(C(N)=O)c5N)C4)c3Cl)ccc2CC1C(=O)NC1CCCc2ccccc21)C(C)(C)C

> <Shape>
0.227

> <Color>
0.058

> <Negative vol penalty>
0.000

$$$$

  -OEChem-04042321223D

 89 98  0     1  0  0  0  0  0999 V2000
  -37.8506  -25.9511   13.4137 C   0  0  0  0  0  0  0  0  0  0  0  0
  -37.8169  -24.9976   14.4262 C   0  0  0  0  0  0  0  0  0  0  0  0
  -23.0543   -9.8191   19.9992 C   0  0  0  0  0  0  0  0  0  0  0  0
  -23.7953   -9.9007   22.2974 C   0  0  0  0  0  0  0  0  0  0  0  0
  -37.2491  -27.1938   13.6077 C   0  0  0  0  0  0  0  0  0  0  0  0
  -37.1825  -25.2868   15.6338 C   0  0  0  0  0  0  0  0  0  0  0  0
  -34.2499  -21.4863   17.2466 C   0  0  0  0  0  0  0  0  0  0  0  0
  -22.3002   -8.6805   20.2828 C   0  0  0  0  0  0  0  0  0  0  0  0
  -23.0411   -8.7620   22.5809 C   0  0  0  0  0  0  0  0  0  0  0  0
  -34.8867  -20.4022   17.8491 C   0  0  0  0  0  0  0  0  0  0  0  0
  -19.3345   -7.9550   21.7357 C   0  0  0  0  0  0  0  0  0  0  0  0
  -18.0314   -7.9008   21.2413 C   0  0  0  0  0  0  0  0  0  0  0  0
  -34.3098  -21.2783   20.0214 C   0  0  0  0  0  0  0  0  0  0  0  0
  -32.0676  -16.5840   22.4469 C   0  0  0  0  0  0  0  0  0  0  0  0
  -30.4749  -18.3802   23.8681 C   0  0  0  0  0  0  0  0  0  0  0  0
  -18.5881   -5.9092   19.9921 C   0  0  0  0  0  0  0  0  0  0  0  0
  -23.8019  -10.4292   21.0065 C   0  0  0  0  0  0  0  0  0  0  0  0
  -24.1627  -12.9463   20.8018 C   0  0  0  0  0  0  0  0  0  0  0  0
  -36.5986  -27.4949   14.8147 C   0  0  0  0  0  0  0  0  0  0  0  0
  -33.6467  -22.4819   18.0286 C   0  0  0  0  0  0  0  0  0  0  0  0
  -36.5728  -26.5353   15.8447 C   0  0  0  0  0  0  0  0  0  0  0  0
  -33.6638  -22.3727   19.4264 C   0  0  0  0  0  0  0  0  0  0  0  0
  -32.6560  -17.4943   23.3248 C   0  0  0  0  0  0  0  0  0  0  0  0
  -31.8597  -18.3924   24.0354 C   0  0  0  0  0  0  0  0  0  0  0  0
  -30.6828  -16.5718   22.2795 C   0  0  0  0  0  0  0  0  0  0  0  0
  -22.2936   -8.1519   21.5736 C   0  0  0  0  0  0  0  0  0  0  0  0
  -34.9193  -20.2996   19.2367 C   0  0  0  0  0  0  0  0  0  0  0  0
  -20.2645   -6.9863   21.3583 C   0  0  0  0  0  0  0  0  0  0  0  0
  -17.6582   -6.8779   20.3695 C   0  0  0  0  0  0  0  0  0  0  0  0
  -29.8865  -17.4699   22.9901 C   0  0  0  0  0  0  0  0  0  0  0  0
  -19.8913   -5.9634   20.4865 C   0  0  0  0  0  0  0  0  0  0  0  0
  -24.5815  -11.6051   20.7141 C   0  0  0  0  0  0  0  0  0  0  0  0
  -25.2631  -13.6752   20.4220 C   0  0  0  0  0  0  0  0  0  0  0  0
  -22.8925  -13.4850   21.1918 C   0  0  0  0  0  0  0  0  0  0  0  0
  -34.0976  -25.6033   18.4249 C   0  0  0  0  0  0  0  0  0  0  0  0
  -31.4244  -25.3628   20.2466 C   0  0  0  0  0  0  0  0  0  0  0  0
  -35.2585  -17.3235   21.2478 C   0  0  0  0  0  0  0  0  0  0  0  0
  -29.3760  -23.3968   22.1401 C   0  0  0  0  0  0  0  0  0  0  0  0
  -30.7350  -14.6889   20.6067 C   0  0  0  0  0  0  0  0  0  0  0  0
  -36.0037  -28.8690   14.9956 C   0  0  0  0  0  0  0  0  0  0  0  0
  -32.9407  -23.6311   17.3629 C   0  0  0  0  0  0  0  0  0  0  0  0
  -33.0135  -23.4042   20.3104 C   0  0  0  0  0  0  0  0  0  0  0  0
  -35.0271  -28.9607   16.1653 C   0  0  0  0  0  0  0  0  0  0  0  0
  -33.3520  -21.3204   25.7996 C   0  0  0  0  0  0  0  0  0  0  0  0
  -33.3583  -20.2681   26.8899 C   0  0  0  0  0  0  0  0  0  0  0  0
  -29.6230  -12.2018   18.3143 C   0  0  0  0  0  0  0  0  0  0  0  0
  -35.6148  -28.2940   17.4050 C   0  0  0  0  0  0  0  0  0  0  0  0
  -28.1778  -11.9352   18.7415 C   0  0  0  0  0  0  0  0  0  0  0  0
  -32.3230  -20.7779   24.8142 C   0  0  0  0  0  0  0  0  0  0  0  0
  -33.2398  -18.9678   26.1032 C   0  0  0  0  0  0  0  0  0  0  0  0
  -30.5298  -12.4660   19.5150 C   0  0  0  0  0  0  0  0  0  0  0  0
  -28.6167  -13.2511   20.8541 C   0  0  0  0  0  0  0  0  0  0  0  0
  -35.8728  -26.8025   17.1595 C   0  0  1  0  0  0  0  0  0  0  0  0
  -32.8054  -24.8532   18.2660 C   0  0  1  0  0  0  0  0  0  0  0  0
  -27.6524  -13.0436   19.6747 C   0  0  2  0  0  0  0  0  0  0  0  0
  -27.2897  -23.4910   23.5314 C   0  0  0  0  0  0  0  0  0  0  0  0
  -32.9886  -26.7041   22.4970 C   0  0  0  0  0  0  0  0  0  0  0  0
  -31.2270  -25.9204   24.0943 C   0  0  0  0  0  0  0  0  0  0  0  0
  -30.6280  -27.4932   22.2530 C   0  0  0  0  0  0  0  0  0  0  0  0
  -34.9618  -15.3013   22.6882 C   0  0  0  0  0  0  0  0  0  0  0  0
  -27.9820  -21.4601   20.3894 C   0  0  0  0  0  0  0  0  0  0  0  0
  -34.1487  -17.4857   23.4855 C   0  0  0  0  0  0  0  0  0  0  0  0
  -35.0316  -18.8122   21.0890 C   0  0  0  0  0  0  0  0  0  1  0  0
  -31.1450  -25.0802   21.7029 C   0  0  1  0  0  0  0  0  0  0  0  0
  -27.8673  -23.2289   22.1492 C   0  0  2  0  0  0  0  0  0  0  0  0
  -31.5112  -26.2809   22.6205 C   0  0  0  0  0  0  0  0  0  0  0  0
  -25.8491  -11.4862   20.3102 N   0  0  0  0  0  0  0  0  0  0  0  0
  -26.2362  -12.7619   20.1406 N   0  0  0  0  0  0  0  0  0  0  0  0
  -32.4362  -19.3184   24.9256 N   0  0  0  0  0  0  0  0  0  0  0  0
  -32.3412  -24.5125   19.6123 N   0  0  0  0  0  0  0  0  0  0  0  0
  -29.9709  -13.5306   20.3513 N   0  0  0  0  0  0  0  0  0  0  0  0
  -25.4836  -15.0019   20.3046 N   0  0  0  0  0  0  0  0  0  0  0  0
  -21.8714  -12.5951   21.5518 N   0  0  0  0  0  0  0  0  0  0  0  0
  -30.0875  -15.6462   21.3870 N   0  0  0  0  0  0  0  0  0  0  0  0
  -34.6351  -26.0563   17.2352 N   0  0  0  0  0  0  0  0  0  0  0  0
  -29.7455  -24.6752   21.7790 N   0  0  0  0  0  0  0  0  0  0  0  0
  -34.8082  -16.7269   22.4259 N   0  0  0  0  0  0  0  0  0  0  0  0
  -27.4977  -21.8443   21.7402 N   0  3  0  0  0  0  0  0  0  0  0  0
  -22.6645  -14.7185   21.2043 O   0  0  0  0  0  0  0  0  0  0  0  0
  -34.5711  -25.7608   19.5441 O   0  0  0  0  0  0  0  0  0  0  0  0
  -30.8450  -26.2990   19.6902 O   0  0  0  0  0  0  0  0  0  0  0  0
  -35.8188  -16.7083   20.3354 O   0  0  0  0  0  0  0  0  0  0  0  0
  -30.1493  -22.4860   22.4285 O   0  0  0  0  0  0  0  0  0  0  0  0
  -31.8691  -14.8335   20.1432 O   0  0  0  0  0  0  0  0  0  0  0  0
  -21.5577   -7.0410   21.8507 O   0  0  0  0  0  0  0  0  0  0  0  0
  -35.5407  -19.2428   19.8274 O   0  0  0  0  0  0  0  0  0  1  0  0
  -16.4063   -6.8252   19.8960 F   0  0  0  0  0  0  0  0  0  0  0  0
  -28.5546  -17.4672   22.8371 F   0  0  0  0  0  0  0  0  0  0  0  0
  -20.7800   -5.0292   20.1213 F   0  0  0  0  0  0  0  0  0  0  0  0
  1  2  1  0  0  0  0
  1  5  2  0  0  0  0
  2  6  2  0  0  0  0
  3  8  2  0  0  0  0
  3 17  1  0  0  0  0
  4  9  1  0  0  0  0
  4 17  2  0  0  0  0
  5 19  1  0  0  0  0
  6 21  1  0  0  0  0
  7 10  2  0  0  0  0
  7 20  1  0  0  0  0
  8 26  1  0  0  0  0
  9 26  2  0  0  0  0
 10 27  1  0  0  0  0
 11 12  2  0  0  0  0
 11 28  1  0  0  0  0
 12 29  1  0  0  0  0
 13 22  1  0  0  0  0
 13 27  2  0  0  0  0
 14 23  1  0  0  0  0
 14 25  2  0  0  0  0
 15 24  1  0  0  0  0
 15 30  2  0  0  0  0
 16 29  2  0  0  0  0
 16 31  1  0  0  0  0
 17 32  1  0  0  0  0
 18 32  1  0  0  0  0
 18 33  2  0  0  0  0
 18 34  1  0  0  0  0
 19 21  2  0  0  0  0
 19 40  1  0  0  0  0
 20 22  2  0  0  0  0
 20 41  1  0  0  0  0
 21 53  1  0  0  0  0
 22 42  1  0  0  0  0
 23 24  2  0  0  0  0
 23 62  1  0  0  0  0
 24 69  1  0  0  0  0
 25 30  1  0  0  0  0
 25 74  1  0  0  0  0
 26 85  1  0  0  0  0
 27 86  1  0  0  0  0
 28 31  2  0  0  0  0
 28 85  1  0  0  0  0
 29 87  1  0  0  0  0
 30 88  1  0  0  0  0
 31 89  1  0  0  0  0
 32 67  2  0  0  0  0
 33 68  1  0  0  0  0
 33 72  1  0  0  0  0
 34 73  1  0  0  0  0
 34 79  2  0  0  0  0
 35 54  1  0  0  0  0
 35 75  1  0  0  0  0
 35 80  2  0  0  0  0
 36 64  1  0  0  0  0
 36 70  1  0  0  0  0
 36 81  2  0  0  0  0
 37 63  1  0  0  0  0
 37 77  1  0  0  0  0
 37 82  2  0  0  0  0
 38 65  1  0  0  0  0
 38 76  1  0  0  0  0
 38 83  2  0  0  0  0
 39 71  1  0  0  0  0
 39 74  1  0  0  0  0
 39 84  2  0  0  0  0
 40 43  1  0  0  0  0
 41 54  1  0  0  0  0
 42 70  1  0  0  0  0
 43 47  1  0  0  0  0
 44 45  1  0  0  0  0
 44 49  1  0  0  0  0
 45 50  1  0  0  0  0
 46 48  1  0  0  0  0
 46 51  1  0  0  0  0
 47 53  1  0  0  0  0
 48 55  1  0  0  0  0
 49 69  1  0  0  0  0
 50 69  1  0  0  0  0
 51 71  1  0  0  0  0
 52 55  1  0  0  0  0
 52 71  1  0  0  0  0
 53 75  1  0  0  0  0
 54 70  1  0  0  0  0
 55 68  1  0  0  0  0
 56 65  1  0  0  0  0
 57 66  1  0  0  0  0
 58 66  1  0  0  0  0
 59 66  1  0  0  0  0
 60 77  1  0  0  0  0
 61 78  1  0  0  0  0
 62 77  1  0  0  0  0
 63 86  1  0  0  0  0
 64 66  1  0  0  0  0
 64 76  1  0  0  0  0
 65 78  1  0  0  0  0
 67 68  1  0  0  0  0
M  CHG  1  78   1
M  ISO  4  39 100  63 101  74 100  86 101
M  END
> <Batch ID>
0025

> <Smiles>
CNC(C)C(=O)NC(C(=O)N1Cc2cc([101O:1][101CH2:1]C(=O)N(C)Cc3cc([100NH:0][100C:0](=O)N4CCCC(n5nc(-c6ccc(Oc7ccc(F)cc7F)cc6)c(C(N)=O)c5N)C4)c(F)cc3N3CCCC3)ccc2CC1C(=O)NC1CCCc2ccccc21)C(C)(C)C

> <Shape>
0.181

> <Color>
0.198

> <Negative vol penalty>
0.000

$$$$

  -OEChem-04042321223D

 85 94  0     1  0  0  0  0  0999 V2000
  -22.3320  -13.0937   25.8233 C   0  0  0  0  0  0  0  0  0  0  0  0
  -23.2192  -14.1493   25.6386 C   0  0  0  0  0  0  0  0  0  0  0  0
  -22.6503  -10.2105   20.2509 C   0  0  0  0  0  0  0  0  0  0  0  0
  -24.2542   -9.5377   21.9278 C   0  0  0  0  0  0  0  0  0  0  0  0
  -20.9742  -13.2720   25.5620 C   0  0  0  0  0  0  0  0  0  0  0  0
  -22.7491  -15.3836   25.1914 C   0  0  0  0  0  0  0  0  0  0  0  0
  -24.7078  -19.2652   27.7878 C   0  0  0  0  0  0  0  0  0  0  0  0
  -21.9053   -9.0581   20.5011 C   0  0  0  0  0  0  0  0  0  0  0  0
  -23.5091   -8.3853   22.1780 C   0  0  0  0  0  0  0  0  0  0  0  0
  -26.0084  -19.6531   27.4687 C   0  0  0  0  0  0  0  0  0  0  0  0
  -22.0448   -5.7786   19.6952 C   0  0  0  0  0  0  0  0  0  0  0  0
  -21.5773   -5.0586   18.5958 C   0  0  0  0  0  0  0  0  0  0  0  0
  -25.1348  -21.4651   26.1373 C   0  0  0  0  0  0  0  0  0  0  0  0
  -31.6022  -19.3863   22.7895 C   0  0  0  0  0  0  0  0  0  0  0  0
  -31.5009  -17.6263   21.1375 C   0  0  0  0  0  0  0  0  0  0  0  0
  -19.3043   -5.3934   19.3432 C   0  0  0  0  0  0  0  0  0  0  0  0
  -23.8248  -10.4502   20.9642 C   0  0  0  0  0  0  0  0  0  0  0  0
  -24.1688  -12.9750   20.8412 C   0  0  0  0  0  0  0  0  0  0  0  0
  -20.4857  -14.5119   25.1206 C   0  0  0  0  0  0  0  0  0  0  0  0
  -23.6089  -19.9690   27.2744 C   0  0  0  0  0  0  0  0  0  0  0  0
  -21.3836  -15.5782   24.9227 C   0  0  0  0  0  0  0  0  0  0  0  0
  -23.8214  -21.0857   26.4535 C   0  0  0  0  0  0  0  0  0  0  0  0
  -30.1793  -17.4681   23.1538 C   0  0  0  0  0  0  0  0  0  0  0  0
  -30.6874  -18.6942   23.5830 C   0  0  0  0  0  0  0  0  0  0  0  0
  -30.5861  -16.9341   21.9310 C   0  0  0  0  0  0  0  0  0  0  0  0
  -22.3347   -8.1456   21.4646 C   0  0  0  0  0  0  0  0  0  0  0  0
  -26.2220  -20.7514   26.6410 C   0  0  0  0  0  0  0  0  0  0  0  0
  -21.1421   -6.3059   20.6187 C   0  0  0  0  0  0  0  0  0  0  0  0
  -20.2071   -4.8660   18.4198 C   0  0  0  0  0  0  0  0  0  0  0  0
  -19.7719   -6.1133   20.4426 C   0  0  0  0  0  0  0  0  0  0  0  0
  -32.0090  -18.8524   21.5668 C   0  0  0  0  0  0  0  0  0  0  0  0
  -24.5952  -11.6402   20.7059 C   0  0  0  0  0  0  0  0  0  0  0  0
  -25.2620  -13.7231   20.4783 C   0  0  0  0  0  0  0  0  0  0  0  0
  -22.8982  -13.4923   21.2578 C   0  0  0  0  0  0  0  0  0  0  0  0
  -21.1641  -19.2384   25.3789 C   0  0  0  0  0  0  0  0  0  0  0  0
  -20.1891  -22.2394   26.1309 C   0  0  0  0  0  0  0  0  0  0  0  0
  -21.0219  -25.3799   27.1753 C   0  0  0  0  0  0  0  0  0  0  0  0
  -30.7288  -14.7646   20.6586 C   0  0  0  0  0  0  0  0  0  0  0  0
  -19.0166  -14.6430   24.8059 C   0  0  0  0  0  0  0  0  0  0  0  0
  -22.2127  -19.5541   27.6498 C   0  0  0  0  0  0  0  0  0  0  0  0
  -22.6760  -21.8872   25.8930 C   0  0  0  0  0  0  0  0  0  0  0  0
  -18.5446  -16.0904   24.6936 C   0  0  0  0  0  0  0  0  0  0  0  0
  -29.6156  -12.3484   18.2922 C   0  0  0  0  0  0  0  0  0  0  0  0
  -30.7449  -19.5200   27.2165 C   0  0  0  0  0  0  0  0  0  0  0  0
  -19.5097  -16.9015   23.8349 C   0  0  0  0  0  0  0  0  0  0  0  0
  -28.1751  -12.0586   18.7203 C   0  0  0  0  0  0  0  0  0  0  0  0
  -29.5719  -20.4839   27.3121 C   0  0  0  0  0  0  0  0  0  0  0  0
  -31.3374  -19.4945   25.8095 C   0  0  0  0  0  0  0  0  0  0  0  0
  -30.5293  -12.5781   19.4947 C   0  0  0  0  0  0  0  0  0  0  0  0
  -28.6211  -13.3060   20.8725 C   0  0  0  0  0  0  0  0  0  0  0  0
  -29.1107  -20.1139   24.8566 C   0  0  0  0  0  0  0  0  0  0  0  0
  -20.9083  -16.9393   24.4626 C   0  0  1  0  0  0  0  0  0  0  0  0
  -21.1596  -20.0319   26.6549 C   0  0  1  0  0  0  0  0  0  0  0  0
  -27.6497  -13.1319   19.6937 C   0  0  2  0  0  0  0  0  0  0  0  0
  -28.5172  -20.1465   26.2657 C   0  0  2  0  0  0  0  0  0  1  0  0
  -29.1967  -16.7255   24.0054 C   0  0  0  0  0  0  0  0  0  0  0  0
  -20.0146  -27.6269   27.6585 C   0  0  0  0  0  0  0  0  0  0  0  0
  -19.9812  -22.7874   23.1365 C   0  0  0  0  0  0  0  0  0  0  0  0
  -19.9104  -25.2347   23.6600 C   0  0  0  0  0  0  0  0  0  0  0  0
  -18.1090  -23.7284   24.5017 C   0  0  0  0  0  0  0  0  0  0  0  0
  -21.8682  -25.2789   30.0095 C   0  0  0  0  0  0  0  0  0  0  0  0
  -20.4090  -23.6132   25.5450 C   0  0  1  0  0  0  0  0  0  0  0  0
  -20.4195  -26.2807   28.2384 C   0  0  2  0  0  0  0  0  0  0  0  0
  -19.6242  -23.8249   24.2197 C   0  0  0  0  0  0  0  0  0  0  0  0
  -25.8605  -11.5427   20.2893 N   0  0  0  0  0  0  0  0  0  0  0  0
  -26.2386  -12.8258   20.1597 N   0  0  0  0  0  0  0  0  0  0  0  0
  -30.2914  -19.2467   24.8075 N   0  0  1  0  0  0  0  0  0  0  0  0
  -21.3295  -21.4382   26.2837 N   0  0  0  0  0  0  0  0  0  0  0  0
  -29.9700  -13.6106   20.3700 N   0  0  0  0  0  0  0  0  0  0  0  0
  -25.4736  -15.0543   20.4037 N   0  0  0  0  0  0  0  0  0  0  0  0
  -21.8851  -12.5844   21.5950 N   0  0  0  0  0  0  0  0  0  0  0  0
  -30.0811  -15.6913   21.4749 N   0  0  0  0  0  0  0  0  0  0  0  0
  -20.9457  -17.8856   25.5569 N   0  0  0  0  0  0  0  0  0  0  0  0
  -20.0712  -24.5649   26.5980 N   0  0  0  0  0  0  0  0  0  0  0  0
  -21.4016  -26.5171   29.3341 N   0  3  0  0  0  0  0  0  0  0  0  0
  -22.6628  -14.7232   21.3131 O   0  0  0  0  0  0  0  0  0  0  0  0
  -21.3505  -19.8113   24.3118 O   0  0  0  0  0  0  0  0  0  0  0  0
  -19.0486  -21.8927   26.4481 O   0  0  0  0  0  0  0  0  0  0  0  0
  -22.2156  -25.4000   26.8834 O   0  0  0  0  0  0  0  0  0  0  0  0
  -31.8586  -14.9318   20.1922 O   0  0  0  0  0  0  0  0  0  0  0  0
  -21.6078   -7.0211   21.7092 O   0  0  0  0  0  0  0  0  0  0  0  0
  -27.4904  -21.1317   26.3274 O   0  0  0  0  0  0  0  0  0  1  0  0
  -19.7582   -4.1760   17.3632 F   0  0  0  0  0  0  0  0  0  0  0  0
  -18.8997   -6.6185   21.3258 F   0  0  0  0  0  0  0  0  0  0  0  0
  -33.1371  -19.7062   20.5867 Cl  0  0  0  0  0  0  0  0  0  0  0  0
  1  2  1  0  0  0  0
  1  5  2  0  0  0  0
  2  6  2  0  0  0  0
  3  8  2  0  0  0  0
  3 17  1  0  0  0  0
  4  9  1  0  0  0  0
  4 17  2  0  0  0  0
  5 19  1  0  0  0  0
  6 21  1  0  0  0  0
  7 10  2  0  0  0  0
  7 20  1  0  0  0  0
  8 26  1  0  0  0  0
  9 26  2  0  0  0  0
 10 27  1  0  0  0  0
 11 12  2  0  0  0  0
 11 28  1  0  0  0  0
 12 29  1  0  0  0  0
 13 22  1  0  0  0  0
 13 27  2  0  0  0  0
 14 24  1  0  0  0  0
 14 31  2  0  0  0  0
 15 25  2  0  0  0  0
 15 31  1  0  0  0  0
 16 29  2  0  0  0  0
 16 30  1  0  0  0  0
 17 32  1  0  0  0  0
 18 32  1  0  0  0  0
 18 33  2  0  0  0  0
 18 34  1  0  0  0  0
 19 21  2  0  0  0  0
 19 39  1  0  0  0  0
 20 22  2  0  0  0  0
 20 40  1  0  0  0  0
 21 52  1  0  0  0  0
 22 41  1  0  0  0  0
 23 24  2  0  0  0  0
 23 25  1  0  0  0  0
 23 56  1  0  0  0  0
 24 67  1  0  0  0  0
 25 72  1  0  0  0  0
 26 81  1  0  0  0  0
 27 82  1  0  0  0  0
 28 30  2  0  0  0  0
 28 81  1  0  0  0  0
 29 83  1  0  0  0  0
 30 84  1  0  0  0  0
 31 85  1  0  0  0  0
 32 65  2  0  0  0  0
 33 66  1  0  0  0  0
 33 70  1  0  0  0  0
 34 71  1  0  0  0  0
 34 76  2  0  0  0  0
 35 53  1  0  0  0  0
 35 73  1  0  0  0  0
 35 77  2  0  0  0  0
 36 62  1  0  0  0  0
 36 68  1  0  0  0  0
 36 78  2  0  0  0  0
 37 63  1  0  0  0  0
 37 74  1  0  0  0  0
 37 79  2  0  0  0  0
 38 69  1  0  0  0  0
 38 72  1  0  0  0  0
 38 80  2  0  0  0  0
 39 42  1  0  0  0  0
 40 53  1  0  0  0  0
 41 68  1  0  0  0  0
 42 45  1  0  0  0  0
 43 46  1  0  0  0  0
 43 49  1  0  0  0  0
 44 47  1  0  0  0  0
 44 48  1  0  0  0  0
 45 52  1  0  0  0  0
 46 54  1  0  0  0  0
 47 55  1  0  0  0  0
 48 67  1  0  0  0  0
 49 69  1  0  0  0  0
 50 54  1  0  0  0  0
 50 69  1  0  0  0  0
 51 55  1  0  0  0  0
 51 67  1  0  0  0  0
 52 73  1  0  0  0  0
 53 68  1  0  0  0  0
 54 66  1  0  0  0  0
 55 82  1  0  0  0  0
 57 63  1  0  0  0  0
 58 64  1  0  0  0  0
 59 64  1  0  0  0  0
 60 64  1  0  0  0  0
 61 75  1  0  0  0  0
 62 64  1  0  0  0  0
 62 74  1  0  0  0  0
 63 75  1  0  0  0  0
 65 66  1  0  0  0  0
M  CHG  1  75   1
M  ISO  4  38 100  55 101  72 100  82 101
M  END
> <Batch ID>
0025

> <Smiles>
CNC(C)C(=O)NC(C(=O)N1Cc2cc([101O:1][101CH:1]3CCCN(c4cc(Cl)cc([100NH:0][100C:0](=O)N5CCCC(n6nc(-c7ccc(Oc8ccc(F)cc8F)cc7)c(C(N)=O)c6N)C5)c4C)C3)ccc2CC1C(=O)NC1CCCc2ccccc21)C(C)(C)C

> <Shape>
0.155

> <Color>
0.196

> <Negative vol penalty>
0.000

$$$$

  -OEChem-04042321223D

 89 99  0     1  0  0  0  0  0999 V2000
  -27.6093  -24.3677   17.2764 C   0  0  0  0  0  0  0  0  0  0  0  0
  -26.4308  -24.7042   17.9347 C   0  0  0  0  0  0  0  0  0  0  0  0
  -29.1020  -19.2526   21.0898 C   0  0  0  0  0  0  0  0  0  0  0  0
  -29.8031  -17.6753   22.7802 C   0  0  0  0  0  0  0  0  0  0  0  0
  -28.8357  -24.7977   17.7812 C   0  0  0  0  0  0  0  0  0  0  0  0
  -26.4782  -25.4701   19.0990 C   0  0  0  0  0  0  0  0  0  0  0  0
  -23.0101  -29.1600   19.1396 C   0  0  0  0  0  0  0  0  0  0  0  0
  -30.2683  -19.9899   21.2939 C   0  0  0  0  0  0  0  0  0  0  0  0
  -30.9695  -18.4125   22.9843 C   0  0  0  0  0  0  0  0  0  0  0  0
  -21.6979  -28.7973   19.4403 C   0  0  0  0  0  0  0  0  0  0  0  0
  -32.8935  -22.4843   21.6249 C   0  0  0  0  0  0  0  0  0  0  0  0
  -32.7779  -23.8712   21.7186 C   0  0  0  0  0  0  0  0  0  0  0  0
  -22.0092  -29.5706   21.7040 C   0  0  0  0  0  0  0  0  0  0  0  0
  -31.3233  -23.6206   23.6313 C   0  0  0  0  0  0  0  0  0  0  0  0
  -28.8693  -18.0953   21.8330 C   0  0  0  0  0  0  0  0  0  0  0  0
  -27.4752  -16.2753   20.7142 C   0  0  0  0  0  0  0  0  0  0  0  0
  -28.8975  -25.5774   18.9469 C   0  0  0  0  0  0  0  0  0  0  0  0
  -23.8365  -29.7217   20.1235 C   0  0  0  0  0  0  0  0  0  0  0  0
  -27.7067  -25.9099   19.6207 C   0  0  0  0  0  0  0  0  0  0  0  0
  -23.3307  -29.9420   21.4125 C   0  0  0  0  0  0  0  0  0  0  0  0
  -31.2021  -19.5698   22.2412 C   0  0  0  0  0  0  0  0  0  0  0  0
  -21.1982  -28.9999   20.7234 C   0  0  0  0  0  0  0  0  0  0  0  0
  -32.2240  -21.6656   22.5343 C   0  0  0  0  0  0  0  0  0  0  0  0
  -31.9928  -24.4394   22.7218 C   0  0  0  0  0  0  0  0  0  0  0  0
  -31.4389  -22.2337   23.5376 C   0  0  0  0  0  0  0  0  0  0  0  0
  -27.6644  -17.3337   21.6230 C   0  0  0  0  0  0  0  0  0  0  0  0
  -26.1693  -15.8925   20.8999 C   0  0  0  0  0  0  0  0  0  0  0  0
  -19.1665  -18.2853   17.9085 C   0  0  0  0  0  0  0  0  0  0  0  0
  -19.2948  -19.6157   17.9342 C   0  0  0  0  0  0  0  0  0  0  0  0
  -28.3976  -15.6905   19.7853 C   0  0  0  0  0  0  0  0  0  0  0  0
  -26.5673  -28.8730   21.5113 C   0  0  0  0  0  0  0  0  0  0  0  0
  -26.3321  -31.8053   22.8782 C   0  0  0  0  0  0  0  0  0  0  0  0
  -24.3366  -34.3997   23.8446 C   0  0  0  0  0  0  0  0  0  0  0  0
  -21.0210  -17.9631   22.0409 C   0  0  0  0  0  0  0  0  0  0  0  0
  -30.2497  -25.9791   19.4808 C   0  0  0  0  0  0  0  0  0  0  0  0
  -25.2412  -30.1323   19.7759 C   0  0  0  0  0  0  0  0  0  0  0  0
  -24.1707  -30.5603   22.4991 C   0  0  0  0  0  0  0  0  0  0  0  0
  -19.5699  -17.6529   19.2008 C   0  0  0  0  0  0  0  0  0  0  0  0
  -30.1881  -27.1027   20.5122 C   0  0  0  0  0  0  0  0  0  0  0  0
  -22.8532  -16.3996   24.5146 C   0  0  0  0  0  0  0  0  0  0  0  0
  -24.1303  -23.6483   21.6950 C   0  0  0  0  0  0  0  0  0  0  0  0
  -29.0949  -26.8253   21.5392 C   0  0  0  0  0  0  0  0  0  0  0  0
  -24.2728  -16.3742   23.9509 C   0  0  0  0  0  0  0  0  0  0  0  0
  -22.8862  -24.5125   21.8703 C   0  0  0  0  0  0  0  0  0  0  0  0
  -21.2624  -20.4793   19.2937 C   0  0  0  0  0  0  0  0  0  0  0  0
  -22.1747  -17.7305   24.2146 C   0  0  0  0  0  0  0  0  0  0  0  0
  -23.6363  -22.2153   21.7996 C   0  0  0  0  0  0  0  0  0  0  0  0
  -23.5347  -18.0341   22.1665 C   0  0  0  0  0  0  0  0  0  0  0  0
  -27.7154  -26.7600   20.8726 C   0  0  1  0  0  0  0  0  0  0  0  0
  -19.7816  -20.1002   19.2578 C   0  0  2  0  0  0  0  0  0  0  0  0
  -26.1560  -30.2222   20.9935 C   0  0  1  0  0  0  0  0  0  0  0  0
  -24.2719  -16.7088   22.4496 C   0  0  1  0  0  0  0  0  0  0  0  0
  -19.6862  -18.8534   20.1491 C   0  0  2  0  0  0  0  0  0  0  0  0
  -21.7290  -23.5259   22.0431 C   0  0  1  0  0  0  0  0  0  0  0  0
  -21.7231  -20.0295   20.6827 C   0  0  1  0  0  0  0  0  0  0  0  0
  -24.4264  -36.6409   24.9698 C   0  0  0  0  0  0  0  0  0  0  0  0
  -26.6478  -30.4314   25.5842 C   0  0  0  0  0  0  0  0  0  0  0  0
  -25.7923  -32.5206   26.6666 C   0  0  0  0  0  0  0  0  0  0  0  0
  -27.9105  -32.5773   25.3502 C   0  0  0  0  0  0  0  0  0  0  0  0
  -23.2863  -35.7763   21.4444 C   0  0  0  0  0  0  0  0  0  0  0  0
  -21.4884  -21.1112   21.7389 C   0  0  0  0  0  0  0  0  0  0  0  0
  -20.4394  -24.0541   21.4277 C   0  0  0  0  0  0  0  0  0  0  0  0
  -18.5164  -27.2276   22.3595 C   0  0  0  0  0  0  0  0  0  0  0  0
  -18.8355  -25.9630   21.5762 C   0  0  0  0  0  0  0  0  0  0  0  0
  -19.6475  -28.2486   22.3625 C   0  0  0  0  0  0  0  0  0  1  0  0
  -25.7035  -32.3503   24.1379 C   0  0  1  0  0  0  0  0  0  0  0  0
  -24.4653  -35.8988   23.6430 C   0  0  2  0  0  0  0  0  0  0  0  0
  -26.4980  -31.9565   25.4150 C   0  0  0  0  0  0  0  0  0  0  0  0
  -26.5664  -17.6059   22.3332 N   0  0  0  0  0  0  0  0  0  0  0  0
  -25.6748  -16.7131   21.8706 N   0  0  0  0  0  0  0  0  0  0  0  0
  -25.5397  -30.9390   22.1118 N   0  0  0  0  0  0  0  0  0  0  0  0
  -22.2031  -18.0350   22.7850 N   0  0  0  0  0  0  0  0  0  0  0  0
  -20.8986  -18.8396   20.9607 N   0  0  0  0  0  0  0  0  0  0  0  0
  -22.2345  -22.3129   21.3853 N   0  0  2  0  0  0  0  0  0  0  0  0
  -25.4072  -14.9375   20.3259 N   0  0  0  0  0  0  0  0  0  0  0  0
  -29.7000  -16.2045   19.7236 N   0  0  0  0  0  0  0  0  0  0  0  0
  -27.2302  -28.0924   20.5835 N   0  0  0  0  0  0  0  0  0  0  0  0
  -25.5694  -33.7892   23.9376 N   0  0  0  0  0  0  0  0  0  0  0  0
  -23.3532  -36.4040   22.7892 N   0  3  0  0  0  0  0  0  0  0  0  0
  -20.0572  -25.3036   22.1189 N   0  3  0  0  0  0  0  0  0  0  0  0
  -28.0715  -14.7511   19.0206 O   0  0  0  0  0  0  0  0  0  0  0  0
  -26.3042  -28.5636   22.6675 O   0  0  0  0  0  0  0  0  0  0  0  0
  -27.4812  -32.1417   22.5814 O   0  0  0  0  0  0  0  0  0  0  0  0
  -23.2510  -33.8280   23.9163 O   0  0  0  0  0  0  0  0  0  0  0  0
  -20.1137  -17.1775   22.3414 O   0  0  0  0  0  0  0  0  0  0  0  0
  -32.3404  -20.2889   22.4404 O   0  0  0  0  0  0  0  0  0  0  0  0
  -19.9091  -28.6436   21.0218 O   0  0  0  0  0  0  0  0  0  1  0  0
  -31.8831  -25.7712   22.8127 F   0  0  0  0  0  0  0  0  0  0  0  0
  -30.7943  -21.4523   24.4149 F   0  0  0  0  0  0  0  0  0  0  0  0
  1  2  1  0  0  0  0
  1  5  2  0  0  0  0
  2  6  2  0  0  0  0
  3  8  2  0  0  0  0
  3 15  1  0  0  0  0
  4  9  1  0  0  0  0
  4 15  2  0  0  0  0
  5 17  1  0  0  0  0
  6 19  1  0  0  0  0
  7 10  2  0  0  0  0
  7 18  1  0  0  0  0
  8 21  1  0  0  0  0
  9 21  2  0  0  0  0
 10 22  1  0  0  0  0
 11 12  2  0  0  0  0
 11 23  1  0  0  0  0
 12 24  1  0  0  0  0
 13 20  1  0  0  0  0
 13 22  2  0  0  0  0
 14 24  2  0  0  0  0
 14 25  1  0  0  0  0
 15 26  1  0  0  0  0
 16 26  1  0  0  0  0
 16 27  2  0  0  0  0
 16 30  1  0  0  0  0
 17 19  2  0  0  0  0
 17 35  1  0  0  0  0
 18 20  2  0  0  0  0
 18 36  1  0  0  0  0
 19 49  1  0  0  0  0
 20 37  1  0  0  0  0
 21 86  1  0  0  0  0
 22 87  1  0  0  0  0
 23 25  2  0  0  0  0
 23 86  1  0  0  0  0
 24 88  1  0  0  0  0
 25 89  1  0  0  0  0
 26 69  2  0  0  0  0
 27 70  1  0  0  0  0
 27 75  1  0  0  0  0
 28 29  2  0  0  0  0
 28 38  1  0  0  0  0
 29 50  1  0  0  0  0
 30 76  1  0  0  0  0
 30 81  2  0  0  0  0
 31 51  1  0  0  0  0
 31 77  1  0  0  0  0
 31 82  2  0  0  0  0
 32 66  1  0  0  0  0
 32 71  1  0  0  0  0
 32 83  2  0  0  0  0
 33 67  1  0  0  0  0
 33 78  1  0  0  0  0
 33 84  2  0  0  0  0
 34 72  1  0  0  0  0
 34 73  1  0  0  0  0
 34 85  2  0  0  0  0
 35 39  1  0  0  0  0
 36 51  1  0  0  0  0
 37 71  1  0  0  0  0
 38 53  1  0  0  0  0
 39 42  1  0  0  0  0
 40 43  1  0  0  0  0
 40 46  1  0  0  0  0
 41 44  1  0  0  0  0
 41 47  1  0  0  0  0
 42 49  1  0  0  0  0
 43 52  1  0  0  0  0
 44 54  1  0  0  0  0
 45 50  1  0  0  0  0
 45 55  1  0  0  0  0
 46 72  1  0  0  0  0
 47 74  1  0  0  0  0
 48 52  1  0  0  0  0
 48 72  1  0  0  0  0
 49 77  1  0  0  0  0
 50 53  1  0  0  0  0
 51 71  1  0  0  0  0
 52 70  1  0  0  0  0
 53 73  1  0  0  0  0
 54 62  1  0  0  0  0
 54 74  1  0  0  0  0
 55 61  1  0  0  0  0
 55 73  1  0  0  0  0
 56 67  1  0  0  0  0
 57 68  1  0  0  0  0
 58 68  1  0  0  0  0
 59 68  1  0  0  0  0
 60 79  1  0  0  0  0
 61 74  1  0  0  0  0
 62 80  1  0  0  0  0
 63 64  1  0  0  0  0
 63 65  1  0  0  0  0
 64 80  1  0  0  0  0
 65 87  1  0  0  0  0
 66 68  1  0  0  0  0
 66 78  1  0  0  0  0
 67 79  1  0  0  0  0
 69 70  1  0  0  0  0
M  CHG  2  79   1  80   1
M  ISO  4  34 100  65 101  73 100  87 101
M  END
> <Batch ID>
0025

> <Smiles>
CNC(C)C(=O)NC(C(=O)N1Cc2cc([101O:1][101CH2:1]CCNCC3CCCN3CC3CC4C=CCC4[100N:0]3[100C:0](=O)N3CCCC(n4nc(-c5ccc(Oc6ccc(F)cc6F)cc5)c(C(N)=O)c4N)C3)ccc2CC1C(=O)NC1CCCc2ccccc21)C(C)(C)C

> <Shape>
0.240

> <Color>
0.084

> <Negative vol penalty>
0.000

$$$$

  -OEChem-04042321223D

 86 95  0     1  0  0  0  0  0999 V2000
  -25.1568  -13.3662   30.3057 C   0  0  0  0  0  0  0  0  0  0  0  0
  -26.0939  -14.2986   29.8724 C   0  0  0  0  0  0  0  0  0  0  0  0
  -22.6719  -10.1822   20.1916 C   0  0  0  0  0  0  0  0  0  0  0  0
  -24.3047   -9.4562   21.8176 C   0  0  0  0  0  0  0  0  0  0  0  0
  -24.1759  -13.7400   31.2234 C   0  0  0  0  0  0  0  0  0  0  0  0
  -26.0500  -15.6059   30.3557 C   0  0  0  0  0  0  0  0  0  0  0  0
  -30.6238  -17.3535   31.6485 C   0  0  0  0  0  0  0  0  0  0  0  0
  -32.7061  -17.3664   23.4961 C   0  0  0  0  0  0  0  0  0  0  0  0
  -32.0802  -16.5252   22.5762 C   0  0  0  0  0  0  0  0  0  0  0  0
  -21.9378   -9.0161   20.4080 C   0  0  0  0  0  0  0  0  0  0  0  0
  -23.5706   -8.2901   22.0341 C   0  0  0  0  0  0  0  0  0  0  0  0
  -31.4612  -17.7714   30.6151 C   0  0  0  0  0  0  0  0  0  0  0  0
  -20.8025   -7.3721   23.7416 C   0  0  0  0  0  0  0  0  0  0  0  0
  -20.6011   -6.9707   25.0622 C   0  0  0  0  0  0  0  0  0  0  0  0
  -30.8650  -20.0647   31.0674 C   0  0  0  0  0  0  0  0  0  0  0  0
  -30.5518  -18.2153   24.1856 C   0  0  0  0  0  0  0  0  0  0  0  0
  -21.7370   -4.8885   24.6024 C   0  0  0  0  0  0  0  0  0  0  0  0
  -23.8553  -10.4023   20.8963 C   0  0  0  0  0  0  0  0  0  0  0  0
  -24.1818  -12.9321   20.8657 C   0  0  0  0  0  0  0  0  0  0  0  0
  -24.1260  -15.0500   31.7256 C   0  0  0  0  0  0  0  0  0  0  0  0
  -29.8911  -18.2889   32.3933 C   0  0  0  0  0  0  0  0  0  0  0  0
  -25.0668  -15.9979   31.2800 C   0  0  0  0  0  0  0  0  0  0  0  0
  -30.0210  -19.6563   32.1114 C   0  0  0  0  0  0  0  0  0  0  0  0
  -31.9419  -18.2114   24.3008 C   0  0  0  0  0  0  0  0  0  0  0  0
  -30.6901  -16.5291   22.4609 C   0  0  0  0  0  0  0  0  0  0  0  0
  -22.3871   -8.0700   21.3293 C   0  0  0  0  0  0  0  0  0  0  0  0
  -31.5797  -19.1269   30.3225 C   0  0  0  0  0  0  0  0  0  0  0  0
  -21.4711   -6.5317   22.8514 C   0  0  0  0  0  0  0  0  0  0  0  0
  -21.0684   -5.7289   25.4926 C   0  0  0  0  0  0  0  0  0  0  0  0
  -21.9384   -5.2900   23.2818 C   0  0  0  0  0  0  0  0  0  0  0  0
  -29.9259  -17.3741   23.2656 C   0  0  0  0  0  0  0  0  0  0  0  0
  -24.6144  -11.6064   20.6728 C   0  0  0  0  0  0  0  0  0  0  0  0
  -25.2648  -13.7010   20.5160 C   0  0  0  0  0  0  0  0  0  0  0  0
  -31.9411  -19.4510   26.4505 C   0  0  0  0  0  0  0  0  0  0  0  0
  -22.9144  -13.4245   21.3205 C   0  0  0  0  0  0  0  0  0  0  0  0
  -26.7990  -18.8439   32.8777 C   0  0  0  0  0  0  0  0  0  0  0  0
  -27.9221  -21.0231   35.0020 C   0  0  0  0  0  0  0  0  0  0  0  0
  -30.5865  -23.4529   35.1218 C   0  0  0  0  0  0  0  0  0  0  0  0
  -30.7271  -14.7718   20.6562 C   0  0  0  0  0  0  0  0  0  0  0  0
  -23.0184  -15.4197   32.6801 C   0  0  0  0  0  0  0  0  0  0  0  0
  -29.0127  -17.8239   33.5223 C   0  0  0  0  0  0  0  0  0  0  0  0
  -29.2716  -20.7021   32.8945 C   0  0  0  0  0  0  0  0  0  0  0  0
  -23.2700  -16.7262   33.4285 C   0  0  0  0  0  0  0  0  0  0  0  0
  -34.5253  -20.6300   25.7281 C   0  0  0  0  0  0  0  0  0  0  0  0
  -29.5937  -12.4410   18.2149 C   0  0  0  0  0  0  0  0  0  0  0  0
  -23.7422  -17.8107   32.4653 C   0  0  0  0  0  0  0  0  0  0  0  0
  -34.0570  -20.6597   27.1670 C   0  0  0  0  0  0  0  0  0  0  0  0
  -28.1616  -12.1251   18.6526 C   0  0  0  0  0  0  0  0  0  0  0  0
  -34.0209  -19.3699   25.0464 C   0  0  0  0  0  0  0  0  0  0  0  0
  -30.5238  -12.6305   19.4119 C   0  0  0  0  0  0  0  0  0  0  0  0
  -28.6320  -13.2918   20.8446 C   0  0  0  0  0  0  0  0  0  0  0  0
  -25.0672  -17.4191   31.8001 C   0  0  1  0  0  0  0  0  0  0  0  0
  -32.5358  -20.6560   27.1869 C   0  0  2  0  0  0  0  0  0  0  0  0
  -27.9187  -18.8254   33.8796 C   0  0  1  0  0  0  0  0  0  0  0  0
  -27.6441  -13.1566   19.6743 C   0  0  2  0  0  0  0  0  0  0  0  0
  -31.8367  -24.4082   37.0768 C   0  0  0  0  0  0  0  0  0  0  0  0
  -25.8523  -23.2605   34.8617 C   0  0  0  0  0  0  0  0  0  0  0  0
  -27.6735  -24.8856   35.4190 C   0  0  0  0  0  0  0  0  0  0  0  0
  -27.0625  -23.0942   37.0439 C   0  0  0  0  0  0  0  0  0  0  0  0
  -33.2015  -22.6585   33.9862 C   0  0  0  0  0  0  0  0  0  0  0  0
  -32.0287  -20.7332   28.6272 C   0  0  0  0  0  0  0  0  0  1  0  0
  -28.3123  -22.4798   34.9338 C   0  0  1  0  0  0  0  0  0  0  0  0
  -31.8497  -23.3758   35.9602 C   0  0  2  0  0  0  0  0  0  0  0  0
  -27.2274  -23.4129   35.5420 C   0  0  0  0  0  0  0  0  0  0  0  0
  -25.8739  -11.5337   20.2343 N   0  0  0  0  0  0  0  0  0  0  0  0
  -26.2421  -12.8233   20.1488 N   0  0  0  0  0  0  0  0  0  0  0  0
  -32.5917  -19.0835   25.2556 N   0  0  0  0  0  0  0  0  0  0  0  0
  -28.4205  -20.1971   33.9845 N   0  0  0  0  0  0  0  0  0  0  0  0
  -29.9713  -13.6247   20.3344 N   0  0  0  0  0  0  0  0  0  0  0  0
  -25.4670  -15.0355   20.4897 N   0  0  0  0  0  0  0  0  0  0  0  0
  -21.9121  -12.4974   21.6373 N   0  0  0  0  0  0  0  0  0  0  0  0
  -30.0859  -15.6620   21.5170 N   0  0  0  0  0  0  0  0  0  0  0  0
  -26.1711  -17.6240   32.7132 N   0  0  0  0  0  0  0  0  0  0  0  0
  -29.6179  -22.5832   35.5765 N   0  0  0  0  0  0  0  0  0  0  0  0
  -33.0505  -23.6170   35.1112 N   0  3  0  0  0  0  0  0  0  0  0  0
  -30.9159  -18.9178   26.8829 O   0  0  0  0  0  0  0  0  0  0  0  0
  -22.6722  -14.6507   21.4268 O   0  0  0  0  0  0  0  0  0  0  0  0
  -26.5241  -19.8880   32.2981 O   0  0  0  0  0  0  0  0  0  0  0  0
  -27.2076  -20.6311   35.9279 O   0  0  0  0  0  0  0  0  0  0  0  0
  -30.4694  -24.2116   34.1620 O   0  0  0  0  0  0  0  0  0  0  0  0
  -31.8488  -14.9645   20.1801 O   0  0  0  0  0  0  0  0  0  0  0  0
  -21.6710   -6.9321   21.5409 O   0  0  0  0  0  0  0  0  0  0  0  0
  -32.3959  -19.5374   29.3140 O   0  0  0  0  0  0  0  0  0  1  0  0
  -20.8762   -5.3442   26.7611 F   0  0  0  0  0  0  0  0  0  0  0  0
  -22.5824   -4.4788   22.4315 F   0  0  0  0  0  0  0  0  0  0  0  0
  -28.2021  -17.4100   23.1552 Cl  0  0  0  0  0  0  0  0  0  0  0  0
  1  2  1  0  0  0  0
  1  5  2  0  0  0  0
  2  6  2  0  0  0  0
  3 10  2  0  0  0  0
  3 18  1  0  0  0  0
  4 11  1  0  0  0  0
  4 18  2  0  0  0  0
  5 20  1  0  0  0  0
  6 22  1  0  0  0  0
  7 12  2  0  0  0  0
  7 21  1  0  0  0  0
  8  9  2  0  0  0  0
  8 24  1  0  0  0  0
  9 25  1  0  0  0  0
 10 26  1  0  0  0  0
 11 26  2  0  0  0  0
 12 27  1  0  0  0  0
 13 14  2  0  0  0  0
 13 28  1  0  0  0  0
 14 29  1  0  0  0  0
 15 23  1  0  0  0  0
 15 27  2  0  0  0  0
 16 24  2  0  0  0  0
 16 31  1  0  0  0  0
 17 29  2  0  0  0  0
 17 30  1  0  0  0  0
 18 32  1  0  0  0  0
 19 32  1  0  0  0  0
 19 33  2  0  0  0  0
 19 35  1  0  0  0  0
 20 22  2  0  0  0  0
 20 40  1  0  0  0  0
 21 23  2  0  0  0  0
 21 41  1  0  0  0  0
 22 52  1  0  0  0  0
 23 42  1  0  0  0  0
 24 67  1  0  0  0  0
 25 31  2  0  0  0  0
 25 72  1  0  0  0  0
 26 82  1  0  0  0  0
 27 83  1  0  0  0  0
 28 30  2  0  0  0  0
 28 82  1  0  0  0  0
 29 84  1  0  0  0  0
 30 85  1  0  0  0  0
 31 86  1  0  0  0  0
 32 65  2  0  0  0  0
 33 66  1  0  0  0  0
 33 70  1  0  0  0  0
 34 53  1  0  0  0  0
 34 67  1  0  0  0  0
 34 76  2  0  0  0  0
 35 71  1  0  0  0  0
 35 77  2  0  0  0  0
 36 54  1  0  0  0  0
 36 73  1  0  0  0  0
 36 78  2  0  0  0  0
 37 62  1  0  0  0  0
 37 68  1  0  0  0  0
 37 79  2  0  0  0  0
 38 63  1  0  0  0  0
 38 74  1  0  0  0  0
 38 80  2  0  0  0  0
 39 69  1  0  0  0  0
 39 72  1  0  0  0  0
 39 81  2  0  0  0  0
 40 43  1  0  0  0  0
 41 54  1  0  0  0  0
 42 68  1  0  0  0  0
 43 46  1  0  0  0  0
 44 47  1  0  0  0  0
 44 49  1  0  0  0  0
 45 48  1  0  0  0  0
 45 50  1  0  0  0  0
 46 52  1  0  0  0  0
 47 53  1  0  0  0  0
 48 55  1  0  0  0  0
 49 67  1  0  0  0  0
 50 69  1  0  0  0  0
 51 55  1  0  0  0  0
 51 69  1  0  0  0  0
 52 73  1  0  0  0  0
 53 61  1  0  0  0  0
 54 68  1  0  0  0  0
 55 66  1  0  0  0  0
 56 63  1  0  0  0  0
 57 64  1  0  0  0  0
 58 64  1  0  0  0  0
 59 64  1  0  0  0  0
 60 75  1  0  0  0  0
 61 83  1  0  0  0  0
 62 64  1  0  0  0  0
 62 74  1  0  0  0  0
 63 75  1  0  0  0  0
 65 66  1  0  0  0  0
M  CHG  1  75   1
M  ISO  4  39 100  61 101  72 100  83 101
M  END
> <Batch ID>
0025

> <Smiles>
CNC(C)C(=O)NC(C(=O)N1Cc2cc([101O:1][101CH2:1]C3CCCN(c4ccc([100NH:0][100C:0](=O)N5CCCC(n6nc(-c7ccc(Oc8ccc(F)cc8F)cc7)c(C(N)=O)c6N)C5)c(Cl)c4)C3=O)ccc2CC1C(=O)NC1CCCc2ccccc21)C(C)(C)C

> <Shape>
0.183

> <Color>
0.196

> <Negative vol penalty>
0.000

$$$$

  -OEChem-04042321223D

 86 94  0     1  0  0  0  0  0999 V2000
  -30.8077  -29.9564   14.3132 C   0  0  0  0  0  0  0  0  0  0  0  0
  -30.6278  -28.9110   15.2133 C   0  0  0  0  0  0  0  0  0  0  0  0
  -23.0348   -9.9815   19.9099 C   0  0  0  0  0  0  0  0  0  0  0  0
  -23.8873   -9.8332   22.1657 C   0  0  0  0  0  0  0  0  0  0  0  0
  -30.6246  -31.2739   14.7310 C   0  0  0  0  0  0  0  0  0  0  0  0
  -30.2656  -29.1827   16.5322 C   0  0  0  0  0  0  0  0  0  0  0  0
  -26.5850  -26.1325   18.2039 C   0  0  0  0  0  0  0  0  0  0  0  0
  -22.2942   -8.8172   20.1132 C   0  0  0  0  0  0  0  0  0  0  0  0
  -23.1466   -8.6688   22.3690 C   0  0  0  0  0  0  0  0  0  0  0  0
  -26.9500  -24.8400   18.5780 C   0  0  0  0  0  0  0  0  0  0  0  0
  -19.9405   -7.8452   23.0491 C   0  0  0  0  0  0  0  0  0  0  0  0
  -19.2315   -7.7304   24.2448 C   0  0  0  0  0  0  0  0  0  0  0  0
  -26.9372  -25.5133   20.8944 C   0  0  0  0  0  0  0  0  0  0  0  0
  -31.1879  -17.6893   20.7375 C   0  0  0  0  0  0  0  0  0  0  0  0
  -29.8389  -19.2038   22.6530 C   0  0  0  0  0  0  0  0  0  0  0  0
  -20.4890   -5.7436   24.7998 C   0  0  0  0  0  0  0  0  0  0  0  0
  -23.8315  -10.4895   20.9361 C   0  0  0  0  0  0  0  0  0  0  0  0
  -24.1847  -13.0157   20.9698 C   0  0  0  0  0  0  0  0  0  0  0  0
  -30.2506  -31.5613   16.0531 C   0  0  0  0  0  0  0  0  0  0  0  0
  -26.4037  -27.1296   19.1731 C   0  0  0  0  0  0  0  0  0  0  0  0
  -30.0786  -30.5054   16.9685 C   0  0  0  0  0  0  0  0  0  0  0  0
  -26.5674  -26.8170   20.5302 C   0  0  0  0  0  0  0  0  0  0  0  0
  -31.3873  -19.0682   20.8033 C   0  0  0  0  0  0  0  0  0  0  0  0
  -30.3140  -17.0676   21.6294 C   0  0  0  0  0  0  0  0  0  0  0  0
  -30.7128  -19.8255   21.7610 C   0  0  0  0  0  0  0  0  0  0  0  0
  -22.3500   -8.1608   21.3427 C   0  0  0  0  0  0  0  0  0  0  0  0
  -27.1290  -24.5309   19.9232 C   0  0  0  0  0  0  0  0  0  0  0  0
  -20.9237   -6.9090   22.7287 C   0  0  0  0  0  0  0  0  0  0  0  0
  -19.5058   -6.6797   25.1202 C   0  0  0  0  0  0  0  0  0  0  0  0
  -21.1980   -5.8583   23.6040 C   0  0  0  0  0  0  0  0  0  0  0  0
  -29.6396  -17.8248   22.5872 C   0  0  0  0  0  0  0  0  0  0  0  0
  -24.5972  -11.6919   20.7266 C   0  0  0  0  0  0  0  0  0  0  0  0
  -25.2661  -13.7835   20.6125 C   0  0  0  0  0  0  0  0  0  0  0  0
  -22.9357  -13.5074   21.4736 C   0  0  0  0  0  0  0  0  0  0  0  0
  -27.7917  -29.9172   19.8105 C   0  0  0  0  0  0  0  0  0  0  0  0
  -25.4213  -30.1513   22.0124 C   0  0  0  0  0  0  0  0  0  0  0  0
  -30.0922  -22.1516   21.1127 C   0  0  0  0  0  0  0  0  0  0  0  0
  -23.1496  -28.5636   24.0037 C   0  0  0  0  0  0  0  0  0  0  0  0
  -30.7416  -14.7941   20.6319 C   0  0  0  0  0  0  0  0  0  0  0  0
  -30.1103  -33.0038   16.4706 C   0  0  0  0  0  0  0  0  0  0  0  0
  -25.9839  -28.5121   18.7552 C   0  0  0  0  0  0  0  0  0  0  0  0
  -26.3651  -27.8462   21.6110 C   0  0  0  0  0  0  0  0  0  0  0  0
  -29.3613  -33.1865   17.7882 C   0  0  0  0  0  0  0  0  0  0  0  0
  -29.5160  -12.5473   18.1566 C   0  0  0  0  0  0  0  0  0  0  0  0
  -29.8833  -32.2113   18.8386 C   0  0  0  0  0  0  0  0  0  0  0  0
  -28.0932  -12.2334   18.6245 C   0  0  0  0  0  0  0  0  0  0  0  0
  -30.4807  -12.6923   19.3323 C   0  0  0  0  0  0  0  0  0  0  0  0
  -28.6362  -13.3306   20.8355 C   0  0  0  0  0  0  0  0  0  0  0  0
  -29.6616  -30.7584   18.4010 C   0  0  1  0  0  0  0  0  0  0  0  0
  -26.3278  -29.5793   19.7897 C   0  0  1  0  0  0  0  0  0  0  0  0
  -27.6152  -13.2398   19.6896 C   0  0  2  0  0  0  0  0  0  0  0  0
  -33.7891  -19.4789   20.2125 C   0  0  0  0  0  0  0  0  0  0  0  0
  -21.3778  -29.0189   25.7215 C   0  0  0  0  0  0  0  0  0  0  0  0
  -27.5837  -30.6719   24.1013 C   0  0  0  0  0  0  0  0  0  0  0  0
  -25.8904  -30.1737   25.8769 C   0  0  0  0  0  0  0  0  0  0  0  0
  -25.5447  -32.1014   24.3319 C   0  0  0  0  0  0  0  0  0  0  0  0
  -31.9160  -21.7287   22.8076 C   0  0  0  0  0  0  0  0  0  0  0  0
  -21.0391  -27.3575   22.3155 C   0  0  0  0  0  0  0  0  0  0  0  0
  -32.3289  -19.7076   19.8352 C   0  0  0  0  0  0  0  0  0  0  0  0
  -29.1211  -21.5072   20.1231 C   0  0  0  0  0  0  0  0  0  0  0  0
  -28.2728  -22.5218   19.3652 C   0  0  0  0  0  0  0  0  0  1  0  0
  -25.2610  -29.7461   23.4578 C   0  0  1  0  0  0  0  0  0  0  0  0
  -21.6716  -28.8139   24.2435 C   0  0  2  0  0  0  0  0  0  0  0  0
  -26.0757  -30.6542   24.4217 C   0  0  0  0  0  0  0  0  0  0  0  0
  -25.8434  -11.6192   20.2514 N   0  0  0  0  0  0  0  0  0  0  0  0
  -26.2232  -12.9070   20.1930 N   0  0  0  0  0  0  0  0  0  0  0  0
  -25.9612  -29.1853   21.1515 N   0  0  0  0  0  0  0  0  0  0  0  0
  -29.9646  -13.6646   20.2982 N   0  0  0  0  0  0  0  0  0  0  0  0
  -25.4820  -15.1160   20.6193 N   0  0  0  0  0  0  0  0  0  0  0  0
  -21.9324  -12.5817   21.7911 N   0  0  0  0  0  0  0  0  0  0  0  0
  -30.1341  -15.6652   21.5357 N   0  0  0  0  0  0  0  0  0  0  0  0
  -28.2806  -30.3752   18.6019 N   0  0  0  0  0  0  0  0  0  0  0  0
  -23.8260  -29.7313   23.7208 N   0  0  0  0  0  0  0  0  0  0  0  0
  -30.9064  -21.2592   21.8457 N   0  0  0  0  0  0  0  0  0  0  0  0
  -20.8653  -27.6577   23.7600 N   0  3  0  0  0  0  0  0  0  0  0  0
  -22.7100  -14.7324   21.6220 O   0  0  0  0  0  0  0  0  0  0  0  0
  -28.4301  -29.7745   20.8467 O   0  0  0  0  0  0  0  0  0  0  0  0
  -25.0735  -31.2808   21.6589 O   0  0  0  0  0  0  0  0  0  0  0  0
  -30.1403  -23.3811   21.1993 O   0  0  0  0  0  0  0  0  0  0  0  0
  -23.6542  -27.4446   24.0651 O   0  0  0  0  0  0  0  0  0  0  0  0
  -31.8518  -14.9892   20.1306 O   0  0  0  0  0  0  0  0  0  0  0  0
  -21.6273   -7.0248   21.5415 O   0  0  0  0  0  0  0  0  0  0  0  0
  -27.4859  -23.2703   20.2910 O   0  0  0  0  0  0  0  0  0  1  0  0
  -18.8259   -6.5705   26.2691 F   0  0  0  0  0  0  0  0  0  0  0  0
  -22.1423   -4.9566   23.3022 F   0  0  0  0  0  0  0  0  0  0  0  0
  -28.5479  -17.0950   23.7100 Cl  0  0  0  0  0  0  0  0  0  0  0  0
  1  2  1  0  0  0  0
  1  5  2  0  0  0  0
  2  6  2  0  0  0  0
  3  8  2  0  0  0  0
  3 17  1  0  0  0  0
  4  9  1  0  0  0  0
  4 17  2  0  0  0  0
  5 19  1  0  0  0  0
  6 21  1  0  0  0  0
  7 10  2  0  0  0  0
  7 20  1  0  0  0  0
  8 26  1  0  0  0  0
  9 26  2  0  0  0  0
 10 27  1  0  0  0  0
 11 12  2  0  0  0  0
 11 28  1  0  0  0  0
 12 29  1  0  0  0  0
 13 22  1  0  0  0  0
 13 27  2  0  0  0  0
 14 23  1  0  0  0  0
 14 24  2  0  0  0  0
 15 25  1  0  0  0  0
 15 31  2  0  0  0  0
 16 29  2  0  0  0  0
 16 30  1  0  0  0  0
 17 32  1  0  0  0  0
 18 32  1  0  0  0  0
 18 33  2  0  0  0  0
 18 34  1  0  0  0  0
 19 21  2  0  0  0  0
 19 40  1  0  0  0  0
 20 22  2  0  0  0  0
 20 41  1  0  0  0  0
 21 49  1  0  0  0  0
 22 42  1  0  0  0  0
 23 25  2  0  0  0  0
 23 59  1  0  0  0  0
 24 31  1  0  0  0  0
 24 71  1  0  0  0  0
 25 74  1  0  0  0  0
 26 82  1  0  0  0  0
 27 83  1  0  0  0  0
 28 30  2  0  0  0  0
 28 82  1  0  0  0  0
 29 84  1  0  0  0  0
 30 85  1  0  0  0  0
 31 86  1  0  0  0  0
 32 65  2  0  0  0  0
 33 66  1  0  0  0  0
 33 69  1  0  0  0  0
 34 70  1  0  0  0  0
 34 76  2  0  0  0  0
 35 50  1  0  0  0  0
 35 72  1  0  0  0  0
 35 77  2  0  0  0  0
 36 62  1  0  0  0  0
 36 67  1  0  0  0  0
 36 78  2  0  0  0  0
 37 60  1  0  0  0  0
 37 74  1  0  0  0  0
 37 79  2  0  0  0  0
 38 63  1  0  0  0  0
 38 73  1  0  0  0  0
 38 80  2  0  0  0  0
 39 68  1  0  0  0  0
 39 71  1  0  0  0  0
 39 81  2  0  0  0  0
 40 43  1  0  0  0  0
 41 50  1  0  0  0  0
 42 67  1  0  0  0  0
 43 45  1  0  0  0  0
 44 46  1  0  0  0  0
 44 47  1  0  0  0  0
 45 49  1  0  0  0  0
 46 51  1  0  0  0  0
 47 68  1  0  0  0  0
 48 51  1  0  0  0  0
 48 68  1  0  0  0  0
 49 72  1  0  0  0  0
 50 67  1  0  0  0  0
 51 66  1  0  0  0  0
 52 59  1  0  0  0  0
 53 63  1  0  0  0  0
 54 64  1  0  0  0  0
 55 64  1  0  0  0  0
 56 64  1  0  0  0  0
 57 74  1  0  0  0  0
 58 75  1  0  0  0  0
 60 61  1  0  0  0  0
 61 83  1  0  0  0  0
 62 64  1  0  0  0  0
 62 73  1  0  0  0  0
 63 75  1  0  0  0  0
 65 66  1  0  0  0  0
M  CHG  1  75   1
M  ISO  4  39 100  61 101  71 100  83 101
M  END
> <Batch ID>
0025

> <Smiles>
CCc1cc([100NH:0][100C:0](=O)N2CCCC(n3nc(-c4ccc(Oc5ccc(F)cc5F)cc4)c(C(N)=O)c3N)C2)c(Cl)cc1N(C)C(=O)C[101CH2:1][101O:1]c1ccc2c(c1)CN(C(=O)C(NC(=O)C(C)NC)C(C)(C)C)C(C(=O)NC1CCCc3ccccc31)C2

> <Shape>
0.328

> <Color>
0.225

> <Negative vol penalty>
0.000

$$$$

  -OEChem-04042321223D

 85 94  0     1  0  0  0  0  0999 V2000
  -24.0487   -7.9597   21.7844 C   0  0  0  0  0  0  0  0  0  0  0  0
  -24.6381   -9.0118   21.0909 C   0  0  0  0  0  0  0  0  0  0  0  0
  -22.6678  -28.8133   23.0341 C   0  0  0  0  0  0  0  0  0  0  0  0
  -22.4865  -26.4062   22.9359 C   0  0  0  0  0  0  0  0  0  0  0  0
  -22.7248   -8.0616   22.2099 C   0  0  0  0  0  0  0  0  0  0  0  0
  -23.9037  -10.1661   20.8214 C   0  0  0  0  0  0  0  0  0  0  0  0
  -26.5262  -14.3979   21.7480 C   0  0  0  0  0  0  0  0  0  0  0  0
  -21.3203  -28.9288   22.6927 C   0  0  0  0  0  0  0  0  0  0  0  0
  -21.1389  -26.5216   22.5945 C   0  0  0  0  0  0  0  0  0  0  0  0
  -27.4688  -14.7842   20.7961 C   0  0  0  0  0  0  0  0  0  0  0  0
  -18.3260  -28.6417   24.2369 C   0  0  0  0  0  0  0  0  0  0  0  0
  -17.5490  -29.5457   24.9612 C   0  0  0  0  0  0  0  0  0  0  0  0
  -25.9036  -16.3898   19.9065 C   0  0  0  0  0  0  0  0  0  0  0  0
  -29.4884  -21.7036   17.5317 C   0  0  0  0  0  0  0  0  0  0  0  0
  -29.1703  -20.4803   19.5906 C   0  0  0  0  0  0  0  0  0  0  0  0
  -17.0592  -30.7542   22.9273 C   0  0  0  0  0  0  0  0  0  0  0  0
  -23.2509  -27.5520   23.1556 C   0  0  0  0  0  0  0  0  0  0  0  0
  -25.1873  -27.3381   24.8026 C   0  0  0  0  0  0  0  0  0  0  0  0
  -21.9768   -9.2216   21.9539 C   0  0  0  0  0  0  0  0  0  0  0  0
  -25.2592  -14.9981   21.7794 C   0  0  0  0  0  0  0  0  0  0  0  0
  -22.5682  -10.2830   21.2426 C   0  0  0  0  0  0  0  0  0  0  0  0
  -24.9476  -16.0112   20.8614 C   0  0  0  0  0  0  0  0  0  0  0  0
  -29.3537  -20.4911   18.2079 C   0  0  0  0  0  0  0  0  0  0  0  0
  -29.2563  -22.8945   19.6209 C   0  0  0  0  0  0  0  0  0  0  0  0
  -20.5559  -27.7830   22.4730 C   0  0  0  0  0  0  0  0  0  0  0  0
  -27.1566  -15.7782   19.8733 C   0  0  0  0  0  0  0  0  0  0  0  0
  -18.4697  -28.7940   22.8578 C   0  0  0  0  0  0  0  0  0  0  0  0
  -16.9155  -30.6019   24.3064 C   0  0  0  0  0  0  0  0  0  0  0  0
  -17.8363  -29.8502   22.2030 C   0  0  0  0  0  0  0  0  0  0  0  0
  -29.4397  -22.9053   18.2382 C   0  0  0  0  0  0  0  0  0  0  0  0
  -29.1216  -21.6820   20.2971 C   0  0  0  0  0  0  0  0  0  0  0  0
  -24.6429  -27.4321   23.5077 C   0  0  0  0  0  0  0  0  0  0  0  0
  -26.5423  -27.2434   24.5993 C   0  0  0  0  0  0  0  0  0  0  0  0
  -24.5270  -27.3363   26.0753 C   0  0  0  0  0  0  0  0  0  0  0  0
  -22.2769  -13.9628   21.4085 C   0  0  0  0  0  0  0  0  0  0  0  0
  -21.5295  -17.0015   22.2629 C   0  0  0  0  0  0  0  0  0  0  0  0
  -22.4847  -20.2715   22.4682 C   0  0  0  0  0  0  0  0  0  0  0  0
  -29.8581  -25.3079   20.0206 C   0  0  0  0  0  0  0  0  0  0  0  0
  -20.5344   -9.2666   22.3922 C   0  0  0  0  0  0  0  0  0  0  0  0
  -24.2630  -14.5890   22.8295 C   0  0  0  0  0  0  0  0  0  0  0  0
  -23.6088  -16.7010   20.8658 C   0  0  0  0  0  0  0  0  0  0  0  0
  -19.9420  -10.6735   22.3939 C   0  0  0  0  0  0  0  0  0  0  0  0
  -29.9654  -28.5396   21.5111 C   0  0  0  0  0  0  0  0  0  0  0  0
  -29.5515  -17.7505   15.7245 C   0  0  0  0  0  0  0  0  0  0  0  0
  -20.2939  -11.4025   21.1010 C   0  0  0  0  0  0  0  0  0  0  0  0
  -28.6651  -28.6115   22.3150 C   0  0  0  0  0  0  0  0  0  0  0  0
  -30.0278  -17.0870   17.0070 C   0  0  0  0  0  0  0  0  0  0  0  0
  -29.5909  -19.2386   16.0572 C   0  0  0  0  0  0  0  0  0  0  0  0
  -29.7781  -27.7854   20.1959 C   0  0  0  0  0  0  0  0  0  0  0  0
  -27.8803  -26.5221   21.1294 C   0  0  0  0  0  0  0  0  0  0  0  0
  -21.8118  -11.5614   20.9528 C   0  0  1  0  0  0  0  0  0  0  0  0
  -22.8221  -14.9071   22.4423 C   0  0  1  0  0  0  0  0  0  0  0  0
  -28.0345  -27.2163   22.4925 C   0  0  2  0  0  0  0  0  0  0  0  0
  -29.4312  -17.9645   18.1163 C   0  0  2  0  0  0  0  0  0  0  0  0
  -21.6452  -22.5282   23.1751 C   0  0  0  0  0  0  0  0  0  0  0  0
  -19.8479  -17.1692   19.7224 C   0  0  0  0  0  0  0  0  0  0  0  0
  -19.8252  -19.6589   19.9851 C   0  0  0  0  0  0  0  0  0  0  0  0
  -18.7985  -18.2120   21.7388 C   0  0  0  0  0  0  0  0  0  0  0  0
  -24.6047  -20.5475   24.5147 C   0  0  0  0  0  0  0  0  0  0  0  0
  -28.0213  -17.5089   18.4904 C   0  0  0  0  0  0  0  0  0  1  0  0
  -21.3159  -18.2988   21.5210 C   0  0  1  0  0  0  0  0  0  0  0  0
  -22.3971  -21.2771   23.6019 C   0  0  2  0  0  0  0  0  0  0  0  0
  -19.9715  -18.3206   20.7403 C   0  0  0  0  0  0  0  0  0  0  0  0
  -25.5760  -27.4003   22.5525 N   0  0  0  0  0  0  0  0  0  0  0  0
  -26.7204  -27.2852   23.2478 N   0  0  0  0  0  0  0  0  0  0  0  0
  -29.4016  -19.3002   17.5078 N   0  0  3  0  0  0  0  0  0  0  0  0
  -22.6663  -16.2615   21.9079 N   0  0  0  0  0  0  0  0  0  0  0  0
  -29.1804  -26.4713   20.4426 N   0  0  0  0  0  0  0  0  0  0  0  0
  -27.5870  -27.1294   25.4467 N   0  0  0  0  0  0  0  0  0  0  0  0
  -23.1297  -27.4412   26.1032 N   0  0  0  0  0  0  0  0  0  0  0  0
  -29.2092  -24.1153   20.3387 N   0  0  0  0  0  0  0  0  0  0  0  0
  -22.2921  -12.6361   21.7947 N   0  0  0  0  0  0  0  0  0  0  0  0
  -21.4492  -19.3620   22.5111 N   0  0  0  0  0  0  0  0  0  0  0  0
  -23.7623  -21.6777   24.0455 N   0  3  0  0  0  0  0  0  0  0  0  0
  -25.1588  -27.2610   27.1563 O   0  0  0  0  0  0  0  0  0  0  0  0
  -21.8710  -14.4052   20.3403 O   0  0  0  0  0  0  0  0  0  0  0  0
  -20.7216  -16.6609   23.1306 O   0  0  0  0  0  0  0  0  0  0  0  0
  -23.3798  -20.2930   21.6263 O   0  0  0  0  0  0  0  0  0  0  0  0
  -30.9480  -25.3644   19.4454 O   0  0  0  0  0  0  0  0  0  0  0  0
  -19.2409  -27.8952   22.1401 O   0  0  0  0  0  0  0  0  0  0  0  0
  -28.0746  -16.1566   18.9428 O   0  0  0  0  0  0  0  0  0  1  0  0
  -16.1681  -31.4691   25.0018 F   0  0  0  0  0  0  0  0  0  0  0  0
  -17.9697  -30.0010   20.8782 F   0  0  0  0  0  0  0  0  0  0  0  0
  -29.6110  -24.3816   17.3553 Cl  0  0  0  0  0  0  0  0  0  0  0  0
  -28.8896  -21.6175   22.0089 Cl  0  0  0  0  0  0  0  0  0  0  0  0
  1  2  1  0  0  0  0
  1  5  2  0  0  0  0
  2  6  2  0  0  0  0
  3  8  2  0  0  0  0
  3 17  1  0  0  0  0
  4  9  1  0  0  0  0
  4 17  2  0  0  0  0
  5 19  1  0  0  0  0
  6 21  1  0  0  0  0
  7 10  2  0  0  0  0
  7 20  1  0  0  0  0
  8 25  1  0  0  0  0
  9 25  2  0  0  0  0
 10 26  1  0  0  0  0
 11 12  2  0  0  0  0
 11 27  1  0  0  0  0
 12 28  1  0  0  0  0
 13 22  1  0  0  0  0
 13 26  2  0  0  0  0
 14 23  1  0  0  0  0
 14 30  2  0  0  0  0
 15 23  2  0  0  0  0
 15 31  1  0  0  0  0
 16 28  2  0  0  0  0
 16 29  1  0  0  0  0
 17 32  1  0  0  0  0
 18 32  1  0  0  0  0
 18 33  2  0  0  0  0
 18 34  1  0  0  0  0
 19 21  2  0  0  0  0
 19 39  1  0  0  0  0
 20 22  2  0  0  0  0
 20 40  1  0  0  0  0
 21 51  1  0  0  0  0
 22 41  1  0  0  0  0
 23 66  1  0  0  0  0
 24 30  1  0  0  0  0
 24 31  2  0  0  0  0
 24 71  1  0  0  0  0
 25 80  1  0  0  0  0
 26 81  1  0  0  0  0
 27 29  2  0  0  0  0
 27 80  1  0  0  0  0
 28 82  1  0  0  0  0
 29 83  1  0  0  0  0
 30 84  1  0  0  0  0
 31 85  1  0  0  0  0
 32 64  2  0  0  0  0
 33 65  1  0  0  0  0
 33 69  1  0  0  0  0
 34 70  1  0  0  0  0
 34 75  2  0  0  0  0
 35 52  1  0  0  0  0
 35 72  1  0  0  0  0
 35 76  2  0  0  0  0
 36 61  1  0  0  0  0
 36 67  1  0  0  0  0
 36 77  2  0  0  0  0
 37 62  1  0  0  0  0
 37 73  1  0  0  0  0
 37 78  2  0  0  0  0
 38 68  1  0  0  0  0
 38 71  1  0  0  0  0
 38 79  2  0  0  0  0
 39 42  1  0  0  0  0
 40 52  1  0  0  0  0
 41 67  1  0  0  0  0
 42 45  1  0  0  0  0
 43 46  1  0  0  0  0
 43 49  1  0  0  0  0
 44 47  1  0  0  0  0
 44 48  1  0  0  0  0
 45 51  1  0  0  0  0
 46 53  1  0  0  0  0
 47 54  1  0  0  0  0
 48 66  1  0  0  0  0
 49 68  1  0  0  0  0
 50 53  1  0  0  0  0
 50 68  1  0  0  0  0
 51 72  1  0  0  0  0
 52 67  1  0  0  0  0
 53 65  1  0  0  0  0
 54 60  1  0  0  0  0
 54 66  1  0  0  0  0
 55 62  1  0  0  0  0
 56 63  1  0  0  0  0
 57 63  1  0  0  0  0
 58 63  1  0  0  0  0
 59 74  1  0  0  0  0
 60 81  1  0  0  0  0
 61 63  1  0  0  0  0
 61 73  1  0  0  0  0
 62 74  1  0  0  0  0
 64 65  1  0  0  0  0
M  CHG  1  74   1
M  ISO  4  38 100  60 101  71 100  81 101
M  END
> <Batch ID>
0025

> <Smiles>
CNC(C)C(=O)NC(C(=O)N1Cc2cc([101O:1][101CH2:1]C3CCCN3c3cc(Cl)c([100NH:0][100C:0](=O)N4CCCC(n5nc(-c6ccc(Oc7ccc(F)cc7F)cc6)c(C(N)=O)c5N)C4)c(Cl)c3)ccc2CC1C(=O)NC1CCCc2ccccc21)C(C)(C)C

> <Shape>
0.220

> <Color>
0.085

> <Negative vol penalty>
0.000

$$$$

  -OEChem-04042321223D

 86 95  0     1  0  0  0  0  0999 V2000
  -17.1851  -30.3084   23.9481 C   0  0  0  0  0  0  0  0  0  0  0  0
  -18.5324  -30.6548   23.9546 C   0  0  0  0  0  0  0  0  0  0  0  0
  -22.9439  -14.2309   22.7330 C   0  0  0  0  0  0  0  0  0  0  0  0
  -25.1436  -14.8308   21.9340 C   0  0  0  0  0  0  0  0  0  0  0  0
  -16.7935  -29.0446   23.5082 C   0  0  0  0  0  0  0  0  0  0  0  0
  -19.4892  -29.7372   23.5221 C   0  0  0  0  0  0  0  0  0  0  0  0
  -25.8310  -29.4294   20.2050 C   0  0  0  0  0  0  0  0  0  0  0  0
  -22.9285  -13.1362   21.8687 C   0  0  0  0  0  0  0  0  0  0  0  0
  -25.1282  -13.7360   21.0697 C   0  0  0  0  0  0  0  0  0  0  0  0
  -27.1067  -28.8910   20.3679 C   0  0  0  0  0  0  0  0  0  0  0  0
  -24.2358  -10.0194   21.7731 C   0  0  0  0  0  0  0  0  0  0  0  0
  -23.7965   -8.7974   22.2825 C   0  0  0  0  0  0  0  0  0  0  0  0
  -26.3068  -26.7653   19.5549 C   0  0  0  0  0  0  0  0  0  0  0  0
  -26.2175  -24.4670   22.8340 C   0  0  0  0  0  0  0  0  0  0  0  0
  -22.0221   -8.7520   20.6433 C   0  0  0  0  0  0  0  0  0  0  0  0
  -24.0515  -15.0783   22.7656 C   0  0  0  0  0  0  0  0  0  0  0  0
  -24.5411  -16.2402   24.9832 C   0  0  0  0  0  0  0  0  0  0  0  0
  -17.7451  -28.1145   23.0610 C   0  0  0  0  0  0  0  0  0  0  0  0
  -24.7793  -28.6354   19.7253 C   0  0  0  0  0  0  0  0  0  0  0  0
  -19.1101  -28.4594   23.0770 C   0  0  0  0  0  0  0  0  0  0  0  0
  -25.0193  -27.2967   19.3844 C   0  0  0  0  0  0  0  0  0  0  0  0
  -28.5958  -24.8430   22.6366 C   0  0  0  0  0  0  0  0  0  0  0  0
  -26.3727  -23.1954   22.2821 C   0  0  0  0  0  0  0  0  0  0  0  0
  -24.0206  -12.8888   21.0371 C   0  0  0  0  0  0  0  0  0  0  0  0
  -27.3441  -27.5580   20.0455 C   0  0  0  0  0  0  0  0  0  0  0  0
  -23.5682  -10.6077   20.6989 C   0  0  0  0  0  0  0  0  0  0  0  0
  -22.6897   -8.1637   21.7176 C   0  0  0  0  0  0  0  0  0  0  0  0
  -22.4614   -9.9740   20.1340 C   0  0  0  0  0  0  0  0  0  0  0  0
  -27.3290  -25.2908   23.0113 C   0  0  0  0  0  0  0  0  0  0  0  0
  -28.7511  -23.5714   22.0847 C   0  0  0  0  0  0  0  0  0  0  0  0
  -27.6395  -22.7476   21.9074 C   0  0  0  0  0  0  0  0  0  0  0  0
  -24.0678  -16.2096   23.6578 C   0  0  0  0  0  0  0  0  0  0  0  0
  -24.3368  -17.5358   25.3909 C   0  0  0  0  0  0  0  0  0  0  0  0
  -25.1142  -15.1913   25.7751 C   0  0  0  0  0  0  0  0  0  0  0  0
  -21.9835  -27.6723   20.8914 C   0  0  0  0  0  0  0  0  0  0  0  0
  -21.5905  -26.4754   17.9022 C   0  0  0  0  0  0  0  0  0  0  0  0
  -23.0294  -25.3568   15.0169 C   0  0  0  0  0  0  0  0  0  0  0  0
  -23.9045  -22.7202   22.4516 C   0  0  0  0  0  0  0  0  0  0  0  0
  -17.2781  -26.7439   22.6391 C   0  0  0  0  0  0  0  0  0  0  0  0
  -23.4152  -29.2384   19.5300 C   0  0  0  0  0  0  0  0  0  0  0  0
  -23.9291  -26.4076   18.8464 C   0  0  0  0  0  0  0  0  0  0  0  0
  -18.3213  -25.9629   21.8441 C   0  0  0  0  0  0  0  0  0  0  0  0
  -21.4705  -21.2949   24.6245 C   0  0  0  0  0  0  0  0  0  0  0  0
  -31.8478  -26.1465   23.6096 C   0  0  0  0  0  0  0  0  0  0  0  0
  -19.6845  -26.0492   22.5231 C   0  0  0  0  0  0  0  0  0  0  0  0
  -21.9069  -19.8333   24.7487 C   0  0  0  0  0  0  0  0  0  0  0  0
  -31.5239  -27.1297   22.4988 C   0  0  0  0  0  0  0  0  0  0  0  0
  -30.4743  -25.6543   24.0491 C   0  0  0  0  0  0  0  0  0  0  0  0
  -21.7103  -21.8409   23.2180 C   0  0  0  0  0  0  0  0  0  0  0  0
  -23.5136  -20.2069   22.8340 C   0  0  0  0  0  0  0  0  0  0  0  0
  -20.1756  -27.5003   22.5921 C   0  0  1  0  0  0  0  0  0  0  0  0
  -22.2984  -28.1992   19.5199 C   0  0  1  0  0  0  0  0  0  0  0  0
  -23.3517  -19.6323   24.2508 C   0  0  2  0  0  0  0  0  0  0  0  0
  -30.3250  -26.4904   21.7768 C   0  0  2  0  0  0  0  0  0  0  0  0
  -22.4518  -24.4079   12.7667 C   0  0  0  0  0  0  0  0  0  0  0  0
  -20.9907  -23.7781   19.1963 C   0  0  0  0  0  0  0  0  0  0  0  0
  -21.3631  -22.7037   16.9658 C   0  0  0  0  0  0  0  0  0  0  0  0
  -19.5179  -24.3565   17.2596 C   0  0  0  0  0  0  0  0  0  0  0  0
  -24.2924  -27.6306   13.6049 C   0  0  0  0  0  0  0  0  0  0  0  0
  -29.3990  -27.5783   21.2426 C   0  0  0  0  0  0  0  0  0  1  0  0
  -21.9129  -25.1658   17.2240 C   0  0  1  0  0  0  0  0  0  0  0  0
  -22.7425  -25.6724   13.5600 C   0  0  2  0  0  0  0  0  0  0  0  0
  -20.9665  -24.0170   17.6733 C   0  0  0  0  0  0  0  0  0  0  0  0
  -23.5980  -17.3917   23.2505 N   0  0  0  0  0  0  0  0  0  0  0  0
  -23.7751  -18.1773   24.3265 N   0  0  0  0  0  0  0  0  0  0  0  0
  -29.6911  -25.6647   22.8144 N   0  0  3  0  0  0  0  0  0  0  0  0
  -22.6110  -27.0417   18.6792 N   0  0  0  0  0  0  0  0  0  0  0  0
  -23.1008  -21.6190   22.8154 N   0  0  0  0  0  0  0  0  0  0  0  0
  -24.5846  -18.1773   26.5525 N   0  0  0  0  0  0  0  0  0  0  0  0
  -25.2517  -13.9200   25.2013 N   0  0  0  0  0  0  0  0  0  0  0  0
  -25.2180  -22.3905   22.1190 N   0  0  0  0  0  0  0  0  0  0  0  0
  -20.6893  -27.9217   21.3065 N   0  0  0  0  0  0  0  0  0  0  0  0
  -21.8901  -25.4324   15.7898 N   0  0  0  0  0  0  0  0  0  0  0  0
  -23.9104  -26.3588   12.9389 N   0  3  0  0  0  0  0  0  0  0  0  0
  -25.4781  -15.3719   26.9619 O   0  0  0  0  0  0  0  0  0  0  0  0
  -22.8501  -27.0818   21.5254 O   0  0  0  0  0  0  0  0  0  0  0  0
  -20.4767  -26.9811   17.7424 O   0  0  0  0  0  0  0  0  0  0  0  0
  -24.1513  -25.0682   15.4275 O   0  0  0  0  0  0  0  0  0  0  0  0
  -23.4679  -23.8740   22.4625 O   0  0  0  0  0  0  0  0  0  0  0  0
  -24.0060  -11.8205   20.1938 O   0  0  0  0  0  0  0  0  0  0  0  0
  -28.5882  -27.0299   20.2042 O   0  0  0  0  0  0  0  0  0  1  0  0
  -22.2689   -6.9896   22.2059 F   0  0  0  0  0  0  0  0  0  0  0  0
  -21.8167  -10.5337   19.1011 F   0  0  0  0  0  0  0  0  0  0  0  0
  -27.0850  -26.8582   23.6979 Cl  0  0  0  0  0  0  0  0  0  0  0  0
  -30.3398  -23.0341   21.6245 Cl  0  0  0  0  0  0  0  0  0  0  0  0
  -27.8037  -21.1587   21.2219 Cl  0  0  0  0  0  0  0  0  0  0  0  0
  1  2  1  0  0  0  0
  1  5  2  0  0  0  0
  2  6  2  0  0  0  0
  3  8  2  0  0  0  0
  3 16  1  0  0  0  0
  4  9  1  0  0  0  0
  4 16  2  0  0  0  0
  5 18  1  0  0  0  0
  6 20  1  0  0  0  0
  7 10  2  0  0  0  0
  7 19  1  0  0  0  0
  8 24  1  0  0  0  0
  9 24  2  0  0  0  0
 10 25  1  0  0  0  0
 11 12  2  0  0  0  0
 11 26  1  0  0  0  0
 12 27  1  0  0  0  0
 13 21  1  0  0  0  0
 13 25  2  0  0  0  0
 14 23  1  0  0  0  0
 14 29  2  0  0  0  0
 15 27  2  0  0  0  0
 15 28  1  0  0  0  0
 16 32  1  0  0  0  0
 17 32  1  0  0  0  0
 17 33  2  0  0  0  0
 17 34  1  0  0  0  0
 18 20  2  0  0  0  0
 18 39  1  0  0  0  0
 19 21  2  0  0  0  0
 19 40  1  0  0  0  0
 20 51  1  0  0  0  0
 21 41  1  0  0  0  0
 22 29  1  0  0  0  0
 22 30  2  0  0  0  0
 22 66  1  0  0  0  0
 23 31  2  0  0  0  0
 23 71  1  0  0  0  0
 24 80  1  0  0  0  0
 25 81  1  0  0  0  0
 26 28  2  0  0  0  0
 26 80  1  0  0  0  0
 27 82  1  0  0  0  0
 28 83  1  0  0  0  0
 29 84  1  0  0  0  0
 30 31  1  0  0  0  0
 30 85  1  0  0  0  0
 31 86  1  0  0  0  0
 32 64  2  0  0  0  0
 33 65  1  0  0  0  0
 33 69  1  0  0  0  0
 34 70  1  0  0  0  0
 34 75  2  0  0  0  0
 35 52  1  0  0  0  0
 35 72  1  0  0  0  0
 35 76  2  0  0  0  0
 36 61  1  0  0  0  0
 36 67  1  0  0  0  0
 36 77  2  0  0  0  0
 37 62  1  0  0  0  0
 37 73  1  0  0  0  0
 37 78  2  0  0  0  0
 38 68  1  0  0  0  0
 38 71  1  0  0  0  0
 38 79  2  0  0  0  0
 39 42  1  0  0  0  0
 40 52  1  0  0  0  0
 41 67  1  0  0  0  0
 42 45  1  0  0  0  0
 43 46  1  0  0  0  0
 43 49  1  0  0  0  0
 44 47  1  0  0  0  0
 44 48  1  0  0  0  0
 45 51  1  0  0  0  0
 46 53  1  0  0  0  0
 47 54  1  0  0  0  0
 48 66  1  0  0  0  0
 49 68  1  0  0  0  0
 50 53  1  0  0  0  0
 50 68  1  0  0  0  0
 51 72  1  0  0  0  0
 52 67  1  0  0  0  0
 53 65  1  0  0  0  0
 54 60  1  0  0  0  0
 54 66  1  0  0  0  0
 55 62  1  0  0  0  0
 56 63  1  0  0  0  0
 57 63  1  0  0  0  0
 58 63  1  0  0  0  0
 59 74  1  0  0  0  0
 60 81  1  0  0  0  0
 61 63  1  0  0  0  0
 61 73  1  0  0  0  0
 62 74  1  0  0  0  0
 64 65  1  0  0  0  0
M  CHG  1  74   1
M  ISO  4  38 100  60 101  71 100  81 101
M  END
> <Batch ID>
0025

> <Smiles>
CNC(C)C(=O)NC(C(=O)N1Cc2cc([101O:1][101CH2:1]C3CCCN3c3c(Cl)cc([100NH:0][100C:0](=O)N4CCCC(n5nc(-c6ccc(Oc7ccc(F)cc7F)cc6)c(C(N)=O)c5N)C4)c(Cl)c3Cl)ccc2CC1C(=O)NC1CCCc2ccccc21)C(C)(C)C

> <Shape>
0.203

> <Color>
0.083

> <Negative vol penalty>
0.000

$$$$

  -OEChem-04042321223D

 88 97  0     1  0  0  0  0  0999 V2000
  -29.7904  -12.3119   19.2534 C   0  0  0  0  0  0  0  0  0  0  0  0
  -28.5717  -12.0495   18.6359 C   0  0  0  0  0  0  0  0  0  0  0  0
  -25.6372  -28.9332   21.2339 C   0  0  0  0  0  0  0  0  0  0  0  0
  -24.8858  -27.7238   19.2821 C   0  0  0  0  0  0  0  0  0  0  0  0
  -29.8271  -13.0516   20.4346 C   0  0  0  0  0  0  0  0  0  0  0  0
  -27.3888  -12.5258   19.2000 C   0  0  0  0  0  0  0  0  0  0  0  0
  -20.8983  -14.9328   17.3570 C   0  0  0  0  0  0  0  0  0  0  0  0
  -14.3119  -19.8532   18.9984 C   0  0  0  0  0  0  0  0  0  0  0  0
  -14.4486  -21.2401   18.9423 C   0  0  0  0  0  0  0  0  0  0  0  0
  -26.8912  -28.3323   21.1236 C   0  0  0  0  0  0  0  0  0  0  0  0
  -26.1398  -27.1229   19.1717 C   0  0  0  0  0  0  0  0  0  0  0  0
  -19.5494  -14.7105   17.6306 C   0  0  0  0  0  0  0  0  0  0  0  0
  -27.8272  -24.5904   20.6447 C   0  0  0  0  0  0  0  0  0  0  0  0
  -27.8689  -23.2179   20.3996 C   0  0  0  0  0  0  0  0  0  0  0  0
  -19.7414  -16.0448   19.6310 C   0  0  0  0  0  0  0  0  0  0  0  0
  -16.3794  -21.1083   20.3886 C   0  0  0  0  0  0  0  0  0  0  0  0
  -29.0712  -23.6217   18.3432 C   0  0  0  0  0  0  0  0  0  0  0  0
  -24.6345  -28.6289   20.3132 C   0  0  0  0  0  0  0  0  0  0  0  0
  -22.9201  -30.4574   19.8391 C   0  0  0  0  0  0  0  0  0  0  0  0
  -28.6449  -13.5455   21.0083 C   0  0  0  0  0  0  0  0  0  0  0  0
  -21.6828  -15.7051   18.2256 C   0  0  0  0  0  0  0  0  0  0  0  0
  -27.4095  -13.2717   20.3908 C   0  0  0  0  0  0  0  0  0  0  0  0
  -21.0994  -16.2776   19.3649 C   0  0  0  0  0  0  0  0  0  0  0  0
  -15.2088  -19.0937   19.7497 C   0  0  0  0  0  0  0  0  0  0  0  0
  -15.4824  -21.8677   19.6374 C   0  0  0  0  0  0  0  0  0  0  0  0
  -27.1425  -27.4272   20.0924 C   0  0  0  0  0  0  0  0  0  0  0  0
  -18.9715  -15.2641   18.7693 C   0  0  0  0  0  0  0  0  0  0  0  0
  -28.4075  -25.4786   19.7391 C   0  0  0  0  0  0  0  0  0  0  0  0
  -28.4908  -22.7335   19.2488 C   0  0  0  0  0  0  0  0  0  0  0  0
  -16.2426  -19.7212   20.4447 C   0  0  0  0  0  0  0  0  0  0  0  0
  -29.0295  -24.9942   18.5883 C   0  0  0  0  0  0  0  0  0  0  0  0
  -23.3388  -29.2488   20.4271 C   0  0  0  0  0  0  0  0  0  0  0  0
  -21.6173  -30.6050   20.2482 C   0  0  0  0  0  0  0  0  0  0  0  0
  -15.2732  -15.5048   18.5430 C   0  0  0  0  0  0  0  0  0  0  0  0
  -14.4364  -14.5162   18.8706 C   0  0  0  0  0  0  0  0  0  0  0  0
  -23.6441  -31.3655   18.9983 C   0  0  0  0  0  0  0  0  0  0  0  0
  -24.2543  -15.1568   20.0119 C   0  0  0  0  0  0  0  0  0  0  0  0
  -24.0895  -18.3532   20.5393 C   0  0  0  0  0  0  0  0  0  0  0  0
  -22.2968  -21.4208   21.1666 C   0  0  0  0  0  0  0  0  0  0  0  0
  -17.4238  -26.7025   21.9905 C   0  0  0  0  0  0  0  0  0  0  0  0
  -28.7304  -14.3000   22.3114 C   0  0  0  0  0  0  0  0  0  0  0  0
  -23.1299  -15.9577   17.9023 C   0  0  0  0  0  0  0  0  0  0  0  0
  -21.8933  -17.1312   20.3186 C   0  0  0  0  0  0  0  0  0  0  0  0
  -27.4656  -15.0876   22.6433 C   0  0  0  0  0  0  0  0  0  0  0  0
  -18.6709  -29.4747   23.8443 C   0  0  0  0  0  0  0  0  0  0  0  0
  -26.2267  -14.2249   22.4250 C   0  0  0  0  0  0  0  0  0  0  0  0
  -19.9708  -29.8402   23.1257 C   0  0  0  0  0  0  0  0  0  0  0  0
  -18.4417  -27.9650   23.8631 C   0  0  0  0  0  0  0  0  0  0  0  0
  -19.7929  -27.6798   21.8219 C   0  0  0  0  0  0  0  0  0  0  0  0
  -16.5312  -17.0289   17.9487 C   0  0  0  0  0  0  0  0  0  0  0  0
  -26.1071  -13.7924   20.9587 C   0  0  1  0  0  0  0  0  0  0  0  0
  -16.7111  -15.4961   18.0672 C   0  0  1  0  0  0  0  0  0  1  0  0
  -23.9588  -16.3343   19.1265 C   0  0  1  0  0  0  0  0  0  0  0  0
  -20.0395  -29.1953   21.7283 C   0  0  2  0  0  0  0  0  0  0  0  0
  -13.0304  -14.7270   19.3255 C   0  0  0  0  0  0  0  0  0  0  0  0
  -23.1272  -23.7774   21.3994 C   0  0  0  0  0  0  0  0  0  0  0  0
  -24.1316  -17.7359   23.5271 C   0  0  0  0  0  0  0  0  0  0  0  0
  -23.3214  -20.0669   23.9493 C   0  0  0  0  0  0  0  0  0  0  0  0
  -25.5283  -19.6958   22.8471 C   0  0  0  0  0  0  0  0  0  0  0  0
  -20.4826  -22.3932   19.0401 C   0  0  0  0  0  0  0  0  0  0  0  0
  -15.0589  -17.6020   19.8079 C   0  0  0  0  0  0  0  0  0  0  0  0
  -16.6560  -23.9775   20.2674 C   0  0  0  0  0  0  0  0  0  0  0  0
  -16.5359  -25.4743   20.0252 C   0  0  0  0  0  0  0  0  0  0  0  0
  -23.4044  -19.2353   21.5551 C   0  0  1  0  0  0  0  0  0  0  0  0
  -22.5012  -22.7523   20.4667 C   0  0  2  0  0  0  0  0  0  0  0  0
  -24.0817  -19.1658   22.9529 C   0  0  0  0  0  0  0  0  0  0  0  0
  -22.3798  -28.6698   21.1544 N   0  0  0  0  0  0  0  0  0  0  0  0
  -21.3455  -29.5183   21.0263 N   0  0  0  0  0  0  0  0  0  0  0  0
  -23.3059  -17.3439   19.9623 N   0  0  0  0  0  0  0  0  0  0  0  0
  -18.5180  -27.4158   22.5072 N   0  0  0  0  0  0  0  0  0  0  0  0
  -20.6891  -31.5571   20.0147 N   0  0  0  0  0  0  0  0  0  0  0  0
  -24.9737  -31.0617   18.6757 N   0  0  0  0  0  0  0  0  0  0  0  0
  -15.6204  -23.2703   19.5800 N   0  0  0  0  0  0  0  0  0  0  0  0
  -25.6012  -14.8810   20.1503 N   0  0  0  0  0  0  0  0  0  0  0  0
  -23.3674  -20.5733   20.9748 N   0  0  0  0  0  0  0  0  0  0  0  0
  -17.5764  -26.2215   20.6959 N   0  0  0  0  0  0  0  0  0  0  0  0
  -15.1569  -16.9554   18.4760 N   0  3  2  0  0  0  0  0  0  0  0  0
  -21.1974  -23.2897   19.9848 N   0  3  0  0  0  0  0  0  0  0  0  0
  -23.1324  -32.4236   18.5599 O   0  0  0  0  0  0  0  0  0  0  0  0
  -23.3289  -14.5449   20.5322 O   0  0  0  0  0  0  0  0  0  0  0  0
  -25.2742  -18.5570   20.2626 O   0  0  0  0  0  0  0  0  0  0  0  0
  -21.2898  -21.1601   21.8213 O   0  0  0  0  0  0  0  0  0  0  0  0
  -16.3855  -26.5132   22.6333 O   0  0  0  0  0  0  0  0  0  0  0  0
  -28.3660  -26.8409   19.9843 O   0  0  0  0  0  0  0  0  0  0  0  0
  -17.6552  -15.0481   19.0390 O   0  0  0  0  0  0  0  0  0  1  0  0
  -28.5321  -21.4154   19.0143 F   0  0  0  0  0  0  0  0  0  0  0  0
  -17.1087  -19.0000   21.1702 F   0  0  0  0  0  0  0  0  0  0  0  0
  -29.5897  -25.8425   17.7152 F   0  0  0  0  0  0  0  0  0  0  0  0
  1  2  1  0  0  0  0
  1  5  2  0  0  0  0
  2  6  2  0  0  0  0
  3 10  2  0  0  0  0
  3 18  1  0  0  0  0
  4 11  1  0  0  0  0
  4 18  2  0  0  0  0
  5 20  1  0  0  0  0
  6 22  1  0  0  0  0
  7 12  2  0  0  0  0
  7 21  1  0  0  0  0
  8  9  2  0  0  0  0
  8 24  1  0  0  0  0
  9 25  1  0  0  0  0
 10 26  1  0  0  0  0
 11 26  2  0  0  0  0
 12 27  1  0  0  0  0
 13 14  2  0  0  0  0
 13 28  1  0  0  0  0
 14 29  1  0  0  0  0
 15 23  1  0  0  0  0
 15 27  2  0  0  0  0
 16 25  2  0  0  0  0
 16 30  1  0  0  0  0
 17 29  2  0  0  0  0
 17 31  1  0  0  0  0
 18 32  1  0  0  0  0
 19 32  1  0  0  0  0
 19 33  2  0  0  0  0
 19 36  1  0  0  0  0
 20 22  2  0  0  0  0
 20 41  1  0  0  0  0
 21 23  2  0  0  0  0
 21 42  1  0  0  0  0
 22 51  1  0  0  0  0
 23 43  1  0  0  0  0
 24 30  2  0  0  0  0
 24 61  1  0  0  0  0
 25 73  1  0  0  0  0
 26 84  1  0  0  0  0
 27 85  1  0  0  0  0
 28 31  2  0  0  0  0
 28 84  1  0  0  0  0
 29 86  1  0  0  0  0
 30 87  1  0  0  0  0
 31 88  1  0  0  0  0
 32 67  2  0  0  0  0
 33 68  1  0  0  0  0
 33 71  1  0  0  0  0
 34 35  2  0  0  0  0
 34 52  1  0  0  0  0
 34 77  1  0  0  0  0
 35 55  1  0  0  0  0
 36 72  1  0  0  0  0
 36 79  2  0  0  0  0
 37 53  1  0  0  0  0
 37 74  1  0  0  0  0
 37 80  2  0  0  0  0
 38 64  1  0  0  0  0
 38 69  1  0  0  0  0
 38 81  2  0  0  0  0
 39 65  1  0  0  0  0
 39 75  1  0  0  0  0
 39 82  2  0  0  0  0
 40 70  1  0  0  0  0
 40 76  1  0  0  0  0
 40 83  2  0  0  0  0
 41 44  1  0  0  0  0
 42 53  1  0  0  0  0
 43 69  1  0  0  0  0
 44 46  1  0  0  0  0
 45 47  1  0  0  0  0
 45 48  1  0  0  0  0
 46 51  1  0  0  0  0
 47 54  1  0  0  0  0
 48 70  1  0  0  0  0
 49 54  1  0  0  0  0
 49 70  1  0  0  0  0
 50 52  1  0  0  0  0
 50 77  1  0  0  0  0
 51 74  1  0  0  0  0
 52 85  1  0  0  0  0
 53 69  1  0  0  0  0
 54 68  1  0  0  0  0
 56 65  1  0  0  0  0
 57 66  1  0  0  0  0
 58 66  1  0  0  0  0
 59 66  1  0  0  0  0
 60 78  1  0  0  0  0
 61 77  1  0  0  0  0
 62 63  1  0  0  0  0
 62 73  1  0  0  0  0
 63 76  1  0  0  0  0
 64 66  1  0  0  0  0
 64 75  1  0  0  0  0
 65 78  1  0  0  0  0
 67 68  1  0  0  0  0
M  CHG  2  77   1  78   1
M  ISO  4  40 100  52 101  76 100  85 101
M  END
> <Batch ID>
0025

> <Smiles>
CC=C1N(Cc2ccc(NCC[100NH:0][100C:0](=O)N3CCCC(n4nc(-c5ccc(Oc6ccc(F)cc6F)cc5)c(C(N)=O)c4N)C3)cc2F)C[101CH:1]1[101O:1]c1ccc2c(c1)CN(C(=O)C(NC(=O)C(C)NC)C(C)(C)C)C(C(=O)NC1CCCc3ccccc31)C2

> <Shape>
0.199

> <Color>
0.080

> <Negative vol penalty>
0.000

$$$$

  -OEChem-04042321223D

 96105  0     1  0  0  0  0  0999 V2000
  -22.4289  -12.8866   22.0504 C   0  0  0  0  0  0  0  0  0  0  0  0
  -23.0454  -13.8736   21.2881 C   0  0  0  0  0  0  0  0  0  0  0  0
  -30.6304  -20.2116   18.1852 C   0  0  0  0  0  0  0  0  0  0  0  0
  -28.6048  -20.2330   19.5019 C   0  0  0  0  0  0  0  0  0  0  0  0
  -21.0390  -12.8558   22.1566 C   0  0  0  0  0  0  0  0  0  0  0  0
  -22.2722  -14.8298   20.6305 C   0  0  0  0  0  0  0  0  0  0  0  0
  -23.1380  -21.8555   21.9648 C   0  0  0  0  0  0  0  0  0  0  0  0
  -30.9298  -18.9371   18.6666 C   0  0  0  0  0  0  0  0  0  0  0  0
  -28.9042  -18.9585   19.9832 C   0  0  0  0  0  0  0  0  0  0  0  0
  -23.3889  -23.2271   22.0097 C   0  0  0  0  0  0  0  0  0  0  0  0
  -28.6890  -15.7694   18.8862 C   0  0  0  0  0  0  0  0  0  0  0  0
  -27.6574  -14.8310   18.9169 C   0  0  0  0  0  0  0  0  0  0  0  0
  -23.5941  -29.8204   20.2248 C   0  0  0  0  0  0  0  0  0  0  0  0
  -21.5527  -23.6237   20.4870 C   0  0  0  0  0  0  0  0  0  0  0  0
  -25.5725  -29.2613   22.1582 C   0  0  0  0  0  0  0  0  0  0  0  0
  -27.9178  -14.6231   21.3099 C   0  0  0  0  0  0  0  0  0  0  0  0
  -29.4679  -20.8596   18.6029 C   0  0  0  0  0  0  0  0  0  0  0  0
  -24.7964  -29.2264   19.8642 C   0  0  0  0  0  0  0  0  0  0  0  0
  -28.4136  -22.4976   16.9559 C   0  0  0  0  0  0  0  0  0  0  0  0
  -20.2489  -13.8179   21.5078 C   0  0  0  0  0  0  0  0  0  0  0  0
  -22.0825  -21.3637   21.1919 C   0  0  0  0  0  0  0  0  0  0  0  0
  -20.8704  -14.8110   20.7269 C   0  0  0  0  0  0  0  0  0  0  0  0
  -21.2887  -22.2520   20.4479 C   0  0  0  0  0  0  0  0  0  0  0  0
  -23.3822  -30.1370   21.5675 C   0  0  0  0  0  0  0  0  0  0  0  0
  -25.7787  -28.9528   20.8196 C   0  0  0  0  0  0  0  0  0  0  0  0
  -24.3641  -29.8580   22.5273 C   0  0  0  0  0  0  0  0  0  0  0  0
  -30.0667  -18.3106   19.5656 C   0  0  0  0  0  0  0  0  0  0  0  0
  -22.5984  -24.1089   21.2724 C   0  0  0  0  0  0  0  0  0  0  0  0
  -29.3350  -16.1345   20.0673 C   0  0  0  0  0  0  0  0  0  0  0  0
  -27.2718  -14.2579   20.1287 C   0  0  0  0  0  0  0  0  0  0  0  0
  -28.9494  -15.5614   21.2791 C   0  0  0  0  0  0  0  0  0  0  0  0
  -29.1583  -22.1763   18.1065 C   0  0  0  0  0  0  0  0  0  0  0  0
  -28.4064  -23.8707   16.9240 C   0  0  0  0  0  0  0  0  0  0  0  0
  -25.2885  -28.8041   18.5577 C   0  0  0  0  0  0  0  0  0  0  0  0
  -24.6779  -28.9536   17.3782 C   0  0  0  0  0  0  0  0  0  0  0  0
  -27.7845  -21.6323   16.0013 C   0  0  0  0  0  0  0  0  0  0  0  0
  -20.1410  -18.3674   20.0392 C   0  0  0  0  0  0  0  0  0  0  0  0
  -18.1029  -20.5952   20.5812 C   0  0  0  0  0  0  0  0  0  0  0  0
  -16.1579  -23.1680   21.6923 C   0  0  0  0  0  0  0  0  0  0  0  0
  -28.1631  -28.2312   20.8379 C   0  0  0  0  0  0  0  0  0  0  0  0
  -18.7479  -13.7157   21.6135 C   0  0  0  0  0  0  0  0  0  0  0  0
  -21.8142  -19.8886   21.0653 C   0  0  0  0  0  0  0  0  0  0  0  0
  -20.1859  -21.6747   19.6033 C   0  0  0  0  0  0  0  0  0  0  0  0
  -26.6366  -28.1688   18.7730 C   0  0  0  0  0  0  0  0  0  0  0  0
  -18.0194  -14.9888   21.1906 C   0  0  0  0  0  0  0  0  0  0  0  0
  -31.1994  -27.4312   18.9216 C   0  0  0  0  0  0  0  0  0  0  0  0
  -18.5847  -15.5155   19.8754 C   0  0  0  0  0  0  0  0  0  0  0  0
  -30.9240  -26.0019   18.4497 C   0  0  0  0  0  0  0  0  0  0  0  0
  -30.5170  -27.7371   20.2532 C   0  0  0  0  0  0  0  0  0  0  0  0
  -28.8076  -26.0151   19.8182 C   0  0  0  0  0  0  0  0  0  0  0  0
  -20.0672  -15.8804   20.0189 C   0  0  1  0  0  0  0  0  0  0  0  0
  -20.3167  -19.5564   20.9374 C   0  0  1  0  0  0  0  0  0  0  0  0
  -29.4136  -25.6971   18.4449 C   0  0  2  0  0  0  0  0  0  0  0  0
  -25.2476  -28.4931   16.0780 C   0  0  0  0  0  0  0  0  0  0  0  0
  -20.2483  -31.6734   24.0207 C   0  0  0  0  0  0  0  0  0  0  0  0
  -13.7580  -23.8574   21.9422 C   0  0  0  0  0  0  0  0  0  0  0  0
  -23.3049  -29.5649   26.6520 C   0  0  0  0  0  0  0  0  0  0  0  0
  -17.9578  -21.1613   17.5875 C   0  0  0  0  0  0  0  0  0  0  0  0
  -16.0119  -22.6705   18.0393 C   0  0  0  0  0  0  0  0  0  0  0  0
  -15.8546  -20.2400   18.5785 C   0  0  0  0  0  0  0  0  0  0  0  0
  -16.4063  -23.3876   24.6332 C   0  0  0  0  0  0  0  0  0  0  0  0
  -26.6594  -32.2978   26.7759 C   0  0  0  0  0  0  0  0  0  0  0  0
  -27.9196  -30.6881   28.1977 C   0  0  0  0  0  0  0  0  0  0  0  0
  -22.0881  -30.7761   21.9575 C   0  0  0  0  0  0  0  0  0  0  0  0
  -21.9897  -27.6121   21.9172 C   0  0  0  0  0  0  0  0  0  0  0  0
  -25.1076  -29.9076   24.9085 C   0  0  0  0  0  0  0  0  0  0  0  0
  -19.8915  -30.5244   23.1031 C   0  0  0  0  0  0  0  0  0  0  0  0
  -20.8526  -28.6181   21.8213 C   0  0  0  0  0  0  0  0  0  0  0  0
  -25.6175  -30.1321   27.4285 C   0  0  0  0  0  0  0  0  0  0  0  0
  -21.7340  -26.3225   21.1470 C   0  0  0  0  0  0  0  0  0  1  0  0
  -17.2976  -21.7377   20.0161 C   0  0  1  0  0  0  0  0  0  0  0  0
  -14.9508  -23.1939   22.6126 C   0  0  2  0  0  0  0  0  0  0  0  0
  -24.5945  -30.3151   26.3002 C   0  0  2  0  0  0  0  0  0  0  0  0
  -16.8055  -21.4567   18.5682 C   0  0  0  0  0  0  0  0  0  0  0  0
  -29.5929  -23.2581   18.7583 N   0  0  0  0  0  0  0  0  0  0  0  0
  -29.1197  -24.2727   18.0147 N   0  0  0  0  0  0  0  0  0  0  0  0
  -26.9130  -28.3494   20.2205 N   0  0  0  0  0  0  0  0  0  0  0  0
  -19.4834  -20.6181   20.3480 N   0  0  0  0  0  0  0  0  0  0  0  0
  -29.0953  -27.4015   20.1978 N   0  0  0  0  0  0  0  0  0  0  0  0
  -27.8595  -24.7614   16.0695 N   0  0  0  0  0  0  0  0  0  0  0  0
  -27.8898  -20.2468   16.1844 N   0  0  0  0  0  0  0  0  0  0  0  0
  -24.1443  -30.1733   23.8882 N   0  0  0  0  0  0  0  0  0  0  0  0
  -20.2115  -17.1525   20.6938 N   0  0  0  0  0  0  0  0  0  0  0  0
  -16.2260  -21.9940   20.9723 N   0  0  0  0  0  0  0  0  0  0  0  0
  -15.2668  -23.9453   23.8602 N   0  3  0  0  0  0  0  0  0  0  0  0
  -26.8798  -30.8434   27.1145 N   0  3  0  0  0  0  0  0  0  0  0  0
  -21.1563  -29.8430   22.6460 N   0  3  1  0  0  0  0  0  0  0  0  0
  -27.1618  -22.0745   15.0062 O   0  0  0  0  0  0  0  0  0  0  0  0
  -19.9536  -18.5383   18.8403 O   0  0  0  0  0  0  0  0  0  0  0  0
  -17.5256  -19.7023   21.2079 O   0  0  0  0  0  0  0  0  0  0  0  0
  -16.9580  -24.0978   21.6168 O   0  0  0  0  0  0  0  0  0  0  0  0
  -28.4739  -28.8707   21.8494 O   0  0  0  0  0  0  0  0  0  0  0  0
  -30.3585  -17.0669   20.0353 O   0  0  0  0  0  0  0  0  0  0  0  0
  -22.8477  -25.4565   21.3248 O   0  0  0  0  0  0  0  0  0  1  0  0
  -26.2802  -13.3579   20.1583 F   0  0  0  0  0  0  0  0  0  0  0  0
  -29.5656  -15.9092   22.4172 F   0  0  0  0  0  0  0  0  0  0  0  0
  1  2  1  0  0  0  0
  1  5  2  0  0  0  0
  2  6  2  0  0  0  0
  3  8  2  0  0  0  0
  3 17  1  0  0  0  0
  4  9  1  0  0  0  0
  4 17  2  0  0  0  0
  5 20  1  0  0  0  0
  6 22  1  0  0  0  0
  7 10  2  0  0  0  0
  7 21  1  0  0  0  0
  8 27  1  0  0  0  0
  9 27  2  0  0  0  0
 10 28  1  0  0  0  0
 11 12  2  0  0  0  0
 11 29  1  0  0  0  0
 12 30  1  0  0  0  0
 13 18  1  0  0  0  0
 13 24  2  0  0  0  0
 14 23  1  0  0  0  0
 14 28  2  0  0  0  0
 15 25  1  0  0  0  0
 15 26  2  0  0  0  0
 16 30  2  0  0  0  0
 16 31  1  0  0  0  0
 17 32  1  0  0  0  0
 18 25  2  0  0  0  0
 18 34  1  0  0  0  0
 19 32  1  0  0  0  0
 19 33  2  0  0  0  0
 19 36  1  0  0  0  0
 20 22  2  0  0  0  0
 20 41  1  0  0  0  0
 21 23  2  0  0  0  0
 21 42  1  0  0  0  0
 22 51  1  0  0  0  0
 23 43  1  0  0  0  0
 24 26  1  0  0  0  0
 24 64  1  0  0  0  0
 25 77  1  0  0  0  0
 26 82  1  0  0  0  0
 27 93  1  0  0  0  0
 28 94  1  0  0  0  0
 29 31  2  0  0  0  0
 29 93  1  0  0  0  0
 30 95  1  0  0  0  0
 31 96  1  0  0  0  0
 32 75  2  0  0  0  0
 33 76  1  0  0  0  0
 33 80  1  0  0  0  0
 34 35  2  0  0  0  0
 34 44  1  0  0  0  0
 35 54  1  0  0  0  0
 36 81  1  0  0  0  0
 36 88  2  0  0  0  0
 37 52  1  0  0  0  0
 37 83  1  0  0  0  0
 37 89  2  0  0  0  0
 38 71  1  0  0  0  0
 38 78  1  0  0  0  0
 38 90  2  0  0  0  0
 39 72  1  0  0  0  0
 39 84  1  0  0  0  0
 39 91  2  0  0  0  0
 40 77  1  0  0  0  0
 40 79  1  0  0  0  0
 40 92  2  0  0  0  0
 41 45  1  0  0  0  0
 42 52  1  0  0  0  0
 43 78  1  0  0  0  0
 44 77  1  0  0  0  0
 45 47  1  0  0  0  0
 46 48  1  0  0  0  0
 46 49  1  0  0  0  0
 47 51  1  0  0  0  0
 48 53  1  0  0  0  0
 49 79  1  0  0  0  0
 50 53  1  0  0  0  0
 50 79  1  0  0  0  0
 51 83  1  0  0  0  0
 52 78  1  0  0  0  0
 53 76  1  0  0  0  0
 55 67  1  0  0  0  0
 56 72  1  0  0  0  0
 57 73  1  0  0  0  0
 58 74  1  0  0  0  0
 59 74  1  0  0  0  0
 60 74  1  0  0  0  0
 61 85  1  0  0  0  0
 62 86  1  0  0  0  0
 63 86  1  0  0  0  0
 64 87  1  0  0  0  0
 65 68  1  0  0  0  0
 65 70  1  0  0  0  0
 66 73  1  0  0  0  0
 66 82  1  0  0  0  0
 67 87  1  0  0  0  0
 68 87  1  0  0  0  0
 69 73  1  0  0  0  0
 69 86  1  0  0  0  0
 70 94  1  0  0  0  0
 71 74  1  0  0  0  0
 71 84  1  0  0  0  0
 72 85  1  0  0  0  0
 75 76  1  0  0  0  0
M  CHG  3  85   1  86   1  87   1
M  ISO  4  40 100  70 101  77 100  94 101
M  END
> <Batch ID>
0025

> <Smiles>
CC=C1C[100N:0]([100C:0](=O)N2CCCC(n3nc(-c4ccc(Oc5ccc(F)cc5F)cc4)c(C(N)=O)c3N)C2)c2cc(NCC(C)CN(C)C)c(CN(CC)CC[101CH2:1][101O:1]c3ccc4c(c3)CN(C(=O)C(NC(=O)C(C)NC)C(C)(C)C)C(C(=O)NC3CCCc5ccccc53)C4)cc21

> <Shape>
0.229

> <Color>
0.057

> <Negative vol penalty>
0.000

$$$$

  -OEChem-04042321223D

 89 97  0     1  0  0  0  0  0999 V2000
  -18.5713  -32.7558   24.8619 C   0  0  0  0  0  0  0  0  0  0  0  0
  -19.8758  -32.9405   24.4151 C   0  0  0  0  0  0  0  0  0  0  0  0
  -26.2529  -12.4709   22.2390 C   0  0  0  0  0  0  0  0  0  0  0  0
  -23.8852  -12.2286   21.8239 C   0  0  0  0  0  0  0  0  0  0  0  0
  -18.0795  -31.4664   25.0601 C   0  0  0  0  0  0  0  0  0  0  0  0
  -20.6897  -31.8356   24.1674 C   0  0  0  0  0  0  0  0  0  0  0  0
  -25.9732  -29.6492   19.8523 C   0  0  0  0  0  0  0  0  0  0  0  0
  -28.8936  -16.1153   21.2793 C   0  0  0  0  0  0  0  0  0  0  0  0
  -26.1476  -11.6179   23.3376 C   0  0  0  0  0  0  0  0  0  0  0  0
  -23.7799  -11.3755   22.9225 C   0  0  0  0  0  0  0  0  0  0  0  0
  -27.2478  -29.0872   19.9097 C   0  0  0  0  0  0  0  0  0  0  0  0
  -24.4414   -8.1385   23.6328 C   0  0  0  0  0  0  0  0  0  0  0  0
  -23.6977   -6.9691   23.4745 C   0  0  0  0  0  0  0  0  0  0  0  0
  -29.0392  -15.7449   19.9424 C   0  0  0  0  0  0  0  0  0  0  0  0
  -26.2654  -26.9048   20.2114 C   0  0  0  0  0  0  0  0  0  0  0  0
  -28.2919  -17.9368   19.2537 C   0  0  0  0  0  0  0  0  0  0  0  0
  -22.2095   -7.6762   25.2415 C   0  0  0  0  0  0  0  0  0  0  0  0
  -25.1217  -12.7763   21.4822 C   0  0  0  0  0  0  0  0  0  0  0  0
  -25.5002  -13.2975   19.0138 C   0  0  0  0  0  0  0  0  0  0  0  0
  -18.8846  -30.3450   24.8054 C   0  0  0  0  0  0  0  0  0  0  0  0
  -24.8334  -28.8433   19.9852 C   0  0  0  0  0  0  0  0  0  0  0  0
  -20.2086  -30.5300   24.3637 C   0  0  0  0  0  0  0  0  0  0  0  0
  -24.9774  -27.4587   20.1528 C   0  0  0  0  0  0  0  0  0  0  0  0
  -28.4470  -17.3964   21.6034 C   0  0  0  0  0  0  0  0  0  0  0  0
  -28.1462  -18.3072   20.5906 C   0  0  0  0  0  0  0  0  0  0  0  0
  -24.9111  -11.0702   23.6793 C   0  0  0  0  0  0  0  0  0  0  0  0
  -27.3941  -27.7152   20.0922 C   0  0  0  0  0  0  0  0  0  0  0  0
  -24.0692   -9.0767   24.5956 C   0  0  0  0  0  0  0  0  0  0  0  0
  -22.5818   -6.7380   24.2788 C   0  0  0  0  0  0  0  0  0  0  0  0
  -22.9532   -8.8456   25.3999 C   0  0  0  0  0  0  0  0  0  0  0  0
  -28.7384  -16.6556   18.9297 C   0  0  0  0  0  0  0  0  0  0  0  0
  -25.2297  -13.6578   20.3476 C   0  0  0  0  0  0  0  0  0  0  0  0
  -25.4975  -14.4882   18.3292 C   0  0  0  0  0  0  0  0  0  0  0  0
  -25.7330  -12.0023   18.4447 C   0  0  0  0  0  0  0  0  0  0  0  0
  -22.4277  -28.6843   22.0567 C   0  0  0  0  0  0  0  0  0  0  0  0
  -21.2831  -26.4869   19.9630 C   0  0  0  0  0  0  0  0  0  0  0  0
  -31.3772  -26.1096   20.3984 C   0  0  0  0  0  0  0  0  0  0  0  0
  -21.9363  -24.2155   17.5011 C   0  0  0  0  0  0  0  0  0  0  0  0
  -26.4366  -20.1395   20.4867 C   0  0  0  0  0  0  0  0  0  0  0  0
  -18.3243  -28.9718   25.0795 C   0  0  0  0  0  0  0  0  0  0  0  0
  -23.4651  -29.4613   19.8943 C   0  0  0  0  0  0  0  0  0  0  0  0
  -23.7853  -26.5470   20.2804 C   0  0  0  0  0  0  0  0  0  0  0  0
  -19.1292  -27.8458   24.4355 C   0  0  0  0  0  0  0  0  0  0  0  0
  -23.6293  -18.8869   18.4270 C   0  0  0  0  0  0  0  0  0  0  0  0
  -20.6207  -28.0455   24.6852 C   0  0  0  0  0  0  0  0  0  0  0  0
  -23.6970  -17.3763   18.6438 C   0  0  0  0  0  0  0  0  0  0  0  0
  -24.1667  -19.6563   19.6298 C   0  0  0  0  0  0  0  0  0  0  0  0
  -25.6218  -17.7447   20.2379 C   0  0  0  0  0  0  0  0  0  0  0  0
  -21.1141  -29.3560   24.0602 C   0  0  1  0  0  0  0  0  0  0  0  0
  -22.3821  -28.6152   20.5564 C   0  0  1  0  0  0  0  0  0  0  0  0
  -25.1235  -16.9463   19.0239 C   0  0  1  0  0  0  0  0  0  0  0  0
  -28.3004  -17.7655   23.0439 C   0  0  0  0  0  0  0  0  0  0  0  0
  -20.8023  -22.5457   16.0101 C   0  0  0  0  0  0  0  0  0  0  0  0
  -21.0320  -24.5602   22.3156 C   0  0  0  0  0  0  0  0  0  0  0  0
  -20.8214  -22.6864   20.6686 C   0  0  0  0  0  0  0  0  0  0  0  0
  -19.1137  -24.5042   20.7121 C   0  0  0  0  0  0  0  0  0  0  0  0
  -22.7981  -25.6409   15.0549 C   0  0  0  0  0  0  0  0  0  0  0  0
  -30.7226  -27.1009   21.3479 C   0  0  0  0  0  0  0  0  0  0  0  0
  -30.5551  -22.1935   20.9638 C   0  0  0  0  0  0  0  0  0  0  0  0
  -31.4106  -22.8192   19.8577 C   0  0  0  0  0  0  0  0  0  0  0  0
  -29.5573  -21.1840   20.3875 C   0  0  0  0  0  0  0  0  0  0  0  0
  -32.4071  -23.8405   20.3971 C   0  0  0  0  0  0  0  0  0  0  0  0
  -28.6486  -20.5850   21.4564 C   0  0  0  0  0  0  0  0  0  0  0  0
  -29.6867  -27.9812   20.6660 C   0  0  0  0  0  0  0  0  0  1  0  0
  -21.4206  -24.9924   19.8000 C   0  0  1  0  0  0  0  0  0  0  0  0
  -21.2869  -23.9805   16.1493 C   0  0  2  0  0  0  0  0  0  0  0  0
  -20.6196  -24.2030   20.8736 C   0  0  0  0  0  0  0  0  0  0  0  0
  -25.0672  -14.9744   20.5032 N   0  0  0  0  0  0  0  0  0  0  0  0
  -25.2361  -15.4518   19.2584 N   0  0  0  0  0  0  0  0  0  0  0  0
  -22.4686  -27.1997   20.1914 N   0  0  0  0  0  0  0  0  0  0  0  0
  -25.5008  -19.1951   20.0173 N   0  0  0  0  0  0  0  0  0  0  0  0
  -25.6934  -14.7945   17.0291 N   0  0  0  0  0  0  0  0  0  0  0  0
  -25.6998  -10.8851   19.2903 N   0  0  0  0  0  0  0  0  0  0  0  0
  -21.2827  -29.2025   22.6311 N   0  0  0  0  0  0  0  0  0  0  0  0
  -31.7606  -24.9510   21.0585 N   0  0  0  0  0  0  0  0  0  0  0  0
  -21.0323  -24.6942   18.4257 N   0  0  0  0  0  0  0  0  0  0  0  0
  -27.6832  -19.6366   20.9054 N   0  0  0  0  0  0  0  0  0  0  0  0
  -22.2579  -24.2570   15.0531 N   0  3  0  0  0  0  0  0  0  0  0  0
  -25.9798  -11.8422   17.2252 O   0  0  0  0  0  0  0  0  0  0  0  0
  -23.4271  -28.2950   22.6493 O   0  0  0  0  0  0  0  0  0  0  0  0
  -20.1658  -27.0036   19.8833 O   0  0  0  0  0  0  0  0  0  0  0  0
  -31.5360  -26.3285   19.2006 O   0  0  0  0  0  0  0  0  0  0  0  0
  -23.1257  -23.9928   17.7165 O   0  0  0  0  0  0  0  0  0  0  0  0
  -26.1621  -21.3423   20.5796 O   0  0  0  0  0  0  0  0  0  0  0  0
  -24.8080  -10.2376   24.7511 O   0  0  0  0  0  0  0  0  0  0  0  0
  -28.6371  -27.1641   20.1492 O   0  0  0  0  0  0  0  0  0  1  0  0
  -21.8668   -5.6157   24.1255 F   0  0  0  0  0  0  0  0  0  0  0  0
  -22.5900   -9.7438   26.3257 F   0  0  0  0  0  0  0  0  0  0  0  0
  -28.9183  -16.1979   17.2804 Cl  0  0  0  0  0  0  0  0  0  0  0  0
  1  2  1  0  0  0  0
  1  5  2  0  0  0  0
  2  6  2  0  0  0  0
  3  9  2  0  0  0  0
  3 18  1  0  0  0  0
  4 10  1  0  0  0  0
  4 18  2  0  0  0  0
  5 20  1  0  0  0  0
  6 22  1  0  0  0  0
  7 11  2  0  0  0  0
  7 21  1  0  0  0  0
  8 14  2  0  0  0  0
  8 24  1  0  0  0  0
  9 26  1  0  0  0  0
 10 26  2  0  0  0  0
 11 27  1  0  0  0  0
 12 13  2  0  0  0  0
 12 28  1  0  0  0  0
 13 29  1  0  0  0  0
 14 31  1  0  0  0  0
 15 23  1  0  0  0  0
 15 27  2  0  0  0  0
 16 25  1  0  0  0  0
 16 31  2  0  0  0  0
 17 29  2  0  0  0  0
 17 30  1  0  0  0  0
 18 32  1  0  0  0  0
 19 32  1  0  0  0  0
 19 33  2  0  0  0  0
 19 34  1  0  0  0  0
 20 22  2  0  0  0  0
 20 40  1  0  0  0  0
 21 23  2  0  0  0  0
 21 41  1  0  0  0  0
 22 49  1  0  0  0  0
 23 42  1  0  0  0  0
 24 25  2  0  0  0  0
 24 52  1  0  0  0  0
 25 77  1  0  0  0  0
 26 85  1  0  0  0  0
 27 86  1  0  0  0  0
 28 30  2  0  0  0  0
 28 85  1  0  0  0  0
 29 87  1  0  0  0  0
 30 88  1  0  0  0  0
 31 89  1  0  0  0  0
 32 68  2  0  0  0  0
 33 69  1  0  0  0  0
 33 72  1  0  0  0  0
 34 73  1  0  0  0  0
 34 79  2  0  0  0  0
 35 50  1  0  0  0  0
 35 74  1  0  0  0  0
 35 80  2  0  0  0  0
 36 65  1  0  0  0  0
 36 70  1  0  0  0  0
 36 81  2  0  0  0  0
 37 58  1  0  0  0  0
 37 75  1  0  0  0  0
 37 82  2  0  0  0  0
 38 66  1  0  0  0  0
 38 76  1  0  0  0  0
 38 83  2  0  0  0  0
 39 71  1  0  0  0  0
 39 77  1  0  0  0  0
 39 84  2  0  0  0  0
 40 43  1  0  0  0  0
 41 50  1  0  0  0  0
 42 70  1  0  0  0  0
 43 45  1  0  0  0  0
 44 46  1  0  0  0  0
 44 47  1  0  0  0  0
 45 49  1  0  0  0  0
 46 51  1  0  0  0  0
 47 71  1  0  0  0  0
 48 51  1  0  0  0  0
 48 71  1  0  0  0  0
 49 74  1  0  0  0  0
 50 70  1  0  0  0  0
 51 69  1  0  0  0  0
 53 66  1  0  0  0  0
 54 67  1  0  0  0  0
 55 67  1  0  0  0  0
 56 67  1  0  0  0  0
 57 78  1  0  0  0  0
 58 64  1  0  0  0  0
 59 60  1  0  0  0  0
 59 61  1  0  0  0  0
 60 62  1  0  0  0  0
 61 63  1  0  0  0  0
 62 75  1  0  0  0  0
 63 77  1  0  0  0  0
 64 86  1  0  0  0  0
 65 67  1  0  0  0  0
 65 76  1  0  0  0  0
 66 78  1  0  0  0  0
 68 69  1  0  0  0  0
M  CHG  1  78   1
M  ISO  4  39 100  64 101  77 100  86 101
M  END
> <Batch ID>
0025

> <Smiles>
CNC(C)C(=O)NC(C(=O)N1Cc2cc([101O:1][101CH2:1]CC(=O)NCCCCC[100N:0](c3cc(Cl)ccc3C)[100C:0](=O)N3CCCC(n4nc(-c5ccc(Oc6ccc(F)cc6F)cc5)c(C(N)=O)c4N)C3)ccc2CC1C(=O)NC1CCCc2ccccc21)C(C)(C)C

> <Shape>
0.219

> <Color>
0.083

> <Negative vol penalty>
0.000

$$$$

  -OEChem-04042321223D

 86 95  0     1  0  0  0  0  0999 V2000
  -21.8427  -36.5390   16.6135 C   0  0  0  0  0  0  0  0  0  0  0  0
  -22.5251  -35.3906   16.2251 C   0  0  0  0  0  0  0  0  0  0  0  0
  -24.3466   -9.5806   21.4708 C   0  0  0  0  0  0  0  0  0  0  0  0
  -24.8863  -10.7464   23.5169 C   0  0  0  0  0  0  0  0  0  0  0  0
  -21.9920  -37.0327   17.9088 C   0  0  0  0  0  0  0  0  0  0  0  0
  -23.3580  -34.7357   17.1317 C   0  0  0  0  0  0  0  0  0  0  0  0
  -25.6456  -28.1758   18.8784 C   0  0  0  0  0  0  0  0  0  0  0  0
  -24.0367   -8.4357   22.2048 C   0  0  0  0  0  0  0  0  0  0  0  0
  -24.5763   -9.6015   24.2510 C   0  0  0  0  0  0  0  0  0  0  0  0
  -26.8280  -27.4698   19.0956 C   0  0  0  0  0  0  0  0  0  0  0  0
  -21.4553   -7.2929   24.0659 C   0  0  0  0  0  0  0  0  0  0  0  0
  -20.2863   -6.6077   23.7353 C   0  0  0  0  0  0  0  0  0  0  0  0
  -26.9472  -28.3689   21.3309 C   0  0  0  0  0  0  0  0  0  0  0  0
  -30.2068  -19.4506   20.5592 C   0  0  0  0  0  0  0  0  0  0  0  0
  -21.5850   -4.6321   23.2375 C   0  0  0  0  0  0  0  0  0  0  0  0
  -24.7715  -10.7359   22.1269 C   0  0  0  0  0  0  0  0  0  0  0  0
  -24.2168  -12.9599   21.0071 C   0  0  0  0  0  0  0  0  0  0  0  0
  -22.8196  -36.3781   18.8346 C   0  0  0  0  0  0  0  0  0  0  0  0
  -25.1100  -28.9936   19.8838 C   0  0  0  0  0  0  0  0  0  0  0  0
  -23.5195  -35.2218   18.4402 C   0  0  0  0  0  0  0  0  0  0  0  0
  -25.7565  -29.0823   21.1249 C   0  0  0  0  0  0  0  0  0  0  0  0
  -29.3347  -21.5365   21.4108 C   0  0  0  0  0  0  0  0  0  0  0  0
  -28.9169  -18.9205   20.5365 C   0  0  0  0  0  0  0  0  0  0  0  0
  -24.1515   -8.4462   23.5949 C   0  0  0  0  0  0  0  0  0  0  0  0
  -27.4806  -27.5686   20.3209 C   0  0  0  0  0  0  0  0  0  0  0  0
  -22.6893   -6.6478   23.9822 C   0  0  0  0  0  0  0  0  0  0  0  0
  -20.3511   -5.2773   23.3211 C   0  0  0  0  0  0  0  0  0  0  0  0
  -30.4158  -20.7586   20.9964 C   0  0  0  0  0  0  0  0  0  0  0  0
  -22.7541   -5.3174   23.5681 C   0  0  0  0  0  0  0  0  0  0  0  0
  -28.0447  -21.0064   21.3881 C   0  0  0  0  0  0  0  0  0  0  0  0
  -27.8358  -19.6984   20.9509 C   0  0  0  0  0  0  0  0  0  0  0  0
  -25.0924  -11.9187   21.3691 C   0  0  0  0  0  0  0  0  0  0  0  0
  -25.0014  -13.8383   20.3006 C   0  0  0  0  0  0  0  0  0  0  0  0
  -22.8191  -13.1188   21.2846 C   0  0  0  0  0  0  0  0  0  0  0  0
  -24.4974  -32.1005   20.1589 C   0  0  0  0  0  0  0  0  0  0  0  0
  -23.1469  -31.1887   22.9637 C   0  0  0  0  0  0  0  0  0  0  0  0
  -22.9812  -28.9013   25.4910 C   0  0  0  0  0  0  0  0  0  0  0  0
  -29.7287  -16.7072   19.6485 C   0  0  0  0  0  0  0  0  0  0  0  0
  -22.9862  -36.9761   20.2092 C   0  0  0  0  0  0  0  0  0  0  0  0
  -23.8194  -29.7277   19.6431 C   0  0  0  0  0  0  0  0  0  0  0  0
  -25.2120  -29.9306   22.2439 C   0  0  0  0  0  0  0  0  0  0  0  0
  -23.5955  -36.0114   21.2233 C   0  0  0  0  0  0  0  0  0  0  0  0
  -29.7049  -13.3377   18.4981 C   0  0  0  0  0  0  0  0  0  0  0  0
  -24.8083  -35.3048   20.6261 C   0  0  0  0  0  0  0  0  0  0  0  0
  -28.4307  -12.7538   19.1127 C   0  0  0  0  0  0  0  0  0  0  0  0
  -30.0615  -24.6577   23.2328 C   0  0  0  0  0  0  0  0  0  0  0  0
  -30.3918  -14.3210   19.4441 C   0  0  0  0  0  0  0  0  0  0  0  0
  -30.3844  -23.1864   22.9810 C   0  0  0  0  0  0  0  0  0  0  0  0
  -28.9390  -24.0072   21.2219 C   0  0  0  0  0  0  0  0  0  0  0  0
  -28.2563  -14.8106   20.5709 C   0  0  0  0  0  0  0  0  0  0  0  0
  -24.4128  -34.4694   19.4025 C   0  0  1  0  0  0  0  0  0  0  0  0
  -23.6386  -30.9343   20.5589 C   0  0  1  0  0  0  0  0  0  0  0  0
  -29.7066  -25.1794   21.8435 C   0  0  1  0  0  0  0  0  0  0  0  0
  -27.4944  -13.8638   19.6293 C   0  0  2  0  0  0  0  0  0  0  0  0
  -21.8100  -28.4474   27.6635 C   0  0  0  0  0  0  0  0  0  0  0  0
  -24.8982  -33.2737   24.3406 C   0  0  0  0  0  0  0  0  0  0  0  0
  -24.4073  -32.1447   26.5207 C   0  0  0  0  0  0  0  0  0  0  0  0
  -22.5509  -33.1543   25.1952 C   0  0  0  0  0  0  0  0  0  0  0  0
  -21.8023  -26.3885   24.4640 C   0  0  0  0  0  0  0  0  0  0  0  0
  -28.9077  -26.4706   21.8746 C   0  0  0  0  0  0  0  0  0  1  0  0
  -23.6371  -31.0211   24.3817 C   0  0  1  0  0  0  0  0  0  0  0  0
  -21.7993  -28.2226   26.1594 C   0  0  2  0  0  0  0  0  0  0  0  0
  -23.8849  -32.3839   25.0880 C   0  0  0  0  0  0  0  0  0  0  0  0
  -26.3379  -12.1159   20.9288 N   0  0  0  0  0  0  0  0  0  0  0  0
  -26.2506  -13.2911   20.2828 N   0  0  0  0  0  0  0  0  0  0  0  0
  -29.5419  -22.8294   21.8424 N   0  0  3  0  0  0  0  0  0  0  0  0
  -23.9507  -30.6341   21.9577 N   0  0  0  0  0  0  0  0  0  0  0  0
  -29.4451  -15.3461   19.8891 N   0  0  0  0  0  0  0  0  0  0  0  0
  -24.7378  -15.0177   19.6990 N   0  0  0  0  0  0  0  0  0  0  0  0
  -22.1672  -12.1222   22.0235 N   0  0  0  0  0  0  0  0  0  0  0  0
  -28.7409  -17.5882   20.0871 N   0  0  0  0  0  0  0  0  0  0  0  0
  -23.7841  -33.2333   19.8162 N   0  0  0  0  0  0  0  0  0  0  0  0
  -22.6615  -30.1690   25.0528 N   0  0  0  0  0  0  0  0  0  0  0  0
  -21.8319  -26.7549   25.9034 N   0  3  0  0  0  0  0  0  0  0  0  0
  -22.1640  -14.1070   20.8750 O   0  0  0  0  0  0  0  0  0  0  0  0
  -25.7171  -31.9819   20.1624 O   0  0  0  0  0  0  0  0  0  0  0  0
  -22.0861  -31.7834   22.7568 O   0  0  0  0  0  0  0  0  0  0  0  0
  -24.0794  -28.3623   25.3729 O   0  0  0  0  0  0  0  0  0  0  0  0
  -30.7586  -17.0630   19.0699 O   0  0  0  0  0  0  0  0  0  0  0  0
  -23.8489   -7.3293   24.3115 O   0  0  0  0  0  0  0  0  0  0  0  0
  -28.6352  -26.8810   20.5353 O   0  0  0  0  0  0  0  0  0  1  0  0
  -19.2282   -4.6189   23.0051 F   0  0  0  0  0  0  0  0  0  0  0  0
  -31.6598  -21.2581   21.0137 F   0  0  0  0  0  0  0  0  0  0  0  0
  -23.9365   -4.6921   23.4869 F   0  0  0  0  0  0  0  0  0  0  0  0
  -27.0088  -21.7602   21.7883 F   0  0  0  0  0  0  0  0  0  0  0  0
  -26.2241  -19.0738   20.9370 Cl  0  0  0  0  0  0  0  0  0  0  0  0
  1  2  1  0  0  0  0
  1  5  2  0  0  0  0
  2  6  2  0  0  0  0
  3  8  2  0  0  0  0
  3 16  1  0  0  0  0
  4  9  1  0  0  0  0
  4 16  2  0  0  0  0
  5 18  1  0  0  0  0
  6 20  1  0  0  0  0
  7 10  2  0  0  0  0
  7 19  1  0  0  0  0
  8 24  1  0  0  0  0
  9 24  2  0  0  0  0
 10 25  1  0  0  0  0
 11 12  2  0  0  0  0
 11 26  1  0  0  0  0
 12 27  1  0  0  0  0
 13 21  1  0  0  0  0
 13 25  2  0  0  0  0
 14 23  1  0  0  0  0
 14 28  2  0  0  0  0
 15 27  2  0  0  0  0
 15 29  1  0  0  0  0
 16 32  1  0  0  0  0
 17 32  1  0  0  0  0
 17 33  2  0  0  0  0
 17 34  1  0  0  0  0
 18 20  2  0  0  0  0
 18 39  1  0  0  0  0
 19 21  2  0  0  0  0
 19 40  1  0  0  0  0
 20 51  1  0  0  0  0
 21 41  1  0  0  0  0
 22 28  1  0  0  0  0
 22 30  2  0  0  0  0
 22 66  1  0  0  0  0
 23 31  2  0  0  0  0
 23 71  1  0  0  0  0
 24 80  1  0  0  0  0
 25 81  1  0  0  0  0
 26 29  2  0  0  0  0
 26 80  1  0  0  0  0
 27 82  1  0  0  0  0
 28 83  1  0  0  0  0
 29 84  1  0  0  0  0
 30 31  1  0  0  0  0
 30 85  1  0  0  0  0
 31 86  1  0  0  0  0
 32 64  2  0  0  0  0
 33 65  1  0  0  0  0
 33 69  1  0  0  0  0
 34 70  1  0  0  0  0
 34 75  2  0  0  0  0
 35 52  1  0  0  0  0
 35 72  1  0  0  0  0
 35 76  2  0  0  0  0
 36 61  1  0  0  0  0
 36 67  1  0  0  0  0
 36 77  2  0  0  0  0
 37 62  1  0  0  0  0
 37 73  1  0  0  0  0
 37 78  2  0  0  0  0
 38 68  1  0  0  0  0
 38 71  1  0  0  0  0
 38 79  2  0  0  0  0
 39 42  1  0  0  0  0
 40 52  1  0  0  0  0
 41 67  1  0  0  0  0
 42 44  1  0  0  0  0
 43 45  1  0  0  0  0
 43 47  1  0  0  0  0
 44 51  1  0  0  0  0
 45 54  1  0  0  0  0
 46 48  1  0  0  0  0
 46 53  1  0  0  0  0
 47 68  1  0  0  0  0
 48 66  1  0  0  0  0
 49 53  1  0  0  0  0
 49 66  1  0  0  0  0
 50 54  1  0  0  0  0
 50 68  1  0  0  0  0
 51 72  1  0  0  0  0
 52 67  1  0  0  0  0
 53 60  1  0  0  0  0
 54 65  1  0  0  0  0
 55 62  1  0  0  0  0
 56 63  1  0  0  0  0
 57 63  1  0  0  0  0
 58 63  1  0  0  0  0
 59 74  1  0  0  0  0
 60 81  1  0  0  0  0
 61 63  1  0  0  0  0
 61 73  1  0  0  0  0
 62 74  1  0  0  0  0
 64 65  1  0  0  0  0
M  CHG  1  74   1
M  ISO  4  38 100  60 101  71 100  81 101
M  END
> <Batch ID>
0025

> <Smiles>
CNC(C)C(=O)NC(C(=O)N1Cc2cc([101O:1][101CH2:1]C3CCN(c4c(F)cc([100NH:0][100C:0](=O)N5CCCC(n6nc(-c7ccc(Oc8ccc(F)cc8F)cc7)c(C(N)=O)c6N)C5)c(Cl)c4F)C3)ccc2CC1C(=O)NC1CCCc2ccccc21)C(C)(C)C

> <Shape>
0.279

> <Color>
0.152

> <Negative vol penalty>
0.000

$$$$

  -OEChem-04042321223D

 84 93  0     1  0  0  0  0  0999 V2000
  -18.1122  -29.5557   24.1003 C   0  0  0  0  0  0  0  0  0  0  0  0
  -19.4997  -29.6371   24.0405 C   0  0  0  0  0  0  0  0  0  0  0  0
  -25.0847  -13.3105   19.5584 C   0  0  0  0  0  0  0  0  0  0  0  0
  -25.9701  -13.9078   21.7255 C   0  0  0  0  0  0  0  0  0  0  0  0
  -17.4525  -28.4757   23.5152 C   0  0  0  0  0  0  0  0  0  0  0  0
  -20.2284  -28.6378   23.3964 C   0  0  0  0  0  0  0  0  0  0  0  0
  -25.3954  -29.3390   20.1845 C   0  0  0  0  0  0  0  0  0  0  0  0
  -30.5261  -24.6917   21.2978 C   0  0  0  0  0  0  0  0  0  0  0  0
  -30.3139  -23.5437   20.5346 C   0  0  0  0  0  0  0  0  0  0  0  0
  -24.9608  -11.9849   19.9744 C   0  0  0  0  0  0  0  0  0  0  0  0
  -25.8462  -12.5822   22.1415 C   0  0  0  0  0  0  0  0  0  0  0  0
  -26.7369  -29.1474   20.5123 C   0  0  0  0  0  0  0  0  0  0  0  0
  -22.8271  -10.1522   21.8508 C   0  0  0  0  0  0  0  0  0  0  0  0
  -21.6397   -9.4859   21.5476 C   0  0  0  0  0  0  0  0  0  0  0  0
  -26.6511  -26.9385   19.5467 C   0  0  0  0  0  0  0  0  0  0  0  0
  -28.0459  -23.4158   21.3574 C   0  0  0  0  0  0  0  0  0  0  0  0
  -22.8832   -7.8457   20.2824 C   0  0  0  0  0  0  0  0  0  0  0  0
  -25.5895  -14.2720   20.4339 C   0  0  0  0  0  0  0  0  0  0  0  0
  -24.7549  -16.6617   20.1172 C   0  0  0  0  0  0  0  0  0  0  0  0
  -18.1729  -27.4677   22.8553 C   0  0  0  0  0  0  0  0  0  0  0  0
  -24.6675  -28.3259   19.5440 C   0  0  0  0  0  0  0  0  0  0  0  0
  -19.5779  -27.5426   22.8031 C   0  0  0  0  0  0  0  0  0  0  0  0
  -25.3012  -27.1207   19.2095 C   0  0  0  0  0  0  0  0  0  0  0  0
  -29.4981  -25.2018   22.0909 C   0  0  0  0  0  0  0  0  0  0  0  0
  -29.0739  -22.9057   20.5643 C   0  0  0  0  0  0  0  0  0  0  0  0
  -25.3415  -11.6208   21.2659 C   0  0  0  0  0  0  0  0  0  0  0  0
  -27.3642  -27.9459   20.1960 C   0  0  0  0  0  0  0  0  0  0  0  0
  -24.0425   -9.6653   21.3698 C   0  0  0  0  0  0  0  0  0  0  0  0
  -21.6678   -8.3327   20.7635 C   0  0  0  0  0  0  0  0  0  0  0  0
  -24.0705   -8.5120   20.5856 C   0  0  0  0  0  0  0  0  0  0  0  0
  -28.2581  -24.5638   22.1207 C   0  0  0  0  0  0  0  0  0  0  0  0
  -25.7183  -15.6413   20.0046 C   0  0  0  0  0  0  0  0  0  0  0  0
  -25.3586  -17.7660   19.5671 C   0  0  0  0  0  0  0  0  0  0  0  0
  -23.4327  -16.6155   20.6696 C   0  0  0  0  0  0  0  0  0  0  0  0
  -22.1085  -26.5918   20.2843 C   0  0  0  0  0  0  0  0  0  0  0  0
  -22.4412  -25.5142   17.2428 C   0  0  0  0  0  0  0  0  0  0  0  0
  -24.4879  -24.9888   14.5629 C   0  0  0  0  0  0  0  0  0  0  0  0
  -29.7725  -21.1034   18.9488 C   0  0  0  0  0  0  0  0  0  0  0  0
  -17.4191  -26.2954   22.2790 C   0  0  0  0  0  0  0  0  0  0  0  0
  -23.2284  -28.5583   19.1733 C   0  0  0  0  0  0  0  0  0  0  0  0
  -24.5696  -26.0092   18.5038 C   0  0  0  0  0  0  0  0  0  0  0  0
  -18.2390  -25.4706   21.2902 C   0  0  0  0  0  0  0  0  0  0  0  0
  -29.6395  -18.1943   16.9002 C   0  0  0  0  0  0  0  0  0  0  0  0
  -29.9512  -27.8141   24.6771 C   0  0  0  0  0  0  0  0  0  0  0  0
  -19.6283  -25.1887   21.8534 C   0  0  0  0  0  0  0  0  0  0  0  0
  -28.5282  -17.3547   17.5345 C   0  0  0  0  0  0  0  0  0  0  0  0
  -30.8539  -28.2874   23.5487 C   0  0  0  0  0  0  0  0  0  0  0  0
  -29.6309  -26.3722   24.2961 C   0  0  0  0  0  0  0  0  0  0  0  0
  -30.4629  -18.9338   17.9532 C   0  0  0  0  0  0  0  0  0  0  0  0
  -28.5701  -18.9052   19.5298 C   0  0  0  0  0  0  0  0  0  0  0  0
  -20.4017  -26.4912   22.0919 C   0  0  1  0  0  0  0  0  0  0  0  0
  -22.4439  -27.2639   18.9829 C   0  0  1  0  0  0  0  0  0  0  0  0
  -27.6727  -18.1928   18.5047 C   0  0  2  0  0  0  0  0  0  0  0  0
  -30.2755  -27.5993   22.3043 C   0  0  2  0  0  0  0  0  0  0  0  0
  -24.4824  -24.0571   12.2328 C   0  0  0  0  0  0  0  0  0  0  0  0
  -22.4287  -22.6819   18.3779 C   0  0  0  0  0  0  0  0  0  0  0  0
  -23.3611  -21.8788   16.1976 C   0  0  0  0  0  0  0  0  0  0  0  0
  -21.1170  -22.9659   16.2676 C   0  0  0  0  0  0  0  0  0  0  0  0
  -25.2627  -27.5952   13.3944 C   0  0  0  0  0  0  0  0  0  0  0  0
  -29.1655  -28.4360   21.6694 C   0  0  0  0  0  0  0  0  0  1  0  0
  -23.1892  -24.3788   16.5867 C   0  0  1  0  0  0  0  0  0  0  0  0
  -24.3169  -25.3038   13.0878 C   0  0  2  0  0  0  0  0  0  0  0  0
  -22.5375  -22.9964   16.8725 C   0  0  0  0  0  0  0  0  0  0  0  0
  -26.8480  -16.0601   19.4282 N   0  0  0  0  0  0  0  0  0  0  0  0
  -26.5984  -17.3558   19.1735 N   0  0  0  0  0  0  0  0  0  0  0  0
  -29.7384  -26.3408   22.8362 N   0  0  3  0  0  0  0  0  0  0  0  0
  -23.1624  -26.2821   18.1680 N   0  0  0  0  0  0  0  0  0  0  0  0
  -29.5863  -19.7096   18.8333 N   0  0  0  0  0  0  0  0  0  0  0  0
  -24.9445  -19.0381   19.3864 N   0  0  0  0  0  0  0  0  0  0  0  0
  -22.9693  -15.4006   21.1929 N   0  0  0  0  0  0  0  0  0  0  0  0
  -28.8590  -21.7395   19.7887 N   0  0  0  0  0  0  0  0  0  0  0  0
  -20.9155  -27.0099   20.8424 N   0  0  0  0  0  0  0  0  0  0  0  0
  -23.2805  -24.7149   15.1700 N   0  0  0  0  0  0  0  0  0  0  0  0
  -25.3267  -26.3097   12.6525 N   0  3  0  0  0  0  0  0  0  0  0  0
  -22.6782  -17.6175   20.6835 O   0  0  0  0  0  0  0  0  0  0  0  0
  -22.8746  -25.7547   20.7470 O   0  0  0  0  0  0  0  0  0  0  0  0
  -21.2627  -25.7168   16.9401 O   0  0  0  0  0  0  0  0  0  0  0  0
  -25.5834  -24.9823   15.1200 O   0  0  0  0  0  0  0  0  0  0  0  0
  -30.6587  -21.6935   18.3256 O   0  0  0  0  0  0  0  0  0  0  0  0
  -25.2205  -10.3274   21.6723 O   0  0  0  0  0  0  0  0  0  0  0  0
  -28.6733  -27.7561   20.5153 O   0  0  0  0  0  0  0  0  0  1  0  0
  -20.5277   -7.6921   20.4737 F   0  0  0  0  0  0  0  0  0  0  0  0
  -25.2352   -8.0388   20.1216 F   0  0  0  0  0  0  0  0  0  0  0  0
  -26.9586  -25.1622   23.0889 Cl  0  0  0  0  0  0  0  0  0  0  0  0
  1  2  1  0  0  0  0
  1  5  2  0  0  0  0
  2  6  2  0  0  0  0
  3 10  2  0  0  0  0
  3 18  1  0  0  0  0
  4 11  1  0  0  0  0
  4 18  2  0  0  0  0
  5 20  1  0  0  0  0
  6 22  1  0  0  0  0
  7 12  2  0  0  0  0
  7 21  1  0  0  0  0
  8  9  2  0  0  0  0
  8 24  1  0  0  0  0
  9 25  1  0  0  0  0
 10 26  1  0  0  0  0
 11 26  2  0  0  0  0
 12 27  1  0  0  0  0
 13 14  2  0  0  0  0
 13 28  1  0  0  0  0
 14 29  1  0  0  0  0
 15 23  1  0  0  0  0
 15 27  2  0  0  0  0
 16 25  2  0  0  0  0
 16 31  1  0  0  0  0
 17 29  2  0  0  0  0
 17 30  1  0  0  0  0
 18 32  1  0  0  0  0
 19 32  1  0  0  0  0
 19 33  2  0  0  0  0
 19 34  1  0  0  0  0
 20 22  2  0  0  0  0
 20 39  1  0  0  0  0
 21 23  2  0  0  0  0
 21 40  1  0  0  0  0
 22 51  1  0  0  0  0
 23 41  1  0  0  0  0
 24 31  2  0  0  0  0
 24 66  1  0  0  0  0
 25 71  1  0  0  0  0
 26 80  1  0  0  0  0
 27 81  1  0  0  0  0
 28 30  2  0  0  0  0
 28 80  1  0  0  0  0
 29 82  1  0  0  0  0
 30 83  1  0  0  0  0
 31 84  1  0  0  0  0
 32 64  2  0  0  0  0
 33 65  1  0  0  0  0
 33 69  1  0  0  0  0
 34 70  1  0  0  0  0
 34 75  2  0  0  0  0
 35 52  1  0  0  0  0
 35 72  1  0  0  0  0
 35 76  2  0  0  0  0
 36 61  1  0  0  0  0
 36 67  1  0  0  0  0
 36 77  2  0  0  0  0
 37 62  1  0  0  0  0
 37 73  1  0  0  0  0
 37 78  2  0  0  0  0
 38 68  1  0  0  0  0
 38 71  1  0  0  0  0
 38 79  2  0  0  0  0
 39 42  1  0  0  0  0
 40 52  1  0  0  0  0
 41 67  1  0  0  0  0
 42 45  1  0  0  0  0
 43 46  1  0  0  0  0
 43 49  1  0  0  0  0
 44 47  1  0  0  0  0
 44 48  1  0  0  0  0
 45 51  1  0  0  0  0
 46 53  1  0  0  0  0
 47 54  1  0  0  0  0
 48 66  1  0  0  0  0
 49 68  1  0  0  0  0
 50 53  1  0  0  0  0
 50 68  1  0  0  0  0
 51 72  1  0  0  0  0
 52 67  1  0  0  0  0
 53 65  1  0  0  0  0
 54 60  1  0  0  0  0
 54 66  1  0  0  0  0
 55 62  1  0  0  0  0
 56 63  1  0  0  0  0
 57 63  1  0  0  0  0
 58 63  1  0  0  0  0
 59 74  1  0  0  0  0
 60 81  1  0  0  0  0
 61 63  1  0  0  0  0
 61 73  1  0  0  0  0
 62 74  1  0  0  0  0
 64 65  1  0  0  0  0
M  CHG  1  74   1
M  ISO  4  38 100  60 101  71 100  81 101
M  END
> <Batch ID>
0025

> <Smiles>
CNC(C)C(=O)NC(C(=O)N1Cc2cc([101O:1][101CH2:1]C3CCCN3c3ccc([100NH:0][100C:0](=O)N4CCCC(n5nc(-c6ccc(Oc7ccc(F)cc7F)cc6)c(C(N)=O)c5N)C4)cc3Cl)ccc2CC1C(=O)NC1CCCc2ccccc21)C(C)(C)C

> <Shape>
0.238

> <Color>
0.066

> <Negative vol penalty>
0.000

$$$$

  -OEChem-04042321223D

 86 95  0     1  0  0  0  0  0999 V2000
  -16.9156  -14.1565   31.5015 C   0  0  0  0  0  0  0  0  0  0  0  0
  -18.0697  -14.8516   31.8485 C   0  0  0  0  0  0  0  0  0  0  0  0
  -23.2864   -9.8003   19.9135 C   0  0  0  0  0  0  0  0  0  0  0  0
  -23.7341   -9.9424   22.2834 C   0  0  0  0  0  0  0  0  0  0  0  0
  -16.6912  -13.7997   30.1725 C   0  0  0  0  0  0  0  0  0  0  0  0
  -19.0006  -15.1893   30.8668 C   0  0  0  0  0  0  0  0  0  0  0  0
  -23.7224  -20.3035   29.1738 C   0  0  0  0  0  0  0  0  0  0  0  0
  -31.9273  -15.5326   24.4231 C   0  0  0  0  0  0  0  0  0  0  0  0
  -31.5501  -16.6435   25.1775 C   0  0  0  0  0  0  0  0  0  0  0  0
  -22.5589   -8.6285   20.1212 C   0  0  0  0  0  0  0  0  0  0  0  0
  -23.0065   -8.7706   22.4911 C   0  0  0  0  0  0  0  0  0  0  0  0
  -25.0629  -20.4585   28.8236 C   0  0  0  0  0  0  0  0  0  0  0  0
  -23.2092   -5.3541   20.6500 C   0  0  0  0  0  0  0  0  0  0  0  0
  -23.4381   -4.2874   19.7809 C   0  0  0  0  0  0  0  0  0  0  0  0
  -24.5315  -19.8593   26.5481 C   0  0  0  0  0  0  0  0  0  0  0  0
  -21.1169   -4.3344   19.1121 C   0  0  0  0  0  0  0  0  0  0  0  0
  -23.8741  -10.4573   20.9946 C   0  0  0  0  0  0  0  0  0  0  0  0
  -24.1356  -12.9869   20.7944 C   0  0  0  0  0  0  0  0  0  0  0  0
  -17.6151  -14.1417   29.1725 C   0  0  0  0  0  0  0  0  0  0  0  0
  -22.7766  -19.9139   28.2145 C   0  0  0  0  0  0  0  0  0  0  0  0
  -18.7889  -14.8356   29.5234 C   0  0  0  0  0  0  0  0  0  0  0  0
  -23.1792  -19.7025   26.8881 C   0  0  0  0  0  0  0  0  0  0  0  0
  -31.2594  -14.3190   24.5866 C   0  0  0  0  0  0  0  0  0  0  0  0
  -29.8371  -15.3272   26.2592 C   0  0  0  0  0  0  0  0  0  0  0  0
  -30.5050  -16.5408   26.0956 C   0  0  0  0  0  0  0  0  0  0  0  0
  -22.4189   -8.1137   21.4100 C   0  0  0  0  0  0  0  0  0  0  0  0
  -25.4682  -20.2336   27.5112 C   0  0  0  0  0  0  0  0  0  0  0  0
  -21.9342   -5.9109   20.7503 C   0  0  0  0  0  0  0  0  0  0  0  0
  -22.3919   -3.7776   19.0119 C   0  0  0  0  0  0  0  0  0  0  0  0
  -20.8881   -5.4011   19.9813 C   0  0  0  0  0  0  0  0  0  0  0  0
  -30.2143  -14.2163   25.5046 C   0  0  0  0  0  0  0  0  0  0  0  0
  -24.6262  -11.6675   20.7807 C   0  0  0  0  0  0  0  0  0  0  0  0
  -25.2380  -13.7658   20.5403 C   0  0  0  0  0  0  0  0  0  0  0  0
  -22.8026  -13.4657   21.0170 C   0  0  0  0  0  0  0  0  0  0  0  0
  -20.8400  -17.4187   27.8580 C   0  0  0  0  0  0  0  0  0  0  0  0
  -19.7273  -19.1364   25.3414 C   0  0  0  0  0  0  0  0  0  0  0  0
  -20.3044  -21.5518   23.0005 C   0  0  0  0  0  0  0  0  0  0  0  0
  -31.1073  -12.9190   21.3686 C   0  0  0  0  0  0  0  0  0  0  0  0
  -17.3519  -13.6930   27.7569 C   0  0  0  0  0  0  0  0  0  0  0  0
  -21.3298  -19.7770   28.6025 C   0  0  0  0  0  0  0  0  0  0  0  0
  -22.1996  -19.3026   25.8162 C   0  0  0  0  0  0  0  0  0  0  0  0
  -18.2071  -14.4164   26.7197 C   0  0  0  0  0  0  0  0  0  0  0  0
  -29.4631  -13.6572   18.2980 C   0  0  0  0  0  0  0  0  0  0  0  0
  -19.6640  -14.4650   27.1691 C   0  0  0  0  0  0  0  0  0  0  0  0
  -27.9927  -13.3501   18.5873 C   0  0  0  0  0  0  0  0  0  0  0  0
  -30.1275  -19.2920   28.5200 C   0  0  0  0  0  0  0  0  0  0  0  0
  -30.3947  -12.6777   19.0084 C   0  0  0  0  0  0  0  0  0  0  0  0
  -31.0472  -18.3540   27.7413 C   0  0  0  0  0  0  0  0  0  0  0  0
  -28.8168  -18.2554   26.8070 C   0  0  0  0  0  0  0  0  0  0  0  0
  -28.7053  -12.2510   20.7513 C   0  0  0  0  0  0  0  0  0  0  0  0
  -19.8104  -15.2416   28.4832 C   0  0  1  0  0  0  0  0  0  0  0  0
  -20.5402  -18.8772   27.6568 C   0  0  1  0  0  0  0  0  0  0  0  0
  -29.0144  -19.5970   27.5218 C   0  0  1  0  0  0  0  0  0  0  0  0
  -27.7290  -13.2464   20.1016 C   0  0  2  0  0  0  0  0  0  0  0  0
  -28.7157  -15.1928   27.2376 C   0  0  0  0  0  0  0  0  0  0  0  0
  -19.2204  -22.7091   21.0555 C   0  0  0  0  0  0  0  0  0  0  0  0
  -20.2272  -16.6788   23.6035 C   0  0  0  0  0  0  0  0  0  0  0  0
  -20.0450  -18.1530   21.5881 C   0  0  0  0  0  0  0  0  0  0  0  0
  -18.0912  -17.8845   23.1156 C   0  0  0  0  0  0  0  0  0  0  0  0
  -20.4642  -24.1900   24.3320 C   0  0  0  0  0  0  0  0  0  0  0  0
  -31.6660  -13.1342   23.7770 C   0  0  0  0  0  0  0  0  0  0  0  0
  -27.7483  -20.1196   28.1776 C   0  0  0  0  0  0  0  0  0  1  0  0
  -20.0831  -19.2420   23.8781 C   0  0  1  0  0  0  0  0  0  0  0  0
  -19.4735  -22.7415   22.5547 C   0  0  2  0  0  0  0  0  0  0  0  0
  -19.6307  -17.9952   23.0667 C   0  0  0  0  0  0  0  0  0  0  0  0
  -25.9381  -11.6076   20.5370 N   0  0  0  0  0  0  0  0  0  0  0  0
  -26.2812  -12.8992   20.3951 N   0  0  0  0  0  0  0  0  0  0  0  0
  -30.1462  -17.6491   26.8331 N   0  0  3  0  0  0  0  0  0  0  0  0
  -20.7974  -19.1754   26.2465 N   0  0  0  0  0  0  0  0  0  0  0  0
  -30.0934  -12.6277   20.4411 N   0  0  0  0  0  0  0  0  0  0  0  0
  -25.4071  -15.1005   20.4290 N   0  0  0  0  0  0  0  0  0  0  0  0
  -21.7890  -12.5297   21.2638 N   0  0  0  0  0  0  0  0  0  0  0  0
  -19.7451  -16.6664   28.2382 N   0  0  0  0  0  0  0  0  0  0  0  0
  -19.5121  -20.4998   23.4088 N   0  0  0  0  0  0  0  0  0  0  0  0
  -30.7357  -12.8548   22.7059 N   0  0  0  0  0  0  0  0  0  0  0  0
  -20.1730  -24.0151   22.8858 N   0  3  0  0  0  0  0  0  0  0  0  0
  -22.5157  -14.6863   20.9813 O   0  0  0  0  0  0  0  0  0  0  0  0
  -21.9801  -17.0061   27.6799 O   0  0  0  0  0  0  0  0  0  0  0  0
  -18.5429  -19.0306   25.6696 O   0  0  0  0  0  0  0  0  0  0  0  0
  -21.5333  -21.5541   22.9843 O   0  0  0  0  0  0  0  0  0  0  0  0
  -32.2569  -13.2197   21.0298 O   0  0  0  0  0  0  0  0  0  0  0  0
  -21.7088   -6.9704   21.6131 O   0  0  0  0  0  0  0  0  0  0  0  0
  -26.7762  -20.3836   27.1668 O   0  0  0  0  0  0  0  0  0  1  0  0
  -22.6122   -2.7543   18.1761 F   0  0  0  0  0  0  0  0  0  0  0  0
  -19.6613   -5.9327   20.0724 F   0  0  0  0  0  0  0  0  0  0  0  0
  -29.5712  -13.0493   25.6593 F   0  0  0  0  0  0  0  0  0  0  0  0
  1  2  1  0  0  0  0
  1  5  2  0  0  0  0
  2  6  2  0  0  0  0
  3 10  2  0  0  0  0
  3 17  1  0  0  0  0
  4 11  1  0  0  0  0
  4 17  2  0  0  0  0
  5 19  1  0  0  0  0
  6 21  1  0  0  0  0
  7 12  2  0  0  0  0
  7 20  1  0  0  0  0
  8  9  2  0  0  0  0
  8 23  1  0  0  0  0
  9 25  1  0  0  0  0
 10 26  1  0  0  0  0
 11 26  2  0  0  0  0
 12 27  1  0  0  0  0
 13 14  2  0  0  0  0
 13 28  1  0  0  0  0
 14 29  1  0  0  0  0
 15 22  1  0  0  0  0
 15 27  2  0  0  0  0
 16 29  2  0  0  0  0
 16 30  1  0  0  0  0
 17 32  1  0  0  0  0
 18 32  1  0  0  0  0
 18 33  2  0  0  0  0
 18 34  1  0  0  0  0
 19 21  2  0  0  0  0
 19 39  1  0  0  0  0
 20 22  2  0  0  0  0
 20 40  1  0  0  0  0
 21 51  1  0  0  0  0
 22 41  1  0  0  0  0
 23 31  2  0  0  0  0
 23 61  1  0  0  0  0
 24 25  2  0  0  0  0
 24 31  1  0  0  0  0
 24 55  1  0  0  0  0
 25 68  1  0  0  0  0
 26 82  1  0  0  0  0
 27 83  1  0  0  0  0
 28 30  2  0  0  0  0
 28 82  1  0  0  0  0
 29 84  1  0  0  0  0
 30 85  1  0  0  0  0
 31 86  1  0  0  0  0
 32 66  2  0  0  0  0
 33 67  1  0  0  0  0
 33 71  1  0  0  0  0
 34 72  1  0  0  0  0
 34 77  2  0  0  0  0
 35 52  1  0  0  0  0
 35 73  1  0  0  0  0
 35 78  2  0  0  0  0
 36 63  1  0  0  0  0
 36 69  1  0  0  0  0
 36 79  2  0  0  0  0
 37 64  1  0  0  0  0
 37 74  1  0  0  0  0
 37 80  2  0  0  0  0
 38 70  1  0  0  0  0
 38 75  1  0  0  0  0
 38 81  2  0  0  0  0
 39 42  1  0  0  0  0
 40 52  1  0  0  0  0
 41 69  1  0  0  0  0
 42 44  1  0  0  0  0
 43 45  1  0  0  0  0
 43 47  1  0  0  0  0
 44 51  1  0  0  0  0
 45 54  1  0  0  0  0
 46 48  1  0  0  0  0
 46 53  1  0  0  0  0
 47 70  1  0  0  0  0
 48 68  1  0  0  0  0
 49 53  1  0  0  0  0
 49 68  1  0  0  0  0
 50 54  1  0  0  0  0
 50 70  1  0  0  0  0
 51 73  1  0  0  0  0
 52 69  1  0  0  0  0
 53 62  1  0  0  0  0
 54 67  1  0  0  0  0
 56 64  1  0  0  0  0
 57 65  1  0  0  0  0
 58 65  1  0  0  0  0
 59 65  1  0  0  0  0
 60 76  1  0  0  0  0
 61 75  1  0  0  0  0
 62 83  1  0  0  0  0
 63 65  1  0  0  0  0
 63 74  1  0  0  0  0
 64 76  1  0  0  0  0
 66 67  1  0  0  0  0
M  CHG  1  76   1
M  ISO  4  38 100  62 101  75 100  83 101
M  END
> <Batch ID>
0025

> <Smiles>
CNC(C)C(=O)NC(C(=O)N1Cc2cc([101O:1][101CH2:1]C3CCN(c4ccc(C[100NH:0][100C:0](=O)N5CCCC(n6nc(-c7ccc(Oc8ccc(F)cc8F)cc7)c(C(N)=O)c6N)C5)c(F)c4C)C3)ccc2CC1C(=O)NC1CCCc2ccccc21)C(C)(C)C

> <Shape>
0.120

> <Color>
0.178

> <Negative vol penalty>
0.000

$$$$

  -OEChem-04042321223D

 91101  0     1  0  0  0  0  0999 V2000
  -24.8511  -31.5710   20.5027 C   0  0  0  0  0  0  0  0  0  0  0  0
  -25.4996  -30.5156   19.8694 C   0  0  0  0  0  0  0  0  0  0  0  0
  -26.1080  -13.4697   21.8533 C   0  0  0  0  0  0  0  0  0  0  0  0
  -24.8752  -14.8285   20.2814 C   0  0  0  0  0  0  0  0  0  0  0  0
  -24.0560  -31.3282   21.6220 C   0  0  0  0  0  0  0  0  0  0  0  0
  -25.3542  -29.2168   20.3559 C   0  0  0  0  0  0  0  0  0  0  0  0
  -24.5247  -25.8437   16.6709 C   0  0  0  0  0  0  0  0  0  0  0  0
  -25.0424  -12.5716   21.9126 C   0  0  0  0  0  0  0  0  0  0  0  0
  -23.8096  -13.9304   20.3406 C   0  0  0  0  0  0  0  0  0  0  0  0
  -25.6277  -25.4327   15.9238 C   0  0  0  0  0  0  0  0  0  0  0  0
  -22.7910   -9.7321   22.2016 C   0  0  0  0  0  0  0  0  0  0  0  0
  -23.0862   -8.3704   22.1368 C   0  0  0  0  0  0  0  0  0  0  0  0
  -25.7570  -23.4133   17.2369 C   0  0  0  0  0  0  0  0  0  0  0  0
  -29.9250  -24.1737   19.9542 C   0  0  0  0  0  0  0  0  0  0  0  0
  -24.0925   -8.6920   19.9640 C   0  0  0  0  0  0  0  0  0  0  0  0
  -26.0244  -14.5982   21.0377 C   0  0  0  0  0  0  0  0  0  0  0  0
  -28.2173  -15.4925   20.0896 C   0  0  0  0  0  0  0  0  0  0  0  0
  -23.8931  -30.0246   22.1166 C   0  0  0  0  0  0  0  0  0  0  0  0
  -24.0354  -25.0463   17.7155 C   0  0  0  0  0  0  0  0  0  0  0  0
  -24.5573  -28.9566   21.4836 C   0  0  0  0  0  0  0  0  0  0  0  0
  -24.6461  -23.8152   17.9941 C   0  0  0  0  0  0  0  0  0  0  0  0
  -30.7290  -23.5810   17.3494 C   0  0  0  0  0  0  0  0  0  0  0  0
  -30.4875  -22.5493   18.2566 C   0  0  0  0  0  0  0  0  0  0  0  0
  -30.5685  -24.9091   17.7446 C   0  0  0  0  0  0  0  0  0  0  0  0
  -30.0854  -22.8457   19.5589 C   0  0  0  0  0  0  0  0  0  0  0  0
  -23.8933  -12.8019   21.1563 C   0  0  0  0  0  0  0  0  0  0  0  0
  -26.2458  -24.2187   16.2086 C   0  0  0  0  0  0  0  0  0  0  0  0
  -23.1465  -10.5738   21.1476 C   0  0  0  0  0  0  0  0  0  0  0  0
  -23.7370   -7.8503   21.0181 C   0  0  0  0  0  0  0  0  0  0  0  0
  -23.7973  -10.0537   20.0288 C   0  0  0  0  0  0  0  0  0  0  0  0
  -30.1665  -25.2054   19.0470 C   0  0  0  0  0  0  0  0  0  0  0  0
  -27.1245  -15.5266   20.9764 C   0  0  0  0  0  0  0  0  0  0  0  0
  -28.9756  -16.5837   20.4369 C   0  0  0  0  0  0  0  0  0  0  0  0
  -28.5199  -14.5580   19.0451 C   0  0  0  0  0  0  0  0  0  0  0  0
  -23.7088  -25.4156   20.8557 C   0  0  0  0  0  0  0  0  0  0  0  0
  -22.1867  -22.5592   20.6403 C   0  0  0  0  0  0  0  0  0  0  0  0
  -21.7233  -19.6453   18.9253 C   0  0  0  0  0  0  0  0  0  0  0  0
  -29.4303  -21.9572   21.8234 C   0  0  0  0  0  0  0  0  0  0  0  0
  -23.0615  -29.8177   23.3577 C   0  0  0  0  0  0  0  0  0  0  0  0
  -22.8282  -25.4914   18.4946 C   0  0  0  0  0  0  0  0  0  0  0  0
  -24.1470  -22.9129   19.0919 C   0  0  0  0  0  0  0  0  0  0  0  0
  -22.6586  -28.3630   23.5854 C   0  0  0  0  0  0  0  0  0  0  0  0
  -30.6202  -27.3579   14.9316 C   0  0  0  0  0  0  0  0  0  0  0  0
  -31.7951  -27.8242   15.7672 C   0  0  0  0  0  0  0  0  0  0  0  0
  -28.6729  -19.6655   24.4410 C   0  0  0  0  0  0  0  0  0  0  0  0
  -29.9862  -22.5142   12.7194 C   0  0  0  0  0  0  0  0  0  0  0  0
  -23.8590  -27.4408   23.3969 C   0  0  0  0  0  0  0  0  0  0  0  0
  -28.2925  -18.3816   23.7000 C   0  0  0  0  0  0  0  0  0  0  0  0
  -28.6822  -22.2115   13.4303 C   0  0  0  0  0  0  0  0  0  0  0  0
  -29.8122  -26.5263   15.9214 C   0  0  0  0  0  0  0  0  0  0  0  0
  -32.1125  -26.5978   16.6152 C   0  0  0  0  0  0  0  0  0  0  0  0
  -28.1862  -20.9116   23.7033 C   0  0  0  0  0  0  0  0  0  0  0  0
  -28.2072  -19.7108   21.5522 C   0  0  0  0  0  0  0  0  0  0  0  0
  -30.5774  -23.6548   13.5253 C   0  0  0  0  0  0  0  0  0  0  0  0
  -24.4043  -27.5306   21.9665 C   0  0  1  0  0  0  0  0  0  0  0  0
  -22.7314  -24.8396   19.8705 C   0  0  1  0  0  0  0  0  0  0  0  0
  -28.7326  -18.4315   22.2237 C   0  0  2  0  0  0  0  0  0  0  0  0
  -29.0754  -22.2859   14.8982 C   0  0  2  0  0  0  0  0  0  0  0  0
  -30.6600  -21.1245   17.8309 C   0  0  0  0  0  0  0  0  0  0  0  0
  -20.4436  -17.4885   19.0155 C   0  0  0  0  0  0  0  0  0  0  0  0
  -24.0797  -21.5291   22.8002 C   0  0  0  0  0  0  0  0  0  0  0  0
  -23.4132  -19.1983   22.1747 C   0  0  0  0  0  0  0  0  0  0  0  0
  -21.7046  -20.7885   23.0549 C   0  0  0  0  0  0  0  0  0  0  0  0
  -20.3480  -20.2199   16.3685 C   0  0  0  0  0  0  0  0  0  0  0  0
  -31.1613  -23.2573   15.9496 C   0  0  0  0  0  0  0  0  0  0  0  0
  -27.9074  -22.5604   15.8274 C   0  0  0  0  0  0  0  0  0  1  0  0
  -22.6118  -21.1127   20.7174 C   0  0  1  0  0  0  0  0  0  0  0  0
  -20.4614  -18.9181   18.4972 C   0  0  2  0  0  0  0  0  0  0  0  0
  -22.9632  -20.6748   22.1673 C   0  0  0  0  0  0  0  0  0  0  0  0
  -27.1800  -16.5578   21.8235 N   0  0  0  0  0  0  0  0  0  0  0  0
  -28.3168  -17.1817   21.4706 N   0  0  0  0  0  0  0  0  0  0  0  0
  -30.8149  -25.9430   16.8212 N   0  0  0  0  0  0  0  0  0  0  0  0
  -22.9676  -23.3950   19.8295 N   0  0  0  0  0  0  0  0  0  0  0  0
  -28.6447  -20.8921   22.3125 N   0  0  0  0  0  0  0  0  0  0  0  0
  -30.1351  -17.0805   19.9559 N   0  0  0  0  0  0  0  0  0  0  0  0
  -27.6339  -13.4951   18.8223 N   0  0  0  0  0  0  0  0  0  0  0  0
  -29.8348  -21.8134   20.4966 N   0  0  0  0  0  0  0  0  0  0  0  0
  -23.5681  -26.7752   21.0585 N   0  0  0  0  0  0  0  0  0  0  0  0
  -21.5388  -20.3386   20.1028 N   0  0  0  0  0  0  0  0  0  0  0  0
  -30.0685  -23.4394   14.9407 N   0  3  1  0  0  0  0  0  0  0  0  0
  -20.3644  -18.8803   17.0106 N   0  3  0  0  0  0  0  0  0  0  0  0
  -29.5539  -14.6530   18.3414 O   0  0  0  0  0  0  0  0  0  0  0  0
  -24.5289  -24.6806   21.3932 O   0  0  0  0  0  0  0  0  0  0  0  0
  -21.1939  -22.9321   21.2703 O   0  0  0  0  0  0  0  0  0  0  0  0
  -22.7693  -19.5995   18.2816 O   0  0  0  0  0  0  0  0  0  0  0  0
  -29.7454  -22.9124   22.5376 O   0  0  0  0  0  0  0  0  0  0  0  0
  -22.8534  -11.9256   21.2138 O   0  0  0  0  0  0  0  0  0  0  0  0
  -27.3231  -23.8154   15.4814 O   0  0  0  0  0  0  0  0  0  1  0  0
  -24.0218   -6.5429   20.9567 F   0  0  0  0  0  0  0  0  0  0  0  0
  -24.1423  -10.8575   19.0136 F   0  0  0  0  0  0  0  0  0  0  0  0
  -29.9548  -26.8353   19.5808 Cl  0  0  0  0  0  0  0  0  0  0  0  0
  1  2  1  0  0  0  0
  1  5  2  0  0  0  0
  2  6  2  0  0  0  0
  3  8  2  0  0  0  0
  3 16  1  0  0  0  0
  4  9  1  0  0  0  0
  4 16  2  0  0  0  0
  5 18  1  0  0  0  0
  6 20  1  0  0  0  0
  7 10  2  0  0  0  0
  7 19  1  0  0  0  0
  8 26  1  0  0  0  0
  9 26  2  0  0  0  0
 10 27  1  0  0  0  0
 11 12  2  0  0  0  0
 11 28  1  0  0  0  0
 12 29  1  0  0  0  0
 13 21  1  0  0  0  0
 13 27  2  0  0  0  0
 14 25  1  0  0  0  0
 14 31  2  0  0  0  0
 15 29  2  0  0  0  0
 15 30  1  0  0  0  0
 16 32  1  0  0  0  0
 17 32  1  0  0  0  0
 17 33  2  0  0  0  0
 17 34  1  0  0  0  0
 18 20  2  0  0  0  0
 18 39  1  0  0  0  0
 19 21  2  0  0  0  0
 19 40  1  0  0  0  0
 20 55  1  0  0  0  0
 21 41  1  0  0  0  0
 22 23  1  0  0  0  0
 22 24  2  0  0  0  0
 22 65  1  0  0  0  0
 23 25  2  0  0  0  0
 23 59  1  0  0  0  0
 24 31  1  0  0  0  0
 24 72  1  0  0  0  0
 25 77  1  0  0  0  0
 26 87  1  0  0  0  0
 27 88  1  0  0  0  0
 28 30  2  0  0  0  0
 28 87  1  0  0  0  0
 29 89  1  0  0  0  0
 30 90  1  0  0  0  0
 31 91  1  0  0  0  0
 32 70  2  0  0  0  0
 33 71  1  0  0  0  0
 33 75  1  0  0  0  0
 34 76  1  0  0  0  0
 34 82  2  0  0  0  0
 35 56  1  0  0  0  0
 35 78  1  0  0  0  0
 35 83  2  0  0  0  0
 36 67  1  0  0  0  0
 36 73  1  0  0  0  0
 36 84  2  0  0  0  0
 37 68  1  0  0  0  0
 37 79  1  0  0  0  0
 37 85  2  0  0  0  0
 38 74  1  0  0  0  0
 38 77  1  0  0  0  0
 38 86  2  0  0  0  0
 39 42  1  0  0  0  0
 40 56  1  0  0  0  0
 41 73  1  0  0  0  0
 42 47  1  0  0  0  0
 43 44  1  0  0  0  0
 43 50  1  0  0  0  0
 44 51  1  0  0  0  0
 45 48  1  0  0  0  0
 45 52  1  0  0  0  0
 46 49  1  0  0  0  0
 46 54  1  0  0  0  0
 47 55  1  0  0  0  0
 48 57  1  0  0  0  0
 49 58  1  0  0  0  0
 50 72  1  0  0  0  0
 51 72  1  0  0  0  0
 52 74  1  0  0  0  0
 53 57  1  0  0  0  0
 53 74  1  0  0  0  0
 54 80  1  0  0  0  0
 55 78  1  0  0  0  0
 56 73  1  0  0  0  0
 57 71  1  0  0  0  0
 58 66  1  0  0  0  0
 58 80  1  0  0  0  0
 60 68  1  0  0  0  0
 61 69  1  0  0  0  0
 62 69  1  0  0  0  0
 63 69  1  0  0  0  0
 64 81  1  0  0  0  0
 65 80  1  0  0  0  0
 66 88  1  0  0  0  0
 67 69  1  0  0  0  0
 67 79  1  0  0  0  0
 68 81  1  0  0  0  0
 70 71  1  0  0  0  0
M  CHG  2  80   1  81   1
M  ISO  4  38 100  66 101  77 100  88 101
M  END
> <Batch ID>
0025

> <Smiles>
CNC(C)C(=O)NC(C(=O)N1Cc2cc([101O:1][101CH2:1]C3CCCN3Cc3c(C)c([100NH:0][100C:0](=O)N4CCCC(n5nc(-c6ccc(Oc7ccc(F)cc7F)cc6)c(C(N)=O)c5N)C4)cc(Cl)c3N3CCCC3)ccc2CC1C(=O)NC1CCCc2ccccc21)C(C)(C)C

> <Shape>
0.191

> <Color>
0.051

> <Negative vol penalty>
0.000

$$$$

  -OEChem-04042321223D

 82 91  0     1  0  0  0  0  0999 V2000
  -29.0794  -37.2180   24.4097 C   0  0  0  0  0  0  0  0  0  0  0  0
  -29.4833  -36.0198   23.8295 C   0  0  0  0  0  0  0  0  0  0  0  0
  -24.6974   -9.8896   21.9911 C   0  0  0  0  0  0  0  0  0  0  0  0
  -24.7919  -11.2940   23.9547 C   0  0  0  0  0  0  0  0  0  0  0  0
  -27.9523  -37.2489   25.2298 C   0  0  0  0  0  0  0  0  0  0  0  0
  -28.7609  -34.8516   24.0699 C   0  0  0  0  0  0  0  0  0  0  0  0
  -27.8157  -30.2364   20.1569 C   0  0  0  0  0  0  0  0  0  0  0  0
  -29.4992  -21.6483   21.1597 C   0  0  0  0  0  0  0  0  0  0  0  0
  -29.5047  -20.2902   20.8421 C   0  0  0  0  0  0  0  0  0  0  0  0
  -24.4087   -8.7862   22.7941 C   0  0  0  0  0  0  0  0  0  0  0  0
  -24.5032  -10.1907   24.7577 C   0  0  0  0  0  0  0  0  0  0  0  0
  -28.4379  -28.9989   19.9981 C   0  0  0  0  0  0  0  0  0  0  0  0
  -23.2905   -5.6695   24.2944 C   0  0  0  0  0  0  0  0  0  0  0  0
  -22.2696   -4.8146   23.8792 C   0  0  0  0  0  0  0  0  0  0  0  0
  -26.7205  -27.9695   21.3436 C   0  0  0  0  0  0  0  0  0  0  0  0
  -27.0835  -21.6317   21.1895 C   0  0  0  0  0  0  0  0  0  0  0  0
  -20.6970   -6.6463   23.9750 C   0  0  0  0  0  0  0  0  0  0  0  0
  -24.8890  -11.1435   22.5714 C   0  0  0  0  0  0  0  0  0  0  0  0
  -24.2673  -13.1704   21.1526 C   0  0  0  0  0  0  0  0  0  0  0  0
  -27.2101  -36.0824   25.4727 C   0  0  0  0  0  0  0  0  0  0  0  0
  -26.6452  -30.3517   20.9205 C   0  0  0  0  0  0  0  0  0  0  0  0
  -27.6235  -34.8667   24.8951 C   0  0  0  0  0  0  0  0  0  0  0  0
  -26.0840  -29.2091   21.5084 C   0  0  0  0  0  0  0  0  0  0  0  0
  -28.2886  -22.3191   21.3335 C   0  0  0  0  0  0  0  0  0  0  0  0
  -28.2995  -19.6027   20.6982 C   0  0  0  0  0  0  0  0  0  0  0  0
  -24.3116   -8.9367   24.1774 C   0  0  0  0  0  0  0  0  0  0  0  0
  -27.8920  -27.8657   20.5939 C   0  0  0  0  0  0  0  0  0  0  0  0
  -23.0147   -7.0128   24.5499 C   0  0  0  0  0  0  0  0  0  0  0  0
  -20.9728   -5.3030   23.7195 C   0  0  0  0  0  0  0  0  0  0  0  0
  -21.7180   -7.5011   24.3902 C   0  0  0  0  0  0  0  0  0  0  0  0
  -27.0889  -20.2735   20.8718 C   0  0  0  0  0  0  0  0  0  0  0  0
  -25.1879  -12.2835   21.7424 C   0  0  0  0  0  0  0  0  0  0  0  0
  -25.0476  -14.0721   20.4711 C   0  0  0  0  0  0  0  0  0  0  0  0
  -22.8349  -13.1784   21.2153 C   0  0  0  0  0  0  0  0  0  0  0  0
  -25.8389  -31.9163   23.5674 C   0  0  0  0  0  0  0  0  0  0  0  0
  -22.8777  -30.7960   22.8612 C   0  0  0  0  0  0  0  0  0  0  0  0
  -20.9685  -28.4482   21.2834 C   0  0  0  0  0  0  0  0  0  0  0  0
  -29.4743  -17.4366   20.1746 C   0  0  0  0  0  0  0  0  0  0  0  0
  -26.0262  -36.1559   26.4043 C   0  0  0  0  0  0  0  0  0  0  0  0
  -25.9714  -31.6892   21.0600 C   0  0  0  0  0  0  0  0  0  0  0  0
  -24.8177  -29.2761   22.3212 C   0  0  0  0  0  0  0  0  0  0  0  0
  -25.0988  -34.9473   26.3072 C   0  0  0  0  0  0  0  0  0  0  0  0
  -29.9946  -14.0002   19.4015 C   0  0  0  0  0  0  0  0  0  0  0  0
  -25.9059  -33.6530   26.3172 C   0  0  0  0  0  0  0  0  0  0  0  0
  -28.7147  -13.3202   19.8931 C   0  0  0  0  0  0  0  0  0  0  0  0
  -30.4191  -15.1430   20.3221 C   0  0  0  0  0  0  0  0  0  0  0  0
  -28.0979  -15.4628   21.0831 C   0  0  0  0  0  0  0  0  0  0  0  0
  -27.2890  -24.6279   21.3024 C   0  0  0  0  0  0  0  0  0  0  0  0
  -29.3774  -24.5766   21.5541 C   0  0  0  0  0  0  0  0  0  0  0  0
  -26.8517  -33.5833   25.1122 C   0  0  1  0  0  0  0  0  0  0  0  0
  -25.0672  -31.7779   22.2856 C   0  0  1  0  0  0  0  0  0  0  0  0
  -27.5949  -14.3470   20.1526 C   0  0  2  0  0  0  0  0  0  0  0  0
  -28.3511  -25.7176   21.5055 C   0  0  0  0  0  0  0  0  0  1  0  0
  -18.5793  -27.7725   20.9191 C   0  0  0  0  0  0  0  0  0  0  0  0
  -22.7719  -29.6544   25.6889 C   0  0  0  0  0  0  0  0  0  0  0  0
  -20.8497  -28.2232   24.9643 C   0  0  0  0  0  0  0  0  0  0  0  0
  -20.6423  -30.7085   24.9090 C   0  0  0  0  0  0  0  0  0  0  0  0
  -21.1916  -28.8093   18.3545 C   0  0  0  0  0  0  0  0  0  0  0  0
  -22.0983  -29.5479   23.1987 C   0  0  1  0  0  0  0  0  0  0  0  0
  -19.7531  -28.5774   20.3831 C   0  0  2  0  0  0  0  0  0  0  0  0
  -21.6155  -29.5323   24.6766 C   0  0  0  0  0  0  0  0  0  0  0  0
  -26.4560  -12.5936   21.4601 N   0  0  0  0  0  0  0  0  0  0  0  0
  -26.3378  -13.6854   20.6855 N   0  0  0  0  0  0  0  0  0  0  0  0
  -28.2838  -23.6733   21.6491 N   0  0  0  0  0  0  0  0  0  0  0  0
  -24.1997  -30.6076   22.4337 N   0  0  0  0  0  0  0  0  0  0  0  0
  -29.3094  -16.0782   20.5188 N   0  0  0  0  0  0  0  0  0  0  0  0
  -24.7491  -15.1501   19.7153 N   0  0  0  0  0  0  0  0  0  0  0  0
  -22.1931  -12.1794   21.9599 N   0  0  0  0  0  0  0  0  0  0  0  0
  -28.3408  -18.2238   20.3748 N   0  0  0  0  0  0  0  0  0  0  0  0
  -26.1207  -33.2234   23.9161 N   0  0  0  0  0  0  0  0  0  0  0  0
  -21.0221  -29.4609   22.2176 N   0  0  0  0  0  0  0  0  0  0  0  0
  -20.0704  -28.0893   19.0113 N   0  3  0  0  0  0  0  0  0  0  0  0
  -22.1440  -14.0362   20.6150 O   0  0  0  0  0  0  0  0  0  0  0  0
  -26.1540  -30.9117   24.1944 O   0  0  0  0  0  0  0  0  0  0  0  0
  -22.3314  -31.8970   22.9660 O   0  0  0  0  0  0  0  0  0  0  0  0
  -21.7864  -27.5376   21.1717 O   0  0  0  0  0  0  0  0  0  0  0  0
  -30.5338  -17.8641   19.7092 O   0  0  0  0  0  0  0  0  0  0  0  0
  -24.0296   -7.8604   24.9613 O   0  0  0  0  0  0  0  0  0  0  0  0
  -28.4977  -26.6567   20.4411 O   0  0  0  0  0  0  0  0  0  1  0  0
  -19.9927   -4.4823   23.3193 F   0  0  0  0  0  0  0  0  0  0  0  0
  -21.4472   -8.7909   24.6331 F   0  0  0  0  0  0  0  0  0  0  0  0
  -25.5737  -19.4605   20.7023 Cl  0  0  0  0  0  0  0  0  0  0  0  0
  1  2  1  0  0  0  0
  1  5  2  0  0  0  0
  2  6  2  0  0  0  0
  3 10  2  0  0  0  0
  3 18  1  0  0  0  0
  4 11  1  0  0  0  0
  4 18  2  0  0  0  0
  5 20  1  0  0  0  0
  6 22  1  0  0  0  0
  7 12  2  0  0  0  0
  7 21  1  0  0  0  0
  8  9  2  0  0  0  0
  8 24  1  0  0  0  0
  9 25  1  0  0  0  0
 10 26  1  0  0  0  0
 11 26  2  0  0  0  0
 12 27  1  0  0  0  0
 13 14  2  0  0  0  0
 13 28  1  0  0  0  0
 14 29  1  0  0  0  0
 15 23  1  0  0  0  0
 15 27  2  0  0  0  0
 16 24  2  0  0  0  0
 16 31  1  0  0  0  0
 17 29  2  0  0  0  0
 17 30  1  0  0  0  0
 18 32  1  0  0  0  0
 19 32  1  0  0  0  0
 19 33  2  0  0  0  0
 19 34  1  0  0  0  0
 20 22  2  0  0  0  0
 20 39  1  0  0  0  0
 21 23  2  0  0  0  0
 21 40  1  0  0  0  0
 22 50  1  0  0  0  0
 23 41  1  0  0  0  0
 24 64  1  0  0  0  0
 25 31  2  0  0  0  0
 25 69  1  0  0  0  0
 26 78  1  0  0  0  0
 27 79  1  0  0  0  0
 28 30  2  0  0  0  0
 28 78  1  0  0  0  0
 29 80  1  0  0  0  0
 30 81  1  0  0  0  0
 31 82  1  0  0  0  0
 32 62  2  0  0  0  0
 33 63  1  0  0  0  0
 33 67  1  0  0  0  0
 34 68  1  0  0  0  0
 34 73  2  0  0  0  0
 35 51  1  0  0  0  0
 35 70  1  0  0  0  0
 35 74  2  0  0  0  0
 36 59  1  0  0  0  0
 36 65  1  0  0  0  0
 36 75  2  0  0  0  0
 37 60  1  0  0  0  0
 37 71  1  0  0  0  0
 37 76  2  0  0  0  0
 38 66  1  0  0  0  0
 38 69  1  0  0  0  0
 38 77  2  0  0  0  0
 39 42  1  0  0  0  0
 40 51  1  0  0  0  0
 41 65  1  0  0  0  0
 42 44  1  0  0  0  0
 43 45  1  0  0  0  0
 43 46  1  0  0  0  0
 44 50  1  0  0  0  0
 45 52  1  0  0  0  0
 46 66  1  0  0  0  0
 47 52  1  0  0  0  0
 47 66  1  0  0  0  0
 48 53  1  0  0  0  0
 48 64  1  0  0  0  0
 49 53  1  0  0  0  0
 49 64  1  0  0  0  0
 50 70  1  0  0  0  0
 51 65  1  0  0  0  0
 52 63  1  0  0  0  0
 53 79  1  0  0  0  0
 54 60  1  0  0  0  0
 55 61  1  0  0  0  0
 56 61  1  0  0  0  0
 57 61  1  0  0  0  0
 58 72  1  0  0  0  0
 59 61  1  0  0  0  0
 59 71  1  0  0  0  0
 60 72  1  0  0  0  0
 62 63  1  0  0  0  0
M  CHG  1  72   1
M  ISO  4  38 100  53 101  69 100  79 101
M  END
> <Batch ID>
0025

> <Smiles>
CNC(C)C(=O)NC(C(=O)N1Cc2cc([101O:1][101CH:1]3CN(c4ccc([100NH:0][100C:0](=O)N5CCCC(n6nc(-c7ccc(Oc8ccc(F)cc8F)cc7)c(C(N)=O)c6N)C5)c(Cl)c4)C3)ccc2CC1C(=O)NC1CCCc2ccccc21)C(C)(C)C

> <Shape>
0.326

> <Color>
0.138

> <Negative vol penalty>
0.000

$$$$

  -OEChem-04042321223D

 85 94  0     1  0  0  0  0  0999 V2000
  -33.9713  -28.3303   11.8719 C   0  0  0  0  0  0  0  0  0  0  0  0
  -34.7060  -27.4547   12.6651 C   0  0  0  0  0  0  0  0  0  0  0  0
  -22.8749  -10.0124   20.5710 C   0  0  0  0  0  0  0  0  0  0  0  0
  -23.7053  -10.3206   22.8187 C   0  0  0  0  0  0  0  0  0  0  0  0
  -32.7811  -28.8738   12.3536 C   0  0  0  0  0  0  0  0  0  0  0  0
  -34.2514  -27.1231   13.9410 C   0  0  0  0  0  0  0  0  0  0  0  0
  -34.1926  -21.6899   18.6093 C   0  0  0  0  0  0  0  0  0  0  0  0
  -32.9927  -17.4539   22.6353 C   0  0  0  0  0  0  0  0  0  0  0  0
  -32.2982  -16.4958   21.8969 C   0  0  0  0  0  0  0  0  0  0  0  0
  -22.0766   -8.9564   21.0107 C   0  0  0  0  0  0  0  0  0  0  0  0
  -22.9071   -9.2647   23.2585 C   0  0  0  0  0  0  0  0  0  0  0  0
  -34.5093  -21.4075   19.9374 C   0  0  0  0  0  0  0  0  0  0  0  0
  -19.6602   -8.7599   24.0482 C   0  0  0  0  0  0  0  0  0  0  0  0
  -18.9392   -8.9423   25.2282 C   0  0  0  0  0  0  0  0  0  0  0  0
  -32.3989  -22.3456   20.6339 C   0  0  0  0  0  0  0  0  0  0  0  0
  -20.0941   -7.0681   26.2235 C   0  0  0  0  0  0  0  0  0  0  0  0
  -23.6893  -10.6945   21.4750 C   0  0  0  0  0  0  0  0  0  0  0  0
  -24.1661  -13.1477   20.9634 C   0  0  0  0  0  0  0  0  0  0  0  0
  -32.3068  -28.5411   13.6323 C   0  0  0  0  0  0  0  0  0  0  0  0
  -32.9793  -22.3132   18.2840 C   0  0  0  0  0  0  0  0  0  0  0  0
  -33.0545  -27.6637   14.4407 C   0  0  0  0  0  0  0  0  0  0  0  0
  -32.0680  -22.6325   19.3007 C   0  0  0  0  0  0  0  0  0  0  0  0
  -32.2980  -18.4822   23.2722 C   0  0  0  0  0  0  0  0  0  0  0  0
  -30.9088  -16.5661   21.7952 C   0  0  0  0  0  0  0  0  0  0  0  0
  -22.0927   -8.5826   22.3544 C   0  0  0  0  0  0  0  0  0  0  0  0
  -33.6137  -21.7379   20.9501 C   0  0  0  0  0  0  0  0  0  0  0  0
  -20.5981   -7.7316   23.9558 C   0  0  0  0  0  0  0  0  0  0  0  0
  -19.1561   -8.0964   26.3159 C   0  0  0  0  0  0  0  0  0  0  0  0
  -20.8151   -6.8858   25.0435 C   0  0  0  0  0  0  0  0  0  0  0  0
  -30.9086  -18.5524   23.1705 C   0  0  0  0  0  0  0  0  0  0  0  0
  -30.2140  -17.5944   22.4320 C   0  0  0  0  0  0  0  0  0  0  0  0
  -24.5145  -11.7850   21.0213 C   0  0  0  0  0  0  0  0  0  0  0  0
  -25.2861  -13.7676   20.4655 C   0  0  0  0  0  0  0  0  0  0  0  0
  -22.9397  -13.7954   21.3272 C   0  0  0  0  0  0  0  0  0  0  0  0
  -32.1674  -25.0623   16.9102 C   0  0  0  0  0  0  0  0  0  0  0  0
  -29.1748  -23.8252   17.1018 C   0  0  0  0  0  0  0  0  0  0  0  0
  -27.0268  -21.6620   18.6358 C   0  0  0  0  0  0  0  0  0  0  0  0
  -30.8044  -14.5015   20.3555 C   0  0  0  0  0  0  0  0  0  0  0  0
  -31.0391  -29.1907   14.1280 C   0  0  0  0  0  0  0  0  0  0  0  0
  -32.6409  -22.5869   16.8442 C   0  0  0  0  0  0  0  0  0  0  0  0
  -30.7434  -23.2843   19.0024 C   0  0  0  0  0  0  0  0  0  0  0  0
  -30.4347  -28.4961   15.3456 C   0  0  0  0  0  0  0  0  0  0  0  0
  -29.4849  -11.8280   18.4090 C   0  0  0  0  0  0  0  0  0  0  0  0
  -33.6010  -20.5059   25.9976 C   0  0  0  0  0  0  0  0  0  0  0  0
  -31.5133  -28.2051   16.3843 C   0  0  0  0  0  0  0  0  0  0  0  0
  -28.0455  -11.6906   18.9104 C   0  0  0  0  0  0  0  0  0  0  0  0
  -34.6626  -20.8060   24.9543 C   0  0  0  0  0  0  0  0  0  0  0  0
  -32.3957  -20.0982   25.1591 C   0  0  0  0  0  0  0  0  0  0  0  0
  -30.4484  -12.1810   19.5408 C   0  0  0  0  0  0  0  0  0  0  0  0
  -28.6285  -13.2176   20.8379 C   0  0  0  0  0  0  0  0  0  0  0  0
  -32.5815  -27.2604   15.8205 C   0  0  1  0  0  0  0  0  0  0  0  0
  -31.6015  -23.6905   16.6741 C   0  0  1  0  0  0  0  0  0  0  0  0
  -27.6112  -12.9265   19.7225 C   0  0  2  0  0  0  0  0  0  0  0  0
  -34.4155  -19.7519   23.8611 C   0  0  2  0  0  0  0  0  0  0  0  0
  -24.6354  -20.9024   18.5984 C   0  0  0  0  0  0  0  0  0  0  0  0
  -28.3396  -26.3927   18.5230 C   0  0  0  0  0  0  0  0  0  0  0  0
  -26.2670  -25.2136   19.2862 C   0  0  0  0  0  0  0  0  0  0  0  0
  -26.6874  -25.5420   16.8494 C   0  0  0  0  0  0  0  0  0  0  0  0
  -27.7989  -18.8816   17.9786 C   0  0  0  0  0  0  0  0  0  0  0  0
  -34.7552  -20.3326   22.4923 C   0  0  0  0  0  0  0  0  0  1  0  0
  -28.0693  -23.8554   18.1293 C   0  0  1  0  0  0  0  0  0  0  0  0
  -26.0410  -20.6534   18.0741 C   0  0  2  0  0  0  0  0  0  0  0  0
  -27.3665  -25.2404   18.2031 C   0  0  0  0  0  0  0  0  0  0  0  0
  -25.7584  -11.5522   20.5942 N   0  0  0  0  0  0  0  0  0  0  0  0
  -26.2014  -12.7770   20.2630 N   0  0  0  0  0  0  0  0  0  0  0  0
  -32.9887  -19.4287   24.0024 N   0  0  3  0  0  0  0  0  0  0  0  0
  -30.4611  -23.5374   17.5798 N   0  0  0  0  0  0  0  0  0  0  0  0
  -29.9749  -13.3639   20.2629 N   0  0  0  0  0  0  0  0  0  0  0  0
  -25.5673  -15.0579   20.1854 N   0  0  0  0  0  0  0  0  0  0  0  0
  -21.8902  -13.0092   21.8219 N   0  0  0  0  0  0  0  0  0  0  0  0
  -30.2350  -15.5763   21.0375 N   0  0  0  0  0  0  0  0  0  0  0  0
  -32.0964  -25.8970   15.8112 N   0  0  0  0  0  0  0  0  0  0  0  0
  -27.1766  -22.7492   17.8010 N   0  0  0  0  0  0  0  0  0  0  0  0
  -26.4449  -19.2693   18.4510 N   0  3  0  0  0  0  0  0  0  0  0  0
  -22.7737  -15.0324   21.2014 O   0  0  0  0  0  0  0  0  0  0  0  0
  -32.6326  -25.3431   18.0086 O   0  0  0  0  0  0  0  0  0  0  0  0
  -28.9059  -24.0417   15.9175 O   0  0  0  0  0  0  0  0  0  0  0  0
  -27.6032  -21.5032   19.7096 O   0  0  0  0  0  0  0  0  0  0  0  0
  -31.9259  -14.5303   19.8423 O   0  0  0  0  0  0  0  0  0  0  0  0
  -21.3137   -7.5523   22.7838 O   0  0  0  0  0  0  0  0  0  0  0  0
  -33.9207  -21.4640   22.2473 O   0  0  0  0  0  0  0  0  0  1  0  0
  -18.4648   -8.2726   27.4495 F   0  0  0  0  0  0  0  0  0  0  0  0
  -21.7157   -5.8969   24.9611 F   0  0  0  0  0  0  0  0  0  0  0  0
  -30.2464  -19.5445   23.7858 F   0  0  0  0  0  0  0  0  0  0  0  0
  -28.4927  -17.7120   22.3278 Cl  0  0  0  0  0  0  0  0  0  0  0  0
  1  2  1  0  0  0  0
  1  5  2  0  0  0  0
  2  6  2  0  0  0  0
  3 10  2  0  0  0  0
  3 17  1  0  0  0  0
  4 11  1  0  0  0  0
  4 17  2  0  0  0  0
  5 19  1  0  0  0  0
  6 21  1  0  0  0  0
  7 12  2  0  0  0  0
  7 20  1  0  0  0  0
  8  9  2  0  0  0  0
  8 23  1  0  0  0  0
  9 24  1  0  0  0  0
 10 25  1  0  0  0  0
 11 25  2  0  0  0  0
 12 26  1  0  0  0  0
 13 14  2  0  0  0  0
 13 27  1  0  0  0  0
 14 28  1  0  0  0  0
 15 22  1  0  0  0  0
 15 26  2  0  0  0  0
 16 28  2  0  0  0  0
 16 29  1  0  0  0  0
 17 32  1  0  0  0  0
 18 32  1  0  0  0  0
 18 33  2  0  0  0  0
 18 34  1  0  0  0  0
 19 21  2  0  0  0  0
 19 39  1  0  0  0  0
 20 22  2  0  0  0  0
 20 40  1  0  0  0  0
 21 51  1  0  0  0  0
 22 41  1  0  0  0  0
 23 30  2  0  0  0  0
 23 66  1  0  0  0  0
 24 31  2  0  0  0  0
 24 71  1  0  0  0  0
 25 80  1  0  0  0  0
 26 81  1  0  0  0  0
 27 29  2  0  0  0  0
 27 80  1  0  0  0  0
 28 82  1  0  0  0  0
 29 83  1  0  0  0  0
 30 31  1  0  0  0  0
 30 84  1  0  0  0  0
 31 85  1  0  0  0  0
 32 64  2  0  0  0  0
 33 65  1  0  0  0  0
 33 69  1  0  0  0  0
 34 70  1  0  0  0  0
 34 75  2  0  0  0  0
 35 52  1  0  0  0  0
 35 72  1  0  0  0  0
 35 76  2  0  0  0  0
 36 61  1  0  0  0  0
 36 67  1  0  0  0  0
 36 77  2  0  0  0  0
 37 62  1  0  0  0  0
 37 73  1  0  0  0  0
 37 78  2  0  0  0  0
 38 68  1  0  0  0  0
 38 71  1  0  0  0  0
 38 79  2  0  0  0  0
 39 42  1  0  0  0  0
 40 52  1  0  0  0  0
 41 67  1  0  0  0  0
 42 45  1  0  0  0  0
 43 46  1  0  0  0  0
 43 49  1  0  0  0  0
 44 47  1  0  0  0  0
 44 48  1  0  0  0  0
 45 51  1  0  0  0  0
 46 53  1  0  0  0  0
 47 54  1  0  0  0  0
 48 66  1  0  0  0  0
 49 68  1  0  0  0  0
 50 53  1  0  0  0  0
 50 68  1  0  0  0  0
 51 72  1  0  0  0  0
 52 67  1  0  0  0  0
 53 65  1  0  0  0  0
 54 60  1  0  0  0  0
 54 66  1  0  0  0  0
 55 62  1  0  0  0  0
 56 63  1  0  0  0  0
 57 63  1  0  0  0  0
 58 63  1  0  0  0  0
 59 74  1  0  0  0  0
 60 81  1  0  0  0  0
 61 63  1  0  0  0  0
 61 73  1  0  0  0  0
 62 74  1  0  0  0  0
 64 65  1  0  0  0  0
M  CHG  1  74   1
M  ISO  4  38 100  60 101  71 100  81 101
M  END
> <Batch ID>
0025

> <Smiles>
CNC(C)C(=O)NC(C(=O)N1Cc2cc([101O:1][101CH2:1]C3CCCN3c3ccc([100NH:0][100C:0](=O)N4CCCC(n5nc(-c6ccc(Oc7ccc(F)cc7F)cc6)c(C(N)=O)c5N)C4)c(Cl)c3F)ccc2CC1C(=O)NC1CCCc2ccccc21)C(C)(C)C

> <Shape>
0.204

> <Color>
0.161

> <Negative vol penalty>
0.000

$$$$

  -OEChem-04042321223D

 96106  0     1  0  0  0  0  0999 V2000
  -30.8322  -23.2846   32.1796 C   0  0  0  0  0  0  0  0  0  0  0  0
  -31.4254  -23.9932   31.1396 C   0  0  0  0  0  0  0  0  0  0  0  0
  -22.6281  -10.1919   20.4633 C   0  0  0  0  0  0  0  0  0  0  0  0
  -24.2000   -9.6917   22.2285 C   0  0  0  0  0  0  0  0  0  0  0  0
  -29.8938  -22.2923   31.8992 C   0  0  0  0  0  0  0  0  0  0  0  0
  -31.0812  -23.7090   29.8186 C   0  0  0  0  0  0  0  0  0  0  0  0
  -30.3018  -26.8859   23.4454 C   0  0  0  0  0  0  0  0  0  0  0  0
  -32.6853  -17.6643   22.9790 C   0  0  0  0  0  0  0  0  0  0  0  0
  -32.0983  -16.6893   22.1725 C   0  0  0  0  0  0  0  0  0  0  0  0
  -21.8637   -9.0843   20.8301 C   0  0  0  0  0  0  0  0  0  0  0  0
  -23.4355   -8.5842   22.5954 C   0  0  0  0  0  0  0  0  0  0  0  0
  -30.7164  -26.7582   22.1204 C   0  0  0  0  0  0  0  0  0  0  0  0
  -20.6028   -7.9813   24.3370 C   0  0  0  0  0  0  0  0  0  0  0  0
  -20.3569   -7.7869   25.6961 C   0  0  0  0  0  0  0  0  0  0  0  0
  -29.0244  -25.0771   21.7594 C   0  0  0  0  0  0  0  0  0  0  0  0
  -29.9184  -17.6282   22.6240 C   0  0  0  0  0  0  0  0  0  0  0  0
  -21.4603   -5.6403   25.5889 C   0  0  0  0  0  0  0  0  0  0  0  0
  -23.7963  -10.4956   21.1625 C   0  0  0  0  0  0  0  0  0  0  0  0
  -24.1773  -12.9860   20.7621 C   0  0  0  0  0  0  0  0  0  0  0  0
  -29.5309  -22.0024   30.5745 C   0  0  0  0  0  0  0  0  0  0  0  0
  -29.2508  -26.1010   23.9412 C   0  0  0  0  0  0  0  0  0  0  0  0
  -30.1381  -22.7109   29.5202 C   0  0  0  0  0  0  0  0  0  0  0  0
  -28.5967  -25.1986   23.0904 C   0  0  0  0  0  0  0  0  0  0  0  0
  -31.8888  -18.6212   23.6081 C   0  0  0  0  0  0  0  0  0  0  0  0
  -30.5054  -18.6032   23.4306 C   0  0  0  0  0  0  0  0  0  0  0  0
  -30.7149  -16.6713   21.9950 C   0  0  0  0  0  0  0  0  0  0  0  0
  -22.2673   -8.2805   21.8962 C   0  0  0  0  0  0  0  0  0  0  0  0
  -30.0795  -25.8516   21.2780 C   0  0  0  0  0  0  0  0  0  0  0  0
  -21.2774   -7.0050   23.6037 C   0  0  0  0  0  0  0  0  0  0  0  0
  -20.7856   -6.6165   26.3221 C   0  0  0  0  0  0  0  0  0  0  0  0
  -21.7062   -5.8346   24.2297 C   0  0  0  0  0  0  0  0  0  0  0  0
  -24.5866  -11.6392   20.7837 C   0  0  0  0  0  0  0  0  0  0  0  0
  -25.2857  -13.6749   20.3338 C   0  0  0  0  0  0  0  0  0  0  0  0
  -32.4969  -22.5604   21.0844 C   0  0  0  0  0  0  0  0  0  0  0  0
  -22.9087  -13.5627   21.0993 C   0  0  0  0  0  0  0  0  0  0  0  0
  -28.9739  -23.9056   26.2232 C   0  0  0  0  0  0  0  0  0  0  0  0
  -25.8221  -24.0917   25.4789 C   0  0  0  0  0  0  0  0  0  0  0  0
  -23.8351  -24.3342   22.4771 C   0  0  0  0  0  0  0  0  0  0  0  0
  -30.7637  -14.6617   20.4766 C   0  0  0  0  0  0  0  0  0  0  0  0
  -28.5468  -20.8885   30.3186 C   0  0  0  0  0  0  0  0  0  0  0  0
  -28.7980  -26.2698   25.3656 C   0  0  0  0  0  0  0  0  0  0  0  0
  -27.4498  -24.3472   23.5682 C   0  0  0  0  0  0  0  0  0  0  0  0
  -27.9601  -20.9059   28.9094 C   0  0  0  0  0  0  0  0  0  0  0  0
  -29.6480  -12.0090   18.3800 C   0  0  0  0  0  0  0  0  0  0  0  0
  -32.6255  -23.4605   24.1399 C   0  0  0  0  0  0  0  0  0  0  0  0
  -29.0630  -21.1043   27.8744 C   0  0  0  0  0  0  0  0  0  0  0  0
  -28.1981  -11.7871   18.8166 C   0  0  0  0  0  0  0  0  0  0  0  0
  -33.6783  -23.6083   23.0441 C   0  0  0  0  0  0  0  0  0  0  0  0
  -34.8755  -22.5364   21.0817 C   0  0  0  0  0  0  0  0  0  0  0  0
  -30.5489  -12.3610   19.5625 C   0  0  0  0  0  0  0  0  0  0  0  0
  -34.3881  -23.4579   19.9796 C   0  0  0  0  0  0  0  0  0  0  0  0
  -28.6331  -13.2628   20.8217 C   0  0  0  0  0  0  0  0  0  0  0  0
  -32.7199  -22.1161   24.8407 C   0  0  0  0  0  0  0  0  0  0  0  0
  -33.6960  -21.0781   22.7751 C   0  0  0  0  0  0  0  0  0  0  0  0
  -29.7727  -22.4487   28.0752 C   0  0  1  0  0  0  0  0  0  0  0  0
  -28.0553  -25.0513   25.9049 C   0  0  1  0  0  0  0  0  0  0  0  0
  -27.6749  -12.9695   19.6557 C   0  0  2  0  0  0  0  0  0  0  0  0
  -33.6780  -22.4276   22.0535 C   0  0  2  0  0  0  0  0  0  0  0  0
  -21.5581  -25.3205   22.1031 C   0  0  0  0  0  0  0  0  0  0  0  0
  -24.8309  -21.2425   25.9364 C   0  0  0  0  0  0  0  0  0  0  0  0
  -23.1295  -21.6200   24.1390 C   0  0  0  0  0  0  0  0  0  0  0  0
  -23.0839  -23.0112   26.2091 C   0  0  0  0  0  0  0  0  0  0  0  0
  -24.8300  -26.1106   20.3293 C   0  0  0  0  0  0  0  0  0  0  0  0
  -32.5429  -19.6595   24.4713 C   0  0  0  0  0  0  0  0  0  0  0  0
  -32.2966  -25.1096   18.5328 C   0  0  0  0  0  0  0  0  0  0  0  0
  -32.1577  -23.6203   18.8182 C   0  0  0  0  0  0  0  0  0  0  0  0
  -31.8568  -25.9811   19.7030 C   0  0  0  0  0  0  0  0  0  1  0  0
  -24.9108  -23.3880   24.5024 C   0  0  1  0  0  0  0  0  0  0  0  0
  -23.0582  -25.5468   21.9971 C   0  0  2  0  0  0  0  0  0  0  0  0
  -29.6330  -19.6188   24.0924 C   0  0  0  0  0  0  0  0  0  0  0  0
  -24.0165  -22.3189   25.1914 C   0  0  0  0  0  0  0  0  0  0  0  0
  -25.8559  -11.4798   20.3993 N   0  0  0  0  0  0  0  0  0  0  0  0
  -26.2536  -12.7354   20.1322 N   0  0  0  0  0  0  0  0  0  0  0  0
  -32.9705  -23.1960   19.9375 N   0  0  0  0  0  0  0  0  0  0  0  0
  -27.0480  -24.5442   24.9708 N   0  0  0  0  0  0  0  0  0  0  0  0
  -29.9926  -13.4921   20.3081 N   0  0  0  0  0  0  0  0  0  0  0  0
  -25.5169  -14.9865   20.1135 N   0  0  0  0  0  0  0  0  0  0  0  0
  -21.8786  -12.7112   21.5213 N   0  0  0  0  0  0  0  0  0  0  0  0
  -30.1184  -15.6822   21.1742 N   0  0  0  0  0  0  0  0  0  0  0  0
  -28.9646  -23.5297   27.5529 N   0  0  0  0  0  0  0  0  0  0  0  0
  -24.1658  -24.4352   23.8119 N   0  0  0  0  0  0  0  0  0  0  0  0
  -32.6054  -21.0140   23.8195 N   0  3  1  0  0  0  0  0  0  0  0  0
  -23.3892  -25.8443   20.5748 N   0  3  0  0  0  0  0  0  0  0  0  0
  -31.3485  -22.2093   21.3157 O   0  0  0  0  0  0  0  0  0  0  0  0
  -22.6900  -14.7949   21.0128 O   0  0  0  0  0  0  0  0  0  0  0  0
  -29.6405  -23.3991   25.3283 O   0  0  0  0  0  0  0  0  0  0  0  0
  -25.4565  -24.2409   26.6475 O   0  0  0  0  0  0  0  0  0  0  0  0
  -24.1169  -23.3900   21.7425 O   0  0  0  0  0  0  0  0  0  0  0  0
  -31.9018  -14.7613   20.0111 O   0  0  0  0  0  0  0  0  0  0  0  0
  -21.5215   -7.1998   22.2546 O   0  0  0  0  0  0  0  0  0  0  0  0
  -30.4855  -25.7236   19.9752 O   0  0  0  0  0  0  0  0  0  1  0  0
  -20.5507   -6.4307   27.6277 F   0  0  0  0  0  0  0  0  0  0  0  0
  -22.3558   -4.8937   23.5307 F   0  0  0  0  0  0  0  0  0  0  0  0
  -28.3057  -19.4619   23.8144 F   0  0  0  0  0  0  0  0  0  0  0  0
  -29.7174  -19.6044   25.4548 F   0  0  0  0  0  0  0  0  0  0  0  0
  -29.9389  -20.8944   23.7182 F   0  0  0  0  0  0  0  0  0  0  0  0
  1  2  1  0  0  0  0
  1  5  2  0  0  0  0
  2  6  2  0  0  0  0
  3 10  2  0  0  0  0
  3 18  1  0  0  0  0
  4 11  1  0  0  0  0
  4 18  2  0  0  0  0
  5 20  1  0  0  0  0
  6 22  1  0  0  0  0
  7 12  2  0  0  0  0
  7 21  1  0  0  0  0
  8  9  2  0  0  0  0
  8 24  1  0  0  0  0
  9 26  1  0  0  0  0
 10 27  1  0  0  0  0
 11 27  2  0  0  0  0
 12 28  1  0  0  0  0
 13 14  2  0  0  0  0
 13 29  1  0  0  0  0
 14 30  1  0  0  0  0
 15 23  1  0  0  0  0
 15 28  2  0  0  0  0
 16 25  1  0  0  0  0
 16 26  2  0  0  0  0
 17 30  2  0  0  0  0
 17 31  1  0  0  0  0
 18 32  1  0  0  0  0
 19 32  1  0  0  0  0
 19 33  2  0  0  0  0
 19 35  1  0  0  0  0
 20 22  2  0  0  0  0
 20 40  1  0  0  0  0
 21 23  2  0  0  0  0
 21 41  1  0  0  0  0
 22 55  1  0  0  0  0
 23 42  1  0  0  0  0
 24 25  2  0  0  0  0
 24 64  1  0  0  0  0
 25 70  1  0  0  0  0
 26 79  1  0  0  0  0
 27 90  1  0  0  0  0
 28 91  1  0  0  0  0
 29 31  2  0  0  0  0
 29 90  1  0  0  0  0
 30 92  1  0  0  0  0
 31 93  1  0  0  0  0
 32 72  2  0  0  0  0
 33 73  1  0  0  0  0
 33 77  1  0  0  0  0
 34 58  1  0  0  0  0
 34 74  1  0  0  0  0
 34 84  2  0  0  0  0
 35 78  1  0  0  0  0
 35 85  2  0  0  0  0
 36 56  1  0  0  0  0
 36 80  1  0  0  0  0
 36 86  2  0  0  0  0
 37 68  1  0  0  0  0
 37 75  1  0  0  0  0
 37 87  2  0  0  0  0
 38 69  1  0  0  0  0
 38 81  1  0  0  0  0
 38 88  2  0  0  0  0
 39 76  1  0  0  0  0
 39 79  1  0  0  0  0
 39 89  2  0  0  0  0
 40 43  1  0  0  0  0
 41 56  1  0  0  0  0
 42 75  1  0  0  0  0
 43 46  1  0  0  0  0
 44 47  1  0  0  0  0
 44 50  1  0  0  0  0
 45 48  1  0  0  0  0
 45 53  1  0  0  0  0
 46 55  1  0  0  0  0
 47 57  1  0  0  0  0
 48 58  1  0  0  0  0
 49 51  1  0  0  0  0
 49 58  1  0  0  0  0
 50 76  1  0  0  0  0
 51 74  1  0  0  0  0
 52 57  1  0  0  0  0
 52 76  1  0  0  0  0
 53 82  1  0  0  0  0
 54 58  1  0  0  0  0
 54 82  1  0  0  0  0
 55 80  1  0  0  0  0
 56 75  1  0  0  0  0
 57 73  1  0  0  0  0
 59 69  1  0  0  0  0
 60 71  1  0  0  0  0
 61 71  1  0  0  0  0
 62 71  1  0  0  0  0
 63 83  1  0  0  0  0
 64 82  1  0  0  0  0
 65 66  1  0  0  0  0
 65 67  1  0  0  0  0
 66 74  1  0  0  0  0
 67 91  1  0  0  0  0
 68 71  1  0  0  0  0
 68 81  1  0  0  0  0
 69 83  1  0  0  0  0
 70 94  1  0  0  0  0
 70 95  1  0  0  0  0
 70 96  1  0  0  0  0
 72 73  1  0  0  0  0
M  CHG  2  82   1  83   1
M  ISO  4  39 100  67 101  79 100  91 101
M  END
> <Batch ID>
0025

> <Smiles>
CNC(C)C(=O)NC(C(=O)N1Cc2cc([101O:1][101CH2:1]CCN3CCC4(CCCN(Cc5ccc([100NH:0][100C:0](=O)N6CCCC(n7nc(-c8ccc(Oc9ccc(F)cc9F)cc8)c(C(N)=O)c7N)C6)cc5C(F)(F)F)C4)C3=O)ccc2CC1C(=O)NC1CCCc2ccccc21)C(C)(C)C

> <Shape>
0.199

> <Color>
0.181

> <Negative vol penalty>
0.000

$$$$

  -OEChem-04042321223D

 88 97  0     1  0  0  0  0  0999 V2000
  -16.5674  -29.4331   24.0598 C   0  0  0  0  0  0  0  0  0  0  0  0
  -16.9569  -29.3520   22.7277 C   0  0  0  0  0  0  0  0  0  0  0  0
  -24.9231  -14.2528   20.9440 C   0  0  0  0  0  0  0  0  0  0  0  0
  -26.4385  -12.4761   20.3240 C   0  0  0  0  0  0  0  0  0  0  0  0
  -17.5196  -29.6794   25.0467 C   0  0  0  0  0  0  0  0  0  0  0  0
  -18.3003  -29.5052   22.3832 C   0  0  0  0  0  0  0  0  0  0  0  0
  -25.8879  -29.1762   18.9593 C   0  0  0  0  0  0  0  0  0  0  0  0
  -24.1051  -13.3284   21.5935 C   0  0  0  0  0  0  0  0  0  0  0  0
  -25.6204  -11.5517   20.9736 C   0  0  0  0  0  0  0  0  0  0  0  0
  -27.1897  -29.1754   19.4582 C   0  0  0  0  0  0  0  0  0  0  0  0
  -22.7301   -9.9122   20.3501 C   0  0  0  0  0  0  0  0  0  0  0  0
  -22.4488   -8.7175   19.6874 C   0  0  0  0  0  0  0  0  0  0  0  0
  -26.4915  -27.7330   21.2613 C   0  0  0  0  0  0  0  0  0  0  0  0
  -30.2540  -23.7254   19.1325 C   0  0  0  0  0  0  0  0  0  0  0  0
  -32.2847  -22.1680   20.2431 C   0  0  0  0  0  0  0  0  0  0  0  0
  -23.4630   -7.4760   21.4949 C   0  0  0  0  0  0  0  0  0  0  0  0
  -26.0898  -13.8266   20.3092 C   0  0  0  0  0  0  0  0  0  0  0  0
  -26.5837  -15.6187   18.5621 C   0  0  0  0  0  0  0  0  0  0  0  0
  -18.8733  -29.8479   24.7119 C   0  0  0  0  0  0  0  0  0  0  0  0
  -24.8740  -28.4630   19.6149 C   0  0  0  0  0  0  0  0  0  0  0  0
  -19.2799  -29.7306   23.3672 C   0  0  0  0  0  0  0  0  0  0  0  0
  -25.1781  -27.7243   20.7672 C   0  0  0  0  0  0  0  0  0  0  0  0
  -31.3120  -24.3359   19.8059 C   0  0  0  0  0  0  0  0  0  0  0  0
  -31.2266  -21.5575   19.5698 C   0  0  0  0  0  0  0  0  0  0  0  0
  -24.4537  -11.9779   21.6083 C   0  0  0  0  0  0  0  0  0  0  0  0
  -27.4911  -28.4561   20.6110 C   0  0  0  0  0  0  0  0  0  0  0  0
  -23.3779   -9.8888   21.5852 C   0  0  0  0  0  0  0  0  0  0  0  0
  -22.8152   -7.4994   20.2598 C   0  0  0  0  0  0  0  0  0  0  0  0
  -23.7443   -8.6707   22.1576 C   0  0  0  0  0  0  0  0  0  0  0  0
  -30.2113  -22.3362   19.0145 C   0  0  0  0  0  0  0  0  0  0  0  0
  -32.3274  -23.5573   20.3612 C   0  0  0  0  0  0  0  0  0  0  0  0
  -26.9350  -14.7809   19.6375 C   0  0  0  0  0  0  0  0  0  0  0  0
  -27.7281  -16.3286   18.2919 C   0  0  0  0  0  0  0  0  0  0  0  0
  -30.7812  -26.4277   20.8972 C   0  0  0  0  0  0  0  0  0  0  0  0
  -25.3346  -15.7441   17.8695 C   0  0  0  0  0  0  0  0  0  0  0  0
  -22.1369  -29.2443   21.0297 C   0  0  0  0  0  0  0  0  0  0  0  0
  -21.7851  -26.0273   21.2532 C   0  0  0  0  0  0  0  0  0  0  0  0
  -23.8803  -23.1975   22.0404 C   0  0  0  0  0  0  0  0  0  0  0  0
  -32.1581  -19.2521   19.9743 C   0  0  0  0  0  0  0  0  0  0  0  0
  -19.8630  -30.1047   25.8209 C   0  0  0  0  0  0  0  0  0  0  0  0
  -23.4804  -28.4522   19.0489 C   0  0  0  0  0  0  0  0  0  0  0  0
  -24.1300  -26.9257   21.4969 C   0  0  0  0  0  0  0  0  0  0  0  0
  -21.1788  -30.6908   25.3196 C   0  0  0  0  0  0  0  0  0  0  0  0
  -32.4640  -15.7048   19.9663 C   0  0  0  0  0  0  0  0  0  0  0  0
  -21.7024  -29.8687   24.1514 C   0  0  0  0  0  0  0  0  0  0  0  0
  -31.0239  -15.2171   19.7915 C   0  0  0  0  0  0  0  0  0  0  0  0
  -32.1950  -27.8602   19.6589 C   0  0  0  0  0  0  0  0  0  0  0  0
  -32.5373  -16.9545   20.8417 C   0  0  0  0  0  0  0  0  0  0  0  0
  -31.9514  -26.5695   18.8870 C   0  0  0  0  0  0  0  0  0  0  0  0
  -30.2286  -17.5729   20.2443 C   0  0  0  0  0  0  0  0  0  0  0  0
  -20.7309  -29.9243   22.9656 C   0  0  1  0  0  0  0  0  0  0  0  0
  -31.0579  -27.8800   20.6840 C   0  0  1  0  0  0  0  0  0  0  0  0
  -22.4166  -28.1083   20.0869 C   0  0  1  0  0  0  0  0  0  0  0  0
  -30.0977  -16.3538   19.3166 C   0  0  2  0  0  0  0  0  0  0  0  0
  -28.9120  -24.6445   23.5283 C   0  0  0  0  0  0  0  0  0  0  0  0
  -23.7055  -20.7936   21.3418 C   0  0  0  0  0  0  0  0  0  0  0  0
  -20.2758  -25.6745   23.8814 C   0  0  0  0  0  0  0  0  0  0  0  0
  -21.4183  -23.4643   24.1602 C   0  0  0  0  0  0  0  0  0  0  0  0
  -19.9068  -23.8482   22.2133 C   0  0  0  0  0  0  0  0  0  0  0  0
  -26.6291  -23.1957   20.9437 C   0  0  0  0  0  0  0  0  0  0  0  0
  -29.8211  -28.5993   20.1564 C   0  0  0  0  0  0  0  0  0  1  0  0
  -29.7266  -24.7050   22.2539 C   0  0  0  0  0  0  0  0  0  0  0  0
  -22.1679  -24.9780   22.2687 C   0  0  1  0  0  0  0  0  0  0  0  0
  -24.3719  -22.1343   21.0749 C   0  0  2  0  0  0  0  0  0  0  0  0
  -20.9574  -24.5151   23.1277 C   0  0  0  0  0  0  0  0  0  0  0  0
  -28.2033  -14.9423   20.0239 N   0  0  0  0  0  0  0  0  0  0  0  0
  -28.6591  -15.8897   19.1867 N   0  0  0  0  0  0  0  0  0  0  0  0
  -31.3289  -25.7062   19.9073 N   0  0  0  0  0  0  0  0  0  0  0  0
  -22.7810  -26.9518   20.9079 N   0  0  0  0  0  0  0  0  0  0  0  0
  -31.6372  -17.9897   20.3288 N   0  0  0  0  0  0  0  0  0  0  0  0
  -28.0187  -17.2791   17.3784 N   0  0  0  0  0  0  0  0  0  0  0  0
  -24.2616  -14.9393   18.2758 N   0  0  0  0  0  0  0  0  0  0  0  0
  -31.2134  -20.1443   19.4683 N   0  0  0  0  0  0  0  0  0  0  0  0
  -21.1549  -28.9720   21.9630 N   0  0  0  0  0  0  0  0  0  0  0  0
  -22.8161  -23.9050   21.5224 N   0  0  0  0  0  0  0  0  0  0  0  0
  -30.0530  -26.0969   21.9564 N   0  3  0  0  0  0  0  0  0  0  0  0
  -25.8464  -21.9600   21.2032 N   0  3  0  0  0  0  0  0  0  0  0  0
  -25.1796  -16.5344   16.9077 O   0  0  0  0  0  0  0  0  0  0  0  0
  -22.7665  -30.2898   20.9196 O   0  0  0  0  0  0  0  0  0  0  0  0
  -20.6466  -26.0224   20.7783 O   0  0  0  0  0  0  0  0  0  0  0  0
  -24.3870  -23.3796   23.1452 O   0  0  0  0  0  0  0  0  0  0  0  0
  -33.3589  -19.5127   20.0842 O   0  0  0  0  0  0  0  0  0  0  0  0
  -23.6558  -11.0757   22.2423 O   0  0  0  0  0  0  0  0  0  0  0  0
  -28.7608  -28.4542   21.1004 O   0  0  0  0  0  0  0  0  0  1  0  0
  -22.5436   -6.3522   19.6239 F   0  0  0  0  0  0  0  0  0  0  0  0
  -24.3658   -8.6418   23.3445 F   0  0  0  0  0  0  0  0  0  0  0  0
  -28.8836  -21.6217   18.1710 Cl  0  0  0  0  0  0  0  0  0  0  0  0
  -33.6511  -24.2809   21.2008 Cl  0  0  0  0  0  0  0  0  0  0  0  0
  1  2  1  0  0  0  0
  1  5  2  0  0  0  0
  2  6  2  0  0  0  0
  3  8  2  0  0  0  0
  3 17  1  0  0  0  0
  4  9  1  0  0  0  0
  4 17  2  0  0  0  0
  5 19  1  0  0  0  0
  6 21  1  0  0  0  0
  7 10  2  0  0  0  0
  7 20  1  0  0  0  0
  8 25  1  0  0  0  0
  9 25  2  0  0  0  0
 10 26  1  0  0  0  0
 11 12  2  0  0  0  0
 11 27  1  0  0  0  0
 12 28  1  0  0  0  0
 13 22  1  0  0  0  0
 13 26  2  0  0  0  0
 14 23  1  0  0  0  0
 14 30  2  0  0  0  0
 15 24  2  0  0  0  0
 15 31  1  0  0  0  0
 16 28  2  0  0  0  0
 16 29  1  0  0  0  0
 17 32  1  0  0  0  0
 18 32  1  0  0  0  0
 18 33  2  0  0  0  0
 18 35  1  0  0  0  0
 19 21  2  0  0  0  0
 19 40  1  0  0  0  0
 20 22  2  0  0  0  0
 20 41  1  0  0  0  0
 21 51  1  0  0  0  0
 22 42  1  0  0  0  0
 23 31  2  0  0  0  0
 23 68  1  0  0  0  0
 24 30  1  0  0  0  0
 24 73  1  0  0  0  0
 25 83  1  0  0  0  0
 26 84  1  0  0  0  0
 27 29  2  0  0  0  0
 27 83  1  0  0  0  0
 28 85  1  0  0  0  0
 29 86  1  0  0  0  0
 30 87  1  0  0  0  0
 31 88  1  0  0  0  0
 32 66  2  0  0  0  0
 33 67  1  0  0  0  0
 33 71  1  0  0  0  0
 34 52  1  0  0  0  0
 34 68  1  0  0  0  0
 34 76  2  0  0  0  0
 35 72  1  0  0  0  0
 35 78  2  0  0  0  0
 36 53  1  0  0  0  0
 36 74  1  0  0  0  0
 36 79  2  0  0  0  0
 37 63  1  0  0  0  0
 37 69  1  0  0  0  0
 37 80  2  0  0  0  0
 38 64  1  0  0  0  0
 38 75  1  0  0  0  0
 38 81  2  0  0  0  0
 39 70  1  0  0  0  0
 39 73  1  0  0  0  0
 39 82  2  0  0  0  0
 40 43  1  0  0  0  0
 41 53  1  0  0  0  0
 42 69  1  0  0  0  0
 43 45  1  0  0  0  0
 44 46  1  0  0  0  0
 44 48  1  0  0  0  0
 45 51  1  0  0  0  0
 46 54  1  0  0  0  0
 47 49  1  0  0  0  0
 47 52  1  0  0  0  0
 48 70  1  0  0  0  0
 49 68  1  0  0  0  0
 50 54  1  0  0  0  0
 50 70  1  0  0  0  0
 51 74  1  0  0  0  0
 52 61  1  0  0  0  0
 53 69  1  0  0  0  0
 54 67  1  0  0  0  0
 55 62  1  0  0  0  0
 56 64  1  0  0  0  0
 57 65  1  0  0  0  0
 58 65  1  0  0  0  0
 59 65  1  0  0  0  0
 60 77  1  0  0  0  0
 61 84  1  0  0  0  0
 62 76  1  0  0  0  0
 63 65  1  0  0  0  0
 63 75  1  0  0  0  0
 64 77  1  0  0  0  0
 66 67  1  0  0  0  0
M  CHG  2  76   1  77   1
M  ISO  4  39 100  61 101  73 100  84 101
M  END
> <Batch ID>
0025

> <Smiles>
CCN=C1C([101CH2:1][101O:1]c2ccc3c(c2)CN(C(=O)C(NC(=O)C(C)NC)C(C)(C)C)C(C(=O)NC2CCCc4ccccc42)C3)CCN1c1cc(Cl)c([100NH:0][100C:0](=O)N2CCCC(n3nc(-c4ccc(Oc5ccc(F)cc5F)cc4)c(C(N)=O)c3N)C2)cc1Cl

> <Shape>
0.254

> <Color>
0.078

> <Negative vol penalty>
0.000

$$$$

  -OEChem-04042321223D

 89 98  0     1  0  0  0  0  0999 V2000
  -34.4154  -15.5506   22.8026 C   0  0  0  0  0  0  0  0  0  0  0  0
  -33.3783  -16.3520   22.3360 C   0  0  0  0  0  0  0  0  0  0  0  0
  -32.3828  -25.5594   21.2870 C   0  0  0  0  0  0  0  0  0  0  0  0
  -25.3953  -29.7009   22.7611 C   0  0  0  0  0  0  0  0  0  0  0  0
  -24.2172  -30.8444   20.9887 C   0  0  0  0  0  0  0  0  0  0  0  0
  -34.4444  -14.1938   22.4829 C   0  0  0  0  0  0  0  0  0  0  0  0
  -32.3702  -15.7972   21.5484 C   0  0  0  0  0  0  0  0  0  0  0  0
  -27.7486  -17.3176   22.9535 C   0  0  0  0  0  0  0  0  0  0  0  0
  -31.7873  -24.8603   22.3369 C   0  0  0  0  0  0  0  0  0  0  0  0
  -31.9138  -25.3933   19.9838 C   0  0  0  0  0  0  0  0  0  0  0  0
  -24.9681  -30.6690   23.6698 C   0  0  0  0  0  0  0  0  0  0  0  0
  -23.7898  -31.8125   21.8974 C   0  0  0  0  0  0  0  0  0  0  0  0
  -27.3490  -18.5923   22.5545 C   0  0  0  0  0  0  0  0  0  0  0  0
  -25.8196  -33.8246   24.5309 C   0  0  0  0  0  0  0  0  0  0  0  0
  -26.7619  -34.3350   25.4238 C   0  0  0  0  0  0  0  0  0  0  0  0
  -26.0771  -17.6217   20.7491 C   0  0  0  0  0  0  0  0  0  0  0  0
  -25.4291  -33.5490   27.2794 C   0  0  0  0  0  0  0  0  0  0  0  0
  -25.0199  -29.7886   21.4205 C   0  0  0  0  0  0  0  0  0  0  0  0
  -24.8048  -27.5904   20.1440 C   0  0  0  0  0  0  0  0  0  0  0  0
  -33.4310  -13.6201   21.6990 C   0  0  0  0  0  0  0  0  0  0  0  0
  -27.3236  -16.1842   22.2456 C   0  0  0  0  0  0  0  0  0  0  0  0
  -32.3864  -14.4317   21.2168 C   0  0  0  0  0  0  0  0  0  0  0  0
  -26.4707  -16.3336   21.1427 C   0  0  0  0  0  0  0  0  0  0  0  0
  -30.7230  -23.9950   22.0836 C   0  0  0  0  0  0  0  0  0  0  0  0
  -30.8495  -24.5281   19.7306 C   0  0  0  0  0  0  0  0  0  0  0  0
  -30.2540  -23.8289   20.7804 C   0  0  0  0  0  0  0  0  0  0  0  0
  -24.1653  -31.7248   23.2380 C   0  0  0  0  0  0  0  0  0  0  0  0
  -26.5154  -18.7447   21.4504 C   0  0  0  0  0  0  0  0  0  0  0  0
  -24.6821  -33.1764   25.0122 C   0  0  0  0  0  0  0  0  0  0  0  0
  -26.5666  -34.1972   26.7981 C   0  0  0  0  0  0  0  0  0  0  0  0
  -24.4869  -33.0386   26.3865 C   0  0  0  0  0  0  0  0  0  0  0  0
  -25.4615  -28.7891   20.4812 C   0  0  0  0  0  0  0  0  0  0  0  0
  -25.6258  -26.9987   19.2154 C   0  0  0  0  0  0  0  0  0  0  0  0
  -23.5637  -27.0593   20.6270 C   0  0  0  0  0  0  0  0  0  0  0  0
  -28.7835  -13.8862   20.6050 C   0  0  0  0  0  0  0  0  0  0  0  0
  -25.7956  -12.6324   20.4547 C   0  0  0  0  0  0  0  0  0  0  0  0
  -22.4251  -13.1552   20.5692 C   0  0  0  0  0  0  0  0  0  0  0  0
  -30.4839  -25.4295   17.4404 C   0  0  0  0  0  0  0  0  0  0  0  0
  -33.5303  -12.1586   21.3401 C   0  0  0  0  0  0  0  0  0  0  0  0
  -27.7420  -14.8144   22.7049 C   0  0  0  0  0  0  0  0  0  0  0  0
  -25.9700  -15.1476   20.3610 C   0  0  0  0  0  0  0  0  0  0  0  0
  -32.2241  -11.5708   20.8125 C   0  0  0  0  0  0  0  0  0  0  0  0
  -29.3177  -22.7920   25.3225 C   0  0  0  0  0  0  0  0  0  0  0  0
  -29.0936  -21.5918   24.4250 C   0  0  0  0  0  0  0  0  0  0  0  0
  -29.6274  -28.8043   16.7191 C   0  0  0  0  0  0  0  0  0  0  0  0
  -31.6042  -12.4970   19.7709 C   0  0  0  0  0  0  0  0  0  0  0  0
  -28.4105  -29.0080   17.6210 C   0  0  0  0  0  0  0  0  0  0  0  0
  -29.5032  -23.9289   24.3240 C   0  0  0  0  0  0  0  0  0  0  0  0
  -30.0724  -21.8385   23.2827 C   0  0  0  0  0  0  0  0  0  0  0  0
  -30.7102  -27.9660   17.3993 C   0  0  0  0  0  0  0  0  0  0  0  0
  -29.0082  -26.8707   18.8234 C   0  0  0  0  0  0  0  0  0  0  0  0
  -31.2614  -13.8616   20.3805 C   0  0  1  0  0  0  0  0  0  0  0  0
  -27.6649  -13.7645   21.6007 C   0  0  1  0  0  0  0  0  0  0  0  0
  -27.8794  -27.6617   18.1441 C   0  0  1  0  0  0  0  0  0  0  0  0
  -20.2360  -11.9436   20.3764 C   0  0  0  0  0  0  0  0  0  0  0  0
  -26.1402  -12.4967   17.4260 C   0  0  0  0  0  0  0  0  0  0  0  0
  -23.6623  -12.1989   17.2273 C   0  0  0  0  0  0  0  0  0  0  0  0
  -25.0277  -10.4995   18.4399 C   0  0  0  0  0  0  0  0  0  0  0  0
  -25.4085  -22.7296   20.3399 C   0  0  0  0  0  0  0  0  0  0  0  0
  -27.0937  -21.6127   18.8698 C   0  0  0  0  0  0  0  0  0  0  0  0
  -30.0276  -23.0309   17.9027 C   0  0  0  0  0  0  0  0  0  0  0  0
  -21.6403  -13.8951   23.3252 C   0  0  0  0  0  0  0  0  0  0  0  0
  -27.8111  -23.3779   20.5478 C   0  0  0  0  0  0  0  0  0  0  0  0
  -27.0248  -21.0640   21.3179 C   0  0  0  0  0  0  0  0  0  1  0  0
  -24.6299  -12.7583   19.5037 C   0  0  1  0  0  0  0  0  0  0  0  0
  -21.3194  -12.4377   21.3223 C   0  0  2  0  0  0  0  0  0  0  0  0
  -24.8758  -12.0110   18.1626 C   0  0  0  0  0  0  0  0  0  0  0  0
  -26.8534  -22.1922   20.2762 C   0  0  0  0  0  0  0  0  0  0  0  0
  -26.6110  -28.9508   19.8207 N   0  0  0  0  0  0  0  0  0  0  0  0
  -26.6832  -27.8458   19.0591 N   0  0  0  0  0  0  0  0  0  0  0  0
  -30.1381  -23.2999   23.1593 N   0  0  0  0  0  0  0  0  0  0  0  0
  -26.4120  -13.8295   20.8455 N   0  0  0  0  0  0  0  0  0  0  0  0
  -30.1484  -26.7107   17.9176 N   0  0  0  0  0  0  0  0  0  0  0  0
  -25.5392  -25.8416   18.5255 N   0  0  0  0  0  0  0  0  0  0  0  0
  -22.8473  -27.7963   21.5798 N   0  0  0  0  0  0  0  0  0  0  0  0
  -29.1972  -22.9696   20.5295 N   0  0  0  0  0  0  0  0  0  0  0  0
  -30.0445  -13.7760   21.1592 N   0  0  0  0  0  0  0  0  0  0  0  0
  -23.4543  -12.3003   20.2360 N   0  0  0  0  0  0  0  0  0  0  0  0
  -30.3838  -24.3742   18.3723 N   0  0  0  0  0  0  0  0  0  0  0  0
  -20.6927  -13.3525   22.3179 N   0  3  0  0  0  0  0  0  0  0  0  0
  -23.1118  -25.9558   20.2377 O   0  0  0  0  0  0  0  0  0  0  0  0
  -28.5219  -14.0652   19.4213 O   0  0  0  0  0  0  0  0  0  0  0  0
  -26.1417  -11.5136   20.8422 O   0  0  0  0  0  0  0  0  0  0  0  0
  -22.3785  -14.3535   20.2999 O   0  0  0  0  0  0  0  0  0  0  0  0
  -30.8213  -25.2389   16.2657 O   0  0  0  0  0  0  0  0  0  0  0  0
  -23.7480  -32.6695   24.1245 O   0  0  0  0  0  0  0  0  0  0  0  0
  -26.1243  -19.9878   21.0583 O   0  0  0  0  0  0  0  0  0  1  0  0
  -27.4723  -34.6860   27.6554 F   0  0  0  0  0  0  0  0  0  0  0  0
  -23.3966  -32.4159   26.8548 F   0  0  0  0  0  0  0  0  0  0  0  0
  1  2  1  0  0  0  0
  1  6  2  0  0  0  0
  2  7  2  0  0  0  0
  3  9  1  0  0  0  0
  3 10  2  0  0  0  0
  4 11  2  0  0  0  0
  4 18  1  0  0  0  0
  5 12  1  0  0  0  0
  5 18  2  0  0  0  0
  6 20  1  0  0  0  0
  7 22  1  0  0  0  0
  8 13  2  0  0  0  0
  8 21  1  0  0  0  0
  9 24  2  0  0  0  0
 10 25  1  0  0  0  0
 11 27  1  0  0  0  0
 12 27  2  0  0  0  0
 13 28  1  0  0  0  0
 14 15  2  0  0  0  0
 14 29  1  0  0  0  0
 15 30  1  0  0  0  0
 16 23  1  0  0  0  0
 16 28  2  0  0  0  0
 17 30  2  0  0  0  0
 17 31  1  0  0  0  0
 18 32  1  0  0  0  0
 19 32  1  0  0  0  0
 19 33  2  0  0  0  0
 19 34  1  0  0  0  0
 20 22  2  0  0  0  0
 20 39  1  0  0  0  0
 21 23  2  0  0  0  0
 21 40  1  0  0  0  0
 22 52  1  0  0  0  0
 23 41  1  0  0  0  0
 24 26  1  0  0  0  0
 24 71  1  0  0  0  0
 25 26  2  0  0  0  0
 25 79  1  0  0  0  0
 26 76  1  0  0  0  0
 27 86  1  0  0  0  0
 28 87  1  0  0  0  0
 29 31  2  0  0  0  0
 29 86  1  0  0  0  0
 30 88  1  0  0  0  0
 31 89  1  0  0  0  0
 32 69  2  0  0  0  0
 33 70  1  0  0  0  0
 33 74  1  0  0  0  0
 34 75  1  0  0  0  0
 34 81  2  0  0  0  0
 35 53  1  0  0  0  0
 35 77  1  0  0  0  0
 35 82  2  0  0  0  0
 36 65  1  0  0  0  0
 36 72  1  0  0  0  0
 36 83  2  0  0  0  0
 37 66  1  0  0  0  0
 37 78  1  0  0  0  0
 37 84  2  0  0  0  0
 38 73  1  0  0  0  0
 38 79  1  0  0  0  0
 38 85  2  0  0  0  0
 39 42  1  0  0  0  0
 40 53  1  0  0  0  0
 41 72  1  0  0  0  0
 42 46  1  0  0  0  0
 43 44  1  0  0  0  0
 43 48  1  0  0  0  0
 44 49  1  0  0  0  0
 45 47  1  0  0  0  0
 45 50  1  0  0  0  0
 46 52  1  0  0  0  0
 47 54  1  0  0  0  0
 48 71  1  0  0  0  0
 49 71  1  0  0  0  0
 50 73  1  0  0  0  0
 51 54  1  0  0  0  0
 51 73  1  0  0  0  0
 52 77  1  0  0  0  0
 53 72  1  0  0  0  0
 54 70  1  0  0  0  0
 55 66  1  0  0  0  0
 56 67  1  0  0  0  0
 57 67  1  0  0  0  0
 58 67  1  0  0  0  0
 59 68  1  0  0  0  0
 60 68  1  0  0  0  0
 61 79  1  0  0  0  0
 62 80  1  0  0  0  0
 63 68  1  0  0  0  0
 63 76  1  0  0  0  0
 64 68  1  0  0  0  0
 64 87  1  0  0  0  0
 65 67  1  0  0  0  0
 65 78  1  0  0  0  0
 66 80  1  0  0  0  0
 69 70  1  0  0  0  0
M  CHG  1  80   1
M  ISO  4  38 100  64 101  79 100  87 101
M  END
> <Batch ID>
0025

> <Smiles>
CNC(C)C(=O)NC(C(=O)N1Cc2cc([101O:1][101CH2:1]C(C)(C)CNc3c(N4CCCC4)cccc3[100N:0](C)[100C:0](=O)N3CCCC(n4nc(-c5ccc(Oc6ccc(F)cc6F)cc5)c(C(N)=O)c4N)C3)ccc2CC1C(=O)NC1CCCc2ccccc21)C(C)(C)C

> <Shape>
0.242

> <Color>
0.064

> <Negative vol penalty>
0.000

$$$$

  -OEChem-04042321223D

 90 98  0     1  0  0  0  0  0999 V2000
  -28.2634  -24.4273   17.0487 C   0  0  0  0  0  0  0  0  0  0  0  0
  -27.1429  -24.5587   17.8627 C   0  0  0  0  0  0  0  0  0  0  0  0
  -25.0981   -8.9489   20.3428 C   0  0  0  0  0  0  0  0  0  0  0  0
  -24.0892   -9.6551   22.4214 C   0  0  0  0  0  0  0  0  0  0  0  0
  -29.4410  -25.1001   17.3718 C   0  0  0  0  0  0  0  0  0  0  0  0
  -27.1997  -25.3621   19.0010 C   0  0  0  0  0  0  0  0  0  0  0  0
  -23.1241  -28.3274   19.4916 C   0  0  0  0  0  0  0  0  0  0  0  0
  -24.9213   -7.6150   20.7101 C   0  0  0  0  0  0  0  0  0  0  0  0
  -23.9123   -8.3211   22.7887 C   0  0  0  0  0  0  0  0  0  0  0  0
  -21.9597  -27.7341   19.9773 C   0  0  0  0  0  0  0  0  0  0  0  0
  -22.8673   -5.1014   24.1152 C   0  0  0  0  0  0  0  0  0  0  0  0
  -21.6355   -4.7351   24.6573 C   0  0  0  0  0  0  0  0  0  0  0  0
  -22.4211  -28.6353   22.1669 C   0  0  0  0  0  0  0  0  0  0  0  0
  -24.5911  -19.4726   22.6044 C   0  0  0  0  0  0  0  0  0  0  0  0
  -26.5919  -19.3866   21.2530 C   0  0  0  0  0  0  0  0  0  0  0  0
  -25.2274  -21.3804   21.2656 C   0  0  0  0  0  0  0  0  0  0  0  0
  -20.5322   -5.4399   22.6268 C   0  0  0  0  0  0  0  0  0  0  0  0
  -24.6821   -9.9690   21.1984 C   0  0  0  0  0  0  0  0  0  0  0  0
  -23.9634  -12.1596   20.1064 C   0  0  0  0  0  0  0  0  0  0  0  0
  -29.5094  -25.9199   18.5093 C   0  0  0  0  0  0  0  0  0  0  0  0
  -23.9528  -29.0713   20.3438 C   0  0  0  0  0  0  0  0  0  0  0  0
  -28.3798  -26.0454   19.3404 C   0  0  0  0  0  0  0  0  0  0  0  0
  -23.5941  -29.2392   21.6889 C   0  0  0  0  0  0  0  0  0  0  0  0
  -25.7128  -18.7793   22.1497 C   0  0  0  0  0  0  0  0  0  0  0  0
  -24.3483  -20.7731   22.1623 C   0  0  0  0  0  0  0  0  0  0  0  0
  -24.3284   -7.3011   21.9330 C   0  0  0  0  0  0  0  0  0  0  0  0
  -21.6096  -27.8855   21.3158 C   0  0  0  0  0  0  0  0  0  0  0  0
  -22.9316   -5.6371   22.8288 C   0  0  0  0  0  0  0  0  0  0  0  0
  -20.4679   -4.9043   23.9132 C   0  0  0  0  0  0  0  0  0  0  0  0
  -21.7641   -5.8063   22.0846 C   0  0  0  0  0  0  0  0  0  0  0  0
  -26.3492  -20.6872   20.8109 C   0  0  0  0  0  0  0  0  0  0  0  0
  -24.8650  -11.3471   20.8198 C   0  0  0  0  0  0  0  0  0  0  0  0
  -24.6004  -13.3721   20.0047 C   0  0  0  0  0  0  0  0  0  0  0  0
  -22.6660  -11.8462   19.5827 C   0  0  0  0  0  0  0  0  0  0  0  0
  -26.9588  -28.8068   21.3425 C   0  0  0  0  0  0  0  0  0  0  0  0
  -26.3512  -31.6899   22.6993 C   0  0  0  0  0  0  0  0  0  0  0  0
  -22.8180  -22.7685   22.2875 C   0  0  0  0  0  0  0  0  0  0  0  0
  -24.0436  -33.8933   23.9104 C   0  0  0  0  0  0  0  0  0  0  0  0
  -28.2032  -16.5493   23.4701 C   0  0  0  0  0  0  0  0  0  0  0  0
  -30.8187  -26.5897   18.8437 C   0  0  0  0  0  0  0  0  0  0  0  0
  -25.1915  -29.7273   19.7981 C   0  0  0  0  0  0  0  0  0  0  0  0
  -24.4391  -30.0450   22.6403 C   0  0  0  0  0  0  0  0  0  0  0  0
  -30.6826  -27.7186   19.8622 C   0  0  0  0  0  0  0  0  0  0  0  0
  -29.2802  -14.9060   20.3330 C   0  0  0  0  0  0  0  0  0  0  0  0
  -29.8134  -27.2773   21.0354 C   0  0  0  0  0  0  0  0  0  0  0  0
  -28.1972  -13.8493   20.1217 C   0  0  0  0  0  0  0  0  0  0  0  0
  -29.4715  -15.2345   21.8105 C   0  0  0  0  0  0  0  0  0  0  0  0
  -27.1359  -14.5821   22.2936 C   0  0  0  0  0  0  0  0  0  0  0  0
  -28.3948  -26.9274   20.5700 C   0  0  1  0  0  0  0  0  0  0  0  0
  -26.2287  -30.0337   20.8740 C   0  0  1  0  0  0  0  0  0  0  0  0
  -26.8857  -14.2622   20.8122 C   0  0  2  0  0  0  0  0  0  0  0  0
  -23.8522  -36.1509   24.9892 C   0  0  0  0  0  0  0  0  0  0  0  0
  -17.8780  -25.6961   22.3982 C   0  0  0  0  0  0  0  0  0  0  0  0
  -27.2908  -30.5013   25.3477 C   0  0  0  0  0  0  0  0  0  0  0  0
  -26.2041  -32.4292   26.5185 C   0  0  0  0  0  0  0  0  0  0  0  0
  -28.0726  -32.8374   24.9170 C   0  0  0  0  0  0  0  0  0  0  0  0
  -27.0015  -18.3532   24.6454 C   0  0  0  0  0  0  0  0  0  0  0  0
  -22.4313  -34.9567   21.6679 C   0  0  0  0  0  0  0  0  0  0  0  0
  -22.3909  -24.9784   24.4450 C   0  0  0  0  0  0  0  0  0  0  0  0
  -25.9719  -17.3885   22.6218 C   0  0  0  0  0  0  0  0  0  0  0  0
  -21.5382  -23.1351   23.0043 C   0  0  0  0  0  0  0  0  0  0  0  0
  -20.0871  -25.0953   23.5066 C   0  0  0  0  0  0  0  0  0  0  0  0
  -20.0487  -26.0974   21.1660 C   0  0  0  0  0  0  0  0  0  1  0  0
  -25.8067  -32.1521   24.0293 C   0  0  1  0  0  0  0  0  0  0  0  0
  -23.8524  -35.3811   23.6776 C   0  0  2  0  0  0  0  0  0  0  0  0
  -19.3179  -25.2153   22.1860 C   0  0  2  0  0  0  0  0  0  0  0  0
  -26.8284  -31.9631   25.1859 C   0  0  0  0  0  0  0  0  0  0  0  0
  -25.9892  -11.9894   21.1479 N   0  0  0  0  0  0  0  0  0  0  0  0
  -25.7983  -13.2182   20.6383 N   0  0  0  0  0  0  0  0  0  0  0  0
  -25.6438  -30.6615   22.0606 N   0  0  0  0  0  0  0  0  0  0  0  0
  -28.2031  -15.5814   22.4522 N   0  0  0  0  0  0  0  0  0  0  0  0
  -24.2472  -14.5443   19.4358 N   0  0  0  0  0  0  0  0  0  0  0  0
  -22.1618  -10.5530   19.7764 N   0  0  0  0  0  0  0  0  0  0  0  0
  -23.2097  -21.4760   22.6229 N   0  0  0  0  0  0  0  0  0  0  0  0
  -27.6272  -28.1322   20.3386 N   0  0  0  0  0  0  0  0  0  0  0  0
  -25.3719  -33.5311   23.8354 N   0  0  0  0  0  0  0  0  0  0  0  0
  -27.0452  -17.3287   23.6117 N   0  0  0  0  0  0  0  0  0  0  0  0
  -22.5582  -35.6348   22.9836 N   0  3  0  0  0  0  0  0  0  0  0  0
  -21.4740  -24.6136   23.3027 N   0  3  1  0  0  0  0  0  0  0  0  0
  -21.9813  -12.6833   18.9470 O   0  0  0  0  0  0  0  0  0  0  0  0
  -26.9200  -28.4961   22.5272 O   0  0  0  0  0  0  0  0  0  0  0  0
  -27.3627  -32.2266   22.2405 O   0  0  0  0  0  0  0  0  0  0  0  0
  -23.3818  -23.5464   21.5250 O   0  0  0  0  0  0  0  0  0  0  0  0
  -23.1085  -33.1294   24.1398 O   0  0  0  0  0  0  0  0  0  0  0  0
  -29.1862  -16.7141   24.2040 O   0  0  0  0  0  0  0  0  0  0  0  0
  -24.1555   -5.9995   22.2917 O   0  0  0  0  0  0  0  0  0  0  0  0
  -20.4740  -27.3069   21.7927 O   0  0  0  0  0  0  0  0  0  1  0  0
  -19.2852   -4.5511   24.4333 F   0  0  0  0  0  0  0  0  0  0  0  0
  -21.8197   -6.3193   20.8479 F   0  0  0  0  0  0  0  0  0  0  0  0
  -27.4326  -21.4360   19.7030 Cl  0  0  0  0  0  0  0  0  0  0  0  0
  1  2  1  0  0  0  0
  1  5  2  0  0  0  0
  2  6  2  0  0  0  0
  3  8  2  0  0  0  0
  3 18  1  0  0  0  0
  4  9  1  0  0  0  0
  4 18  2  0  0  0  0
  5 20  1  0  0  0  0
  6 22  1  0  0  0  0
  7 10  2  0  0  0  0
  7 21  1  0  0  0  0
  8 26  1  0  0  0  0
  9 26  2  0  0  0  0
 10 27  1  0  0  0  0
 11 12  2  0  0  0  0
 11 28  1  0  0  0  0
 12 29  1  0  0  0  0
 13 23  1  0  0  0  0
 13 27  2  0  0  0  0
 14 24  1  0  0  0  0
 14 25  2  0  0  0  0
 15 24  2  0  0  0  0
 15 31  1  0  0  0  0
 16 25  1  0  0  0  0
 16 31  2  0  0  0  0
 17 29  2  0  0  0  0
 17 30  1  0  0  0  0
 18 32  1  0  0  0  0
 19 32  1  0  0  0  0
 19 33  2  0  0  0  0
 19 34  1  0  0  0  0
 20 22  2  0  0  0  0
 20 40  1  0  0  0  0
 21 23  2  0  0  0  0
 21 41  1  0  0  0  0
 22 49  1  0  0  0  0
 23 42  1  0  0  0  0
 24 60  1  0  0  0  0
 25 74  1  0  0  0  0
 26 86  1  0  0  0  0
 27 87  1  0  0  0  0
 28 30  2  0  0  0  0
 28 86  1  0  0  0  0
 29 88  1  0  0  0  0
 30 89  1  0  0  0  0
 31 90  1  0  0  0  0
 32 68  2  0  0  0  0
 33 69  1  0  0  0  0
 33 72  1  0  0  0  0
 34 73  1  0  0  0  0
 34 80  2  0  0  0  0
 35 50  1  0  0  0  0
 35 75  1  0  0  0  0
 35 81  2  0  0  0  0
 36 64  1  0  0  0  0
 36 70  1  0  0  0  0
 36 82  2  0  0  0  0
 37 61  1  0  0  0  0
 37 74  1  0  0  0  0
 37 83  2  0  0  0  0
 38 65  1  0  0  0  0
 38 76  1  0  0  0  0
 38 84  2  0  0  0  0
 39 71  1  0  0  0  0
 39 77  1  0  0  0  0
 39 85  2  0  0  0  0
 40 43  1  0  0  0  0
 41 50  1  0  0  0  0
 42 70  1  0  0  0  0
 43 45  1  0  0  0  0
 44 46  1  0  0  0  0
 44 47  1  0  0  0  0
 45 49  1  0  0  0  0
 46 51  1  0  0  0  0
 47 71  1  0  0  0  0
 48 51  1  0  0  0  0
 48 71  1  0  0  0  0
 49 75  1  0  0  0  0
 50 70  1  0  0  0  0
 51 69  1  0  0  0  0
 52 65  1  0  0  0  0
 53 66  1  0  0  0  0
 54 67  1  0  0  0  0
 55 67  1  0  0  0  0
 56 67  1  0  0  0  0
 57 77  1  0  0  0  0
 58 78  1  0  0  0  0
 59 79  1  0  0  0  0
 60 77  1  0  0  0  0
 61 79  1  0  0  0  0
 62 66  1  0  0  0  0
 62 79  1  0  0  0  0
 63 66  1  0  0  0  0
 63 87  1  0  0  0  0
 64 67  1  0  0  0  0
 64 76  1  0  0  0  0
 65 78  1  0  0  0  0
 68 69  1  0  0  0  0
M  CHG  2  78   1  79   1
M  ISO  4  39 100  63 101  77 100  87 101
M  END
> <Batch ID>
0025

> <Smiles>
CNC(C)C(=O)NC(C(=O)N1Cc2cc([101O:1][101CH2:1]C(C)CN(C)CC(=O)Nc3cc(Cl)cc(C[100N:0](C)[100C:0](=O)N4CCCC(n5nc(-c6ccc(Oc7ccc(F)cc7F)cc6)c(C(N)=O)c5N)C4)c3)ccc2CC1C(=O)NC1CCCc2ccccc21)C(C)(C)C

> <Shape>
0.320

> <Color>
0.098

> <Negative vol penalty>
0.000

$$$$

  -OEChem-04042321223D

 86 95  0     1  0  0  0  0  0999 V2000
  -31.3553  -35.2709   21.3784 C   0  0  0  0  0  0  0  0  0  0  0  0
  -31.1279  -33.9875   20.8922 C   0  0  0  0  0  0  0  0  0  0  0  0
  -24.0624   -9.6066   20.6112 C   0  0  0  0  0  0  0  0  0  0  0  0
  -24.5959  -10.2627   22.8743 C   0  0  0  0  0  0  0  0  0  0  0  0
  -30.7319  -35.6909   22.5527 C   0  0  0  0  0  0  0  0  0  0  0  0
  -30.2777  -33.1228   21.5806 C   0  0  0  0  0  0  0  0  0  0  0  0
  -26.5383  -28.9266   19.1486 C   0  0  0  0  0  0  0  0  0  0  0  0
  -23.6525   -8.3550   21.0706 C   0  0  0  0  0  0  0  0  0  0  0  0
  -24.1860   -9.0111   23.3338 C   0  0  0  0  0  0  0  0  0  0  0  0
  -26.6647  -27.5501   18.9673 C   0  0  0  0  0  0  0  0  0  0  0  0
  -20.9343   -7.0218   22.5762 C   0  0  0  0  0  0  0  0  0  0  0  0
  -19.7377   -6.5079   22.0766 C   0  0  0  0  0  0  0  0  0  0  0  0
  -25.4544  -27.1746   21.0200 C   0  0  0  0  0  0  0  0  0  0  0  0
  -29.5629  -19.3869   19.8669 C   0  0  0  0  0  0  0  0  0  0  0  0
  -20.9267   -4.6000   21.1915 C   0  0  0  0  0  0  0  0  0  0  0  0
  -24.5341  -10.5604   21.5130 C   0  0  0  0  0  0  0  0  0  0  0  0
  -24.1650  -13.0069   20.8917 C   0  0  0  0  0  0  0  0  0  0  0  0
  -29.8661  -34.8342   23.2506 C   0  0  0  0  0  0  0  0  0  0  0  0
  -25.8773  -29.4385   20.2745 C   0  0  0  0  0  0  0  0  0  0  0  0
  -29.6432  -33.5312   22.7660 C   0  0  0  0  0  0  0  0  0  0  0  0
  -25.3187  -28.5580   21.2120 C   0  0  0  0  0  0  0  0  0  0  0  0
  -28.3827  -21.4624   20.2360 C   0  0  0  0  0  0  0  0  0  0  0  0
  -28.7745  -18.7663   20.8359 C   0  0  0  0  0  0  0  0  0  0  0  0
  -23.7143   -8.0573   22.4320 C   0  0  0  0  0  0  0  0  0  0  0  0
  -26.1253  -26.6738   19.9045 C   0  0  0  0  0  0  0  0  0  0  0  0
  -22.1271   -6.3249   22.3834 C   0  0  0  0  0  0  0  0  0  0  0  0
  -19.7339   -5.2970   21.3843 C   0  0  0  0  0  0  0  0  0  0  0  0
  -22.1234   -5.1140   21.6911 C   0  0  0  0  0  0  0  0  0  0  0  0
  -29.3670  -20.7350   19.5670 C   0  0  0  0  0  0  0  0  0  0  0  0
  -27.5942  -20.8418   21.2049 C   0  0  0  0  0  0  0  0  0  0  0  0
  -27.7902  -19.4937   21.5048 C   0  0  0  0  0  0  0  0  0  0  0  0
  -24.9582  -11.8533   21.0389 C   0  0  0  0  0  0  0  0  0  0  0  0
  -25.0303  -13.9598   20.4123 C   0  0  0  0  0  0  0  0  0  0  0  0
  -27.3225  -23.3635   18.9433 C   0  0  0  0  0  0  0  0  0  0  0  0
  -22.7706  -13.2000   21.1639 C   0  0  0  0  0  0  0  0  0  0  0  0
  -26.7222  -31.2686   22.7323 C   0  0  0  0  0  0  0  0  0  0  0  0
  -23.5541  -31.1373   23.4169 C   0  0  0  0  0  0  0  0  0  0  0  0
  -20.5891  -29.4765   23.1054 C   0  0  0  0  0  0  0  0  0  0  0  0
  -29.9516  -16.5624   20.5132 C   0  0  0  0  0  0  0  0  0  0  0  0
  -29.2520  -35.3165   24.5410 C   0  0  0  0  0  0  0  0  0  0  0  0
  -25.7261  -30.9256   20.4418 C   0  0  0  0  0  0  0  0  0  0  0  0
  -24.5820  -29.0565   22.4273 C   0  0  0  0  0  0  0  0  0  0  0  0
  -28.0723  -34.4681   25.0087 C   0  0  0  0  0  0  0  0  0  0  0  0
  -29.7583  -13.5307   18.6563 C   0  0  0  0  0  0  0  0  0  0  0  0
  -28.4132  -32.9840   24.9186 C   0  0  0  0  0  0  0  0  0  0  0  0
  -28.4270  -12.9189   19.0985 C   0  0  0  0  0  0  0  0  0  0  0  0
  -28.6691  -25.1395   19.8163 C   0  0  0  0  0  0  0  0  0  0  0  0
  -30.4693  -14.2360   19.8098 C   0  0  0  0  0  0  0  0  0  0  0  0
  -28.8353  -23.8995   20.6752 C   0  0  0  0  0  0  0  0  0  0  0  0
  -28.3275  -14.6198   20.9651 C   0  0  0  0  0  0  0  0  0  0  0  0
  -28.7082  -32.5726   23.4711 C   0  0  1  0  0  0  0  0  0  0  0  0
  -27.3926  -24.8725   19.0389 C   0  0  2  0  0  0  0  0  0  1  0  0
  -25.4809  -31.3422   21.8888 C   0  0  1  0  0  0  0  0  0  0  0  0
  -27.5438  -13.9543   19.8221 C   0  0  2  0  0  0  0  0  0  0  0  0
  -18.1825  -29.5935   23.8068 C   0  0  0  0  0  0  0  0  0  0  0  0
  -24.3251  -30.1877   26.2122 C   0  0  0  0  0  0  0  0  0  0  0  0
  -21.9610  -29.4274   26.5302 C   0  0  0  0  0  0  0  0  0  0  0  0
  -22.4520  -31.8438   26.1527 C   0  0  0  0  0  0  0  0  0  0  0  0
  -19.6595  -29.6464   20.3008 C   0  0  0  0  0  0  0  0  0  0  0  0
  -22.6729  -30.2188   24.2284 C   0  0  1  0  0  0  0  0  0  0  0  0
  -19.1982  -29.9592   22.7356 C   0  0  2  0  0  0  0  0  0  0  0  0
  -22.8683  -30.4097   25.7591 C   0  0  0  0  0  0  0  0  0  0  0  0
  -26.2297  -12.0528   20.6819 N   0  0  0  0  0  0  0  0  0  0  0  0
  -26.2420  -13.3429   20.3054 N   0  0  0  0  0  0  0  0  0  0  0  0
  -28.1887  -22.8412   19.9225 N   0  0  0  0  0  0  0  0  0  0  0  0
  -24.4661  -30.5191   22.5497 N   0  0  0  0  0  0  0  0  0  0  0  0
  -29.5732  -15.2049   20.4447 N   0  0  0  0  0  0  0  0  0  0  0  0
  -24.8653  -15.2567   20.0760 N   0  0  0  0  0  0  0  0  0  0  0  0
  -22.0288  -12.1158   21.6523 N   0  0  0  0  0  0  0  0  0  0  0  0
  -29.0054  -17.3953   21.1096 N   0  0  0  0  0  0  0  0  0  0  0  0
  -27.4762  -32.4265   22.7260 N   0  0  0  0  0  0  0  0  0  0  0  0
  -21.3082  -30.4493   23.7669 N   0  0  0  0  0  0  0  0  0  0  0  0
  -18.7634  -29.3484   21.4476 N   0  3  0  0  0  0  0  0  0  0  0  0
  -26.5711  -22.7874   18.1696 O   0  0  0  0  0  0  0  0  0  0  0  0
  -22.1957  -14.2968   20.9640 O   0  0  0  0  0  0  0  0  0  0  0  0
  -26.9762  -30.2380   23.3447 O   0  0  0  0  0  0  0  0  0  0  0  0
  -23.4327  -32.3585   23.5423 O   0  0  0  0  0  0  0  0  0  0  0  0
  -20.9956  -28.3479   22.8377 O   0  0  0  0  0  0  0  0  0  0  0  0
  -31.0233  -16.9615   20.0506 O   0  0  0  0  0  0  0  0  0  0  0  0
  -23.3142   -6.8362   22.8807 O   0  0  0  0  0  0  0  0  0  0  0  0
  -26.2479  -25.3298   19.7303 O   0  0  0  0  0  0  0  0  0  1  0  0
  -18.5845   -4.8027   20.9059 F   0  0  0  0  0  0  0  0  0  0  0  0
  -23.2660   -4.4394   21.5038 F   0  0  0  0  0  0  0  0  0  0  0  0
  -30.3698  -21.4582   18.3588 Cl  0  0  0  0  0  0  0  0  0  0  0  0
  -26.3726  -21.7674   22.0275 Cl  0  0  0  0  0  0  0  0  0  0  0  0
  -26.8217  -18.6939   22.7070 Cl  0  0  0  0  0  0  0  0  0  0  0  0
  1  2  1  0  0  0  0
  1  5  2  0  0  0  0
  2  6  2  0  0  0  0
  3  8  2  0  0  0  0
  3 16  1  0  0  0  0
  4  9  1  0  0  0  0
  4 16  2  0  0  0  0
  5 18  1  0  0  0  0
  6 20  1  0  0  0  0
  7 10  2  0  0  0  0
  7 19  1  0  0  0  0
  8 24  1  0  0  0  0
  9 24  2  0  0  0  0
 10 25  1  0  0  0  0
 11 12  2  0  0  0  0
 11 26  1  0  0  0  0
 12 27  1  0  0  0  0
 13 21  1  0  0  0  0
 13 25  2  0  0  0  0
 14 23  1  0  0  0  0
 14 29  2  0  0  0  0
 15 27  2  0  0  0  0
 15 28  1  0  0  0  0
 16 32  1  0  0  0  0
 17 32  1  0  0  0  0
 17 33  2  0  0  0  0
 17 35  1  0  0  0  0
 18 20  2  0  0  0  0
 18 40  1  0  0  0  0
 19 21  2  0  0  0  0
 19 41  1  0  0  0  0
 20 51  1  0  0  0  0
 21 42  1  0  0  0  0
 22 29  1  0  0  0  0
 22 30  2  0  0  0  0
 22 65  1  0  0  0  0
 23 31  2  0  0  0  0
 23 70  1  0  0  0  0
 24 80  1  0  0  0  0
 25 81  1  0  0  0  0
 26 28  2  0  0  0  0
 26 80  1  0  0  0  0
 27 82  1  0  0  0  0
 28 83  1  0  0  0  0
 29 84  1  0  0  0  0
 30 31  1  0  0  0  0
 30 85  1  0  0  0  0
 31 86  1  0  0  0  0
 32 63  2  0  0  0  0
 33 64  1  0  0  0  0
 33 68  1  0  0  0  0
 34 52  1  0  0  0  0
 34 65  1  0  0  0  0
 34 74  2  0  0  0  0
 35 69  1  0  0  0  0
 35 75  2  0  0  0  0
 36 53  1  0  0  0  0
 36 71  1  0  0  0  0
 36 76  2  0  0  0  0
 37 60  1  0  0  0  0
 37 66  1  0  0  0  0
 37 77  2  0  0  0  0
 38 61  1  0  0  0  0
 38 72  1  0  0  0  0
 38 78  2  0  0  0  0
 39 67  1  0  0  0  0
 39 70  1  0  0  0  0
 39 79  2  0  0  0  0
 40 43  1  0  0  0  0
 41 53  1  0  0  0  0
 42 66  1  0  0  0  0
 43 45  1  0  0  0  0
 44 46  1  0  0  0  0
 44 48  1  0  0  0  0
 45 51  1  0  0  0  0
 46 54  1  0  0  0  0
 47 49  1  0  0  0  0
 47 52  1  0  0  0  0
 48 67  1  0  0  0  0
 49 65  1  0  0  0  0
 50 54  1  0  0  0  0
 50 67  1  0  0  0  0
 51 71  1  0  0  0  0
 52 81  1  0  0  0  0
 53 66  1  0  0  0  0
 54 64  1  0  0  0  0
 55 61  1  0  0  0  0
 56 62  1  0  0  0  0
 57 62  1  0  0  0  0
 58 62  1  0  0  0  0
 59 73  1  0  0  0  0
 60 62  1  0  0  0  0
 60 72  1  0  0  0  0
 61 73  1  0  0  0  0
 63 64  1  0  0  0  0
M  CHG  1  73   1
M  ISO  4  39 100  52 101  70 100  81 101
M  END
> <Batch ID>
0025

> <Smiles>
CNC(C)C(=O)NC(C(=O)N1Cc2cc([101O:1][101CH:1]3CCN(c4c(Cl)cc([100NH:0][100C:0](=O)N5CCCC(n6nc(-c7ccc(Oc8ccc(F)cc8F)cc7)c(C(N)=O)c6N)C5)c(Cl)c4Cl)C3=O)ccc2CC1C(=O)NC1CCCc2ccccc21)C(C)(C)C

> <Shape>
0.329

> <Color>
0.160

> <Negative vol penalty>
0.000

$$$$

  -OEChem-04042321223D

 89 98  0     1  0  0  0  0  0999 V2000
  -22.5023  -20.6865   19.8406 C   0  0  0  0  0  0  0  0  0  0  0  0
  -22.9936  -21.3524   20.9589 C   0  0  0  0  0  0  0  0  0  0  0  0
  -26.4724  -12.8130   21.4004 C   0  0  0  0  0  0  0  0  0  0  0  0
  -26.2737  -13.3368   19.0503 C   0  0  0  0  0  0  0  0  0  0  0  0
  -22.5613  -21.2941   18.5871 C   0  0  0  0  0  0  0  0  0  0  0  0
  -23.5452  -22.6260   20.8242 C   0  0  0  0  0  0  0  0  0  0  0  0
  -21.9476  -25.8244   24.4106 C   0  0  0  0  0  0  0  0  0  0  0  0
  -30.0578  -23.2304   23.0502 C   0  0  0  0  0  0  0  0  0  0  0  0
  -30.5988  -22.6871   21.8850 C   0  0  0  0  0  0  0  0  0  0  0  0
  -25.2074  -12.2257   21.3765 C   0  0  0  0  0  0  0  0  0  0  0  0
  -25.0088  -12.7495   19.0263 C   0  0  0  0  0  0  0  0  0  0  0  0
  -22.5332  -25.7120   25.6708 C   0  0  0  0  0  0  0  0  0  0  0  0
  -23.8383   -9.2993   20.3794 C   0  0  0  0  0  0  0  0  0  0  0  0
  -23.6837   -8.0668   21.0140 C   0  0  0  0  0  0  0  0  0  0  0  0
  -23.9700  -27.5821   25.1633 C   0  0  0  0  0  0  0  0  0  0  0  0
  -27.8560  -22.5115   22.3631 C   0  0  0  0  0  0  0  0  0  0  0  0
  -22.0269   -9.0317   22.4841 C   0  0  0  0  0  0  0  0  0  0  0  0
  -27.0055  -13.3686   20.2373 C   0  0  0  0  0  0  0  0  0  0  0  0
  -29.5468  -13.3461   20.0166 C   0  0  0  0  0  0  0  0  0  0  0  0
  -23.1051  -22.5797   18.4385 C   0  0  0  0  0  0  0  0  0  0  0  0
  -22.3770  -26.8113   23.5116 C   0  0  0  0  0  0  0  0  0  0  0  0
  -23.6128  -23.2508   19.5673 C   0  0  0  0  0  0  0  0  0  0  0  0
  -23.3865  -27.7066   23.8932 C   0  0  0  0  0  0  0  0  0  0  0  0
  -28.6863  -23.1426   23.2892 C   0  0  0  0  0  0  0  0  0  0  0  0
  -29.7685  -22.0560   20.9588 C   0  0  0  0  0  0  0  0  0  0  0  0
  -24.4756  -12.1939   20.1894 C   0  0  0  0  0  0  0  0  0  0  0  0
  -23.5466  -26.5890   26.0463 C   0  0  0  0  0  0  0  0  0  0  0  0
  -23.0873  -10.3980   20.7972 C   0  0  0  0  0  0  0  0  0  0  0  0
  -22.7780   -7.9330   22.0663 C   0  0  0  0  0  0  0  0  0  0  0  0
  -22.1816  -10.2642   21.8495 C   0  0  0  0  0  0  0  0  0  0  0  0
  -28.3970  -21.9681   21.1979 C   0  0  0  0  0  0  0  0  0  0  0  0
  -28.3119  -13.9760   20.2616 C   0  0  0  0  0  0  0  0  0  0  0  0
  -30.4769  -14.3465   20.1601 C   0  0  0  0  0  0  0  0  0  0  0  0
  -29.8281  -11.9790   19.6886 C   0  0  0  0  0  0  0  0  0  0  0  0
  -23.7061  -26.7902   20.6243 C   0  0  0  0  0  0  0  0  0  0  0  0
  -23.2838  -29.9995   20.8338 C   0  0  0  0  0  0  0  0  0  0  0  0
  -22.8960  -32.7471   22.8206 C   0  0  0  0  0  0  0  0  0  0  0  0
  -30.2584  -20.1237   19.4708 C   0  0  0  0  0  0  0  0  0  0  0  0
  -26.7924  -22.9083   26.5161 C   0  0  0  0  0  0  0  0  0  0  0  0
  -23.1903  -23.1765   17.0560 C   0  0  0  0  0  0  0  0  0  0  0  0
  -21.7167  -26.9364   22.1660 C   0  0  0  0  0  0  0  0  0  0  0  0
  -23.8695  -28.7963   22.9726 C   0  0  0  0  0  0  0  0  0  0  0  0
  -23.4489  -24.6809   17.0568 C   0  0  0  0  0  0  0  0  0  0  0  0
  -31.2337  -18.4660   22.4591 C   0  0  0  0  0  0  0  0  0  0  0  0
  -24.5711  -25.0291   18.0295 C   0  0  0  0  0  0  0  0  0  0  0  0
  -30.7015  -17.0550   22.2112 C   0  0  0  0  0  0  0  0  0  0  0  0
  -31.0459  -22.5692   17.5103 C   0  0  0  0  0  0  0  0  0  0  0  0
  -30.8560  -23.6938   18.4839 C   0  0  0  0  0  0  0  0  0  0  0  0
  -30.2708  -19.5389   21.9492 C   0  0  0  0  0  0  0  0  0  0  0  0
  -29.3495  -17.9596   20.2814 C   0  0  0  0  0  0  0  0  0  0  0  0
  -24.1960  -24.6435   19.4655 C   0  0  1  0  0  0  0  0  0  0  0  0
  -22.5872  -27.6518   21.1374 C   0  0  1  0  0  0  0  0  0  0  0  0
  -30.3228  -16.8594   20.7325 C   0  0  2  0  0  0  0  0  0  0  0  0
  -31.2721  -22.3357   18.9790 C   0  0  0  0  0  0  0  0  0  0  0  0
  -22.6120  -35.2377   22.7046 C   0  0  0  0  0  0  0  0  0  0  0  0
  -26.2515  -30.3058   20.1945 C   0  0  0  0  0  0  0  0  0  0  0  0
  -26.1137  -32.6665   21.0168 C   0  0  0  0  0  0  0  0  0  0  0  0
  -24.7614  -31.9533   19.0456 C   0  0  0  0  0  0  0  0  0  0  0  0
  -20.2595  -32.6252   24.1595 C   0  0  0  0  0  0  0  0  0  0  0  0
  -28.1055  -23.7271   24.5417 C   0  0  0  0  0  0  0  0  0  0  0  0
  -26.1388  -26.0759   28.5076 C   0  0  0  0  0  0  0  0  0  0  0  0
  -26.0869  -24.5779   28.2505 C   0  0  0  0  0  0  0  0  0  0  0  0
  -25.4849  -26.8818   27.3928 C   0  0  0  0  0  0  0  0  0  1  0  0
  -24.1059  -31.1544   21.3530 C   0  0  1  0  0  0  0  0  0  0  0  0
  -21.9028  -33.8940   22.7709 C   0  0  2  0  0  0  0  0  0  0  0  0
  -25.3006  -31.4983   20.4193 C   0  0  0  0  0  0  0  0  0  0  0  0
  -28.4422  -15.2758   20.5397 N   0  0  0  0  0  0  0  0  0  0  0  0
  -29.7701  -15.4709   20.4705 N   0  0  0  0  0  0  0  0  0  0  0  0
  -23.1970  -28.8739   21.6653 N   0  0  0  0  0  0  0  0  0  0  0  0
  -29.9062  -19.2881   20.5478 N   0  0  0  0  0  0  0  0  0  0  0  0
  -31.8223  -14.3653   20.0499 N   0  0  0  0  0  0  0  0  0  0  0  0
  -28.7554  -11.0835   19.5805 N   0  0  0  0  0  0  0  0  0  0  0  0
  -26.1838  -21.8691   27.2207 N   0  0  0  0  0  0  0  0  0  0  0  0
  -23.2847  -25.6167   20.0285 N   0  0  0  0  0  0  0  0  0  0  0  0
  -23.1741  -32.2573   21.5620 N   0  0  0  0  0  0  0  0  0  0  0  0
  -26.7519  -24.2232   27.0050 N   0  0  0  0  0  0  0  0  0  0  0  0
  -30.3623  -21.5029   19.7631 N   0  0  0  0  0  0  0  0  0  0  0  0
  -27.4561  -22.6643   25.3081 N   0  3  0  0  0  0  0  0  0  0  0  0
  -21.0345  -33.8802   23.9820 N   0  3  0  0  0  0  0  0  0  0  0  0
  -30.9975  -11.5602   19.5132 O   0  0  0  0  0  0  0  0  0  0  0  0
  -24.8657  -27.1631   20.7575 O   0  0  0  0  0  0  0  0  0  0  0  0
  -22.7329  -30.0955   19.7343 O   0  0  0  0  0  0  0  0  0  0  0  0
  -23.3799  -32.3300   23.8706 O   0  0  0  0  0  0  0  0  0  0  0  0
  -30.4351  -19.6774   18.3308 O   0  0  0  0  0  0  0  0  0  0  0  0
  -23.2414  -11.6207   20.1656 O   0  0  0  0  0  0  0  0  0  0  0  0
  -24.1203  -26.4811   27.2755 O   0  0  0  0  0  0  0  0  0  1  0  0
  -22.6285   -6.7490   22.6747 F   0  0  0  0  0  0  0  0  0  0  0  0
  -21.4565  -11.3158   22.2546 F   0  0  0  0  0  0  0  0  0  0  0  0
  -27.3327  -21.1956   20.0773 Cl  0  0  0  0  0  0  0  0  0  0  0  0
  1  2  1  0  0  0  0
  1  5  2  0  0  0  0
  2  6  2  0  0  0  0
  3 10  2  0  0  0  0
  3 18  1  0  0  0  0
  4 11  1  0  0  0  0
  4 18  2  0  0  0  0
  5 20  1  0  0  0  0
  6 22  1  0  0  0  0
  7 12  2  0  0  0  0
  7 21  1  0  0  0  0
  8  9  2  0  0  0  0
  8 24  1  0  0  0  0
  9 25  1  0  0  0  0
 10 26  1  0  0  0  0
 11 26  2  0  0  0  0
 12 27  1  0  0  0  0
 13 14  2  0  0  0  0
 13 28  1  0  0  0  0
 14 29  1  0  0  0  0
 15 23  1  0  0  0  0
 15 27  2  0  0  0  0
 16 24  2  0  0  0  0
 16 31  1  0  0  0  0
 17 29  2  0  0  0  0
 17 30  1  0  0  0  0
 18 32  1  0  0  0  0
 19 32  1  0  0  0  0
 19 33  2  0  0  0  0
 19 34  1  0  0  0  0
 20 22  2  0  0  0  0
 20 40  1  0  0  0  0
 21 23  2  0  0  0  0
 21 41  1  0  0  0  0
 22 51  1  0  0  0  0
 23 42  1  0  0  0  0
 24 60  1  0  0  0  0
 25 31  2  0  0  0  0
 25 77  1  0  0  0  0
 26 85  1  0  0  0  0
 27 86  1  0  0  0  0
 28 30  2  0  0  0  0
 28 85  1  0  0  0  0
 29 87  1  0  0  0  0
 30 88  1  0  0  0  0
 31 89  1  0  0  0  0
 32 67  2  0  0  0  0
 33 68  1  0  0  0  0
 33 71  1  0  0  0  0
 34 72  1  0  0  0  0
 34 80  2  0  0  0  0
 35 52  1  0  0  0  0
 35 74  1  0  0  0  0
 35 81  2  0  0  0  0
 36 64  1  0  0  0  0
 36 69  1  0  0  0  0
 36 82  2  0  0  0  0
 37 65  1  0  0  0  0
 37 75  1  0  0  0  0
 37 83  2  0  0  0  0
 38 70  1  0  0  0  0
 38 77  1  0  0  0  0
 38 84  2  0  0  0  0
 39 73  1  0  0  0  0
 39 76  1  0  0  0  0
 39 78  2  0  0  0  0
 40 43  1  0  0  0  0
 41 52  1  0  0  0  0
 42 69  1  0  0  0  0
 43 45  1  0  0  0  0
 44 46  1  0  0  0  0
 44 49  1  0  0  0  0
 45 51  1  0  0  0  0
 46 53  1  0  0  0  0
 47 48  1  0  0  0  0
 47 54  1  0  0  0  0
 48 54  1  0  0  0  0
 49 70  1  0  0  0  0
 50 53  1  0  0  0  0
 50 70  1  0  0  0  0
 51 74  1  0  0  0  0
 52 69  1  0  0  0  0
 53 68  1  0  0  0  0
 54 77  1  0  0  0  0
 55 65  1  0  0  0  0
 56 66  1  0  0  0  0
 57 66  1  0  0  0  0
 58 66  1  0  0  0  0
 59 79  1  0  0  0  0
 60 78  1  0  0  0  0
 61 62  1  0  0  0  0
 61 63  1  0  0  0  0
 62 76  1  0  0  0  0
 63 86  1  0  0  0  0
 64 66  1  0  0  0  0
 64 75  1  0  0  0  0
 65 79  1  0  0  0  0
 67 68  1  0  0  0  0
M  CHG  2  78   1  79   1
M  ISO  4  38 100  63 101  77 100  86 101
M  END
> <Batch ID>
0025

> <Smiles>
CNC(C)C(=O)NC(C(=O)N1Cc2cc([101O:1][101CH2:1]CCN=C(N)NCc3ccc([100N:0](C4CC4)[100C:0](=O)N4CCCC(n5nc(-c6ccc(Oc7ccc(F)cc7F)cc6)c(C(N)=O)c5N)C4)c(Cl)c3)ccc2CC1C(=O)NC1CCCc2ccccc21)C(C)(C)C

> <Shape>
0.243

> <Color>
0.063

> <Negative vol penalty>
0.000

$$$$

  -OEChem-04042321223D

 88 97  0     1  0  0  0  0  0999 V2000
  -29.9629  -30.1448   17.1779 C   0  0  0  0  0  0  0  0  0  0  0  0
  -29.6519  -29.1615   18.1116 C   0  0  0  0  0  0  0  0  0  0  0  0
  -23.3151   -9.6117   20.6627 C   0  0  0  0  0  0  0  0  0  0  0  0
  -23.8869  -10.2801   22.9129 C   0  0  0  0  0  0  0  0  0  0  0  0
  -29.8259  -31.4912   17.5133 C   0  0  0  0  0  0  0  0  0  0  0  0
  -29.2048  -29.5240   19.3816 C   0  0  0  0  0  0  0  0  0  0  0  0
  -25.2313  -26.7761   20.9001 C   0  0  0  0  0  0  0  0  0  0  0  0
  -30.8645  -19.3220   19.3157 C   0  0  0  0  0  0  0  0  0  0  0  0
  -30.7638  -17.9826   19.6916 C   0  0  0  0  0  0  0  0  0  0  0  0
  -22.6351   -8.5023   21.1651 C   0  0  0  0  0  0  0  0  0  0  0  0
  -23.2069   -9.1707   23.4153 C   0  0  0  0  0  0  0  0  0  0  0  0
  -25.4890  -25.4878   21.3665 C   0  0  0  0  0  0  0  0  0  0  0  0
  -23.7704   -5.8566   23.7765 C   0  0  0  0  0  0  0  0  0  0  0  0
  -24.3959   -5.1108   24.7755 C   0  0  0  0  0  0  0  0  0  0  0  0
  -25.3355  -26.2859   23.6378 C   0  0  0  0  0  0  0  0  0  0  0  0
  -22.5556   -5.5714   26.2716 C   0  0  0  0  0  0  0  0  0  0  0  0
  -23.9410  -10.5006   21.5367 C   0  0  0  0  0  0  0  0  0  0  0  0
  -24.1160  -12.9280   20.7720 C   0  0  0  0  0  0  0  0  0  0  0  0
  -29.3677  -31.8703   18.7848 C   0  0  0  0  0  0  0  0  0  0  0  0
  -25.0342  -27.8329   21.8005 C   0  0  0  0  0  0  0  0  0  0  0  0
  -29.0628  -30.8768   19.7348 C   0  0  0  0  0  0  0  0  0  0  0  0
  -25.0729  -27.5862   23.1803 C   0  0  0  0  0  0  0  0  0  0  0  0
  -30.0289  -20.2747   19.8985 C   0  0  0  0  0  0  0  0  0  0  0  0
  -29.8273  -17.5958   20.6503 C   0  0  0  0  0  0  0  0  0  0  0  0
  -29.0924  -19.8880   20.8572 C   0  0  0  0  0  0  0  0  0  0  0  0
  -22.5810   -8.2818   22.5413 C   0  0  0  0  0  0  0  0  0  0  0  0
  -25.5440  -25.2430   22.7355 C   0  0  0  0  0  0  0  0  0  0  0  0
  -22.5374   -6.4599   24.0250 C   0  0  0  0  0  0  0  0  0  0  0  0
  -23.7885   -4.9682   26.0230 C   0  0  0  0  0  0  0  0  0  0  0  0
  -21.9301   -6.3172   25.2726 C   0  0  0  0  0  0  0  0  0  0  0  0
  -28.9916  -18.5485   21.2331 C   0  0  0  0  0  0  0  0  0  0  0  0
  -24.6441  -11.6465   21.0183 C   0  0  0  0  0  0  0  0  0  0  0  0
  -25.1793  -13.6504   20.2882 C   0  0  0  0  0  0  0  0  0  0  0  0
  -22.7835  -13.4214   20.9636 C   0  0  0  0  0  0  0  0  0  0  0  0
  -26.5306  -30.5707   22.4082 C   0  0  0  0  0  0  0  0  0  0  0  0
  -24.0138  -31.0541   24.3967 C   0  0  0  0  0  0  0  0  0  0  0  0
  -21.5039  -29.7044   26.2743 C   0  0  0  0  0  0  0  0  0  0  0  0
  -30.5286  -15.1808   20.5014 C   0  0  0  0  0  0  0  0  0  0  0  0
  -29.2808  -33.3389   19.1171 C   0  0  0  0  0  0  0  0  0  0  0  0
  -24.7307  -29.2117   21.2815 C   0  0  0  0  0  0  0  0  0  0  0  0
  -24.8481  -28.6822   24.1885 C   0  0  0  0  0  0  0  0  0  0  0  0
  -28.4435  -33.6339   20.3590 C   0  0  0  0  0  0  0  0  0  0  0  0
  -30.9065  -23.8610   19.3685 C   0  0  0  0  0  0  0  0  0  0  0  0
  -29.7799  -23.6695   18.3734 C   0  0  0  0  0  0  0  0  0  0  0  0
  -29.7766  -12.1470   18.7962 C   0  0  0  0  0  0  0  0  0  0  0  0
  -28.8235  -32.6901   21.4955 C   0  0  0  0  0  0  0  0  0  0  0  0
  -28.3309  -11.8518   19.2020 C   0  0  0  0  0  0  0  0  0  0  0  0
  -31.3660  -22.4323   19.6358 C   0  0  0  0  0  0  0  0  0  0  0  0
  -29.0794  -22.4200   18.8947 C   0  0  0  0  0  0  0  0  0  0  0  0
  -30.5747  -12.7591   19.9460 C   0  0  0  0  0  0  0  0  0  0  0  0
  -28.5180  -13.6470   20.9709 C   0  0  0  0  0  0  0  0  0  0  0  0
  -28.5511  -31.2299   21.1145 C   0  0  1  0  0  0  0  0  0  0  0  0
  -25.0554  -30.3131   22.2859 C   0  0  1  0  0  0  0  0  0  0  0  0
  -27.6567  -13.0895   19.8259 C   0  0  2  0  0  0  0  0  0  0  0  0
  -19.6336  -30.3491   27.8182 C   0  0  0  0  0  0  0  0  0  0  0  0
  -26.0337  -31.5681   26.6251 C   0  0  0  0  0  0  0  0  0  0  0  0
  -24.1808  -31.2610   28.2805 C   0  0  0  0  0  0  0  0  0  0  0  0
  -24.0710  -33.1179   26.6184 C   0  0  0  0  0  0  0  0  0  0  0  0
  -19.4639  -28.5260   24.4831 C   0  0  0  0  0  0  0  0  0  0  0  0
  -28.6028  -21.5797   22.6247 C   0  0  0  0  0  0  0  0  0  0  0  0
  -26.6071  -23.1468   22.3729 C   0  0  0  0  0  0  0  0  0  1  0  0
  -23.7176  -30.7377   25.8428 C   0  0  1  0  0  0  0  0  0  0  0  0
  -20.0292  -30.0482   26.3810 C   0  0  2  0  0  0  0  0  0  0  0  0
  -27.3562  -22.1720   23.2690 C   0  0  1  0  0  0  0  0  0  0  0  0
  -24.5070  -31.6507   26.8229 C   0  0  0  0  0  0  0  0  0  0  0  0
  -25.9419  -11.5568   20.7157 N   0  0  0  0  0  0  0  0  0  0  0  0
  -26.2383  -12.7910   20.2742 N   0  0  0  0  0  0  0  0  0  0  0  0
  -30.1501  -21.6204   19.5024 N   0  0  0  0  0  0  0  0  0  0  0  0
  -24.5611  -30.0145   23.6315 N   0  0  0  0  0  0  0  0  0  0  0  0
  -29.8775  -13.9292   20.4842 N   0  0  0  0  0  0  0  0  0  0  0  0
  -25.3023  -14.9305   19.8774 N   0  0  0  0  0  0  0  0  0  0  0  0
  -21.8131  -12.5457   21.4695 N   0  0  0  0  0  0  0  0  0  0  0  0
  -29.7555  -16.2260   21.0057 N   0  0  0  0  0  0  0  0  0  0  0  0
  -28.2680  -20.8443   21.4282 N   0  0  0  0  0  0  0  0  0  0  0  0
  -27.1384  -30.9346   21.2218 N   0  0  0  0  0  0  0  0  0  0  0  0
  -22.2682  -30.8161   25.9892 N   0  0  0  0  0  0  0  0  0  0  0  0
  -19.1960  -28.9134   25.8920 N   0  3  0  0  0  0  0  0  0  0  0  0
  -22.4589  -14.5991   20.6787 O   0  0  0  0  0  0  0  0  0  0  0  0
  -27.0767  -30.4497   23.4985 O   0  0  0  0  0  0  0  0  0  0  0  0
  -23.7620  -32.1801   23.9602 O   0  0  0  0  0  0  0  0  0  0  0  0
  -21.9352  -28.5644   26.4321 O   0  0  0  0  0  0  0  0  0  0  0  0
  -31.6771  -15.3208   20.0732 O   0  0  0  0  0  0  0  0  0  0  0  0
  -21.9173   -7.1994   23.0319 O   0  0  0  0  0  0  0  0  0  0  0  0
  -25.7961  -23.9866   23.1934 O   0  0  0  0  0  0  0  0  0  1  0  0
  -24.3886   -4.2506   26.9818 F   0  0  0  0  0  0  0  0  0  0  0  0
  -20.7451   -6.8935   25.5168 F   0  0  0  0  0  0  0  0  0  0  0  0
  -26.5104  -21.1492   23.5871 F   0  0  0  0  0  0  0  0  0  0  0  0
  -27.8265  -18.0639   22.4255 Cl  0  0  0  0  0  0  0  0  0  0  0  0
  1  2  1  0  0  0  0
  1  5  2  0  0  0  0
  2  6  2  0  0  0  0
  3 10  2  0  0  0  0
  3 17  1  0  0  0  0
  4 11  1  0  0  0  0
  4 17  2  0  0  0  0
  5 19  1  0  0  0  0
  6 21  1  0  0  0  0
  7 12  2  0  0  0  0
  7 20  1  0  0  0  0
  8  9  1  0  0  0  0
  8 23  2  0  0  0  0
  9 24  2  0  0  0  0
 10 26  1  0  0  0  0
 11 26  2  0  0  0  0
 12 27  1  0  0  0  0
 13 14  2  0  0  0  0
 13 28  1  0  0  0  0
 14 29  1  0  0  0  0
 15 22  1  0  0  0  0
 15 27  2  0  0  0  0
 16 29  2  0  0  0  0
 16 30  1  0  0  0  0
 17 32  1  0  0  0  0
 18 32  1  0  0  0  0
 18 33  2  0  0  0  0
 18 34  1  0  0  0  0
 19 21  2  0  0  0  0
 19 39  1  0  0  0  0
 20 22  2  0  0  0  0
 20 40  1  0  0  0  0
 21 52  1  0  0  0  0
 22 41  1  0  0  0  0
 23 25  1  0  0  0  0
 23 68  1  0  0  0  0
 24 31  1  0  0  0  0
 24 73  1  0  0  0  0
 25 31  2  0  0  0  0
 25 74  1  0  0  0  0
 26 83  1  0  0  0  0
 27 84  1  0  0  0  0
 28 30  2  0  0  0  0
 28 83  1  0  0  0  0
 29 85  1  0  0  0  0
 30 86  1  0  0  0  0
 31 88  1  0  0  0  0
 32 66  2  0  0  0  0
 33 67  1  0  0  0  0
 33 71  1  0  0  0  0
 34 72  1  0  0  0  0
 34 78  2  0  0  0  0
 35 53  1  0  0  0  0
 35 75  1  0  0  0  0
 35 79  2  0  0  0  0
 36 62  1  0  0  0  0
 36 69  1  0  0  0  0
 36 80  2  0  0  0  0
 37 63  1  0  0  0  0
 37 76  1  0  0  0  0
 37 81  2  0  0  0  0
 38 70  1  0  0  0  0
 38 73  1  0  0  0  0
 38 82  2  0  0  0  0
 39 42  1  0  0  0  0
 40 53  1  0  0  0  0
 41 69  1  0  0  0  0
 42 46  1  0  0  0  0
 43 44  1  0  0  0  0
 43 48  1  0  0  0  0
 44 49  1  0  0  0  0
 45 47  1  0  0  0  0
 45 50  1  0  0  0  0
 46 52  1  0  0  0  0
 47 54  1  0  0  0  0
 48 68  1  0  0  0  0
 49 68  1  0  0  0  0
 50 70  1  0  0  0  0
 51 54  1  0  0  0  0
 51 70  1  0  0  0  0
 52 75  1  0  0  0  0
 53 69  1  0  0  0  0
 54 67  1  0  0  0  0
 55 63  1  0  0  0  0
 56 65  1  0  0  0  0
 57 65  1  0  0  0  0
 58 65  1  0  0  0  0
 59 77  1  0  0  0  0
 60 64  1  0  0  0  0
 60 74  1  0  0  0  0
 61 64  1  0  0  0  0
 61 84  1  0  0  0  0
 62 65  1  0  0  0  0
 62 76  1  0  0  0  0
 63 77  1  0  0  0  0
 64 87  1  0  0  0  0
 66 67  1  0  0  0  0
M  CHG  1  77   1
M  ISO  4  38 100  61 101  73 100  84 101
M  END
> <Batch ID>
0025

> <Smiles>
CNC(C)C(=O)NC(C(=O)N1Cc2cc([101O:1][101CH2:1]C(F)CNc3c(N4CCCC4)ccc([100NH:0][100C:0](=O)N4CCCC(n5nc(-c6ccc(Oc7ccc(F)cc7F)cc6)c(C(N)=O)c5N)C4)c3Cl)ccc2CC1C(=O)NC1CCCc2ccccc21)C(C)(C)C

> <Shape>
0.281

> <Color>
0.168

> <Negative vol penalty>
0.000

$$$$

  -OEChem-04042321223D

 87 96  0     1  0  0  0  0  0999 V2000
  -27.7982  -35.8092   23.5384 C   0  0  0  0  0  0  0  0  0  0  0  0
  -28.1532  -34.5258   23.1354 C   0  0  0  0  0  0  0  0  0  0  0  0
  -24.2360   -9.4941   21.6419 C   0  0  0  0  0  0  0  0  0  0  0  0
  -24.6153  -10.7554   23.6673 C   0  0  0  0  0  0  0  0  0  0  0  0
  -26.7497  -35.9906   24.4393 C   0  0  0  0  0  0  0  0  0  0  0  0
  -27.4606  -33.4231   23.6339 C   0  0  0  0  0  0  0  0  0  0  0  0
  -26.3032  -30.0627   20.0264 C   0  0  0  0  0  0  0  0  0  0  0  0
  -23.8326   -8.3958   22.4014 C   0  0  0  0  0  0  0  0  0  0  0  0
  -24.2119   -9.6571   24.4268 C   0  0  0  0  0  0  0  0  0  0  0  0
  -27.3234  -29.2170   19.5932 C   0  0  0  0  0  0  0  0  0  0  0  0
  -21.0653   -7.4037   24.0719 C   0  0  0  0  0  0  0  0  0  0  0  0
  -19.9149   -6.7250   23.6701 C   0  0  0  0  0  0  0  0  0  0  0  0
  -26.4518  -27.4575   20.9945 C   0  0  0  0  0  0  0  0  0  0  0  0
  -27.8808  -19.5188   20.4463 C   0  0  0  0  0  0  0  0  0  0  0  0
  -30.1233  -19.3353   19.5660 C   0  0  0  0  0  0  0  0  0  0  0  0
  -21.2050   -4.7009   23.3951 C   0  0  0  0  0  0  0  0  0  0  0  0
  -24.6274  -10.6738   22.2749 C   0  0  0  0  0  0  0  0  0  0  0  0
  -24.2314  -12.8461   20.9973 C   0  0  0  0  0  0  0  0  0  0  0  0
  -26.0376  -34.8901   24.9417 C   0  0  0  0  0  0  0  0  0  0  0  0
  -25.3545  -29.6149   20.9569 C   0  0  0  0  0  0  0  0  0  0  0  0
  -26.4024  -33.5899   24.5434 C   0  0  0  0  0  0  0  0  0  0  0  0
  -25.4190  -28.2987   21.4361 C   0  0  0  0  0  0  0  0  0  0  0  0
  -27.9265  -20.9022   20.2745 C   0  0  0  0  0  0  0  0  0  0  0  0
  -28.9792  -18.7353   20.0921 C   0  0  0  0  0  0  0  0  0  0  0  0
  -29.0706  -21.5023   19.7485 C   0  0  0  0  0  0  0  0  0  0  0  0
  -23.8206   -8.4773   23.7938 C   0  0  0  0  0  0  0  0  0  0  0  0
  -27.3995  -27.9151   20.0794 C   0  0  0  0  0  0  0  0  0  0  0  0
  -22.2857   -6.7310   24.1353 C   0  0  0  0  0  0  0  0  0  0  0  0
  -19.9847   -5.3736   23.3317 C   0  0  0  0  0  0  0  0  0  0  0  0
  -22.3555   -5.3796   23.7969 C   0  0  0  0  0  0  0  0  0  0  0  0
  -30.1690  -20.7188   19.3942 C   0  0  0  0  0  0  0  0  0  0  0  0
  -25.0447  -11.8085   21.4910 C   0  0  0  0  0  0  0  0  0  0  0  0
  -25.0983  -13.6705   20.3226 C   0  0  0  0  0  0  0  0  0  0  0  0
  -22.8185  -13.0468   21.1364 C   0  0  0  0  0  0  0  0  0  0  0  0
  -24.5179  -30.4775   23.8996 C   0  0  0  0  0  0  0  0  0  0  0  0
  -22.1720  -28.2813   23.4571 C   0  0  0  0  0  0  0  0  0  0  0  0
  -21.0904  -25.4863   21.8246 C   0  0  0  0  0  0  0  0  0  0  0  0
  -29.9339  -16.4075   19.9647 C   0  0  0  0  0  0  0  0  0  0  0  0
  -24.9425  -35.1330   25.9499 C   0  0  0  0  0  0  0  0  0  0  0  0
  -24.2445  -30.5311   21.3940 C   0  0  0  0  0  0  0  0  0  0  0  0
  -24.4131  -27.7630   22.4207 C   0  0  0  0  0  0  0  0  0  0  0  0
  -24.0153  -33.9357   26.1424 C   0  0  0  0  0  0  0  0  0  0  0  0
  -24.7046  -22.7610   20.5513 C   0  0  0  0  0  0  0  0  0  0  0  0
  -25.3360  -23.0370   21.9008 C   0  0  0  0  0  0  0  0  0  0  0  0
  -29.9327  -12.9832   18.9893 C   0  0  0  0  0  0  0  0  0  0  0  0
  -24.8256  -32.6528   26.2987 C   0  0  0  0  0  0  0  0  0  0  0  0
  -28.5940  -12.4577   19.5126 C   0  0  0  0  0  0  0  0  0  0  0  0
  -25.4607  -21.5272   20.0718 C   0  0  0  0  0  0  0  0  0  0  0  0
  -26.8098  -22.7387   21.6499 C   0  0  0  0  0  0  0  0  0  0  0  0
  -30.5544  -14.0014   19.9436 C   0  0  0  0  0  0  0  0  0  0  0  0
  -28.3378  -14.5915   20.8423 C   0  0  0  0  0  0  0  0  0  0  0  0
  -25.6589  -32.3701   25.0428 C   0  0  1  0  0  0  0  0  0  0  0  0
  -23.6341  -30.1331   22.7343 C   0  0  1  0  0  0  0  0  0  0  0  0
  -27.6419  -13.6115   19.8837 C   0  0  2  0  0  0  0  0  0  0  0  0
  -19.1463  -23.9041   21.7034 C   0  0  0  0  0  0  0  0  0  0  0  0
  -23.0757  -26.9751   26.0623 C   0  0  0  0  0  0  0  0  0  0  0  0
  -21.7818  -24.9344   25.4067 C   0  0  0  0  0  0  0  0  0  0  0  0
  -20.5959  -27.0998   25.7632 C   0  0  0  0  0  0  0  0  0  0  0  0
  -20.5831  -26.1440   18.9840 C   0  0  0  0  0  0  0  0  0  0  0  0
  -28.9084  -25.0540   18.4928 C   0  0  0  0  0  0  0  0  0  0  0  0
  -28.6841  -23.5511   18.3778 C   0  0  0  0  0  0  0  0  0  0  0  0
  -28.1055  -25.6908   19.6210 C   0  0  0  0  0  0  0  0  0  1  0  0
  -22.0346  -26.7987   23.7062 C   0  0  1  0  0  0  0  0  0  0  0  0
  -19.7755  -25.1672   21.1363 C   0  0  2  0  0  0  0  0  0  0  0  0
  -21.8922  -26.4624   25.2175 C   0  0  0  0  0  0  0  0  0  0  0  0
  -26.3296  -11.9576   21.1580 N   0  0  0  0  0  0  0  0  0  0  0  0
  -26.3302  -13.0986   20.4479 N   0  0  0  0  0  0  0  0  0  0  0  0
  -26.8061  -21.6720   20.6413 N   0  0  0  0  0  0  0  0  0  0  0  0
  -23.3504  -28.6993   22.8227 N   0  0  0  0  0  0  0  0  0  0  0  0
  -29.5965  -15.0669   20.2468 N   0  0  0  0  0  0  0  0  0  0  0  0
  -24.9194  -14.8214   19.6402 N   0  0  0  0  0  0  0  0  0  0  0  0
  -22.0778  -12.1036   21.8616 N   0  0  0  0  0  0  0  0  0  0  0  0
  -28.9320  -17.3297   20.2650 N   0  0  0  0  0  0  0  0  0  0  0  0
  -29.1077  -22.8779   19.5818 N   0  0  0  0  0  0  0  0  0  0  0  0
  -24.8243  -31.8215   23.9955 N   0  0  0  0  0  0  0  0  0  0  0  0
  -20.9151  -26.3490   22.8859 N   0  0  0  0  0  0  0  0  0  0  0  0
  -19.9904  -24.9699   19.6749 N   0  3  0  0  0  0  0  0  0  0  0  0
  -22.2278  -14.0248   20.6186 O   0  0  0  0  0  0  0  0  0  0  0  0
  -24.8927  -29.5898   24.6567 O   0  0  0  0  0  0  0  0  0  0  0  0
  -21.2639  -29.0398   23.8059 O   0  0  0  0  0  0  0  0  0  0  0  0
  -22.1650  -25.0144   21.4597 O   0  0  0  0  0  0  0  0  0  0  0  0
  -31.0206  -16.7121   19.4662 O   0  0  0  0  0  0  0  0  0  0  0  0
  -23.4268   -7.4060   24.5352 O   0  0  0  0  0  0  0  0  0  0  0  0
  -28.3946  -27.0877   19.6586 O   0  0  0  0  0  0  0  0  0  1  0  0
  -18.8796   -4.7217   22.9473 F   0  0  0  0  0  0  0  0  0  0  0  0
  -23.5248   -4.7277   23.8569 F   0  0  0  0  0  0  0  0  0  0  0  0
  -31.6071  -21.4182   18.7391 Cl  0  0  0  0  0  0  0  0  0  0  0  0
  1  2  1  0  0  0  0
  1  5  2  0  0  0  0
  2  6  2  0  0  0  0
  3  8  2  0  0  0  0
  3 17  1  0  0  0  0
  4  9  1  0  0  0  0
  4 17  2  0  0  0  0
  5 19  1  0  0  0  0
  6 21  1  0  0  0  0
  7 10  2  0  0  0  0
  7 20  1  0  0  0  0
  8 26  1  0  0  0  0
  9 26  2  0  0  0  0
 10 27  1  0  0  0  0
 11 12  2  0  0  0  0
 11 28  1  0  0  0  0
 12 29  1  0  0  0  0
 13 22  1  0  0  0  0
 13 27  2  0  0  0  0
 14 23  1  0  0  0  0
 14 24  2  0  0  0  0
 15 24  1  0  0  0  0
 15 31  2  0  0  0  0
 16 29  2  0  0  0  0
 16 30  1  0  0  0  0
 17 32  1  0  0  0  0
 18 32  1  0  0  0  0
 18 33  2  0  0  0  0
 18 34  1  0  0  0  0
 19 21  2  0  0  0  0
 19 39  1  0  0  0  0
 20 22  2  0  0  0  0
 20 40  1  0  0  0  0
 21 52  1  0  0  0  0
 22 41  1  0  0  0  0
 23 25  2  0  0  0  0
 23 68  1  0  0  0  0
 24 73  1  0  0  0  0
 25 31  1  0  0  0  0
 25 74  1  0  0  0  0
 26 83  1  0  0  0  0
 27 84  1  0  0  0  0
 28 30  2  0  0  0  0
 28 83  1  0  0  0  0
 29 85  1  0  0  0  0
 30 86  1  0  0  0  0
 31 87  1  0  0  0  0
 32 66  2  0  0  0  0
 33 67  1  0  0  0  0
 33 71  1  0  0  0  0
 34 72  1  0  0  0  0
 34 78  2  0  0  0  0
 35 53  1  0  0  0  0
 35 75  1  0  0  0  0
 35 79  2  0  0  0  0
 36 63  1  0  0  0  0
 36 69  1  0  0  0  0
 36 80  2  0  0  0  0
 37 64  1  0  0  0  0
 37 76  1  0  0  0  0
 37 81  2  0  0  0  0
 38 70  1  0  0  0  0
 38 73  1  0  0  0  0
 38 82  2  0  0  0  0
 39 42  1  0  0  0  0
 40 53  1  0  0  0  0
 41 69  1  0  0  0  0
 42 46  1  0  0  0  0
 43 44  1  0  0  0  0
 43 48  1  0  0  0  0
 44 49  1  0  0  0  0
 45 47  1  0  0  0  0
 45 50  1  0  0  0  0
 46 52  1  0  0  0  0
 47 54  1  0  0  0  0
 48 68  1  0  0  0  0
 49 68  1  0  0  0  0
 50 70  1  0  0  0  0
 51 54  1  0  0  0  0
 51 70  1  0  0  0  0
 52 75  1  0  0  0  0
 53 69  1  0  0  0  0
 54 67  1  0  0  0  0
 55 64  1  0  0  0  0
 56 65  1  0  0  0  0
 57 65  1  0  0  0  0
 58 65  1  0  0  0  0
 59 77  1  0  0  0  0
 60 61  1  0  0  0  0
 60 62  1  0  0  0  0
 61 74  1  0  0  0  0
 62 84  1  0  0  0  0
 63 65  1  0  0  0  0
 63 76  1  0  0  0  0
 64 77  1  0  0  0  0
 66 67  1  0  0  0  0
M  CHG  1  77   1
M  ISO  4  38 100  62 101  73 100  84 101
M  END
> <Batch ID>
0025

> <Smiles>
CNC(C)C(=O)NC(C(=O)N1Cc2cc([101O:1][101CH2:1]CCNc3c(Cl)cc([100NH:0][100C:0](=O)N4CCCC(n5nc(-c6ccc(Oc7ccc(F)cc7F)cc6)c(C(N)=O)c5N)C4)cc3N3CCCC3)ccc2CC1C(=O)NC1CCCc2ccccc21)C(C)(C)C

> <Shape>
0.345

> <Color>
0.121

> <Negative vol penalty>
0.000

$$$$

  -OEChem-04042321223D

 86 95  0     1  0  0  0  0  0999 V2000
  -28.6240  -36.4614   21.7971 C   0  0  0  0  0  0  0  0  0  0  0  0
  -28.7967  -35.0813   21.8242 C   0  0  0  0  0  0  0  0  0  0  0  0
  -23.5509  -12.0719   19.9231 C   0  0  0  0  0  0  0  0  0  0  0  0
  -25.5527  -13.3083   20.4719 C   0  0  0  0  0  0  0  0  0  0  0  0
  -27.4402  -37.0241   22.2724 C   0  0  0  0  0  0  0  0  0  0  0  0
  -27.7860  -34.2630   22.3276 C   0  0  0  0  0  0  0  0  0  0  0  0
  -26.9252  -30.2177   19.4054 C   0  0  0  0  0  0  0  0  0  0  0  0
  -28.6095  -21.6805   21.3079 C   0  0  0  0  0  0  0  0  0  0  0  0
  -27.4456  -20.9944   20.9614 C   0  0  0  0  0  0  0  0  0  0  0  0
  -24.2871  -10.8873   19.9064 C   0  0  0  0  0  0  0  0  0  0  0  0
  -26.2889  -12.1237   20.4552 C   0  0  0  0  0  0  0  0  0  0  0  0
  -27.8242  -29.1568   19.5058 C   0  0  0  0  0  0  0  0  0  0  0  0
  -26.8148   -9.4906   22.5073 C   0  0  0  0  0  0  0  0  0  0  0  0
  -27.7162   -9.2749   23.5496 C   0  0  0  0  0  0  0  0  0  0  0  0
  -26.2762  -27.9887   20.9404 C   0  0  0  0  0  0  0  0  0  0  0  0
  -27.4193  -22.1189   18.8232 C   0  0  0  0  0  0  0  0  0  0  0  0
  -29.5301   -9.1628   21.9576 C   0  0  0  0  0  0  0  0  0  0  0  0
  -24.1837  -13.2824   20.2058 C   0  0  0  0  0  0  0  0  0  0  0  0
  -22.3286  -14.8159   21.0513 C   0  0  0  0  0  0  0  0  0  0  0  0
  -26.4106  -36.2117   22.7730 C   0  0  0  0  0  0  0  0  0  0  0  0
  -25.6975  -30.1767   20.0817 C   0  0  0  0  0  0  0  0  0  0  0  0
  -26.5879  -34.8155   22.8113 C   0  0  0  0  0  0  0  0  0  0  0  0
  -25.3623  -29.0492   20.8449 C   0  0  0  0  0  0  0  0  0  0  0  0
  -29.1784  -22.5859   20.4121 C   0  0  0  0  0  0  0  0  0  0  0  0
  -26.8505  -21.2136   19.7191 C   0  0  0  0  0  0  0  0  0  0  0  0
  -25.6561  -10.9132   20.1724 C   0  0  0  0  0  0  0  0  0  0  0  0
  -27.5010  -28.0433   20.2757 C   0  0  0  0  0  0  0  0  0  0  0  0
  -27.2709   -9.5424   21.1901 C   0  0  0  0  0  0  0  0  0  0  0  0
  -29.0739   -9.1110   23.2747 C   0  0  0  0  0  0  0  0  0  0  0  0
  -28.6286   -9.3785   20.9153 C   0  0  0  0  0  0  0  0  0  0  0  0
  -28.5833  -22.8050   19.1697 C   0  0  0  0  0  0  0  0  0  0  0  0
  -23.4238  -14.5065   20.2226 C   0  0  0  0  0  0  0  0  0  0  0  0
  -21.9655  -16.0874   20.6800 C   0  0  0  0  0  0  0  0  0  0  0  0
  -21.6962  -14.0247   22.0661 C   0  0  0  0  0  0  0  0  0  0  0  0
  -24.3295  -31.9267   22.3554 C   0  0  0  0  0  0  0  0  0  0  0  0
  -21.7739  -30.0269   21.7373 C   0  0  0  0  0  0  0  0  0  0  0  0
  -21.1924  -26.5282   21.0756 C   0  0  0  0  0  0  0  0  0  0  0  0
  -24.9502  -20.6181   18.1761 C   0  0  0  0  0  0  0  0  0  0  0  0
  -25.1680  -36.8689   23.3194 C   0  0  0  0  0  0  0  0  0  0  0  0
  -24.7274  -31.3176   19.9416 C   0  0  0  0  0  0  0  0  0  0  0  0
  -24.0484  -28.9473   21.5741 C   0  0  0  0  0  0  0  0  0  0  0  0
  -23.9951  -35.9069   23.4903 C   0  0  0  0  0  0  0  0  0  0  0  0
  -22.0143  -19.0471   16.9153 C   0  0  0  0  0  0  0  0  0  0  0  0
  -24.4536  -34.6220   24.1726 C   0  0  0  0  0  0  0  0  0  0  0  0
  -21.9396  -17.7353   17.7002 C   0  0  0  0  0  0  0  0  0  0  0  0
  -30.1012  -27.4821   22.0084 C   0  0  0  0  0  0  0  0  0  0  0  0
  -31.2806  -27.0583   21.1406 C   0  0  0  0  0  0  0  0  0  0  0  0
  -23.4562  -19.4293   16.5856 C   0  0  0  0  0  0  0  0  0  0  0  0
  -24.2924  -18.1557   18.5216 C   0  0  0  0  0  0  0  0  0  0  0  0
  -29.1033  -25.1810   21.7472 C   0  0  0  0  0  0  0  0  0  0  0  0
  -25.5047  -33.8930   23.3268 C   0  0  1  0  0  0  0  0  0  0  0  0
  -23.7239  -31.3929   21.0882 C   0  0  1  0  0  0  0  0  0  0  0  0
  -22.8641  -17.7628   18.9331 C   0  0  2  0  0  0  0  0  0  0  0  0
  -28.8484  -26.6794   21.6812 C   0  0  2  0  0  0  0  0  0  1  0  0
  -31.5490  -25.5508   21.2205 C   0  0  2  0  0  0  0  0  0  0  0  0
  -32.6870  -25.1783   20.2721 C   0  0  0  0  0  0  0  0  0  0  0  0
  -19.3571  -25.3930   19.7948 C   0  0  0  0  0  0  0  0  0  0  0  0
  -20.4298  -29.7619   24.4637 C   0  0  0  0  0  0  0  0  0  0  0  0
  -19.6365  -27.4896   23.7740 C   0  0  0  0  0  0  0  0  0  0  0  0
  -18.8880  -29.5065   22.5112 C   0  0  0  0  0  0  0  0  0  0  0  0
  -23.1228  -25.1397   19.3136 C   0  0  0  0  0  0  0  0  0  0  0  0
  -30.4305  -23.3031   20.8229 C   0  0  0  0  0  0  0  0  0  0  0  0
  -21.2728  -28.7041   22.2644 C   0  0  1  0  0  0  0  0  0  0  0  0
  -20.7870  -25.9091   19.7502 C   0  0  2  0  0  0  0  0  0  0  0  0
  -20.0845  -28.8719   23.2530 C   0  0  0  0  0  0  0  0  0  0  0  0
  -23.7359  -15.5013   19.3877 N   0  0  0  0  0  0  0  0  0  0  0  0
  -22.8313  -16.4482   19.6898 N   0  0  0  0  0  0  0  0  0  0  0  0
  -23.1360  -30.0912   21.4112 N   0  0  0  0  0  0  0  0  0  0  0  0
  -24.2718  -19.4389   17.8020 N   0  0  0  0  0  0  0  0  0  0  0  0
  -20.9932  -16.9209   21.1071 N   0  0  0  0  0  0  0  0  0  0  0  0
  -22.1959  -12.7402   22.3200 N   0  0  0  0  0  0  0  0  0  0  0  0
  -25.6674  -20.5173   19.3677 N   0  0  0  0  0  0  0  0  0  0  0  0
  -24.8728  -33.1911   22.2302 N   0  0  0  0  0  0  0  0  0  0  0  0
  -20.9661  -27.8882   21.0945 N   0  0  0  0  0  0  0  0  0  0  0  0
  -30.2706  -24.8045   20.8496 N   0  3  1  0  0  0  0  0  0  0  0  0
  -21.6874  -24.7703   19.4134 N   0  3  0  0  0  0  0  0  0  0  0  0
  -20.7066  -14.4381   22.7166 O   0  0  0  0  0  0  0  0  0  0  0  0
  -24.3044  -31.2428   23.3719 O   0  0  0  0  0  0  0  0  0  0  0  0
  -20.9843  -30.9664   21.6125 O   0  0  0  0  0  0  0  0  0  0  0  0
  -21.6594  -25.8704   22.0029 O   0  0  0  0  0  0  0  0  0  0  0  0
  -24.8766  -21.6501   17.5041 O   0  0  0  0  0  0  0  0  0  0  0  0
  -26.3748   -9.7574   20.1565 O   0  0  0  0  0  0  0  0  0  0  0  0
  -28.3769  -27.0067   20.3760 O   0  0  0  0  0  0  0  0  0  1  0  0
  -29.9397   -8.9054   24.2759 F   0  0  0  0  0  0  0  0  0  0  0  0
  -29.0729   -9.4284   19.6520 F   0  0  0  0  0  0  0  0  0  0  0  0
  -29.2583  -23.9180   18.0360 Cl  0  0  0  0  0  0  0  0  0  0  0  0
  1  2  1  0  0  0  0
  1  5  2  0  0  0  0
  2  6  2  0  0  0  0
  3 10  2  0  0  0  0
  3 18  1  0  0  0  0
  4 11  1  0  0  0  0
  4 18  2  0  0  0  0
  5 20  1  0  0  0  0
  6 22  1  0  0  0  0
  7 12  2  0  0  0  0
  7 21  1  0  0  0  0
  8  9  2  0  0  0  0
  8 24  1  0  0  0  0
  9 25  1  0  0  0  0
 10 26  1  0  0  0  0
 11 26  2  0  0  0  0
 12 27  1  0  0  0  0
 13 14  2  0  0  0  0
 13 28  1  0  0  0  0
 14 29  1  0  0  0  0
 15 23  1  0  0  0  0
 15 27  2  0  0  0  0
 16 25  2  0  0  0  0
 16 31  1  0  0  0  0
 17 29  2  0  0  0  0
 17 30  1  0  0  0  0
 18 32  1  0  0  0  0
 19 32  1  0  0  0  0
 19 33  2  0  0  0  0
 19 34  1  0  0  0  0
 20 22  2  0  0  0  0
 20 39  1  0  0  0  0
 21 23  2  0  0  0  0
 21 40  1  0  0  0  0
 22 51  1  0  0  0  0
 23 41  1  0  0  0  0
 24 31  2  0  0  0  0
 24 62  1  0  0  0  0
 25 72  1  0  0  0  0
 26 82  1  0  0  0  0
 27 83  1  0  0  0  0
 28 30  2  0  0  0  0
 28 82  1  0  0  0  0
 29 84  1  0  0  0  0
 30 85  1  0  0  0  0
 31 86  1  0  0  0  0
 32 66  2  0  0  0  0
 33 67  1  0  0  0  0
 33 70  1  0  0  0  0
 34 71  1  0  0  0  0
 34 77  2  0  0  0  0
 35 52  1  0  0  0  0
 35 73  1  0  0  0  0
 35 78  2  0  0  0  0
 36 63  1  0  0  0  0
 36 68  1  0  0  0  0
 36 79  2  0  0  0  0
 37 64  1  0  0  0  0
 37 74  1  0  0  0  0
 37 80  2  0  0  0  0
 38 69  1  0  0  0  0
 38 72  1  0  0  0  0
 38 81  2  0  0  0  0
 39 42  1  0  0  0  0
 40 52  1  0  0  0  0
 41 68  1  0  0  0  0
 42 44  1  0  0  0  0
 43 45  1  0  0  0  0
 43 48  1  0  0  0  0
 44 51  1  0  0  0  0
 45 53  1  0  0  0  0
 46 47  1  0  0  0  0
 46 54  1  0  0  0  0
 47 55  1  0  0  0  0
 48 69  1  0  0  0  0
 49 53  1  0  0  0  0
 49 69  1  0  0  0  0
 50 54  1  0  0  0  0
 50 75  1  0  0  0  0
 51 73  1  0  0  0  0
 52 68  1  0  0  0  0
 53 67  1  0  0  0  0
 54 83  1  0  0  0  0
 55 56  1  0  0  0  0
 55 75  1  0  0  0  0
 57 64  1  0  0  0  0
 58 65  1  0  0  0  0
 59 65  1  0  0  0  0
 60 65  1  0  0  0  0
 61 76  1  0  0  0  0
 62 75  1  0  0  0  0
 63 65  1  0  0  0  0
 63 74  1  0  0  0  0
 64 76  1  0  0  0  0
 66 67  1  0  0  0  0
M  CHG  2  75   1  76   1
M  ISO  4  38 100  54 101  72 100  83 101
M  END
> <Batch ID>
0025

> <Smiles>
CNC(C)C(=O)NC(C(=O)N1Cc2cc([101O:1][101CH:1]3CCC(C)N(Cc4ccc([100NH:0][100C:0](=O)N5CCCC(n6nc(-c7ccc(Oc8ccc(F)cc8F)cc7)c(C(N)=O)c6N)C5)cc4Cl)C3)ccc2CC1C(=O)NC1CCCc2ccccc21)C(C)(C)C

> <Shape>
0.259

> <Color>
0.071

> <Negative vol penalty>
0.000

$$$$

  -OEChem-04042321223D

 85 94  0     1  0  0  0  0  0999 V2000
  -29.3003  -35.7319   20.1751 C   0  0  0  0  0  0  0  0  0  0  0  0
  -29.3840  -34.3492   20.3034 C   0  0  0  0  0  0  0  0  0  0  0  0
  -24.0627  -10.4716   19.4203 C   0  0  0  0  0  0  0  0  0  0  0  0
  -24.3593  -10.8061   21.7946 C   0  0  0  0  0  0  0  0  0  0  0  0
  -28.3427  -36.4413   20.8988 C   0  0  0  0  0  0  0  0  0  0  0  0
  -28.5109  -33.6751   21.1565 C   0  0  0  0  0  0  0  0  0  0  0  0
  -26.5848  -29.4901   19.0540 C   0  0  0  0  0  0  0  0  0  0  0  0
  -27.5823  -17.6855   16.4959 C   0  0  0  0  0  0  0  0  0  0  0  0
  -22.7250  -10.1395   19.6342 C   0  0  0  0  0  0  0  0  0  0  0  0
  -23.0215  -10.4740   22.0085 C   0  0  0  0  0  0  0  0  0  0  0  0
  -27.4041  -28.3628   19.0136 C   0  0  0  0  0  0  0  0  0  0  0  0
  -21.1494   -7.6641   22.1831 C   0  0  0  0  0  0  0  0  0  0  0  0
  -20.8581   -6.7897   23.2301 C   0  0  0  0  0  0  0  0  0  0  0  0
  -27.1625  -18.7248   15.6658 C   0  0  0  0  0  0  0  0  0  0  0  0
  -26.2635  -27.4723   20.9437 C   0  0  0  0  0  0  0  0  0  0  0  0
  -28.4194  -19.2966   18.0898 C   0  0  0  0  0  0  0  0  0  0  0  0
  -19.4869   -8.4876   24.2666 C   0  0  0  0  0  0  0  0  0  0  0  0
  -24.8799  -10.8049   20.5006 C   0  0  0  0  0  0  0  0  0  0  0  0
  -27.2565  -10.3377   19.6999 C   0  0  0  0  0  0  0  0  0  0  0  0
  -27.4511  -35.7746   21.7538 C   0  0  0  0  0  0  0  0  0  0  0  0
  -25.6043  -29.6222   20.0477 C   0  0  0  0  0  0  0  0  0  0  0  0
  -27.5414  -34.3764   21.8934 C   0  0  0  0  0  0  0  0  0  0  0  0
  -25.4313  -28.6010   20.9929 C   0  0  0  0  0  0  0  0  0  0  0  0
  -27.9996  -20.3360   17.2597 C   0  0  0  0  0  0  0  0  0  0  0  0
  -28.2107  -17.9714   17.7080 C   0  0  0  0  0  0  0  0  0  0  0  0
  -22.2044  -10.1407   20.9282 C   0  0  0  0  0  0  0  0  0  0  0  0
  -27.2455  -27.3550   19.9603 C   0  0  0  0  0  0  0  0  0  0  0  0
  -20.6095   -8.9503   22.1778 C   0  0  0  0  0  0  0  0  0  0  0  0
  -20.0268   -7.2015   24.2718 C   0  0  0  0  0  0  0  0  0  0  0  0
  -19.7782   -9.3620   23.2195 C   0  0  0  0  0  0  0  0  0  0  0  0
  -27.3712  -20.0500   16.0476 C   0  0  0  0  0  0  0  0  0  0  0  0
  -26.2620  -11.1475   20.2804 C   0  0  0  0  0  0  0  0  0  0  0  0
  -28.3877  -11.1165   19.7186 C   0  0  0  0  0  0  0  0  0  0  0  0
  -27.1659   -9.0009   19.1893 C   0  0  0  0  0  0  0  0  0  0  0  0
  -25.0660  -31.6819   22.4082 C   0  0  0  0  0  0  0  0  0  0  0  0
  -22.3237  -29.9820   22.7434 C   0  0  0  0  0  0  0  0  0  0  0  0
  -21.3516  -26.5085   22.6583 C   0  0  0  0  0  0  0  0  0  0  0  0
  -29.2749  -17.0252   19.7862 C   0  0  0  0  0  0  0  0  0  0  0  0
  -26.4639  -36.5893   22.5515 C   0  0  0  0  0  0  0  0  0  0  0  0
  -24.7107  -30.8321   20.0614 C   0  0  0  0  0  0  0  0  0  0  0  0
  -24.3799  -28.6853   22.0680 C   0  0  0  0  0  0  0  0  0  0  0  0
  -25.3307  -35.7591   23.1487 C   0  0  0  0  0  0  0  0  0  0  0  0
  -30.4484  -14.6682   22.1830 C   0  0  0  0  0  0  0  0  0  0  0  0
  -25.8826  -34.5008   23.8113 C   0  0  0  0  0  0  0  0  0  0  0  0
  -29.6027  -13.4222   21.9102 C   0  0  0  0  0  0  0  0  0  0  0  0
  -27.4259  -23.6004   18.9624 C   0  0  0  0  0  0  0  0  0  0  0  0
  -29.2911  -23.8482   17.3125 C   0  0  0  0  0  0  0  0  0  0  0  0
  -29.6422  -15.9526   21.9974 C   0  0  0  0  0  0  0  0  0  0  0  0
  -27.6054  -22.0839   18.9334 C   0  0  0  0  0  0  0  0  0  0  0  0
  -29.4645  -22.3303   17.2817 C   0  0  0  0  0  0  0  0  0  0  0  0
  -28.1081  -14.8262   20.4331 C   0  0  0  0  0  0  0  0  0  0  0  0
  -26.5957  -33.6068   22.7897 C   0  0  1  0  0  0  0  0  0  0  0  0
  -24.0875  -31.0993   21.4280 C   0  0  1  0  0  0  0  0  0  0  0  0
  -28.7355  -24.3308   18.6545 C   0  0  0  0  0  0  0  0  0  0  0  0
  -28.8944  -13.5098   20.5441 C   0  0  2  0  0  0  0  0  0  0  0  0
  -19.1557  -25.4426   22.0759 C   0  0  0  0  0  0  0  0  0  0  0  0
  -21.8088  -30.0798   25.7492 C   0  0  0  0  0  0  0  0  0  0  0  0
  -20.7054  -27.8402   25.5627 C   0  0  0  0  0  0  0  0  0  0  0  0
  -19.7563  -29.8013   24.3478 C   0  0  0  0  0  0  0  0  0  0  0  0
  -22.5981  -24.7993   20.5885 C   0  0  0  0  0  0  0  0  0  0  0  0
  -28.5258  -25.8431   18.6447 C   0  0  0  0  0  0  0  0  0  1  0  0
  -21.9117  -28.7620   23.5314 C   0  0  1  0  0  0  0  0  0  0  0  0
  -20.5421  -25.8176   21.5758 C   0  0  2  0  0  0  0  0  0  0  0  0
  -21.0724  -29.1245   24.7890 C   0  0  0  0  0  0  0  0  0  0  0  0
  -26.7211  -12.3486   20.6417 N   0  0  0  0  0  0  0  0  0  0  0  0
  -28.0165  -12.2993   20.2874 N   0  0  0  0  0  0  0  0  0  0  0  0
  -28.2218  -21.6565   17.6707 N   0  0  0  0  0  0  0  0  0  0  0  0
  -23.5351  -29.8908   22.0433 N   0  0  0  0  0  0  0  0  0  0  0  0
  -29.0035  -15.9674   20.6796 N   0  0  0  0  0  0  0  0  0  0  0  0
  -29.6537  -10.8981   19.3040 N   0  0  0  0  0  0  0  0  0  0  0  0
  -27.4111   -7.9336   20.0639 N   0  0  0  0  0  0  0  0  0  0  0  0
  -28.6364  -16.9153   18.5513 N   0  0  0  0  0  0  0  0  0  0  0  0
  -25.6305  -32.8747   21.9981 N   0  0  0  0  0  0  0  0  0  0  0  0
  -21.2287  -27.8802   22.5910 N   0  0  0  0  0  0  0  0  0  0  0  0
  -21.2317  -24.5751   21.1267 N   0  3  0  0  0  0  0  0  0  0  0  0
  -26.8921   -8.7606   17.9890 O   0  0  0  0  0  0  0  0  0  0  0  0
  -25.2911  -31.0937   23.4594 O   0  0  0  0  0  0  0  0  0  0  0  0
  -21.5940  -30.9766   22.7430 O   0  0  0  0  0  0  0  0  0  0  0  0
  -22.0228  -25.8927   23.4835 O   0  0  0  0  0  0  0  0  0  0  0  0
  -30.0404  -17.9458   20.0838 O   0  0  0  0  0  0  0  0  0  0  0  0
  -20.8990   -9.8169   21.1372 O   0  0  0  0  0  0  0  0  0  0  0  0
  -28.0444  -26.2539   19.9237 O   0  0  0  0  0  0  0  0  0  1  0  0
  -19.7460   -6.3612   25.2764 F   0  0  0  0  0  0  0  0  0  0  0  0
  -19.2557  -10.5960   23.2193 F   0  0  0  0  0  0  0  0  0  0  0  0
  -26.8344  -21.3064   14.9906 Cl  0  0  0  0  0  0  0  0  0  0  0  0
  1  2  1  0  0  0  0
  1  5  2  0  0  0  0
  2  6  2  0  0  0  0
  3  9  2  0  0  0  0
  3 18  1  0  0  0  0
  4 10  1  0  0  0  0
  4 18  2  0  0  0  0
  5 20  1  0  0  0  0
  6 22  1  0  0  0  0
  7 11  2  0  0  0  0
  7 21  1  0  0  0  0
  8 14  2  0  0  0  0
  8 25  1  0  0  0  0
  9 26  1  0  0  0  0
 10 26  2  0  0  0  0
 11 27  1  0  0  0  0
 12 13  2  0  0  0  0
 12 28  1  0  0  0  0
 13 29  1  0  0  0  0
 14 31  1  0  0  0  0
 15 23  1  0  0  0  0
 15 27  2  0  0  0  0
 16 24  1  0  0  0  0
 16 25  2  0  0  0  0
 17 29  2  0  0  0  0
 17 30  1  0  0  0  0
 18 32  1  0  0  0  0
 19 32  1  0  0  0  0
 19 33  2  0  0  0  0
 19 34  1  0  0  0  0
 20 22  2  0  0  0  0
 20 39  1  0  0  0  0
 21 23  2  0  0  0  0
 21 40  1  0  0  0  0
 22 52  1  0  0  0  0
 23 41  1  0  0  0  0
 24 31  2  0  0  0  0
 24 67  1  0  0  0  0
 25 72  1  0  0  0  0
 26 81  1  0  0  0  0
 27 82  1  0  0  0  0
 28 30  2  0  0  0  0
 28 81  1  0  0  0  0
 29 83  1  0  0  0  0
 30 84  1  0  0  0  0
 31 85  1  0  0  0  0
 32 65  2  0  0  0  0
 33 66  1  0  0  0  0
 33 70  1  0  0  0  0
 34 71  1  0  0  0  0
 34 76  2  0  0  0  0
 35 53  1  0  0  0  0
 35 73  1  0  0  0  0
 35 77  2  0  0  0  0
 36 62  1  0  0  0  0
 36 68  1  0  0  0  0
 36 78  2  0  0  0  0
 37 63  1  0  0  0  0
 37 74  1  0  0  0  0
 37 79  2  0  0  0  0
 38 69  1  0  0  0  0
 38 72  1  0  0  0  0
 38 80  2  0  0  0  0
 39 42  1  0  0  0  0
 40 53  1  0  0  0  0
 41 68  1  0  0  0  0
 42 44  1  0  0  0  0
 43 45  1  0  0  0  0
 43 48  1  0  0  0  0
 44 52  1  0  0  0  0
 45 55  1  0  0  0  0
 46 49  1  0  0  0  0
 46 54  1  0  0  0  0
 47 50  1  0  0  0  0
 47 54  1  0  0  0  0
 48 69  1  0  0  0  0
 49 67  1  0  0  0  0
 50 67  1  0  0  0  0
 51 55  1  0  0  0  0
 51 69  1  0  0  0  0
 52 73  1  0  0  0  0
 53 68  1  0  0  0  0
 54 61  1  0  0  0  0
 55 66  1  0  0  0  0
 56 63  1  0  0  0  0
 57 64  1  0  0  0  0
 58 64  1  0  0  0  0
 59 64  1  0  0  0  0
 60 75  1  0  0  0  0
 61 82  1  0  0  0  0
 62 64  1  0  0  0  0
 62 74  1  0  0  0  0
 63 75  1  0  0  0  0
 65 66  1  0  0  0  0
M  CHG  1  75   1
M  ISO  4  38 100  61 101  72 100  82 101
M  END
> <Batch ID>
0025

> <Smiles>
CNC(C)C(=O)NC(C(=O)N1Cc2cc([101O:1][101CH2:1]C3CCN(c4cc([100NH:0][100C:0](=O)N5CCCC(n6nc(-c7ccc(Oc8ccc(F)cc8F)cc7)c(C(N)=O)c6N)C5)ccc4Cl)CC3)ccc2CC1C(=O)NC1CCCc2ccccc21)C(C)(C)C

> <Shape>
0.281

> <Color>
0.075

> <Negative vol penalty>
0.000

$$$$

  -OEChem-04042321223D

 86 95  0     1  0  0  0  0  0999 V2000
  -22.8891   -7.9790   21.6813 C   0  0  0  0  0  0  0  0  0  0  0  0
  -23.9314   -8.7193   22.2301 C   0  0  0  0  0  0  0  0  0  0  0  0
  -22.2178  -29.8209   21.8172 C   0  0  0  0  0  0  0  0  0  0  0  0
  -23.0448  -27.7563   22.7611 C   0  0  0  0  0  0  0  0  0  0  0  0
  -22.1746   -8.4824   20.5951 C   0  0  0  0  0  0  0  0  0  0  0  0
  -24.2604   -9.9630   21.6923 C   0  0  0  0  0  0  0  0  0  0  0  0
  -26.2854  -14.8733   24.7409 C   0  0  0  0  0  0  0  0  0  0  0  0
  -30.6145  -21.6536   20.7798 C   0  0  0  0  0  0  0  0  0  0  0  0
  -30.3481  -23.0009   20.5365 C   0  0  0  0  0  0  0  0  0  0  0  0
  -20.9097  -29.3524   21.9384 C   0  0  0  0  0  0  0  0  0  0  0  0
  -21.7365  -27.2878   22.8824 C   0  0  0  0  0  0  0  0  0  0  0  0
  -27.5641  -15.3918   24.9408 C   0  0  0  0  0  0  0  0  0  0  0  0
  -18.5991  -29.0211   24.3847 C   0  0  0  0  0  0  0  0  0  0  0  0
  -17.6429  -29.8949   24.9022 C   0  0  0  0  0  0  0  0  0  0  0  0
  -27.2342  -16.9030   23.0897 C   0  0  0  0  0  0  0  0  0  0  0  0
  -28.5889  -21.4888   22.0861 C   0  0  0  0  0  0  0  0  0  0  0  0
  -16.3740  -29.7194   22.8537 C   0  0  0  0  0  0  0  0  0  0  0  0
  -23.2854  -29.0228   22.2285 C   0  0  0  0  0  0  0  0  0  0  0  0
  -25.1877  -30.6559   22.7000 C   0  0  0  0  0  0  0  0  0  0  0  0
  -22.4887   -9.7373   20.0497 C   0  0  0  0  0  0  0  0  0  0  0  0
  -25.4742  -15.3591   23.7053 C   0  0  0  0  0  0  0  0  0  0  0  0
  -23.5502  -10.4831   20.5969 C   0  0  0  0  0  0  0  0  0  0  0  0
  -25.9446  -16.3908   22.8804 C   0  0  0  0  0  0  0  0  0  0  0  0
  -29.7349  -20.8975   21.5546 C   0  0  0  0  0  0  0  0  0  0  0  0
  -29.2021  -23.5923   21.0681 C   0  0  0  0  0  0  0  0  0  0  0  0
  -20.6690  -28.0859   22.4710 C   0  0  0  0  0  0  0  0  0  0  0  0
  -28.0397  -16.4047   24.1133 C   0  0  0  0  0  0  0  0  0  0  0  0
  -18.4428  -28.4965   23.1017 C   0  0  0  0  0  0  0  0  0  0  0  0
  -16.5304  -30.2441   24.1367 C   0  0  0  0  0  0  0  0  0  0  0  0
  -17.3303  -28.8456   22.3362 C   0  0  0  0  0  0  0  0  0  0  0  0
  -28.3224  -22.8363   21.8429 C   0  0  0  0  0  0  0  0  0  0  0  0
  -24.6371  -29.5060   22.1029 C   0  0  0  0  0  0  0  0  0  0  0  0
  -26.4930  -30.6728   22.2731 C   0  0  0  0  0  0  0  0  0  0  0  0
  -29.5823  -18.8770   22.9937 C   0  0  0  0  0  0  0  0  0  0  0  0
  -24.5741  -31.6222   23.5634 C   0  0  0  0  0  0  0  0  0  0  0  0
  -24.1595  -14.0921   21.1033 C   0  0  0  0  0  0  0  0  0  0  0  0
  -22.7461  -17.0028   20.8745 C   0  0  0  0  0  0  0  0  0  0  0  0
  -22.8170  -20.3266   21.6454 C   0  0  0  0  0  0  0  0  0  0  0  0
  -29.7476  -25.8375   20.0476 C   0  0  0  0  0  0  0  0  0  0  0  0
  -21.7188  -10.2188   18.8456 C   0  0  0  0  0  0  0  0  0  0  0  0
  -24.0872  -14.8078   23.5196 C   0  0  0  0  0  0  0  0  0  0  0  0
  -25.1055  -16.9611   21.7672 C   0  0  0  0  0  0  0  0  0  0  0  0
  -21.8869  -11.7111   18.5720 C   0  0  0  0  0  0  0  0  0  0  0  0
  -32.2937  -17.1917   22.0952 C   0  0  0  0  0  0  0  0  0  0  0  0
  -32.2025  -18.4501   21.2382 C   0  0  0  0  0  0  0  0  0  0  0  0
  -29.0063  -29.0845   18.4456 C   0  0  0  0  0  0  0  0  0  0  0  0
  -23.3578  -12.1066   18.6544 C   0  0  0  0  0  0  0  0  0  0  0  0
  -31.4752  -17.2372   23.3813 C   0  0  0  0  0  0  0  0  0  0  0  0
  -28.0245  -29.8009   19.3742 C   0  0  0  0  0  0  0  0  0  0  0  0
  -30.7800  -18.7642   20.7859 C   0  0  0  0  0  0  0  0  0  0  0  0
  -29.9579  -28.1585   19.1906 C   0  0  0  0  0  0  0  0  0  0  0  0
  -27.9992  -27.5981   20.6467 C   0  0  0  0  0  0  0  0  0  0  0  0
  -23.9210  -11.8474   20.0570 C   0  0  1  0  0  0  0  0  0  0  0  0
  -29.9725  -17.4066   23.1554 C   0  0  1  0  0  0  0  0  0  1  0  0
  -23.5430  -15.0212   22.1105 C   0  0  1  0  0  0  0  0  0  0  0  0
  -27.8951  -29.1277   20.7508 C   0  0  2  0  0  0  0  0  0  0  0  0
  -21.5449  -22.4597   21.2860 C   0  0  0  0  0  0  0  0  0  0  0  0
  -23.8277  -17.1652   18.0260 C   0  0  0  0  0  0  0  0  0  0  0  0
  -23.3640  -19.6252   18.0645 C   0  0  0  0  0  0  0  0  0  0  0  0
  -21.4865  -18.0000   18.3021 C   0  0  0  0  0  0  0  0  0  0  0  0
  -22.3466  -20.6709   24.5469 C   0  0  0  0  0  0  0  0  0  0  0  0
  -23.1026  -18.3160   20.2206 C   0  0  1  0  0  0  0  0  0  0  0  0
  -21.7495  -21.2565   22.1934 C   0  0  2  0  0  0  0  0  0  0  0  0
  -22.9620  -18.2647   18.6730 C   0  0  0  0  0  0  0  0  0  0  0  0
  -25.5203  -28.8408   21.3537 N   0  0  0  0  0  0  0  0  0  0  0  0
  -26.6391  -29.5751   21.4770 N   0  0  0  0  0  0  0  0  0  0  0  0
  -30.0112  -19.5006   21.8059 N   0  0  0  0  0  0  0  0  0  0  0  0
  -23.7586  -16.3846   21.6218 N   0  0  0  0  0  0  0  0  0  0  0  0
  -29.2292  -27.1532   19.9696 N   0  0  0  0  0  0  0  0  0  0  0  0
  -27.5186  -31.5196   22.5047 N   0  0  0  0  0  0  0  0  0  0  0  0
  -24.6179  -31.4049   24.9473 N   0  0  0  0  0  0  0  0  0  0  0  0
  -28.9608  -24.9630   20.8014 N   0  0  0  0  0  0  0  0  0  0  0  0
  -23.4979  -12.8862   20.9715 N   0  0  0  0  0  0  0  0  0  0  0  0
  -22.2733  -19.3301   20.8626 N   0  0  0  0  0  0  0  0  0  0  0  0
  -22.1358  -21.7483   23.5461 N   0  3  0  0  0  0  0  0  0  0  0  0
  -28.9745  -19.4386   23.9092 O   0  0  0  0  0  0  0  0  0  0  0  0
  -23.9895  -32.6396   23.1199 O   0  0  0  0  0  0  0  0  0  0  0  0
  -25.1605  -14.4440   20.4901 O   0  0  0  0  0  0  0  0  0  0  0  0
  -21.6089  -16.5461   20.7336 O   0  0  0  0  0  0  0  0  0  0  0  0
  -24.0137  -20.4721   21.8845 O   0  0  0  0  0  0  0  0  0  0  0  0
  -30.7935  -25.5188   19.4778 O   0  0  0  0  0  0  0  0  0  0  0  0
  -19.3926  -27.6285   22.5897 O   0  0  0  0  0  0  0  0  0  0  0  0
  -29.2877  -16.9121   24.3058 O   0  0  0  0  0  0  0  0  0  1  0  0
  -15.6115  -31.0820   24.6343 F   0  0  0  0  0  0  0  0  0  0  0  0
  -17.1741  -28.3439   21.1035 F   0  0  0  0  0  0  0  0  0  0  0  0
  -26.8919  -23.5294   22.5197 Cl  0  0  0  0  0  0  0  0  0  0  0  0
  1  2  1  0  0  0  0
  1  5  2  0  0  0  0
  2  6  2  0  0  0  0
  3 10  2  0  0  0  0
  3 18  1  0  0  0  0
  4 11  1  0  0  0  0
  4 18  2  0  0  0  0
  5 20  1  0  0  0  0
  6 22  1  0  0  0  0
  7 12  2  0  0  0  0
  7 21  1  0  0  0  0
  8  9  2  0  0  0  0
  8 24  1  0  0  0  0
  9 25  1  0  0  0  0
 10 26  1  0  0  0  0
 11 26  2  0  0  0  0
 12 27  1  0  0  0  0
 13 14  2  0  0  0  0
 13 28  1  0  0  0  0
 14 29  1  0  0  0  0
 15 23  1  0  0  0  0
 15 27  2  0  0  0  0
 16 24  2  0  0  0  0
 16 31  1  0  0  0  0
 17 29  2  0  0  0  0
 17 30  1  0  0  0  0
 18 32  1  0  0  0  0
 19 32  1  0  0  0  0
 19 33  2  0  0  0  0
 19 35  1  0  0  0  0
 20 22  2  0  0  0  0
 20 40  1  0  0  0  0
 21 23  2  0  0  0  0
 21 41  1  0  0  0  0
 22 53  1  0  0  0  0
 23 42  1  0  0  0  0
 24 67  1  0  0  0  0
 25 31  2  0  0  0  0
 25 72  1  0  0  0  0
 26 82  1  0  0  0  0
 27 83  1  0  0  0  0
 28 30  2  0  0  0  0
 28 82  1  0  0  0  0
 29 84  1  0  0  0  0
 30 85  1  0  0  0  0
 31 86  1  0  0  0  0
 32 65  2  0  0  0  0
 33 66  1  0  0  0  0
 33 70  1  0  0  0  0
 34 54  1  0  0  0  0
 34 67  1  0  0  0  0
 34 76  2  0  0  0  0
 35 71  1  0  0  0  0
 35 77  2  0  0  0  0
 36 55  1  0  0  0  0
 36 73  1  0  0  0  0
 36 78  2  0  0  0  0
 37 62  1  0  0  0  0
 37 68  1  0  0  0  0
 37 79  2  0  0  0  0
 38 63  1  0  0  0  0
 38 74  1  0  0  0  0
 38 80  2  0  0  0  0
 39 69  1  0  0  0  0
 39 72  1  0  0  0  0
 39 81  2  0  0  0  0
 40 43  1  0  0  0  0
 41 55  1  0  0  0  0
 42 68  1  0  0  0  0
 43 47  1  0  0  0  0
 44 45  1  0  0  0  0
 44 48  1  0  0  0  0
 45 50  1  0  0  0  0
 46 49  1  0  0  0  0
 46 51  1  0  0  0  0
 47 53  1  0  0  0  0
 48 54  1  0  0  0  0
 49 56  1  0  0  0  0
 50 67  1  0  0  0  0
 51 69  1  0  0  0  0
 52 56  1  0  0  0  0
 52 69  1  0  0  0  0
 53 73  1  0  0  0  0
 54 83  1  0  0  0  0
 55 68  1  0  0  0  0
 56 66  1  0  0  0  0
 57 63  1  0  0  0  0
 58 64  1  0  0  0  0
 59 64  1  0  0  0  0
 60 64  1  0  0  0  0
 61 75  1  0  0  0  0
 62 64  1  0  0  0  0
 62 74  1  0  0  0  0
 63 75  1  0  0  0  0
 65 66  1  0  0  0  0
M  CHG  1  75   1
M  ISO  4  39 100  54 101  72 100  83 101
M  END
> <Batch ID>
0025

> <Smiles>
CNC(C)C(=O)NC(C(=O)N1Cc2cc([101O:1][101CH:1]3CCCCN(c4ccc([100NH:0][100C:0](=O)N5CCCC(n6nc(-c7ccc(Oc8ccc(F)cc8F)cc7)c(C(N)=O)c6N)C5)c(Cl)c4)C3=O)ccc2CC1C(=O)NC1CCCc2ccccc21)C(C)(C)C

> <Shape>
0.261

> <Color>
0.076

> <Negative vol penalty>
0.000

$$$$

  -OEChem-04042321223D

 85 94  0     1  0  0  0  0  0999 V2000
  -28.2863  -23.6068   17.3573 C   0  0  0  0  0  0  0  0  0  0  0  0
  -27.1158  -23.8201   18.0782 C   0  0  0  0  0  0  0  0  0  0  0  0
  -27.6186  -12.8125   19.8498 C   0  0  0  0  0  0  0  0  0  0  0  0
  -27.7784  -13.8007   22.0486 C   0  0  0  0  0  0  0  0  0  0  0  0
  -29.4712  -24.2244   17.7554 C   0  0  0  0  0  0  0  0  0  0  0  0
  -27.1297  -24.6504   19.1984 C   0  0  0  0  0  0  0  0  0  0  0  0
  -23.1989  -27.8415   19.3002 C   0  0  0  0  0  0  0  0  0  0  0  0
  -28.8726  -12.2266   20.0218 C   0  0  0  0  0  0  0  0  0  0  0  0
  -29.0325  -13.2147   22.2208 C   0  0  0  0  0  0  0  0  0  0  0  0
  -21.9697  -27.3248   19.7075 C   0  0  0  0  0  0  0  0  0  0  0  0
  -30.1716   -9.5472   21.6238 C   0  0  0  0  0  0  0  0  0  0  0  0
  -30.3181   -8.2096   21.2563 C   0  0  0  0  0  0  0  0  0  0  0  0
  -22.3112  -28.2601   21.9047 C   0  0  0  0  0  0  0  0  0  0  0  0
  -18.6728  -21.0206   24.3124 C   0  0  0  0  0  0  0  0  0  0  0  0
  -20.1921  -21.2457   22.4476 C   0  0  0  0  0  0  0  0  0  0  0  0
  -19.6792  -19.0560   23.3304 C   0  0  0  0  0  0  0  0  0  0  0  0
  -32.0204   -8.8347   19.6599 C   0  0  0  0  0  0  0  0  0  0  0  0
  -27.0715  -13.5996   20.8631 C   0  0  0  0  0  0  0  0  0  0  0  0
  -24.5262  -13.6541   21.0246 C   0  0  0  0  0  0  0  0  0  0  0  0
  -29.4976  -25.0703   18.8754 C   0  0  0  0  0  0  0  0  0  0  0  0
  -23.9998  -28.5633   20.1968 C   0  0  0  0  0  0  0  0  0  0  0  0
  -28.3164  -25.2789   19.6126 C   0  0  0  0  0  0  0  0  0  0  0  0
  -23.5490  -28.7871   21.5056 C   0  0  0  0  0  0  0  0  0  0  0  0
  -19.3502  -21.8255   23.3966 C   0  0  0  0  0  0  0  0  0  0  0  0
  -18.8373  -19.6358   24.2794 C   0  0  0  0  0  0  0  0  0  0  0  0
  -20.3566  -19.8609   22.4145 C   0  0  0  0  0  0  0  0  0  0  0  0
  -29.5796  -12.4277   21.2073 C   0  0  0  0  0  0  0  0  0  0  0  0
  -21.5270  -27.5316   21.0107 C   0  0  0  0  0  0  0  0  0  0  0  0
  -30.9494  -10.5286   21.0092 C   0  0  0  0  0  0  0  0  0  0  0  0
  -31.2425   -7.8534   20.2744 C   0  0  0  0  0  0  0  0  0  0  0  0
  -31.8738  -10.1723   20.0273 C   0  0  0  0  0  0  0  0  0  0  0  0
  -25.7763  -14.2055   20.6857 C   0  0  0  0  0  0  0  0  0  0  0  0
  -23.6162  -14.6160   20.6594 C   0  0  0  0  0  0  0  0  0  0  0  0
  -19.7938  -24.1830   22.5754 C   0  0  0  0  0  0  0  0  0  0  0  0
  -24.2152  -12.3858   21.6167 C   0  0  0  0  0  0  0  0  0  0  0  0
  -26.9013  -28.1663   21.4328 C   0  0  0  0  0  0  0  0  0  0  0  0
  -26.3521  -31.1141   22.6704 C   0  0  0  0  0  0  0  0  0  0  0  0
  -24.0840  -33.4701   23.6461 C   0  0  0  0  0  0  0  0  0  0  0  0
  -21.9547  -19.9269   20.4681 C   0  0  0  0  0  0  0  0  0  0  0  0
  -30.8125  -25.6783   19.2951 C   0  0  0  0  0  0  0  0  0  0  0  0
  -25.3110  -29.1370   19.7343 C   0  0  0  0  0  0  0  0  0  0  0  0
  -24.3620  -29.5726   22.5009 C   0  0  0  0  0  0  0  0  0  0  0  0
  -30.6615  -26.8405   20.2732 C   0  0  0  0  0  0  0  0  0  0  0  0
  -24.2031  -18.8388   17.9308 C   0  0  0  0  0  0  0  0  0  0  0  0
  -29.6819  -26.4787   21.3851 C   0  0  0  0  0  0  0  0  0  0  0  0
  -24.7100  -17.4910   18.4492 C   0  0  0  0  0  0  0  0  0  0  0  0
  -18.6944  -25.3454   24.3374 C   0  0  0  0  0  0  0  0  0  0  0  0
  -24.0033  -19.8435   19.0641 C   0  0  0  0  0  0  0  0  0  0  0  0
  -18.2739  -23.8895   24.3580 C   0  0  0  0  0  0  0  0  0  0  0  0
  -23.6700  -18.0232   20.6903 C   0  0  0  0  0  0  0  0  0  0  0  0
  -28.2859  -26.1923   20.8188 C   0  0  1  0  0  0  0  0  0  0  0  0
  -19.1995  -25.5404   22.9152 C   0  0  1  0  0  0  0  0  0  0  0  0
  -26.2782  -29.4171   20.8803 C   0  0  1  0  0  0  0  0  0  0  0  0
  -23.8245  -16.9579   19.5926 C   0  0  2  0  0  0  0  0  0  0  0  0
  -23.9358  -35.7636   24.6536 C   0  0  0  0  0  0  0  0  0  0  0  0
  -27.0188  -29.9505   25.4111 C   0  0  0  0  0  0  0  0  0  0  0  0
  -25.9541  -31.9652   26.4482 C   0  0  0  0  0  0  0  0  0  0  0  0
  -27.9594  -32.2288   24.9881 C   0  0  0  0  0  0  0  0  0  0  0  0
  -22.7095  -34.5558   21.2605 C   0  0  0  0  0  0  0  0  0  0  0  0
  -20.1986  -26.6749   22.7876 C   0  0  0  0  0  0  0  0  0  1  0  0
  -25.7337  -31.6412   23.9427 C   0  0  1  0  0  0  0  0  0  0  0  0
  -23.9939  -34.9590   23.3644 C   0  0  2  0  0  0  0  0  0  0  0  0
  -26.6518  -31.4299   25.1796 C   0  0  0  0  0  0  0  0  0  0  0  0
  -25.6737  -15.4232   20.1465 N   0  0  0  0  0  0  0  0  0  0  0  0
  -24.3482  -15.6448   20.1438 N   0  0  0  0  0  0  0  0  0  0  0  0
  -19.1814  -23.2423   23.4290 N   0  0  0  0  0  0  0  0  0  0  0  0
  -25.6398  -30.1077   22.0027 N   0  0  0  0  0  0  0  0  0  0  0  0
  -23.1511  -19.2710   20.1085 N   0  0  0  0  0  0  0  0  0  0  0  0
  -18.1525  -18.8215   25.2051 N   0  0  0  0  0  0  0  0  0  0  0  0
  -22.2695  -14.6735   20.7323 N   0  0  0  0  0  0  0  0  0  0  0  0
  -25.2702  -11.5178   21.9293 N   0  0  0  0  0  0  0  0  0  0  0  0
  -21.2107  -19.2722   21.4492 N   0  0  0  0  0  0  0  0  0  0  0  0
  -27.6061  -27.4296   20.5001 N   0  0  0  0  0  0  0  0  0  0  0  0
  -25.3921  -33.0356   23.6833 N   0  0  0  0  0  0  0  0  0  0  0  0
  -22.7726  -35.2622   22.5659 N   0  3  0  0  0  0  0  0  0  0  0  0
  -20.6002  -24.0123   21.6727 O   0  0  0  0  0  0  0  0  0  0  0  0
  -23.0356  -12.0261   21.8462 O   0  0  0  0  0  0  0  0  0  0  0  0
  -26.7547  -27.8909   22.6178 O   0  0  0  0  0  0  0  0  0  0  0  0
  -27.4239  -31.5831   22.2794 O   0  0  0  0  0  0  0  0  0  0  0  0
  -23.0932  -32.7638   23.8196 O   0  0  0  0  0  0  0  0  0  0  0  0
  -21.6016  -20.9768   19.9250 O   0  0  0  0  0  0  0  0  0  0  0  0
  -30.8033  -11.8560   21.3757 O   0  0  0  0  0  0  0  0  0  0  0  0
  -20.3279  -27.0277   21.4110 O   0  0  0  0  0  0  0  0  0  1  0  0
  -31.3842   -6.5687   19.9227 F   0  0  0  0  0  0  0  0  0  0  0  0
  -32.6247  -11.1105   19.4342 F   0  0  0  0  0  0  0  0  0  0  0  0
  1  2  1  0  0  0  0
  1  5  2  0  0  0  0
  2  6  2  0  0  0  0
  3  8  2  0  0  0  0
  3 18  1  0  0  0  0
  4  9  1  0  0  0  0
  4 18  2  0  0  0  0
  5 20  1  0  0  0  0
  6 22  1  0  0  0  0
  7 10  2  0  0  0  0
  7 21  1  0  0  0  0
  8 27  1  0  0  0  0
  9 27  2  0  0  0  0
 10 28  1  0  0  0  0
 11 12  2  0  0  0  0
 11 29  1  0  0  0  0
 12 30  1  0  0  0  0
 13 23  1  0  0  0  0
 13 28  2  0  0  0  0
 14 24  1  0  0  0  0
 14 25  2  0  0  0  0
 15 24  2  0  0  0  0
 15 26  1  0  0  0  0
 16 25  1  0  0  0  0
 16 26  2  0  0  0  0
 17 30  2  0  0  0  0
 17 31  1  0  0  0  0
 18 32  1  0  0  0  0
 19 32  1  0  0  0  0
 19 33  2  0  0  0  0
 19 35  1  0  0  0  0
 20 22  2  0  0  0  0
 20 40  1  0  0  0  0
 21 23  2  0  0  0  0
 21 41  1  0  0  0  0
 22 51  1  0  0  0  0
 23 42  1  0  0  0  0
 24 66  1  0  0  0  0
 25 69  1  0  0  0  0
 26 72  1  0  0  0  0
 27 82  1  0  0  0  0
 28 83  1  0  0  0  0
 29 31  2  0  0  0  0
 29 82  1  0  0  0  0
 30 84  1  0  0  0  0
 31 85  1  0  0  0  0
 32 64  2  0  0  0  0
 33 65  1  0  0  0  0
 33 70  1  0  0  0  0
 34 52  1  0  0  0  0
 34 66  1  0  0  0  0
 34 76  2  0  0  0  0
 35 71  1  0  0  0  0
 35 77  2  0  0  0  0
 36 53  1  0  0  0  0
 36 73  1  0  0  0  0
 36 78  2  0  0  0  0
 37 61  1  0  0  0  0
 37 67  1  0  0  0  0
 37 79  2  0  0  0  0
 38 62  1  0  0  0  0
 38 74  1  0  0  0  0
 38 80  2  0  0  0  0
 39 68  1  0  0  0  0
 39 72  1  0  0  0  0
 39 81  2  0  0  0  0
 40 43  1  0  0  0  0
 41 53  1  0  0  0  0
 42 67  1  0  0  0  0
 43 45  1  0  0  0  0
 44 46  1  0  0  0  0
 44 48  1  0  0  0  0
 45 51  1  0  0  0  0
 46 54  1  0  0  0  0
 47 49  1  0  0  0  0
 47 52  1  0  0  0  0
 48 68  1  0  0  0  0
 49 66  1  0  0  0  0
 50 54  1  0  0  0  0
 50 68  1  0  0  0  0
 51 73  1  0  0  0  0
 52 60  1  0  0  0  0
 53 67  1  0  0  0  0
 54 65  1  0  0  0  0
 55 62  1  0  0  0  0
 56 63  1  0  0  0  0
 57 63  1  0  0  0  0
 58 63  1  0  0  0  0
 59 75  1  0  0  0  0
 60 83  1  0  0  0  0
 61 63  1  0  0  0  0
 61 74  1  0  0  0  0
 62 75  1  0  0  0  0
 64 65  1  0  0  0  0
M  CHG  1  75   1
M  ISO  4  39 100  60 101  72 100  83 101
M  END
> <Batch ID>
0025

> <Smiles>
CNC(C)C(=O)NC(C(=O)N1Cc2cc([101O:1][101CH2:1]C3CCN(c4cc(N)cc([100NH:0][100C:0](=O)N5CCCC(n6nc(-c7ccc(Oc8ccc(F)cc8F)cc7)c(C(N)=O)c6N)C5)c4)C3=O)ccc2CC1C(=O)NC1CCCc2ccccc21)C(C)(C)C

> <Shape>
0.261

> <Color>
0.078

> <Negative vol penalty>
0.000

$$$$

  -OEChem-04042321223D

 83 91  0     1  0  0  0  0  0999 V2000
  -32.7946  -29.5977   17.3623 C   0  0  0  0  0  0  0  0  0  0  0  0
  -32.3509  -28.8901   18.4749 C   0  0  0  0  0  0  0  0  0  0  0  0
  -23.1632   -9.7986   19.9701 C   0  0  0  0  0  0  0  0  0  0  0  0
  -23.9191   -9.8748   22.2636 C   0  0  0  0  0  0  0  0  0  0  0  0
  -32.1452  -30.7703   16.9789 C   0  0  0  0  0  0  0  0  0  0  0  0
  -31.2582  -29.3554   19.2055 C   0  0  0  0  0  0  0  0  0  0  0  0
  -27.9879  -25.6685   20.3702 C   0  0  0  0  0  0  0  0  0  0  0  0
  -31.5316  -18.7492   24.1130 C   0  0  0  0  0  0  0  0  0  0  0  0
  -22.4742   -8.6154   20.2365 C   0  0  0  0  0  0  0  0  0  0  0  0
  -23.2301   -8.6917   22.5300 C   0  0  0  0  0  0  0  0  0  0  0  0
  -28.3277  -24.8268   21.4284 C   0  0  0  0  0  0  0  0  0  0  0  0
  -20.0423   -7.7516   23.1424 C   0  0  0  0  0  0  0  0  0  0  0  0
  -19.2867   -7.6931   24.3134 C   0  0  0  0  0  0  0  0  0  0  0  0
  -32.1935  -17.5487   23.8557 C   0  0  0  0  0  0  0  0  0  0  0  0
  -26.8662  -26.0771   22.8844 C   0  0  0  0  0  0  0  0  0  0  0  0
  -20.6170   -5.8272   25.0788 C   0  0  0  0  0  0  0  0  0  0  0  0
  -23.8858  -10.4282   20.9836 C   0  0  0  0  0  0  0  0  0  0  0  0
  -24.1085  -12.9647   20.8268 C   0  0  0  0  0  0  0  0  0  0  0  0
  -31.0379  -31.2451   17.6994 C   0  0  0  0  0  0  0  0  0  0  0  0
  -27.0914  -26.7292   20.5641 C   0  0  0  0  0  0  0  0  0  0  0  0
  -30.5941  -30.5363   18.8322 C   0  0  0  0  0  0  0  0  0  0  0  0
  -26.5146  -26.9292   21.8264 C   0  0  0  0  0  0  0  0  0  0  0  0
  -30.3221  -19.0290   23.4769 C   0  0  0  0  0  0  0  0  0  0  0  0
  -30.4366  -16.9078   22.3262 C   0  0  0  0  0  0  0  0  0  0  0  0
  -22.5076   -8.0620   21.5165 C   0  0  0  0  0  0  0  0  0  0  0  0
  -27.7691  -25.0327   22.6864 C   0  0  0  0  0  0  0  0  0  0  0  0
  -21.0853   -6.8478   22.9396 C   0  0  0  0  0  0  0  0  0  0  0  0
  -19.5740   -6.7310   25.2816 C   0  0  0  0  0  0  0  0  0  0  0  0
  -21.3727   -5.8857   23.9077 C   0  0  0  0  0  0  0  0  0  0  0  0
  -31.6460  -16.6280   22.9623 C   0  0  0  0  0  0  0  0  0  0  0  0
  -29.7746  -18.1083   22.5835 C   0  0  0  0  0  0  0  0  0  0  0  0
  -24.5982  -11.6501   20.7089 C   0  0  0  0  0  0  0  0  0  0  0  0
  -25.1646  -13.7594   20.4532 C   0  0  0  0  0  0  0  0  0  0  0  0
  -22.8146  -13.4261   21.2375 C   0  0  0  0  0  0  0  0  0  0  0  0
  -27.2742  -29.8933   20.3213 C   0  0  0  0  0  0  0  0  0  0  0  0
  -24.0850  -29.7312   20.8914 C   0  0  0  0  0  0  0  0  0  0  0  0
  -21.4621  -27.9894   22.2080 C   0  0  0  0  0  0  0  0  0  0  0  0
  -30.5752  -15.0637   20.6155 C   0  0  0  0  0  0  0  0  0  0  0  0
  -30.3976  -32.5429   17.2747 C   0  0  0  0  0  0  0  0  0  0  0  0
  -26.7146  -27.6119   19.4059 C   0  0  0  0  0  0  0  0  0  0  0  0
  -25.5315  -28.0413   22.0818 C   0  0  0  0  0  0  0  0  0  0  0  0
  -29.0148  -32.7671   17.8813 C   0  0  0  0  0  0  0  0  0  0  0  0
  -29.5786  -12.5658   18.2822 C   0  0  0  0  0  0  0  0  0  0  0  0
  -29.0318  -32.4622   19.3759 C   0  0  0  0  0  0  0  0  0  0  0  0
  -28.1538  -12.2130   18.7152 C   0  0  0  0  0  0  0  0  0  0  0  0
  -30.4805  -12.8549   19.4809 C   0  0  0  0  0  0  0  0  0  0  0  0
  -28.5398  -13.5089   20.8504 C   0  0  0  0  0  0  0  0  0  0  0  0
  -29.3968  -30.9956   19.6356 C   0  0  1  0  0  0  0  0  0  0  0  0
  -26.1860  -28.9752   19.8409 C   0  0  1  0  0  0  0  0  0  0  0  0
  -27.5777  -13.2728   19.6747 C   0  0  2  0  0  0  0  0  0  0  0  0
  -18.9808  -28.1293   22.5561 C   0  0  0  0  0  0  0  0  0  0  0  0
  -24.5192  -31.7092   23.1737 C   0  0  0  0  0  0  0  0  0  0  0  0
  -22.2603  -31.0831   24.0533 C   0  0  0  0  0  0  0  0  0  0  0  0
  -22.4724  -32.1335   21.8007 C   0  0  0  0  0  0  0  0  0  0  0  0
  -20.9802  -25.5640   20.5819 C   0  0  0  0  0  0  0  0  0  0  0  0
  -29.2521  -22.3901   24.8094 C   0  0  0  0  0  0  0  0  0  0  0  0
  -30.2121  -21.2142   24.6764 C   0  0  0  0  0  0  0  0  0  0  0  0
  -29.0340  -23.1317   23.4958 C   0  0  0  0  0  0  0  0  0  1  0  0
  -23.2181  -29.7399   22.1273 C   0  0  1  0  0  0  0  0  0  0  0  0
  -20.0960  -27.6454   21.6423 C   0  0  2  0  0  0  0  0  0  0  0  0
  -23.1375  -31.1466   22.7847 C   0  0  0  0  0  0  0  0  0  0  0  0
  -25.8667  -11.6079   20.2927 N   0  0  0  0  0  0  0  0  0  0  0  0
  -26.1829  -12.9058   20.1458 N   0  0  0  0  0  0  0  0  0  0  0  0
  -25.1997  -28.8813   20.9191 N   0  0  0  0  0  0  0  0  0  0  0  0
  -29.8725  -13.8710   20.3428 N   0  0  0  0  0  0  0  0  0  0  0  0
  -25.3121  -15.0981   20.3608 N   0  0  0  0  0  0  0  0  0  0  0  0
  -21.8462  -12.4753   21.5875 N   0  0  0  0  0  0  0  0  0  0  0  0
  -29.8840  -15.9691   21.4199 N   0  0  0  0  0  0  0  0  0  0  0  0
  -29.6904  -20.2302   23.7589 N   0  0  0  0  0  0  0  0  0  0  0  0
  -28.2581  -30.1390   19.3827 N   0  0  0  0  0  0  0  0  0  0  0  0
  -21.9267  -29.1940   21.7239 N   0  0  0  0  0  0  0  0  0  0  0  0
  -19.9606  -26.1706   21.4760 N   0  3  0  0  0  0  0  0  0  0  0  0
  -22.5206  -14.6450   21.2767 O   0  0  0  0  0  0  0  0  0  0  0  0
  -27.2239  -30.3465   21.4587 O   0  0  0  0  0  0  0  0  0  0  0  0
  -23.7802  -30.4466   19.9339 O   0  0  0  0  0  0  0  0  0  0  0  0
  -22.0558  -27.2640   23.0028 O   0  0  0  0  0  0  0  0  0  0  0  0
  -31.6957  -15.2786   20.1460 O   0  0  0  0  0  0  0  0  0  0  0  0
  -21.8351   -6.9076   21.7769 O   0  0  0  0  0  0  0  0  0  0  0  0
  -28.0996  -24.2131   23.7212 O   0  0  0  0  0  0  0  0  0  1  0  0
  -18.8493   -6.6760   26.4067 F   0  0  0  0  0  0  0  0  0  0  0  0
  -22.3742   -5.0155   23.7190 F   0  0  0  0  0  0  0  0  0  0  0  0
  -32.5051  -15.1550   22.6777 Cl  0  0  0  0  0  0  0  0  0  0  0  0
  -28.2704  -18.4644   21.7924 Cl  0  0  0  0  0  0  0  0  0  0  0  0
  1  2  1  0  0  0  0
  1  5  2  0  0  0  0
  2  6  2  0  0  0  0
  3  9  2  0  0  0  0
  3 17  1  0  0  0  0
  4 10  1  0  0  0  0
  4 17  2  0  0  0  0
  5 19  1  0  0  0  0
  6 21  1  0  0  0  0
  7 11  2  0  0  0  0
  7 20  1  0  0  0  0
  8 14  2  0  0  0  0
  8 23  1  0  0  0  0
  9 25  1  0  0  0  0
 10 25  2  0  0  0  0
 11 26  1  0  0  0  0
 12 13  2  0  0  0  0
 12 27  1  0  0  0  0
 13 28  1  0  0  0  0
 14 30  1  0  0  0  0
 15 22  1  0  0  0  0
 15 26  2  0  0  0  0
 16 28  2  0  0  0  0
 16 29  1  0  0  0  0
 17 32  1  0  0  0  0
 18 32  1  0  0  0  0
 18 33  2  0  0  0  0
 18 34  1  0  0  0  0
 19 21  2  0  0  0  0
 19 39  1  0  0  0  0
 20 22  2  0  0  0  0
 20 40  1  0  0  0  0
 21 48  1  0  0  0  0
 22 41  1  0  0  0  0
 23 31  2  0  0  0  0
 23 69  1  0  0  0  0
 24 30  2  0  0  0  0
 24 31  1  0  0  0  0
 24 68  1  0  0  0  0
 25 78  1  0  0  0  0
 26 79  1  0  0  0  0
 27 29  2  0  0  0  0
 27 78  1  0  0  0  0
 28 80  1  0  0  0  0
 29 81  1  0  0  0  0
 30 82  1  0  0  0  0
 31 83  1  0  0  0  0
 32 62  2  0  0  0  0
 33 63  1  0  0  0  0
 33 66  1  0  0  0  0
 34 67  1  0  0  0  0
 34 73  2  0  0  0  0
 35 49  1  0  0  0  0
 35 70  1  0  0  0  0
 35 74  2  0  0  0  0
 36 59  1  0  0  0  0
 36 64  1  0  0  0  0
 36 75  2  0  0  0  0
 37 60  1  0  0  0  0
 37 71  1  0  0  0  0
 37 76  2  0  0  0  0
 38 65  1  0  0  0  0
 38 68  1  0  0  0  0
 38 77  2  0  0  0  0
 39 42  1  0  0  0  0
 40 49  1  0  0  0  0
 41 64  1  0  0  0  0
 42 44  1  0  0  0  0
 43 45  1  0  0  0  0
 43 46  1  0  0  0  0
 44 48  1  0  0  0  0
 45 50  1  0  0  0  0
 46 65  1  0  0  0  0
 47 50  1  0  0  0  0
 47 65  1  0  0  0  0
 48 70  1  0  0  0  0
 49 64  1  0  0  0  0
 50 63  1  0  0  0  0
 51 60  1  0  0  0  0
 52 61  1  0  0  0  0
 53 61  1  0  0  0  0
 54 61  1  0  0  0  0
 55 72  1  0  0  0  0
 56 57  1  0  0  0  0
 56 58  1  0  0  0  0
 57 69  1  0  0  0  0
 58 79  1  0  0  0  0
 59 61  1  0  0  0  0
 59 71  1  0  0  0  0
 60 72  1  0  0  0  0
 62 63  1  0  0  0  0
M  CHG  1  72   1
M  ISO  4  38 100  58 101  68 100  79 101
M  END
> <Batch ID>
0025

> <Smiles>
CNC(C)C(=O)NC(C(=O)N1Cc2cc([101O:1][101CH2:1]CCNc3ccc(Cl)c([100NH:0][100C:0](=O)N4CCCC(n5nc(-c6ccc(Oc7ccc(F)cc7F)cc6)c(C(N)=O)c5N)C4)c3Cl)ccc2CC1C(=O)NC1CCCc2ccccc21)C(C)(C)C

> <Shape>
0.310

> <Color>
0.216

> <Negative vol penalty>
0.000

$$$$

  -OEChem-04042321223D

 91100  0     1  0  0  0  0  0999 V2000
  -27.1490  -37.5227   17.4598 C   0  0  0  0  0  0  0  0  0  0  0  0
  -27.4643  -36.1747   17.3225 C   0  0  0  0  0  0  0  0  0  0  0  0
  -28.8241  -20.9659   16.7629 C   0  0  0  0  0  0  0  0  0  0  0  0
  -24.5239   -8.9420   22.0291 C   0  0  0  0  0  0  0  0  0  0  0  0
  -22.9949   -9.8427   20.3896 C   0  0  0  0  0  0  0  0  0  0  0  0
  -26.8953  -38.0528   18.7242 C   0  0  0  0  0  0  0  0  0  0  0  0
  -27.5273  -35.3562   18.4497 C   0  0  0  0  0  0  0  0  0  0  0  0
  -25.9524  -29.4485   18.8021 C   0  0  0  0  0  0  0  0  0  0  0  0
  -29.6329  -21.1138   17.8897 C   0  0  0  0  0  0  0  0  0  0  0  0
  -28.2264  -19.7354   16.4901 C   0  0  0  0  0  0  0  0  0  0  0  0
  -23.8035   -7.7478   22.0449 C   0  0  0  0  0  0  0  0  0  0  0  0
  -22.2745   -8.6484   20.4054 C   0  0  0  0  0  0  0  0  0  0  0  0
  -26.7018  -28.2737   18.7571 C   0  0  0  0  0  0  0  0  0  0  0  0
  -20.9419   -6.5836   23.4161 C   0  0  0  0  0  0  0  0  0  0  0  0
  -20.6557   -6.0166   24.6580 C   0  0  0  0  0  0  0  0  0  0  0  0
  -26.7476  -28.2176   21.1683 C   0  0  0  0  0  0  0  0  0  0  0  0
  -21.8693   -4.0247   24.0283 C   0  0  0  0  0  0  0  0  0  0  0  0
  -24.1196   -9.9896   21.2015 C   0  0  0  0  0  0  0  0  0  0  0  0
  -25.0960  -12.0903   22.2699 C   0  0  0  0  0  0  0  0  0  0  0  0
  -26.9457  -37.2383   19.8664 C   0  0  0  0  0  0  0  0  0  0  0  0
  -25.6037  -30.0235   20.0326 C   0  0  0  0  0  0  0  0  0  0  0  0
  -27.2753  -35.8762   19.7307 C   0  0  0  0  0  0  0  0  0  0  0  0
  -25.9915  -29.3983   21.2263 C   0  0  0  0  0  0  0  0  0  0  0  0
  -29.8441  -20.0312   18.7436 C   0  0  0  0  0  0  0  0  0  0  0  0
  -28.4376  -18.6529   17.3440 C   0  0  0  0  0  0  0  0  0  0  0  0
  -22.6788   -7.6009   21.2331 C   0  0  0  0  0  0  0  0  0  0  0  0
  -27.1020  -27.6596   19.9403 C   0  0  0  0  0  0  0  0  0  0  0  0
  -21.6917   -5.8710   22.4803 C   0  0  0  0  0  0  0  0  0  0  0  0
  -21.1194   -4.7372   24.9641 C   0  0  0  0  0  0  0  0  0  0  0  0
  -22.1555   -4.5916   22.7864 C   0  0  0  0  0  0  0  0  0  0  0  0
  -29.2464  -18.8007   18.4707 C   0  0  0  0  0  0  0  0  0  0  0  0
  -24.8630  -11.2237   21.1851 C   0  0  0  0  0  0  0  0  0  0  0  0
  -25.8471  -13.1104   21.7392 C   0  0  0  0  0  0  0  0  0  0  0  0
  -24.6715  -11.9826   23.6351 C   0  0  0  0  0  0  0  0  0  0  0  0
  -26.2166  -32.7922   21.4687 C   0  0  0  0  0  0  0  0  0  0  0  0
  -24.1233  -31.6652   23.6756 C   0  0  0  0  0  0  0  0  0  0  0  0
  -22.6110  -28.9700   25.1232 C   0  0  0  0  0  0  0  0  0  0  0  0
  -26.8921  -16.7900   17.9205 C   0  0  0  0  0  0  0  0  0  0  0  0
  -26.7102  -37.8667   21.2171 C   0  0  0  0  0  0  0  0  0  0  0  0
  -24.7722  -31.2766   20.0643 C   0  0  0  0  0  0  0  0  0  0  0  0
  -25.6256  -29.9643   22.5732 C   0  0  0  0  0  0  0  0  0  0  0  0
  -26.4298  -36.8505   22.3211 C   0  0  0  0  0  0  0  0  0  0  0  0
  -28.1539  -13.5307   17.2664 C   0  0  0  0  0  0  0  0  0  0  0  0
  -31.7294  -21.0379   22.8358 C   0  0  0  0  0  0  0  0  0  0  0  0
  -27.4337  -35.7038   22.2587 C   0  0  0  0  0  0  0  0  0  0  0  0
  -27.4155  -12.7028   18.3175 C   0  0  0  0  0  0  0  0  0  0  0  0
  -31.0337  -22.3828   23.0203 C   0  0  0  0  0  0  0  0  0  0  0  0
  -27.2594  -14.6100   16.6558 C   0  0  0  0  0  0  0  0  0  0  0  0
  -25.8761  -14.6649   18.7071 C   0  0  0  0  0  0  0  0  0  0  0  0
  -30.7455  -19.9423   22.4497 C   0  0  0  0  0  0  0  0  0  0  0  0
  -29.2313  -21.6532   21.4079 C   0  0  0  0  0  0  0  0  0  0  0  0
  -27.3290  -34.9509   20.9269 C   0  0  1  0  0  0  0  0  0  0  0  0
  -24.9119  -32.0535   21.3698 C   0  0  1  0  0  0  0  0  0  0  0  0
  -26.7677  -13.6092   19.3792 C   0  0  1  0  0  0  0  0  0  0  0  0
  -30.2123  -22.7564   21.7878 C   0  0  1  0  0  0  0  0  0  0  0  0
  -20.9756  -28.3621   26.9269 C   0  0  0  0  0  0  0  0  0  0  0  0
  -26.2632  -32.1850   25.7876 C   0  0  0  0  0  0  0  0  0  0  0  0
  -24.9754  -30.7161   27.3536 C   0  0  0  0  0  0  0  0  0  0  0  0
  -23.9424  -32.8110   26.4779 C   0  0  0  0  0  0  0  0  0  0  0  0
  -27.9259  -16.8729   15.6623 C   0  0  0  0  0  0  0  0  0  0  0  0
  -20.7548  -27.7268   23.1821 C   0  0  0  0  0  0  0  0  0  0  0  0
  -30.7218  -20.2376   19.9427 C   0  0  0  0  0  0  0  0  0  0  0  0
  -29.0327  -24.6466   20.8355 C   0  0  0  0  0  0  0  0  0  0  0  0
  -24.2372  -30.8336   24.9303 C   0  0  1  0  0  0  0  0  0  0  0  0
  -21.1562  -28.6877   25.4524 C   0  0  2  0  0  0  0  0  0  0  0  0
  -24.8632  -31.6266   26.1121 C   0  0  0  0  0  0  0  0  0  0  0  0
  -28.2317  -25.9035   21.1305 C   0  0  0  0  0  0  0  0  0  1  0  0
  -25.4208  -11.6558   20.0510 N   0  0  0  0  0  0  0  0  0  0  0  0
  -26.0116  -12.8050   20.4202 N   0  0  0  0  0  0  0  0  0  0  0  0
  -24.8170  -31.1944   22.5518 N   0  0  0  0  0  0  0  0  0  0  0  0
  -26.6321  -15.4231   17.7072 N   0  0  0  0  0  0  0  0  0  0  0  0
  -26.3761  -14.2300   22.2768 N   0  0  0  0  0  0  0  0  0  0  0  0
  -23.4428  -12.5499   23.9995 N   0  0  0  0  0  0  0  0  0  0  0  0
  -26.1836  -34.0664   20.9349 N   0  0  0  0  0  0  0  0  0  0  0  0
  -22.9000  -30.3161   25.1998 N   0  0  0  0  0  0  0  0  0  0  0  0
  -29.4539  -24.0001   22.0715 N   0  0  0  0  0  0  0  0  0  0  0  0
  -27.8022  -17.3953   17.0274 N   0  0  0  0  0  0  0  0  0  0  0  0
  -29.9483  -20.3364   21.2297 N   0  3  1  0  0  0  0  0  0  0  0  0
  -20.6586  -27.5333   24.6519 N   0  3  0  0  0  0  0  0  0  0  0  0
  -25.3690  -11.4149   24.5096 O   0  0  0  0  0  0  0  0  0  0  0  0
  -27.1814  -32.2472   21.9921 O   0  0  0  0  0  0  0  0  0  0  0  0
  -23.4381  -32.6909   23.6900 O   0  0  0  0  0  0  0  0  0  0  0  0
  -23.4119  -28.0846   24.8313 O   0  0  0  0  0  0  0  0  0  0  0  0
  -26.3345  -17.4269   18.8224 O   0  0  0  0  0  0  0  0  0  0  0  0
  -21.9757   -6.4356   21.2481 O   0  0  0  0  0  0  0  0  0  0  0  0
  -27.8341  -26.5132   19.8991 O   0  0  0  0  0  0  0  0  0  1  0  0
  -20.8458   -4.1935   26.1573 F   0  0  0  0  0  0  0  0  0  0  0  0
  -22.8773   -3.9027   21.8919 F   0  0  0  0  0  0  0  0  0  0  0  0
  -27.1304  -25.5881   21.8548 F   0  0  0  0  0  0  0  0  0  0  0  0
  -28.9872  -26.7746   21.8427 F   0  0  0  0  0  0  0  0  0  0  0  0
  -29.5125  -17.4587   19.5355 Cl  0  0  0  0  0  0  0  0  0  0  0  0
  1  2  1  0  0  0  0
  1  6  2  0  0  0  0
  2  7  2  0  0  0  0
  3  9  2  0  0  0  0
  3 10  1  0  0  0  0
  4 11  2  0  0  0  0
  4 18  1  0  0  0  0
  5 12  1  0  0  0  0
  5 18  2  0  0  0  0
  6 20  1  0  0  0  0
  7 22  1  0  0  0  0
  8 13  2  0  0  0  0
  8 21  1  0  0  0  0
  9 24  1  0  0  0  0
 10 25  2  0  0  0  0
 11 26  1  0  0  0  0
 12 26  2  0  0  0  0
 13 27  1  0  0  0  0
 14 15  2  0  0  0  0
 14 28  1  0  0  0  0
 15 29  1  0  0  0  0
 16 23  1  0  0  0  0
 16 27  2  0  0  0  0
 17 29  2  0  0  0  0
 17 30  1  0  0  0  0
 18 32  1  0  0  0  0
 19 32  1  0  0  0  0
 19 33  2  0  0  0  0
 19 34  1  0  0  0  0
 20 22  2  0  0  0  0
 20 39  1  0  0  0  0
 21 23  2  0  0  0  0
 21 40  1  0  0  0  0
 22 52  1  0  0  0  0
 23 41  1  0  0  0  0
 24 31  2  0  0  0  0
 24 62  1  0  0  0  0
 25 31  1  0  0  0  0
 25 77  1  0  0  0  0
 26 85  1  0  0  0  0
 27 86  1  0  0  0  0
 28 30  2  0  0  0  0
 28 85  1  0  0  0  0
 29 87  1  0  0  0  0
 30 88  1  0  0  0  0
 31 91  1  0  0  0  0
 32 68  2  0  0  0  0
 33 69  1  0  0  0  0
 33 72  1  0  0  0  0
 34 73  1  0  0  0  0
 34 80  2  0  0  0  0
 35 53  1  0  0  0  0
 35 74  1  0  0  0  0
 35 81  2  0  0  0  0
 36 64  1  0  0  0  0
 36 70  1  0  0  0  0
 36 82  2  0  0  0  0
 37 65  1  0  0  0  0
 37 75  1  0  0  0  0
 37 83  2  0  0  0  0
 38 71  1  0  0  0  0
 38 77  1  0  0  0  0
 38 84  2  0  0  0  0
 39 42  1  0  0  0  0
 40 53  1  0  0  0  0
 41 70  1  0  0  0  0
 42 45  1  0  0  0  0
 43 46  1  0  0  0  0
 43 48  1  0  0  0  0
 44 47  1  0  0  0  0
 44 50  1  0  0  0  0
 45 52  1  0  0  0  0
 46 54  1  0  0  0  0
 47 55  1  0  0  0  0
 48 71  1  0  0  0  0
 49 54  1  0  0  0  0
 49 71  1  0  0  0  0
 50 78  1  0  0  0  0
 51 55  1  0  0  0  0
 51 78  1  0  0  0  0
 52 74  1  0  0  0  0
 53 70  1  0  0  0  0
 54 69  1  0  0  0  0
 55 76  1  0  0  0  0
 56 65  1  0  0  0  0
 57 66  1  0  0  0  0
 58 66  1  0  0  0  0
 59 66  1  0  0  0  0
 60 77  1  0  0  0  0
 61 79  1  0  0  0  0
 62 78  1  0  0  0  0
 63 67  1  0  0  0  0
 63 76  1  0  0  0  0
 64 66  1  0  0  0  0
 64 75  1  0  0  0  0
 65 79  1  0  0  0  0
 67 86  1  0  0  0  0
 67 89  1  0  0  0  0
 67 90  1  0  0  0  0
 68 69  1  0  0  0  0
M  CHG  2  78   1  79   1
M  ISO  4  38 100  67 101  77 100  86 101
M  END
> <Batch ID>
0025

> <Smiles>
CNC(C)C(=O)NC(C(=O)N1Cc2cc([101O:1][101C:1](F)(F)CNC3CCCN(Cc4cccc([100N:0](C)[100C:0](=O)N5CCCC(n6nc(-c7ccc(Oc8ccc(F)cc8F)cc7)c(C(N)=O)c6N)C5)c4Cl)C3)ccc2CC1C(=O)NC1CCCc2ccccc21)C(C)(C)C

> <Shape>
0.275

> <Color>
0.121

> <Negative vol penalty>
0.000

$$$$

  -OEChem-04042321223D

 89 98  0     1  0  0  0  0  0999 V2000
  -31.3062  -37.5060   29.4542 C   0  0  0  0  0  0  0  0  0  0  0  0
  -31.7422  -36.1850   29.4370 C   0  0  0  0  0  0  0  0  0  0  0  0
  -23.0799   -9.8621   19.9396 C   0  0  0  0  0  0  0  0  0  0  0  0
  -23.8355   -9.8731   22.2343 C   0  0  0  0  0  0  0  0  0  0  0  0
  -30.1561  -37.8684   28.7543 C   0  0  0  0  0  0  0  0  0  0  0  0
  -31.0278  -35.2254   28.7206 C   0  0  0  0  0  0  0  0  0  0  0  0
  -33.3245  -30.4068   25.7187 C   0  0  0  0  0  0  0  0  0  0  0  0
  -32.3827  -18.5457   21.9794 C   0  0  0  0  0  0  0  0  0  0  0  0
  -31.8590  -17.3272   21.5476 C   0  0  0  0  0  0  0  0  0  0  0  0
  -22.3374   -8.7081   20.1896 C   0  0  0  0  0  0  0  0  0  0  0  0
  -23.0929   -8.7191   22.4844 C   0  0  0  0  0  0  0  0  0  0  0  0
  -33.4486  -29.0609   26.0605 C   0  0  0  0  0  0  0  0  0  0  0  0
  -19.8649   -7.9169   23.0819 C   0  0  0  0  0  0  0  0  0  0  0  0
  -19.1058   -7.8772   24.2514 C   0  0  0  0  0  0  0  0  0  0  0  0
  -31.3945  -28.5805   24.8905 C   0  0  0  0  0  0  0  0  0  0  0  0
  -30.3373  -18.9985   23.1828 C   0  0  0  0  0  0  0  0  0  0  0  0
  -20.3489   -5.9427   24.9926 C   0  0  0  0  0  0  0  0  0  0  0  0
  -23.8290  -10.4446   20.9619 C   0  0  0  0  0  0  0  0  0  0  0  0
  -24.1671  -12.9701   20.8394 C   0  0  0  0  0  0  0  0  0  0  0  0
  -29.4326  -36.9147   28.0210 C   0  0  0  0  0  0  0  0  0  0  0  0
  -32.2269  -30.8522   24.9682 C   0  0  0  0  0  0  0  0  0  0  0  0
  -29.8662  -35.5752   28.0113 C   0  0  0  0  0  0  0  0  0  0  0  0
  -31.2601  -29.9322   24.5383 C   0  0  0  0  0  0  0  0  0  0  0  0
  -31.6219  -19.3814   22.7970 C   0  0  0  0  0  0  0  0  0  0  0  0
  -30.5744  -16.9443   21.9334 C   0  0  0  0  0  0  0  0  0  0  0  0
  -22.3438   -8.1366   21.4620 C   0  0  0  0  0  0  0  0  0  0  0  0
  -32.4820  -28.1480   25.6489 C   0  0  0  0  0  0  0  0  0  0  0  0
  -20.8660   -6.9694   22.8676 C   0  0  0  0  0  0  0  0  0  0  0  0
  -19.3479   -6.8901   25.2068 C   0  0  0  0  0  0  0  0  0  0  0  0
  -21.1080   -5.9823   23.8230 C   0  0  0  0  0  0  0  0  0  0  0  0
  -29.8135  -17.7800   22.7510 C   0  0  0  0  0  0  0  0  0  0  0  0
  -24.5967  -11.6363   20.7042 C   0  0  0  0  0  0  0  0  0  0  0  0
  -25.2588  -13.7208   20.4772 C   0  0  0  0  0  0  0  0  0  0  0  0
  -22.8950  -13.4844   21.2553 C   0  0  0  0  0  0  0  0  0  0  0  0
  -29.8371  -32.8850   25.4785 C   0  0  0  0  0  0  0  0  0  0  0  0
  -29.1791  -32.2876   22.3588 C   0  0  0  0  0  0  0  0  0  0  0  0
  -29.4524  -30.1738   19.6935 C   0  0  0  0  0  0  0  0  0  0  0  0
  -30.7230  -14.7752   20.6608 C   0  0  0  0  0  0  0  0  0  0  0  0
  -28.1691  -37.3447   27.3188 C   0  0  0  0  0  0  0  0  0  0  0  0
  -32.1215  -32.3029   24.5849 C   0  0  0  0  0  0  0  0  0  0  0  0
  -30.0733  -30.3561   23.7135 C   0  0  0  0  0  0  0  0  0  0  0  0
  -27.6791  -36.3412   26.2780 C   0  0  0  0  0  0  0  0  0  0  0  0
  -29.6167  -12.3568   18.2934 C   0  0  0  0  0  0  0  0  0  0  0  0
  -27.7055  -34.9261   26.8469 C   0  0  0  0  0  0  0  0  0  0  0  0
  -28.1768  -12.0634   18.7207 C   0  0  0  0  0  0  0  0  0  0  0  0
  -30.5293  -12.5885   19.4965 C   0  0  0  0  0  0  0  0  0  0  0  0
  -33.1135  -21.3136   22.3824 C   0  0  0  0  0  0  0  0  0  0  0  0
  -28.6186  -13.3116   20.8733 C   0  0  0  0  0  0  0  0  0  0  0  0
  -33.0670  -22.8135   22.6379 C   0  0  0  0  0  0  0  0  0  0  0  0
  -32.1521  -22.4154   24.9073 C   0  0  0  0  0  0  0  0  0  0  0  0
  -29.1322  -34.5104   27.2255 C   0  0  1  0  0  0  0  0  0  0  0  0
  -30.6951  -32.7316   24.2547 C   0  0  1  0  0  0  0  0  0  0  0  0
  -27.6482  -13.1354   19.6939 C   0  0  2  0  0  0  0  0  0  0  0  0
  -32.1628  -20.9010   24.6753 C   0  0  2  0  0  0  0  0  0  0  0  0
  -33.3579  -20.2186   25.3508 C   0  0  0  0  0  0  0  0  0  0  0  0
  -28.7802  -29.9409   17.2870 C   0  0  0  0  0  0  0  0  0  0  0  0
  -35.3565  -24.2498   25.9156 C   0  0  0  0  0  0  0  0  0  0  0  0
  -26.3401  -31.5782   23.2230 C   0  0  0  0  0  0  0  0  0  0  0  0
  -26.0150  -30.4712   21.0011 C   0  0  0  0  0  0  0  0  0  0  0  0
  -26.4853  -32.9183   21.1164 C   0  0  0  0  0  0  0  0  0  0  0  0
  -32.2706  -30.0885   18.7940 C   0  0  0  0  0  0  0  0  0  0  0  0
  -33.3341  -24.5518   24.4027 C   0  0  0  0  0  0  0  0  0  0  0  0
  -33.9224  -26.3199   26.1382 C   0  0  0  0  0  0  0  0  0  1  0  0
  -28.3397  -31.2748   21.6182 C   0  0  1  0  0  0  0  0  0  0  0  0
  -29.8552  -30.4190   18.2506 C   0  0  2  0  0  0  0  0  0  0  0  0
  -33.9432  -24.8281   25.7821 C   0  0  2  0  0  0  0  0  0  0  0  0
  -26.8163  -31.5526   21.7568 C   0  0  0  0  0  0  0  0  0  0  0  0
  -25.8625  -11.5420   20.2883 N   0  0  0  0  0  0  0  0  0  0  0  0
  -26.2376  -12.8260   20.1591 N   0  0  0  0  0  0  0  0  0  0  0  0
  -32.1476  -20.6045   23.2291 N   0  0  2  0  0  0  0  0  0  0  0  0
  -30.0115  -31.7863   23.3696 N   0  0  0  0  0  0  0  0  0  0  0  0
  -29.9670  -13.6195   20.3716 N   0  0  0  0  0  0  0  0  0  0  0  0
  -25.4672  -15.0526   20.4030 N   0  0  0  0  0  0  0  0  0  0  0  0
  -21.8839  -12.5741   21.5919 N   0  0  0  0  0  0  0  0  0  0  0  0
  -30.0726  -15.7003   21.4769 N   0  0  0  0  0  0  0  0  0  0  0  0
  -29.8828  -34.1453   26.0433 N   0  0  0  0  0  0  0  0  0  0  0  0
  -28.8237  -31.2717   20.2419 N   0  0  0  0  0  0  0  0  0  0  0  0
  -33.2438  -23.0801   24.1085 N   0  3  2  0  0  0  0  0  0  0  0  0
  -31.1216  -29.6987   17.9368 N   0  3  0  0  0  0  0  0  0  0  0  0
  -22.6567  -14.7148   21.3107 O   0  0  0  0  0  0  0  0  0  0  0  0
  -29.1809  -31.9310   25.8798 O   0  0  0  0  0  0  0  0  0  0  0  0
  -29.1046  -33.4788   22.0470 O   0  0  0  0  0  0  0  0  0  0  0  0
  -29.6700  -29.1130   20.2748 O   0  0  0  0  0  0  0  0  0  0  0  0
  -31.8527  -14.9452   20.1951 O   0  0  0  0  0  0  0  0  0  0  0  0
  -21.6192   -7.0106   21.7063 O   0  0  0  0  0  0  0  0  0  0  0  0
  -32.6004  -26.8338   25.9818 O   0  0  0  0  0  0  0  0  0  1  0  0
  -18.6199   -6.8531   26.3305 F   0  0  0  0  0  0  0  0  0  0  0  0
  -22.0691   -5.0701   23.6233 F   0  0  0  0  0  0  0  0  0  0  0  0
  -28.2181  -17.3447   23.2517 Cl  0  0  0  0  0  0  0  0  0  0  0  0
  1  2  1  0  0  0  0
  1  5  2  0  0  0  0
  2  6  2  0  0  0  0
  3 10  2  0  0  0  0
  3 18  1  0  0  0  0
  4 11  1  0  0  0  0
  4 18  2  0  0  0  0
  5 20  1  0  0  0  0
  6 22  1  0  0  0  0
  7 12  2  0  0  0  0
  7 21  1  0  0  0  0
  8  9  2  0  0  0  0
  8 24  1  0  0  0  0
  9 25  1  0  0  0  0
 10 26  1  0  0  0  0
 11 26  2  0  0  0  0
 12 27  1  0  0  0  0
 13 14  2  0  0  0  0
 13 28  1  0  0  0  0
 14 29  1  0  0  0  0
 15 23  1  0  0  0  0
 15 27  2  0  0  0  0
 16 24  2  0  0  0  0
 16 31  1  0  0  0  0
 17 29  2  0  0  0  0
 17 30  1  0  0  0  0
 18 32  1  0  0  0  0
 19 32  1  0  0  0  0
 19 33  2  0  0  0  0
 19 34  1  0  0  0  0
 20 22  2  0  0  0  0
 20 39  1  0  0  0  0
 21 23  2  0  0  0  0
 21 40  1  0  0  0  0
 22 51  1  0  0  0  0
 23 41  1  0  0  0  0
 24 70  1  0  0  0  0
 25 31  2  0  0  0  0
 25 75  1  0  0  0  0
 26 85  1  0  0  0  0
 27 86  1  0  0  0  0
 28 30  2  0  0  0  0
 28 85  1  0  0  0  0
 29 87  1  0  0  0  0
 30 88  1  0  0  0  0
 31 89  1  0  0  0  0
 32 68  2  0  0  0  0
 33 69  1  0  0  0  0
 33 73  1  0  0  0  0
 34 74  1  0  0  0  0
 34 80  2  0  0  0  0
 35 52  1  0  0  0  0
 35 76  1  0  0  0  0
 35 81  2  0  0  0  0
 36 64  1  0  0  0  0
 36 71  1  0  0  0  0
 36 82  2  0  0  0  0
 37 65  1  0  0  0  0
 37 77  1  0  0  0  0
 37 83  2  0  0  0  0
 38 72  1  0  0  0  0
 38 75  1  0  0  0  0
 38 84  2  0  0  0  0
 39 42  1  0  0  0  0
 40 52  1  0  0  0  0
 41 71  1  0  0  0  0
 42 44  1  0  0  0  0
 43 45  1  0  0  0  0
 43 46  1  0  0  0  0
 44 51  1  0  0  0  0
 45 53  1  0  0  0  0
 46 72  1  0  0  0  0
 47 49  1  0  0  0  0
 47 70  1  0  0  0  0
 48 53  1  0  0  0  0
 48 72  1  0  0  0  0
 49 78  1  0  0  0  0
 50 54  1  0  0  0  0
 50 78  1  0  0  0  0
 51 76  1  0  0  0  0
 52 71  1  0  0  0  0
 53 69  1  0  0  0  0
 54 55  1  0  0  0  0
 54 70  1  0  0  0  0
 56 65  1  0  0  0  0
 57 66  1  0  0  0  0
 58 67  1  0  0  0  0
 59 67  1  0  0  0  0
 60 67  1  0  0  0  0
 61 79  1  0  0  0  0
 62 66  1  0  0  0  0
 62 78  1  0  0  0  0
 63 66  1  0  0  0  0
 63 86  1  0  0  0  0
 64 67  1  0  0  0  0
 64 77  1  0  0  0  0
 65 79  1  0  0  0  0
 68 69  1  0  0  0  0
M  CHG  2  78   1  79   1
M  ISO  4  38 100  63 101  75 100  86 101
M  END
> <Batch ID>
0025

> <Smiles>
CNC(C)C(=O)NC(C(=O)N1Cc2cc([101O:1][101CH2:1]C(C)CN3CCN(c4ccc([100NH:0][100C:0](=O)N5CCCC(n6nc(-c7ccc(Oc8ccc(F)cc8F)cc7)c(C(N)=O)c6N)C5)c(Cl)c4)C(C)C3)ccc2CC1C(=O)NC1CCCc2ccccc21)C(C)(C)C

> <Shape>
0.208

> <Color>
0.184

> <Negative vol penalty>
0.000

$$$$

  -OEChem-04042321223D

 81 89  0     1  0  0  0  0  0999 V2000
  -38.2588  -29.3796   28.4298 C   0  0  0  0  0  0  0  0  0  0  0  0
  -37.5085  -28.2192   28.2683 C   0  0  0  0  0  0  0  0  0  0  0  0
  -23.1296   -9.8226   20.0512 C   0  0  0  0  0  0  0  0  0  0  0  0
  -23.8530   -9.9881   22.3504 C   0  0  0  0  0  0  0  0  0  0  0  0
  -37.7925  -30.5875   27.9128 C   0  0  0  0  0  0  0  0  0  0  0  0
  -36.2908  -28.2664   27.5905 C   0  0  0  0  0  0  0  0  0  0  0  0
  -35.7521  -24.4578   24.2967 C   0  0  0  0  0  0  0  0  0  0  0  0
  -22.4001   -8.6755   20.3633 C   0  0  0  0  0  0  0  0  0  0  0  0
  -23.1234   -8.8410   22.6625 C   0  0  0  0  0  0  0  0  0  0  0  0
  -35.4065  -23.2109   24.8160 C   0  0  0  0  0  0  0  0  0  0  0  0
  -19.8990   -8.0296   23.2671 C   0  0  0  0  0  0  0  0  0  0  0  0
  -19.1244   -8.0516   24.4268 C   0  0  0  0  0  0  0  0  0  0  0  0
  -33.1095  -23.5915   24.1852 C   0  0  0  0  0  0  0  0  0  0  0  0
  -29.7610  -17.7123   22.8573 C   0  0  0  0  0  0  0  0  0  0  0  0
  -31.9676  -16.8639   22.3588 C   0  0  0  0  0  0  0  0  0  0  0  0
  -20.3842   -6.1859   25.3037 C   0  0  0  0  0  0  0  0  0  0  0  0
  -23.8562  -10.4789   21.0448 C   0  0  0  0  0  0  0  0  0  0  0  0
  -31.7016  -18.7103   23.8941 C   0  0  0  0  0  0  0  0  0  0  0  0
  -24.1603  -12.9967   20.7688 C   0  0  0  0  0  0  0  0  0  0  0  0
  -36.5731  -30.6477   27.2199 C   0  0  0  0  0  0  0  0  0  0  0  0
  -34.7754  -25.2869   23.7266 C   0  0  0  0  0  0  0  0  0  0  0  0
  -35.8071  -29.4765   27.0649 C   0  0  0  0  0  0  0  0  0  0  0  0
  -33.4457  -24.8473   23.6570 C   0  0  0  0  0  0  0  0  0  0  0  0
  -30.3192  -18.6604   23.7146 C   0  0  0  0  0  0  0  0  0  0  0  0
  -30.5852  -16.8140   22.1794 C   0  0  0  0  0  0  0  0  0  0  0  0
  -22.3969   -8.1847   21.6689 C   0  0  0  0  0  0  0  0  0  0  0  0
  -34.0846  -22.7788   24.7630 C   0  0  0  0  0  0  0  0  0  0  0  0
  -20.9162   -7.0856   23.1256 C   0  0  0  0  0  0  0  0  0  0  0  0
  -19.3670   -7.1298   25.4452 C   0  0  0  0  0  0  0  0  0  0  0  0
  -32.5258  -17.8120   23.2162 C   0  0  0  0  0  0  0  0  0  0  0  0
  -21.1588   -6.1638   24.1439 C   0  0  0  0  0  0  0  0  0  0  0  0
  -24.6105  -11.6636   20.7229 C   0  0  0  0  0  0  0  0  0  0  0  0
  -25.2462  -13.7396   20.3745 C   0  0  0  0  0  0  0  0  0  0  0  0
  -32.3155  -19.7013   24.7939 C   0  0  0  0  0  0  0  0  0  0  0  0
  -33.1899  -20.6447   24.4224 C   0  0  0  0  0  0  0  0  0  1  0  0
  -22.8755  -13.5169   21.1351 C   0  0  0  0  0  0  0  0  0  0  0  0
  -33.6206  -28.1739   24.3862 C   0  0  0  0  0  0  0  0  0  0  0  0
  -32.0098  -27.7377   21.6046 C   0  0  0  0  0  0  0  0  0  0  0  0
  -30.7234  -25.5612   19.3122 C   0  0  0  0  0  0  0  0  0  0  0  0
  -30.6919  -14.8849   20.5627 C   0  0  0  0  0  0  0  0  0  0  0  0
  -36.0874  -31.9852   26.7200 C   0  0  0  0  0  0  0  0  0  0  0  0
  -35.1691  -26.6177   23.1467 C   0  0  0  0  0  0  0  0  0  0  0  0
  -32.3630  -25.6910   23.0370 C   0  0  0  0  0  0  0  0  0  0  0  0
  -34.9667  -31.8797   25.6889 C   0  0  0  0  0  0  0  0  0  0  0  0
  -29.6529  -12.3071   18.3373 C   0  0  0  0  0  0  0  0  0  0  0  0
  -33.9041  -30.8894   26.1548 C   0  0  0  0  0  0  0  0  0  0  0  0
  -28.2114  -12.0195   18.7633 C   0  0  0  0  0  0  0  0  0  0  0  0
  -30.5453  -12.6271   19.5352 C   0  0  0  0  0  0  0  0  0  0  0  0
  -28.6057  -13.4061   20.8391 C   0  0  0  0  0  0  0  0  0  0  0  0
  -34.4931  -29.4825   26.3141 C   0  0  1  0  0  0  0  0  0  0  0  0
  -34.0030  -27.5969   23.0526 C   0  0  1  0  0  0  0  0  0  0  0  0
  -27.6544  -13.1421   19.6605 C   0  0  2  0  0  0  0  0  0  0  0  0
  -29.4050  -19.6064   24.4248 C   0  0  0  0  0  0  0  0  0  0  0  0
  -29.4277  -25.5008   17.1640 C   0  0  0  0  0  0  0  0  0  0  0  0
  -29.4465  -28.3658   23.1357 C   0  0  0  0  0  0  0  0  0  0  0  0
  -28.1512  -27.3792   21.2338 C   0  0  0  0  0  0  0  0  0  0  0  0
  -29.5787  -29.3901   20.8581 C   0  0  0  0  0  0  0  0  0  0  0  0
  -32.9399  -24.2236   17.8780 C   0  0  0  0  0  0  0  0  0  0  0  0
  -30.6760  -27.1420   21.2236 C   0  0  1  0  0  0  0  0  0  0  0  0
  -30.8102  -25.5262   17.7971 C   0  0  2  0  0  0  0  0  0  0  0  0
  -29.4829  -28.0539   21.6263 C   0  0  0  0  0  0  0  0  0  0  0  0
  -25.8832  -11.5624   20.3303 N   0  0  0  0  0  0  0  0  0  0  0  0
  -26.2419  -12.8413   20.1258 N   0  0  0  0  0  0  0  0  0  0  0  0
  -32.7968  -26.9870   22.4895 N   0  0  0  0  0  0  0  0  0  0  0  0
  -29.9565  -13.7022   20.3366 N   0  0  0  0  0  0  0  0  0  0  0  0
  -25.4369  -15.0670   20.2197 N   0  0  0  0  0  0  0  0  0  0  0  0
  -21.8727  -12.6143   21.5148 N   0  0  0  0  0  0  0  0  0  0  0  0
  -30.0173  -15.8492   21.3108 N   0  0  0  0  0  0  0  0  0  0  0  0
  -34.6451  -28.8489   25.0219 N   0  0  0  0  0  0  0  0  0  0  0  0
  -30.7513  -26.8522   19.7957 N   0  0  0  0  0  0  0  0  0  0  0  0
  -31.5548  -24.3156   17.3487 N   0  3  0  0  0  0  0  0  0  0  0  0
  -22.6191  -14.7446   21.1102 O   0  0  0  0  0  0  0  0  0  0  0  0
  -32.4799  -28.0194   24.8066 O   0  0  0  0  0  0  0  0  0  0  0  0
  -32.3443  -28.8255   21.1288 O   0  0  0  0  0  0  0  0  0  0  0  0
  -30.6356  -24.5451   19.9980 O   0  0  0  0  0  0  0  0  0  0  0  0
  -31.8255  -15.0423   20.1020 O   0  0  0  0  0  0  0  0  0  0  0  0
  -21.6849   -7.0655   21.9739 O   0  0  0  0  0  0  0  0  0  0  0  0
  -33.7444  -21.5625   25.2697 O   0  0  0  0  0  0  0  0  0  1  0  0
  -18.6241   -7.1521   26.5595 F   0  0  0  0  0  0  0  0  0  0  0  0
  -33.8569  -17.8462   23.3772 F   0  0  0  0  0  0  0  0  0  0  0  0
  -22.1354   -5.2554   24.0142 F   0  0  0  0  0  0  0  0  0  0  0  0
  1  2  1  0  0  0  0
  1  5  2  0  0  0  0
  2  6  2  0  0  0  0
  3  8  2  0  0  0  0
  3 17  1  0  0  0  0
  4  9  1  0  0  0  0
  4 17  2  0  0  0  0
  5 20  1  0  0  0  0
  6 22  1  0  0  0  0
  7 10  2  0  0  0  0
  7 21  1  0  0  0  0
  8 26  1  0  0  0  0
  9 26  2  0  0  0  0
 10 27  1  0  0  0  0
 11 12  2  0  0  0  0
 11 28  1  0  0  0  0
 12 29  1  0  0  0  0
 13 23  1  0  0  0  0
 13 27  2  0  0  0  0
 14 24  2  0  0  0  0
 14 25  1  0  0  0  0
 15 25  2  0  0  0  0
 15 30  1  0  0  0  0
 16 29  2  0  0  0  0
 16 31  1  0  0  0  0
 17 32  1  0  0  0  0
 18 24  1  0  0  0  0
 18 30  2  0  0  0  0
 18 34  1  0  0  0  0
 19 32  1  0  0  0  0
 19 33  2  0  0  0  0
 19 36  1  0  0  0  0
 20 22  2  0  0  0  0
 20 41  1  0  0  0  0
 21 23  2  0  0  0  0
 21 42  1  0  0  0  0
 22 50  1  0  0  0  0
 23 43  1  0  0  0  0
 24 53  1  0  0  0  0
 25 68  1  0  0  0  0
 26 77  1  0  0  0  0
 27 78  1  0  0  0  0
 28 31  2  0  0  0  0
 28 77  1  0  0  0  0
 29 79  1  0  0  0  0
 30 80  1  0  0  0  0
 31 81  1  0  0  0  0
 32 62  2  0  0  0  0
 33 63  1  0  0  0  0
 33 66  1  0  0  0  0
 34 35  2  0  0  0  0
 35 78  1  0  0  0  0
 36 67  1  0  0  0  0
 36 72  2  0  0  0  0
 37 51  1  0  0  0  0
 37 69  1  0  0  0  0
 37 73  2  0  0  0  0
 38 59  1  0  0  0  0
 38 64  1  0  0  0  0
 38 74  2  0  0  0  0
 39 60  1  0  0  0  0
 39 70  1  0  0  0  0
 39 75  2  0  0  0  0
 40 65  1  0  0  0  0
 40 68  1  0  0  0  0
 40 76  2  0  0  0  0
 41 44  1  0  0  0  0
 42 51  1  0  0  0  0
 43 64  1  0  0  0  0
 44 46  1  0  0  0  0
 45 47  1  0  0  0  0
 45 48  1  0  0  0  0
 46 50  1  0  0  0  0
 47 52  1  0  0  0  0
 48 65  1  0  0  0  0
 49 52  1  0  0  0  0
 49 65  1  0  0  0  0
 50 69  1  0  0  0  0
 51 64  1  0  0  0  0
 52 63  1  0  0  0  0
 54 60  1  0  0  0  0
 55 61  1  0  0  0  0
 56 61  1  0  0  0  0
 57 61  1  0  0  0  0
 58 71  1  0  0  0  0
 59 61  1  0  0  0  0
 59 70  1  0  0  0  0
 60 71  1  0  0  0  0
 62 63  1  0  0  0  0
M  CHG  1  71   1
M  ISO  4  35 101  40 100  68 100  78 101
M  END
> <Batch ID>
0025

> <Smiles>
CNC(C)C(=O)NC(C(=O)N1Cc2cc([101O:1][101CH:1]=Cc3c(C)cc([100NH:0][100C:0](=O)N4CCCC(n5nc(-c6ccc(Oc7ccc(F)cc7F)cc6)c(C(N)=O)c5N)C4)cc3F)ccc2CC1C(=O)NC1CCCc2ccccc21)C(C)(C)C

> <Shape>
0.224

> <Color>
0.206

> <Negative vol penalty>
0.000

$$$$

  -OEChem-04042321223D

 84 93  0     1  0  0  0  0  0999 V2000
  -20.3649  -30.1433   24.9211 C   0  0  0  0  0  0  0  0  0  0  0  0
  -21.6321  -29.6832   24.5777 C   0  0  0  0  0  0  0  0  0  0  0  0
  -25.0972  -13.4252   19.5871 C   0  0  0  0  0  0  0  0  0  0  0  0
  -25.9621  -14.0116   21.7654 C   0  0  0  0  0  0  0  0  0  0  0  0
  -19.2327  -29.5147   24.4045 C   0  0  0  0  0  0  0  0  0  0  0  0
  -21.7678  -28.5935   23.7183 C   0  0  0  0  0  0  0  0  0  0  0  0
  -25.3059  -29.3437   20.1737 C   0  0  0  0  0  0  0  0  0  0  0  0
  -30.4863  -24.8129   21.4446 C   0  0  0  0  0  0  0  0  0  0  0  0
  -30.2850  -23.6687   20.6727 C   0  0  0  0  0  0  0  0  0  0  0  0
  -24.9740  -12.0967   19.9937 C   0  0  0  0  0  0  0  0  0  0  0  0
  -25.8388  -12.6831   22.1720 C   0  0  0  0  0  0  0  0  0  0  0  0
  -26.6369  -29.1947   20.5610 C   0  0  0  0  0  0  0  0  0  0  0  0
  -22.8301  -10.2454   21.8402 C   0  0  0  0  0  0  0  0  0  0  0  0
  -21.6475   -9.5774   21.5226 C   0  0  0  0  0  0  0  0  0  0  0  0
  -26.6645  -26.9847   19.5945 C   0  0  0  0  0  0  0  0  0  0  0  0
  -28.0102  -23.5282   21.4743 C   0  0  0  0  0  0  0  0  0  0  0  0
  -22.9070   -7.9491   20.2578 C   0  0  0  0  0  0  0  0  0  0  0  0
  -25.5914  -14.3827   20.4730 C   0  0  0  0  0  0  0  0  0  0  0  0
  -24.7519  -16.7718   20.1640 C   0  0  0  0  0  0  0  0  0  0  0  0
  -19.3547  -28.4228   23.5307 C   0  0  0  0  0  0  0  0  0  0  0  0
  -24.6398  -28.3082   19.5023 C   0  0  0  0  0  0  0  0  0  0  0  0
  -20.6361  -27.9489   23.1906 C   0  0  0  0  0  0  0  0  0  0  0  0
  -25.3258  -27.1240   19.1975 C   0  0  0  0  0  0  0  0  0  0  0  0
  -28.2115  -24.6724   22.2463 C   0  0  0  0  0  0  0  0  0  0  0  0
  -29.4496  -25.3147   22.2315 C   0  0  0  0  0  0  0  0  0  0  0  0
  -29.0469  -23.0264   20.6875 C   0  0  0  0  0  0  0  0  0  0  0  0
  -25.3447  -11.7256   21.2861 C   0  0  0  0  0  0  0  0  0  0  0  0
  -27.3155  -28.0140   20.2740 C   0  0  0  0  0  0  0  0  0  0  0  0
  -24.0511   -9.7654   21.3665 C   0  0  0  0  0  0  0  0  0  0  0  0
  -21.6860   -8.4292   20.7315 C   0  0  0  0  0  0  0  0  0  0  0  0
  -24.0896   -8.6172   20.5754 C   0  0  0  0  0  0  0  0  0  0  0  0
  -25.7195  -15.7552   20.0534 C   0  0  0  0  0  0  0  0  0  0  0  0
  -25.3568  -17.8814   19.6261 C   0  0  0  0  0  0  0  0  0  0  0  0
  -23.4252  -16.7179   20.7048 C   0  0  0  0  0  0  0  0  0  0  0  0
  -22.1069  -26.4931   20.1294 C   0  0  0  0  0  0  0  0  0  0  0  0
  -22.6088  -25.4283   17.1068 C   0  0  0  0  0  0  0  0  0  0  0  0
  -24.7885  -24.9697   14.5211 C   0  0  0  0  0  0  0  0  0  0  0  0
  -29.7651  -21.2365   19.0667 C   0  0  0  0  0  0  0  0  0  0  0  0
  -18.1013  -27.7461   23.0351 C   0  0  0  0  0  0  0  0  0  0  0  0
  -23.2120  -28.4949   19.0676 C   0  0  0  0  0  0  0  0  0  0  0  0
  -24.6621  -25.9902   18.4609 C   0  0  0  0  0  0  0  0  0  0  0  0
  -18.3360  -26.8331   21.8344 C   0  0  0  0  0  0  0  0  0  0  0  0
  -29.6590  -18.3400   16.9988 C   0  0  0  0  0  0  0  0  0  0  0  0
  -29.8370  -27.9070   24.8482 C   0  0  0  0  0  0  0  0  0  0  0  0
  -19.5536  -25.9448   22.0692 C   0  0  0  0  0  0  0  0  0  0  0  0
  -28.5450  -17.4929   17.6183 C   0  0  0  0  0  0  0  0  0  0  0  0
  -30.7511  -28.4004   23.7378 C   0  0  0  0  0  0  0  0  0  0  0  0
  -29.5376  -26.4655   24.4492 C   0  0  0  0  0  0  0  0  0  0  0  0
  -30.4710  -19.0754   18.0635 C   0  0  0  0  0  0  0  0  0  0  0  0
  -28.5648  -19.0309   19.6236 C   0  0  0  0  0  0  0  0  0  0  0  0
  -20.8246  -26.7853   22.2416 C   0  0  1  0  0  0  0  0  0  0  0  0
  -22.4783  -27.1763   18.8437 C   0  0  1  0  0  0  0  0  0  0  0  0
  -27.6785  -18.3222   18.5863 C   0  0  2  0  0  0  0  0  0  0  0  0
  -30.1983  -27.7181   22.4786 C   0  0  2  0  0  0  0  0  0  0  0  0
  -27.0845  -25.1878   23.0809 C   0  0  0  0  0  0  0  0  0  0  0  0
  -24.9164  -24.0396   12.1939 C   0  0  0  0  0  0  0  0  0  0  0  0
  -22.6359  -22.5965   18.2427 C   0  0  0  0  0  0  0  0  0  0  0  0
  -23.6896  -21.8246   16.1068 C   0  0  0  0  0  0  0  0  0  0  0  0
  -21.4111  -22.8396   16.0758 C   0  0  0  0  0  0  0  0  0  0  0  0
  -25.5311  -27.6001   13.3860 C   0  0  0  0  0  0  0  0  0  0  0  0
  -29.0890  -28.5491   21.8352 C   0  0  0  0  0  0  0  0  0  1  0  0
  -23.4210  -24.3176   16.4856 C   0  0  1  0  0  0  0  0  0  0  0  0
  -24.6734  -25.2799   13.0396 C   0  0  2  0  0  0  0  0  0  0  0  0
  -22.8016  -22.9150   16.7433 C   0  0  0  0  0  0  0  0  0  0  0  0
  -26.8528  -16.1811   19.4893 N   0  0  0  0  0  0  0  0  0  0  0  0
  -26.6012  -17.4777   19.2406 N   0  0  0  0  0  0  0  0  0  0  0  0
  -29.6668  -26.4491   22.9908 N   0  0  3  0  0  0  0  0  0  0  0  0
  -23.2633  -26.2183   18.0625 N   0  0  0  0  0  0  0  0  0  0  0  0
  -29.5844  -19.8428   18.9409 N   0  0  0  0  0  0  0  0  0  0  0  0
  -24.9402  -19.1534   19.4499 N   0  0  0  0  0  0  0  0  0  0  0  0
  -22.9612  -15.4984   21.2165 N   0  0  0  0  0  0  0  0  0  0  0  0
  -28.8424  -21.8644   19.9028 N   0  0  0  0  0  0  0  0  0  0  0  0
  -21.3006  -27.2513   20.9568 N   0  0  0  0  0  0  0  0  0  0  0  0
  -23.5646  -24.6572   15.0741 N   0  0  0  0  0  0  0  0  0  0  0  0
  -25.6690  -26.3177   12.6488 N   0  3  0  0  0  0  0  0  0  0  0  0
  -22.6674  -17.7174   20.7185 O   0  0  0  0  0  0  0  0  0  0  0  0
  -22.5199  -25.3614   20.3535 O   0  0  0  0  0  0  0  0  0  0  0  0
  -21.4391  -25.5934   16.7517 O   0  0  0  0  0  0  0  0  0  0  0  0
  -25.8577  -24.9978   15.1264 O   0  0  0  0  0  0  0  0  0  0  0  0
  -30.6548  -21.8333   18.4549 O   0  0  0  0  0  0  0  0  0  0  0  0
  -25.2244  -10.4293   21.6833 O   0  0  0  0  0  0  0  0  0  0  0  0
  -28.6145  -27.8657   20.6515 O   0  0  0  0  0  0  0  0  0  1  0  0
  -20.5504   -7.7869   20.4279 F   0  0  0  0  0  0  0  0  0  0  0  0
  -25.2597   -8.1506   20.1184 F   0  0  0  0  0  0  0  0  0  0  0  0
  1  2  1  0  0  0  0
  1  5  2  0  0  0  0
  2  6  2  0  0  0  0
  3 10  2  0  0  0  0
  3 18  1  0  0  0  0
  4 11  1  0  0  0  0
  4 18  2  0  0  0  0
  5 20  1  0  0  0  0
  6 22  1  0  0  0  0
  7 12  2  0  0  0  0
  7 21  1  0  0  0  0
  8  9  2  0  0  0  0
  8 25  1  0  0  0  0
  9 26  1  0  0  0  0
 10 27  1  0  0  0  0
 11 27  2  0  0  0  0
 12 28  1  0  0  0  0
 13 14  2  0  0  0  0
 13 29  1  0  0  0  0
 14 30  1  0  0  0  0
 15 23  1  0  0  0  0
 15 28  2  0  0  0  0
 16 24  1  0  0  0  0
 16 26  2  0  0  0  0
 17 30  2  0  0  0  0
 17 31  1  0  0  0  0
 18 32  1  0  0  0  0
 19 32  1  0  0  0  0
 19 33  2  0  0  0  0
 19 34  1  0  0  0  0
 20 22  2  0  0  0  0
 20 39  1  0  0  0  0
 21 23  2  0  0  0  0
 21 40  1  0  0  0  0
 22 51  1  0  0  0  0
 23 41  1  0  0  0  0
 24 25  2  0  0  0  0
 24 55  1  0  0  0  0
 25 67  1  0  0  0  0
 26 72  1  0  0  0  0
 27 81  1  0  0  0  0
 28 82  1  0  0  0  0
 29 31  2  0  0  0  0
 29 81  1  0  0  0  0
 30 83  1  0  0  0  0
 31 84  1  0  0  0  0
 32 65  2  0  0  0  0
 33 66  1  0  0  0  0
 33 70  1  0  0  0  0
 34 71  1  0  0  0  0
 34 76  2  0  0  0  0
 35 52  1  0  0  0  0
 35 73  1  0  0  0  0
 35 77  2  0  0  0  0
 36 62  1  0  0  0  0
 36 68  1  0  0  0  0
 36 78  2  0  0  0  0
 37 63  1  0  0  0  0
 37 74  1  0  0  0  0
 37 79  2  0  0  0  0
 38 69  1  0  0  0  0
 38 72  1  0  0  0  0
 38 80  2  0  0  0  0
 39 42  1  0  0  0  0
 40 52  1  0  0  0  0
 41 68  1  0  0  0  0
 42 45  1  0  0  0  0
 43 46  1  0  0  0  0
 43 49  1  0  0  0  0
 44 47  1  0  0  0  0
 44 48  1  0  0  0  0
 45 51  1  0  0  0  0
 46 53  1  0  0  0  0
 47 54  1  0  0  0  0
 48 67  1  0  0  0  0
 49 69  1  0  0  0  0
 50 53  1  0  0  0  0
 50 69  1  0  0  0  0
 51 73  1  0  0  0  0
 52 68  1  0  0  0  0
 53 66  1  0  0  0  0
 54 61  1  0  0  0  0
 54 67  1  0  0  0  0
 56 63  1  0  0  0  0
 57 64  1  0  0  0  0
 58 64  1  0  0  0  0
 59 64  1  0  0  0  0
 60 75  1  0  0  0  0
 61 82  1  0  0  0  0
 62 64  1  0  0  0  0
 62 74  1  0  0  0  0
 63 75  1  0  0  0  0
 65 66  1  0  0  0  0
M  CHG  1  75   1
M  ISO  4  38 100  61 101  72 100  82 101
M  END
> <Batch ID>
0025

> <Smiles>
CNC(C)C(=O)NC(C(=O)N1Cc2cc([101O:1][101CH2:1]C3CCCN3c3ccc([100NH:0][100C:0](=O)N4CCCC(n5nc(-c6ccc(Oc7ccc(F)cc7F)cc6)c(C(N)=O)c5N)C4)cc3C)ccc2CC1C(=O)NC1CCCc2ccccc21)C(C)(C)C

> <Shape>
0.231

> <Color>
0.072

> <Negative vol penalty>
0.000

$$$$

  -OEChem-04042321223D

 84 93  0     1  0  0  0  0  0999 V2000
  -23.4831  -28.8730   21.7377 C   0  0  0  0  0  0  0  0  0  0  0  0
  -24.1695  -27.9834   22.5581 C   0  0  0  0  0  0  0  0  0  0  0  0
  -23.1673   -9.7405   19.9571 C   0  0  0  0  0  0  0  0  0  0  0  0
  -23.8669   -9.8520   22.2669 C   0  0  0  0  0  0  0  0  0  0  0  0
  -24.1148  -29.4190   20.6211 C   0  0  0  0  0  0  0  0  0  0  0  0
  -25.4876  -27.6384   22.2616 C   0  0  0  0  0  0  0  0  0  0  0  0
  -29.9693  -26.4450   26.2611 C   0  0  0  0  0  0  0  0  0  0  0  0
  -30.0894  -18.6452   23.9606 C   0  0  0  0  0  0  0  0  0  0  0  0
  -29.5635  -17.7086   23.0708 C   0  0  0  0  0  0  0  0  0  0  0  0
  -22.4659   -8.5653   20.2262 C   0  0  0  0  0  0  0  0  0  0  0  0
  -23.1654   -8.6768   22.5360 C   0  0  0  0  0  0  0  0  0  0  0  0
  -30.4941  -25.2507   26.7529 C   0  0  0  0  0  0  0  0  0  0  0  0
  -19.9588   -7.7622   23.0852 C   0  0  0  0  0  0  0  0  0  0  0  0
  -19.1742   -7.7271   24.2379 C   0  0  0  0  0  0  0  0  0  0  0  0
  -32.2450  -25.3447   25.0963 C   0  0  0  0  0  0  0  0  0  0  0  0
  -31.7961  -16.9364   22.5641 C   0  0  0  0  0  0  0  0  0  0  0  0
  -20.4757   -5.8682   25.0672 C   0  0  0  0  0  0  0  0  0  0  0  0
  -23.8679  -10.3838   20.9774 C   0  0  0  0  0  0  0  0  0  0  0  0
  -24.1074  -12.9162   20.7836 C   0  0  0  0  0  0  0  0  0  0  0  0
  -25.4445  -29.0879   20.3162 C   0  0  0  0  0  0  0  0  0  0  0  0
  -30.5732  -27.0936   25.1742 C   0  0  0  0  0  0  0  0  0  0  0  0
  -26.1372  -28.1794   21.1391 C   0  0  0  0  0  0  0  0  0  0  0  0
  -31.7275  -26.5485   24.5941 C   0  0  0  0  0  0  0  0  0  0  0  0
  -31.4686  -18.7275   24.1521 C   0  0  0  0  0  0  0  0  0  0  0  0
  -30.4168  -16.8542   22.3726 C   0  0  0  0  0  0  0  0  0  0  0  0
  -22.4649   -8.0335   21.5157 C   0  0  0  0  0  0  0  0  0  0  0  0
  -31.6304  -24.6988   26.1687 C   0  0  0  0  0  0  0  0  0  0  0  0
  -21.0018   -6.8502   22.9234 C   0  0  0  0  0  0  0  0  0  0  0  0
  -19.4327   -6.7802   25.2289 C   0  0  0  0  0  0  0  0  0  0  0  0
  -21.2603   -5.9033   23.9144 C   0  0  0  0  0  0  0  0  0  0  0  0
  -32.3219  -17.8731   23.4539 C   0  0  0  0  0  0  0  0  0  0  0  0
  -24.5932  -11.5975   20.6999 C   0  0  0  0  0  0  0  0  0  0  0  0
  -25.1765  -13.6994   20.4229 C   0  0  0  0  0  0  0  0  0  0  0  0
  -31.3267  -20.5822   25.8134 C   0  0  0  0  0  0  0  0  0  0  0  0
  -22.8062  -13.3906   21.1544 C   0  0  0  0  0  0  0  0  0  0  0  0
  -29.6531  -27.8708   22.2326 C   0  0  0  0  0  0  0  0  0  0  0  0
  -32.5198  -29.3870   22.1561 C   0  0  0  0  0  0  0  0  0  0  0  0
  -35.6983  -29.6371   23.3732 C   0  0  0  0  0  0  0  0  0  0  0  0
  -30.5881  -14.9808   20.6970 C   0  0  0  0  0  0  0  0  0  0  0  0
  -26.0697  -29.6669   19.0718 C   0  0  0  0  0  0  0  0  0  0  0  0
  -30.0104  -28.3951   24.6726 C   0  0  0  0  0  0  0  0  0  0  0  0
  -32.4252  -27.2161   23.4382 C   0  0  0  0  0  0  0  0  0  0  0  0
  -27.5905  -29.5393   19.0383 C   0  0  0  0  0  0  0  0  0  0  0  0
  -29.6365  -12.4485   18.3820 C   0  0  0  0  0  0  0  0  0  0  0  0
  -28.0167  -28.1289   19.4330 C   0  0  0  0  0  0  0  0  0  0  0  0
  -28.1996  -12.1098   18.7856 C   0  0  0  0  0  0  0  0  0  0  0  0
  -30.5100  -12.7536   19.5976 C   0  0  0  0  0  0  0  0  0  0  0  0
  -33.3055  -20.1737   25.2344 C   0  0  0  0  0  0  0  0  0  0  0  0
  -28.5396  -13.4398   20.9076 C   0  0  0  0  0  0  0  0  0  0  0  0
  -27.5761  -27.7997   20.8645 C   0  0  1  0  0  0  0  0  0  0  0  0
  -32.6766  -21.2502   26.1554 C   0  0  1  0  0  0  0  0  0  0  0  0
  -30.4072  -28.7019   23.2318 C   0  0  1  0  0  0  0  0  0  0  0  0
  -27.6055  -13.1884   19.7126 C   0  0  2  0  0  0  0  0  0  0  0  0
  -37.8192  -30.9479   23.0885 C   0  0  0  0  0  0  0  0  0  0  0  0
  -33.1254  -27.8458   19.5933 C   0  0  0  0  0  0  0  0  0  0  0  0
  -35.5382  -28.4479   19.8841 C   0  0  0  0  0  0  0  0  0  0  0  0
  -33.8366  -30.2433   19.5617 C   0  0  0  0  0  0  0  0  0  0  0  0
  -35.6056  -30.6148   26.1650 C   0  0  0  0  0  0  0  0  0  0  0  0
  -32.8210  -22.6909   25.7139 C   0  0  0  0  0  0  0  0  0  1  0  0
  -33.9242  -28.9990   21.7608 C   0  0  1  0  0  0  0  0  0  0  0  0
  -36.5050  -30.8334   23.8451 C   0  0  2  0  0  0  0  0  0  0  0  0
  -34.0920  -28.8702   20.2205 C   0  0  0  0  0  0  0  0  0  0  0  0
  -25.8713  -11.5423   20.3160 N   0  0  0  0  0  0  0  0  0  0  0  0
  -26.1977  -12.8360   20.1552 N   0  0  0  0  0  0  0  0  0  0  0  0
  -31.9552  -19.6625   25.0370 N   0  0  0  0  0  0  0  0  0  0  0  0
  -31.8330  -28.4835   22.9795 N   0  0  0  0  0  0  0  0  0  0  0  0
  -29.8862  -13.7870   20.4270 N   0  0  0  0  0  0  0  0  0  0  0  0
  -25.3331  -15.0357   20.3118 N   0  0  0  0  0  0  0  0  0  0  0  0
  -21.8246  -12.4504   21.4962 N   0  0  0  0  0  0  0  0  0  0  0  0
  -29.8820  -15.9029   21.4688 N   0  0  0  0  0  0  0  0  0  0  0  0
  -28.4582  -28.4308   21.8226 N   0  0  0  0  0  0  0  0  0  0  0  0
  -34.8082  -29.9818   22.3781 N   0  0  0  0  0  0  0  0  0  0  0  0
  -36.8088  -30.7122   25.2991 N   0  3  0  0  0  0  0  0  0  0  0  0
  -30.1627  -20.7864   26.0733 O   0  0  0  0  0  0  0  0  0  0  0  0
  -22.5176  -14.6113   21.1658 O   0  0  0  0  0  0  0  0  0  0  0  0
  -30.1214  -26.8014   21.8601 O   0  0  0  0  0  0  0  0  0  0  0  0
  -32.0521  -30.4557   21.7552 O   0  0  0  0  0  0  0  0  0  0  0  0
  -35.8459  -28.5090   23.8379 O   0  0  0  0  0  0  0  0  0  0  0  0
  -31.7209  -15.1824   20.2519 O   0  0  0  0  0  0  0  0  0  0  0  0
  -21.7803   -6.8868   21.7787 O   0  0  0  0  0  0  0  0  0  0  0  0
  -32.1443  -23.5328   26.6465 O   0  0  0  0  0  0  0  0  0  1  0  0
  -18.6802   -6.7476   26.3365 F   0  0  0  0  0  0  0  0  0  0  0  0
  -22.2616   -5.0253   23.7651 F   0  0  0  0  0  0  0  0  0  0  0  0
  -34.0358  -17.9413   23.6613 Cl  0  0  0  0  0  0  0  0  0  0  0  0
  1  2  1  0  0  0  0
  1  5  2  0  0  0  0
  2  6  2  0  0  0  0
  3 10  2  0  0  0  0
  3 18  1  0  0  0  0
  4 11  1  0  0  0  0
  4 18  2  0  0  0  0
  5 20  1  0  0  0  0
  6 22  1  0  0  0  0
  7 12  2  0  0  0  0
  7 21  1  0  0  0  0
  8  9  2  0  0  0  0
  8 24  1  0  0  0  0
  9 25  1  0  0  0  0
 10 26  1  0  0  0  0
 11 26  2  0  0  0  0
 12 27  1  0  0  0  0
 13 14  2  0  0  0  0
 13 28  1  0  0  0  0
 14 29  1  0  0  0  0
 15 23  1  0  0  0  0
 15 27  2  0  0  0  0
 16 25  2  0  0  0  0
 16 31  1  0  0  0  0
 17 29  2  0  0  0  0
 17 30  1  0  0  0  0
 18 32  1  0  0  0  0
 19 32  1  0  0  0  0
 19 33  2  0  0  0  0
 19 35  1  0  0  0  0
 20 22  2  0  0  0  0
 20 40  1  0  0  0  0
 21 23  2  0  0  0  0
 21 41  1  0  0  0  0
 22 50  1  0  0  0  0
 23 42  1  0  0  0  0
 24 31  2  0  0  0  0
 24 65  1  0  0  0  0
 25 70  1  0  0  0  0
 26 80  1  0  0  0  0
 27 81  1  0  0  0  0
 28 30  2  0  0  0  0
 28 80  1  0  0  0  0
 29 82  1  0  0  0  0
 30 83  1  0  0  0  0
 31 84  1  0  0  0  0
 32 63  2  0  0  0  0
 33 64  1  0  0  0  0
 33 68  1  0  0  0  0
 34 51  1  0  0  0  0
 34 65  1  0  0  0  0
 34 74  2  0  0  0  0
 35 69  1  0  0  0  0
 35 75  2  0  0  0  0
 36 52  1  0  0  0  0
 36 71  1  0  0  0  0
 36 76  2  0  0  0  0
 37 60  1  0  0  0  0
 37 66  1  0  0  0  0
 37 77  2  0  0  0  0
 38 61  1  0  0  0  0
 38 72  1  0  0  0  0
 38 78  2  0  0  0  0
 39 67  1  0  0  0  0
 39 70  1  0  0  0  0
 39 79  2  0  0  0  0
 40 43  1  0  0  0  0
 41 52  1  0  0  0  0
 42 66  1  0  0  0  0
 43 45  1  0  0  0  0
 44 46  1  0  0  0  0
 44 47  1  0  0  0  0
 45 50  1  0  0  0  0
 46 53  1  0  0  0  0
 47 67  1  0  0  0  0
 48 51  1  0  0  0  0
 48 65  1  0  0  0  0
 49 53  1  0  0  0  0
 49 67  1  0  0  0  0
 50 71  1  0  0  0  0
 51 59  1  0  0  0  0
 52 66  1  0  0  0  0
 53 64  1  0  0  0  0
 54 61  1  0  0  0  0
 55 62  1  0  0  0  0
 56 62  1  0  0  0  0
 57 62  1  0  0  0  0
 58 73  1  0  0  0  0
 59 81  1  0  0  0  0
 60 62  1  0  0  0  0
 60 72  1  0  0  0  0
 61 73  1  0  0  0  0
 63 64  1  0  0  0  0
M  CHG  1  73   1
M  ISO  4  39 100  59 101  70 100  81 101
M  END
> <Batch ID>
0025

> <Smiles>
CNC(C)C(=O)NC(C(=O)N1Cc2cc([101O:1][101CH2:1]C3CN(c4ccc([100NH:0][100C:0](=O)N5CCCC(n6nc(-c7ccc(Oc8ccc(F)cc8F)cc7)c(C(N)=O)c6N)C5)cc4Cl)C3=O)ccc2CC1C(=O)NC1CCCc2ccccc21)C(C)(C)C

> <Shape>
0.221

> <Color>
0.200

> <Negative vol penalty>
0.000

$$$$

  -OEChem-04042321223D

 96106  0     1  0  0  0  0  0999 V2000
  -18.3455  -25.7596   23.0619 C   0  0  0  0  0  0  0  0  0  0  0  0
  -19.5171  -25.4366   22.3849 C   0  0  0  0  0  0  0  0  0  0  0  0
  -22.2382  -19.5333   22.4741 C   0  0  0  0  0  0  0  0  0  0  0  0
  -23.3009  -18.9071   24.5515 C   0  0  0  0  0  0  0  0  0  0  0  0
  -18.0495  -27.0926   23.3439 C   0  0  0  0  0  0  0  0  0  0  0  0
  -20.3930  -26.4466   21.9885 C   0  0  0  0  0  0  0  0  0  0  0  0
  -25.3073  -25.3221   23.0266 C   0  0  0  0  0  0  0  0  0  0  0  0
  -21.3713  -20.3748   23.1712 C   0  0  0  0  0  0  0  0  0  0  0  0
  -22.4341  -19.7486   25.2486 C   0  0  0  0  0  0  0  0  0  0  0  0
  -25.9774  -24.4385   22.1817 C   0  0  0  0  0  0  0  0  0  0  0  0
  -20.2668  -21.4568   27.6140 C   0  0  0  0  0  0  0  0  0  0  0  0
  -19.6834  -20.9637   28.7810 C   0  0  0  0  0  0  0  0  0  0  0  0
  -26.9676  -26.3075   21.0222 C   0  0  0  0  0  0  0  0  0  0  0  0
  -31.4378  -22.6533   18.4591 C   0  0  0  0  0  0  0  0  0  0  0  0
  -18.6528  -19.1835   27.5136 C   0  0  0  0  0  0  0  0  0  0  0  0
  -23.2030  -18.7994   23.1642 C   0  0  0  0  0  0  0  0  0  0  0  0
  -23.7497  -16.8287   21.6393 C   0  0  0  0  0  0  0  0  0  0  0  0
  -18.9270  -28.1187   22.9593 C   0  0  0  0  0  0  0  0  0  0  0  0
  -25.4541  -26.7079   22.8691 C   0  0  0  0  0  0  0  0  0  0  0  0
  -20.1079  -27.7947   22.2645 C   0  0  0  0  0  0  0  0  0  0  0  0
  -26.3020  -27.2064   21.8695 C   0  0  0  0  0  0  0  0  0  0  0  0
  -29.9084  -22.0570   16.6865 C   0  0  0  0  0  0  0  0  0  0  0  0
  -29.4773  -20.9572   17.4284 C   0  0  0  0  0  0  0  0  0  0  0  0
  -30.8887  -22.9050   17.2018 C   0  0  0  0  0  0  0  0  0  0  0  0
  -30.0265  -20.7055   18.6856 C   0  0  0  0  0  0  0  0  0  0  0  0
  -21.4693  -20.4825   24.5585 C   0  0  0  0  0  0  0  0  0  0  0  0
  -26.8059  -24.9312   21.1779 C   0  0  0  0  0  0  0  0  0  0  0  0
  -20.0432  -20.8134   26.3967 C   0  0  0  0  0  0  0  0  0  0  0  0
  -18.8764  -19.8270   28.7309 C   0  0  0  0  0  0  0  0  0  0  0  0
  -19.2362  -19.6767   26.3465 C   0  0  0  0  0  0  0  0  0  0  0  0
  -31.0067  -21.5536   19.2010 C   0  0  0  0  0  0  0  0  0  0  0  0
  -24.0983  -17.9295   22.4447 C   0  0  0  0  0  0  0  0  0  0  0  0
  -24.9510  -16.3409   21.1860 C   0  0  0  0  0  0  0  0  0  0  0  0
  -22.4558  -16.2950   21.3287 C   0  0  0  0  0  0  0  0  0  0  0  0
  -23.5309  -29.1856   22.2302 C   0  0  0  0  0  0  0  0  0  0  0  0
  -26.3492  -30.8523   22.8067 C   0  0  0  0  0  0  0  0  0  0  0  0
  -24.5479  -33.7459   22.9573 C   0  0  0  0  0  0  0  0  0  0  0  0
  -30.3157  -18.8355   20.3487 C   0  0  0  0  0  0  0  0  0  0  0  0
  -18.5413  -29.5485   23.2446 C   0  0  0  0  0  0  0  0  0  0  0  0
  -24.7459  -27.6439   23.8108 C   0  0  0  0  0  0  0  0  0  0  0  0
  -26.4960  -28.6843   21.6622 C   0  0  0  0  0  0  0  0  0  0  0  0
  -19.7044  -30.5294   23.1207 C   0  0  0  0  0  0  0  0  0  0  0  0
  -32.6325  -25.3875   15.0322 C   0  0  0  0  0  0  0  0  0  0  0  0
  -31.4699  -26.2036   15.5598 C   0  0  0  0  0  0  0  0  0  0  0  0
  -29.5699  -16.0316   22.4124 C   0  0  0  0  0  0  0  0  0  0  0  0
  -30.1909  -21.4570   11.9939 C   0  0  0  0  0  0  0  0  0  0  0  0
  -31.4495  -20.9382   12.6600 C   0  0  0  0  0  0  0  0  0  0  0  0
  -20.4885  -30.2684   21.8386 C   0  0  0  0  0  0  0  0  0  0  0  0
  -28.0497  -16.0964   22.5766 C   0  0  0  0  0  0  0  0  0  0  0  0
  -32.7219  -24.2422   16.0342 C   0  0  0  0  0  0  0  0  0  0  0  0
  -30.4889  -25.1323   16.0221 C   0  0  0  0  0  0  0  0  0  0  0  0
  -30.1979  -17.4241   22.3905 C   0  0  0  0  0  0  0  0  0  0  0  0
  -28.0951  -18.4173   21.5774 C   0  0  0  0  0  0  0  0  0  0  0  0
  -29.7687  -22.6276   12.8644 C   0  0  0  0  0  0  0  0  0  0  0  0
  -31.1010  -21.0169   14.1309 C   0  0  0  0  0  0  0  0  0  0  0  0
  -21.0952  -28.8601   21.8400 C   0  0  1  0  0  0  0  0  0  0  0  0
  -24.6089  -29.0656   23.2699 C   0  0  1  0  0  0  0  0  0  0  0  0
  -27.4107  -17.0412   21.5399 C   0  0  2  0  0  0  0  0  0  0  0  0
  -26.5057  -19.4713   14.8196 C   0  0  0  0  0  0  0  0  0  0  0  0
  -24.7677  -36.1744   23.5500 C   0  0  0  0  0  0  0  0  0  0  0  0
  -26.3149  -30.1289   25.7700 C   0  0  0  0  0  0  0  0  0  0  0  0
  -25.5853  -32.4729   26.2614 C   0  0  0  0  0  0  0  0  0  0  0  0
  -27.7962  -32.0567   25.1836 C   0  0  0  0  0  0  0  0  0  0  0  0
  -23.8303  -34.5993   20.2159 C   0  0  0  0  0  0  0  0  0  0  0  0
  -29.3185  -22.3264   15.3375 C   0  0  0  0  0  0  0  0  0  0  0  0
  -28.4226  -20.0486   16.8688 C   0  0  0  0  0  0  0  0  0  0  0  0
  -27.2506  -22.3439   18.7010 C   0  0  0  0  0  0  0  0  0  0  0  0
  -26.0340  -19.7561   16.2288 C   0  0  0  0  0  0  0  0  0  0  0  0
  -26.6242  -21.0193   18.2920 C   0  0  0  0  0  0  0  0  0  0  0  0
  -26.8321  -22.8178   20.0874 C   0  0  0  0  0  0  0  0  0  1  0  0
  -25.6802  -31.7230   23.8407 C   0  0  1  0  0  0  0  0  0  0  0  0
  -24.8383  -35.1417   22.4359 C   0  0  2  0  0  0  0  0  0  0  0  0
  -26.3290  -31.5789   25.2463 C   0  0  0  0  0  0  0  0  0  0  0  0
  -25.4177  -18.1293   22.5018 N   0  0  0  0  0  0  0  0  0  0  0  0
  -25.9088  -17.1474   21.7266 N   0  0  0  0  0  0  0  0  0  0  0  0
  -31.3370  -24.0199   16.4681 N   0  0  0  0  0  0  0  0  0  0  0  0
  -25.8520  -29.5514   22.6574 N   0  0  0  0  0  0  0  0  0  0  0  0
  -29.5451  -18.2617   21.3820 N   0  0  0  0  0  0  0  0  0  0  0  0
  -25.2708  -15.3049   20.3818 N   0  0  0  0  0  0  0  0  0  0  0  0
  -21.9225  -15.3057   22.1661 N   0  0  0  0  0  0  0  0  0  0  0  0
  -29.5815  -19.5850   19.4300 N   0  0  0  0  0  0  0  0  0  0  0  0
  -22.2756  -28.8191   22.6764 N   0  0  0  0  0  0  0  0  0  0  0  0
  -25.7039  -33.0810   23.3081 N   0  0  0  0  0  0  0  0  0  0  0  0
  -30.3322  -22.3156   14.2387 N   0  3  0  0  0  0  0  0  0  0  0  0
  -23.8519  -35.5172   21.3838 N   0  3  0  0  0  0  0  0  0  0  0  0
  -27.0380  -20.6484   16.9184 N   0  3  1  0  0  0  0  0  0  0  0  0
  -21.7992  -16.6722   20.3286 O   0  0  0  0  0  0  0  0  0  0  0  0
  -23.8167  -29.5827   21.1066 O   0  0  0  0  0  0  0  0  0  0  0  0
  -27.2919  -31.3082   22.1534 O   0  0  0  0  0  0  0  0  0  0  0  0
  -23.4093  -33.2922   23.0482 O   0  0  0  0  0  0  0  0  0  0  0  0
  -31.5329  -18.6516   20.2682 O   0  0  0  0  0  0  0  0  0  0  0  0
  -20.6237  -21.3038   25.2390 O   0  0  0  0  0  0  0  0  0  0  0  0
  -27.4616  -24.0708   20.3522 O   0  0  0  0  0  0  0  0  0  1  0  0
  -18.3175  -19.3527   29.8519 F   0  0  0  0  0  0  0  0  0  0  0  0
  -19.0187  -19.0536   25.1802 F   0  0  0  0  0  0  0  0  0  0  0  0
  -31.7166  -21.2811   20.7529 Cl  0  0  0  0  0  0  0  0  0  0  0  0
  1  2  1  0  0  0  0
  1  5  2  0  0  0  0
  2  6  2  0  0  0  0
  3  8  2  0  0  0  0
  3 16  1  0  0  0  0
  4  9  1  0  0  0  0
  4 16  2  0  0  0  0
  5 18  1  0  0  0  0
  6 20  1  0  0  0  0
  7 10  2  0  0  0  0
  7 19  1  0  0  0  0
  8 26  1  0  0  0  0
  9 26  2  0  0  0  0
 10 27  1  0  0  0  0
 11 12  2  0  0  0  0
 11 28  1  0  0  0  0
 12 29  1  0  0  0  0
 13 21  1  0  0  0  0
 13 27  2  0  0  0  0
 14 24  1  0  0  0  0
 14 31  2  0  0  0  0
 15 29  2  0  0  0  0
 15 30  1  0  0  0  0
 16 32  1  0  0  0  0
 17 32  1  0  0  0  0
 17 33  2  0  0  0  0
 17 34  1  0  0  0  0
 18 20  2  0  0  0  0
 18 39  1  0  0  0  0
 19 21  2  0  0  0  0
 19 40  1  0  0  0  0
 20 56  1  0  0  0  0
 21 41  1  0  0  0  0
 22 23  1  0  0  0  0
 22 24  2  0  0  0  0
 22 65  1  0  0  0  0
 23 25  2  0  0  0  0
 23 66  1  0  0  0  0
 24 76  1  0  0  0  0
 25 31  1  0  0  0  0
 25 81  1  0  0  0  0
 26 92  1  0  0  0  0
 27 93  1  0  0  0  0
 28 30  2  0  0  0  0
 28 92  1  0  0  0  0
 29 94  1  0  0  0  0
 30 95  1  0  0  0  0
 31 96  1  0  0  0  0
 32 74  2  0  0  0  0
 33 75  1  0  0  0  0
 33 79  1  0  0  0  0
 34 80  1  0  0  0  0
 34 87  2  0  0  0  0
 35 57  1  0  0  0  0
 35 82  1  0  0  0  0
 35 88  2  0  0  0  0
 36 71  1  0  0  0  0
 36 77  1  0  0  0  0
 36 89  2  0  0  0  0
 37 72  1  0  0  0  0
 37 83  1  0  0  0  0
 37 90  2  0  0  0  0
 38 78  1  0  0  0  0
 38 81  1  0  0  0  0
 38 91  2  0  0  0  0
 39 42  1  0  0  0  0
 40 57  1  0  0  0  0
 41 77  1  0  0  0  0
 42 48  1  0  0  0  0
 43 44  1  0  0  0  0
 43 50  1  0  0  0  0
 44 51  1  0  0  0  0
 45 49  1  0  0  0  0
 45 52  1  0  0  0  0
 46 47  1  0  0  0  0
 46 54  1  0  0  0  0
 47 55  1  0  0  0  0
 48 56  1  0  0  0  0
 49 58  1  0  0  0  0
 50 76  1  0  0  0  0
 51 76  1  0  0  0  0
 52 78  1  0  0  0  0
 53 58  1  0  0  0  0
 53 78  1  0  0  0  0
 54 84  1  0  0  0  0
 55 84  1  0  0  0  0
 56 82  1  0  0  0  0
 57 77  1  0  0  0  0
 58 75  1  0  0  0  0
 59 68  1  0  0  0  0
 60 72  1  0  0  0  0
 61 73  1  0  0  0  0
 62 73  1  0  0  0  0
 63 73  1  0  0  0  0
 64 85  1  0  0  0  0
 65 84  1  0  0  0  0
 66 86  1  0  0  0  0
 67 69  1  0  0  0  0
 67 70  1  0  0  0  0
 68 86  1  0  0  0  0
 69 86  1  0  0  0  0
 70 93  1  0  0  0  0
 71 73  1  0  0  0  0
 71 83  1  0  0  0  0
 72 85  1  0  0  0  0
 74 75  1  0  0  0  0
M  CHG  3  84   1  85   1  86   1
M  ISO  4  38 100  70 101  81 100  93 101
M  END
> <Batch ID>
0025

> <Smiles>
CCN(CC[101CH2:1][101O:1]c1ccc2c(c1)CN(C(=O)C(NC(=O)C(C)NC)C(C)(C)C)C(C(=O)NC1CCCc3ccccc31)C2)Cc1c(CN2CCCC2)c(N2CCCC2)cc(Cl)c1[100NH:0][100C:0](=O)N1CCCC(n2nc(-c3ccc(Oc4ccc(F)cc4F)cc3)c(C(N)=O)c2N)C1

> <Shape>
0.207

> <Color>
0.075

> <Negative vol penalty>
0.000

$$$$

  -OEChem-04042321223D

 87 96  0     1  0  0  0  0  0999 V2000
  -26.6777  -33.5974   26.3146 C   0  0  0  0  0  0  0  0  0  0  0  0
  -27.1084  -32.4907   25.5899 C   0  0  0  0  0  0  0  0  0  0  0  0
  -25.9331  -13.8991   19.9389 C   0  0  0  0  0  0  0  0  0  0  0  0
  -25.2016  -13.4487   22.1970 C   0  0  0  0  0  0  0  0  0  0  0  0
  -25.3381  -33.7085   26.6849 C   0  0  0  0  0  0  0  0  0  0  0  0
  -26.1998  -31.4939   25.2360 C   0  0  0  0  0  0  0  0  0  0  0  0
  -26.7217  -30.0097   20.4225 C   0  0  0  0  0  0  0  0  0  0  0  0
  -25.0156  -12.9662   19.4556 C   0  0  0  0  0  0  0  0  0  0  0  0
  -24.2841  -12.5158   21.7137 C   0  0  0  0  0  0  0  0  0  0  0  0
  -27.7746  -29.1424   20.1342 C   0  0  0  0  0  0  0  0  0  0  0  0
  -24.3268   -9.3198   20.6117 C   0  0  0  0  0  0  0  0  0  0  0  0
  -24.2397   -8.0943   21.2722 C   0  0  0  0  0  0  0  0  0  0  0  0
  -26.2393  -27.2819   20.1538 C   0  0  0  0  0  0  0  0  0  0  0  0
  -29.2713  -23.8609   19.7467 C   0  0  0  0  0  0  0  0  0  0  0  0
  -29.9874  -23.9389   22.0527 C   0  0  0  0  0  0  0  0  0  0  0  0
  -21.9145   -8.5258   21.7662 C   0  0  0  0  0  0  0  0  0  0  0  0
  -26.0261  -14.1403   21.3096 C   0  0  0  0  0  0  0  0  0  0  0  0
  -28.3734  -15.0768   21.6577 C   0  0  0  0  0  0  0  0  0  0  0  0
  -24.4108  -32.7172   26.3270 C   0  0  0  0  0  0  0  0  0  0  0  0
  -25.4194  -29.5174   20.5896 C   0  0  0  0  0  0  0  0  0  0  0  0
  -24.8468  -31.5911   25.6030 C   0  0  0  0  0  0  0  0  0  0  0  0
  -25.1712  -28.1453   20.4416 C   0  0  0  0  0  0  0  0  0  0  0  0
  -28.2795  -22.3721   21.3706 C   0  0  0  0  0  0  0  0  0  0  0  0
  -30.0793  -24.4091   20.7427 C   0  0  0  0  0  0  0  0  0  0  0  0
  -24.1912  -12.2745   20.3430 C   0  0  0  0  0  0  0  0  0  0  0  0
  -27.5339  -27.7779   20.0026 C   0  0  0  0  0  0  0  0  0  0  0  0
  -23.2078  -10.1483   20.5285 C   0  0  0  0  0  0  0  0  0  0  0  0
  -23.0336   -7.6973   21.8494 C   0  0  0  0  0  0  0  0  0  0  0  0
  -28.3714  -22.8424   20.0606 C   0  0  0  0  0  0  0  0  0  0  0  0
  -22.0016   -9.7513   21.1057 C   0  0  0  0  0  0  0  0  0  0  0  0
  -29.0876  -22.9204   22.3667 C   0  0  0  0  0  0  0  0  0  0  0  0
  -26.9741  -15.1035   21.8095 C   0  0  0  0  0  0  0  0  0  0  0  0
  -28.8108  -16.2047   22.3080 C   0  0  0  0  0  0  0  0  0  0  0  0
  -29.2035  -14.1181   20.9887 C   0  0  0  0  0  0  0  0  0  0  0  0
  -23.3264  -29.4769   22.9816 C   0  0  0  0  0  0  0  0  0  0  0  0
  -21.3579  -28.2350   20.7222 C   0  0  0  0  0  0  0  0  0  0  0  0
  -21.0326  -26.5522   17.7711 C   0  0  0  0  0  0  0  0  0  0  0  0
  -25.6772  -21.3063   23.6089 C   0  0  0  0  0  0  0  0  0  0  0  0
  -22.9825  -32.8580   26.7905 C   0  0  0  0  0  0  0  0  0  0  0  0
  -24.2901  -30.4694   20.8740 C   0  0  0  0  0  0  0  0  0  0  0  0
  -23.7878  -27.5689   20.5914 C   0  0  0  0  0  0  0  0  0  0  0  0
  -22.0097  -31.9413   26.0532 C   0  0  0  0  0  0  0  0  0  0  0  0
  -27.6643  -19.1636   25.8809 C   0  0  0  0  0  0  0  0  0  0  0  0
  -32.8618  -26.8407   20.4926 C   0  0  0  0  0  0  0  0  0  0  0  0
  -22.5713  -30.5257   25.9669 C   0  0  0  0  0  0  0  0  0  0  0  0
  -27.7644  -17.8538   25.1008 C   0  0  0  0  0  0  0  0  0  0  0  0
  -32.2954  -26.8204   19.0816 C   0  0  0  0  0  0  0  0  0  0  0  0
  -32.2311  -25.6158   21.1474 C   0  0  0  0  0  0  0  0  0  0  0  0
  -26.3958  -19.9361   25.5319 C   0  0  0  0  0  0  0  0  0  0  0  0
  -26.3287  -18.8834   23.2954 C   0  0  0  0  0  0  0  0  0  0  0  0
  -23.8866  -30.5011   25.1789 C   0  0  1  0  0  0  0  0  0  0  0  0
  -23.0907  -29.7942   21.5320 C   0  0  1  0  0  0  0  0  0  0  0  0
  -27.6187  -18.1030   23.5895 C   0  0  2  0  0  0  0  0  0  0  0  0
  -30.8590  -26.3130   19.2713 C   0  0  2  0  0  0  0  0  0  0  0  0
  -19.2973  -25.6519   16.1977 C   0  0  0  0  0  0  0  0  0  0  0  0
  -20.8271  -25.9191   22.6366 C   0  0  0  0  0  0  0  0  0  0  0  0
  -19.8911  -24.6291   20.7058 C   0  0  0  0  0  0  0  0  0  0  0  0
  -18.8052  -26.7562   21.4260 C   0  0  0  0  0  0  0  0  0  0  0  0
  -25.5485  -23.0079   21.8292 C   0  0  0  0  0  0  0  0  0  0  0  0
  -21.9863  -28.2657   15.5545 C   0  0  0  0  0  0  0  0  0  0  0  0
  -27.3027  -21.2808   21.6700 C   0  0  0  0  0  0  0  0  0  0  0  0
  -29.8954  -27.4625   19.5633 C   0  0  0  0  0  0  0  0  0  1  0  0
  -21.0335  -26.8436   20.2348 C   0  0  1  0  0  0  0  0  0  0  0  0
  -20.1922  -26.8333   16.5386 C   0  0  2  0  0  0  0  0  0  0  0  0
  -20.1658  -26.0473   21.2498 C   0  0  0  0  0  0  0  0  0  0  0  0
  -26.5506  -16.1642   22.5020 N   0  0  0  0  0  0  0  0  0  0  0  0
  -27.6906  -16.8145   22.7912 N   0  0  0  0  0  0  0  0  0  0  0  0
  -30.9693  -25.4197   20.4311 N   0  0  3  0  0  0  0  0  0  0  0  0
  -22.7179  -28.5396   20.8754 N   0  0  0  0  0  0  0  0  0  0  0  0
  -26.2603  -20.1211   24.0867 N   0  0  0  0  0  0  0  0  0  0  0  0
  -30.0406  -16.7244   22.5080 N   0  0  0  0  0  0  0  0  0  0  0  0
  -29.6916  -13.0288   21.7233 N   0  0  0  0  0  0  0  0  0  0  0  0
  -23.6258  -30.5804   23.7576 N   0  0  0  0  0  0  0  0  0  0  0  0
  -20.4201  -27.0040   18.9209 N   0  0  0  0  0  0  0  0  0  0  0  0
  -26.1150  -21.7769   22.3617 N   0  0  0  0  0  0  0  0  0  0  0  0
  -21.0691  -27.1123   15.3663 N   0  3  0  0  0  0  0  0  0  0  0  0
  -29.5171  -14.2332   19.7796 O   0  0  0  0  0  0  0  0  0  0  0  0
  -23.2414  -28.3170   23.3678 O   0  0  0  0  0  0  0  0  0  0  0  0
  -20.4387  -29.0250   20.9516 O   0  0  0  0  0  0  0  0  0  0  0  0
  -22.1217  -25.9849   17.7196 O   0  0  0  0  0  0  0  0  0  0  0  0
  -24.8215  -21.9145   24.2645 O   0  0  0  0  0  0  0  0  0  0  0  0
  -23.2956  -11.3643   19.8718 O   0  0  0  0  0  0  0  0  0  0  0  0
  -28.5599  -26.9291   19.7219 O   0  0  0  0  0  0  0  0  0  1  0  0
  -22.9497   -6.5198   22.4823 F   0  0  0  0  0  0  0  0  0  0  0  0
  -27.5979  -22.3242   19.0962 F   0  0  0  0  0  0  0  0  0  0  0  0
  -20.9228  -10.5425   21.0280 F   0  0  0  0  0  0  0  0  0  0  0  0
  -29.0021  -22.3639   23.9985 Cl  0  0  0  0  0  0  0  0  0  0  0  0
  1  2  1  0  0  0  0
  1  5  2  0  0  0  0
  2  6  2  0  0  0  0
  3  8  2  0  0  0  0
  3 17  1  0  0  0  0
  4  9  1  0  0  0  0
  4 17  2  0  0  0  0
  5 19  1  0  0  0  0
  6 21  1  0  0  0  0
  7 10  2  0  0  0  0
  7 20  1  0  0  0  0
  8 25  1  0  0  0  0
  9 25  2  0  0  0  0
 10 26  1  0  0  0  0
 11 12  2  0  0  0  0
 11 27  1  0  0  0  0
 12 28  1  0  0  0  0
 13 22  1  0  0  0  0
 13 26  2  0  0  0  0
 14 24  1  0  0  0  0
 14 29  2  0  0  0  0
 15 24  2  0  0  0  0
 15 31  1  0  0  0  0
 16 28  2  0  0  0  0
 16 30  1  0  0  0  0
 17 32  1  0  0  0  0
 18 32  1  0  0  0  0
 18 33  2  0  0  0  0
 18 34  1  0  0  0  0
 19 21  2  0  0  0  0
 19 39  1  0  0  0  0
 20 22  2  0  0  0  0
 20 40  1  0  0  0  0
 21 51  1  0  0  0  0
 22 41  1  0  0  0  0
 23 29  1  0  0  0  0
 23 31  2  0  0  0  0
 23 61  1  0  0  0  0
 24 68  1  0  0  0  0
 25 82  1  0  0  0  0
 26 83  1  0  0  0  0
 27 30  2  0  0  0  0
 27 82  1  0  0  0  0
 28 84  1  0  0  0  0
 29 85  1  0  0  0  0
 30 86  1  0  0  0  0
 31 87  1  0  0  0  0
 32 66  2  0  0  0  0
 33 67  1  0  0  0  0
 33 71  1  0  0  0  0
 34 72  1  0  0  0  0
 34 77  2  0  0  0  0
 35 52  1  0  0  0  0
 35 73  1  0  0  0  0
 35 78  2  0  0  0  0
 36 63  1  0  0  0  0
 36 69  1  0  0  0  0
 36 79  2  0  0  0  0
 37 64  1  0  0  0  0
 37 74  1  0  0  0  0
 37 80  2  0  0  0  0
 38 70  1  0  0  0  0
 38 75  1  0  0  0  0
 38 81  2  0  0  0  0
 39 42  1  0  0  0  0
 40 52  1  0  0  0  0
 41 69  1  0  0  0  0
 42 45  1  0  0  0  0
 43 46  1  0  0  0  0
 43 49  1  0  0  0  0
 44 47  1  0  0  0  0
 44 48  1  0  0  0  0
 45 51  1  0  0  0  0
 46 53  1  0  0  0  0
 47 54  1  0  0  0  0
 48 68  1  0  0  0  0
 49 70  1  0  0  0  0
 50 53  1  0  0  0  0
 50 70  1  0  0  0  0
 51 73  1  0  0  0  0
 52 69  1  0  0  0  0
 53 67  1  0  0  0  0
 54 62  1  0  0  0  0
 54 68  1  0  0  0  0
 55 64  1  0  0  0  0
 56 65  1  0  0  0  0
 57 65  1  0  0  0  0
 58 65  1  0  0  0  0
 59 75  1  0  0  0  0
 60 76  1  0  0  0  0
 61 75  1  0  0  0  0
 62 83  1  0  0  0  0
 63 65  1  0  0  0  0
 63 74  1  0  0  0  0
 64 76  1  0  0  0  0
 66 67  1  0  0  0  0
M  CHG  1  76   1
M  ISO  4  38 100  62 101  75 100  83 101
M  END
> <Batch ID>
0025

> <Smiles>
CNC(C)C(=O)NC(C(=O)N1Cc2cc([101O:1][101CH2:1]C3CCCN3c3cc(F)c(C[100N:0](C)[100C:0](=O)N4CCCC(n5nc(-c6ccc(Oc7ccc(F)cc7F)cc6)c(C(N)=O)c5N)C4)c(Cl)c3)ccc2CC1C(=O)NC1CCCc2ccccc21)C(C)(C)C

> <Shape>
0.281

> <Color>
0.082

> <Negative vol penalty>
0.000

$$$$

  -OEChem-04042321223D

 82 90  0     1  0  0  0  0  0999 V2000
  -30.4646  -35.0747   24.5112 C   0  0  0  0  0  0  0  0  0  0  0  0
  -30.4987  -34.2824   23.3681 C   0  0  0  0  0  0  0  0  0  0  0  0
  -24.5888   -9.0599   21.1610 C   0  0  0  0  0  0  0  0  0  0  0  0
  -22.8263  -10.6886   20.8821 C   0  0  0  0  0  0  0  0  0  0  0  0
  -29.7234  -34.6663   25.6192 C   0  0  0  0  0  0  0  0  0  0  0  0
  -29.7925  -33.0805   23.3329 C   0  0  0  0  0  0  0  0  0  0  0  0
  -26.2144  -28.8384   18.8033 C   0  0  0  0  0  0  0  0  0  0  0  0
  -23.6348   -8.0565   21.3305 C   0  0  0  0  0  0  0  0  0  0  0  0
  -21.8722   -9.6853   21.0515 C   0  0  0  0  0  0  0  0  0  0  0  0
  -26.1672  -27.5106   18.3808 C   0  0  0  0  0  0  0  0  0  0  0  0
  -21.6030   -6.9418   23.7909 C   0  0  0  0  0  0  0  0  0  0  0  0
  -21.7961   -6.0342   24.8324 C   0  0  0  0  0  0  0  0  0  0  0  0
  -24.8570  -26.9447   20.3256 C   0  0  0  0  0  0  0  0  0  0  0  0
  -27.0230  -20.6375   19.1971 C   0  0  0  0  0  0  0  0  0  0  0  0
  -27.4768  -20.1898   21.9131 C   0  0  0  0  0  0  0  0  0  0  0  0
  -21.8557   -4.2189   23.2393 C   0  0  0  0  0  0  0  0  0  0  0  0
  -24.1845  -10.3760   20.9368 C   0  0  0  0  0  0  0  0  0  0  0  0
  -25.7525  -11.8369   19.5530 C   0  0  0  0  0  0  0  0  0  0  0  0
  -28.9999  -33.4635   25.5941 C   0  0  0  0  0  0  0  0  0  0  0  0
  -25.5915  -29.2279   19.9977 C   0  0  0  0  0  0  0  0  0  0  0  0
  -29.0420  -32.6550   24.4422 C   0  0  0  0  0  0  0  0  0  0  0  0
  -24.8956  -28.2786   20.7598 C   0  0  0  0  0  0  0  0  0  0  0  0
  -27.1790  -19.3356   19.6728 C   0  0  0  0  0  0  0  0  0  0  0  0
  -27.0939  -21.7156   20.0794 C   0  0  0  0  0  0  0  0  0  0  0  0
  -27.4059  -19.1117   21.0308 C   0  0  0  0  0  0  0  0  0  0  0  0
  -22.2765   -8.3692   21.2757 C   0  0  0  0  0  0  0  0  0  0  0  0
  -25.4908  -26.5630   19.1434 C   0  0  0  0  0  0  0  0  0  0  0  0
  -21.5362   -6.4879   22.4736 C   0  0  0  0  0  0  0  0  0  0  0  0
  -21.9224   -4.6728   24.5566 C   0  0  0  0  0  0  0  0  0  0  0  0
  -21.6625   -5.1265   22.1978 C   0  0  0  0  0  0  0  0  0  0  0  0
  -27.3208  -21.4918   21.4373 C   0  0  0  0  0  0  0  0  0  0  0  0
  -25.1696  -11.4130   20.7623 C   0  0  0  0  0  0  0  0  0  0  0  0
  -26.6180  -12.8378   19.9214 C   0  0  0  0  0  0  0  0  0  0  0  0
  -25.5313  -11.3680   18.2163 C   0  0  0  0  0  0  0  0  0  0  0  0
  -26.5913  -30.4698   22.7476 C   0  0  0  0  0  0  0  0  0  0  0  0
  -23.4137  -30.6420   23.3763 C   0  0  0  0  0  0  0  0  0  0  0  0
  -20.2695  -29.4698   22.7542 C   0  0  0  0  0  0  0  0  0  0  0  0
  -27.8001  -17.4201   22.8554 C   0  0  0  0  0  0  0  0  0  0  0  0
  -28.2514  -33.0406   26.8332 C   0  0  0  0  0  0  0  0  0  0  0  0
  -25.6290  -30.6693   20.4259 C   0  0  0  0  0  0  0  0  0  0  0  0
  -24.1932  -28.6494   22.0394 C   0  0  0  0  0  0  0  0  0  0  0  0
  -27.2284  -31.9363   26.5797 C   0  0  0  0  0  0  0  0  0  0  0  0
  -28.2185  -14.2894   24.4988 C   0  0  0  0  0  0  0  0  0  0  0  0
  -27.8400  -30.8269   25.7301 C   0  0  0  0  0  0  0  0  0  0  0  0
  -27.5105  -13.2968   23.5738 C   0  0  0  0  0  0  0  0  0  0  0  0
  -27.4915  -15.6319   24.5531 C   0  0  0  0  0  0  0  0  0  0  0  0
  -26.5183  -15.2550   22.3214 C   0  0  0  0  0  0  0  0  0  0  0  0
  -28.2692  -31.3567   24.3566 C   0  0  1  0  0  0  0  0  0  0  0  0
  -25.3961  -30.8543   21.9222 C   0  0  1  0  0  0  0  0  0  0  0  0
  -27.2495  -13.9096   22.1838 C   0  0  2  0  0  0  0  0  0  0  0  0
  -27.0992  -18.1998   18.7050 C   0  0  0  0  0  0  0  0  0  0  0  0
  -17.8782  -29.7802   23.4488 C   0  0  0  0  0  0  0  0  0  0  0  0
  -23.9704  -29.1228   25.9633 C   0  0  0  0  0  0  0  0  0  0  0  0
  -21.5193  -28.6390   26.1248 C   0  0  0  0  0  0  0  0  0  0  0  0
  -22.3300  -30.9973   26.1866 C   0  0  0  0  0  0  0  0  0  0  0  0
  -19.4549  -30.2511   20.0183 C   0  0  0  0  0  0  0  0  0  0  0  0
  -26.6965  -23.2870   18.1824 C   0  0  0  0  0  0  0  0  0  0  0  0
  -26.5506  -24.7849   17.9725 C   0  0  0  0  0  0  0  0  0  1  0  0
  -22.3969  -29.7204   24.0055 C   0  0  1  0  0  0  0  0  0  0  0  0
  -18.9645  -30.1901   22.4667 C   0  0  2  0  0  0  0  0  0  0  0  0
  -22.5689  -29.6122   25.5470 C   0  0  0  0  0  0  0  0  0  0  0  0
  -25.6263  -12.0891   21.8198 N   0  0  0  0  0  0  0  0  0  0  0  0
  -26.5055  -12.9479   21.2762 N   0  0  0  0  0  0  0  0  0  0  0  0
  -24.2638  -30.0700   22.4192 N   0  0  0  0  0  0  0  0  0  0  0  0
  -27.2829  -16.1535   23.2006 N   0  0  0  0  0  0  0  0  0  0  0  0
  -27.4567  -13.6255   19.2154 N   0  0  0  0  0  0  0  0  0  0  0  0
  -24.6077  -10.3331   18.0155 N   0  0  0  0  0  0  0  0  0  0  0  0
  -27.5680  -17.7967   21.5329 N   0  0  0  0  0  0  0  0  0  0  0  0
  -26.9344  -22.9968   19.5779 N   0  0  0  0  0  0  0  0  0  0  0  0
  -27.1190  -31.5080   23.4913 N   0  0  0  0  0  0  0  0  0  0  0  0
  -21.0881  -30.2074   23.5831 N   0  0  0  0  0  0  0  0  0  0  0  0
  -18.4935  -29.8780   21.0877 N   0  3  0  0  0  0  0  0  0  0  0  0
  -26.1469  -11.8412   17.2311 O   0  0  0  0  0  0  0  0  0  0  0  0
  -27.0033  -29.3162   22.7135 O   0  0  0  0  0  0  0  0  0  0  0  0
  -23.4475  -31.8273   23.7162 O   0  0  0  0  0  0  0  0  0  0  0  0
  -20.5345  -28.3619   22.2928 O   0  0  0  0  0  0  0  0  0  0  0  0
  -28.4280  -18.1072   23.6650 O   0  0  0  0  0  0  0  0  0  0  0  0
  -21.3453   -7.3903   21.4407 O   0  0  0  0  0  0  0  0  0  0  0  0
  -25.4437  -25.2661   18.7337 O   0  0  0  0  0  0  0  0  0  1  0  0
  -22.1094   -3.8015   25.5566 F   0  0  0  0  0  0  0  0  0  0  0  0
  -21.6004   -4.6846   20.9342 F   0  0  0  0  0  0  0  0  0  0  0  0
  -27.4152  -22.7984   22.5637 Cl  0  0  0  0  0  0  0  0  0  0  0  0
  1  2  1  0  0  0  0
  1  5  2  0  0  0  0
  2  6  2  0  0  0  0
  3  8  2  0  0  0  0
  3 17  1  0  0  0  0
  4  9  1  0  0  0  0
  4 17  2  0  0  0  0
  5 19  1  0  0  0  0
  6 21  1  0  0  0  0
  7 10  2  0  0  0  0
  7 20  1  0  0  0  0
  8 26  1  0  0  0  0
  9 26  2  0  0  0  0
 10 27  1  0  0  0  0
 11 12  2  0  0  0  0
 11 28  1  0  0  0  0
 12 29  1  0  0  0  0
 13 22  1  0  0  0  0
 13 27  2  0  0  0  0
 14 23  2  0  0  0  0
 14 24  1  0  0  0  0
 15 25  2  0  0  0  0
 15 31  1  0  0  0  0
 16 29  2  0  0  0  0
 16 30  1  0  0  0  0
 17 32  1  0  0  0  0
 18 32  1  0  0  0  0
 18 33  2  0  0  0  0
 18 34  1  0  0  0  0
 19 21  2  0  0  0  0
 19 39  1  0  0  0  0
 20 22  2  0  0  0  0
 20 40  1  0  0  0  0
 21 48  1  0  0  0  0
 22 41  1  0  0  0  0
 23 25  1  0  0  0  0
 23 51  1  0  0  0  0
 24 31  2  0  0  0  0
 24 69  1  0  0  0  0
 25 68  1  0  0  0  0
 26 78  1  0  0  0  0
 27 79  1  0  0  0  0
 28 30  2  0  0  0  0
 28 78  1  0  0  0  0
 29 80  1  0  0  0  0
 30 81  1  0  0  0  0
 31 82  1  0  0  0  0
 32 62  2  0  0  0  0
 33 63  1  0  0  0  0
 33 66  1  0  0  0  0
 34 67  1  0  0  0  0
 34 73  2  0  0  0  0
 35 49  1  0  0  0  0
 35 70  1  0  0  0  0
 35 74  2  0  0  0  0
 36 59  1  0  0  0  0
 36 64  1  0  0  0  0
 36 75  2  0  0  0  0
 37 60  1  0  0  0  0
 37 71  1  0  0  0  0
 37 76  2  0  0  0  0
 38 65  1  0  0  0  0
 38 68  1  0  0  0  0
 38 77  2  0  0  0  0
 39 42  1  0  0  0  0
 40 49  1  0  0  0  0
 41 64  1  0  0  0  0
 42 44  1  0  0  0  0
 43 45  1  0  0  0  0
 43 46  1  0  0  0  0
 44 48  1  0  0  0  0
 45 50  1  0  0  0  0
 46 65  1  0  0  0  0
 47 50  1  0  0  0  0
 47 65  1  0  0  0  0
 48 70  1  0  0  0  0
 49 64  1  0  0  0  0
 50 63  1  0  0  0  0
 52 60  1  0  0  0  0
 53 61  1  0  0  0  0
 54 61  1  0  0  0  0
 55 61  1  0  0  0  0
 56 72  1  0  0  0  0
 57 58  1  0  0  0  0
 57 69  1  0  0  0  0
 58 79  1  0  0  0  0
 59 61  1  0  0  0  0
 59 71  1  0  0  0  0
 60 72  1  0  0  0  0
 62 63  1  0  0  0  0
M  CHG  1  72   1
M  ISO  4  38 100  58 101  68 100  79 101
M  END
> <Batch ID>
0025

> <Smiles>
CNC(C)C(=O)NC(C(=O)N1Cc2cc([101O:1][101CH2:1]CNc3cc(C)c([100NH:0][100C:0](=O)N4CCCC(n5nc(-c6ccc(Oc7ccc(F)cc7F)cc6)c(C(N)=O)c5N)C4)cc3Cl)ccc2CC1C(=O)NC1CCCc2ccccc21)C(C)(C)C

> <Shape>
0.271

> <Color>
0.109

> <Negative vol penalty>
0.000

$$$$

  -OEChem-04042321223D

 82 90  0     1  0  0  0  0  0999 V2000
  -35.9988  -31.1237   19.9403 C   0  0  0  0  0  0  0  0  0  0  0  0
  -36.0788  -29.9648   20.7058 C   0  0  0  0  0  0  0  0  0  0  0  0
  -23.0526   -9.9486   19.8687 C   0  0  0  0  0  0  0  0  0  0  0  0
  -23.9092   -9.7524   22.1192 C   0  0  0  0  0  0  0  0  0  0  0  0
  -34.7718  -31.7647   19.7741 C   0  0  0  0  0  0  0  0  0  0  0  0
  -34.9319  -29.4469   21.3065 C   0  0  0  0  0  0  0  0  0  0  0  0
  -33.5884  -23.5379   22.1925 C   0  0  0  0  0  0  0  0  0  0  0  0
  -32.7763  -17.2562   23.6193 C   0  0  0  0  0  0  0  0  0  0  0  0
  -32.1226  -16.4650   22.6747 C   0  0  0  0  0  0  0  0  0  0  0  0
  -22.3237   -8.7723   20.0436 C   0  0  0  0  0  0  0  0  0  0  0  0
  -23.1802   -8.5761   22.2942 C   0  0  0  0  0  0  0  0  0  0  0  0
  -33.7114  -22.7044   23.3033 C   0  0  0  0  0  0  0  0  0  0  0  0
  -19.9831   -7.7042   22.9565 C   0  0  0  0  0  0  0  0  0  0  0  0
  -19.2766   -7.5527   24.1496 C   0  0  0  0  0  0  0  0  0  0  0  0
  -31.4042  -23.1258   23.8674 C   0  0  0  0  0  0  0  0  0  0  0  0
  -30.6442  -18.0670   24.4155 C   0  0  0  0  0  0  0  0  0  0  0  0
  -20.5543   -5.5651   24.6537 C   0  0  0  0  0  0  0  0  0  0  0  0
  -23.8454  -10.4386   20.9065 C   0  0  0  0  0  0  0  0  0  0  0  0
  -24.1738  -12.9666   21.0028 C   0  0  0  0  0  0  0  0  0  0  0  0
  -33.6076  -31.2490   20.3651 C   0  0  0  0  0  0  0  0  0  0  0  0
  -32.3734  -24.1814   21.9165 C   0  0  0  0  0  0  0  0  0  0  0  0
  -33.6885  -30.0824   21.1492 C   0  0  0  0  0  0  0  0  0  0  0  0
  -31.2677  -23.9650   22.7511 C   0  0  0  0  0  0  0  0  0  0  0  0
  -32.0370  -18.0572   24.4898 C   0  0  0  0  0  0  0  0  0  0  0  0
  -30.7298  -16.4748   22.6004 C   0  0  0  0  0  0  0  0  0  0  0  0
  -22.3874   -8.0861   21.2563 C   0  0  0  0  0  0  0  0  0  0  0  0
  -32.6201  -22.5004   24.1426 C   0  0  0  0  0  0  0  0  0  0  0  0
  -20.9751   -6.7861   22.6119 C   0  0  0  0  0  0  0  0  0  0  0  0
  -19.5623   -6.4832   24.9983 C   0  0  0  0  0  0  0  0  0  0  0  0
  -21.2607   -5.7166   23.4605 C   0  0  0  0  0  0  0  0  0  0  0  0
  -29.9905  -17.2758   23.4708 C   0  0  0  0  0  0  0  0  0  0  0  0
  -24.5991  -11.6534   20.7263 C   0  0  0  0  0  0  0  0  0  0  0  0
  -25.2472  -13.7536   20.6638 C   0  0  0  0  0  0  0  0  0  0  0  0
  -22.9206  -13.4333   21.5199 C   0  0  0  0  0  0  0  0  0  0  0  0
  -31.4336  -27.2116   21.7216 C   0  0  0  0  0  0  0  0  0  0  0  0
  -28.6524  -25.8772   20.7184 C   0  0  0  0  0  0  0  0  0  0  0  0
  -26.5957  -23.1542   20.6742 C   0  0  0  0  0  0  0  0  0  0  0  0
  -30.7125  -14.8174   20.7033 C   0  0  0  0  0  0  0  0  0  0  0  0
  -32.3125  -32.0031   20.1961 C   0  0  0  0  0  0  0  0  0  0  0  0
  -32.2495  -25.0563   20.6993 C   0  0  0  0  0  0  0  0  0  0  0  0
  -29.9355  -24.6163   22.4873 C   0  0  0  0  0  0  0  0  0  0  0  0
  -31.0777  -31.1814   20.5570 C   0  0  0  0  0  0  0  0  0  0  0  0
  -29.5062  -12.6210   18.1739 C   0  0  0  0  0  0  0  0  0  0  0  0
  -31.2871  -30.4573   21.8832 C   0  0  0  0  0  0  0  0  0  0  0  0
  -28.0870  -12.2815   18.6352 C   0  0  0  0  0  0  0  0  0  0  0  0
  -30.4708  -12.7461   19.3519 C   0  0  0  0  0  0  0  0  0  0  0  0
  -28.6219  -13.3286   20.8722 C   0  0  0  0  0  0  0  0  0  0  0  0
  -32.4622  -29.4760   21.7963 C   0  0  1  0  0  0  0  0  0  0  0  0
  -31.1113  -26.0668   20.8033 C   0  0  1  0  0  0  0  0  0  0  0  0
  -27.6005  -13.2563   19.7254 C   0  0  2  0  0  0  0  0  0  0  0  0
  -24.3738  -22.3777   19.8040 C   0  0  0  0  0  0  0  0  0  0  0  0
  -27.2410  -27.4880   22.8917 C   0  0  0  0  0  0  0  0  0  0  0  0
  -25.2526  -25.9928   22.6111 C   0  0  0  0  0  0  0  0  0  0  0  0
  -26.0304  -27.4016   20.7051 C   0  0  0  0  0  0  0  0  0  0  0  0
  -34.1554  -18.8442   25.5162 C   0  0  0  0  0  0  0  0  0  0  0  0
  -27.8454  -21.0070   19.0659 C   0  0  0  0  0  0  0  0  0  0  0  0
  -31.9594  -19.7039   26.3452 C   0  0  0  0  0  0  0  0  0  0  0  0
  -31.5634  -20.9967   25.6518 C   0  0  0  0  0  0  0  0  0  1  0  0
  -27.3952  -25.3888   21.3966 C   0  0  1  0  0  0  0  0  0  0  0  0
  -25.8687  -22.4593   19.5371 C   0  0  2  0  0  0  0  0  0  0  0  0
  -26.5053  -26.5569   21.9075 C   0  0  0  0  0  0  0  0  0  0  0  0
  -25.8453  -11.6048   20.2483 N   0  0  0  0  0  0  0  0  0  0  0  0
  -26.2124  -12.8974   20.2217 N   0  0  0  0  0  0  0  0  0  0  0  0
  -29.8662  -25.4679   21.2883 N   0  0  0  0  0  0  0  0  0  0  0  0
  -29.9463  -13.6890   20.3422 N   0  0  0  0  0  0  0  0  0  0  0  0
  -25.4501  -15.0877   20.7036 N   0  0  0  0  0  0  0  0  0  0  0  0
  -21.9268  -12.4901   21.8152 N   0  0  0  0  0  0  0  0  0  0  0  0
  -30.0976  -15.6596   21.6290 N   0  0  0  0  0  0  0  0  0  0  0  0
  -32.0646  -28.2718   21.0991 N   0  0  0  0  0  0  0  0  0  0  0  0
  -26.7329  -24.5064   20.4420 N   0  0  0  0  0  0  0  0  0  0  0  0
  -32.6943  -18.8526   25.4379 N   0  0  3  0  0  0  0  0  0  0  0  0
  -26.3904  -21.0749   19.3580 N   0  3  0  0  0  0  0  0  0  0  0  0
  -22.6831  -14.6519   21.6990 O   0  0  0  0  0  0  0  0  0  0  0  0
  -31.1309  -27.1391   22.9068 O   0  0  0  0  0  0  0  0  0  0  0  0
  -28.5608  -26.5897   19.7155 O   0  0  0  0  0  0  0  0  0  0  0  0
  -26.9981  -22.5578   21.6706 O   0  0  0  0  0  0  0  0  0  0  0  0
  -31.8202  -15.0358   20.2060 O   0  0  0  0  0  0  0  0  0  0  0  0
  -21.6761   -6.9384   21.4274 O   0  0  0  0  0  0  0  0  0  0  0  0
  -32.7376  -21.6878   25.2278 O   0  0  0  0  0  0  0  0  0  1  0  0
  -18.8849   -6.3387   26.1448 F   0  0  0  0  0  0  0  0  0  0  0  0
  -22.2135   -4.8321   23.1354 F   0  0  0  0  0  0  0  0  0  0  0  0
  -28.2642  -17.3183   23.4126 Cl  0  0  0  0  0  0  0  0  0  0  0  0
  1  2  1  0  0  0  0
  1  5  2  0  0  0  0
  2  6  2  0  0  0  0
  3 10  2  0  0  0  0
  3 18  1  0  0  0  0
  4 11  1  0  0  0  0
  4 18  2  0  0  0  0
  5 20  1  0  0  0  0
  6 22  1  0  0  0  0
  7 12  2  0  0  0  0
  7 21  1  0  0  0  0
  8  9  2  0  0  0  0
  8 24  1  0  0  0  0
  9 25  1  0  0  0  0
 10 26  1  0  0  0  0
 11 26  2  0  0  0  0
 12 27  1  0  0  0  0
 13 14  2  0  0  0  0
 13 28  1  0  0  0  0
 14 29  1  0  0  0  0
 15 23  1  0  0  0  0
 15 27  2  0  0  0  0
 16 24  2  0  0  0  0
 16 31  1  0  0  0  0
 17 29  2  0  0  0  0
 17 30  1  0  0  0  0
 18 32  1  0  0  0  0
 19 32  1  0  0  0  0
 19 33  2  0  0  0  0
 19 34  1  0  0  0  0
 20 22  2  0  0  0  0
 20 39  1  0  0  0  0
 21 23  2  0  0  0  0
 21 40  1  0  0  0  0
 22 48  1  0  0  0  0
 23 41  1  0  0  0  0
 24 71  1  0  0  0  0
 25 31  2  0  0  0  0
 25 68  1  0  0  0  0
 26 78  1  0  0  0  0
 27 79  1  0  0  0  0
 28 30  2  0  0  0  0
 28 78  1  0  0  0  0
 29 80  1  0  0  0  0
 30 81  1  0  0  0  0
 31 82  1  0  0  0  0
 32 62  2  0  0  0  0
 33 63  1  0  0  0  0
 33 66  1  0  0  0  0
 34 67  1  0  0  0  0
 34 73  2  0  0  0  0
 35 49  1  0  0  0  0
 35 69  1  0  0  0  0
 35 74  2  0  0  0  0
 36 59  1  0  0  0  0
 36 64  1  0  0  0  0
 36 75  2  0  0  0  0
 37 60  1  0  0  0  0
 37 70  1  0  0  0  0
 37 76  2  0  0  0  0
 38 65  1  0  0  0  0
 38 68  1  0  0  0  0
 38 77  2  0  0  0  0
 39 42  1  0  0  0  0
 40 49  1  0  0  0  0
 41 64  1  0  0  0  0
 42 44  1  0  0  0  0
 43 45  1  0  0  0  0
 43 46  1  0  0  0  0
 44 48  1  0  0  0  0
 45 50  1  0  0  0  0
 46 65  1  0  0  0  0
 47 50  1  0  0  0  0
 47 65  1  0  0  0  0
 48 69  1  0  0  0  0
 49 64  1  0  0  0  0
 50 63  1  0  0  0  0
 51 60  1  0  0  0  0
 52 61  1  0  0  0  0
 53 61  1  0  0  0  0
 54 61  1  0  0  0  0
 55 71  1  0  0  0  0
 56 72  1  0  0  0  0
 57 58  1  0  0  0  0
 57 71  1  0  0  0  0
 58 79  1  0  0  0  0
 59 61  1  0  0  0  0
 59 70  1  0  0  0  0
 60 72  1  0  0  0  0
 62 63  1  0  0  0  0
M  CHG  1  72   1
M  ISO  4  38 100  58 101  68 100  79 101
M  END
> <Batch ID>
0025

> <Smiles>
CNC(C)C(=O)NC(C(=O)N1Cc2cc([101O:1][101CH2:1]CN(C)c3ccc([100NH:0][100C:0](=O)N4CCCC(n5nc(-c6ccc(Oc7ccc(F)cc7F)cc6)c(C(N)=O)c5N)C4)c(Cl)c3)ccc2CC1C(=O)NC1CCCc2ccccc21)C(C)(C)C

> <Shape>
0.213

> <Color>
0.214

> <Negative vol penalty>
0.000

$$$$

  -OEChem-04042321223D

 83 92  0     1  0  0  0  0  0999 V2000
  -27.1324  -39.0032   23.7608 C   0  0  0  0  0  0  0  0  0  0  0  0
  -28.0124  -37.9436   23.5650 C   0  0  0  0  0  0  0  0  0  0  0  0
  -24.4979   -9.3812   21.1775 C   0  0  0  0  0  0  0  0  0  0  0  0
  -24.9433  -10.2987   23.3677 C   0  0  0  0  0  0  0  0  0  0  0  0
  -25.9460  -38.8015   24.4649 C   0  0  0  0  0  0  0  0  0  0  0  0
  -27.7070  -36.6819   24.0741 C   0  0  0  0  0  0  0  0  0  0  0  0
  -28.5650  -29.7192   22.6247 C   0  0  0  0  0  0  0  0  0  0  0  0
  -30.1794  -20.7185   22.2751 C   0  0  0  0  0  0  0  0  0  0  0  0
  -30.0291  -19.4690   21.6737 C   0  0  0  0  0  0  0  0  0  0  0  0
  -24.2095   -8.1444   21.7543 C   0  0  0  0  0  0  0  0  0  0  0  0
  -24.6548   -9.0619   23.9445 C   0  0  0  0  0  0  0  0  0  0  0  0
  -29.0247  -28.5442   23.2179 C   0  0  0  0  0  0  0  0  0  0  0  0
  -21.6226   -6.6970   23.3809 C   0  0  0  0  0  0  0  0  0  0  0  0
  -20.4873   -6.0218   22.9329 C   0  0  0  0  0  0  0  0  0  0  0  0
  -26.9091  -28.2951   24.3498 C   0  0  0  0  0  0  0  0  0  0  0  0
  -27.7915  -20.8390   22.6219 C   0  0  0  0  0  0  0  0  0  0  0  0
  -21.8670   -4.1660   22.2332 C   0  0  0  0  0  0  0  0  0  0  0  0
  -24.8648  -10.4584   21.9842 C   0  0  0  0  0  0  0  0  0  0  0  0
  -24.2614  -12.7862   21.1327 C   0  0  0  0  0  0  0  0  0  0  0  0
  -25.6213  -37.5345   24.9746 C   0  0  0  0  0  0  0  0  0  0  0  0
  -27.2756  -30.1975   22.8986 C   0  0  0  0  0  0  0  0  0  0  0  0
  -26.5157  -36.4634   24.7869 C   0  0  0  0  0  0  0  0  0  0  0  0
  -26.4345  -29.4750   23.7568 C   0  0  0  0  0  0  0  0  0  0  0  0
  -29.0607  -21.4035   22.7493 C   0  0  0  0  0  0  0  0  0  0  0  0
  -28.7599  -18.9045   21.5463 C   0  0  0  0  0  0  0  0  0  0  0  0
  -24.2879   -7.9847   23.1377 C   0  0  0  0  0  0  0  0  0  0  0  0
  -28.1978  -27.8335   24.0828 C   0  0  0  0  0  0  0  0  0  0  0  0
  -22.8802   -6.1067   23.2550 C   0  0  0  0  0  0  0  0  0  0  0  0
  -20.6095   -4.7563   22.3591 C   0  0  0  0  0  0  0  0  0  0  0  0
  -23.0024   -4.8412   22.6812 C   0  0  0  0  0  0  0  0  0  0  0  0
  -27.6411  -19.5895   22.0204 C   0  0  0  0  0  0  0  0  0  0  0  0
  -25.1634  -11.7362   21.3890 C   0  0  0  0  0  0  0  0  0  0  0  0
  -25.0328  -13.7704   20.5645 C   0  0  0  0  0  0  0  0  0  0  0  0
  -22.8524  -12.8649   21.3858 C   0  0  0  0  0  0  0  0  0  0  0  0
  -26.0959  -32.8362   24.2212 C   0  0  0  0  0  0  0  0  0  0  0  0
  -23.2581  -31.5576   23.3079 C   0  0  0  0  0  0  0  0  0  0  0  0
  -21.4633  -28.7708   22.4962 C   0  0  0  0  0  0  0  0  0  0  0  0
  -29.6717  -16.8463   20.4154 C   0  0  0  0  0  0  0  0  0  0  0  0
  -24.3497  -37.3760   25.7700 C   0  0  0  0  0  0  0  0  0  0  0  0
  -26.7851  -31.4524   22.2298 C   0  0  0  0  0  0  0  0  0  0  0  0
  -25.0345  -29.9352   24.0678 C   0  0  0  0  0  0  0  0  0  0  0  0
  -23.9235  -35.9218   25.9537 C   0  0  0  0  0  0  0  0  0  0  0  0
  -29.7959  -13.6480   18.8558 C   0  0  0  0  0  0  0  0  0  0  0  0
  -25.1134  -35.0661   26.3764 C   0  0  0  0  0  0  0  0  0  0  0  0
  -28.5275  -12.9518   19.3548 C   0  0  0  0  0  0  0  0  0  0  0  0
  -30.4232  -14.5266   19.9367 C   0  0  0  0  0  0  0  0  0  0  0  0
  -30.3659  -23.4548   23.6069 C   0  0  0  0  0  0  0  0  0  0  0  0
  -28.2771  -23.6983   23.6251 C   0  0  0  0  0  0  0  0  0  0  0  0
  -28.2435  -14.8037   21.0508 C   0  0  0  0  0  0  0  0  0  0  0  0
  -26.2080  -35.0743   25.3025 C   0  0  1  0  0  0  0  0  0  0  0  0
  -25.6383  -32.1210   22.9816 C   0  0  1  0  0  0  0  0  0  0  0  0
  -29.4303  -24.4578   24.3063 C   0  0  0  0  0  0  0  0  0  0  0  0
  -27.5398  -13.9584   19.9767 C   0  0  2  0  0  0  0  0  0  0  0  0
  -19.1574  -28.0372   21.8311 C   0  0  0  0  0  0  0  0  0  0  0  0
  -22.3241  -31.8852   26.1941 C   0  0  0  0  0  0  0  0  0  0  0  0
  -20.4449  -30.3089   25.6916 C   0  0  0  0  0  0  0  0  0  0  0  0
  -20.6120  -32.4775   24.4700 C   0  0  0  0  0  0  0  0  0  0  0  0
  -22.4230  -27.7055   19.9071 C   0  0  0  0  0  0  0  0  0  0  0  0
  -29.5970  -25.9164   23.9321 C   0  0  0  0  0  0  0  0  0  1  0  0
  -22.2516  -30.6272   23.9407 C   0  0  1  0  0  0  0  0  0  0  0  0
  -20.5269  -28.4777   21.3378 C   0  0  2  0  0  0  0  0  0  0  0  0
  -21.4352  -31.3168   25.0700 C   0  0  0  0  0  0  0  0  0  0  0  0
  -26.4122  -12.0261   21.0141 N   0  0  0  0  0  0  0  0  0  0  0  0
  -26.3004  -13.2694   20.5165 N   0  0  0  0  0  0  0  0  0  0  0  0
  -29.2123  -22.6596   23.3526 N   0  0  0  0  0  0  0  0  0  0  0  0
  -24.6031  -31.1712   23.3942 N   0  0  0  0  0  0  0  0  0  0  0  0
  -29.4299  -15.4576   20.4767 N   0  0  0  0  0  0  0  0  0  0  0  0
  -24.7435  -15.0068   20.1062 N   0  0  0  0  0  0  0  0  0  0  0  0
  -22.2169  -11.7636   21.9755 N   0  0  0  0  0  0  0  0  0  0  0  0
  -28.6425  -17.6340   20.9301 N   0  0  0  0  0  0  0  0  0  0  0  0
  -25.8502  -34.1960   24.2093 N   0  0  0  0  0  0  0  0  0  0  0  0
  -21.4374  -30.1034   22.8493 N   0  0  0  0  0  0  0  0  0  0  0  0
  -21.0875  -27.3962   20.4794 N   0  3  0  0  0  0  0  0  0  0  0  0
  -22.1738  -13.8754   21.0825 O   0  0  0  0  0  0  0  0  0  0  0  0
  -26.6308  -32.2012   25.1225 O   0  0  0  0  0  0  0  0  0  0  0  0
  -22.8647  -32.5857   22.7512 O   0  0  0  0  0  0  0  0  0  0  0  0
  -22.1463  -27.9035   23.0363 O   0  0  0  0  0  0  0  0  0  0  0  0
  -30.7030  -17.3041   19.9166 O   0  0  0  0  0  0  0  0  0  0  0  0
  -24.0063   -6.7780   23.7009 O   0  0  0  0  0  0  0  0  0  0  0  0
  -28.6442  -26.6867   24.6637 O   0  0  0  0  0  0  0  0  0  1  0  0
  -19.5189   -4.1073   21.9304 F   0  0  0  0  0  0  0  0  0  0  0  0
  -24.2077   -4.2686   22.5586 F   0  0  0  0  0  0  0  0  0  0  0  0
  -26.0513  -18.9270   21.8824 Cl  0  0  0  0  0  0  0  0  0  0  0  0
  1  2  1  0  0  0  0
  1  5  2  0  0  0  0
  2  6  2  0  0  0  0
  3 10  2  0  0  0  0
  3 18  1  0  0  0  0
  4 11  1  0  0  0  0
  4 18  2  0  0  0  0
  5 20  1  0  0  0  0
  6 22  1  0  0  0  0
  7 12  2  0  0  0  0
  7 21  1  0  0  0  0
  8  9  2  0  0  0  0
  8 24  1  0  0  0  0
  9 25  1  0  0  0  0
 10 26  1  0  0  0  0
 11 26  2  0  0  0  0
 12 27  1  0  0  0  0
 13 14  2  0  0  0  0
 13 28  1  0  0  0  0
 14 29  1  0  0  0  0
 15 23  1  0  0  0  0
 15 27  2  0  0  0  0
 16 24  2  0  0  0  0
 16 31  1  0  0  0  0
 17 29  2  0  0  0  0
 17 30  1  0  0  0  0
 18 32  1  0  0  0  0
 19 32  1  0  0  0  0
 19 33  2  0  0  0  0
 19 34  1  0  0  0  0
 20 22  2  0  0  0  0
 20 39  1  0  0  0  0
 21 23  2  0  0  0  0
 21 40  1  0  0  0  0
 22 50  1  0  0  0  0
 23 41  1  0  0  0  0
 24 65  1  0  0  0  0
 25 31  2  0  0  0  0
 25 70  1  0  0  0  0
 26 79  1  0  0  0  0
 27 80  1  0  0  0  0
 28 30  2  0  0  0  0
 28 79  1  0  0  0  0
 29 81  1  0  0  0  0
 30 82  1  0  0  0  0
 31 83  1  0  0  0  0
 32 63  2  0  0  0  0
 33 64  1  0  0  0  0
 33 68  1  0  0  0  0
 34 69  1  0  0  0  0
 34 74  2  0  0  0  0
 35 51  1  0  0  0  0
 35 71  1  0  0  0  0
 35 75  2  0  0  0  0
 36 60  1  0  0  0  0
 36 66  1  0  0  0  0
 36 76  2  0  0  0  0
 37 61  1  0  0  0  0
 37 72  1  0  0  0  0
 37 77  2  0  0  0  0
 38 67  1  0  0  0  0
 38 70  1  0  0  0  0
 38 78  2  0  0  0  0
 39 42  1  0  0  0  0
 40 51  1  0  0  0  0
 41 66  1  0  0  0  0
 42 44  1  0  0  0  0
 43 45  1  0  0  0  0
 43 46  1  0  0  0  0
 44 50  1  0  0  0  0
 45 53  1  0  0  0  0
 46 67  1  0  0  0  0
 47 52  1  0  0  0  0
 47 65  1  0  0  0  0
 48 52  1  0  0  0  0
 48 65  1  0  0  0  0
 49 53  1  0  0  0  0
 49 67  1  0  0  0  0
 50 71  1  0  0  0  0
 51 66  1  0  0  0  0
 52 59  1  0  0  0  0
 53 64  1  0  0  0  0
 54 61  1  0  0  0  0
 55 62  1  0  0  0  0
 56 62  1  0  0  0  0
 57 62  1  0  0  0  0
 58 73  1  0  0  0  0
 59 80  1  0  0  0  0
 60 62  1  0  0  0  0
 60 72  1  0  0  0  0
 61 73  1  0  0  0  0
 63 64  1  0  0  0  0
M  CHG  1  73   1
M  ISO  4  38 100  59 101  70 100  80 101
M  END
> <Batch ID>
0025

> <Smiles>
CNC(C)C(=O)NC(C(=O)N1Cc2cc([101O:1][101CH2:1]C3CN(c4ccc([100NH:0][100C:0](=O)N5CCCC(n6nc(-c7ccc(Oc8ccc(F)cc8F)cc7)c(C(N)=O)c6N)C5)c(Cl)c4)C3)ccc2CC1C(=O)NC1CCCc2ccccc21)C(C)(C)C

> <Shape>
0.298

> <Color>
0.131

> <Negative vol penalty>
0.000

$$$$

  -OEChem-04042321223D

 86 95  0     1  0  0  0  0  0999 V2000
  -25.1808  -22.0329   24.9249 C   0  0  0  0  0  0  0  0  0  0  0  0
  -34.4522   -9.3088   22.8194 C   0  0  0  0  0  0  0  0  0  0  0  0
  -34.6614  -10.6698   23.0177 C   0  0  0  0  0  0  0  0  0  0  0  0
  -24.0053  -29.9166   19.8461 C   0  0  0  0  0  0  0  0  0  0  0  0
  -25.3429  -28.9816   21.6277 C   0  0  0  0  0  0  0  0  0  0  0  0
  -33.5906   -8.8766   21.8121 C   0  0  0  0  0  0  0  0  0  0  0  0
  -34.0099  -11.5994   22.2079 C   0  0  0  0  0  0  0  0  0  0  0  0
  -31.1989  -18.1851   22.4164 C   0  0  0  0  0  0  0  0  0  0  0  0
  -27.9451  -23.1687   22.0038 C   0  0  0  0  0  0  0  0  0  0  0  0
  -26.9578  -22.9911   22.9729 C   0  0  0  0  0  0  0  0  0  0  0  0
  -24.1845  -31.1922   20.3811 C   0  0  0  0  0  0  0  0  0  0  0  0
  -25.5221  -30.2573   22.1626 C   0  0  0  0  0  0  0  0  0  0  0  0
  -31.2546  -19.4020   21.7382 C   0  0  0  0  0  0  0  0  0  0  0  0
  -23.7502  -32.4452   24.0347 C   0  0  0  0  0  0  0  0  0  0  0  0
  -23.5966  -32.5975   25.4126 C   0  0  0  0  0  0  0  0  0  0  0  0
  -29.7276  -18.5413   20.0809 C   0  0  0  0  0  0  0  0  0  0  0  0
  -25.5376  -21.9299   21.3316 C   0  0  0  0  0  0  0  0  0  0  0  0
  -25.8775  -33.3764   25.5807 C   0  0  0  0  0  0  0  0  0  0  0  0
  -24.5845  -28.8112   20.4695 C   0  0  0  0  0  0  0  0  0  0  0  0
  -24.7788  -27.0464   18.6378 C   0  0  0  0  0  0  0  0  0  0  0  0
  -32.9207   -9.8016   20.9958 C   0  0  0  0  0  0  0  0  0  0  0  0
  -30.4143  -17.1318   21.9252 C   0  0  0  0  0  0  0  0  0  0  0  0
  -33.1395  -11.1792   21.1878 C   0  0  0  0  0  0  0  0  0  0  0  0
  -29.6616  -17.3130   20.7561 C   0  0  0  0  0  0  0  0  0  0  0  0
  -27.7287  -22.7269   20.6985 C   0  0  0  0  0  0  0  0  0  0  0  0
  -25.7541  -22.3717   22.6368 C   0  0  0  0  0  0  0  0  0  0  0  0
  -24.9428  -31.3626   21.5393 C   0  0  0  0  0  0  0  0  0  0  0  0
  -30.5212  -19.5793   20.5687 C   0  0  0  0  0  0  0  0  0  0  0  0
  -24.9674  -32.7584   23.4297 C   0  0  0  0  0  0  0  0  0  0  0  0
  -24.6603  -33.0631   26.1856 C   0  0  0  0  0  0  0  0  0  0  0  0
  -26.5250  -22.1075   20.3624 C   0  0  0  0  0  0  0  0  0  0  0  0
  -26.0310  -33.2240   24.2027 C   0  0  0  0  0  0  0  0  0  0  0  0
  -24.3993  -27.4932   19.9177 C   0  0  0  0  0  0  0  0  0  0  0  0
  -24.3855  -25.7309   18.6027 C   0  0  0  0  0  0  0  0  0  0  0  0
  -25.4288  -27.7569   17.5755 C   0  0  0  0  0  0  0  0  0  0  0  0
  -31.0075  -14.1830   20.8973 C   0  0  0  0  0  0  0  0  0  0  0  0
  -27.7714  -13.9882   20.7891 C   0  0  0  0  0  0  0  0  0  0  0  0
  -24.7777  -15.6092   20.5499 C   0  0  0  0  0  0  0  0  0  0  0  0
  -23.3861  -21.9200   23.2906 C   0  0  0  0  0  0  0  0  0  0  0  0
  -32.0355   -9.2856   19.8891 C   0  0  0  0  0  0  0  0  0  0  0  0
  -30.3439  -15.8344   22.6830 C   0  0  0  0  0  0  0  0  0  0  0  0
  -28.7879  -16.2204   20.1981 C   0  0  0  0  0  0  0  0  0  0  0  0
  -31.0944  -10.3435   19.3185 C   0  0  0  0  0  0  0  0  0  0  0  0
  -21.1678  -22.7088   20.4354 C   0  0  0  0  0  0  0  0  0  0  0  0
  -29.5755  -23.8585   17.7779 C   0  0  0  0  0  0  0  0  0  0  0  0
  -31.8499  -11.6412   19.0502 C   0  0  0  0  0  0  0  0  0  0  0  0
  -21.7309  -24.0339   19.9248 C   0  0  0  0  0  0  0  0  0  0  0  0
  -30.7378  -23.3319   18.6007 C   0  0  0  0  0  0  0  0  0  0  0  0
  -28.3829  -23.0848   18.3267 C   0  0  0  0  0  0  0  0  0  0  0  0
  -21.4133  -22.5274   21.9303 C   0  0  0  0  0  0  0  0  0  0  0  0
  -23.4146  -23.9822   21.8070 C   0  0  0  0  0  0  0  0  0  0  0  0
  -32.4319  -12.2188   20.3461 C   0  0  1  0  0  0  0  0  0  0  0  0
  -29.9146  -14.6569   21.8132 C   0  0  1  0  0  0  0  0  0  0  0  0
  -23.2169  -24.1710   20.2956 C   0  0  2  0  0  0  0  0  0  0  0  0
  -30.1365  -23.1278   20.0022 C   0  0  2  0  0  0  0  0  0  0  0  0
  -22.3074  -15.1795   20.4495 C   0  0  0  0  0  0  0  0  0  0  0  0
  -28.0472  -13.0947   17.8847 C   0  0  0  0  0  0  0  0  0  0  0  0
  -25.6149  -13.5987   17.5716 C   0  0  0  0  0  0  0  0  0  0  0  0
  -26.3244  -11.8478   19.2006 C   0  0  0  0  0  0  0  0  0  0  0  0
  -24.2923  -17.1445   23.0331 C   0  0  0  0  0  0  0  0  0  0  0  0
  -30.8024  -21.9379   20.6857 C   0  0  0  0  0  0  0  0  0  1  0  0
  -26.7167  -14.2842   19.7504 C   0  0  1  0  0  0  0  0  0  0  0  0
  -23.4949  -15.4791   21.3511 C   0  0  2  0  0  0  0  0  0  0  0  0
  -26.6937  -13.2265   18.6110 C   0  0  0  0  0  0  0  0  0  0  0  0
  -25.5492  -21.8967   26.0173 N   0  0  0  0  0  0  0  0  0  0  0  0
  -23.8101  -26.5390   20.6432 N   0  0  0  0  0  0  0  0  0  0  0  0
  -23.8162  -25.4795   19.8164 N   0  0  0  0  0  0  0  0  0  0  0  0
  -28.7073  -22.9055   19.7411 N   0  0  3  0  0  0  0  0  0  0  0  0
  -28.7574  -14.9681   20.9717 N   0  0  0  0  0  0  0  0  0  0  0  0
  -22.8228  -22.7183   22.2752 N   0  0  0  0  0  0  0  0  0  0  0  0
  -24.4745  -24.7762   17.6524 N   0  0  0  0  0  0  0  0  0  0  0  0
  -26.8294  -27.7479   17.5247 N   0  0  0  0  0  0  0  0  0  0  0  0
  -31.3973  -12.8755   21.1161 N   0  0  0  0  0  0  0  0  0  0  0  0
  -25.4559  -14.4111   20.4734 N   0  0  0  0  0  0  0  0  0  0  0  0
  -24.7285  -22.1872   23.6438 N   0  0  0  0  0  0  0  0  0  0  0  0
  -23.2161  -16.7421   22.0914 N   0  3  0  0  0  0  0  0  0  0  0  0
  -24.7870  -28.3950   16.7069 O   0  0  0  0  0  0  0  0  0  0  0  0
  -31.4623  -14.9466   20.0537 O   0  0  0  0  0  0  0  0  0  0  0  0
  -27.7181  -12.9298   21.4205 O   0  0  0  0  0  0  0  0  0  0  0  0
  -25.1399  -16.6670   20.0395 O   0  0  0  0  0  0  0  0  0  0  0  0
  -22.7260  -21.0660   23.8962 O   0  0  0  0  0  0  0  0  0  0  0  0
  -25.1180  -32.6073   22.0614 O   0  0  0  0  0  0  0  0  0  0  0  0
  -30.5744  -20.7658   19.9044 O   0  0  0  0  0  0  0  0  0  1  0  0
  -24.5122  -33.2109   27.5087 F   0  0  0  0  0  0  0  0  0  0  0  0
  -26.3063  -21.6806   19.1106 F   0  0  0  0  0  0  0  0  0  0  0  0
  -27.2025  -33.5276   23.6270 F   0  0  0  0  0  0  0  0  0  0  0  0
  1 65  3  0  0  0  0
  1 75  1  0  0  0  0
  2  3  1  0  0  0  0
  2  6  2  0  0  0  0
  3  7  2  0  0  0  0
  4 11  2  0  0  0  0
  4 19  1  0  0  0  0
  5 12  1  0  0  0  0
  5 19  2  0  0  0  0
  6 21  1  0  0  0  0
  7 23  1  0  0  0  0
  8 13  2  0  0  0  0
  8 22  1  0  0  0  0
  9 10  2  0  0  0  0
  9 25  1  0  0  0  0
 10 26  1  0  0  0  0
 11 27  1  0  0  0  0
 12 27  2  0  0  0  0
 13 28  1  0  0  0  0
 14 15  2  0  0  0  0
 14 29  1  0  0  0  0
 15 30  1  0  0  0  0
 16 24  1  0  0  0  0
 16 28  2  0  0  0  0
 17 26  2  0  0  0  0
 17 31  1  0  0  0  0
 18 30  2  0  0  0  0
 18 32  1  0  0  0  0
 19 33  1  0  0  0  0
 20 33  1  0  0  0  0
 20 34  2  0  0  0  0
 20 35  1  0  0  0  0
 21 23  2  0  0  0  0
 21 40  1  0  0  0  0
 22 24  2  0  0  0  0
 22 41  1  0  0  0  0
 23 52  1  0  0  0  0
 24 42  1  0  0  0  0
 25 31  2  0  0  0  0
 25 68  1  0  0  0  0
 26 75  1  0  0  0  0
 27 82  1  0  0  0  0
 28 83  1  0  0  0  0
 29 32  2  0  0  0  0
 29 82  1  0  0  0  0
 30 84  1  0  0  0  0
 31 85  1  0  0  0  0
 32 86  1  0  0  0  0
 33 66  2  0  0  0  0
 34 67  1  0  0  0  0
 34 71  1  0  0  0  0
 35 72  1  0  0  0  0
 35 77  2  0  0  0  0
 36 53  1  0  0  0  0
 36 73  1  0  0  0  0
 36 78  2  0  0  0  0
 37 62  1  0  0  0  0
 37 69  1  0  0  0  0
 37 79  2  0  0  0  0
 38 63  1  0  0  0  0
 38 74  1  0  0  0  0
 38 80  2  0  0  0  0
 39 70  1  0  0  0  0
 39 75  1  0  0  0  0
 39 81  2  0  0  0  0
 40 43  1  0  0  0  0
 41 53  1  0  0  0  0
 42 69  1  0  0  0  0
 43 46  1  0  0  0  0
 44 47  1  0  0  0  0
 44 50  1  0  0  0  0
 45 48  1  0  0  0  0
 45 49  1  0  0  0  0
 46 52  1  0  0  0  0
 47 54  1  0  0  0  0
 48 55  1  0  0  0  0
 49 68  1  0  0  0  0
 50 70  1  0  0  0  0
 51 54  1  0  0  0  0
 51 70  1  0  0  0  0
 52 73  1  0  0  0  0
 53 69  1  0  0  0  0
 54 67  1  0  0  0  0
 55 61  1  0  0  0  0
 55 68  1  0  0  0  0
 56 63  1  0  0  0  0
 57 64  1  0  0  0  0
 58 64  1  0  0  0  0
 59 64  1  0  0  0  0
 60 76  1  0  0  0  0
 61 83  1  0  0  0  0
 62 64  1  0  0  0  0
 62 74  1  0  0  0  0
 63 76  1  0  0  0  0
 66 67  1  0  0  0  0
M  CHG  1  76   1
M  ISO  4  39 100  61 101  75 100  83 101
M  END
> <Batch ID>
0025

> <Smiles>
CNC(C)C(=O)NC(C(=O)N1Cc2cc([101O:1][101CH2:1]C3CCCN3c3ccc([100N:0](C#N)[100C:0](=O)N4CCCC(n5nc(-c6ccc(Oc7ccc(F)cc7F)cc6)c(C(N)=O)c5N)C4)cc3F)ccc2CC1C(=O)NC1CCCc2ccccc21)C(C)(C)C

> <Shape>
0.231

> <Color>
0.051

> <Negative vol penalty>
0.000

$$$$

  -OEChem-04042321223D

 90 99  0     1  0  0  0  0  0999 V2000
  -33.6302  -24.5500   13.1641 C   0  0  0  0  0  0  0  0  0  0  0  0
  -33.0287  -23.8144   14.1802 C   0  0  0  0  0  0  0  0  0  0  0  0
  -23.1215   -9.8524   19.9467 C   0  0  0  0  0  0  0  0  0  0  0  0
  -23.6077   -9.9981   22.3088 C   0  0  0  0  0  0  0  0  0  0  0  0
  -34.2941  -25.7386   13.4648 C   0  0  0  0  0  0  0  0  0  0  0  0
  -33.0917  -24.2665   15.4978 C   0  0  0  0  0  0  0  0  0  0  0  0
  -28.6382  -23.9239   17.8842 C   0  0  0  0  0  0  0  0  0  0  0  0
  -22.3440   -8.7175   20.1767 C   0  0  0  0  0  0  0  0  0  0  0  0
  -22.8301   -8.8631   22.5389 C   0  0  0  0  0  0  0  0  0  0  0  0
  -28.2567  -22.6637   18.3424 C   0  0  0  0  0  0  0  0  0  0  0  0
  -23.1568   -5.5131   22.2209 C   0  0  0  0  0  0  0  0  0  0  0  0
  -23.6756   -4.5327   23.0666 C   0  0  0  0  0  0  0  0  0  0  0  0
  -28.9827  -23.2586   20.5646 C   0  0  0  0  0  0  0  0  0  0  0  0
  -25.9317  -16.0758   16.7740 C   0  0  0  0  0  0  0  0  0  0  0  0
  -26.7973  -14.1145   15.6601 C   0  0  0  0  0  0  0  0  0  0  0  0
  -28.1798  -15.3192   17.2330 C   0  0  0  0  0  0  0  0  0  0  0  0
  -21.7875   -4.8117   24.5481 C   0  0  0  0  0  0  0  0  0  0  0  0
  -23.7534  -10.4927   21.0128 C   0  0  0  0  0  0  0  0  0  0  0  0
  -24.1278  -13.0055   20.7817 C   0  0  0  0  0  0  0  0  0  0  0  0
  -34.3569  -26.2104   14.7854 C   0  0  0  0  0  0  0  0  0  0  0  0
  -29.2059  -24.8587   18.7619 C   0  0  0  0  0  0  0  0  0  0  0  0
  -33.7582  -25.4618   15.8166 C   0  0  0  0  0  0  0  0  0  0  0  0
  -29.3683  -24.5309   20.1156 C   0  0  0  0  0  0  0  0  0  0  0  0
  -25.7594  -15.0205   15.8784 C   0  0  0  0  0  0  0  0  0  0  0  0
  -27.1420  -16.2252   17.4513 C   0  0  0  0  0  0  0  0  0  0  0  0
  -28.0075  -14.2638   16.3374 C   0  0  0  0  0  0  0  0  0  0  0  0
  -22.1983   -8.2228   21.4728 C   0  0  0  0  0  0  0  0  0  0  0  0
  -28.4316  -22.3298   19.6822 C   0  0  0  0  0  0  0  0  0  0  0  0
  -21.9535   -6.1429   22.5387 C   0  0  0  0  0  0  0  0  0  0  0  0
  -22.9909   -4.1820   24.2302 C   0  0  0  0  0  0  0  0  0  0  0  0
  -21.2688   -5.7922   23.7023 C   0  0  0  0  0  0  0  0  0  0  0  0
  -24.5572  -11.6648   20.7758 C   0  0  0  0  0  0  0  0  0  0  0  0
  -25.2612  -13.7302   20.5046 C   0  0  0  0  0  0  0  0  0  0  0  0
  -22.8213  -13.5473   21.0167 C   0  0  0  0  0  0  0  0  0  0  0  0
  -32.0089  -26.3459   18.9489 C   0  0  0  0  0  0  0  0  0  0  0  0
  -30.5613  -27.9395   21.3753 C   0  0  0  0  0  0  0  0  0  0  0  0
  -28.1266  -27.9846   23.7664 C   0  0  0  0  0  0  0  0  0  0  0  0
  -30.0354  -12.9949   17.0916 C   0  0  0  0  0  0  0  0  0  0  0  0
  -35.1264  -27.4764   15.0681 C   0  0  0  0  0  0  0  0  0  0  0  0
  -29.5876  -26.2233   18.2575 C   0  0  0  0  0  0  0  0  0  0  0  0
  -29.9543  -25.5058   21.1028 C   0  0  0  0  0  0  0  0  0  0  0  0
  -34.8258  -28.0788   16.4381 C   0  0  0  0  0  0  0  0  0  0  0  0
  -30.1182  -12.9086   20.7900 C   0  0  0  0  0  0  0  0  0  0  0  0
  -24.2914  -17.0950   12.2191 C   0  0  0  0  0  0  0  0  0  0  0  0
  -22.9338  -16.4339   12.3479 C   0  0  0  0  0  0  0  0  0  0  0  0
  -34.8548  -26.9983   17.5144 C   0  0  0  0  0  0  0  0  0  0  0  0
  -28.6637  -12.6182   21.1553 C   0  0  0  0  0  0  0  0  0  0  0  0
  -30.4879  -12.3251   19.4297 C   0  0  0  0  0  0  0  0  0  0  0  0
  -28.1276  -12.4802   18.6905 C   0  0  0  0  0  0  0  0  0  0  0  0
  -24.9730  -16.7032   13.5125 C   0  0  0  0  0  0  0  0  0  0  0  0
  -23.2416  -15.0734   12.9482 C   0  0  0  0  0  0  0  0  0  0  0  0
  -33.7836  -25.9321   17.2548 C   0  0  1  0  0  0  0  0  0  0  0  0
  -30.6299  -26.9136   19.1320 C   0  0  1  0  0  0  0  0  0  0  0  0
  -27.7190  -13.0924   20.0387 C   0  0  1  0  0  0  0  0  0  0  0  0
  -30.1137  -13.9496   13.9640 C   0  0  0  0  0  0  0  0  0  0  0  0
  -27.2148  -29.4059   25.6226 C   0  0  0  0  0  0  0  0  0  0  0  0
  -32.9251  -27.1518   23.1364 C   0  0  0  0  0  0  0  0  0  0  0  0
  -31.5441  -27.7498   25.1373 C   0  0  0  0  0  0  0  0  0  0  0  0
  -32.1230  -29.4989   23.4555 C   0  0  0  0  0  0  0  0  0  0  0  0
  -25.4767  -28.1888   22.4645 C   0  0  0  0  0  0  0  0  0  0  0  0
  -24.4654  -14.8609   15.1543 C   0  0  0  0  0  0  0  0  0  0  0  0
  -29.3402  -12.9013   14.7379 C   0  0  0  0  0  0  0  0  0  0  0  0
  -28.5292  -17.5043   19.0838 C   0  0  0  0  0  0  0  0  0  0  0  0
  -28.1305  -20.0201   19.2020 C   0  0  0  0  0  0  0  0  0  1  0  0
  -30.4224  -27.7243   22.8630 C   0  0  1  0  0  0  0  0  0  0  0  0
  -27.1101  -29.0451   24.1490 C   0  0  2  0  0  0  0  0  0  0  0  0
  -28.4028  -18.7360   19.9709 C   0  0  1  0  0  0  0  0  0  0  0  0
  -31.7444  -28.0119   23.6293 C   0  0  0  0  0  0  0  0  0  0  0  0
  -25.8615  -11.5423   20.5154 N   0  0  0  0  0  0  0  0  0  0  0  0
  -26.2615  -12.8153   20.3550 N   0  0  0  0  0  0  0  0  0  0  0  0
  -30.3177  -26.8252   20.5599 N   0  0  0  0  0  0  0  0  0  0  0  0
  -29.5453  -12.7366   18.3882 N   0  0  0  0  0  0  0  0  0  0  0  0
  -25.4897  -15.0546   20.3766 N   0  0  0  0  0  0  0  0  0  0  0  0
  -21.7694  -12.6615   21.2871 N   0  0  0  0  0  0  0  0  0  0  0  0
  -27.3129  -17.2738   18.3410 N   0  0  0  0  0  0  0  0  0  0  0  0
  -32.4797  -26.4185   17.6518 N   0  0  0  0  0  0  0  0  0  0  0  0
  -29.2936  -28.5439   23.2904 N   0  0  0  0  0  0  0  0  0  0  0  0
  -29.0803  -13.3263   16.1116 N   0  0  0  0  0  0  0  0  0  0  0  0
  -24.5349  -15.2697   13.7180 N   0  3  0  0  0  0  0  0  0  0  0  0
  -25.7274  -28.5576   23.8815 N   0  3  0  0  0  0  0  0  0  0  0  0
  -22.5902  -14.7794   20.9716 O   0  0  0  0  0  0  0  0  0  0  0  0
  -32.6026  -25.8780   19.9135 O   0  0  0  0  0  0  0  0  0  0  0  0
  -30.8673  -29.0569   20.9518 O   0  0  0  0  0  0  0  0  0  0  0  0
  -27.9088  -26.7805   23.8820 O   0  0  0  0  0  0  0  0  0  0  0  0
  -31.2353  -12.8837   16.8114 O   0  0  0  0  0  0  0  0  0  0  0  0
  -21.4394   -7.1155   21.6976 O   0  0  0  0  0  0  0  0  0  0  0  0
  -28.0606  -21.1002   20.1320 O   0  0  0  0  0  0  0  0  0  1  0  0
  -23.4883   -3.2393   25.0415 F   0  0  0  0  0  0  0  0  0  0  0  0
  -20.1118   -6.3929   24.0123 F   0  0  0  0  0  0  0  0  0  0  0  0
  -27.3712  -18.5336   20.8414 F   0  0  0  0  0  0  0  0  0  0  0  0
  1  2  1  0  0  0  0
  1  5  2  0  0  0  0
  2  6  2  0  0  0  0
  3  8  2  0  0  0  0
  3 18  1  0  0  0  0
  4  9  1  0  0  0  0
  4 18  2  0  0  0  0
  5 20  1  0  0  0  0
  6 22  1  0  0  0  0
  7 10  2  0  0  0  0
  7 21  1  0  0  0  0
  8 27  1  0  0  0  0
  9 27  2  0  0  0  0
 10 28  1  0  0  0  0
 11 12  2  0  0  0  0
 11 29  1  0  0  0  0
 12 30  1  0  0  0  0
 13 23  1  0  0  0  0
 13 28  2  0  0  0  0
 14 24  1  0  0  0  0
 14 25  2  0  0  0  0
 15 24  2  0  0  0  0
 15 26  1  0  0  0  0
 16 25  1  0  0  0  0
 16 26  2  0  0  0  0
 17 30  2  0  0  0  0
 17 31  1  0  0  0  0
 18 32  1  0  0  0  0
 19 32  1  0  0  0  0
 19 33  2  0  0  0  0
 19 34  1  0  0  0  0
 20 22  2  0  0  0  0
 20 39  1  0  0  0  0
 21 23  2  0  0  0  0
 21 40  1  0  0  0  0
 22 52  1  0  0  0  0
 23 41  1  0  0  0  0
 24 61  1  0  0  0  0
 25 75  1  0  0  0  0
 26 78  1  0  0  0  0
 27 86  1  0  0  0  0
 28 87  1  0  0  0  0
 29 31  2  0  0  0  0
 29 86  1  0  0  0  0
 30 88  1  0  0  0  0
 31 89  1  0  0  0  0
 32 69  2  0  0  0  0
 33 70  1  0  0  0  0
 33 73  1  0  0  0  0
 34 74  1  0  0  0  0
 34 81  2  0  0  0  0
 35 53  1  0  0  0  0
 35 76  1  0  0  0  0
 35 82  2  0  0  0  0
 36 65  1  0  0  0  0
 36 71  1  0  0  0  0
 36 83  2  0  0  0  0
 37 66  1  0  0  0  0
 37 77  1  0  0  0  0
 37 84  2  0  0  0  0
 38 72  1  0  0  0  0
 38 78  1  0  0  0  0
 38 85  2  0  0  0  0
 39 42  1  0  0  0  0
 40 53  1  0  0  0  0
 41 71  1  0  0  0  0
 42 46  1  0  0  0  0
 43 47  1  0  0  0  0
 43 48  1  0  0  0  0
 44 45  1  0  0  0  0
 44 50  1  0  0  0  0
 45 51  1  0  0  0  0
 46 52  1  0  0  0  0
 47 54  1  0  0  0  0
 48 72  1  0  0  0  0
 49 54  1  0  0  0  0
 49 72  1  0  0  0  0
 50 79  1  0  0  0  0
 51 79  1  0  0  0  0
 52 76  1  0  0  0  0
 53 71  1  0  0  0  0
 54 70  1  0  0  0  0
 55 62  1  0  0  0  0
 56 66  1  0  0  0  0
 57 68  1  0  0  0  0
 58 68  1  0  0  0  0
 59 68  1  0  0  0  0
 60 80  1  0  0  0  0
 61 79  1  0  0  0  0
 62 78  1  0  0  0  0
 63 67  1  0  0  0  0
 63 75  1  0  0  0  0
 64 67  1  0  0  0  0
 64 87  1  0  0  0  0
 65 68  1  0  0  0  0
 65 77  1  0  0  0  0
 66 80  1  0  0  0  0
 67 90  1  0  0  0  0
 69 70  1  0  0  0  0
M  CHG  2  79   1  80   1
M  ISO  4  38 100  64 101  78 100  87 101
M  END
> <Batch ID>
0025

> <Smiles>
CC[100N:0](c1cc(CN2CCCC2)cc(NCC(F)[101CH2:1][101O:1]c2ccc3c(c2)CN(C(=O)C(NC(=O)C(C)NC)C(C)(C)C)C(C(=O)NC2CCCc4ccccc42)C3)c1)[100C:0](=O)N1CCCC(n2nc(-c3ccc(Oc4ccc(F)cc4F)cc3)c(C(N)=O)c2N)C1

> <Shape>
0.260

> <Color>
0.179

> <Negative vol penalty>
0.000

$$$$

  -OEChem-04042321223D

 90 99  0     1  0  0  0  0  0999 V2000
  -23.5526  -37.0400   24.0325 C   0  0  0  0  0  0  0  0  0  0  0  0
  -24.4717  -36.0009   24.1372 C   0  0  0  0  0  0  0  0  0  0  0  0
  -22.7379  -10.1578   20.4662 C   0  0  0  0  0  0  0  0  0  0  0  0
  -24.5375   -8.8538   21.4140 C   0  0  0  0  0  0  0  0  0  0  0  0
  -22.1989  -36.7566   23.8560 C   0  0  0  0  0  0  0  0  0  0  0  0
  -24.0374  -34.6777   24.0666 C   0  0  0  0  0  0  0  0  0  0  0  0
  -26.9775  -31.8242   21.0902 C   0  0  0  0  0  0  0  0  0  0  0  0
  -21.8480   -9.5944   21.3806 C   0  0  0  0  0  0  0  0  0  0  0  0
  -23.6476   -8.2905   22.3286 C   0  0  0  0  0  0  0  0  0  0  0  0
  -28.1909  -31.3900   21.6219 C   0  0  0  0  0  0  0  0  0  0  0  0
  -21.2871   -5.8699   22.3403 C   0  0  0  0  0  0  0  0  0  0  0  0
  -21.3524   -4.4915   22.5431 C   0  0  0  0  0  0  0  0  0  0  0  0
  -27.2088  -29.2368   22.0892 C   0  0  0  0  0  0  0  0  0  0  0  0
  -31.9191  -19.3821   21.0217 C   0  0  0  0  0  0  0  0  0  0  0  0
  -29.3435  -18.3151   21.1242 C   0  0  0  0  0  0  0  0  0  0  0  0
  -21.8446   -4.8585   24.8798 C   0  0  0  0  0  0  0  0  0  0  0  0
  -24.0827   -9.7874   20.4828 C   0  0  0  0  0  0  0  0  0  0  0  0
  -24.9372  -10.2963   18.1337 C   0  0  0  0  0  0  0  0  0  0  0  0
  -21.7490  -35.4294   23.7735 C   0  0  0  0  0  0  0  0  0  0  0  0
  -25.8656  -30.9701   21.0640 C   0  0  0  0  0  0  0  0  0  0  0  0
  -22.6762  -34.3763   23.8902 C   0  0  0  0  0  0  0  0  0  0  0  0
  -25.9831  -29.6617   21.5543 C   0  0  0  0  0  0  0  0  0  0  0  0
  -30.8403  -20.1961   21.3668 C   0  0  0  0  0  0  0  0  0  0  0  0
  -30.4224  -17.5011   20.7791 C   0  0  0  0  0  0  0  0  0  0  0  0
  -22.3028   -8.6608   22.3118 C   0  0  0  0  0  0  0  0  0  0  0  0
  -28.3060  -30.0971   22.1241 C   0  0  0  0  0  0  0  0  0  0  0  0
  -21.5007   -6.7427   23.4073 C   0  0  0  0  0  0  0  0  0  0  0  0
  -21.6311   -3.9857   23.8128 C   0  0  0  0  0  0  0  0  0  0  0  0
  -31.7102  -18.0346   20.7278 C   0  0  0  0  0  0  0  0  0  0  0  0
  -21.7794   -6.2370   24.6770 C   0  0  0  0  0  0  0  0  0  0  0  0
  -29.5525  -19.6626   21.4181 C   0  0  0  0  0  0  0  0  0  0  0  0
  -25.0023  -10.3686   19.5381 C   0  0  0  0  0  0  0  0  0  0  0  0
  -26.0327  -11.0035   17.7023 C   0  0  0  0  0  0  0  0  0  0  0  0
  -23.9725   -9.6479   17.2942 C   0  0  0  0  0  0  0  0  0  0  0  0
  -22.9631  -31.0259   22.3586 C   0  0  0  0  0  0  0  0  0  0  0  0
  -22.5268  -28.3744   20.5416 C   0  0  0  0  0  0  0  0  0  0  0  0
  -24.4336  -25.4393   19.6658 C   0  0  0  0  0  0  0  0  0  0  0  0
  -28.9962  -15.4369   20.4806 C   0  0  0  0  0  0  0  0  0  0  0  0
  -20.2700  -35.1719   23.6297 C   0  0  0  0  0  0  0  0  0  0  0  0
  -24.5712  -31.4449   20.4627 C   0  0  0  0  0  0  0  0  0  0  0  0
  -24.8250  -28.6991   21.5308 C   0  0  0  0  0  0  0  0  0  0  0  0
  -19.9396  -33.7480   23.1895 C   0  0  0  0  0  0  0  0  0  0  0  0
  -30.2997  -11.8918   19.8044 C   0  0  0  0  0  0  0  0  0  0  0  0
  -20.7403  -32.7378   24.0051 C   0  0  0  0  0  0  0  0  0  0  0  0
  -29.1949  -11.3878   18.8787 C   0  0  0  0  0  0  0  0  0  0  0  0
  -31.6724  -23.3027   23.2782 C   0  0  0  0  0  0  0  0  0  0  0  0
  -30.7019  -23.9037   21.0473 C   0  0  0  0  0  0  0  0  0  0  0  0
  -30.3954  -13.4122   19.8149 C   0  0  0  0  0  0  0  0  0  0  0  0
  -31.9788  -21.8959   22.7630 C   0  0  0  0  0  0  0  0  0  0  0  0
  -31.0168  -22.4979   20.5371 C   0  0  0  0  0  0  0  0  0  0  0  0
  -27.9194  -13.2247   20.1152 C   0  0  0  0  0  0  0  0  0  0  0  0
  -22.2471  -32.9283   23.7936 C   0  0  1  0  0  0  0  0  0  0  0  0
  -23.3597  -30.6600   20.9563 C   0  0  1  0  0  0  0  0  0  0  0  0
  -27.9310  -12.2697   18.9114 C   0  0  2  0  0  0  0  0  0  0  0  0
  -31.6829  -24.3155   22.1392 C   0  0  0  0  0  0  0  0  0  0  0  0
  -24.3228  -23.9674   17.6364 C   0  0  0  0  0  0  0  0  0  0  0  0
  -20.6394  -26.6758   22.2335 C   0  0  0  0  0  0  0  0  0  0  0  0
  -21.6899  -24.6358   21.2320 C   0  0  0  0  0  0  0  0  0  0  0  0
  -20.4900  -26.2634   19.7713 C   0  0  0  0  0  0  0  0  0  0  0  0
  -27.3140  -25.8105   19.0965 C   0  0  0  0  0  0  0  0  0  0  0  0
  -31.7467  -26.7933   21.8500 C   0  0  0  0  0  0  0  0  0  0  0  0
  -29.7831  -28.2789   22.5342 C   0  0  0  0  0  0  0  0  0  1  0  0
  -22.7371  -26.8932   20.7440 C   0  0  1  0  0  0  0  0  0  0  0  0
  -25.0444  -25.1228   18.3126 C   0  0  2  0  0  0  0  0  0  0  0  0
  -31.2930  -28.1082   22.4643 C   0  0  1  0  0  0  0  0  0  0  0  0
  -21.4050  -26.1363   21.0088 C   0  0  0  0  0  0  0  0  0  0  0  0
  -26.0560  -11.0665   19.9701 N   0  0  0  0  0  0  0  0  0  0  0  0
  -26.6631  -11.4391   18.8305 N   0  0  0  0  0  0  0  0  0  0  0  0
  -31.0815  -21.5449   21.6553 N   0  0  0  0  0  0  0  0  0  0  0  0
  -23.5787  -29.2122   20.9385 N   0  0  0  0  0  0  0  0  0  0  0  0
  -29.1196  -14.0689   20.1347 N   0  0  0  0  0  0  0  0  0  0  0  0
  -26.5087  -11.2889   16.4717 N   0  0  0  0  0  0  0  0  0  0  0  0
  -24.1971   -8.3147   16.9248 N   0  0  0  0  0  0  0  0  0  0  0  0
  -30.2082  -16.1324   20.4798 N   0  0  0  0  0  0  0  0  0  0  0  0
  -22.6550  -32.3626   22.5255 N   0  0  0  0  0  0  0  0  0  0  0  0
  -23.4701  -26.4214   19.5742 N   0  0  0  0  0  0  0  0  0  0  0  0
  -31.2875  -25.6460   22.6696 N   0  3  0  0  0  0  0  0  0  0  0  0
  -26.4804  -24.7549   18.4658 N   0  3  0  0  0  0  0  0  0  0  0  0
  -22.9503  -10.2386   16.8703 O   0  0  0  0  0  0  0  0  0  0  0  0
  -22.9370  -30.1594   23.2248 O   0  0  0  0  0  0  0  0  0  0  0  0
  -21.4713  -28.7728   20.0430 O   0  0  0  0  0  0  0  0  0  0  0  0
  -24.7743  -24.8695   20.7002 O   0  0  0  0  0  0  0  0  0  0  0  0
  -27.9027  -15.9431   20.7411 O   0  0  0  0  0  0  0  0  0  0  0  0
  -21.4348   -8.1110   23.2045 O   0  0  0  0  0  0  0  0  0  0  0  0
  -29.4891  -29.6709   22.6442 O   0  0  0  0  0  0  0  0  0  1  0  0
  -21.6922   -2.6619   24.0078 F   0  0  0  0  0  0  0  0  0  0  0  0
  -32.7546  -17.2625   20.3953 F   0  0  0  0  0  0  0  0  0  0  0  0
  -21.9843   -7.0705   25.7061 F   0  0  0  0  0  0  0  0  0  0  0  0
  -31.7867  -28.1779   23.7353 F   0  0  0  0  0  0  0  0  0  0  0  0
  -28.1890  -20.6355   21.8414 Cl  0  0  0  0  0  0  0  0  0  0  0  0
  1  2  1  0  0  0  0
  1  5  2  0  0  0  0
  2  6  2  0  0  0  0
  3  8  2  0  0  0  0
  3 17  1  0  0  0  0
  4  9  1  0  0  0  0
  4 17  2  0  0  0  0
  5 19  1  0  0  0  0
  6 21  1  0  0  0  0
  7 10  2  0  0  0  0
  7 20  1  0  0  0  0
  8 25  1  0  0  0  0
  9 25  2  0  0  0  0
 10 26  1  0  0  0  0
 11 12  2  0  0  0  0
 11 27  1  0  0  0  0
 12 28  1  0  0  0  0
 13 22  1  0  0  0  0
 13 26  2  0  0  0  0
 14 23  1  0  0  0  0
 14 29  2  0  0  0  0
 15 24  2  0  0  0  0
 15 31  1  0  0  0  0
 16 28  2  0  0  0  0
 16 30  1  0  0  0  0
 17 32  1  0  0  0  0
 18 32  1  0  0  0  0
 18 33  2  0  0  0  0
 18 34  1  0  0  0  0
 19 21  2  0  0  0  0
 19 39  1  0  0  0  0
 20 22  2  0  0  0  0
 20 40  1  0  0  0  0
 21 52  1  0  0  0  0
 22 41  1  0  0  0  0
 23 31  2  0  0  0  0
 23 69  1  0  0  0  0
 24 29  1  0  0  0  0
 24 74  1  0  0  0  0
 25 84  1  0  0  0  0
 26 85  1  0  0  0  0
 27 30  2  0  0  0  0
 27 84  1  0  0  0  0
 28 86  1  0  0  0  0
 29 87  1  0  0  0  0
 30 88  1  0  0  0  0
 31 90  1  0  0  0  0
 32 67  2  0  0  0  0
 33 68  1  0  0  0  0
 33 72  1  0  0  0  0
 34 73  1  0  0  0  0
 34 79  2  0  0  0  0
 35 53  1  0  0  0  0
 35 75  1  0  0  0  0
 35 80  2  0  0  0  0
 36 63  1  0  0  0  0
 36 70  1  0  0  0  0
 36 81  2  0  0  0  0
 37 64  1  0  0  0  0
 37 76  1  0  0  0  0
 37 82  2  0  0  0  0
 38 71  1  0  0  0  0
 38 74  1  0  0  0  0
 38 83  2  0  0  0  0
 39 42  1  0  0  0  0
 40 53  1  0  0  0  0
 41 70  1  0  0  0  0
 42 44  1  0  0  0  0
 43 45  1  0  0  0  0
 43 48  1  0  0  0  0
 44 52  1  0  0  0  0
 45 54  1  0  0  0  0
 46 49  1  0  0  0  0
 46 55  1  0  0  0  0
 47 50  1  0  0  0  0
 47 55  1  0  0  0  0
 48 71  1  0  0  0  0
 49 69  1  0  0  0  0
 50 69  1  0  0  0  0
 51 54  1  0  0  0  0
 51 71  1  0  0  0  0
 52 75  1  0  0  0  0
 53 70  1  0  0  0  0
 54 68  1  0  0  0  0
 55 77  1  0  0  0  0
 56 64  1  0  0  0  0
 57 66  1  0  0  0  0
 58 66  1  0  0  0  0
 59 66  1  0  0  0  0
 60 78  1  0  0  0  0
 61 65  1  0  0  0  0
 61 77  1  0  0  0  0
 62 65  1  0  0  0  0
 62 85  1  0  0  0  0
 63 66  1  0  0  0  0
 63 76  1  0  0  0  0
 64 78  1  0  0  0  0
 65 89  1  0  0  0  0
 67 68  1  0  0  0  0
M  CHG  2  77   1  78   1
M  ISO  4  38 100  62 101  74 100  85 101
M  END
> <Batch ID>
0025

> <Smiles>
CNC(C)C(=O)NC(C(=O)N1Cc2cc([101O:1][101CH2:1]C(F)CNC3CCN(c4cc(F)c([100NH:0][100C:0](=O)N5CCCC(n6nc(-c7ccc(Oc8ccc(F)cc8F)cc7)c(C(N)=O)c6N)C5)cc4Cl)CC3)ccc2CC1C(=O)NC1CCCc2ccccc21)C(C)(C)C

> <Shape>
0.269

> <Color>
0.086

> <Negative vol penalty>
0.000

$$$$

  -OEChem-04042321223D

 85 94  0     1  0  0  0  0  0999 V2000
  -18.1233  -29.5868   24.1239 C   0  0  0  0  0  0  0  0  0  0  0  0
  -19.5109  -29.6655   24.0612 C   0  0  0  0  0  0  0  0  0  0  0  0
  -25.0801  -13.3180   19.5598 C   0  0  0  0  0  0  0  0  0  0  0  0
  -25.9670  -13.9149   21.7264 C   0  0  0  0  0  0  0  0  0  0  0  0
  -17.4603  -28.5081   23.5403 C   0  0  0  0  0  0  0  0  0  0  0  0
  -20.2363  -28.6647   23.4157 C   0  0  0  0  0  0  0  0  0  0  0  0
  -25.3979  -29.3555   20.1928 C   0  0  0  0  0  0  0  0  0  0  0  0
  -30.5222  -24.6989   21.2960 C   0  0  0  0  0  0  0  0  0  0  0  0
  -30.3072  -23.5508   20.5336 C   0  0  0  0  0  0  0  0  0  0  0  0
  -24.9570  -11.9922   19.9754 C   0  0  0  0  0  0  0  0  0  0  0  0
  -25.8439  -12.5891   22.1421 C   0  0  0  0  0  0  0  0  0  0  0  0
  -26.7397  -29.1613   20.5178 C   0  0  0  0  0  0  0  0  0  0  0  0
  -22.8254  -10.1580   21.8530 C   0  0  0  0  0  0  0  0  0  0  0  0
  -21.6381   -9.4914   21.5505 C   0  0  0  0  0  0  0  0  0  0  0  0
  -26.6476  -26.9524   19.5526 C   0  0  0  0  0  0  0  0  0  0  0  0
  -22.8811   -7.8522   20.2837 C   0  0  0  0  0  0  0  0  0  0  0  0
  -25.5851  -14.2793   20.4353 C   0  0  0  0  0  0  0  0  0  0  0  0
  -24.7494  -16.6689   20.1201 C   0  0  0  0  0  0  0  0  0  0  0  0
  -18.1773  -27.4985   22.8790 C   0  0  0  0  0  0  0  0  0  0  0  0
  -24.6667  -28.3437   19.5540 C   0  0  0  0  0  0  0  0  0  0  0  0
  -19.5824  -27.5707   22.8238 C   0  0  0  0  0  0  0  0  0  0  0  0
  -25.2973  -27.1372   19.2183 C   0  0  0  0  0  0  0  0  0  0  0  0
  -29.4965  -25.2104   22.0910 C   0  0  0  0  0  0  0  0  0  0  0  0
  -29.0665  -22.9143   20.5660 C   0  0  0  0  0  0  0  0  0  0  0  0
  -25.3389  -11.6278   21.2666 C   0  0  0  0  0  0  0  0  0  0  0  0
  -27.3640  -27.9585   20.2003 C   0  0  0  0  0  0  0  0  0  0  0  0
  -24.0407   -9.6717   21.3707 C   0  0  0  0  0  0  0  0  0  0  0  0
  -21.6659   -8.3385   20.7659 C   0  0  0  0  0  0  0  0  0  0  0  0
  -24.0685   -8.5188   20.5861 C   0  0  0  0  0  0  0  0  0  0  0  0
  -28.0407  -23.4259   21.3609 C   0  0  0  0  0  0  0  0  0  0  0  0
  -28.2558  -24.5739   22.1234 C   0  0  0  0  0  0  0  0  0  0  0  0
  -25.7131  -15.6489   20.0064 C   0  0  0  0  0  0  0  0  0  0  0  0
  -25.3522  -17.7736   19.5699 C   0  0  0  0  0  0  0  0  0  0  0  0
  -23.4277  -16.6219   20.6737 C   0  0  0  0  0  0  0  0  0  0  0  0
  -22.1058  -26.6147   20.2998 C   0  0  0  0  0  0  0  0  0  0  0  0
  -22.4300  -25.5361   17.2577 C   0  0  0  0  0  0  0  0  0  0  0  0
  -24.4700  -25.0065   14.5736 C   0  0  0  0  0  0  0  0  0  0  0  0
  -29.7644  -21.1129   18.9492 C   0  0  0  0  0  0  0  0  0  0  0  0
  -17.4200  -26.3277   22.3043 C   0  0  0  0  0  0  0  0  0  0  0  0
  -23.2273  -28.5789   19.1862 C   0  0  0  0  0  0  0  0  0  0  0  0
  -24.5621  -26.0272   18.5142 C   0  0  0  0  0  0  0  0  0  0  0  0
  -18.2363  -25.5012   21.3140 C   0  0  0  0  0  0  0  0  0  0  0  0
  -29.6307  -18.2045   16.8996 C   0  0  0  0  0  0  0  0  0  0  0  0
  -29.9602  -27.8220   24.6759 C   0  0  0  0  0  0  0  0  0  0  0  0
  -19.6262  -25.2166   21.8743 C   0  0  0  0  0  0  0  0  0  0  0  0
  -28.5203  -17.3643   17.5345 C   0  0  0  0  0  0  0  0  0  0  0  0
  -30.8614  -28.2935   23.5456 C   0  0  0  0  0  0  0  0  0  0  0  0
  -29.6362  -26.3807   24.2958 C   0  0  0  0  0  0  0  0  0  0  0  0
  -30.4548  -18.9439   17.9522 C   0  0  0  0  0  0  0  0  0  0  0  0
  -28.5633  -18.9140   19.5304 C   0  0  0  0  0  0  0  0  0  0  0  0
  -20.4026  -26.5176   22.1110 C   0  0  1  0  0  0  0  0  0  0  0  0
  -22.4398  -27.2860   18.9977 C   0  0  1  0  0  0  0  0  0  0  0  0
  -27.6653  -18.2017   18.5058 C   0  0  2  0  0  0  0  0  0  0  0  0
  -30.2790  -27.6064   22.3025 C   0  0  2  0  0  0  0  0  0  0  0  0
  -24.4578  -24.0746   12.2436 C   0  0  0  0  0  0  0  0  0  0  0  0
  -22.4143  -22.7040   18.3931 C   0  0  0  0  0  0  0  0  0  0  0  0
  -23.3406  -21.8989   16.2109 C   0  0  0  0  0  0  0  0  0  0  0  0
  -21.0988  -22.9904   16.2855 C   0  0  0  0  0  0  0  0  0  0  0  0
  -25.2474  -27.6112   13.4032 C   0  0  0  0  0  0  0  0  0  0  0  0
  -29.1694  -28.4452   21.6699 C   0  0  0  0  0  0  0  0  0  1  0  0
  -23.1744  -24.3992   16.6001 C   0  0  1  0  0  0  0  0  0  0  0  0
  -24.2965  -25.3217   13.0988 C   0  0  2  0  0  0  0  0  0  0  0  0
  -22.5206  -23.0181   16.8874 C   0  0  0  0  0  0  0  0  0  0  0  0
  -26.8422  -16.0683   19.4292 N   0  0  0  0  0  0  0  0  0  0  0  0
  -26.5918  -17.3641   19.1752 N   0  0  0  0  0  0  0  0  0  0  0  0
  -29.7406  -26.3490   22.8356 N   0  0  3  0  0  0  0  0  0  0  0  0
  -23.1547  -26.3027   18.1813 N   0  0  0  0  0  0  0  0  0  0  0  0
  -29.5786  -19.7190   18.8334 N   0  0  0  0  0  0  0  0  0  0  0  0
  -24.9375  -19.0457   19.3901 N   0  0  0  0  0  0  0  0  0  0  0  0
  -22.9652  -15.4068   21.1969 N   0  0  0  0  0  0  0  0  0  0  0  0
  -28.8514  -21.7483   19.7901 N   0  0  0  0  0  0  0  0  0  0  0  0
  -20.9149  -27.0352   20.8603 N   0  0  0  0  0  0  0  0  0  0  0  0
  -23.2634  -24.7351   15.1832 N   0  0  0  0  0  0  0  0  0  0  0  0
  -25.3074  -26.3256   12.6613 N   0  3  0  0  0  0  0  0  0  0  0  0
  -22.6728  -17.6237   20.6885 O   0  0  0  0  0  0  0  0  0  0  0  0
  -22.8712  -25.7761   20.7609 O   0  0  0  0  0  0  0  0  0  0  0  0
  -21.2513  -25.7410   16.9575 O   0  0  0  0  0  0  0  0  0  0  0  0
  -25.5667  -24.9979   15.1283 O   0  0  0  0  0  0  0  0  0  0  0  0
  -30.6499  -21.7036   18.3255 O   0  0  0  0  0  0  0  0  0  0  0  0
  -25.2187  -10.3342   21.6725 O   0  0  0  0  0  0  0  0  0  0  0  0
  -28.6734  -27.7662   20.5169 O   0  0  0  0  0  0  0  0  0  1  0  0
  -20.5258   -7.6976   20.4768 F   0  0  0  0  0  0  0  0  0  0  0  0
  -25.2330   -8.0462   20.1209 F   0  0  0  0  0  0  0  0  0  0  0  0
  -26.8487  -22.8095   21.3872 F   0  0  0  0  0  0  0  0  0  0  0  0
  -26.9629  -25.1802   23.0970 Cl  0  0  0  0  0  0  0  0  0  0  0  0
  1  2  1  0  0  0  0
  1  5  2  0  0  0  0
  2  6  2  0  0  0  0
  3 10  2  0  0  0  0
  3 17  1  0  0  0  0
  4 11  1  0  0  0  0
  4 17  2  0  0  0  0
  5 19  1  0  0  0  0
  6 21  1  0  0  0  0
  7 12  2  0  0  0  0
  7 20  1  0  0  0  0
  8  9  2  0  0  0  0
  8 23  1  0  0  0  0
  9 24  1  0  0  0  0
 10 25  1  0  0  0  0
 11 25  2  0  0  0  0
 12 26  1  0  0  0  0
 13 14  2  0  0  0  0
 13 27  1  0  0  0  0
 14 28  1  0  0  0  0
 15 22  1  0  0  0  0
 15 26  2  0  0  0  0
 16 28  2  0  0  0  0
 16 29  1  0  0  0  0
 17 32  1  0  0  0  0
 18 32  1  0  0  0  0
 18 33  2  0  0  0  0
 18 34  1  0  0  0  0
 19 21  2  0  0  0  0
 19 39  1  0  0  0  0
 20 22  2  0  0  0  0
 20 40  1  0  0  0  0
 21 51  1  0  0  0  0
 22 41  1  0  0  0  0
 23 31  2  0  0  0  0
 23 66  1  0  0  0  0
 24 30  2  0  0  0  0
 24 71  1  0  0  0  0
 25 80  1  0  0  0  0
 26 81  1  0  0  0  0
 27 29  2  0  0  0  0
 27 80  1  0  0  0  0
 28 82  1  0  0  0  0
 29 83  1  0  0  0  0
 30 31  1  0  0  0  0
 30 84  1  0  0  0  0
 31 85  1  0  0  0  0
 32 64  2  0  0  0  0
 33 65  1  0  0  0  0
 33 69  1  0  0  0  0
 34 70  1  0  0  0  0
 34 75  2  0  0  0  0
 35 52  1  0  0  0  0
 35 72  1  0  0  0  0
 35 76  2  0  0  0  0
 36 61  1  0  0  0  0
 36 67  1  0  0  0  0
 36 77  2  0  0  0  0
 37 62  1  0  0  0  0
 37 73  1  0  0  0  0
 37 78  2  0  0  0  0
 38 68  1  0  0  0  0
 38 71  1  0  0  0  0
 38 79  2  0  0  0  0
 39 42  1  0  0  0  0
 40 52  1  0  0  0  0
 41 67  1  0  0  0  0
 42 45  1  0  0  0  0
 43 46  1  0  0  0  0
 43 49  1  0  0  0  0
 44 47  1  0  0  0  0
 44 48  1  0  0  0  0
 45 51  1  0  0  0  0
 46 53  1  0  0  0  0
 47 54  1  0  0  0  0
 48 66  1  0  0  0  0
 49 68  1  0  0  0  0
 50 53  1  0  0  0  0
 50 68  1  0  0  0  0
 51 72  1  0  0  0  0
 52 67  1  0  0  0  0
 53 65  1  0  0  0  0
 54 60  1  0  0  0  0
 54 66  1  0  0  0  0
 55 62  1  0  0  0  0
 56 63  1  0  0  0  0
 57 63  1  0  0  0  0
 58 63  1  0  0  0  0
 59 74  1  0  0  0  0
 60 81  1  0  0  0  0
 61 63  1  0  0  0  0
 61 73  1  0  0  0  0
 62 74  1  0  0  0  0
 64 65  1  0  0  0  0
M  CHG  1  74   1
M  ISO  4  38 100  60 101  71 100  81 101
M  END
> <Batch ID>
0025

> <Smiles>
CNC(C)C(=O)NC(C(=O)N1Cc2cc([101O:1][101CH2:1]C3CCCN3c3ccc([100NH:0][100C:0](=O)N4CCCC(n5nc(-c6ccc(Oc7ccc(F)cc7F)cc6)c(C(N)=O)c5N)C4)c(F)c3Cl)ccc2CC1C(=O)NC1CCCc2ccccc21)C(C)(C)C

> <Shape>
0.238

> <Color>
0.066

> <Negative vol penalty>
0.000

$$$$

  -OEChem-04042321223D

 86 95  0     1  0  0  0  0  0999 V2000
  -27.7027  -32.5195   23.3104 C   0  0  0  0  0  0  0  0  0  0  0  0
  -27.1366  -31.3274   23.7507 C   0  0  0  0  0  0  0  0  0  0  0  0
  -24.7212  -12.4808   21.3991 C   0  0  0  0  0  0  0  0  0  0  0  0
  -26.7100  -12.7708   20.0583 C   0  0  0  0  0  0  0  0  0  0  0  0
  -26.8828  -33.5628   22.8823 C   0  0  0  0  0  0  0  0  0  0  0  0
  -25.7502  -31.1783   23.7641 C   0  0  0  0  0  0  0  0  0  0  0  0
  -25.8499  -29.1441   19.2522 C   0  0  0  0  0  0  0  0  0  0  0  0
  -28.6095  -24.1878   18.2656 C   0  0  0  0  0  0  0  0  0  0  0  0
  -27.6142  -23.2323   18.4706 C   0  0  0  0  0  0  0  0  0  0  0  0
  -24.7186  -11.1182   21.1006 C   0  0  0  0  0  0  0  0  0  0  0  0
  -26.7075  -11.4082   19.7599 C   0  0  0  0  0  0  0  0  0  0  0  0
  -27.0958  -28.5186   19.2642 C   0  0  0  0  0  0  0  0  0  0  0  0
  -26.3559   -8.3416   22.1216 C   0  0  0  0  0  0  0  0  0  0  0  0
  -26.1338   -7.4488   23.1699 C   0  0  0  0  0  0  0  0  0  0  0  0
  -26.2383  -26.8532   20.7841 C   0  0  0  0  0  0  0  0  0  0  0  0
  -24.1747   -6.6045   22.0358 C   0  0  0  0  0  0  0  0  0  0  0  0
  -25.7168  -13.3071   20.8779 C   0  0  0  0  0  0  0  0  0  0  0  0
  -26.3582  -15.3469   22.2690 C   0  0  0  0  0  0  0  0  0  0  0  0
  -25.4860  -33.4229   22.8813 C   0  0  0  0  0  0  0  0  0  0  0  0
  -24.7901  -28.6343   20.0159 C   0  0  0  0  0  0  0  0  0  0  0  0
  -24.9109  -32.2212   23.3368 C   0  0  0  0  0  0  0  0  0  0  0  0
  -24.9792  -27.4727   20.7781 C   0  0  0  0  0  0  0  0  0  0  0  0
  -29.8865  -23.2488   20.0890 C   0  0  0  0  0  0  0  0  0  0  0  0
  -29.7457  -24.1961   19.0748 C   0  0  0  0  0  0  0  0  0  0  0  0
  -27.7551  -22.2851   19.4848 C   0  0  0  0  0  0  0  0  0  0  0  0
  -25.7118  -10.5819   20.2811 C   0  0  0  0  0  0  0  0  0  0  0  0
  -27.2910  -27.3746   20.0325 C   0  0  0  0  0  0  0  0  0  0  0  0
  -25.4874   -8.3659   21.0303 C   0  0  0  0  0  0  0  0  0  0  0  0
  -25.0432   -6.5802   23.1271 C   0  0  0  0  0  0  0  0  0  0  0  0
  -24.3968   -7.4974   20.9875 C   0  0  0  0  0  0  0  0  0  0  0  0
  -28.8912  -22.2933   20.2940 C   0  0  0  0  0  0  0  0  0  0  0  0
  -25.7197  -14.7148   21.1853 C   0  0  0  0  0  0  0  0  0  0  0  0
  -26.0604  -16.6787   22.1137 C   0  0  0  0  0  0  0  0  0  0  0  0
  -27.1500  -14.7809   23.3218 C   0  0  0  0  0  0  0  0  0  0  0  0
  -23.0253  -29.7343   22.4199 C   0  0  0  0  0  0  0  0  0  0  0  0
  -21.3722  -26.9828   21.9520 C   0  0  0  0  0  0  0  0  0  0  0  0
  -21.3536  -23.7776   20.7802 C   0  0  0  0  0  0  0  0  0  0  0  0
  -25.5439  -21.2149   18.9263 C   0  0  0  0  0  0  0  0  0  0  0  0
  -24.6393  -34.5956   22.4540 C   0  0  0  0  0  0  0  0  0  0  0  0
  -23.4447  -29.3054   19.9712 C   0  0  0  0  0  0  0  0  0  0  0  0
  -23.8680  -26.8736   21.5997 C   0  0  0  0  0  0  0  0  0  0  0  0
  -23.1917  -34.2215   22.1462 C   0  0  0  0  0  0  0  0  0  0  0  0
  -22.7734  -18.9808   19.0286 C   0  0  0  0  0  0  0  0  0  0  0  0
  -32.8167  -26.0175   18.1464 C   0  0  0  0  0  0  0  0  0  0  0  0
  -22.6268  -33.3257   23.2440 C   0  0  0  0  0  0  0  0  0  0  0  0
  -23.3455  -17.7238   19.6879 C   0  0  0  0  0  0  0  0  0  0  0  0
  -31.9166  -27.1758   18.5296 C   0  0  0  0  0  0  0  0  0  0  0  0
  -31.8277  -24.8840   17.9230 C   0  0  0  0  0  0  0  0  0  0  0  0
  -23.7921  -19.6530   18.1098 C   0  0  0  0  0  0  0  0  0  0  0  0
  -25.6626  -18.6877   19.3900 C   0  0  0  0  0  0  0  0  0  0  0  0
  -23.4121  -32.0123   23.3429 C   0  0  1  0  0  0  0  0  0  0  0  0
  -22.5811  -28.9945   21.1898 C   0  0  1  0  0  0  0  0  0  0  0  0
  -24.6947  -18.0121   20.3750 C   0  0  2  0  0  0  0  0  0  0  0  0
  -30.8197  -26.5246   19.4142 C   0  0  1  0  0  0  0  0  0  0  0  0
  -31.1137  -23.2726   20.9485 C   0  0  0  0  0  0  0  0  0  0  0  0
  -31.2990  -26.4975   20.8729 C   0  0  0  0  0  0  0  0  0  0  0  0
  -19.8694  -21.7649   20.5721 C   0  0  0  0  0  0  0  0  0  0  0  0
  -21.7659  -26.3887   24.9188 C   0  0  0  0  0  0  0  0  0  0  0  0
  -21.1308  -24.0117   24.4557 C   0  0  0  0  0  0  0  0  0  0  0  0
  -19.4894  -25.8433   24.0388 C   0  0  0  0  0  0  0  0  0  0  0  0
  -21.5255  -23.8123   17.8258 C   0  0  0  0  0  0  0  0  0  0  0  0
  -29.5368  -27.3462   19.2505 C   0  0  0  0  0  0  0  0  0  1  0  0
  -21.4672  -25.5744   22.4870 C   0  0  1  0  0  0  0  0  0  0  0  0
  -20.3679  -23.0335   19.8976 C   0  0  2  0  0  0  0  0  0  0  0  0
  -20.9850  -25.4667   23.9612 C   0  0  0  0  0  0  0  0  0  0  0  0
  -25.0653  -15.5742   20.3997 N   0  0  0  0  0  0  0  0  0  0  0  0
  -25.2911  -16.7601   20.9904 N   0  0  0  0  0  0  0  0  0  0  0  0
  -30.7214  -25.1538   18.8535 N   0  0  3  0  0  0  0  0  0  0  0  0
  -22.5728  -27.5699   21.5280 N   0  0  0  0  0  0  0  0  0  0  0  0
  -25.0434  -19.8992   18.8298 N   0  0  0  0  0  0  0  0  0  0  0  0
  -26.3840  -17.7764   22.8298 N   0  0  0  0  0  0  0  0  0  0  0  0
  -27.3572  -13.3948   23.3307 N   0  0  0  0  0  0  0  0  0  0  0  0
  -26.7227  -21.3308   19.6622 N   0  0  0  0  0  0  0  0  0  0  0  0
  -23.0222  -31.1092   22.2814 N   0  0  0  0  0  0  0  0  0  0  0  0
  -20.7273  -24.7323   21.5533 N   0  0  0  0  0  0  0  0  0  0  0  0
  -21.0099  -22.6580   18.6062 N   0  3  0  0  0  0  0  0  0  0  0  0
  -27.6450  -15.4815   24.2371 O   0  0  0  0  0  0  0  0  0  0  0  0
  -23.3456  -29.1044   23.4210 O   0  0  0  0  0  0  0  0  0  0  0  0
  -20.2721  -27.5390   21.9051 O   0  0  0  0  0  0  0  0  0  0  0  0
  -22.5582  -23.5337   20.7862 O   0  0  0  0  0  0  0  0  0  0  0  0
  -24.9546  -22.1723   18.4182 O   0  0  0  0  0  0  0  0  0  0  0  0
  -25.7097   -9.2524   19.9899 O   0  0  0  0  0  0  0  0  0  0  0  0
  -28.5063  -26.7624   20.0465 O   0  0  0  0  0  0  0  0  0  1  0  0
  -24.8309   -5.7218   24.1332 F   0  0  0  0  0  0  0  0  0  0  0  0
  -23.5597   -7.5153   19.9412 F   0  0  0  0  0  0  0  0  0  0  0  0
  -29.0671  -21.1173   21.5568 Cl  0  0  0  0  0  0  0  0  0  0  0  0
  1  2  1  0  0  0  0
  1  5  2  0  0  0  0
  2  6  2  0  0  0  0
  3 10  2  0  0  0  0
  3 17  1  0  0  0  0
  4 11  1  0  0  0  0
  4 17  2  0  0  0  0
  5 19  1  0  0  0  0
  6 21  1  0  0  0  0
  7 12  2  0  0  0  0
  7 20  1  0  0  0  0
  8  9  2  0  0  0  0
  8 24  1  0  0  0  0
  9 25  1  0  0  0  0
 10 26  1  0  0  0  0
 11 26  2  0  0  0  0
 12 27  1  0  0  0  0
 13 14  2  0  0  0  0
 13 28  1  0  0  0  0
 14 29  1  0  0  0  0
 15 22  1  0  0  0  0
 15 27  2  0  0  0  0
 16 29  2  0  0  0  0
 16 30  1  0  0  0  0
 17 32  1  0  0  0  0
 18 32  1  0  0  0  0
 18 33  2  0  0  0  0
 18 34  1  0  0  0  0
 19 21  2  0  0  0  0
 19 39  1  0  0  0  0
 20 22  2  0  0  0  0
 20 40  1  0  0  0  0
 21 51  1  0  0  0  0
 22 41  1  0  0  0  0
 23 24  2  0  0  0  0
 23 31  1  0  0  0  0
 23 55  1  0  0  0  0
 24 68  1  0  0  0  0
 25 31  2  0  0  0  0
 25 73  1  0  0  0  0
 26 82  1  0  0  0  0
 27 83  1  0  0  0  0
 28 30  2  0  0  0  0
 28 82  1  0  0  0  0
 29 84  1  0  0  0  0
 30 85  1  0  0  0  0
 31 86  1  0  0  0  0
 32 66  2  0  0  0  0
 33 67  1  0  0  0  0
 33 71  1  0  0  0  0
 34 72  1  0  0  0  0
 34 77  2  0  0  0  0
 35 52  1  0  0  0  0
 35 74  1  0  0  0  0
 35 78  2  0  0  0  0
 36 63  1  0  0  0  0
 36 69  1  0  0  0  0
 36 79  2  0  0  0  0
 37 64  1  0  0  0  0
 37 75  1  0  0  0  0
 37 80  2  0  0  0  0
 38 70  1  0  0  0  0
 38 73  1  0  0  0  0
 38 81  2  0  0  0  0
 39 42  1  0  0  0  0
 40 52  1  0  0  0  0
 41 69  1  0  0  0  0
 42 45  1  0  0  0  0
 43 46  1  0  0  0  0
 43 49  1  0  0  0  0
 44 47  1  0  0  0  0
 44 48  1  0  0  0  0
 45 51  1  0  0  0  0
 46 53  1  0  0  0  0
 47 54  1  0  0  0  0
 48 68  1  0  0  0  0
 49 70  1  0  0  0  0
 50 53  1  0  0  0  0
 50 70  1  0  0  0  0
 51 74  1  0  0  0  0
 52 69  1  0  0  0  0
 53 67  1  0  0  0  0
 54 56  1  0  0  0  0
 54 62  1  0  0  0  0
 54 68  1  0  0  0  0
 57 64  1  0  0  0  0
 58 65  1  0  0  0  0
 59 65  1  0  0  0  0
 60 65  1  0  0  0  0
 61 76  1  0  0  0  0
 62 83  1  0  0  0  0
 63 65  1  0  0  0  0
 63 75  1  0  0  0  0
 64 76  1  0  0  0  0
 66 67  1  0  0  0  0
M  CHG  1  76   1
M  ISO  4  38 100  62 101  73 100  83 101
M  END
> <Batch ID>
0025

> <Smiles>
CNC(C)C(=O)NC(C(=O)N1Cc2cc([101O:1][101CH2:1]C3(C)CCCN3c3ccc([100NH:0][100C:0](=O)N4CCCC(n5nc(-c6ccc(Oc7ccc(F)cc7F)cc6)c(C(N)=O)c5N)C4)c(Cl)c3C)ccc2CC1C(=O)NC1CCCc2ccccc21)C(C)(C)C

> <Shape>
0.247

> <Color>
0.080

> <Negative vol penalty>
0.000

$$$$
