
  -OEChem-04042321253D

 85 94  0     1  0  0  0  0  0999 V2000
  -26.4256  -20.7637    9.2685 C   0  0  0  0  0  0  0  0  0  0  0  0
  -27.0928  -20.8264   10.4876 C   0  0  0  0  0  0  0  0  0  0  0  0
  -23.0551   -9.9333   19.8774 C   0  0  0  0  0  0  0  0  0  0  0  0
  -23.8872   -9.7721   22.1399 C   0  0  0  0  0  0  0  0  0  0  0  0
  -26.5288  -21.8193    8.3636 C   0  0  0  0  0  0  0  0  0  0  0  0
  -27.8646  -21.9444   10.8021 C   0  0  0  0  0  0  0  0  0  0  0  0
  -27.0905  -23.5707   15.5351 C   0  0  0  0  0  0  0  0  0  0  0  0
  -22.3277   -8.7575   20.0611 C   0  0  0  0  0  0  0  0  0  0  0  0
  -23.1597   -8.5963   22.3236 C   0  0  0  0  0  0  0  0  0  0  0  0
  -27.7125  -22.8615   16.5617 C   0  0  0  0  0  0  0  0  0  0  0  0
  -19.4326   -7.8244   21.5379 C   0  0  0  0  0  0  0  0  0  0  0  0
  -18.1113   -7.8031   21.0913 C   0  0  0  0  0  0  0  0  0  0  0  0
  -31.0906  -17.7673   20.8828 C   0  0  0  0  0  0  0  0  0  0  0  0
  -29.4438  -24.5383   16.6629 C   0  0  0  0  0  0  0  0  0  0  0  0
  -29.5170  -17.8024   22.7078 C   0  0  0  0  0  0  0  0  0  0  0  0
  -18.6425   -5.9722   19.6072 C   0  0  0  0  0  0  0  0  0  0  0  0
  -23.8349  -10.4406   20.9167 C   0  0  0  0  0  0  0  0  0  0  0  0
  -24.1550  -12.9707   20.9802 C   0  0  0  0  0  0  0  0  0  0  0  0
  -27.2944  -22.9551    8.6711 C   0  0  0  0  0  0  0  0  0  0  0  0
  -27.6473  -24.7654   15.0564 C   0  0  0  0  0  0  0  0  0  0  0  0
  -27.9792  -23.0156    9.8998 C   0  0  0  0  0  0  0  0  0  0  0  0
  -31.2588  -19.1584   20.9766 C   0  0  0  0  0  0  0  0  0  0  0  0
  -28.8255  -25.2621   15.6318 C   0  0  0  0  0  0  0  0  0  0  0  0
  -30.5500  -19.8728   21.9547 C   0  0  0  0  0  0  0  0  0  0  0  0
  -30.2245  -17.0939   21.7432 C   0  0  0  0  0  0  0  0  0  0  0  0
  -22.3799   -8.0889   21.2842 C   0  0  0  0  0  0  0  0  0  0  0  0
  -28.8909  -23.3438   17.1238 C   0  0  0  0  0  0  0  0  0  0  0  0
  -20.3588   -6.9197   21.0190 C   0  0  0  0  0  0  0  0  0  0  0  0
  -17.7163   -6.8770   20.1260 C   0  0  0  0  0  0  0  0  0  0  0  0
  -29.6788  -19.1833   22.8134 C   0  0  0  0  0  0  0  0  0  0  0  0
  -19.9638   -5.9936   20.0537 C   0  0  0  0  0  0  0  0  0  0  0  0
  -24.5871  -11.6549   20.7274 C   0  0  0  0  0  0  0  0  0  0  0  0
  -25.2298  -13.7560   20.6418 C   0  0  0  0  0  0  0  0  0  0  0  0
  -22.8948  -13.4409   21.4767 C   0  0  0  0  0  0  0  0  0  0  0  0
  -28.7898  -25.7439   12.2562 C   0  0  0  0  0  0  0  0  0  0  0  0
  -28.9869  -28.6026   13.7764 C   0  0  0  0  0  0  0  0  0  0  0  0
  -29.2282  -30.3062   16.7236 C   0  0  0  0  0  0  0  0  0  0  0  0
  -30.6913  -14.8368   20.7264 C   0  0  0  0  0  0  0  0  0  0  0  0
  -27.4143  -24.0504    7.6413 C   0  0  0  0  0  0  0  0  0  0  0  0
  -26.9497  -25.5323   13.9666 C   0  0  0  0  0  0  0  0  0  0  0  0
  -32.1921  -19.8628   20.0291 C   0  0  0  0  0  0  0  0  0  0  0  0
  -29.4529  -26.5502   15.1677 C   0  0  0  0  0  0  0  0  0  0  0  0
  -30.7128  -21.3606   22.0979 C   0  0  0  0  0  0  0  0  0  0  0  0
  -27.9492  -25.3631    8.2078 C   0  0  0  0  0  0  0  0  0  0  0  0
  -31.4716  -20.8694   19.1323 C   0  0  0  0  0  0  0  0  0  0  0  0
  -29.5194  -12.6007   18.2157 C   0  0  0  0  0  0  0  0  0  0  0  0
  -29.1679  -25.1072    9.0886 C   0  0  0  0  0  0  0  0  0  0  0  0
  -28.0962  -12.2635   18.6661 C   0  0  0  0  0  0  0  0  0  0  0  0
  -30.4705  -12.7456   19.4023 C   0  0  0  0  0  0  0  0  0  0  0  0
  -28.6032  -13.3443   20.8936 C   0  0  0  0  0  0  0  0  0  0  0  0
  -28.8060  -24.2223   10.2876 C   0  0  1  0  0  0  0  0  0  0  0  0
  -27.8813  -26.4714   13.2065 C   0  0  1  0  0  0  0  0  0  0  0  0
  -27.5948  -13.2524   19.7368 C   0  0  2  0  0  0  0  0  0  0  0  0
  -31.2152  -22.2539   19.7578 C   0  0  1  0  0  0  0  0  0  0  0  0
  -29.4088  -32.6336   17.6446 C   0  0  0  0  0  0  0  0  0  0  0  0
  -31.9203  -28.7024   12.9426 C   0  0  0  0  0  0  0  0  0  0  0  0
  -32.2711  -30.5032   14.6462 C   0  0  0  0  0  0  0  0  0  0  0  0
  -30.7041  -30.8784   12.7418 C   0  0  0  0  0  0  0  0  0  0  0  0
  -29.7231  -23.5218   21.3885 C   0  0  0  0  0  0  0  0  0  0  0  0
  -26.6922  -30.0337   18.2247 C   0  0  0  0  0  0  0  0  0  0  0  0
  -30.6994  -23.1927   18.6608 C   0  0  0  0  0  0  0  0  0  1  0  0
  -30.0373  -29.3034   14.6037 C   0  0  1  0  0  0  0  0  0  0  0  0
  -28.4657  -31.5043   17.2600 C   0  0  2  0  0  0  0  0  0  0  0  0
  -31.2227  -29.8215   13.7412 C   0  0  0  0  0  0  0  0  0  0  0  0
  -25.8387  -11.6033   20.2639 N   0  0  0  0  0  0  0  0  0  0  0  0
  -26.2023  -12.8964   20.2228 N   0  0  0  0  0  0  0  0  0  0  0  0
  -28.7366  -27.2605   14.0953 N   0  0  0  0  0  0  0  0  0  0  0  0
  -29.9324  -13.7010   20.3731 N   0  0  0  0  0  0  0  0  0  0  0  0
  -25.4284  -15.0911   20.6646 N   0  0  0  0  0  0  0  0  0  0  0  0
  -21.9005  -12.4991   21.7745 N   0  0  0  0  0  0  0  0  0  0  0  0
  -30.0637  -15.6904   21.6330 N   0  0  0  0  0  0  0  0  0  0  0  0
  -28.1248  -24.9987   11.3013 N   0  0  0  0  0  0  0  0  0  0  0  0
  -29.3409  -30.3457   15.3500 N   0  0  0  0  0  0  0  0  0  0  0  0
  -30.2022  -22.1668   20.9066 N   0  3  2  0  0  0  0  0  0  0  0  0
  -27.6773  -31.1195   18.4647 N   0  3  0  0  0  0  0  0  0  0  0  0
  -22.6519  -14.6613   21.6356 O   0  0  0  0  0  0  0  0  0  0  0  0
  -30.0043  -25.8519   12.3793 O   0  0  0  0  0  0  0  0  0  0  0  0
  -28.4046  -29.2254   12.8849 O   0  0  0  0  0  0  0  0  0  0  0  0
  -29.6820  -29.4255   17.4509 O   0  0  0  0  0  0  0  0  0  0  0  0
  -31.8038  -15.0514   20.2382 O   0  0  0  0  0  0  0  0  0  0  0  0
  -21.6700   -6.9416   21.4640 O   0  0  0  0  0  0  0  0  0  0  0  0
  -29.5064  -22.6464   18.1354 O   0  0  0  0  0  0  0  0  0  1  0  0
  -16.4471   -6.8555   19.6984 F   0  0  0  0  0  0  0  0  0  0  0  0
  -28.9853  -19.8442   23.7523 F   0  0  0  0  0  0  0  0  0  0  0  0
  -20.8489   -5.1211   19.5524 F   0  0  0  0  0  0  0  0  0  0  0  0
  1  2  1  0  0  0  0
  1  5  2  0  0  0  0
  2  6  2  0  0  0  0
  3  8  2  0  0  0  0
  3 17  1  0  0  0  0
  4  9  1  0  0  0  0
  4 17  2  0  0  0  0
  5 19  1  0  0  0  0
  6 21  1  0  0  0  0
  7 10  2  0  0  0  0
  7 20  1  0  0  0  0
  8 26  1  0  0  0  0
  9 26  2  0  0  0  0
 10 27  1  0  0  0  0
 11 12  2  0  0  0  0
 11 28  1  0  0  0  0
 12 29  1  0  0  0  0
 13 22  1  0  0  0  0
 13 25  2  0  0  0  0
 14 23  1  0  0  0  0
 14 27  2  0  0  0  0
 15 25  1  0  0  0  0
 15 30  2  0  0  0  0
 16 29  2  0  0  0  0
 16 31  1  0  0  0  0
 17 32  1  0  0  0  0
 18 32  1  0  0  0  0
 18 33  2  0  0  0  0
 18 34  1  0  0  0  0
 19 21  2  0  0  0  0
 19 39  1  0  0  0  0
 20 23  2  0  0  0  0
 20 40  1  0  0  0  0
 21 51  1  0  0  0  0
 22 24  2  0  0  0  0
 22 41  1  0  0  0  0
 23 42  1  0  0  0  0
 24 30  1  0  0  0  0
 24 43  1  0  0  0  0
 25 71  1  0  0  0  0
 26 81  1  0  0  0  0
 27 82  1  0  0  0  0
 28 31  2  0  0  0  0
 28 81  1  0  0  0  0
 29 83  1  0  0  0  0
 30 84  1  0  0  0  0
 31 85  1  0  0  0  0
 32 65  2  0  0  0  0
 33 66  1  0  0  0  0
 33 69  1  0  0  0  0
 34 70  1  0  0  0  0
 34 76  2  0  0  0  0
 35 52  1  0  0  0  0
 35 72  1  0  0  0  0
 35 77  2  0  0  0  0
 36 62  1  0  0  0  0
 36 67  1  0  0  0  0
 36 78  2  0  0  0  0
 37 63  1  0  0  0  0
 37 73  1  0  0  0  0
 37 79  2  0  0  0  0
 38 68  1  0  0  0  0
 38 71  1  0  0  0  0
 38 80  2  0  0  0  0
 39 44  1  0  0  0  0
 40 52  1  0  0  0  0
 41 45  1  0  0  0  0
 42 67  1  0  0  0  0
 43 74  1  0  0  0  0
 44 47  1  0  0  0  0
 45 54  1  0  0  0  0
 46 48  1  0  0  0  0
 46 49  1  0  0  0  0
 47 51  1  0  0  0  0
 48 53  1  0  0  0  0
 49 68  1  0  0  0  0
 50 53  1  0  0  0  0
 50 68  1  0  0  0  0
 51 72  1  0  0  0  0
 52 67  1  0  0  0  0
 53 66  1  0  0  0  0
 54 61  1  0  0  0  0
 54 74  1  0  0  0  0
 55 63  1  0  0  0  0
 56 64  1  0  0  0  0
 57 64  1  0  0  0  0
 58 64  1  0  0  0  0
 59 74  1  0  0  0  0
 60 75  1  0  0  0  0
 61 82  1  0  0  0  0
 62 64  1  0  0  0  0
 62 73  1  0  0  0  0
 63 75  1  0  0  0  0
 65 66  1  0  0  0  0
M  CHG  2  74   1  75   1
M  ISO  4  38 100  61 101  71 100  82 101
M  END
> <Batch ID>
0026

> <Smiles>
CNC(C)C(=O)NC(C(=O)N1Cc2cc([101O:1][101CH2:1]C3CCc4cc([100NH:0][100C:0](=O)N5CCCC(n6nc(-c7ccc(Oc8ccc(F)cc8F)cc7)c(C(N)=O)c6N)C5)cc(F)c4CN3C)ccc2CC1C(=O)NC1CCCc2ccccc21)C(C)(C)C

> <Shape>
0.187

> <Color>
0.190

> <Negative vol penalty>
0.000

$$$$

  -OEChem-04042321253D

 86 95  0     1  0  0  0  0  0999 V2000
  -29.2609  -12.2349   19.3998 C   0  0  0  0  0  0  0  0  0  0  0  0
  -29.2943  -13.6131   19.2127 C   0  0  0  0  0  0  0  0  0  0  0  0
  -18.5347  -28.4874   23.5814 C   0  0  0  0  0  0  0  0  0  0  0  0
  -29.7538  -25.1414   19.6105 C   0  0  0  0  0  0  0  0  0  0  0  0
  -28.1305  -24.2752   21.1762 C   0  0  0  0  0  0  0  0  0  0  0  0
  -28.0638  -11.6081   19.7433 C   0  0  0  0  0  0  0  0  0  0  0  0
  -28.1303  -14.3651   19.3680 C   0  0  0  0  0  0  0  0  0  0  0  0
  -25.9010  -20.8199   21.5319 C   0  0  0  0  0  0  0  0  0  0  0  0
  -19.8512  -28.8150   23.2573 C   0  0  0  0  0  0  0  0  0  0  0  0
  -30.7182  -24.2804   20.1339 C   0  0  0  0  0  0  0  0  0  0  0  0
  -29.0949  -23.4141   21.6997 C   0  0  0  0  0  0  0  0  0  0  0  0
  -25.1234  -21.8923   21.0972 C   0  0  0  0  0  0  0  0  0  0  0  0
  -31.0326  -20.7324   23.2072 C   0  0  0  0  0  0  0  0  0  0  0  0
  -17.9067  -27.4149   22.9481 C   0  0  0  0  0  0  0  0  0  0  0  0
  -30.6628  -19.4077   23.4392 C   0  0  0  0  0  0  0  0  0  0  0  0
  -23.1301  -20.7118   21.7699 C   0  0  0  0  0  0  0  0  0  0  0  0
  -30.1508  -19.1397   21.0933 C   0  0  0  0  0  0  0  0  0  0  0  0
  -28.4599  -25.1389   20.1317 C   0  0  0  0  0  0  0  0  0  0  0  0
  -26.9941  -26.0747   18.2653 C   0  0  0  0  0  0  0  0  0  0  0  0
  -26.8867  -12.3539   19.9124 C   0  0  0  0  0  0  0  0  0  0  0  0
  -25.2973  -19.6789   22.0797 C   0  0  0  0  0  0  0  0  0  0  0  0
  -26.9161  -13.7474   19.7129 C   0  0  0  0  0  0  0  0  0  0  0  0
  -23.9025  -19.6273   22.2131 C   0  0  0  0  0  0  0  0  0  0  0  0
  -19.9117  -26.9977   21.6663 C   0  0  0  0  0  0  0  0  0  0  0  0
  -20.5397  -28.0702   22.2997 C   0  0  0  0  0  0  0  0  0  0  0  0
  -30.3888  -23.4167   21.1785 C   0  0  0  0  0  0  0  0  0  0  0  0
  -23.7376  -21.8372   21.2135 C   0  0  0  0  0  0  0  0  0  0  0  0
  -30.9614  -21.2609   21.9182 C   0  0  0  0  0  0  0  0  0  0  0  0
  -30.2220  -18.6113   22.3822 C   0  0  0  0  0  0  0  0  0  0  0  0
  -18.5952  -26.6701   21.9906 C   0  0  0  0  0  0  0  0  0  0  0  0
  -30.5205  -20.4646   20.8613 C   0  0  0  0  0  0  0  0  0  0  0  0
  -27.4634  -26.0286   19.5918 C   0  0  0  0  0  0  0  0  0  0  0  0
  -26.0614  -27.0830   18.2660 C   0  0  0  0  0  0  0  0  0  0  0  0
  -21.7907  -25.5215   20.9972 C   0  0  0  0  0  0  0  0  0  0  0  0
  -27.3676  -25.2773   17.1338 C   0  0  0  0  0  0  0  0  0  0  0  0
  -25.1766  -16.6038   21.2838 C   0  0  0  0  0  0  0  0  0  0  0  0
  -23.6475  -16.3282   24.1313 C   0  0  0  0  0  0  0  0  0  0  0  0
  -21.8006  -17.8180   26.5841 C   0  0  0  0  0  0  0  0  0  0  0  0
  -22.6255  -29.4629   22.5362 C   0  0  0  0  0  0  0  0  0  0  0  0
  -25.6065  -11.6260   20.2379 C   0  0  0  0  0  0  0  0  0  0  0  0
  -26.1518  -18.5416   22.5684 C   0  0  0  0  0  0  0  0  0  0  0  0
  -23.2068  -18.4337   22.8128 C   0  0  0  0  0  0  0  0  0  0  0  0
  -24.4982  -12.5422   20.7503 C   0  0  0  0  0  0  0  0  0  0  0  0
  -20.8207  -25.6033   18.2327 C   0  0  0  0  0  0  0  0  0  0  0  0
  -24.9802  -31.1826   20.4929 C   0  0  0  0  0  0  0  0  0  0  0  0
  -24.3824  -13.7833   19.8710 C   0  0  0  0  0  0  0  0  0  0  0  0
  -21.7915  -24.5242   18.6613 C   0  0  0  0  0  0  0  0  0  0  0  0
  -25.8377  -30.0598   19.9044 C   0  0  0  0  0  0  0  0  0  0  0  0
  -19.9126  -25.9720   19.3929 C   0  0  0  0  0  0  0  0  0  0  0  0
  -24.5709  -30.8873   21.9348 C   0  0  0  0  0  0  0  0  0  0  0  0
  -24.7818  -28.4625   21.5538 C   0  0  0  0  0  0  0  0  0  0  0  0
  -25.6797  -14.6005   19.8966 C   0  0  1  0  0  0  0  0  0  0  0  0
  -22.6378  -25.0547   19.8087 C   0  0  2  0  0  0  0  0  0  0  0  0
  -25.3998  -17.2161   22.6377 C   0  0  1  0  0  0  0  0  0  0  0  0
  -25.1644  -28.6847   20.0815 C   0  0  2  0  0  0  0  0  0  0  0  0
  -20.6663  -17.3281   28.7684 C   0  0  0  0  0  0  0  0  0  0  0  0
  -21.3875  -14.9221   22.6396 C   0  0  0  0  0  0  0  0  0  0  0  0
  -19.9233  -15.3117   24.6327 C   0  0  0  0  0  0  0  0  0  0  0  0
  -21.9716  -13.9042   24.8480 C   0  0  0  0  0  0  0  0  0  0  0  0
  -23.4865  -19.7732   28.0310 C   0  0  0  0  0  0  0  0  0  0  0  0
  -23.6631  -24.0037   20.2354 C   0  0  0  0  0  0  0  0  0  1  0  0
  -22.2098  -16.4074   24.5848 C   0  0  1  0  0  0  0  0  0  0  0  0
  -21.9416  -17.8117   28.0956 C   0  0  2  0  0  0  0  0  0  0  0  0
  -21.3857  -15.1582   24.1632 C   0  0  0  0  0  0  0  0  0  0  0  0
  -26.8774  -26.9356   20.3779 N   0  0  0  0  0  0  0  0  0  0  0  0
  -26.0303  -27.5612   19.5429 N   0  0  0  0  0  0  0  0  0  0  0  0
  -20.6066  -26.2118   20.6694 N   0  0  0  0  0  0  0  0  0  0  0  0
  -24.0854  -17.3444   23.2702 N   0  0  0  0  0  0  0  0  0  0  0  0
  -23.9361  -29.5705   22.0249 N   0  0  0  0  0  0  0  0  0  0  0  0
  -25.2732  -27.5985   17.2988 N   0  0  0  0  0  0  0  0  0  0  0  0
  -26.6615  -24.0915   16.8897 N   0  0  0  0  0  0  0  0  0  0  0  0
  -21.8760  -28.4230   21.9874 N   0  0  0  0  0  0  0  0  0  0  0  0
  -25.7704  -15.3667   21.1210 N   0  0  0  0  0  0  0  0  0  0  0  0
  -22.2481  -16.6399   26.0245 N   0  0  0  0  0  0  0  0  0  0  0  0
  -22.2444  -19.1834   28.5933 N   0  3  0  0  0  0  0  0  0  0  0  0
  -22.2011  -25.3403   22.1466 O   0  0  0  0  0  0  0  0  0  0  0  0
  -28.3108  -25.5982   16.3716 O   0  0  0  0  0  0  0  0  0  0  0  0
  -24.5135  -17.2084   20.4492 O   0  0  0  0  0  0  0  0  0  0  0  0
  -24.3580  -15.4030   24.5322 O   0  0  0  0  0  0  0  0  0  0  0  0
  -21.3361  -18.7710   25.9624 O   0  0  0  0  0  0  0  0  0  0  0  0
  -22.1903  -30.2532   23.3778 O   0  0  0  0  0  0  0  0  0  0  0  0
  -31.3296  -22.5761   21.6894 O   0  0  0  0  0  0  0  0  0  0  0  0
  -22.9761  -22.8823   20.7895 O   0  0  0  0  0  0  0  0  0  1  0  0
  -29.8684  -17.3387   22.6049 F   0  0  0  0  0  0  0  0  0  0  0  0
  -17.9795  -25.6423   21.3886 F   0  0  0  0  0  0  0  0  0  0  0  0
  -30.4511  -20.9663   19.6206 F   0  0  0  0  0  0  0  0  0  0  0  0
  1  2  1  0  0  0  0
  1  6  2  0  0  0  0
  2  7  2  0  0  0  0
  3  9  2  0  0  0  0
  3 14  1  0  0  0  0
  4 10  2  0  0  0  0
  4 18  1  0  0  0  0
  5 11  1  0  0  0  0
  5 18  2  0  0  0  0
  6 20  1  0  0  0  0
  7 22  1  0  0  0  0
  8 12  2  0  0  0  0
  8 21  1  0  0  0  0
  9 25  1  0  0  0  0
 10 26  1  0  0  0  0
 11 26  2  0  0  0  0
 12 27  1  0  0  0  0
 13 15  2  0  0  0  0
 13 28  1  0  0  0  0
 14 30  2  0  0  0  0
 15 29  1  0  0  0  0
 16 23  1  0  0  0  0
 16 27  2  0  0  0  0
 17 29  2  0  0  0  0
 17 31  1  0  0  0  0
 18 32  1  0  0  0  0
 19 32  1  0  0  0  0
 19 33  2  0  0  0  0
 19 35  1  0  0  0  0
 20 22  2  0  0  0  0
 20 40  1  0  0  0  0
 21 23  2  0  0  0  0
 21 41  1  0  0  0  0
 22 52  1  0  0  0  0
 23 42  1  0  0  0  0
 24 25  2  0  0  0  0
 24 30  1  0  0  0  0
 24 67  1  0  0  0  0
 25 72  1  0  0  0  0
 26 82  1  0  0  0  0
 27 83  1  0  0  0  0
 28 31  2  0  0  0  0
 28 82  1  0  0  0  0
 29 84  1  0  0  0  0
 30 85  1  0  0  0  0
 31 86  1  0  0  0  0
 32 65  2  0  0  0  0
 33 66  1  0  0  0  0
 33 70  1  0  0  0  0
 34 53  1  0  0  0  0
 34 67  1  0  0  0  0
 34 76  2  0  0  0  0
 35 71  1  0  0  0  0
 35 77  2  0  0  0  0
 36 54  1  0  0  0  0
 36 73  1  0  0  0  0
 36 78  2  0  0  0  0
 37 62  1  0  0  0  0
 37 68  1  0  0  0  0
 37 79  2  0  0  0  0
 38 63  1  0  0  0  0
 38 74  1  0  0  0  0
 38 80  2  0  0  0  0
 39 69  1  0  0  0  0
 39 72  1  0  0  0  0
 39 81  2  0  0  0  0
 40 43  1  0  0  0  0
 41 54  1  0  0  0  0
 42 68  1  0  0  0  0
 43 46  1  0  0  0  0
 44 47  1  0  0  0  0
 44 49  1  0  0  0  0
 45 48  1  0  0  0  0
 45 50  1  0  0  0  0
 46 52  1  0  0  0  0
 47 53  1  0  0  0  0
 48 55  1  0  0  0  0
 49 67  1  0  0  0  0
 50 69  1  0  0  0  0
 51 55  1  0  0  0  0
 51 69  1  0  0  0  0
 52 73  1  0  0  0  0
 53 61  1  0  0  0  0
 54 68  1  0  0  0  0
 55 66  1  0  0  0  0
 56 63  1  0  0  0  0
 57 64  1  0  0  0  0
 58 64  1  0  0  0  0
 59 64  1  0  0  0  0
 60 75  1  0  0  0  0
 61 83  1  0  0  0  0
 62 64  1  0  0  0  0
 62 74  1  0  0  0  0
 63 75  1  0  0  0  0
 65 66  1  0  0  0  0
M  CHG  1  75   1
M  ISO  4  39 100  61 101  72 100  83 101
M  END
> <Batch ID>
0026

> <Smiles>
CNC(C)C(=O)NC(C(=O)N1Cc2cc([101O:1][101CH2:1]C3CCCN(c4c(F)cccc4[100NH:0][100C:0](=O)N4CCCC(n5nc(-c6ccc(Oc7ccc(F)cc7F)cc6)c(C(N)=O)c5N)C4)C3=O)ccc2CC1C(=O)NC1CCCc2ccccc21)C(C)(C)C

> <Shape>
0.217

> <Color>
0.071

> <Negative vol penalty>
0.000

$$$$

  -OEChem-04042321253D

 84 93  0     1  0  0  0  0  0999 V2000
  -16.1891  -31.1341   20.7526 C   0  0  0  0  0  0  0  0  0  0  0  0
  -17.4286  -31.7440   20.5877 C   0  0  0  0  0  0  0  0  0  0  0  0
  -25.3851  -13.7082   21.5525 C   0  0  0  0  0  0  0  0  0  0  0  0
  -26.0165  -13.7645   19.2212 C   0  0  0  0  0  0  0  0  0  0  0  0
  -16.0236  -30.1447   21.7209 C   0  0  0  0  0  0  0  0  0  0  0  0
  -18.5030  -31.3656   21.3920 C   0  0  0  0  0  0  0  0  0  0  0  0
  -25.5840  -28.7543   19.3752 C   0  0  0  0  0  0  0  0  0  0  0  0
  -30.3989  -24.0613   14.2725 C   0  0  0  0  0  0  0  0  0  0  0  0
  -24.4272  -12.7345   21.2697 C   0  0  0  0  0  0  0  0  0  0  0  0
  -25.0586  -12.7907   18.9383 C   0  0  0  0  0  0  0  0  0  0  0  0
  -26.8121  -28.1337   19.1453 C   0  0  0  0  0  0  0  0  0  0  0  0
  -24.3546   -9.4015   20.7052 C   0  0  0  0  0  0  0  0  0  0  0  0
  -24.2751   -8.3026   21.5606 C   0  0  0  0  0  0  0  0  0  0  0  0
  -30.7154  -23.1924   13.2283 C   0  0  0  0  0  0  0  0  0  0  0  0
  -26.6940  -27.0725   21.3151 C   0  0  0  0  0  0  0  0  0  0  0  0
  -29.9869  -21.3180   14.5673 C   0  0  0  0  0  0  0  0  0  0  0  0
  -21.9847   -8.8713   22.0781 C   0  0  0  0  0  0  0  0  0  0  0  0
  -26.1797  -14.2232   20.5283 C   0  0  0  0  0  0  0  0  0  0  0  0
  -28.2655  -15.1151   21.6952 C   0  0  0  0  0  0  0  0  0  0  0  0
  -17.0990  -29.7472   22.5309 C   0  0  0  0  0  0  0  0  0  0  0  0
  -24.8981  -28.5239   20.5709 C   0  0  0  0  0  0  0  0  0  0  0  0
  -18.3514  -30.3709   22.3730 C   0  0  0  0  0  0  0  0  0  0  0  0
  -25.4576  -27.6815   21.5457 C   0  0  0  0  0  0  0  0  0  0  0  0
  -29.8766  -23.5586   15.4642 C   0  0  0  0  0  0  0  0  0  0  0  0
  -29.6706  -22.1869   15.6116 C   0  0  0  0  0  0  0  0  0  0  0  0
  -24.2640  -12.2758   19.9625 C   0  0  0  0  0  0  0  0  0  0  0  0
  -27.3658  -27.2951   20.1130 C   0  0  0  0  0  0  0  0  0  0  0  0
  -23.2492  -10.2353   20.5363 C   0  0  0  0  0  0  0  0  0  0  0  0
  -23.0901   -8.0374   22.2470 C   0  0  0  0  0  0  0  0  0  0  0  0
  -22.0643   -9.9702   21.2228 C   0  0  0  0  0  0  0  0  0  0  0  0
  -30.5093  -21.8208   13.3756 C   0  0  0  0  0  0  0  0  0  0  0  0
  -27.1690  -15.2294   20.8198 C   0  0  0  0  0  0  0  0  0  0  0  0
  -28.8938  -16.3341   21.6196 C   0  0  0  0  0  0  0  0  0  0  0  0
  -28.6792  -14.0060   22.5042 C   0  0  0  0  0  0  0  0  0  0  0  0
  -21.8496  -29.2131   22.6464 C   0  0  0  0  0  0  0  0  0  0  0  0
  -22.4965  -26.2325   22.9755 C   0  0  0  0  0  0  0  0  0  0  0  0
  -23.2973  -22.9250   22.7381 C   0  0  0  0  0  0  0  0  0  0  0  0
  -28.8808  -20.3133   17.1116 C   0  0  0  0  0  0  0  0  0  0  0  0
  -16.8597  -28.7067   23.5962 C   0  0  0  0  0  0  0  0  0  0  0  0
  -23.6020  -29.2196   20.8869 C   0  0  0  0  0  0  0  0  0  0  0  0
  -24.7006  -27.4902   22.8315 C   0  0  0  0  0  0  0  0  0  0  0  0
  -18.1444  -28.0992   24.1537 C   0  0  0  0  0  0  0  0  0  0  0  0
  -27.2109  -20.7405   20.5399 C   0  0  0  0  0  0  0  0  0  0  0  0
  -19.1578  -29.1937   24.4728 C   0  0  0  0  0  0  0  0  0  0  0  0
  -27.7945  -19.5268   21.2592 C   0  0  0  0  0  0  0  0  0  0  0  0
  -30.2597  -25.7377   18.4812 C   0  0  0  0  0  0  0  0  0  0  0  0
  -27.8358  -25.4409   17.9488 C   0  0  0  0  0  0  0  0  0  0  0  0
  -28.0744  -21.1872   19.3670 C   0  0  0  0  0  0  0  0  0  0  0  0
  -30.6276  -25.2850   17.0709 C   0  0  0  0  0  0  0  0  0  0  0  0
  -28.2006  -24.9928   16.5369 C   0  0  0  0  0  0  0  0  0  0  0  0
  -28.0175  -18.7435   18.8370 C   0  0  0  0  0  0  0  0  0  0  0  0
  -19.5473  -29.9703   23.2093 C   0  0  1  0  0  0  0  0  0  0  0  0
  -22.6322  -28.3469   21.7036 C   0  0  1  0  0  0  0  0  0  0  0  0
  -28.4305  -18.5035   20.2975 C   0  0  2  0  0  0  0  0  0  0  0  0
  -28.8822  -26.3863   18.5275 C   0  0  0  0  0  0  0  0  0  1  0  0
  -22.6007  -20.6646   23.5764 C   0  0  0  0  0  0  0  0  0  0  0  0
  -23.7976  -26.8342   25.6679 C   0  0  0  0  0  0  0  0  0  0  0  0
  -23.9314  -24.3674   26.0744 C   0  0  0  0  0  0  0  0  0  0  0  0
  -21.7085  -25.4658   25.8010 C   0  0  0  0  0  0  0  0  0  0  0  0
  -22.7038  -21.9650   20.0023 C   0  0  0  0  0  0  0  0  0  0  0  0
  -23.2031  -25.1731   23.7829 C   0  0  1  0  0  0  0  0  0  0  0  0
  -22.4436  -21.6983   22.4721 C   0  0  2  0  0  0  0  0  0  0  0  0
  -23.1721  -25.4717   25.3084 C   0  0  0  0  0  0  0  0  0  0  0  0
  -27.1015  -16.4266   20.2315 N   0  0  0  0  0  0  0  0  0  0  0  0
  -28.1636  -17.0758   20.7382 N   0  0  0  0  0  0  0  0  0  0  0  0
  -29.5656  -24.4493   16.4996 N   0  0  0  0  0  0  0  0  0  0  0  0
  -23.2664  -27.3218   22.5498 N   0  0  0  0  0  0  0  0  0  0  0  0
  -28.3499  -20.1071   18.4085 N   0  0  0  0  0  0  0  0  0  0  0  0
  -29.9940  -16.8333   22.2219 N   0  0  0  0  0  0  0  0  0  0  0  0
  -29.5686  -13.0729   21.9543 N   0  0  0  0  0  0  0  0  0  0  0  0
  -29.1417  -21.6533   16.8134 N   0  0  0  0  0  0  0  0  0  0  0  0
  -20.4871  -29.2070   22.4164 N   0  0  0  0  0  0  0  0  0  0  0  0
  -22.5929  -23.9014   23.4104 N   0  0  0  0  0  0  0  0  0  0  0  0
  -22.8321  -21.0674   21.1790 N   0  3  0  0  0  0  0  0  0  0  0  0
  -28.2595  -13.8384   23.6744 O   0  0  0  0  0  0  0  0  0  0  0  0
  -22.4375  -29.8402   23.5198 O   0  0  0  0  0  0  0  0  0  0  0  0
  -21.2934  -26.1032   22.7323 O   0  0  0  0  0  0  0  0  0  0  0  0
  -24.4726  -23.0073   22.3882 O   0  0  0  0  0  0  0  0  0  0  0  0
  -29.0950  -19.3740   16.3424 O   0  0  0  0  0  0  0  0  0  0  0  0
  -23.3296  -11.3255   19.6862 O   0  0  0  0  0  0  0  0  0  0  0  0
  -28.5629  -26.6889   19.8803 O   0  0  0  0  0  0  0  0  0  1  0  0
  -23.0134   -6.9812   23.0672 F   0  0  0  0  0  0  0  0  0  0  0  0
  -20.9986  -10.7670   21.0637 F   0  0  0  0  0  0  0  0  0  0  0  0
  -30.8998  -20.7499   12.0863 Cl  0  0  0  0  0  0  0  0  0  0  0  0
  1  2  1  0  0  0  0
  1  5  2  0  0  0  0
  2  6  2  0  0  0  0
  3  9  2  0  0  0  0
  3 18  1  0  0  0  0
  4 10  1  0  0  0  0
  4 18  2  0  0  0  0
  5 20  1  0  0  0  0
  6 22  1  0  0  0  0
  7 11  2  0  0  0  0
  7 21  1  0  0  0  0
  8 14  2  0  0  0  0
  8 24  1  0  0  0  0
  9 26  1  0  0  0  0
 10 26  2  0  0  0  0
 11 27  1  0  0  0  0
 12 13  2  0  0  0  0
 12 28  1  0  0  0  0
 13 29  1  0  0  0  0
 14 31  1  0  0  0  0
 15 23  1  0  0  0  0
 15 27  2  0  0  0  0
 16 25  1  0  0  0  0
 16 31  2  0  0  0  0
 17 29  2  0  0  0  0
 17 30  1  0  0  0  0
 18 32  1  0  0  0  0
 19 32  1  0  0  0  0
 19 33  2  0  0  0  0
 19 34  1  0  0  0  0
 20 22  2  0  0  0  0
 20 39  1  0  0  0  0
 21 23  2  0  0  0  0
 21 40  1  0  0  0  0
 22 52  1  0  0  0  0
 23 41  1  0  0  0  0
 24 25  2  0  0  0  0
 24 66  1  0  0  0  0
 25 71  1  0  0  0  0
 26 80  1  0  0  0  0
 27 81  1  0  0  0  0
 28 30  2  0  0  0  0
 28 80  1  0  0  0  0
 29 82  1  0  0  0  0
 30 83  1  0  0  0  0
 31 84  1  0  0  0  0
 32 64  2  0  0  0  0
 33 65  1  0  0  0  0
 33 69  1  0  0  0  0
 34 70  1  0  0  0  0
 34 75  2  0  0  0  0
 35 53  1  0  0  0  0
 35 72  1  0  0  0  0
 35 76  2  0  0  0  0
 36 61  1  0  0  0  0
 36 67  1  0  0  0  0
 36 77  2  0  0  0  0
 37 62  1  0  0  0  0
 37 73  1  0  0  0  0
 37 78  2  0  0  0  0
 38 68  1  0  0  0  0
 38 71  1  0  0  0  0
 38 79  2  0  0  0  0
 39 42  1  0  0  0  0
 40 53  1  0  0  0  0
 41 67  1  0  0  0  0
 42 44  1  0  0  0  0
 43 45  1  0  0  0  0
 43 48  1  0  0  0  0
 44 52  1  0  0  0  0
 45 54  1  0  0  0  0
 46 49  1  0  0  0  0
 46 55  1  0  0  0  0
 47 50  1  0  0  0  0
 47 55  1  0  0  0  0
 48 68  1  0  0  0  0
 49 66  1  0  0  0  0
 50 66  1  0  0  0  0
 51 54  1  0  0  0  0
 51 68  1  0  0  0  0
 52 72  1  0  0  0  0
 53 67  1  0  0  0  0
 54 65  1  0  0  0  0
 55 81  1  0  0  0  0
 56 62  1  0  0  0  0
 57 63  1  0  0  0  0
 58 63  1  0  0  0  0
 59 63  1  0  0  0  0
 60 74  1  0  0  0  0
 61 63  1  0  0  0  0
 61 73  1  0  0  0  0
 62 74  1  0  0  0  0
 64 65  1  0  0  0  0
M  CHG  1  74   1
M  ISO  4  38 100  55 101  71 100  81 101
M  END
> <Batch ID>
0026

> <Smiles>
CNC(C)C(=O)NC(C(=O)N1Cc2cc([101O:1][101CH:1]3CCN(c4ccc(Cl)cc4[100NH:0][100C:0](=O)N4CCCC(n5nc(-c6ccc(Oc7ccc(F)cc7F)cc6)c(C(N)=O)c5N)C4)CC3)ccc2CC1C(=O)NC1CCCc2ccccc21)C(C)(C)C

> <Shape>
0.235

> <Color>
0.095

> <Negative vol penalty>
0.000

$$$$

  -OEChem-04042321253D

 85 94  0     1  0  0  0  0  0999 V2000
  -29.0168  -35.2043   23.0639 C   0  0  0  0  0  0  0  0  0  0  0  0
  -29.4755  -33.9057   22.8674 C   0  0  0  0  0  0  0  0  0  0  0  0
  -23.9636  -11.1220   23.7158 C   0  0  0  0  0  0  0  0  0  0  0  0
  -24.0547  -13.4953   24.1586 C   0  0  0  0  0  0  0  0  0  0  0  0
  -27.6739  -35.4302   23.3634 C   0  0  0  0  0  0  0  0  0  0  0  0
  -28.5918  -32.8321   22.9713 C   0  0  0  0  0  0  0  0  0  0  0  0
  -28.6956  -27.6496   19.7099 C   0  0  0  0  0  0  0  0  0  0  0  0
  -32.3262  -17.0034   21.1508 C   0  0  0  0  0  0  0  0  0  0  0  0
  -23.4240  -10.9061   24.9838 C   0  0  0  0  0  0  0  0  0  0  0  0
  -23.5150  -13.2795   25.4266 C   0  0  0  0  0  0  0  0  0  0  0  0
  -29.1911  -26.3763   19.9876 C   0  0  0  0  0  0  0  0  0  0  0  0
  -20.4114  -11.1965   26.4913 C   0  0  0  0  0  0  0  0  0  0  0  0
  -19.3217  -10.3318   26.5934 C   0  0  0  0  0  0  0  0  0  0  0  0
  -32.9828  -18.1284   21.6496 C   0  0  0  0  0  0  0  0  0  0  0  0
  -26.9900  -25.6787   20.6861 C   0  0  0  0  0  0  0  0  0  0  0  0
  -20.5937   -8.9033   28.0696 C   0  0  0  0  0  0  0  0  0  0  0  0
  -24.2790  -12.4167   23.3032 C   0  0  0  0  0  0  0  0  0  0  0  0
  -24.1325  -12.8901   20.8008 C   0  0  0  0  0  0  0  0  0  0  0  0
  -26.7713  -34.3595   23.4615 C   0  0  0  0  0  0  0  0  0  0  0  0
  -27.3436  -27.9506   19.9289 C   0  0  0  0  0  0  0  0  0  0  0  0
  -27.2359  -33.0437   23.2737 C   0  0  0  0  0  0  0  0  0  0  0  0
  -26.4793  -26.9557   20.4079 C   0  0  0  0  0  0  0  0  0  0  0  0
  -30.8556  -19.2290   21.9671 C   0  0  0  0  0  0  0  0  0  0  0  0
  -30.9343  -16.9912   21.0600 C   0  0  0  0  0  0  0  0  0  0  0  0
  -23.1997  -11.9848   25.8392 C   0  0  0  0  0  0  0  0  0  0  0  0
  -28.3389  -25.3915   20.4785 C   0  0  0  0  0  0  0  0  0  0  0  0
  -21.5923  -10.9146   27.1783 C   0  0  0  0  0  0  0  0  0  0  0  0
  -19.4128   -9.1852   27.3826 C   0  0  0  0  0  0  0  0  0  0  0  0
  -21.6834   -9.7680   27.9674 C   0  0  0  0  0  0  0  0  0  0  0  0
  -30.1990  -18.1040   21.4682 C   0  0  0  0  0  0  0  0  0  0  0  0
  -32.2475  -19.2412   22.0578 C   0  0  0  0  0  0  0  0  0  0  0  0
  -24.8370  -12.6403   21.9937 C   0  0  0  0  0  0  0  0  0  0  0  0
  -25.1109  -13.0313   19.8473 C   0  0  0  0  0  0  0  0  0  0  0  0
  -22.7199  -12.9860   20.5748 C   0  0  0  0  0  0  0  0  0  0  0  0
  -25.7731  -29.9907   21.7932 C   0  0  0  0  0  0  0  0  0  0  0  0
  -23.1956  -28.9001   20.1532 C   0  0  0  0  0  0  0  0  0  0  0  0
  -21.7794  -26.4015   18.3099 C   0  0  0  0  0  0  0  0  0  0  0  0
  -30.8536  -14.6627   20.1018 C   0  0  0  0  0  0  0  0  0  0  0  0
  -25.3389  -34.6495   23.8339 C   0  0  0  0  0  0  0  0  0  0  0  0
  -26.8190  -29.3211   19.5991 C   0  0  0  0  0  0  0  0  0  0  0  0
  -25.0154  -27.2221   20.6411 C   0  0  0  0  0  0  0  0  0  0  0  0
  -24.3900  -33.4862   23.5566 C   0  0  0  0  0  0  0  0  0  0  0  0
  -29.5637  -11.6053   18.8113 C   0  0  0  0  0  0  0  0  0  0  0  0
  -24.9853  -32.1782   24.0682 C   0  0  0  0  0  0  0  0  0  0  0  0
  -28.1390  -11.5494   19.3674 C   0  0  0  0  0  0  0  0  0  0  0  0
  -28.6046  -21.6605   23.5828 C   0  0  0  0  0  0  0  0  0  0  0  0
  -30.5410  -12.2142   19.8152 C   0  0  0  0  0  0  0  0  0  0  0  0
  -29.5913  -20.5028   23.7189 C   0  0  0  0  0  0  0  0  0  0  0  0
  -29.7196  -21.4127   21.4799 C   0  0  0  0  0  0  0  0  0  0  0  0
  -28.7221  -13.4683   20.9052 C   0  0  0  0  0  0  0  0  0  0  0  0
  -26.3029  -31.8549   23.3535 C   0  0  1  0  0  0  0  0  0  0  0  0
  -25.5339  -29.6647   20.3460 C   0  0  1  0  0  0  0  0  0  0  0  0
  -29.1893  -22.4843   22.4391 C   0  0  1  0  0  0  0  0  0  0  0  0
  -27.6898  -12.9222   19.9053 C   0  0  2  0  0  0  0  0  0  0  0  0
  -19.6472  -25.7821   17.1405 C   0  0  0  0  0  0  0  0  0  0  0  0
  -21.9021  -28.2789   22.8460 C   0  0  0  0  0  0  0  0  0  0  0  0
  -20.2521  -26.8319   21.6409 C   0  0  0  0  0  0  0  0  0  0  0  0
  -20.3564  -29.2757   21.1514 C   0  0  0  0  0  0  0  0  0  0  0  0
  -23.1330  -26.2322   15.6835 C   0  0  0  0  0  0  0  0  0  0  0  0
  -28.1789  -23.4181   21.7961 C   0  0  0  0  0  0  0  0  0  1  0  0
  -22.2140  -27.7677   20.3345 C   0  0  1  0  0  0  0  0  0  0  0  0
  -21.0175  -26.4260   16.9971 C   0  0  2  0  0  0  0  0  0  0  0  0
  -21.2091  -28.0338   21.4907 C   0  0  0  0  0  0  0  0  0  0  0  0
  -26.1608  -12.6230   21.8168 N   0  0  0  0  0  0  0  0  0  0  0  0
  -26.2959  -12.8637   20.5015 N   0  0  0  0  0  0  0  0  0  0  0  0
  -30.1048  -20.3150   22.3644 N   0  0  3  0  0  0  0  0  0  0  0  0
  -24.5515  -28.5795   20.3095 N   0  0  0  0  0  0  0  0  0  0  0  0
  -30.0521  -13.5150   20.2777 N   0  0  0  0  0  0  0  0  0  0  0  0
  -25.0647  -13.2812   18.5215 N   0  0  0  0  0  0  0  0  0  0  0  0
  -21.8557  -12.8150   21.6649 N   0  0  0  0  0  0  0  0  0  0  0  0
  -30.2709  -15.8473   20.5509 N   0  0  0  0  0  0  0  0  0  0  0  0
  -26.0442  -31.3244   22.0321 N   0  0  0  0  0  0  0  0  0  0  0  0
  -21.5868  -27.5590   19.0339 N   0  0  0  0  0  0  0  0  0  0  0  0
  -21.7746  -25.6906   15.9450 N   0  3  0  0  0  0  0  0  0  0  0  0
  -22.2376  -13.2002   19.4368 O   0  0  0  0  0  0  0  0  0  0  0  0
  -25.7146  -29.0984   22.6311 O   0  0  0  0  0  0  0  0  0  0  0  0
  -22.7753  -30.0262   19.8759 O   0  0  0  0  0  0  0  0  0  0  0  0
  -22.4730  -25.4491   18.6598 O   0  0  0  0  0  0  0  0  0  0  0  0
  -31.9632  -14.6034   19.5657 O   0  0  0  0  0  0  0  0  0  0  0  0
  -22.6729  -11.7745   27.0765 O   0  0  0  0  0  0  0  0  0  0  0  0
  -28.8201  -24.1481   20.7509 O   0  0  0  0  0  0  0  0  0  1  0  0
  -18.3658   -8.3557   27.4818 F   0  0  0  0  0  0  0  0  0  0  0  0
  -22.8148   -9.4926   28.6306 F   0  0  0  0  0  0  0  0  0  0  0  0
  -28.8600  -18.0917   21.3789 F   0  0  0  0  0  0  0  0  0  0  0  0
  -33.1009  -20.6120   22.6716 Cl  0  0  0  0  0  0  0  0  0  0  0  0
  1  2  1  0  0  0  0
  1  5  2  0  0  0  0
  2  6  2  0  0  0  0
  3  9  2  0  0  0  0
  3 17  1  0  0  0  0
  4 10  1  0  0  0  0
  4 17  2  0  0  0  0
  5 19  1  0  0  0  0
  6 21  1  0  0  0  0
  7 11  2  0  0  0  0
  7 20  1  0  0  0  0
  8 14  1  0  0  0  0
  8 24  2  0  0  0  0
  9 25  1  0  0  0  0
 10 25  2  0  0  0  0
 11 26  1  0  0  0  0
 12 13  2  0  0  0  0
 12 27  1  0  0  0  0
 13 28  1  0  0  0  0
 14 31  2  0  0  0  0
 15 22  1  0  0  0  0
 15 26  2  0  0  0  0
 16 28  2  0  0  0  0
 16 29  1  0  0  0  0
 17 32  1  0  0  0  0
 18 32  1  0  0  0  0
 18 33  2  0  0  0  0
 18 34  1  0  0  0  0
 19 21  2  0  0  0  0
 19 39  1  0  0  0  0
 20 22  2  0  0  0  0
 20 40  1  0  0  0  0
 21 51  1  0  0  0  0
 22 41  1  0  0  0  0
 23 30  2  0  0  0  0
 23 31  1  0  0  0  0
 23 66  1  0  0  0  0
 24 30  1  0  0  0  0
 24 71  1  0  0  0  0
 25 80  1  0  0  0  0
 26 81  1  0  0  0  0
 27 29  2  0  0  0  0
 27 80  1  0  0  0  0
 28 82  1  0  0  0  0
 29 83  1  0  0  0  0
 30 84  1  0  0  0  0
 31 85  1  0  0  0  0
 32 64  2  0  0  0  0
 33 65  1  0  0  0  0
 33 69  1  0  0  0  0
 34 70  1  0  0  0  0
 34 75  2  0  0  0  0
 35 52  1  0  0  0  0
 35 72  1  0  0  0  0
 35 76  2  0  0  0  0
 36 61  1  0  0  0  0
 36 67  1  0  0  0  0
 36 77  2  0  0  0  0
 37 62  1  0  0  0  0
 37 73  1  0  0  0  0
 37 78  2  0  0  0  0
 38 68  1  0  0  0  0
 38 71  1  0  0  0  0
 38 79  2  0  0  0  0
 39 42  1  0  0  0  0
 40 52  1  0  0  0  0
 41 67  1  0  0  0  0
 42 44  1  0  0  0  0
 43 45  1  0  0  0  0
 43 47  1  0  0  0  0
 44 51  1  0  0  0  0
 45 54  1  0  0  0  0
 46 48  1  0  0  0  0
 46 53  1  0  0  0  0
 47 68  1  0  0  0  0
 48 66  1  0  0  0  0
 49 53  1  0  0  0  0
 49 66  1  0  0  0  0
 50 54  1  0  0  0  0
 50 68  1  0  0  0  0
 51 72  1  0  0  0  0
 52 67  1  0  0  0  0
 53 60  1  0  0  0  0
 54 65  1  0  0  0  0
 55 62  1  0  0  0  0
 56 63  1  0  0  0  0
 57 63  1  0  0  0  0
 58 63  1  0  0  0  0
 59 74  1  0  0  0  0
 60 81  1  0  0  0  0
 61 63  1  0  0  0  0
 61 73  1  0  0  0  0
 62 74  1  0  0  0  0
 64 65  1  0  0  0  0
M  CHG  1  74   1
M  ISO  4  38 100  60 101  71 100  81 101
M  END
> <Batch ID>
0026

> <Smiles>
CNC(C)C(=O)NC(C(=O)N1Cc2cc([101O:1][101CH2:1]C3CCN(c4c(Cl)ccc([100NH:0][100C:0](=O)N5CCCC(n6nc(-c7ccc(Oc8ccc(F)cc8F)cc7)c(C(N)=O)c6N)C5)c4F)C3)ccc2CC1C(=O)NC1CCCc2ccccc21)C(C)(C)C

> <Shape>
0.258

> <Color>
0.089

> <Negative vol penalty>
0.000

$$$$

  -OEChem-04042321253D

 88 97  0     1  0  0  0  0  0999 V2000
  -35.2177  -29.7722   19.3688 C   0  0  0  0  0  0  0  0  0  0  0  0
  -34.7612  -28.4750   19.1582 C   0  0  0  0  0  0  0  0  0  0  0  0
  -23.3115   -9.7151   19.9286 C   0  0  0  0  0  0  0  0  0  0  0  0
  -23.7644   -9.9265   22.2924 C   0  0  0  0  0  0  0  0  0  0  0  0
  -34.3745  -30.7219   19.9441 C   0  0  0  0  0  0  0  0  0  0  0  0
  -33.4615  -28.1265   19.5237 C   0  0  0  0  0  0  0  0  0  0  0  0
  -31.1050  -25.4056   15.9616 C   0  0  0  0  0  0  0  0  0  0  0  0
  -29.2970  -17.9790   23.3922 C   0  0  0  0  0  0  0  0  0  0  0  0
  -29.6082  -19.3365   23.3154 C   0  0  0  0  0  0  0  0  0  0  0  0
  -22.6377   -8.5169   20.1648 C   0  0  0  0  0  0  0  0  0  0  0  0
  -23.0906   -8.7282   22.5286 C   0  0  0  0  0  0  0  0  0  0  0  0
  -31.4343  -24.0538   15.8711 C   0  0  0  0  0  0  0  0  0  0  0  0
  -23.7205   -5.4184   22.2468 C   0  0  0  0  0  0  0  0  0  0  0  0
  -24.3190   -4.4969   23.1059 C   0  0  0  0  0  0  0  0  0  0  0  0
  -29.4358  -23.4910   17.0993 C   0  0  0  0  0  0  0  0  0  0  0  0
  -30.2087  -17.6447   21.1799 C   0  0  0  0  0  0  0  0  0  0  0  0
  -22.4021   -4.6184   24.5716 C   0  0  0  0  0  0  0  0  0  0  0  0
  -23.8749  -10.4199   20.9924 C   0  0  0  0  0  0  0  0  0  0  0  0
  -24.0229  -12.9539   20.7384 C   0  0  0  0  0  0  0  0  0  0  0  0
  -33.0606  -30.3874   20.3080 C   0  0  0  0  0  0  0  0  0  0  0  0
  -29.9423  -25.8116   16.6322 C   0  0  0  0  0  0  0  0  0  0  0  0
  -32.6003  -29.0723   20.1056 C   0  0  0  0  0  0  0  0  0  0  0  0
  -29.0927  -24.8483   17.1947 C   0  0  0  0  0  0  0  0  0  0  0  0
  -29.5973  -17.1330   22.3245 C   0  0  0  0  0  0  0  0  0  0  0  0
  -30.2195  -19.8482   22.1708 C   0  0  0  0  0  0  0  0  0  0  0  0
  -30.5198  -19.0023   21.1030 C   0  0  0  0  0  0  0  0  0  0  0  0
  -22.5272   -8.0234   21.4648 C   0  0  0  0  0  0  0  0  0  0  0  0
  -30.6011  -23.0965   16.4425 C   0  0  0  0  0  0  0  0  0  0  0  0
  -22.4628   -5.9401   22.5501 C   0  0  0  0  0  0  0  0  0  0  0  0
  -23.6598   -4.0968   24.2683 C   0  0  0  0  0  0  0  0  0  0  0  0
  -21.8037   -5.5400   23.7124 C   0  0  0  0  0  0  0  0  0  0  0  0
  -24.5715  -11.6575   20.7490 C   0  0  0  0  0  0  0  0  0  0  0  0
  -25.0884  -13.7753   20.4617 C   0  0  0  0  0  0  0  0  0  0  0  0
  -22.6711  -13.3778   20.9591 C   0  0  0  0  0  0  0  0  0  0  0  0
  -29.3357  -27.6073   19.1838 C   0  0  0  0  0  0  0  0  0  0  0  0
  -26.2528  -27.1718   18.2738 C   0  0  0  0  0  0  0  0  0  0  0  0
  -23.9684  -25.2720   16.5949 C   0  0  0  0  0  0  0  0  0  0  0  0
  -30.8553  -13.8052   21.8129 C   0  0  0  0  0  0  0  0  0  0  0  0
  -32.2015  -31.4354   20.9700 C   0  0  0  0  0  0  0  0  0  0  0  0
  -29.5874  -27.2718   16.6979 C   0  0  0  0  0  0  0  0  0  0  0  0
  -27.8224  -25.2308   17.9078 C   0  0  0  0  0  0  0  0  0  0  0  0
  -30.7159  -31.0849   20.9849 C   0  0  0  0  0  0  0  0  0  0  0  0
  -31.5149  -23.3209   22.5886 C   0  0  0  0  0  0  0  0  0  0  0  0
  -30.5137  -23.4989   21.4652 C   0  0  0  0  0  0  0  0  0  0  0  0
  -29.5375  -13.1673   18.4132 C   0  0  0  0  0  0  0  0  0  0  0  0
  -30.5125  -29.6412   21.4335 C   0  0  0  0  0  0  0  0  0  0  0  0
  -28.0896  -12.7641   18.6874 C   0  0  0  0  0  0  0  0  0  0  0  0
  -31.7897  -21.8217   22.5601 C   0  0  0  0  0  0  0  0  0  0  0  0
  -29.6292  -22.2652   21.6043 C   0  0  0  0  0  0  0  0  0  0  0  0
  -30.4533  -12.8241   19.5841 C   0  0  0  0  0  0  0  0  0  0  0  0
  -28.5549  -12.9833   21.1604 C   0  0  0  0  0  0  0  0  0  0  0  0
  -31.1888  -28.6624   20.4660 C   0  0  1  0  0  0  0  0  0  0  0  0
  -28.6446  -27.6063   17.8497 C   0  0  1  0  0  0  0  0  0  0  0  0
  -27.5976  -13.3576   20.0189 C   0  0  2  0  0  0  0  0  0  0  0  0
  -21.5193  -25.1495   16.0617 C   0  0  0  0  0  0  0  0  0  0  0  0
  -25.6886  -26.1807   21.1039 C   0  0  0  0  0  0  0  0  0  0  0  0
  -23.5435  -25.2042   20.2594 C   0  0  0  0  0  0  0  0  0  0  0  0
  -23.9199  -27.6676   20.1473 C   0  0  0  0  0  0  0  0  0  0  0  0
  -31.3632  -15.3547   23.6624 C   0  0  0  0  0  0  0  0  0  0  0  0
  -24.4733  -25.4736   13.6858 C   0  0  0  0  0  0  0  0  0  0  0  0
  -29.2650  -15.6815   22.4069 C   0  0  0  0  0  0  0  0  0  0  0  0
  -31.4635  -19.7697   17.5550 C   0  0  0  0  0  0  0  0  0  0  0  0
  -31.0989  -18.8127   18.6835 C   0  0  0  0  0  0  0  0  0  0  0  0
  -30.4869  -20.9323   17.4218 C   0  0  0  0  0  0  0  0  0  1  0  0
  -25.1846  -26.1476   18.5719 C   0  0  1  0  0  0  0  0  0  0  0  0
  -22.8817  -25.6458   15.6030 C   0  0  2  0  0  0  0  0  0  0  0  0
  -24.6090  -26.2926   20.0089 C   0  0  0  0  0  0  0  0  0  0  0  0
  -25.8835  -11.6507   20.4987 N   0  0  0  0  0  0  0  0  0  0  0  0
  -26.1682  -12.9530   20.3282 N   0  0  0  0  0  0  0  0  0  0  0  0
  -30.5259  -21.2213   22.1154 N   0  0  0  0  0  0  0  0  0  0  0  0
  -27.5221  -26.6714   17.9510 N   0  0  0  0  0  0  0  0  0  0  0  0
  -29.9397  -13.3636   20.8436 N   0  0  0  0  0  0  0  0  0  0  0  0
  -25.1975  -15.1136   20.3219 N   0  0  0  0  0  0  0  0  0  0  0  0
  -21.7013  -12.4033   21.2313 N   0  0  0  0  0  0  0  0  0  0  0  0
  -31.1283  -19.4903   19.9571 N   0  0  0  0  0  0  0  0  0  0  0  0
  -30.3884  -28.4982   19.2715 N   0  0  0  0  0  0  0  0  0  0  0  0
  -24.1888  -26.2764   17.5135 N   0  0  0  0  0  0  0  0  0  0  0  0
  -30.4449  -14.8543   22.6494 N   0  0  0  0  0  0  0  0  0  0  0  0
  -23.1730  -25.0521   14.2675 N   0  3  0  0  0  0  0  0  0  0  0  0
  -22.3302  -14.5835   20.8999 O   0  0  0  0  0  0  0  0  0  0  0  0
  -28.9421  -26.8566   20.0688 O   0  0  0  0  0  0  0  0  0  0  0  0
  -25.9695  -28.3716   18.3186 O   0  0  0  0  0  0  0  0  0  0  0  0
  -24.5597  -24.1951   16.5607 O   0  0  0  0  0  0  0  0  0  0  0  0
  -31.9791  -13.2975   21.9180 O   0  0  0  0  0  0  0  0  0  0  0  0
  -21.8696   -6.8543   21.6957 O   0  0  0  0  0  0  0  0  0  0  0  0
  -30.9205  -21.7765   16.3561 O   0  0  0  0  0  0  0  0  0  1  0  0
  -24.2340   -3.2107   25.0924 F   0  0  0  0  0  0  0  0  0  0  0  0
  -20.5948   -6.0368   24.0085 F   0  0  0  0  0  0  0  0  0  0  0  0
  1  2  1  0  0  0  0
  1  5  2  0  0  0  0
  2  6  2  0  0  0  0
  3 10  2  0  0  0  0
  3 18  1  0  0  0  0
  4 11  1  0  0  0  0
  4 18  2  0  0  0  0
  5 20  1  0  0  0  0
  6 22  1  0  0  0  0
  7 12  2  0  0  0  0
  7 21  1  0  0  0  0
  8  9  2  0  0  0  0
  8 24  1  0  0  0  0
  9 25  1  0  0  0  0
 10 27  1  0  0  0  0
 11 27  2  0  0  0  0
 12 28  1  0  0  0  0
 13 14  2  0  0  0  0
 13 29  1  0  0  0  0
 14 30  1  0  0  0  0
 15 23  1  0  0  0  0
 15 28  2  0  0  0  0
 16 24  2  0  0  0  0
 16 26  1  0  0  0  0
 17 30  2  0  0  0  0
 17 31  1  0  0  0  0
 18 32  1  0  0  0  0
 19 32  1  0  0  0  0
 19 33  2  0  0  0  0
 19 34  1  0  0  0  0
 20 22  2  0  0  0  0
 20 39  1  0  0  0  0
 21 23  2  0  0  0  0
 21 40  1  0  0  0  0
 22 52  1  0  0  0  0
 23 41  1  0  0  0  0
 24 61  1  0  0  0  0
 25 26  2  0  0  0  0
 25 70  1  0  0  0  0
 26 75  1  0  0  0  0
 27 85  1  0  0  0  0
 28 86  1  0  0  0  0
 29 31  2  0  0  0  0
 29 85  1  0  0  0  0
 30 87  1  0  0  0  0
 31 88  1  0  0  0  0
 32 68  2  0  0  0  0
 33 69  1  0  0  0  0
 33 73  1  0  0  0  0
 34 74  1  0  0  0  0
 34 80  2  0  0  0  0
 35 53  1  0  0  0  0
 35 76  1  0  0  0  0
 35 81  2  0  0  0  0
 36 65  1  0  0  0  0
 36 71  1  0  0  0  0
 36 82  2  0  0  0  0
 37 66  1  0  0  0  0
 37 77  1  0  0  0  0
 37 83  2  0  0  0  0
 38 72  1  0  0  0  0
 38 78  1  0  0  0  0
 38 84  2  0  0  0  0
 39 42  1  0  0  0  0
 40 53  1  0  0  0  0
 41 71  1  0  0  0  0
 42 46  1  0  0  0  0
 43 44  1  0  0  0  0
 43 48  1  0  0  0  0
 44 49  1  0  0  0  0
 45 47  1  0  0  0  0
 45 50  1  0  0  0  0
 46 52  1  0  0  0  0
 47 54  1  0  0  0  0
 48 70  1  0  0  0  0
 49 70  1  0  0  0  0
 50 72  1  0  0  0  0
 51 54  1  0  0  0  0
 51 72  1  0  0  0  0
 52 76  1  0  0  0  0
 53 71  1  0  0  0  0
 54 69  1  0  0  0  0
 55 66  1  0  0  0  0
 56 67  1  0  0  0  0
 57 67  1  0  0  0  0
 58 67  1  0  0  0  0
 59 78  1  0  0  0  0
 60 79  1  0  0  0  0
 61 78  1  0  0  0  0
 62 63  1  0  0  0  0
 62 64  1  0  0  0  0
 63 75  1  0  0  0  0
 64 86  1  0  0  0  0
 65 67  1  0  0  0  0
 65 77  1  0  0  0  0
 66 79  1  0  0  0  0
 68 69  1  0  0  0  0
M  CHG  1  79   1
M  ISO  4  38 100  64 101  78 100  86 101
M  END
> <Batch ID>
0026

> <Smiles>
CNC(C)C(=O)NC(C(=O)N1Cc2cc([101O:1][101CH2:1]CCNc3cc(C[100N:0](C)[100C:0](=O)N4CCCC(n5nc(-c6ccc(Oc7ccc(F)cc7F)cc6)c(C(N)=O)c5N)C4)ccc3N3CCCC3)ccc2CC1C(=O)NC1CCCc2ccccc21)C(C)(C)C

> <Shape>
0.243

> <Color>
0.191

> <Negative vol penalty>
0.000

$$$$

  -OEChem-04042321253D

 85 94  0     1  0  0  0  0  0999 V2000
  -18.5711  -27.6871   26.2028 C   0  0  0  0  0  0  0  0  0  0  0  0
  -19.9621  -27.6695   26.1970 C   0  0  0  0  0  0  0  0  0  0  0  0
  -24.6044  -13.6545   21.0269 C   0  0  0  0  0  0  0  0  0  0  0  0
  -26.7625  -13.1204   20.0813 C   0  0  0  0  0  0  0  0  0  0  0  0
  -17.8713  -27.7815   25.0006 C   0  0  0  0  0  0  0  0  0  0  0  0
  -20.6542  -27.7452   24.9888 C   0  0  0  0  0  0  0  0  0  0  0  0
  -26.0183  -30.5253   23.9868 C   0  0  0  0  0  0  0  0  0  0  0  0
  -24.1294  -12.3974   20.6530 C   0  0  0  0  0  0  0  0  0  0  0  0
  -26.2876  -11.8632   19.7075 C   0  0  0  0  0  0  0  0  0  0  0  0
  -27.3246  -30.0441   23.9121 C   0  0  0  0  0  0  0  0  0  0  0  0
  -24.3395   -9.2179   21.7840 C   0  0  0  0  0  0  0  0  0  0  0  0
  -23.5968   -8.5004   22.7216 C   0  0  0  0  0  0  0  0  0  0  0  0
  -27.1400  -29.9333   21.5094 C   0  0  0  0  0  0  0  0  0  0  0  0
  -30.5621  -23.2174   21.0829 C   0  0  0  0  0  0  0  0  0  0  0  0
  -31.7959  -21.3409   21.9739 C   0  0  0  0  0  0  0  0  0  0  0  0
  -21.7131   -8.4736   21.2089 C   0  0  0  0  0  0  0  0  0  0  0  0
  -25.9209  -14.0160   20.7410 C   0  0  0  0  0  0  0  0  0  0  0  0
  -27.0309  -15.6631   22.3418 C   0  0  0  0  0  0  0  0  0  0  0  0
  -18.5553  -27.8681   23.7777 C   0  0  0  0  0  0  0  0  0  0  0  0
  -25.2579  -30.7041   22.8222 C   0  0  0  0  0  0  0  0  0  0  0  0
  -19.9629  -27.8395   23.7690 C   0  0  0  0  0  0  0  0  0  0  0  0
  -25.8251  -30.4193   21.5718 C   0  0  0  0  0  0  0  0  0  0  0  0
  -32.1780  -23.5615   22.8457 C   0  0  0  0  0  0  0  0  0  0  0  0
  -31.2281  -24.0723   21.9611 C   0  0  0  0  0  0  0  0  0  0  0  0
  -30.8460  -21.8517   21.0893 C   0  0  0  0  0  0  0  0  0  0  0  0
  -24.9710  -11.5018   19.9934 C   0  0  0  0  0  0  0  0  0  0  0  0
  -27.8847  -29.7452   22.6735 C   0  0  0  0  0  0  0  0  0  0  0  0
  -23.7690   -9.5633   20.5588 C   0  0  0  0  0  0  0  0  0  0  0  0
  -22.2836   -8.1282   22.4341 C   0  0  0  0  0  0  0  0  0  0  0  0
  -32.4619  -22.1958   22.8521 C   0  0  0  0  0  0  0  0  0  0  0  0
  -22.4559   -9.1911   20.2713 C   0  0  0  0  0  0  0  0  0  0  0  0
  -26.4120  -15.3147   21.1263 C   0  0  0  0  0  0  0  0  0  0  0  0
  -27.3076  -17.0024   22.2146 C   0  0  0  0  0  0  0  0  0  0  0  0
  -27.3292  -14.8489   23.4836 C   0  0  0  0  0  0  0  0  0  0  0  0
  -22.5519  -29.4716   21.6987 C   0  0  0  0  0  0  0  0  0  0  0  0
  -22.9699  -31.6839   19.3634 C   0  0  0  0  0  0  0  0  0  0  0  0
  -25.1140  -33.6859   17.6194 C   0  0  0  0  0  0  0  0  0  0  0  0
  -29.1967  -21.3266   19.2589 C   0  0  0  0  0  0  0  0  0  0  0  0
  -17.7550  -27.9211   22.5005 C   0  0  0  0  0  0  0  0  0  0  0  0
  -23.8594  -31.2494   22.9178 C   0  0  0  0  0  0  0  0  0  0  0  0
  -25.0579  -30.6131   20.2903 C   0  0  0  0  0  0  0  0  0  0  0  0
  -18.5679  -28.3748   21.2907 C   0  0  0  0  0  0  0  0  0  0  0  0
  -25.8105  -20.3592   18.7343 C   0  0  0  0  0  0  0  0  0  0  0  0
  -19.9034  -27.6397   21.2388 C   0  0  0  0  0  0  0  0  0  0  0  0
  -25.7160  -18.9892   19.4098 C   0  0  0  0  0  0  0  0  0  0  0  0
  -27.1624  -20.5635   18.0529 C   0  0  0  0  0  0  0  0  0  0  0  0
  -31.0339  -26.4180   20.9091 C   0  0  0  0  0  0  0  0  0  0  0  0
  -30.1432  -26.2528   22.8070 C   0  0  0  0  0  0  0  0  0  0  0  0
  -28.2370  -18.9629   19.5867 C   0  0  0  0  0  0  0  0  0  0  0  0
  -20.7497  -27.9446   22.4806 C   0  0  1  0  0  0  0  0  0  0  0  0
  -22.9999  -30.9058   21.7051 C   0  0  1  0  0  0  0  0  0  0  0  0
  -30.5673  -27.4565   21.9457 C   0  0  0  0  0  0  0  0  0  0  0  0
  -26.9172  -18.7366   20.3421 C   0  0  2  0  0  0  0  0  0  0  0  0
  -25.1676  -35.3538   15.7452 C   0  0  0  0  0  0  0  0  0  0  0  0
  -22.7058  -29.4152   17.3402 C   0  0  0  0  0  0  0  0  0  0  0  0
  -23.6947  -30.9340   15.6128 C   0  0  0  0  0  0  0  0  0  0  0  0
  -21.5289  -31.5268   16.6994 C   0  0  0  0  0  0  0  0  0  0  0  0
  -26.1239  -35.8253   19.3975 C   0  0  0  0  0  0  0  0  0  0  0  0
  -32.9047  -24.4569   23.7961 C   0  0  0  0  0  0  0  0  0  0  0  0
  -29.4661  -28.4020   21.5113 C   0  0  0  0  0  0  0  0  0  1  0  0
  -23.6725  -31.7085   18.0275 C   0  0  1  0  0  0  0  0  0  0  0  0
  -25.0423  -35.1560   17.2479 C   0  0  2  0  0  0  0  0  0  0  0  0
  -22.9145  -30.8905   16.9441 C   0  0  0  0  0  0  0  0  0  0  0  0
  -26.3016  -16.3492   20.2887 N   0  0  0  0  0  0  0  0  0  0  0  0
  -26.8549  -17.3609   20.9790 N   0  0  0  0  0  0  0  0  0  0  0  0
  -30.9304  -25.4419   21.9407 N   0  0  0  0  0  0  0  0  0  0  0  0
  -23.6919  -31.1426   20.4365 N   0  0  0  0  0  0  0  0  0  0  0  0
  -28.2527  -20.3111   18.9976 N   0  0  0  0  0  0  0  0  0  0  0  0
  -27.8915  -17.8967   23.0403 N   0  0  0  0  0  0  0  0  0  0  0  0
  -26.9770  -13.4929   23.4476 N   0  0  0  0  0  0  0  0  0  0  0  0
  -30.1680  -20.9830   20.1986 N   0  0  0  0  0  0  0  0  0  0  0  0
  -21.3624  -29.2508   22.3664 N   0  0  0  0  0  0  0  0  0  0  0  0
  -23.8606  -33.1156   17.6911 N   0  0  0  0  0  0  0  0  0  0  0  0
  -32.2135  -24.6105   25.1046 N   0  3  0  0  0  0  0  0  0  0  0  0
  -26.1395  -35.9128   17.9145 N   0  3  0  0  0  0  0  0  0  0  0  0
  -27.8766  -15.3140   24.5120 O   0  0  0  0  0  0  0  0  0  0  0  0
  -23.2341  -28.6280   21.1289 O   0  0  0  0  0  0  0  0  0  0  0  0
  -21.8253  -32.1350   19.4531 O   0  0  0  0  0  0  0  0  0  0  0  0
  -26.1758  -33.1010   17.8218 O   0  0  0  0  0  0  0  0  0  0  0  0
  -29.1310  -22.4302   18.7113 O   0  0  0  0  0  0  0  0  0  0  0  0
  -24.5080  -10.2749   19.6287 O   0  0  0  0  0  0  0  0  0  0  0  0
  -29.1594  -29.2748   22.5978 O   0  0  0  0  0  0  0  0  0  1  0  0
  -21.5710   -7.4379   23.3339 F   0  0  0  0  0  0  0  0  0  0  0  0
  -33.3734  -21.6950   23.6979 F   0  0  0  0  0  0  0  0  0  0  0  0
  -21.9028   -9.5191   19.0955 F   0  0  0  0  0  0  0  0  0  0  0  0
  1  2  1  0  0  0  0
  1  5  2  0  0  0  0
  2  6  2  0  0  0  0
  3  8  2  0  0  0  0
  3 17  1  0  0  0  0
  4  9  1  0  0  0  0
  4 17  2  0  0  0  0
  5 19  1  0  0  0  0
  6 21  1  0  0  0  0
  7 10  2  0  0  0  0
  7 20  1  0  0  0  0
  8 26  1  0  0  0  0
  9 26  2  0  0  0  0
 10 27  1  0  0  0  0
 11 12  2  0  0  0  0
 11 28  1  0  0  0  0
 12 29  1  0  0  0  0
 13 22  1  0  0  0  0
 13 27  2  0  0  0  0
 14 24  1  0  0  0  0
 14 25  2  0  0  0  0
 15 25  1  0  0  0  0
 15 30  2  0  0  0  0
 16 29  2  0  0  0  0
 16 31  1  0  0  0  0
 17 32  1  0  0  0  0
 18 32  1  0  0  0  0
 18 33  2  0  0  0  0
 18 34  1  0  0  0  0
 19 21  2  0  0  0  0
 19 39  1  0  0  0  0
 20 22  2  0  0  0  0
 20 40  1  0  0  0  0
 21 50  1  0  0  0  0
 22 41  1  0  0  0  0
 23 24  2  0  0  0  0
 23 30  1  0  0  0  0
 23 59  1  0  0  0  0
 24 66  1  0  0  0  0
 25 71  1  0  0  0  0
 26 81  1  0  0  0  0
 27 82  1  0  0  0  0
 28 31  2  0  0  0  0
 28 81  1  0  0  0  0
 29 83  1  0  0  0  0
 30 84  1  0  0  0  0
 31 85  1  0  0  0  0
 32 64  2  0  0  0  0
 33 65  1  0  0  0  0
 33 69  1  0  0  0  0
 34 70  1  0  0  0  0
 34 76  2  0  0  0  0
 35 51  1  0  0  0  0
 35 72  1  0  0  0  0
 35 77  2  0  0  0  0
 36 61  1  0  0  0  0
 36 67  1  0  0  0  0
 36 78  2  0  0  0  0
 37 62  1  0  0  0  0
 37 73  1  0  0  0  0
 37 79  2  0  0  0  0
 38 68  1  0  0  0  0
 38 71  1  0  0  0  0
 38 80  2  0  0  0  0
 39 42  1  0  0  0  0
 40 51  1  0  0  0  0
 41 67  1  0  0  0  0
 42 44  1  0  0  0  0
 43 45  1  0  0  0  0
 43 46  1  0  0  0  0
 44 50  1  0  0  0  0
 45 53  1  0  0  0  0
 46 68  1  0  0  0  0
 47 52  1  0  0  0  0
 47 66  1  0  0  0  0
 48 52  1  0  0  0  0
 48 66  1  0  0  0  0
 49 53  1  0  0  0  0
 49 68  1  0  0  0  0
 50 72  1  0  0  0  0
 51 67  1  0  0  0  0
 52 60  1  0  0  0  0
 53 65  1  0  0  0  0
 54 62  1  0  0  0  0
 55 63  1  0  0  0  0
 56 63  1  0  0  0  0
 57 63  1  0  0  0  0
 58 75  1  0  0  0  0
 59 74  1  0  0  0  0
 60 82  1  0  0  0  0
 61 63  1  0  0  0  0
 61 73  1  0  0  0  0
 62 75  1  0  0  0  0
 64 65  1  0  0  0  0
M  CHG  2  74   1  75   1
M  ISO  4  38 100  60 101  71 100  82 101
M  END
> <Batch ID>
0026

> <Smiles>
CNC(C)C(=O)NC(C(=O)N1Cc2cc([101O:1][101CH2:1]C3CN(c4cc([100NH:0][100C:0](=O)N5CCCC(n6nc(-c7ccc(Oc8ccc(F)cc8F)cc7)c(C(N)=O)c6N)C5)cc(F)c4CN)C3)ccc2CC1C(=O)NC1CCCc2ccccc21)C(C)(C)C

> <Shape>
0.248

> <Color>
0.091

> <Negative vol penalty>
0.000

$$$$

  -OEChem-04042321253D

 90100  0     1  0  0  0  0  0999 V2000
  -28.5317  -33.6097   25.2776 C   0  0  0  0  0  0  0  0  0  0  0  0
  -28.5804  -32.3547   24.6794 C   0  0  0  0  0  0  0  0  0  0  0  0
  -23.7022   -9.5604   21.2809 C   0  0  0  0  0  0  0  0  0  0  0  0
  -22.7603  -11.7775   21.0952 C   0  0  0  0  0  0  0  0  0  0  0  0
  -27.3242  -34.0964   25.7768 C   0  0  0  0  0  0  0  0  0  0  0  0
  -27.4218  -31.5850   24.5810 C   0  0  0  0  0  0  0  0  0  0  0  0
  -26.8734  -29.4753   20.0101 C   0  0  0  0  0  0  0  0  0  0  0  0
  -22.7039   -9.2124   22.1907 C   0  0  0  0  0  0  0  0  0  0  0  0
  -21.7618  -11.4295   22.0049 C   0  0  0  0  0  0  0  0  0  0  0  0
  -27.6398  -28.3436   19.7350 C   0  0  0  0  0  0  0  0  0  0  0  0
  -19.4472   -8.3086   22.0901 C   0  0  0  0  0  0  0  0  0  0  0  0
  -18.8163   -7.0763   21.9202 C   0  0  0  0  0  0  0  0  0  0  0  0
  -25.7308  -26.9447   20.2016 C   0  0  0  0  0  0  0  0  0  0  0  0
  -27.4729  -18.3584   20.3003 C   0  0  0  0  0  0  0  0  0  0  0  0
  -29.6927  -18.2344   21.2459 C   0  0  0  0  0  0  0  0  0  0  0  0
  -19.5586   -6.3936   24.1157 C   0  0  0  0  0  0  0  0  0  0  0  0
  -23.7305  -10.8430   20.7332 C   0  0  0  0  0  0  0  0  0  0  0  0
  -24.7208  -11.0686   18.3931 C   0  0  0  0  0  0  0  0  0  0  0  0
  -26.1483  -33.3364   25.6758 C   0  0  0  0  0  0  0  0  0  0  0  0
  -25.5306  -29.3494   20.3942 C   0  0  0  0  0  0  0  0  0  0  0  0
  -26.1977  -32.0614   25.0805 C   0  0  0  0  0  0  0  0  0  0  0  0
  -24.9487  -28.0764   20.4785 C   0  0  0  0  0  0  0  0  0  0  0  0
  -28.4176  -20.2791   21.4206 C   0  0  0  0  0  0  0  0  0  0  0  0
  -27.3628  -19.6801   20.7320 C   0  0  0  0  0  0  0  0  0  0  0  0
  -28.6379  -17.6355   20.5573 C   0  0  0  0  0  0  0  0  0  0  0  0
  -21.7336  -10.1469   22.5527 C   0  0  0  0  0  0  0  0  0  0  0  0
  -27.0694  -27.0780   19.8336 C   0  0  0  0  0  0  0  0  0  0  0  0
  -20.1339   -8.5834   23.2728 C   0  0  0  0  0  0  0  0  0  0  0  0
  -18.8719   -6.1188   22.9330 C   0  0  0  0  0  0  0  0  0  0  0  0
  -20.1895   -7.6259   24.2855 C   0  0  0  0  0  0  0  0  0  0  0  0
  -29.5826  -19.5562   21.6776 C   0  0  0  0  0  0  0  0  0  0  0  0
  -24.7619  -11.2032   19.7938 C   0  0  0  0  0  0  0  0  0  0  0  0
  -25.9345  -11.5494   17.9661 C   0  0  0  0  0  0  0  0  0  0  0  0
  -23.6786  -10.5549   17.5530 C   0  0  0  0  0  0  0  0  0  0  0  0
  -23.8584  -30.1120   22.9876 C   0  0  0  0  0  0  0  0  0  0  0  0
  -21.3456  -29.1553   21.1729 C   0  0  0  0  0  0  0  0  0  0  0  0
  -20.2080  -27.2816   18.5572 C   0  0  0  0  0  0  0  0  0  0  0  0
  -29.8336  -15.4340   20.2924 C   0  0  0  0  0  0  0  0  0  0  0  0
  -24.8762  -33.8845   26.2724 C   0  0  0  0  0  0  0  0  0  0  0  0
  -24.7099  -30.5813   20.6615 C   0  0  0  0  0  0  0  0  0  0  0  0
  -23.5058  -27.8882   20.8671 C   0  0  0  0  0  0  0  0  0  0  0  0
  -23.6187  -33.1641   25.7928 C   0  0  0  0  0  0  0  0  0  0  0  0
  -23.9053  -21.0580   20.4874 C   0  0  0  0  0  0  0  0  0  0  0  0
  -24.6755  -21.9965   19.5807 C   0  0  0  0  0  0  0  0  0  0  0  0
  -30.4776  -12.0489   19.3963 C   0  0  0  0  0  0  0  0  0  0  0  0
  -23.8139  -31.6525   25.8524 C   0  0  0  0  0  0  0  0  0  0  0  0
  -29.0811  -11.4371   19.2631 C   0  0  0  0  0  0  0  0  0  0  0  0
  -29.5076  -23.6341   19.1278 C   0  0  0  0  0  0  0  0  0  0  0  0
  -25.0046  -20.4396   21.3436 C   0  0  0  0  0  0  0  0  0  0  0  0
  -25.9335  -21.1975   19.2602 C   0  0  0  0  0  0  0  0  0  0  0  0
  -30.5452  -13.0655   20.5345 C   0  0  0  0  0  0  0  0  0  0  0  0
  -28.1287  -13.5091   20.3526 C   0  0  0  0  0  0  0  0  0  0  0  0
  -29.6723  -22.3081   19.8523 C   0  0  0  0  0  0  0  0  0  0  0  0
  -28.9771  -24.0742   21.3923 C   0  0  0  0  0  0  0  0  0  0  0  0
  -24.9573  -31.2071   24.9328 C   0  0  1  0  0  0  0  0  0  0  0  0
  -23.4948  -30.3100   21.5432 C   0  0  1  0  0  0  0  0  0  0  0  0
  -29.7232  -24.6777   20.2148 C   0  0  2  0  0  0  0  0  0  0  0  0
  -27.9943  -12.5268   19.1776 C   0  0  2  0  0  0  0  0  0  0  0  0
  -18.0995  -26.6732   17.3399 C   0  0  0  0  0  0  0  0  0  0  0  0
  -20.5716  -27.2831   23.4545 C   0  0  0  0  0  0  0  0  0  0  0  0
  -19.0879  -26.0578   21.8528 C   0  0  0  0  0  0  0  0  0  0  0  0
  -18.6481  -28.4579   22.3708 C   0  0  0  0  0  0  0  0  0  0  0  0
  -21.2031  -28.4338   16.0192 C   0  0  0  0  0  0  0  0  0  0  0  0
  -28.2854  -21.7008   21.8815 C   0  0  0  0  0  0  0  0  0  0  0  0
  -29.2148  -26.0517   19.8342 C   0  0  0  0  0  0  0  0  0  1  0  0
  -20.6365  -27.8440   20.9351 C   0  0  1  0  0  0  0  0  0  0  0  0
  -19.2864  -27.6221   17.3999 C   0  0  2  0  0  0  0  0  0  0  0  0
  -19.7638  -27.4138   22.1478 C   0  0  0  0  0  0  0  0  0  0  0  0
  -25.9109  -11.7283   20.2278 N   0  0  0  0  0  0  0  0  0  0  0  0
  -26.6029  -11.9277   19.0932 N   0  0  0  0  0  0  0  0  0  0  0  0
  -26.1783  -20.3922   20.4630 N   0  0  0  0  0  0  0  0  0  0  0  0
  -22.7465  -29.1230   21.1247 N   0  0  0  0  0  0  0  0  0  0  0  0
  -29.4890  -14.0690   20.3851 N   0  0  0  0  0  0  0  0  0  0  0  0
  -26.4845  -11.6811   16.7403 N   0  0  0  0  0  0  0  0  0  0  0  0
  -22.4968  -10.1025   18.1555 N   0  0  0  0  0  0  0  0  0  0  0  0
  -28.7481  -16.2923   20.1198 N   0  0  0  0  0  0  0  0  0  0  0  0
  -24.5180  -31.1860   23.5540 N   0  0  0  0  0  0  0  0  0  0  0  0
  -19.8929  -28.0020   19.6899 N   0  0  0  0  0  0  0  0  0  0  0  0
  -29.3247  -22.6041   21.2997 N   0  3  1  0  0  0  0  0  0  0  0  0
  -20.0237  -27.5348   16.1077 N   0  3  0  0  0  0  0  0  0  0  0  0
  -23.7985  -10.4836   16.3064 O   0  0  0  0  0  0  0  0  0  0  0  0
  -23.5610  -29.0632   23.5472 O   0  0  0  0  0  0  0  0  0  0  0  0
  -20.6809  -30.1723   21.3862 O   0  0  0  0  0  0  0  0  0  0  0  0
  -21.1141  -26.4563   18.4666 O   0  0  0  0  0  0  0  0  0  0  0  0
  -31.0075  -15.8113   20.3337 O   0  0  0  0  0  0  0  0  0  0  0  0
  -20.7591   -9.8077   23.4402 O   0  0  0  0  0  0  0  0  0  0  0  0
  -27.8154  -25.9717   19.5663 O   0  0  0  0  0  0  0  0  0  1  0  0
  -18.2647   -4.9360   22.7703 F   0  0  0  0  0  0  0  0  0  0  0  0
  -20.8467   -7.8846   25.4244 F   0  0  0  0  0  0  0  0  0  0  0  0
  -30.9096  -20.2597   22.5296 Cl  0  0  0  0  0  0  0  0  0  0  0  0
  1  2  1  0  0  0  0
  1  5  2  0  0  0  0
  2  6  2  0  0  0  0
  3  8  2  0  0  0  0
  3 17  1  0  0  0  0
  4  9  1  0  0  0  0
  4 17  2  0  0  0  0
  5 19  1  0  0  0  0
  6 21  1  0  0  0  0
  7 10  2  0  0  0  0
  7 20  1  0  0  0  0
  8 26  1  0  0  0  0
  9 26  2  0  0  0  0
 10 27  1  0  0  0  0
 11 12  2  0  0  0  0
 11 28  1  0  0  0  0
 12 29  1  0  0  0  0
 13 22  1  0  0  0  0
 13 27  2  0  0  0  0
 14 24  1  0  0  0  0
 14 25  2  0  0  0  0
 15 25  1  0  0  0  0
 15 31  2  0  0  0  0
 16 29  2  0  0  0  0
 16 30  1  0  0  0  0
 17 32  1  0  0  0  0
 18 32  1  0  0  0  0
 18 33  2  0  0  0  0
 18 34  1  0  0  0  0
 19 21  2  0  0  0  0
 19 39  1  0  0  0  0
 20 22  2  0  0  0  0
 20 40  1  0  0  0  0
 21 55  1  0  0  0  0
 22 41  1  0  0  0  0
 23 24  2  0  0  0  0
 23 31  1  0  0  0  0
 23 64  1  0  0  0  0
 24 71  1  0  0  0  0
 25 76  1  0  0  0  0
 26 86  1  0  0  0  0
 27 87  1  0  0  0  0
 28 30  2  0  0  0  0
 28 86  1  0  0  0  0
 29 88  1  0  0  0  0
 30 89  1  0  0  0  0
 31 90  1  0  0  0  0
 32 69  2  0  0  0  0
 33 70  1  0  0  0  0
 33 74  1  0  0  0  0
 34 75  1  0  0  0  0
 34 81  2  0  0  0  0
 35 56  1  0  0  0  0
 35 77  1  0  0  0  0
 35 82  2  0  0  0  0
 36 66  1  0  0  0  0
 36 72  1  0  0  0  0
 36 83  2  0  0  0  0
 37 67  1  0  0  0  0
 37 78  1  0  0  0  0
 37 84  2  0  0  0  0
 38 73  1  0  0  0  0
 38 76  1  0  0  0  0
 38 85  2  0  0  0  0
 39 42  1  0  0  0  0
 40 56  1  0  0  0  0
 41 72  1  0  0  0  0
 42 46  1  0  0  0  0
 43 44  1  0  0  0  0
 43 49  1  0  0  0  0
 44 50  1  0  0  0  0
 45 47  1  0  0  0  0
 45 51  1  0  0  0  0
 46 55  1  0  0  0  0
 47 58  1  0  0  0  0
 48 53  1  0  0  0  0
 48 57  1  0  0  0  0
 49 71  1  0  0  0  0
 50 71  1  0  0  0  0
 51 73  1  0  0  0  0
 52 58  1  0  0  0  0
 52 73  1  0  0  0  0
 53 79  1  0  0  0  0
 54 57  1  0  0  0  0
 54 79  1  0  0  0  0
 55 77  1  0  0  0  0
 56 72  1  0  0  0  0
 57 65  1  0  0  0  0
 58 70  1  0  0  0  0
 59 67  1  0  0  0  0
 60 68  1  0  0  0  0
 61 68  1  0  0  0  0
 62 68  1  0  0  0  0
 63 80  1  0  0  0  0
 64 79  1  0  0  0  0
 65 87  1  0  0  0  0
 66 68  1  0  0  0  0
 66 78  1  0  0  0  0
 67 80  1  0  0  0  0
 69 70  1  0  0  0  0
M  CHG  2  79   1  80   1
M  ISO  4  38 100  65 101  76 100  87 101
M  END
> <Batch ID>
0026

> <Smiles>
CNC(C)C(=O)NC(C(=O)N1Cc2cc([101O:1][101CH2:1]C3CCN(Cc4c(Cl)cc([100NH:0][100C:0](=O)N5CCCC(n6nc(-c7ccc(Oc8ccc(F)cc8F)cc7)c(C(N)=O)c6N)C5)cc4N4CCCC4)C3)ccc2CC1C(=O)NC1CCCc2ccccc21)C(C)(C)C

> <Shape>
0.327

> <Color>
0.085

> <Negative vol penalty>
0.000

$$$$

  -OEChem-04042321253D

 85 94  0     1  0  0  0  0  0999 V2000
  -17.8994  -25.3293   23.6472 C   0  0  0  0  0  0  0  0  0  0  0  0
  -19.1803  -25.0140   23.2054 C   0  0  0  0  0  0  0  0  0  0  0  0
  -24.4756  -14.1614   20.6534 C   0  0  0  0  0  0  0  0  0  0  0  0
  -25.4025  -13.8874   18.4391 C   0  0  0  0  0  0  0  0  0  0  0  0
  -17.4097  -26.6257   23.4938 C   0  0  0  0  0  0  0  0  0  0  0  0
  -19.9720  -25.9948   22.6088 C   0  0  0  0  0  0  0  0  0  0  0  0
  -26.0535  -26.5784   23.0333 C   0  0  0  0  0  0  0  0  0  0  0  0
  -30.3226  -23.5922   16.8116 C   0  0  0  0  0  0  0  0  0  0  0  0
  -23.7470  -12.9827   20.4942 C   0  0  0  0  0  0  0  0  0  0  0  0
  -24.6739  -12.7087   18.2800 C   0  0  0  0  0  0  0  0  0  0  0  0
  -27.0936  -26.1999   22.1855 C   0  0  0  0  0  0  0  0  0  0  0  0
  -24.3252   -9.6553   20.6591 C   0  0  0  0  0  0  0  0  0  0  0  0
  -30.3322  -22.8583   15.6255 C   0  0  0  0  0  0  0  0  0  0  0  0
  -24.3184   -8.7493   21.7196 C   0  0  0  0  0  0  0  0  0  0  0  0
  -27.1283  -28.4216   21.2463 C   0  0  0  0  0  0  0  0  0  0  0  0
  -28.3475  -22.4020   17.5321 C   0  0  0  0  0  0  0  0  0  0  0  0
  -21.9153   -8.9468   21.8728 C   0  0  0  0  0  0  0  0  0  0  0  0
  -25.3033  -14.6138   19.6258 C   0  0  0  0  0  0  0  0  0  0  0  0
  -27.3545  -15.9643   20.3163 C   0  0  0  0  0  0  0  0  0  0  0  0
  -18.1993  -27.6252   22.9038 C   0  0  0  0  0  0  0  0  0  0  0  0
  -25.5348  -27.8804   22.9863 C   0  0  0  0  0  0  0  0  0  0  0  0
  -19.4919  -27.3054   22.4461 C   0  0  0  0  0  0  0  0  0  0  0  0
  -26.0834  -28.8148   22.0963 C   0  0  0  0  0  0  0  0  0  0  0  0
  -28.3570  -21.6681   16.3459 C   0  0  0  0  0  0  0  0  0  0  0  0
  -29.3303  -23.3640   17.7650 C   0  0  0  0  0  0  0  0  0  0  0  0
  -23.8461  -12.2563   19.3076 C   0  0  0  0  0  0  0  0  0  0  0  0
  -27.6292  -27.1207   21.2898 C   0  0  0  0  0  0  0  0  0  0  0  0
  -23.1271  -10.2072   20.2055 C   0  0  0  0  0  0  0  0  0  0  0  0
  -23.1134   -8.3950   22.3265 C   0  0  0  0  0  0  0  0  0  0  0  0
  -29.3494  -21.8963   15.3926 C   0  0  0  0  0  0  0  0  0  0  0  0
  -21.9222   -9.8529   20.8123 C   0  0  0  0  0  0  0  0  0  0  0  0
  -26.0558  -15.8317   19.7893 C   0  0  0  0  0  0  0  0  0  0  0  0
  -27.6132  -17.3119   20.2570 C   0  0  0  0  0  0  0  0  0  0  0  0
  -30.1484  -25.0613   19.3962 C   0  0  0  0  0  0  0  0  0  0  0  0
  -28.2471  -14.9592   20.8149 C   0  0  0  0  0  0  0  0  0  0  0  0
  -22.6959  -29.1410   22.3119 C   0  0  0  0  0  0  0  0  0  0  0  0
  -24.1310  -31.8951   23.2489 C   0  0  0  0  0  0  0  0  0  0  0  0
  -27.0253  -33.6471   23.6963 C   0  0  0  0  0  0  0  0  0  0  0  0
  -25.0072  -21.5343   16.6628 C   0  0  0  0  0  0  0  0  0  0  0  0
  -17.6092  -29.0005   22.7166 C   0  0  0  0  0  0  0  0  0  0  0  0
  -24.4308  -28.2806   23.9261 C   0  0  0  0  0  0  0  0  0  0  0  0
  -25.5758  -30.2308   22.0208 C   0  0  0  0  0  0  0  0  0  0  0  0
  -18.6511  -30.0743   22.4137 C   0  0  0  0  0  0  0  0  0  0  0  0
  -25.4318  -21.5627   20.3398 C   0  0  0  0  0  0  0  0  0  0  0  0
  -19.6229  -29.5883   21.3431 C   0  0  0  0  0  0  0  0  0  0  0  0
  -25.6791  -20.0891   20.6579 C   0  0  0  0  0  0  0  0  0  0  0  0
  -24.5811  -21.7371   19.0854 C   0  0  0  0  0  0  0  0  0  0  0  0
  -28.2655  -24.2931   19.9174 C   0  0  0  0  0  0  0  0  0  0  0  0
  -25.3703  -19.5649   18.2063 C   0  0  0  0  0  0  0  0  0  0  0  0
  -20.3901  -28.3479   21.8165 C   0  0  1  0  0  0  0  0  0  0  0  0
  -29.1543  -25.4014   20.5236 C   0  0  2  0  0  0  0  0  0  1  0  0
  -23.6343  -29.4850   23.4339 C   0  0  1  0  0  0  0  0  0  0  0  0
  -26.2634  -19.3551   19.4384 C   0  0  2  0  0  0  0  0  0  0  0  0
  -27.8769  -35.8874   24.4400 C   0  0  0  0  0  0  0  0  0  0  0  0
  -23.2640  -33.1060   20.5858 C   0  0  0  0  0  0  0  0  0  0  0  0
  -24.9112  -34.9522   20.9685 C   0  0  0  0  0  0  0  0  0  0  0  0
  -23.0134  -34.6277   22.5545 C   0  0  0  0  0  0  0  0  0  0  0  0
  -25.9376  -21.7794   14.3926 C   0  0  0  0  0  0  0  0  0  0  0  0
  -28.5601  -32.4526   25.9271 C   0  0  0  0  0  0  0  0  0  0  0  0
  -27.3058  -20.6390   16.0995 C   0  0  0  0  0  0  0  0  0  0  0  0
  -24.9267  -32.9751   22.5566 C   0  0  1  0  0  0  0  0  0  0  0  0
  -27.5349  -34.4684   24.8669 C   0  0  2  0  0  0  0  0  0  0  0  0
  -24.0373  -33.8881   21.6662 C   0  0  0  0  0  0  0  0  0  0  0  0
  -25.5263  -17.0017   19.4224 N   0  0  0  0  0  0  0  0  0  0  0  0
  -26.4971  -17.8823   19.7193 N   0  0  0  0  0  0  0  0  0  0  0  0
  -29.3217  -24.0879   18.9358 N   0  0  0  0  0  0  0  0  0  0  0  0
  -24.4910  -30.5721   22.9558 N   0  0  0  0  0  0  0  0  0  0  0  0
  -25.1355  -20.9944   17.9531 N   0  0  0  0  0  0  0  0  0  0  0  0
  -28.6841  -18.0527   20.6128 N   0  0  0  0  0  0  0  0  0  0  0  0
  -27.8228  -13.6234   20.8033 N   0  0  0  0  0  0  0  0  0  0  0  0
  -21.4464  -28.7255   22.7310 N   0  0  0  0  0  0  0  0  0  0  0  0
  -25.6499  -33.6854   23.6058 N   0  0  0  0  0  0  0  0  0  0  0  0
  -26.0202  -21.2333   15.7398 N   0  0  0  0  0  0  0  0  0  0  0  0
  -28.7583  -33.8435   25.4444 N   0  3  0  0  0  0  0  0  0  0  0  0
  -31.2130  -25.4912   19.0147 O   0  0  0  0  0  0  0  0  0  0  0  0
  -29.3810  -15.2392   21.2726 O   0  0  0  0  0  0  0  0  0  0  0  0
  -23.0767  -29.2463   21.1519 O   0  0  0  0  0  0  0  0  0  0  0  0
  -23.2280  -32.2136   24.0266 O   0  0  0  0  0  0  0  0  0  0  0  0
  -27.7728  -33.0359   22.9359 O   0  0  0  0  0  0  0  0  0  0  0  0
  -24.0470  -22.2527   16.3563 O   0  0  0  0  0  0  0  0  0  0  0  0
  -23.1355  -11.1059   19.1520 O   0  0  0  0  0  0  0  0  0  0  0  0
  -28.6440  -26.7538   20.4606 O   0  0  0  0  0  0  0  0  0  1  0  0
  -23.1069   -7.5237   23.3438 F   0  0  0  0  0  0  0  0  0  0  0  0
  -29.3662  -21.1970   14.2493 F   0  0  0  0  0  0  0  0  0  0  0  0
  -20.7679  -10.3788   20.3801 F   0  0  0  0  0  0  0  0  0  0  0  0
  1  2  1  0  0  0  0
  1  5  2  0  0  0  0
  2  6  2  0  0  0  0
  3  9  2  0  0  0  0
  3 18  1  0  0  0  0
  4 10  1  0  0  0  0
  4 18  2  0  0  0  0
  5 20  1  0  0  0  0
  6 22  1  0  0  0  0
  7 11  2  0  0  0  0
  7 21  1  0  0  0  0
  8 13  2  0  0  0  0
  8 25  1  0  0  0  0
  9 26  1  0  0  0  0
 10 26  2  0  0  0  0
 11 27  1  0  0  0  0
 12 14  2  0  0  0  0
 12 28  1  0  0  0  0
 13 30  1  0  0  0  0
 14 29  1  0  0  0  0
 15 23  1  0  0  0  0
 15 27  2  0  0  0  0
 16 24  1  0  0  0  0
 16 25  2  0  0  0  0
 17 29  2  0  0  0  0
 17 31  1  0  0  0  0
 18 32  1  0  0  0  0
 19 32  1  0  0  0  0
 19 33  2  0  0  0  0
 19 35  1  0  0  0  0
 20 22  2  0  0  0  0
 20 40  1  0  0  0  0
 21 23  2  0  0  0  0
 21 41  1  0  0  0  0
 22 50  1  0  0  0  0
 23 42  1  0  0  0  0
 24 30  2  0  0  0  0
 24 60  1  0  0  0  0
 25 66  1  0  0  0  0
 26 81  1  0  0  0  0
 27 82  1  0  0  0  0
 28 31  2  0  0  0  0
 28 81  1  0  0  0  0
 29 83  1  0  0  0  0
 30 84  1  0  0  0  0
 31 85  1  0  0  0  0
 32 64  2  0  0  0  0
 33 65  1  0  0  0  0
 33 69  1  0  0  0  0
 34 51  1  0  0  0  0
 34 66  1  0  0  0  0
 34 75  2  0  0  0  0
 35 70  1  0  0  0  0
 35 76  2  0  0  0  0
 36 52  1  0  0  0  0
 36 71  1  0  0  0  0
 36 77  2  0  0  0  0
 37 61  1  0  0  0  0
 37 67  1  0  0  0  0
 37 78  2  0  0  0  0
 38 62  1  0  0  0  0
 38 72  1  0  0  0  0
 38 79  2  0  0  0  0
 39 68  1  0  0  0  0
 39 73  1  0  0  0  0
 39 80  2  0  0  0  0
 40 43  1  0  0  0  0
 41 52  1  0  0  0  0
 42 67  1  0  0  0  0
 43 45  1  0  0  0  0
 44 46  1  0  0  0  0
 44 47  1  0  0  0  0
 45 50  1  0  0  0  0
 46 53  1  0  0  0  0
 47 68  1  0  0  0  0
 48 51  1  0  0  0  0
 48 66  1  0  0  0  0
 49 53  1  0  0  0  0
 49 68  1  0  0  0  0
 50 71  1  0  0  0  0
 51 82  1  0  0  0  0
 52 67  1  0  0  0  0
 53 65  1  0  0  0  0
 54 62  1  0  0  0  0
 55 63  1  0  0  0  0
 56 63  1  0  0  0  0
 57 63  1  0  0  0  0
 58 73  1  0  0  0  0
 59 74  1  0  0  0  0
 60 73  1  0  0  0  0
 61 63  1  0  0  0  0
 61 72  1  0  0  0  0
 62 74  1  0  0  0  0
 64 65  1  0  0  0  0
M  CHG  1  74   1
M  ISO  4  39 100  51 101  73 100  82 101
M  END
> <Batch ID>
0026

> <Smiles>
CNC(C)C(=O)NC(C(=O)N1Cc2cc([101O:1][101CH:1]3CN(c4ccc(F)c(C[100N:0](C)[100C:0](=O)N5CCCC(n6nc(-c7ccc(Oc8ccc(F)cc8F)cc7)c(C(N)=O)c6N)C5)c4)C3=O)ccc2CC1C(=O)NC1CCCc2ccccc21)C(C)(C)C

> <Shape>
0.271

> <Color>
0.102

> <Negative vol penalty>
0.000

$$$$

  -OEChem-04042321253D

 84 93  0     1  0  0  0  0  0999 V2000
  -28.4759  -24.4227   17.1944 C   0  0  0  0  0  0  0  0  0  0  0  0
  -27.2350  -24.6785   17.7690 C   0  0  0  0  0  0  0  0  0  0  0  0
  -24.1349  -12.0346   20.9446 C   0  0  0  0  0  0  0  0  0  0  0  0
  -25.4331  -13.9785   20.3340 C   0  0  0  0  0  0  0  0  0  0  0  0
  -29.6360  -24.9019   17.8013 C   0  0  0  0  0  0  0  0  0  0  0  0
  -27.1537  -25.4128   18.9516 C   0  0  0  0  0  0  0  0  0  0  0  0
  -23.4970  -28.9136   18.8169 C   0  0  0  0  0  0  0  0  0  0  0  0
  -24.9878  -11.2282   20.1911 C   0  0  0  0  0  0  0  0  0  0  0  0
  -26.2861  -13.1721   19.5805 C   0  0  0  0  0  0  0  0  0  0  0  0
  -22.1877  -28.4744   19.0080 C   0  0  0  0  0  0  0  0  0  0  0  0
  -28.8708  -11.0702   20.1480 C   0  0  0  0  0  0  0  0  0  0  0  0
  -30.2434  -11.2803   20.2800 C   0  0  0  0  0  0  0  0  0  0  0  0
  -22.2865  -29.1990   21.3068 C   0  0  0  0  0  0  0  0  0  0  0  0
  -20.4739  -24.0128   24.2626 C   0  0  0  0  0  0  0  0  0  0  0  0
  -19.4200  -22.3649   22.8446 C   0  0  0  0  0  0  0  0  0  0  0  0
  -30.3925  -11.7873   17.9225 C   0  0  0  0  0  0  0  0  0  0  0  0
  -24.3575  -13.4098   21.0160 C   0  0  0  0  0  0  0  0  0  0  0  0
  -23.6079  -14.5830   23.1536 C   0  0  0  0  0  0  0  0  0  0  0  0
  -29.5681  -25.6507   18.9868 C   0  0  0  0  0  0  0  0  0  0  0  0
  -24.2159  -29.4899   19.8740 C   0  0  0  0  0  0  0  0  0  0  0  0
  -28.3141  -25.9014   19.5757 C   0  0  0  0  0  0  0  0  0  0  0  0
  -23.6039  -29.6471   21.1258 C   0  0  0  0  0  0  0  0  0  0  0  0
  -19.5727  -23.6915   23.2477 C   0  0  0  0  0  0  0  0  0  0  0  0
  -21.2227  -23.0074   24.8745 C   0  0  0  0  0  0  0  0  0  0  0  0
  -20.1687  -21.3595   23.4565 C   0  0  0  0  0  0  0  0  0  0  0  0
  -26.0635  -11.7970   19.5090 C   0  0  0  0  0  0  0  0  0  0  0  0
  -21.5832  -28.6144   20.2539 C   0  0  0  0  0  0  0  0  0  0  0  0
  -28.2590  -11.2186   18.9032 C   0  0  0  0  0  0  0  0  0  0  0  0
  -31.0042  -11.6389   19.1673 C   0  0  0  0  0  0  0  0  0  0  0  0
  -29.0199  -11.5772   17.7905 C   0  0  0  0  0  0  0  0  0  0  0  0
  -21.0700  -21.6808   24.4714 C   0  0  0  0  0  0  0  0  0  0  0  0
  -23.4764  -14.2434   21.7938 C   0  0  0  0  0  0  0  0  0  0  0  0
  -22.5257  -15.3882   23.4126 C   0  0  0  0  0  0  0  0  0  0  0  0
  -24.6180  -14.2045   24.0982 C   0  0  0  0  0  0  0  0  0  0  0  0
  -26.8774  -28.7465   21.4449 C   0  0  0  0  0  0  0  0  0  0  0  0
  -26.3818  -31.6230   22.8600 C   0  0  0  0  0  0  0  0  0  0  0  0
  -24.1818  -34.0813   23.7339 C   0  0  0  0  0  0  0  0  0  0  0  0
  -19.1232  -19.5709   22.0233 C   0  0  0  0  0  0  0  0  0  0  0  0
  -30.8528  -26.1074   19.6315 C   0  0  0  0  0  0  0  0  0  0  0  0
  -25.6182  -29.9830   19.6444 C   0  0  0  0  0  0  0  0  0  0  0  0
  -24.3256  -30.2777   22.2877 C   0  0  0  0  0  0  0  0  0  0  0  0
  -30.6534  -27.1969   20.6819 C   0  0  0  0  0  0  0  0  0  0  0  0
  -18.4112  -16.3713   20.6330 C   0  0  0  0  0  0  0  0  0  0  0  0
  -29.5032  -26.8340   21.6158 C   0  0  0  0  0  0  0  0  0  0  0  0
  -19.6764  -15.5604   20.9229 C   0  0  0  0  0  0  0  0  0  0  0  0
  -18.7346  -17.8261   20.2971 C   0  0  0  0  0  0  0  0  0  0  0  0
  -20.8388  -17.7083   21.5730 C   0  0  0  0  0  0  0  0  0  0  0  0
  -18.6056  -26.3325   20.7118 C   0  0  0  0  0  0  0  0  0  0  0  0
  -20.5488  -25.8139   21.2751 C   0  0  0  0  0  0  0  0  0  0  0  0
  -28.1830  -26.7153   20.8448 C   0  0  1  0  0  0  0  0  0  0  0  0
  -26.4332  -30.0864   20.9299 C   0  0  1  0  0  0  0  0  0  0  0  0
  -20.5593  -16.2523   21.9800 C   0  0  2  0  0  0  0  0  0  0  0  0
  -19.9917  -26.7998   20.2333 C   0  0  0  0  0  0  0  0  0  1  0  0
  -22.1766  -23.3988   25.9571 C   0  0  0  0  0  0  0  0  0  0  0  0
  -24.0655  -36.2916   24.9163 C   0  0  0  0  0  0  0  0  0  0  0  0
  -26.5686  -30.1920   25.5484 C   0  0  0  0  0  0  0  0  0  0  0  0
  -25.5224  -32.2024   26.6124 C   0  0  0  0  0  0  0  0  0  0  0  0
  -27.7268  -32.4068   25.4629 C   0  0  0  0  0  0  0  0  0  0  0  0
  -23.2406  -35.4679   21.2945 C   0  0  0  0  0  0  0  0  0  0  0  0
  -18.7670  -24.7733   22.5906 C   0  0  0  0  0  0  0  0  0  0  0  0
  -25.6322  -32.0988   24.0810 C   0  0  1  0  0  0  0  0  0  0  0  0
  -24.2436  -35.5901   23.5788 C   0  0  2  0  0  0  0  0  0  0  0  0
  -26.3493  -31.7113   25.4050 C   0  0  0  0  0  0  0  0  0  0  0  0
  -22.3958  -14.7881   21.2284 N   0  0  0  0  0  0  0  0  0  0  0  0
  -21.8384  -15.4781   22.2380 N   0  0  0  0  0  0  0  0  0  0  0  0
  -25.6971  -30.7383   22.0149 N   0  0  0  0  0  0  0  0  0  0  0  0
  -19.5700  -18.4174   21.3446 N   0  0  0  0  0  0  0  0  0  0  0  0
  -22.1045  -16.0208   24.5283 N   0  0  0  0  0  0  0  0  0  0  0  0
  -25.6592  -13.3722   23.6654 N   0  0  0  0  0  0  0  0  0  0  0  0
  -19.9862  -20.0237   23.0207 N   0  0  0  0  0  0  0  0  0  0  0  0
  -27.6491  -28.0281   20.5517 N   0  0  0  0  0  0  0  0  0  0  0  0
  -25.4355  -33.5337   23.9058 N   0  0  0  0  0  0  0  0  0  0  0  0
  -19.2512  -25.1145   21.2351 N   0  3  0  0  0  0  0  0  0  0  0  0
  -23.1726  -36.0602   22.6553 N   0  3  0  0  0  0  0  0  0  0  0  0
  -24.5888  -14.5796   25.2948 O   0  0  0  0  0  0  0  0  0  0  0  0
  -26.5458  -28.3915   22.5699 O   0  0  0  0  0  0  0  0  0  0  0  0
  -27.5299  -32.0272   22.6597 O   0  0  0  0  0  0  0  0  0  0  0  0
  -23.1265  -33.4518   23.7090 O   0  0  0  0  0  0  0  0  0  0  0  0
  -18.0410  -20.1010   21.7590 O   0  0  0  0  0  0  0  0  0  0  0  0
  -26.8961  -11.0103   18.7739 O   0  0  0  0  0  0  0  0  0  0  0  0
  -20.3056  -28.1859   20.4433 O   0  0  0  0  0  0  0  0  0  1  0  0
  -32.3221  -11.8422   19.2945 F   0  0  0  0  0  0  0  0  0  0  0  0
  -28.4376  -11.7223   16.5923 F   0  0  0  0  0  0  0  0  0  0  0  0
  -22.0039  -20.4360   25.2354 Cl  0  0  0  0  0  0  0  0  0  0  0  0
  1  2  1  0  0  0  0
  1  5  2  0  0  0  0
  2  6  2  0  0  0  0
  3  8  2  0  0  0  0
  3 17  1  0  0  0  0
  4  9  1  0  0  0  0
  4 17  2  0  0  0  0
  5 19  1  0  0  0  0
  6 21  1  0  0  0  0
  7 10  2  0  0  0  0
  7 20  1  0  0  0  0
  8 26  1  0  0  0  0
  9 26  2  0  0  0  0
 10 27  1  0  0  0  0
 11 12  2  0  0  0  0
 11 28  1  0  0  0  0
 12 29  1  0  0  0  0
 13 22  1  0  0  0  0
 13 27  2  0  0  0  0
 14 23  1  0  0  0  0
 14 24  2  0  0  0  0
 15 23  2  0  0  0  0
 15 25  1  0  0  0  0
 16 29  2  0  0  0  0
 16 30  1  0  0  0  0
 17 32  1  0  0  0  0
 18 32  1  0  0  0  0
 18 33  2  0  0  0  0
 18 34  1  0  0  0  0
 19 21  2  0  0  0  0
 19 39  1  0  0  0  0
 20 22  2  0  0  0  0
 20 40  1  0  0  0  0
 21 50  1  0  0  0  0
 22 41  1  0  0  0  0
 23 60  1  0  0  0  0
 24 31  1  0  0  0  0
 24 54  1  0  0  0  0
 25 31  2  0  0  0  0
 25 70  1  0  0  0  0
 26 80  1  0  0  0  0
 27 81  1  0  0  0  0
 28 30  2  0  0  0  0
 28 80  1  0  0  0  0
 29 82  1  0  0  0  0
 30 83  1  0  0  0  0
 31 84  1  0  0  0  0
 32 64  2  0  0  0  0
 33 65  1  0  0  0  0
 33 68  1  0  0  0  0
 34 69  1  0  0  0  0
 34 75  2  0  0  0  0
 35 51  1  0  0  0  0
 35 71  1  0  0  0  0
 35 76  2  0  0  0  0
 36 61  1  0  0  0  0
 36 66  1  0  0  0  0
 36 77  2  0  0  0  0
 37 62  1  0  0  0  0
 37 72  1  0  0  0  0
 37 78  2  0  0  0  0
 38 67  1  0  0  0  0
 38 70  1  0  0  0  0
 38 79  2  0  0  0  0
 39 42  1  0  0  0  0
 40 51  1  0  0  0  0
 41 66  1  0  0  0  0
 42 44  1  0  0  0  0
 43 45  1  0  0  0  0
 43 46  1  0  0  0  0
 44 50  1  0  0  0  0
 45 52  1  0  0  0  0
 46 67  1  0  0  0  0
 47 52  1  0  0  0  0
 47 67  1  0  0  0  0
 48 53  1  0  0  0  0
 48 73  1  0  0  0  0
 49 53  1  0  0  0  0
 49 73  1  0  0  0  0
 50 71  1  0  0  0  0
 51 66  1  0  0  0  0
 52 65  1  0  0  0  0
 53 81  1  0  0  0  0
 55 62  1  0  0  0  0
 56 63  1  0  0  0  0
 57 63  1  0  0  0  0
 58 63  1  0  0  0  0
 59 74  1  0  0  0  0
 60 73  1  0  0  0  0
 61 63  1  0  0  0  0
 61 72  1  0  0  0  0
 62 74  1  0  0  0  0
 64 65  1  0  0  0  0
M  CHG  2  73   1  74   1
M  ISO  4  38 100  53 101  70 100  81 101
M  END
> <Batch ID>
0026

> <Smiles>
CNC(C)C(=O)NC(C(=O)N1Cc2cc([101O:1][101CH:1]3CN(Cc4cc(C)c(Cl)c([100NH:0][100C:0](=O)N5CCCC(n6nc(-c7ccc(Oc8ccc(F)cc8F)cc7)c(C(N)=O)c6N)C5)c4)C3)ccc2CC1C(=O)NC1CCCc2ccccc21)C(C)(C)C

> <Shape>
0.275

> <Color>
0.082

> <Negative vol penalty>
0.000

$$$$

  -OEChem-04042321253D

 92102  0     1  0  0  0  0  0999 V2000
  -17.0293  -29.4221   24.7414 C   0  0  0  0  0  0  0  0  0  0  0  0
  -17.6895  -28.2530   24.3772 C   0  0  0  0  0  0  0  0  0  0  0  0
  -22.8300  -15.2048   20.5595 C   0  0  0  0  0  0  0  0  0  0  0  0
  -24.4059  -15.4225   22.3777 C   0  0  0  0  0  0  0  0  0  0  0  0
  -17.3070  -30.6147   24.0747 C   0  0  0  0  0  0  0  0  0  0  0  0
  -18.6271  -28.2755   23.3452 C   0  0  0  0  0  0  0  0  0  0  0  0
  -23.7523  -24.9462   22.9543 C   0  0  0  0  0  0  0  0  0  0  0  0
  -22.1414  -16.3262   21.0220 C   0  0  0  0  0  0  0  0  0  0  0  0
  -23.7174  -16.5439   22.8403 C   0  0  0  0  0  0  0  0  0  0  0  0
  -24.0552  -23.7668   22.2754 C   0  0  0  0  0  0  0  0  0  0  0  0
  -19.9143  -17.0511   23.4590 C   0  0  0  0  0  0  0  0  0  0  0  0
  -18.5224  -16.9789   23.5142 C   0  0  0  0  0  0  0  0  0  0  0  0
  -24.9710  -25.0572   20.4546 C   0  0  0  0  0  0  0  0  0  0  0  0
  -28.9211  -18.5894   19.7851 C   0  0  0  0  0  0  0  0  0  0  0  0
  -30.8137  -19.7532   21.4722 C   0  0  0  0  0  0  0  0  0  0  0  0
  -18.3651  -18.8449   21.9876 C   0  0  0  0  0  0  0  0  0  0  0  0
  -23.9622  -14.7529   21.2374 C   0  0  0  0  0  0  0  0  0  0  0  0
  -24.1684  -12.2889   20.6098 C   0  0  0  0  0  0  0  0  0  0  0  0
  -18.2555  -30.6539   23.0405 C   0  0  0  0  0  0  0  0  0  0  0  0
  -24.0471  -26.1923   22.3827 C   0  0  0  0  0  0  0  0  0  0  0  0
  -18.9168  -29.4695   22.6632 C   0  0  0  0  0  0  0  0  0  0  0  0
  -24.6732  -26.2509   21.1295 C   0  0  0  0  0  0  0  0  0  0  0  0
  -28.9745  -19.9765   19.9215 C   0  0  0  0  0  0  0  0  0  0  0  0
  -29.9208  -20.5584   20.7650 C   0  0  0  0  0  0  0  0  0  0  0  0
  -29.8140  -17.7841   20.4923 C   0  0  0  0  0  0  0  0  0  0  0  0
  -22.5851  -16.9958   22.1624 C   0  0  0  0  0  0  0  0  0  0  0  0
  -24.6620  -23.8222   21.0240 C   0  0  0  0  0  0  0  0  0  0  0  0
  -20.5316  -18.0203   22.6682 C   0  0  0  0  0  0  0  0  0  0  0  0
  -17.7478  -17.8758   22.7784 C   0  0  0  0  0  0  0  0  0  0  0  0
  -30.7603  -18.3661   21.3358 C   0  0  0  0  0  0  0  0  0  0  0  0
  -19.7571  -18.9172   21.9325 C   0  0  0  0  0  0  0  0  0  0  0  0
  -24.6736  -13.5942   20.7604 C   0  0  0  0  0  0  0  0  0  0  0  0
  -25.2304  -11.5631   20.1284 C   0  0  0  0  0  0  0  0  0  0  0  0
  -26.7497  -20.6156   19.3951 C   0  0  0  0  0  0  0  0  0  0  0  0
  -22.8564  -11.7782   20.8808 C   0  0  0  0  0  0  0  0  0  0  0  0
  -22.3267  -28.7024   21.4645 C   0  0  0  0  0  0  0  0  0  0  0  0
  -25.2448  -30.0292   20.9680 C   0  0  0  0  0  0  0  0  0  0  0  0
  -28.5698  -29.5691   20.3521 C   0  0  0  0  0  0  0  0  0  0  0  0
  -28.8828  -15.6279   19.5580 C   0  0  0  0  0  0  0  0  0  0  0  0
  -18.4876  -31.9569   22.3174 C   0  0  0  0  0  0  0  0  0  0  0  0
  -23.7384  -27.4548   23.1398 C   0  0  0  0  0  0  0  0  0  0  0  0
  -25.0288  -27.5631   20.4812 C   0  0  0  0  0  0  0  0  0  0  0  0
  -19.7677  -31.9724   21.4859 C   0  0  0  0  0  0  0  0  0  0  0  0
  -30.8508  -24.1427   21.2125 C   0  0  0  0  0  0  0  0  0  0  0  0
  -29.3427  -24.2287   21.0930 C   0  0  0  0  0  0  0  0  0  0  0  0
  -27.8398  -21.9238   17.0144 C   0  0  0  0  0  0  0  0  0  0  0  0
  -30.0192  -12.0664   20.5018 C   0  0  0  0  0  0  0  0  0  0  0  0
  -19.8839  -30.6947   20.6609 C   0  0  0  0  0  0  0  0  0  0  0  0
  -26.4022  -21.4292   17.0919 C   0  0  0  0  0  0  0  0  0  0  0  0
  -28.5712  -11.6282   20.6817 C   0  0  0  0  0  0  0  0  0  0  0  0
  -28.6285  -21.8042   18.3121 C   0  0  0  0  0  0  0  0  0  0  0  0
  -31.1602  -22.7827   20.5973 C   0  0  0  0  0  0  0  0  0  0  0  0
  -28.8984  -22.8055   21.4107 C   0  0  0  0  0  0  0  0  0  0  0  0
  -30.1117  -13.5896   20.4759 C   0  0  0  0  0  0  0  0  0  0  0  0
  -28.2979  -13.3397   18.7788 C   0  0  0  0  0  0  0  0  0  0  0  0
  -19.9584  -29.4587   21.5655 C   0  0  1  0  0  0  0  0  0  0  0  0
  -25.8416  -21.4115   18.5110 C   0  0  2  0  0  0  0  0  0  0  0  0
  -23.6154  -28.6782   22.2366 C   0  0  1  0  0  0  0  0  0  0  0  0
  -27.6768  -12.1502   19.5395 C   0  0  2  0  0  0  0  0  0  0  0  0
  -30.6951  -30.8440   19.9585 C   0  0  0  0  0  0  0  0  0  0  0  0
  -24.3321  -30.6688   18.1276 C   0  0  0  0  0  0  0  0  0  0  0  0
  -26.7301  -31.0506   17.5176 C   0  0  0  0  0  0  0  0  0  0  0  0
  -25.6384  -32.4893   19.2384 C   0  0  0  0  0  0  0  0  0  0  0  0
  -26.8526  -19.0164   21.2217 C   0  0  0  0  0  0  0  0  0  0  0  0
  -29.8562  -28.3902   22.7426 C   0  0  0  0  0  0  0  0  0  0  0  0
  -25.5795  -22.8031   19.0809 C   0  0  0  0  0  0  0  0  0  1  0  0
  -26.2069  -30.0922   19.8064 C   0  0  1  0  0  0  0  0  0  0  0  0
  -29.8060  -30.1729   20.9938 C   0  0  2  0  0  0  0  0  0  0  0  0
  -25.7186  -31.0504   18.6836 C   0  0  0  0  0  0  0  0  0  0  0  0
  -25.9568  -13.6948   20.4037 N   0  0  0  0  0  0  0  0  0  0  0  0
  -26.2669  -12.4434   20.0243 N   0  0  0  0  0  0  0  0  0  0  0  0
  -28.0803  -20.7583   19.2115 N   0  0  0  0  0  0  0  0  0  0  0  0
  -29.9887  -21.9568   20.9145 N   0  0  0  0  0  0  0  0  0  0  0  0
  -24.7011  -28.7699   21.2583 N   0  0  0  0  0  0  0  0  0  0  0  0
  -29.0852  -14.2273   19.6383 N   0  0  0  0  0  0  0  0  0  0  0  0
  -25.3695  -10.2641   19.7883 N   0  0  0  0  0  0  0  0  0  0  0  0
  -22.5865  -11.2749   22.1607 N   0  0  0  0  0  0  0  0  0  0  0  0
  -29.7577  -16.3745   20.3518 N   0  0  0  0  0  0  0  0  0  0  0  0
  -21.2851  -29.3230   22.1275 N   0  0  0  0  0  0  0  0  0  0  0  0
  -27.5052  -30.4453   20.3705 N   0  0  0  0  0  0  0  0  0  0  0  0
  -26.1153  -19.8521   20.2871 N   0  3  0  0  0  0  0  0  0  0  0  0
  -30.6008  -29.1166   21.6819 N   0  3  0  0  0  0  0  0  0  0  0  0
  -21.9550  -11.7533   20.0087 O   0  0  0  0  0  0  0  0  0  0  0  0
  -22.2810  -28.1968   20.3491 O   0  0  0  0  0  0  0  0  0  0  0  0
  -24.9906  -31.0582   21.5991 O   0  0  0  0  0  0  0  0  0  0  0  0
  -28.5515  -28.4352   19.8785 O   0  0  0  0  0  0  0  0  0  0  0  0
  -28.0074  -16.1157   18.8401 O   0  0  0  0  0  0  0  0  0  0  0  0
  -21.9136  -18.0902   22.6139 O   0  0  0  0  0  0  0  0  0  0  0  0
  -24.9581  -22.6725   20.3589 O   0  0  0  0  0  0  0  0  0  1  0  0
  -16.4112  -17.8054   22.8303 F   0  0  0  0  0  0  0  0  0  0  0  0
  -31.6233  -17.6017   22.0203 F   0  0  0  0  0  0  0  0  0  0  0  0
  -20.3444  -19.8496   21.1700 F   0  0  0  0  0  0  0  0  0  0  0  0
  1  2  1  0  0  0  0
  1  5  2  0  0  0  0
  2  6  2  0  0  0  0
  3  8  2  0  0  0  0
  3 17  1  0  0  0  0
  4  9  1  0  0  0  0
  4 17  2  0  0  0  0
  5 19  1  0  0  0  0
  6 21  1  0  0  0  0
  7 10  2  0  0  0  0
  7 20  1  0  0  0  0
  8 26  1  0  0  0  0
  9 26  2  0  0  0  0
 10 27  1  0  0  0  0
 11 12  2  0  0  0  0
 11 28  1  0  0  0  0
 12 29  1  0  0  0  0
 13 22  1  0  0  0  0
 13 27  2  0  0  0  0
 14 23  1  0  0  0  0
 14 25  2  0  0  0  0
 15 24  1  0  0  0  0
 15 30  2  0  0  0  0
 16 29  2  0  0  0  0
 16 31  1  0  0  0  0
 17 32  1  0  0  0  0
 18 32  1  0  0  0  0
 18 33  2  0  0  0  0
 18 35  1  0  0  0  0
 19 21  2  0  0  0  0
 19 40  1  0  0  0  0
 20 22  2  0  0  0  0
 20 41  1  0  0  0  0
 21 56  1  0  0  0  0
 22 42  1  0  0  0  0
 23 24  2  0  0  0  0
 23 72  1  0  0  0  0
 24 73  1  0  0  0  0
 25 30  1  0  0  0  0
 25 78  1  0  0  0  0
 26 88  1  0  0  0  0
 27 89  1  0  0  0  0
 28 31  2  0  0  0  0
 28 88  1  0  0  0  0
 29 90  1  0  0  0  0
 30 91  1  0  0  0  0
 31 92  1  0  0  0  0
 32 70  2  0  0  0  0
 33 71  1  0  0  0  0
 33 76  1  0  0  0  0
 34 57  1  0  0  0  0
 34 72  1  0  0  0  0
 34 81  2  0  0  0  0
 35 77  1  0  0  0  0
 35 83  2  0  0  0  0
 36 58  1  0  0  0  0
 36 79  1  0  0  0  0
 36 84  2  0  0  0  0
 37 67  1  0  0  0  0
 37 74  1  0  0  0  0
 37 85  2  0  0  0  0
 38 68  1  0  0  0  0
 38 80  1  0  0  0  0
 38 86  2  0  0  0  0
 39 75  1  0  0  0  0
 39 78  1  0  0  0  0
 39 87  2  0  0  0  0
 40 43  1  0  0  0  0
 41 58  1  0  0  0  0
 42 74  1  0  0  0  0
 43 48  1  0  0  0  0
 44 45  1  0  0  0  0
 44 52  1  0  0  0  0
 45 53  1  0  0  0  0
 46 49  1  0  0  0  0
 46 51  1  0  0  0  0
 47 50  1  0  0  0  0
 47 54  1  0  0  0  0
 48 56  1  0  0  0  0
 49 57  1  0  0  0  0
 50 59  1  0  0  0  0
 51 72  1  0  0  0  0
 52 73  1  0  0  0  0
 53 73  1  0  0  0  0
 54 75  1  0  0  0  0
 55 59  1  0  0  0  0
 55 75  1  0  0  0  0
 56 79  1  0  0  0  0
 57 66  1  0  0  0  0
 58 74  1  0  0  0  0
 59 71  1  0  0  0  0
 60 68  1  0  0  0  0
 61 69  1  0  0  0  0
 62 69  1  0  0  0  0
 63 69  1  0  0  0  0
 64 81  1  0  0  0  0
 65 82  1  0  0  0  0
 66 89  1  0  0  0  0
 67 69  1  0  0  0  0
 67 80  1  0  0  0  0
 68 82  1  0  0  0  0
 70 71  1  0  0  0  0
M  CHG  2  81   1  82   1
M  ISO  4  39 100  66 101  78 100  89 101
M  END
> <Batch ID>
0026

> <Smiles>
CN=C1C([101CH2:1][101O:1]c2ccc3c(c2)CN(C(=O)C(NC(=O)C(C)NC)C(C)(C)C)C(C(=O)NC2CCCc4ccccc42)C3)CCCN1c1cc([100NH:0][100C:0](=O)N2CCCC(n3nc(-c4ccc(Oc5ccc(F)cc5F)cc4)c(C(N)=O)c3N)C2)c(F)cc1N1CCCC1

> <Shape>
0.247

> <Color>
0.073

> <Negative vol penalty>
0.000

$$$$

  -OEChem-04042321253D

 87 96  0     1  0  0  0  0  0999 V2000
  -29.7234  -36.7668   21.1643 C   0  0  0  0  0  0  0  0  0  0  0  0
  -29.8365  -35.4230   20.8226 C   0  0  0  0  0  0  0  0  0  0  0  0
  -24.6344   -7.9220   20.4497 C   0  0  0  0  0  0  0  0  0  0  0  0
  -23.3490   -9.9598   20.6289 C   0  0  0  0  0  0  0  0  0  0  0  0
  -28.8444  -37.1566   22.1739 C   0  0  0  0  0  0  0  0  0  0  0  0
  -29.0714  -34.4679   21.4911 C   0  0  0  0  0  0  0  0  0  0  0  0
  -26.6849  -29.3482   19.1250 C   0  0  0  0  0  0  0  0  0  0  0  0
  -23.5385   -7.1904   20.9071 C   0  0  0  0  0  0  0  0  0  0  0  0
  -22.2530   -9.2282   21.0863 C   0  0  0  0  0  0  0  0  0  0  0  0
  -27.1080  -28.0199   19.1447 C   0  0  0  0  0  0  0  0  0  0  0  0
  -22.0513   -6.5214   23.8676 C   0  0  0  0  0  0  0  0  0  0  0  0
  -22.2830   -5.5472   24.8386 C   0  0  0  0  0  0  0  0  0  0  0  0
  -25.6734  -27.5972   21.0374 C   0  0  0  0  0  0  0  0  0  0  0  0
  -27.4826  -20.7578   19.3010 C   0  0  0  0  0  0  0  0  0  0  0  0
  -29.3237  -21.5976   20.6209 C   0  0  0  0  0  0  0  0  0  0  0  0
  -21.4259   -3.8535   23.3439 C   0  0  0  0  0  0  0  0  0  0  0  0
  -24.5397   -9.3067   20.3106 C   0  0  0  0  0  0  0  0  0  0  0  0
  -26.3321   -9.9234   18.6033 C   0  0  0  0  0  0  0  0  0  0  0  0
  -28.0610  -36.2069   22.8486 C   0  0  0  0  0  0  0  0  0  0  0  0
  -25.7596  -29.8145   20.0699 C   0  0  0  0  0  0  0  0  0  0  0  0
  -28.1821  -34.8452   22.5117 C   0  0  0  0  0  0  0  0  0  0  0  0
  -25.2383  -28.9312   21.0260 C   0  0  0  0  0  0  0  0  0  0  0  0
  -27.7418  -19.4668   19.7609 C   0  0  0  0  0  0  0  0  0  0  0  0
  -28.7919  -19.2411   20.6508 C   0  0  0  0  0  0  0  0  0  0  0  0
  -28.2737  -21.8233   19.7309 C   0  0  0  0  0  0  0  0  0  0  0  0
  -22.3478   -7.8435   21.2254 C   0  0  0  0  0  0  0  0  0  0  0  0
  -26.6045  -27.1449   20.1027 C   0  0  0  0  0  0  0  0  0  0  0  0
  -21.5068   -6.1617   22.6348 C   0  0  0  0  0  0  0  0  0  0  0  0
  -21.9703   -4.2133   24.5768 C   0  0  0  0  0  0  0  0  0  0  0  0
  -21.1941   -4.8278   22.3729 C   0  0  0  0  0  0  0  0  0  0  0  0
  -29.5829  -20.3065   21.0808 C   0  0  0  0  0  0  0  0  0  0  0  0
  -25.6717  -10.0631   19.8387 C   0  0  0  0  0  0  0  0  0  0  0  0
  -27.3312  -10.8652   18.6396 C   0  0  0  0  0  0  0  0  0  0  0  0
  -26.0661   -9.0229   17.5198 C   0  0  0  0  0  0  0  0  0  0  0  0
  -25.8101  -32.0161   22.3620 C   0  0  0  0  0  0  0  0  0  0  0  0
  -22.6612  -31.2757   22.6042 C   0  0  0  0  0  0  0  0  0  0  0  0
  -20.1740  -28.9945   22.0972 C   0  0  0  0  0  0  0  0  0  0  0  0
  -29.1901  -15.8169   19.6327 C   0  0  0  0  0  0  0  0  0  0  0  0
  -27.1596  -36.6707   23.9653 C   0  0  0  0  0  0  0  0  0  0  0  0
  -25.2931  -31.2435   20.0186 C   0  0  0  0  0  0  0  0  0  0  0  0
  -24.2275  -29.3771   22.0498 C   0  0  0  0  0  0  0  0  0  0  0  0
  -26.1093  -35.6390   24.3686 C   0  0  0  0  0  0  0  0  0  0  0  0
  -29.0771  -13.6853   22.4462 C   0  0  0  0  0  0  0  0  0  0  0  0
  -26.7458  -34.2613   24.5221 C   0  0  0  0  0  0  0  0  0  0  0  0
  -28.2208  -12.5344   21.9197 C   0  0  0  0  0  0  0  0  0  0  0  0
  -27.2499  -24.8723   17.9267 C   0  0  0  0  0  0  0  0  0  0  0  0
  -28.5666  -15.0462   21.9692 C   0  0  0  0  0  0  0  0  0  0  0  0
  -26.9433  -23.4346   18.3457 C   0  0  0  0  0  0  0  0  0  0  0  0
  -27.5503  -13.9928   19.9742 C   0  0  0  0  0  0  0  0  0  0  0  0
  -28.7856  -24.2803   19.6729 C   0  0  0  0  0  0  0  0  0  0  0  0
  -27.3508  -33.7824   23.1969 C   0  0  1  0  0  0  0  0  0  0  0  0
  -24.7352  -31.7381   21.3496 C   0  0  1  0  0  0  0  0  0  0  0  0
  -28.0772  -12.6107   20.3898 C   0  0  2  0  0  0  0  0  0  0  0  0
  -27.9636  -25.4526   19.1390 C   0  0  2  0  0  0  0  0  0  1  0  0
  -26.8789  -18.3444   19.2841 C   0  0  0  0  0  0  0  0  0  0  0  0
  -30.2879  -18.6280   18.3427 C   0  0  0  0  0  0  0  0  0  0  0  0
  -17.7094  -28.6605   22.4308 C   0  0  0  0  0  0  0  0  0  0  0  0
  -23.1318  -30.7936   25.5801 C   0  0  0  0  0  0  0  0  0  0  0  0
  -20.9442  -29.5784   25.6580 C   0  0  0  0  0  0  0  0  0  0  0  0
  -21.0054  -31.9948   25.0413 C   0  0  0  0  0  0  0  0  0  0  0  0
  -19.7051  -28.6840   19.1916 C   0  0  0  0  0  0  0  0  0  0  0  0
  -29.0564  -17.8494   21.1347 C   0  0  0  0  0  0  0  0  0  0  0  0
  -30.7999  -17.6694   19.3987 C   0  0  0  0  0  0  0  0  0  0  0  0
  -21.8564  -30.2738   23.3963 C   0  0  1  0  0  0  0  0  0  0  0  0
  -18.7958  -29.1285   21.4751 C   0  0  2  0  0  0  0  0  0  0  0  0
  -21.7549  -30.6519   24.9010 C   0  0  0  0  0  0  0  0  0  0  0  0
  -26.2063  -11.0183   20.6040 N   0  0  0  0  0  0  0  0  0  0  0  0
  -27.2133  -11.4873   19.8476 N   0  0  0  0  0  0  0  0  0  0  0  0
  -28.0173  -23.0997   19.2760 N   0  0  3  0  0  0  0  0  0  0  0  0
  -23.8074  -30.7854   21.9625 N   0  0  0  0  0  0  0  0  0  0  0  0
  -28.3987  -15.0603   20.5096 N   0  0  0  0  0  0  0  0  0  0  0  0
  -28.2903  -11.2135   17.7558 N   0  0  0  0  0  0  0  0  0  0  0  0
  -25.1799   -9.4313   16.5137 N   0  0  0  0  0  0  0  0  0  0  0  0
  -26.3119  -33.3026   22.3110 N   0  0  0  0  0  0  0  0  0  0  0  0
  -20.5683  -30.1594   22.7208 N   0  0  0  0  0  0  0  0  0  0  0  0
  -29.7085  -17.0271   20.1174 N   0  0  0  0  0  0  0  0  0  0  0  0
  -18.7084  -28.3149   20.2295 N   0  3  0  0  0  0  0  0  0  0  0  0
  -26.5859   -7.8831   17.4544 O   0  0  0  0  0  0  0  0  0  0  0  0
  -26.1574  -31.1295   23.1334 O   0  0  0  0  0  0  0  0  0  0  0  0
  -22.2828  -32.4485   22.5507 O   0  0  0  0  0  0  0  0  0  0  0  0
  -20.8332  -27.9588   22.0392 O   0  0  0  0  0  0  0  0  0  0  0  0
  -29.4154  -15.4368   18.4765 O   0  0  0  0  0  0  0  0  0  0  0  0
  -21.2781   -7.1299   21.6715 O   0  0  0  0  0  0  0  0  0  0  0  0
  -27.0163  -25.8480   20.1245 O   0  0  0  0  0  0  0  0  0  1  0  0
  -22.1943   -3.2776   25.5088 F   0  0  0  0  0  0  0  0  0  0  0  0
  -20.6719   -4.4760   21.1900 F   0  0  0  0  0  0  0  0  0  0  0  0
  -30.8918  -20.0690   22.1816 Cl  0  0  0  0  0  0  0  0  0  0  0  0
  1  2  1  0  0  0  0
  1  5  2  0  0  0  0
  2  6  2  0  0  0  0
  3  8  2  0  0  0  0
  3 17  1  0  0  0  0
  4  9  1  0  0  0  0
  4 17  2  0  0  0  0
  5 19  1  0  0  0  0
  6 21  1  0  0  0  0
  7 10  2  0  0  0  0
  7 20  1  0  0  0  0
  8 26  1  0  0  0  0
  9 26  2  0  0  0  0
 10 27  1  0  0  0  0
 11 12  2  0  0  0  0
 11 28  1  0  0  0  0
 12 29  1  0  0  0  0
 13 22  1  0  0  0  0
 13 27  2  0  0  0  0
 14 23  2  0  0  0  0
 14 25  1  0  0  0  0
 15 25  2  0  0  0  0
 15 31  1  0  0  0  0
 16 29  2  0  0  0  0
 16 30  1  0  0  0  0
 17 32  1  0  0  0  0
 18 32  1  0  0  0  0
 18 33  2  0  0  0  0
 18 34  1  0  0  0  0
 19 21  2  0  0  0  0
 19 39  1  0  0  0  0
 20 22  2  0  0  0  0
 20 40  1  0  0  0  0
 21 51  1  0  0  0  0
 22 41  1  0  0  0  0
 23 24  1  0  0  0  0
 23 55  1  0  0  0  0
 24 31  2  0  0  0  0
 24 62  1  0  0  0  0
 25 69  1  0  0  0  0
 26 83  1  0  0  0  0
 27 84  1  0  0  0  0
 28 30  2  0  0  0  0
 28 83  1  0  0  0  0
 29 85  1  0  0  0  0
 30 86  1  0  0  0  0
 31 87  1  0  0  0  0
 32 67  2  0  0  0  0
 33 68  1  0  0  0  0
 33 72  1  0  0  0  0
 34 73  1  0  0  0  0
 34 78  2  0  0  0  0
 35 52  1  0  0  0  0
 35 74  1  0  0  0  0
 35 79  2  0  0  0  0
 36 64  1  0  0  0  0
 36 70  1  0  0  0  0
 36 80  2  0  0  0  0
 37 65  1  0  0  0  0
 37 75  1  0  0  0  0
 37 81  2  0  0  0  0
 38 71  1  0  0  0  0
 38 76  1  0  0  0  0
 38 82  2  0  0  0  0
 39 42  1  0  0  0  0
 40 52  1  0  0  0  0
 41 70  1  0  0  0  0
 42 44  1  0  0  0  0
 43 45  1  0  0  0  0
 43 47  1  0  0  0  0
 44 51  1  0  0  0  0
 45 53  1  0  0  0  0
 46 48  1  0  0  0  0
 46 54  1  0  0  0  0
 47 71  1  0  0  0  0
 48 69  1  0  0  0  0
 49 53  1  0  0  0  0
 49 71  1  0  0  0  0
 50 54  1  0  0  0  0
 50 69  1  0  0  0  0
 51 74  1  0  0  0  0
 52 70  1  0  0  0  0
 53 68  1  0  0  0  0
 54 84  1  0  0  0  0
 56 63  1  0  0  0  0
 57 65  1  0  0  0  0
 58 66  1  0  0  0  0
 59 66  1  0  0  0  0
 60 66  1  0  0  0  0
 61 77  1  0  0  0  0
 62 76  1  0  0  0  0
 63 76  1  0  0  0  0
 64 66  1  0  0  0  0
 64 75  1  0  0  0  0
 65 77  1  0  0  0  0
 67 68  1  0  0  0  0
M  CHG  1  77   1
M  ISO  4  38 100  54 101  76 100  84 101
M  END
> <Batch ID>
0026

> <Smiles>
CC[100N:0](Cc1c(C)cc(N2CC[101CH:1]([101O:1]c3ccc4c(c3)CN(C(=O)C(NC(=O)C(C)NC)C(C)(C)C)C(C(=O)NC3CCCc5ccccc53)C4)C2)cc1Cl)[100C:0](=O)N1CCCC(n2nc(-c3ccc(Oc4ccc(F)cc4F)cc3)c(C(N)=O)c2N)C1

> <Shape>
0.318

> <Color>
0.105

> <Negative vol penalty>
0.000

$$$$

  -OEChem-04042321253D

 81 89  0     1  0  0  0  0  0999 V2000
  -21.9407  -31.4543   29.4425 C   0  0  0  0  0  0  0  0  0  0  0  0
  -21.6789  -30.2010   28.8984 C   0  0  0  0  0  0  0  0  0  0  0  0
  -24.3891   -9.2409   21.0232 C   0  0  0  0  0  0  0  0  0  0  0  0
  -22.5403  -10.7777   21.2627 C   0  0  0  0  0  0  0  0  0  0  0  0
  -22.4886  -32.4584   28.6453 C   0  0  0  0  0  0  0  0  0  0  0  0
  -21.9638  -29.9514   27.5564 C   0  0  0  0  0  0  0  0  0  0  0  0
  -23.9151  -24.6797   25.1259 C   0  0  0  0  0  0  0  0  0  0  0  0
  -23.5170   -8.1654   21.1914 C   0  0  0  0  0  0  0  0  0  0  0  0
  -21.6681   -9.7022   21.4308 C   0  0  0  0  0  0  0  0  0  0  0  0
  -23.2499  -23.6497   24.4624 C   0  0  0  0  0  0  0  0  0  0  0  0
  -21.9612   -6.5971   23.7496 C   0  0  0  0  0  0  0  0  0  0  0  0
  -22.3583   -5.5693   24.6047 C   0  0  0  0  0  0  0  0  0  0  0  0
  -23.8467  -24.6370   22.3439 C   0  0  0  0  0  0  0  0  0  0  0  0
  -22.2302   -3.9972   22.7746 C   0  0  0  0  0  0  0  0  0  0  0  0
  -23.9008  -10.5470   21.0589 C   0  0  0  0  0  0  0  0  0  0  0  0
  -25.1613  -12.2804   19.6753 C   0  0  0  0  0  0  0  0  0  0  0  0
  -22.7893  -32.2181   27.2954 C   0  0  0  0  0  0  0  0  0  0  0  0
  -24.5430  -25.7037   24.4023 C   0  0  0  0  0  0  0  0  0  0  0  0
  -22.5150  -30.9536   26.7401 C   0  0  0  0  0  0  0  0  0  0  0  0
  -24.5215  -25.6775   23.0005 C   0  0  0  0  0  0  0  0  0  0  0  0
  -22.1565   -8.3960   21.3951 C   0  0  0  0  0  0  0  0  0  0  0  0
  -23.2131  -23.6298   23.0712 C   0  0  0  0  0  0  0  0  0  0  0  0
  -21.6985   -6.3251   22.4069 C   0  0  0  0  0  0  0  0  0  0  0  0
  -22.4929   -4.2693   24.1173 C   0  0  0  0  0  0  0  0  0  0  0  0
  -21.8331   -5.0251   21.9194 C   0  0  0  0  0  0  0  0  0  0  0  0
  -24.8013  -11.6584   20.8859 C   0  0  0  0  0  0  0  0  0  0  0  0
  -26.0341  -13.2740   20.0461 C   0  0  0  0  0  0  0  0  0  0  0  0
  -24.7439  -11.9864   18.3356 C   0  0  0  0  0  0  0  0  0  0  0  0
  -24.1724  -28.8536   24.1914 C   0  0  0  0  0  0  0  0  0  0  0  0
  -26.8364  -28.6521   22.3517 C   0  0  0  0  0  0  0  0  0  0  0  0
  -28.8312  -26.7489   20.3403 C   0  0  0  0  0  0  0  0  0  0  0  0
  -27.4736  -17.4766   23.4241 C   0  0  0  0  0  0  0  0  0  0  0  0
  -23.3368  -33.3490   26.4611 C   0  0  0  0  0  0  0  0  0  0  0  0
  -25.2792  -26.7933   25.1325 C   0  0  0  0  0  0  0  0  0  0  0  0
  -25.1972  -26.7422   22.1769 C   0  0  0  0  0  0  0  0  0  0  0  0
  -23.9576  -32.8894   25.1444 C   0  0  0  0  0  0  0  0  0  0  0  0
  -28.9946  -20.8922   20.6922 C   0  0  0  0  0  0  0  0  0  0  0  0
  -27.8633  -21.5403   19.8981 C   0  0  0  0  0  0  0  0  0  0  0  0
  -28.3050  -14.1778   24.4747 C   0  0  0  0  0  0  0  0  0  0  0  0
  -23.0411  -31.8934   24.4410 C   0  0  0  0  0  0  0  0  0  0  0  0
  -27.4927  -13.2804   23.5393 C   0  0  0  0  0  0  0  0  0  0  0  0
  -28.6450  -19.4670   21.1189 C   0  0  0  0  0  0  0  0  0  0  0  0
  -26.5420  -21.4973   20.6632 C   0  0  0  0  0  0  0  0  0  0  0  0
  -27.5405  -15.4474   24.8434 C   0  0  0  0  0  0  0  0  0  0  0  0
  -26.2313  -15.3294   22.7588 C   0  0  0  0  0  0  0  0  0  0  0  0
  -22.8332  -30.6368   25.2949 C   0  0  1  0  0  0  0  0  0  0  0  0
  -25.4450  -28.0625   24.3025 C   0  0  1  0  0  0  0  0  0  0  0  0
  -26.9830  -14.0630   22.3142 C   0  0  2  0  0  0  0  0  0  0  0  0
  -27.3229  -19.4212   21.8920 C   0  0  1  0  0  0  0  0  0  0  0  0
  -26.1964  -20.0670   21.0758 C   0  0  1  0  0  0  0  0  0  0  0  0
  -30.9177  -26.8712   18.9515 C   0  0  0  0  0  0  0  0  0  0  0  0
  -25.3049  -30.1633   20.1882 C   0  0  0  0  0  0  0  0  0  0  0  0
  -27.0438  -29.4300   18.5429 C   0  0  0  0  0  0  0  0  0  0  0  0
  -27.6853  -30.8757   20.4719 C   0  0  0  0  0  0  0  0  0  0  0  0
  -30.1767  -24.6773   21.9705 C   0  0  0  0  0  0  0  0  0  0  0  0
  -22.4870  -20.2652   22.0034 C   0  0  0  0  0  0  0  0  0  0  0  0
  -23.7065  -20.2609   21.0939 C   0  0  0  0  0  0  0  0  0  0  0  0
  -22.5201  -21.3548   23.0681 C   0  0  0  0  0  0  0  0  0  1  0  0
  -27.1068  -28.4486   20.8804 C   0  0  1  0  0  0  0  0  0  0  0  0
  -30.3350  -26.5431   20.3174 C   0  0  2  0  0  0  0  0  0  0  0  0
  -26.7707  -29.7102   20.0361 C   0  0  0  0  0  0  0  0  0  0  0  0
  -25.3970  -12.2105   21.9463 N   0  0  0  0  0  0  0  0  0  0  0  0
  -26.1401  -13.1898   21.4032 N   0  0  0  0  0  0  0  0  0  0  0  0
  -25.8987  -27.7898   22.9372 N   0  0  0  0  0  0  0  0  0  0  0  0
  -27.0862  -16.1433   23.6371 N   0  0  0  0  0  0  0  0  0  0  0  0
  -26.7137  -14.2027   19.3403 N   0  0  0  0  0  0  0  0  0  0  0  0
  -23.8425  -10.9325   18.1327 N   0  0  0  0  0  0  0  0  0  0  0  0
  -23.9892  -29.7704   25.2090 N   0  0  0  0  0  0  0  0  0  0  0  0
  -28.4953  -28.0129   20.7770 N   0  0  0  0  0  0  0  0  0  0  0  0
  -27.0047  -18.0595   22.2532 N   0  0  0  0  0  0  0  0  0  0  0  0
  -24.9478  -20.0968   21.8862 N   0  3  0  0  0  0  0  0  0  0  0  0
  -30.6692  -25.1278   20.6432 N   0  3  0  0  0  0  0  0  0  0  0  0
  -25.1706  -12.6283   17.3460 O   0  0  0  0  0  0  0  0  0  0  0  0
  -23.4136  -28.6487   23.2512 O   0  0  0  0  0  0  0  0  0  0  0  0
  -27.4404  -29.5387   22.9606 O   0  0  0  0  0  0  0  0  0  0  0  0
  -28.0343  -25.8769   20.0010 O   0  0  0  0  0  0  0  0  0  0  0  0
  -28.1891  -18.0995   24.2160 O   0  0  0  0  0  0  0  0  0  0  0  0
  -21.3051   -7.3468   21.5590 O   0  0  0  0  0  0  0  0  0  0  0  0
  -22.5639  -22.6259   22.4211 O   0  0  0  0  0  0  0  0  0  1  0  0
  -22.8757   -3.2826   24.9382 F   0  0  0  0  0  0  0  0  0  0  0  0
  -21.5833   -4.7579   20.6303 F   0  0  0  0  0  0  0  0  0  0  0  0
  1  2  1  0  0  0  0
  1  5  2  0  0  0  0
  2  6  2  0  0  0  0
  3  8  2  0  0  0  0
  3 15  1  0  0  0  0
  4  9  1  0  0  0  0
  4 15  2  0  0  0  0
  5 17  1  0  0  0  0
  6 19  1  0  0  0  0
  7 10  2  0  0  0  0
  7 18  1  0  0  0  0
  8 21  1  0  0  0  0
  9 21  2  0  0  0  0
 10 22  1  0  0  0  0
 11 12  2  0  0  0  0
 11 23  1  0  0  0  0
 12 24  1  0  0  0  0
 13 20  1  0  0  0  0
 13 22  2  0  0  0  0
 14 24  2  0  0  0  0
 14 25  1  0  0  0  0
 15 26  1  0  0  0  0
 16 26  1  0  0  0  0
 16 27  2  0  0  0  0
 16 28  1  0  0  0  0
 17 19  2  0  0  0  0
 17 33  1  0  0  0  0
 18 20  2  0  0  0  0
 18 34  1  0  0  0  0
 19 46  1  0  0  0  0
 20 35  1  0  0  0  0
 21 78  1  0  0  0  0
 22 79  1  0  0  0  0
 23 25  2  0  0  0  0
 23 78  1  0  0  0  0
 24 80  1  0  0  0  0
 25 81  1  0  0  0  0
 26 62  2  0  0  0  0
 27 63  1  0  0  0  0
 27 66  1  0  0  0  0
 28 67  1  0  0  0  0
 28 73  2  0  0  0  0
 29 47  1  0  0  0  0
 29 68  1  0  0  0  0
 29 74  2  0  0  0  0
 30 59  1  0  0  0  0
 30 64  1  0  0  0  0
 30 75  2  0  0  0  0
 31 60  1  0  0  0  0
 31 69  1  0  0  0  0
 31 76  2  0  0  0  0
 32 65  1  0  0  0  0
 32 70  1  0  0  0  0
 32 77  2  0  0  0  0
 33 36  1  0  0  0  0
 34 47  1  0  0  0  0
 35 64  1  0  0  0  0
 36 40  1  0  0  0  0
 37 38  1  0  0  0  0
 37 42  1  0  0  0  0
 38 43  1  0  0  0  0
 39 41  1  0  0  0  0
 39 44  1  0  0  0  0
 40 46  1  0  0  0  0
 41 48  1  0  0  0  0
 42 49  1  0  0  0  0
 43 50  1  0  0  0  0
 44 65  1  0  0  0  0
 45 48  1  0  0  0  0
 45 65  1  0  0  0  0
 46 68  1  0  0  0  0
 47 64  1  0  0  0  0
 48 63  1  0  0  0  0
 49 50  1  0  0  0  0
 49 70  1  0  0  0  0
 50 71  1  0  0  0  0
 51 60  1  0  0  0  0
 52 61  1  0  0  0  0
 53 61  1  0  0  0  0
 54 61  1  0  0  0  0
 55 72  1  0  0  0  0
 56 57  1  0  0  0  0
 56 58  1  0  0  0  0
 57 71  1  0  0  0  0
 58 79  1  0  0  0  0
 59 61  1  0  0  0  0
 59 69  1  0  0  0  0
 60 72  1  0  0  0  0
 62 63  1  0  0  0  0
M  CHG  2  71   1  72   1
M  ISO  4  32 100  58 101  70 100  79 101
M  END
> <Batch ID>
0026

> <Smiles>
CNC(C)C(=O)NC(C(=O)N1Cc2cc([101O:1][101CH2:1]CCNC3CCCCC3[100NH:0][100C:0](=O)N3CCCC(n4nc(-c5ccc(Oc6ccc(F)cc6F)cc5)c(C(N)=O)c4N)C3)ccc2CC1C(=O)NC1CCCc2ccccc21)C(C)(C)C

> <Shape>
0.193

> <Color>
0.093

> <Negative vol penalty>
0.000

$$$$

  -OEChem-04042321253D

 86 95  0     1  0  0  0  0  0999 V2000
  -28.6893  -33.2723   25.0765 C   0  0  0  0  0  0  0  0  0  0  0  0
  -28.6780  -32.0329   24.4447 C   0  0  0  0  0  0  0  0  0  0  0  0
  -23.5431  -10.3300   21.3558 C   0  0  0  0  0  0  0  0  0  0  0  0
  -22.9721  -12.2350   22.7277 C   0  0  0  0  0  0  0  0  0  0  0  0
  -27.5262  -33.7620   25.6693 C   0  0  0  0  0  0  0  0  0  0  0  0
  -27.5037  -31.2819   24.4063 C   0  0  0  0  0  0  0  0  0  0  0  0
  -26.6134  -29.3011   19.8315 C   0  0  0  0  0  0  0  0  0  0  0  0
  -30.1046  -21.1856   20.2271 C   0  0  0  0  0  0  0  0  0  0  0  0
  -30.0498  -19.7936   20.2956 C   0  0  0  0  0  0  0  0  0  0  0  0
  -22.7334   -9.5165   22.1484 C   0  0  0  0  0  0  0  0  0  0  0  0
  -22.1624  -11.4215   23.5203 C   0  0  0  0  0  0  0  0  0  0  0  0
  -27.3420  -28.1668   19.4760 C   0  0  0  0  0  0  0  0  0  0  0  0
  -22.5685   -9.1782   26.0170 C   0  0  0  0  0  0  0  0  0  0  0  0
  -22.6677   -9.3171   27.4013 C   0  0  0  0  0  0  0  0  0  0  0  0
  -25.4479  -26.7820   20.0364 C   0  0  0  0  0  0  0  0  0  0  0  0
  -27.9224  -19.8209   19.1509 C   0  0  0  0  0  0  0  0  0  0  0  0
  -20.3293   -9.9152   27.5089 C   0  0  0  0  0  0  0  0  0  0  0  0
  -23.6625  -11.6893   21.6455 C   0  0  0  0  0  0  0  0  0  0  0  0
  -24.1188  -13.2453   19.6761 C   0  0  0  0  0  0  0  0  0  0  0  0
  -26.3346  -33.0209   25.6297 C   0  0  0  0  0  0  0  0  0  0  0  0
  -25.2981  -29.1833   20.3032 C   0  0  0  0  0  0  0  0  0  0  0  0
  -26.3239  -31.7615   25.0002 C   0  0  0  0  0  0  0  0  0  0  0  0
  -24.7039  -27.9166   20.3947 C   0  0  0  0  0  0  0  0  0  0  0  0
  -27.9771  -21.2130   19.0824 C   0  0  0  0  0  0  0  0  0  0  0  0
  -29.0682  -21.8954   19.6205 C   0  0  0  0  0  0  0  0  0  0  0  0
  -28.9588  -19.1112   19.7575 C   0  0  0  0  0  0  0  0  0  0  0  0
  -22.0430  -10.0623   23.2306 C   0  0  0  0  0  0  0  0  0  0  0  0
  -26.7602  -26.9068   19.5812 C   0  0  0  0  0  0  0  0  0  0  0  0
  -21.3497   -9.4079   25.3785 C   0  0  0  0  0  0  0  0  0  0  0  0
  -21.5481   -9.6856   28.1473 C   0  0  0  0  0  0  0  0  0  0  0  0
  -20.2302   -9.7764   26.1245 C   0  0  0  0  0  0  0  0  0  0  0  0
  -24.4992  -12.5300   20.8274 C   0  0  0  0  0  0  0  0  0  0  0  0
  -25.2670  -13.8815   19.2721 C   0  0  0  0  0  0  0  0  0  0  0  0
  -22.8416  -13.3274   19.0298 C   0  0  0  0  0  0  0  0  0  0  0  0
  -23.8180  -29.8999   23.0233 C   0  0  0  0  0  0  0  0  0  0  0  0
  -21.1733  -29.0256   21.3610 C   0  0  0  0  0  0  0  0  0  0  0  0
  -19.8318  -27.2371   18.7825 C   0  0  0  0  0  0  0  0  0  0  0  0
  -29.8479  -16.8415   20.3934 C   0  0  0  0  0  0  0  0  0  0  0  0
  -25.1146  -33.5704   26.3255 C   0  0  0  0  0  0  0  0  0  0  0  0
  -24.5165  -30.4187   20.6572 C   0  0  0  0  0  0  0  0  0  0  0  0
  -23.2880  -27.7378   20.8761 C   0  0  0  0  0  0  0  0  0  0  0  0
  -23.8165  -32.8800   25.9149 C   0  0  0  0  0  0  0  0  0  0  0  0
  -30.0599  -13.3102   20.7965 C   0  0  0  0  0  0  0  0  0  0  0  0
  -23.9921  -31.3648   25.9227 C   0  0  0  0  0  0  0  0  0  0  0  0
  -28.6008  -12.8513   20.7458 C   0  0  0  0  0  0  0  0  0  0  0  0
  -29.8465  -25.4444   18.9891 C   0  0  0  0  0  0  0  0  0  0  0  0
  -30.2079  -14.6519   21.5119 C   0  0  0  0  0  0  0  0  0  0  0  0
  -29.7517  -24.0120   18.4638 C   0  0  0  0  0  0  0  0  0  0  0  0
  -27.8902  -15.2681   20.9481 C   0  0  0  0  0  0  0  0  0  0  0  0
  -28.6016  -24.1631   20.5911 C   0  0  0  0  0  0  0  0  0  0  0  0
  -25.0634  -30.9284   24.9160 C   0  0  1  0  0  0  0  0  0  0  0  0
  -23.3602  -30.1408   21.6127 C   0  0  1  0  0  0  0  0  0  0  0  0
  -27.6830  -13.9526   20.1799 C   0  0  2  0  0  0  0  0  0  0  0  0
  -28.6732  -25.5495   19.9524 C   0  0  2  0  0  0  0  0  0  1  0  0
  -17.6364  -26.6896   17.6972 C   0  0  0  0  0  0  0  0  0  0  0  0
  -20.5276  -27.1046   23.6419 C   0  0  0  0  0  0  0  0  0  0  0  0
  -18.9198  -25.9421   22.1149 C   0  0  0  0  0  0  0  0  0  0  0  0
  -18.5531  -28.3335   22.7224 C   0  0  0  0  0  0  0  0  0  0  0  0
  -20.6697  -28.4421   16.2125 C   0  0  0  0  0  0  0  0  0  0  0  0
  -20.4296  -27.7307   21.1390 C   0  0  1  0  0  0  0  0  0  0  0  0
  -18.8391  -27.6204   17.6999 C   0  0  2  0  0  0  0  0  0  0  0  0
  -26.8530  -21.9485   18.4284 C   0  0  0  0  0  0  0  0  0  0  0  0
  -19.6349  -27.2806   22.3973 C   0  0  0  0  0  0  0  0  0  0  0  0
  -25.7884  -12.6956   21.1348 N   0  0  0  0  0  0  0  0  0  0  0  0
  -26.2281  -13.5223   20.1707 N   0  0  0  0  0  0  0  0  0  0  0  0
  -29.1383  -23.2714   19.5622 N   0  0  3  0  0  0  0  0  0  0  0  0
  -22.5670  -28.9755   21.2163 N   0  0  0  0  0  0  0  0  0  0  0  0
  -29.3116  -15.6471   20.9193 N   0  0  0  0  0  0  0  0  0  0  0  0
  -25.5383  -14.7074   18.2393 N   0  0  0  0  0  0  0  0  0  0  0  0
  -21.7685  -12.6109   19.5770 N   0  0  0  0  0  0  0  0  0  0  0  0
  -28.9036  -17.6970   19.8267 N   0  0  0  0  0  0  0  0  0  0  0  0
  -24.5311  -30.9495   23.5704 N   0  0  0  0  0  0  0  0  0  0  0  0
  -19.6056  -27.9315   19.9520 N   0  0  0  0  0  0  0  0  0  0  0  0
  -19.4853  -27.5572   16.3585 N   0  3  0  0  0  0  0  0  0  0  0  0
  -22.6613  -14.0028   17.9882 O   0  0  0  0  0  0  0  0  0  0  0  0
  -23.5433  -28.8408   23.5752 O   0  0  0  0  0  0  0  0  0  0  0  0
  -20.5403  -30.0455   21.6450 O   0  0  0  0  0  0  0  0  0  0  0  0
  -20.7170  -26.4022   18.6092 O   0  0  0  0  0  0  0  0  0  0  0  0
  -31.0590  -17.0750   20.4177 O   0  0  0  0  0  0  0  0  0  0  0  0
  -21.2527   -9.2688   24.0041 O   0  0  0  0  0  0  0  0  0  0  0  0
  -27.4693  -25.7979   19.2355 O   0  0  0  0  0  0  0  0  0  1  0  0
  -21.6432   -9.8174   29.4768 F   0  0  0  0  0  0  0  0  0  0  0  0
  -19.0563   -9.9972   25.5169 F   0  0  0  0  0  0  0  0  0  0  0  0
  -25.8672  -21.1300   17.9578 F   0  0  0  0  0  0  0  0  0  0  0  0
  -26.2220  -22.8282   19.2594 F   0  0  0  0  0  0  0  0  0  0  0  0
  -27.2639  -22.6844   17.3562 F   0  0  0  0  0  0  0  0  0  0  0  0
  1  2  1  0  0  0  0
  1  5  2  0  0  0  0
  2  6  2  0  0  0  0
  3 10  2  0  0  0  0
  3 18  1  0  0  0  0
  4 11  1  0  0  0  0
  4 18  2  0  0  0  0
  5 20  1  0  0  0  0
  6 22  1  0  0  0  0
  7 12  2  0  0  0  0
  7 21  1  0  0  0  0
  8  9  2  0  0  0  0
  8 25  1  0  0  0  0
  9 26  1  0  0  0  0
 10 27  1  0  0  0  0
 11 27  2  0  0  0  0
 12 28  1  0  0  0  0
 13 14  2  0  0  0  0
 13 29  1  0  0  0  0
 14 30  1  0  0  0  0
 15 23  1  0  0  0  0
 15 28  2  0  0  0  0
 16 24  1  0  0  0  0
 16 26  2  0  0  0  0
 17 30  2  0  0  0  0
 17 31  1  0  0  0  0
 18 32  1  0  0  0  0
 19 32  1  0  0  0  0
 19 33  2  0  0  0  0
 19 34  1  0  0  0  0
 20 22  2  0  0  0  0
 20 39  1  0  0  0  0
 21 23  2  0  0  0  0
 21 40  1  0  0  0  0
 22 51  1  0  0  0  0
 23 41  1  0  0  0  0
 24 25  2  0  0  0  0
 24 62  1  0  0  0  0
 25 66  1  0  0  0  0
 26 71  1  0  0  0  0
 27 80  1  0  0  0  0
 28 81  1  0  0  0  0
 29 31  2  0  0  0  0
 29 80  1  0  0  0  0
 30 82  1  0  0  0  0
 31 83  1  0  0  0  0
 32 64  2  0  0  0  0
 33 65  1  0  0  0  0
 33 69  1  0  0  0  0
 34 70  1  0  0  0  0
 34 75  2  0  0  0  0
 35 52  1  0  0  0  0
 35 72  1  0  0  0  0
 35 76  2  0  0  0  0
 36 60  1  0  0  0  0
 36 67  1  0  0  0  0
 36 77  2  0  0  0  0
 37 61  1  0  0  0  0
 37 73  1  0  0  0  0
 37 78  2  0  0  0  0
 38 68  1  0  0  0  0
 38 71  1  0  0  0  0
 38 79  2  0  0  0  0
 39 42  1  0  0  0  0
 40 52  1  0  0  0  0
 41 67  1  0  0  0  0
 42 44  1  0  0  0  0
 43 45  1  0  0  0  0
 43 47  1  0  0  0  0
 44 51  1  0  0  0  0
 45 53  1  0  0  0  0
 46 48  1  0  0  0  0
 46 54  1  0  0  0  0
 47 68  1  0  0  0  0
 48 66  1  0  0  0  0
 49 53  1  0  0  0  0
 49 68  1  0  0  0  0
 50 54  1  0  0  0  0
 50 66  1  0  0  0  0
 51 72  1  0  0  0  0
 52 67  1  0  0  0  0
 53 65  1  0  0  0  0
 54 81  1  0  0  0  0
 55 61  1  0  0  0  0
 56 63  1  0  0  0  0
 57 63  1  0  0  0  0
 58 63  1  0  0  0  0
 59 74  1  0  0  0  0
 60 63  1  0  0  0  0
 60 73  1  0  0  0  0
 61 74  1  0  0  0  0
 62 84  1  0  0  0  0
 62 85  1  0  0  0  0
 62 86  1  0  0  0  0
 64 65  1  0  0  0  0
M  CHG  1  74   1
M  ISO  4  38 100  54 101  71 100  81 101
M  END
> <Batch ID>
0026

> <Smiles>
CNC(C)C(=O)NC(C(=O)N1Cc2cc([101O:1][101CH:1]3CCN(c4ccc([100NH:0][100C:0](=O)N5CCCC(n6nc(-c7ccc(Oc8ccc(F)cc8F)cc7)c(C(N)=O)c6N)C5)cc4C(F)(F)F)C3)ccc2CC1C(=O)NC1CCCc2ccccc21)C(C)(C)C

> <Shape>
0.325

> <Color>
0.065

> <Negative vol penalty>
0.000

$$$$

  -OEChem-04042321253D

 92102  0     1  0  0  0  0  0999 V2000
  -16.9735  -29.4230   24.6925 C   0  0  0  0  0  0  0  0  0  0  0  0
  -17.6587  -28.2760   24.3048 C   0  0  0  0  0  0  0  0  0  0  0  0
  -26.7685  -13.2064   20.0762 C   0  0  0  0  0  0  0  0  0  0  0  0
  -25.4139  -15.0485   20.8563 C   0  0  0  0  0  0  0  0  0  0  0  0
  -17.2181  -30.6326   24.0436 C   0  0  0  0  0  0  0  0  0  0  0  0
  -18.5882  -28.3377   23.2672 C   0  0  0  0  0  0  0  0  0  0  0  0
  -22.8723  -25.8628   24.3467 C   0  0  0  0  0  0  0  0  0  0  0  0
  -25.7665  -12.3111   20.4505 C   0  0  0  0  0  0  0  0  0  0  0  0
  -24.4119  -14.1533   21.2306 C   0  0  0  0  0  0  0  0  0  0  0  0
  -22.8504  -24.4732   24.2349 C   0  0  0  0  0  0  0  0  0  0  0  0
  -21.9504  -12.3985   19.7198 C   0  0  0  0  0  0  0  0  0  0  0  0
  -20.6361  -12.7207   19.3815 C   0  0  0  0  0  0  0  0  0  0  0  0
  -23.9229  -24.6359   22.0802 C   0  0  0  0  0  0  0  0  0  0  0  0
  -28.2256  -20.5656   21.5840 C   0  0  0  0  0  0  0  0  0  0  0  0
  -30.0752  -21.1366   20.1383 C   0  0  0  0  0  0  0  0  0  0  0  0
  -20.0306  -12.7065   21.7204 C   0  0  0  0  0  0  0  0  0  0  0  0
  -26.5922  -14.5751   20.2792 C   0  0  0  0  0  0  0  0  0  0  0  0
  -28.9523  -15.5393   20.3666 C   0  0  0  0  0  0  0  0  0  0  0  0
  -18.1581  -30.7112   23.0040 C   0  0  0  0  0  0  0  0  0  0  0  0
  -23.4107  -26.6511   23.3196 C   0  0  0  0  0  0  0  0  0  0  0  0
  -18.8446  -29.5492   22.6028 C   0  0  0  0  0  0  0  0  0  0  0  0
  -23.9527  -26.0351   22.1826 C   0  0  0  0  0  0  0  0  0  0  0  0
  -29.5987  -20.6294   21.3472 C   0  0  0  0  0  0  0  0  0  0  0  0
  -27.3289  -21.0089   20.6118 C   0  0  0  0  0  0  0  0  0  0  0  0
  -27.8053  -21.5161   19.4029 C   0  0  0  0  0  0  0  0  0  0  0  0
  -24.5882  -12.7845   21.0276 C   0  0  0  0  0  0  0  0  0  0  0  0
  -23.3731  -23.8597   23.1002 C   0  0  0  0  0  0  0  0  0  0  0  0
  -22.3048  -12.2303   21.0584 C   0  0  0  0  0  0  0  0  0  0  0  0
  -19.6762  -12.8747   20.3817 C   0  0  0  0  0  0  0  0  0  0  0  0
  -21.3449  -12.3843   22.0587 C   0  0  0  0  0  0  0  0  0  0  0  0
  -29.1785  -21.5799   19.1661 C   0  0  0  0  0  0  0  0  0  0  0  0
  -27.6271  -15.5004   19.8933 C   0  0  0  0  0  0  0  0  0  0  0  0
  -29.5255  -16.5923   19.6964 C   0  0  0  0  0  0  0  0  0  0  0  0
  -30.1902  -19.6418   23.6035 C   0  0  0  0  0  0  0  0  0  0  0  0
  -29.6068  -14.6988   21.3263 C   0  0  0  0  0  0  0  0  0  0  0  0
  -22.2632  -28.8832   21.3689 C   0  0  0  0  0  0  0  0  0  0  0  0
  -25.3717  -29.1532   20.4820 C   0  0  0  0  0  0  0  0  0  0  0  0
  -28.4541  -27.7072   20.2489 C   0  0  0  0  0  0  0  0  0  0  0  0
  -26.7911  -21.4206   17.1109 C   0  0  0  0  0  0  0  0  0  0  0  0
  -18.3541  -32.0309   22.3008 C   0  0  0  0  0  0  0  0  0  0  0  0
  -23.4510  -28.1475   23.4674 C   0  0  0  0  0  0  0  0  0  0  0  0
  -24.5606  -26.8353   21.0607 C   0  0  0  0  0  0  0  0  0  0  0  0
  -31.4902  -19.4036   24.3376 C   0  0  0  0  0  0  0  0  0  0  0  0
  -19.6276  -32.0905   21.4611 C   0  0  0  0  0  0  0  0  0  0  0  0
  -32.5178  -19.3564   23.2246 C   0  0  0  0  0  0  0  0  0  0  0  0
  -29.2327  -19.0728   15.6209 C   0  0  0  0  0  0  0  0  0  0  0  0
  -23.7674  -19.9648   20.2748 C   0  0  0  0  0  0  0  0  0  0  0  0
  -19.7682  -30.8294   20.6145 C   0  0  0  0  0  0  0  0  0  0  0  0
  -29.1445  -17.8598   16.5452 C   0  0  0  0  0  0  0  0  0  0  0  0
  -23.1477  -20.6603   21.4775 C   0  0  0  0  0  0  0  0  0  0  0  0
  -31.9518  -20.2998   22.1839 C   0  0  0  0  0  0  0  0  0  0  0  0
  -25.2567  -19.7012   20.4846 C   0  0  0  0  0  0  0  0  0  0  0  0
  -27.9175  -19.8445   15.5722 C   0  0  0  0  0  0  0  0  0  0  0  0
  -27.3338  -19.0484   17.8452 C   0  0  0  0  0  0  0  0  0  0  0  0
  -25.3970  -21.6813   22.0043 C   0  0  0  0  0  0  0  0  0  0  0  0
  -19.8784  -29.5811   21.4982 C   0  0  1  0  0  0  0  0  0  0  0  0
  -23.5576  -28.8772   22.1319 C   0  0  1  0  0  0  0  0  0  0  0  0
  -28.6586  -18.2772   17.9430 C   0  0  1  0  0  0  0  0  0  0  0  0
  -23.9039  -21.9428   21.8008 C   0  0  2  0  0  0  0  0  0  1  0  0
  -27.0258  -24.4304   18.3699 C   0  0  0  0  0  0  0  0  0  0  0  0
  -30.7875  -28.1617   19.4450 C   0  0  0  0  0  0  0  0  0  0  0  0
  -24.4539  -28.7536   17.5996 C   0  0  0  0  0  0  0  0  0  0  0  0
  -26.8316  -28.2692   16.9832 C   0  0  0  0  0  0  0  0  0  0  0  0
  -26.2136  -30.5049   17.9008 C   0  0  0  0  0  0  0  0  0  0  0  0
  -29.5815  -27.3579   22.9629 C   0  0  0  0  0  0  0  0  0  0  0  0
  -26.1564  -23.2223   18.6544 C   0  0  0  0  0  0  0  0  0  0  0  0
  -26.2468  -28.4994   19.4400 C   0  0  1  0  0  0  0  0  0  0  0  0
  -29.8346  -28.2114   20.6292 C   0  0  2  0  0  0  0  0  0  0  0  0
  -25.9233  -28.9915   18.0010 C   0  0  0  0  0  0  0  0  0  0  0  0
  -27.3733  -16.4530   18.9921 N   0  0  0  0  0  0  0  0  0  0  0  0
  -28.5468  -17.1005   18.8938 N   0  0  0  0  0  0  0  0  0  0  0  0
  -30.5155  -20.1760   22.3413 N   0  0  0  0  0  0  0  0  0  0  0  0
  -25.9550  -20.9345   20.8733 N   0  0  1  0  0  0  0  0  0  0  0  0
  -24.5708  -28.2954   21.2493 N   0  0  0  0  0  0  0  0  0  0  0  0
  -27.4365  -20.1827   16.9127 N   0  0  0  0  0  0  0  0  0  0  0  0
  -30.7662  -17.1239   19.7212 N   0  0  0  0  0  0  0  0  0  0  0  0
  -29.5665  -15.0701   22.6771 N   0  0  0  0  0  0  0  0  0  0  0  0
  -21.2119  -29.4679   22.0490 N   0  0  0  0  0  0  0  0  0  0  0  0
  -27.6246  -28.7365   19.8570 N   0  0  0  0  0  0  0  0  0  0  0  0
  -26.8700  -21.9721   18.4039 N   0  0  0  0  0  0  0  0  0  0  0  0
  -30.4053  -27.3804   21.7269 N   0  3  0  0  0  0  0  0  0  0  0  0
  -29.0991  -19.4361   24.1147 O   0  0  0  0  0  0  0  0  0  0  0  0
  -30.2233  -13.6582   20.9937 O   0  0  0  0  0  0  0  0  0  0  0  0
  -22.2216  -28.3948   20.2458 O   0  0  0  0  0  0  0  0  0  0  0  0
  -25.4030  -30.3791   20.6152 O   0  0  0  0  0  0  0  0  0  0  0  0
  -28.1440  -26.5187   20.2915 O   0  0  0  0  0  0  0  0  0  0  0  0
  -26.1415  -21.9710   16.2133 O   0  0  0  0  0  0  0  0  0  0  0  0
  -23.6102  -11.9112   21.3928 O   0  0  0  0  0  0  0  0  0  0  0  0
  -23.3524  -22.5037   22.9881 O   0  0  0  0  0  0  0  0  0  1  0  0
  -18.4145  -13.1856   20.0568 F   0  0  0  0  0  0  0  0  0  0  0  0
  -21.6796  -12.2251   23.3465 F   0  0  0  0  0  0  0  0  0  0  0  0
  -29.8154  -22.2003   17.6840 Cl  0  0  0  0  0  0  0  0  0  0  0  0
  1  2  1  0  0  0  0
  1  5  2  0  0  0  0
  2  6  2  0  0  0  0
  3  8  2  0  0  0  0
  3 17  1  0  0  0  0
  4  9  1  0  0  0  0
  4 17  2  0  0  0  0
  5 19  1  0  0  0  0
  6 21  1  0  0  0  0
  7 10  2  0  0  0  0
  7 20  1  0  0  0  0
  8 26  1  0  0  0  0
  9 26  2  0  0  0  0
 10 27  1  0  0  0  0
 11 12  2  0  0  0  0
 11 28  1  0  0  0  0
 12 29  1  0  0  0  0
 13 22  1  0  0  0  0
 13 27  2  0  0  0  0
 14 23  2  0  0  0  0
 14 24  1  0  0  0  0
 15 23  1  0  0  0  0
 15 31  2  0  0  0  0
 16 29  2  0  0  0  0
 16 30  1  0  0  0  0
 17 32  1  0  0  0  0
 18 32  1  0  0  0  0
 18 33  2  0  0  0  0
 18 35  1  0  0  0  0
 19 21  2  0  0  0  0
 19 40  1  0  0  0  0
 20 22  2  0  0  0  0
 20 41  1  0  0  0  0
 21 56  1  0  0  0  0
 22 42  1  0  0  0  0
 23 72  1  0  0  0  0
 24 25  2  0  0  0  0
 24 73  1  0  0  0  0
 25 31  1  0  0  0  0
 25 80  1  0  0  0  0
 26 88  1  0  0  0  0
 27 89  1  0  0  0  0
 28 30  2  0  0  0  0
 28 88  1  0  0  0  0
 29 90  1  0  0  0  0
 30 91  1  0  0  0  0
 31 92  1  0  0  0  0
 32 70  2  0  0  0  0
 33 71  1  0  0  0  0
 33 76  1  0  0  0  0
 34 43  1  0  0  0  0
 34 72  1  0  0  0  0
 34 82  2  0  0  0  0
 35 77  1  0  0  0  0
 35 83  2  0  0  0  0
 36 57  1  0  0  0  0
 36 78  1  0  0  0  0
 36 84  2  0  0  0  0
 37 67  1  0  0  0  0
 37 74  1  0  0  0  0
 37 85  2  0  0  0  0
 38 68  1  0  0  0  0
 38 79  1  0  0  0  0
 38 86  2  0  0  0  0
 39 75  1  0  0  0  0
 39 80  1  0  0  0  0
 39 87  2  0  0  0  0
 40 44  1  0  0  0  0
 41 57  1  0  0  0  0
 42 74  1  0  0  0  0
 43 45  1  0  0  0  0
 44 48  1  0  0  0  0
 45 51  1  0  0  0  0
 46 49  1  0  0  0  0
 46 53  1  0  0  0  0
 47 50  1  0  0  0  0
 47 52  1  0  0  0  0
 48 56  1  0  0  0  0
 49 58  1  0  0  0  0
 50 59  1  0  0  0  0
 51 72  1  0  0  0  0
 52 73  1  0  0  0  0
 53 75  1  0  0  0  0
 54 58  1  0  0  0  0
 54 75  1  0  0  0  0
 55 59  1  0  0  0  0
 55 73  1  0  0  0  0
 56 78  1  0  0  0  0
 57 74  1  0  0  0  0
 58 71  1  0  0  0  0
 59 89  1  0  0  0  0
 60 66  1  0  0  0  0
 61 68  1  0  0  0  0
 62 69  1  0  0  0  0
 63 69  1  0  0  0  0
 64 69  1  0  0  0  0
 65 81  1  0  0  0  0
 66 80  1  0  0  0  0
 67 69  1  0  0  0  0
 67 79  1  0  0  0  0
 68 81  1  0  0  0  0
 70 71  1  0  0  0  0
M  CHG  1  81   1
M  ISO  4  39 100  59 101  80 100  89 101
M  END
> <Batch ID>
0026

> <Smiles>
CC[100N:0](c1c(Cl)cc(N2CCCC2=O)cc1N1CCC[101CH:1]([101O:1]c2ccc3c(c2)CN(C(=O)C(NC(=O)C(C)NC)C(C)(C)C)C(C(=O)NC2CCCc4ccccc42)C3)C1)[100C:0](=O)N1CCCC(n2nc(-c3ccc(Oc4ccc(F)cc4F)cc3)c(C(N)=O)c2N)C1

> <Shape>
0.226

> <Color>
0.067

> <Negative vol penalty>
0.000

$$$$

  -OEChem-04042321253D

 84 93  0     1  0  0  0  0  0999 V2000
  -21.0046  -36.7032   18.4841 C   0  0  0  0  0  0  0  0  0  0  0  0
  -22.0029  -35.9815   17.8377 C   0  0  0  0  0  0  0  0  0  0  0  0
  -23.3849   -9.9947   19.8472 C   0  0  0  0  0  0  0  0  0  0  0  0
  -24.4740   -9.9222   22.0026 C   0  0  0  0  0  0  0  0  0  0  0  0
  -21.0585  -36.8818   19.8657 C   0  0  0  0  0  0  0  0  0  0  0  0
  -23.0565  -35.4389   18.5726 C   0  0  0  0  0  0  0  0  0  0  0  0
  -25.5452  -28.0487   19.0393 C   0  0  0  0  0  0  0  0  0  0  0  0
  -29.1071  -20.9152   20.9495 C   0  0  0  0  0  0  0  0  0  0  0  0
  -29.2756  -19.5442   20.7564 C   0  0  0  0  0  0  0  0  0  0  0  0
  -22.9993   -8.6627   19.9972 C   0  0  0  0  0  0  0  0  0  0  0  0
  -24.0883   -8.5901   22.1527 C   0  0  0  0  0  0  0  0  0  0  0  0
  -25.9783  -26.7540   19.3260 C   0  0  0  0  0  0  0  0  0  0  0  0
  -21.2964   -6.8881   23.0065 C   0  0  0  0  0  0  0  0  0  0  0  0
  -20.7690   -6.5026   24.2389 C   0  0  0  0  0  0  0  0  0  0  0  0
  -26.7575  -27.4837   21.4959 C   0  0  0  0  0  0  0  0  0  0  0  0
  -27.7802  -20.4747   22.9199 C   0  0  0  0  0  0  0  0  0  0  0  0
  -22.5523   -4.8934   24.4987 C   0  0  0  0  0  0  0  0  0  0  0  0
  -24.1223  -10.6245   20.8499 C   0  0  0  0  0  0  0  0  0  0  0  0
  -23.8047  -13.1436   21.0961 C   0  0  0  0  0  0  0  0  0  0  0  0
  -22.1081  -36.3330   20.6192 C   0  0  0  0  0  0  0  0  0  0  0  0
  -25.7028  -29.0637   19.9870 C   0  0  0  0  0  0  0  0  0  0  0  0
  -23.1253  -35.6116   19.9655 C   0  0  0  0  0  0  0  0  0  0  0  0
  -26.3143  -28.7797   21.2192 C   0  0  0  0  0  0  0  0  0  0  0  0
  -27.9486  -19.1035   22.7267 C   0  0  0  0  0  0  0  0  0  0  0  0
  -28.3595  -21.3805   22.0313 C   0  0  0  0  0  0  0  0  0  0  0  0
  -28.6963  -18.6383   21.6449 C   0  0  0  0  0  0  0  0  0  0  0  0
  -23.3509   -7.9604   21.1499 C   0  0  0  0  0  0  0  0  0  0  0  0
  -26.5832  -26.4723   20.5511 C   0  0  0  0  0  0  0  0  0  0  0  0
  -22.4518   -6.2762   22.5201 C   0  0  0  0  0  0  0  0  0  0  0  0
  -21.3970   -5.5053   24.9850 C   0  0  0  0  0  0  0  0  0  0  0  0
  -23.0797   -5.2789   23.2662 C   0  0  0  0  0  0  0  0  0  0  0  0
  -24.5215  -12.0003   20.6952 C   0  0  0  0  0  0  0  0  0  0  0  0
  -24.6051  -14.1973   20.7280 C   0  0  0  0  0  0  0  0  0  0  0  0
  -27.4678  -23.4011   23.2685 C   0  0  0  0  0  0  0  0  0  0  0  0
  -22.5293  -13.2442   21.7434 C   0  0  0  0  0  0  0  0  0  0  0  0
  -25.1749  -32.6724   20.8672 C   0  0  0  0  0  0  0  0  0  0  0  0
  -24.5562  -31.0402   23.3898 C   0  0  0  0  0  0  0  0  0  0  0  0
  -23.5631  -28.8583   25.8168 C   0  0  0  0  0  0  0  0  0  0  0  0
  -29.5981  -16.6402   20.4037 C   0  0  0  0  0  0  0  0  0  0  0  0
  -22.1488  -36.5929   22.1043 C   0  0  0  0  0  0  0  0  0  0  0  0
  -25.3069  -30.4861   19.6971 C   0  0  0  0  0  0  0  0  0  0  0  0
  -26.4943  -29.9106   22.1947 C   0  0  0  0  0  0  0  0  0  0  0  0
  -27.6535  -24.8957   23.1258 C   0  0  0  0  0  0  0  0  0  0  0  0
  -23.0999  -35.6674   22.8587 C   0  0  0  0  0  0  0  0  0  0  0  0
  -28.7543  -14.3272   17.8317 C   0  0  0  0  0  0  0  0  0  0  0  0
  -24.4405  -35.5760   22.1368 C   0  0  0  0  0  0  0  0  0  0  0  0
  -27.5189  -13.6097   18.3803 C   0  0  0  0  0  0  0  0  0  0  0  0
  -29.7633  -14.6429   18.9344 C   0  0  0  0  0  0  0  0  0  0  0  0
  -27.9809  -14.6535   20.6351 C   0  0  0  0  0  0  0  0  0  0  0  0
  -28.8373  -23.7670   21.3791 C   0  0  0  0  0  0  0  0  0  0  0  0
  -24.2712  -34.9866   20.7313 C   0  0  1  0  0  0  0  0  0  0  0  0
  -24.7732  -31.2283   20.9354 C   0  0  1  0  0  0  0  0  0  0  0  0
  -26.9068  -14.3725   19.5716 C   0  0  2  0  0  0  0  0  0  0  0  0
  -28.1216  -25.0664   21.6921 C   0  0  1  0  0  0  0  0  0  1  0  0
  -27.3188  -18.1559   23.6952 C   0  0  0  0  0  0  0  0  0  0  0  0
  -22.6431  -28.7933   28.1506 C   0  0  0  0  0  0  0  0  0  0  0  0
  -27.3131  -31.7389   24.4921 C   0  0  0  0  0  0  0  0  0  0  0  0
  -26.6095  -30.7514   26.6825 C   0  0  0  0  0  0  0  0  0  0  0  0
  -25.3998  -32.7293   25.7621 C   0  0  0  0  0  0  0  0  0  0  0  0
  -21.1089  -27.4590   24.9347 C   0  0  0  0  0  0  0  0  0  0  0  0
  -25.0752  -30.4657   24.6836 C   0  0  1  0  0  0  0  0  0  0  0  0
  -22.3071  -28.8009   26.6675 C   0  0  2  0  0  0  0  0  0  0  0  0
  -26.0984  -31.4058   25.3812 C   0  0  0  0  0  0  0  0  0  0  0  0
  -25.6876  -12.2994   20.1166 N   0  0  0  0  0  0  0  0  0  0  0  0
  -25.7096  -13.6427   20.1512 N   0  0  0  0  0  0  0  0  0  0  0  0
  -28.1895  -22.7839   22.2304 N   0  0  0  0  0  0  0  0  0  0  0  0
  -25.2810  -30.7420   22.2295 N   0  0  0  0  0  0  0  0  0  0  0  0
  -29.1133  -15.3698   20.0271 N   0  0  0  0  0  0  0  0  0  0  0  0
  -24.4649  -15.5349   20.8447 N   0  0  0  0  0  0  0  0  0  0  0  0
  -21.8409  -12.0626   22.0507 N   0  0  0  0  0  0  0  0  0  0  0  0
  -28.8804  -17.2495   21.4324 N   0  0  0  0  0  0  0  0  0  0  0  0
  -24.1097  -33.5502   20.8017 N   0  0  0  0  0  0  0  0  0  0  0  0
  -23.9014  -30.1550   25.4923 N   0  0  0  0  0  0  0  0  0  0  0  0
  -21.5264  -27.5703   26.3561 N   0  3  0  0  0  0  0  0  0  0  0  0
  -26.8355  -22.9055   24.1902 O   0  0  0  0  0  0  0  0  0  0  0  0
  -22.0079  -14.3496   22.0258 O   0  0  0  0  0  0  0  0  0  0  0  0
  -26.3636  -32.9699   20.8750 O   0  0  0  0  0  0  0  0  0  0  0  0
  -23.5393  -31.7394   23.4054 O   0  0  0  0  0  0  0  0  0  0  0  0
  -24.1842  -27.8535   25.4775 O   0  0  0  0  0  0  0  0  0  0  0  0
  -30.5611  -17.1618   19.8357 O   0  0  0  0  0  0  0  0  0  0  0  0
  -22.9746   -6.6606   21.2968 O   0  0  0  0  0  0  0  0  0  0  0  0
  -26.9997  -25.2052   20.8263 O   0  0  0  0  0  0  0  0  0  1  0  0
  -20.8913   -5.1363   26.1692 F   0  0  0  0  0  0  0  0  0  0  0  0
  -24.1906   -4.6883   22.8047 F   0  0  0  0  0  0  0  0  0  0  0  0
  1  2  1  0  0  0  0
  1  5  2  0  0  0  0
  2  6  2  0  0  0  0
  3 10  2  0  0  0  0
  3 18  1  0  0  0  0
  4 11  1  0  0  0  0
  4 18  2  0  0  0  0
  5 20  1  0  0  0  0
  6 22  1  0  0  0  0
  7 12  2  0  0  0  0
  7 21  1  0  0  0  0
  8  9  2  0  0  0  0
  8 25  1  0  0  0  0
  9 26  1  0  0  0  0
 10 27  1  0  0  0  0
 11 27  2  0  0  0  0
 12 28  1  0  0  0  0
 13 14  2  0  0  0  0
 13 29  1  0  0  0  0
 14 30  1  0  0  0  0
 15 23  1  0  0  0  0
 15 28  2  0  0  0  0
 16 24  1  0  0  0  0
 16 25  2  0  0  0  0
 17 30  2  0  0  0  0
 17 31  1  0  0  0  0
 18 32  1  0  0  0  0
 19 32  1  0  0  0  0
 19 33  2  0  0  0  0
 19 35  1  0  0  0  0
 20 22  2  0  0  0  0
 20 40  1  0  0  0  0
 21 23  2  0  0  0  0
 21 41  1  0  0  0  0
 22 51  1  0  0  0  0
 23 42  1  0  0  0  0
 24 26  2  0  0  0  0
 24 55  1  0  0  0  0
 25 66  1  0  0  0  0
 26 71  1  0  0  0  0
 27 81  1  0  0  0  0
 28 82  1  0  0  0  0
 29 31  2  0  0  0  0
 29 81  1  0  0  0  0
 30 83  1  0  0  0  0
 31 84  1  0  0  0  0
 32 64  2  0  0  0  0
 33 65  1  0  0  0  0
 33 69  1  0  0  0  0
 34 43  1  0  0  0  0
 34 66  1  0  0  0  0
 34 75  2  0  0  0  0
 35 70  1  0  0  0  0
 35 76  2  0  0  0  0
 36 52  1  0  0  0  0
 36 72  1  0  0  0  0
 36 77  2  0  0  0  0
 37 61  1  0  0  0  0
 37 67  1  0  0  0  0
 37 78  2  0  0  0  0
 38 62  1  0  0  0  0
 38 73  1  0  0  0  0
 38 79  2  0  0  0  0
 39 68  1  0  0  0  0
 39 71  1  0  0  0  0
 39 80  2  0  0  0  0
 40 44  1  0  0  0  0
 41 52  1  0  0  0  0
 42 67  1  0  0  0  0
 43 54  1  0  0  0  0
 44 46  1  0  0  0  0
 45 47  1  0  0  0  0
 45 48  1  0  0  0  0
 46 51  1  0  0  0  0
 47 53  1  0  0  0  0
 48 68  1  0  0  0  0
 49 53  1  0  0  0  0
 49 68  1  0  0  0  0
 50 54  1  0  0  0  0
 50 66  1  0  0  0  0
 51 72  1  0  0  0  0
 52 67  1  0  0  0  0
 53 65  1  0  0  0  0
 54 82  1  0  0  0  0
 56 62  1  0  0  0  0
 57 63  1  0  0  0  0
 58 63  1  0  0  0  0
 59 63  1  0  0  0  0
 60 74  1  0  0  0  0
 61 63  1  0  0  0  0
 61 73  1  0  0  0  0
 62 74  1  0  0  0  0
 64 65  1  0  0  0  0
M  CHG  1  74   1
M  ISO  4  39 100  54 101  71 100  82 101
M  END
> <Batch ID>
0026

> <Smiles>
CNC(C)C(=O)NC(C(=O)N1Cc2cc([101O:1][101CH:1]3CC(=O)N(c4ccc([100NH:0][100C:0](=O)N5CCCC(n6nc(-c7ccc(Oc8ccc(F)cc8F)cc7)c(C(N)=O)c6N)C5)c(C)c4)C3)ccc2CC1C(=O)NC1CCCc2ccccc21)C(C)(C)C

> <Shape>
0.291

> <Color>
0.155

> <Negative vol penalty>
0.000

$$$$

  -OEChem-04042321253D

 83 92  0     1  0  0  0  0  0999 V2000
  -29.4632  -37.3113   23.1376 C   0  0  0  0  0  0  0  0  0  0  0  0
  -29.7737  -36.0646   22.6038 C   0  0  0  0  0  0  0  0  0  0  0  0
  -25.5922   -8.9160   21.0265 C   0  0  0  0  0  0  0  0  0  0  0  0
  -23.7492   -9.6408   22.4103 C   0  0  0  0  0  0  0  0  0  0  0  0
  -28.4393  -37.4310   24.0763 C   0  0  0  0  0  0  0  0  0  0  0  0
  -29.0611  -34.9367   23.0093 C   0  0  0  0  0  0  0  0  0  0  0  0
  -31.3245  -21.1596   21.1938 C   0  0  0  0  0  0  0  0  0  0  0  0
  -27.5793  -30.0871   19.5755 C   0  0  0  0  0  0  0  0  0  0  0  0
  -30.9614  -22.4718   20.8924 C   0  0  0  0  0  0  0  0  0  0  0  0
  -25.5299   -7.6492   21.6069 C   0  0  0  0  0  0  0  0  0  0  0  0
  -23.6868   -8.3740   22.9907 C   0  0  0  0  0  0  0  0  0  0  0  0
  -28.1546  -28.8246   19.4373 C   0  0  0  0  0  0  0  0  0  0  0  0
  -22.4694   -5.3254   22.1879 C   0  0  0  0  0  0  0  0  0  0  0  0
  -21.2101   -4.7450   22.3394 C   0  0  0  0  0  0  0  0  0  0  0  0
  -29.2364  -21.6533   19.4163 C   0  0  0  0  0  0  0  0  0  0  0  0
  -26.5843  -27.9403   21.0409 C   0  0  0  0  0  0  0  0  0  0  0  0
  -21.5444   -4.6439   24.7301 C   0  0  0  0  0  0  0  0  0  0  0  0
  -24.7019   -9.9119   21.4282 C   0  0  0  0  0  0  0  0  0  0  0  0
  -24.0805  -11.6660   19.6833 C   0  0  0  0  0  0  0  0  0  0  0  0
  -27.7074  -36.3055   24.4863 C   0  0  0  0  0  0  0  0  0  0  0  0
  -30.6518  -20.0812   20.6018 C   0  0  0  0  0  0  0  0  0  0  0  0
  -26.5075  -30.2882   20.4570 C   0  0  0  0  0  0  0  0  0  0  0  0
  -28.0273  -35.0413   23.9554 C   0  0  0  0  0  0  0  0  0  0  0  0
  -29.5868  -20.3292   19.7176 C   0  0  0  0  0  0  0  0  0  0  0  0
  -25.9956  -29.2057   21.1865 C   0  0  0  0  0  0  0  0  0  0  0  0
  -29.9197  -22.7185   20.0023 C   0  0  0  0  0  0  0  0  0  0  0  0
  -24.5771   -7.3782   22.5890 C   0  0  0  0  0  0  0  0  0  0  0  0
  -27.6590  -27.7516   20.1722 C   0  0  0  0  0  0  0  0  0  0  0  0
  -23.2662   -5.5650   23.3074 C   0  0  0  0  0  0  0  0  0  0  0  0
  -20.7476   -4.4042   23.6105 C   0  0  0  0  0  0  0  0  0  0  0  0
  -22.8037   -5.2243   24.5785 C   0  0  0  0  0  0  0  0  0  0  0  0
  -24.7662  -11.2208   20.8294 C   0  0  0  0  0  0  0  0  0  0  0  0
  -24.4784  -12.9717   19.5307 C   0  0  0  0  0  0  0  0  0  0  0  0
  -23.1657  -10.9622   18.8328 C   0  0  0  0  0  0  0  0  0  0  0  0
  -26.0435  -32.0561   23.0576 C   0  0  0  0  0  0  0  0  0  0  0  0
  -22.9991  -30.9721   22.7767 C   0  0  0  0  0  0  0  0  0  0  0  0
  -20.8744  -28.5739   21.6016 C   0  0  0  0  0  0  0  0  0  0  0  0
  -28.1990  -16.8503   19.4082 C   0  0  0  0  0  0  0  0  0  0  0  0
  -26.6409  -36.4770   25.5388 C   0  0  0  0  0  0  0  0  0  0  0  0
  -31.0445  -18.6721   20.9640 C   0  0  0  0  0  0  0  0  0  0  0  0
  -25.8807  -31.6505   20.5747 C   0  0  0  0  0  0  0  0  0  0  0  0
  -28.8389  -19.2024   19.0534 C   0  0  0  0  0  0  0  0  0  0  0  0
  -24.8334  -29.3647   22.1312 C   0  0  0  0  0  0  0  0  0  0  0  0
  -25.6848  -35.2909   25.6362 C   0  0  0  0  0  0  0  0  0  0  0  0
  -27.0454  -16.0253   22.6275 C   0  0  0  0  0  0  0  0  0  0  0  0
  -26.4620  -33.9784   25.6483 C   0  0  0  0  0  0  0  0  0  0  0  0
  -26.2900  -14.7250   22.3559 C   0  0  0  0  0  0  0  0  0  0  0  0
  -30.5326  -17.6475   19.9571 C   0  0  0  0  0  0  0  0  0  0  0  0
  -28.3459  -16.1108   21.8270 C   0  0  0  0  0  0  0  0  0  0  0  0
  -27.4135  -14.6057   20.0998 C   0  0  0  0  0  0  0  0  0  0  0  0
  -27.2606  -33.7982   24.3517 C   0  0  1  0  0  0  0  0  0  0  0  0
  -25.1262  -31.8499   21.8855 C   0  0  1  0  0  0  0  0  0  0  0  0
  -26.0735  -14.5179   20.8464 C   0  0  1  0  0  0  0  0  0  0  0  0
  -18.4463  -27.9412   21.5618 C   0  0  0  0  0  0  0  0  0  0  0  0
  -23.1983  -30.0347   25.6736 C   0  0  0  0  0  0  0  0  0  0  0  0
  -21.1775  -28.6105   25.2786 C   0  0  0  0  0  0  0  0  0  0  0  0
  -21.0140  -31.0906   25.0667 C   0  0  0  0  0  0  0  0  0  0  0  0
  -20.7645  -28.7227   18.6478 C   0  0  0  0  0  0  0  0  0  0  0  0
  -30.2139  -25.1831   20.2555 C   0  0  0  0  0  0  0  0  0  0  0  0
  -29.6065  -26.4661   19.7132 C   0  0  0  0  0  0  0  0  0  1  0  0
  -22.2395  -29.7730   23.2907 C   0  0  1  0  0  0  0  0  0  0  0  0
  -19.5658  -28.6736   20.8386 C   0  0  2  0  0  0  0  0  0  0  0  0
  -21.9305  -29.8743   24.8111 C   0  0  0  0  0  0  0  0  0  0  0  0
  -25.5410  -12.1669   21.3667 N   0  0  0  0  0  0  0  0  0  0  0  0
  -25.3447  -13.2195   20.5546 N   0  0  0  0  0  0  0  0  0  0  0  0
  -24.2588  -30.7175   22.2163 N   0  0  0  0  0  0  0  0  0  0  0  0
  -29.1232  -17.8863   19.6272 N   0  0  0  0  0  0  0  0  0  0  0  0
  -28.0982  -15.8649   20.4006 N   0  0  0  0  0  0  0  0  0  0  0  0
  -24.1682  -13.9206   18.6219 N   0  0  0  0  0  0  0  0  0  0  0  0
  -22.8670   -9.6262   19.1333 N   0  0  0  0  0  0  0  0  0  0  0  0
  -29.5557  -24.0452   19.6922 N   0  0  0  0  0  0  0  0  0  0  0  0
  -26.3893  -33.3760   23.2760 N   0  0  0  0  0  0  0  0  0  0  0  0
  -21.0556  -29.6476   22.4474 N   0  0  0  0  0  0  0  0  0  0  0  0
  -19.7128  -28.0820   19.4787 N   0  3  0  0  0  0  0  0  0  0  0  0
  -22.6418  -11.4970   17.8263 O   0  0  0  0  0  0  0  0  0  0  0  0
  -26.4091  -31.0894   23.7161 O   0  0  0  0  0  0  0  0  0  0  0  0
  -22.4903  -32.0926   22.8627 O   0  0  0  0  0  0  0  0  0  0  0  0
  -21.6558  -27.6353   21.4640 O   0  0  0  0  0  0  0  0  0  0  0  0
  -27.5069  -16.8103   18.3829 O   0  0  0  0  0  0  0  0  0  0  0  0
  -24.5158   -6.1421   23.1554 O   0  0  0  0  0  0  0  0  0  0  0  0
  -28.2230  -26.5098   20.0388 O   0  0  0  0  0  0  0  0  0  1  0  0
  -19.5377   -3.8483   23.7560 F   0  0  0  0  0  0  0  0  0  0  0  0
  -23.5642   -5.4531   25.6579 F   0  0  0  0  0  0  0  0  0  0  0  0
  1  2  1  0  0  0  0
  1  5  2  0  0  0  0
  2  6  2  0  0  0  0
  3 10  2  0  0  0  0
  3 18  1  0  0  0  0
  4 11  1  0  0  0  0
  4 18  2  0  0  0  0
  5 20  1  0  0  0  0
  6 23  1  0  0  0  0
  7  9  2  0  0  0  0
  7 21  1  0  0  0  0
  8 12  2  0  0  0  0
  8 22  1  0  0  0  0
  9 26  1  0  0  0  0
 10 27  1  0  0  0  0
 11 27  2  0  0  0  0
 12 28  1  0  0  0  0
 13 14  2  0  0  0  0
 13 29  1  0  0  0  0
 14 30  1  0  0  0  0
 15 24  1  0  0  0  0
 15 26  2  0  0  0  0
 16 25  1  0  0  0  0
 16 28  2  0  0  0  0
 17 30  2  0  0  0  0
 17 31  1  0  0  0  0
 18 32  1  0  0  0  0
 19 32  1  0  0  0  0
 19 33  2  0  0  0  0
 19 34  1  0  0  0  0
 20 23  2  0  0  0  0
 20 39  1  0  0  0  0
 21 24  2  0  0  0  0
 21 40  1  0  0  0  0
 22 25  2  0  0  0  0
 22 41  1  0  0  0  0
 23 51  1  0  0  0  0
 24 42  1  0  0  0  0
 25 43  1  0  0  0  0
 26 71  1  0  0  0  0
 27 80  1  0  0  0  0
 28 81  1  0  0  0  0
 29 31  2  0  0  0  0
 29 80  1  0  0  0  0
 30 82  1  0  0  0  0
 31 83  1  0  0  0  0
 32 64  2  0  0  0  0
 33 65  1  0  0  0  0
 33 69  1  0  0  0  0
 34 70  1  0  0  0  0
 34 75  2  0  0  0  0
 35 52  1  0  0  0  0
 35 72  1  0  0  0  0
 35 76  2  0  0  0  0
 36 61  1  0  0  0  0
 36 66  1  0  0  0  0
 36 77  2  0  0  0  0
 37 62  1  0  0  0  0
 37 73  1  0  0  0  0
 37 78  2  0  0  0  0
 38 67  1  0  0  0  0
 38 68  1  0  0  0  0
 38 79  2  0  0  0  0
 39 44  1  0  0  0  0
 40 48  1  0  0  0  0
 41 52  1  0  0  0  0
 42 67  1  0  0  0  0
 43 66  1  0  0  0  0
 44 46  1  0  0  0  0
 45 47  1  0  0  0  0
 45 49  1  0  0  0  0
 46 51  1  0  0  0  0
 47 53  1  0  0  0  0
 48 67  1  0  0  0  0
 49 68  1  0  0  0  0
 50 53  1  0  0  0  0
 50 68  1  0  0  0  0
 51 72  1  0  0  0  0
 52 66  1  0  0  0  0
 53 65  1  0  0  0  0
 54 62  1  0  0  0  0
 55 63  1  0  0  0  0
 56 63  1  0  0  0  0
 57 63  1  0  0  0  0
 58 74  1  0  0  0  0
 59 60  1  0  0  0  0
 59 71  1  0  0  0  0
 60 81  1  0  0  0  0
 61 63  1  0  0  0  0
 61 73  1  0  0  0  0
 62 74  1  0  0  0  0
 64 65  1  0  0  0  0
M  CHG  1  74   1
M  ISO  4  38 100  60 101  67 100  81 101
M  END
> <Batch ID>
0026

> <Smiles>
CNC(C)C(=O)NC(C(=O)N1Cc2cc([101O:1][101CH2:1]CNc3ccc4c(c3)C[100N:0]([100C:0](=O)N3CCCC(n5nc(-c6ccc(Oc7ccc(F)cc7F)cc6)c(C(N)=O)c5N)C3)CC4)ccc2CC1C(=O)NC1CCCc2ccccc21)C(C)(C)C

> <Shape>
0.316

> <Color>
0.090

> <Negative vol penalty>
0.000

$$$$

  -OEChem-04042321253D

 84 93  0     1  0  0  0  0  0999 V2000
  -30.5597  -23.9090   34.5380 C   0  0  0  0  0  0  0  0  0  0  0  0
  -30.3522  -22.6160   34.0684 C   0  0  0  0  0  0  0  0  0  0  0  0
  -23.2601   -9.8353   19.9604 C   0  0  0  0  0  0  0  0  0  0  0  0
  -23.8123   -9.9570   22.3093 C   0  0  0  0  0  0  0  0  0  0  0  0
  -29.9175  -24.9837   33.9243 C   0  0  0  0  0  0  0  0  0  0  0  0
  -29.5016  -22.3969   32.9854 C   0  0  0  0  0  0  0  0  0  0  0  0
  -31.4517  -19.1697   29.6050 C   0  0  0  0  0  0  0  0  0  0  0  0
  -22.5298   -8.6698   20.1925 C   0  0  0  0  0  0  0  0  0  0  0  0
  -23.0820   -8.7915   22.5414 C   0  0  0  0  0  0  0  0  0  0  0  0
  -31.3951  -17.8116   29.9150 C   0  0  0  0  0  0  0  0  0  0  0  0
  -19.8368   -7.9156   22.8913 C   0  0  0  0  0  0  0  0  0  0  0  0
  -18.9801   -7.8978   23.9918 C   0  0  0  0  0  0  0  0  0  0  0  0
  -29.4696  -17.5709   28.4820 C   0  0  0  0  0  0  0  0  0  0  0  0
  -31.1045  -12.5159   24.8477 C   0  0  0  0  0  0  0  0  0  0  0  0
  -32.9652  -12.1790   23.3439 C   0  0  0  0  0  0  0  0  0  0  0  0
  -20.2053   -6.0315   24.9154 C   0  0  0  0  0  0  0  0  0  0  0  0
  -23.9014  -10.4789   21.0188 C   0  0  0  0  0  0  0  0  0  0  0  0
  -24.1810  -13.0070   20.8230 C   0  0  0  0  0  0  0  0  0  0  0  0
  -29.0661  -24.7787   32.8272 C   0  0  0  0  0  0  0  0  0  0  0  0
  -30.5095  -19.7418   28.7382 C   0  0  0  0  0  0  0  0  0  0  0  0
  -28.8464  -23.4697   32.3574 C   0  0  0  0  0  0  0  0  0  0  0  0
  -29.5180  -18.9360   28.1606 C   0  0  0  0  0  0  0  0  0  0  0  0
  -31.9198  -12.1865   25.9304 C   0  0  0  0  0  0  0  0  0  0  0  0
  -31.6272  -12.5121   23.5544 C   0  0  0  0  0  0  0  0  0  0  0  0
  -22.4407   -8.1479   21.4830 C   0  0  0  0  0  0  0  0  0  0  0  0
  -30.4022  -17.0126   29.3558 C   0  0  0  0  0  0  0  0  0  0  0  0
  -20.8778   -6.9913   22.8027 C   0  0  0  0  0  0  0  0  0  0  0  0
  -19.1643   -6.9558   25.0039 C   0  0  0  0  0  0  0  0  0  0  0  0
  -33.7806  -11.8496   24.4267 C   0  0  0  0  0  0  0  0  0  0  0  0
  -21.0620   -6.0493   23.8148 C   0  0  0  0  0  0  0  0  0  0  0  0
  -33.2579  -11.8534   25.7199 C   0  0  0  0  0  0  0  0  0  0  0  0
  -24.6564  -11.6826   20.7797 C   0  0  0  0  0  0  0  0  0  0  0  0
  -25.2795  -13.7760   20.5257 C   0  0  0  0  0  0  0  0  0  0  0  0
  -22.8642  -13.4981   21.1066 C   0  0  0  0  0  0  0  0  0  0  0  0
  -28.2907  -22.0014   29.0125 C   0  0  0  0  0  0  0  0  0  0  0  0
  -27.9802  -21.5382   25.8170 C   0  0  0  0  0  0  0  0  0  0  0  0
  -28.3778  -19.4612   23.1384 C   0  0  0  0  0  0  0  0  0  0  0  0
  -31.1603  -12.8914   21.1081 C   0  0  0  0  0  0  0  0  0  0  0  0
  -28.3571  -25.9666   32.2265 C   0  0  0  0  0  0  0  0  0  0  0  0
  -30.6004  -21.2030   28.3929 C   0  0  0  0  0  0  0  0  0  0  0  0
  -28.4950  -19.4974   27.2083 C   0  0  0  0  0  0  0  0  0  0  0  0
  -27.7643  -25.6888   30.8475 C   0  0  0  0  0  0  0  0  0  0  0  0
  -29.4060  -13.6319   18.0996 C   0  0  0  0  0  0  0  0  0  0  0  0
  -27.0107  -24.3626   30.8478 C   0  0  0  0  0  0  0  0  0  0  0  0
  -27.9449  -13.3424   18.4512 C   0  0  0  0  0  0  0  0  0  0  0  0
  -30.3574  -12.6422   18.7696 C   0  0  0  0  0  0  0  0  0  0  0  0
  -28.7344  -12.2230   20.5750 C   0  0  0  0  0  0  0  0  0  0  0  0
  -31.7062  -14.5559   27.8507 C   0  0  0  0  0  0  0  0  0  0  0  0
  -31.2342  -13.3305   29.4749 C   0  0  0  0  0  0  0  0  0  0  0  0
  -27.9503  -23.1942   31.1694 C   0  0  1  0  0  0  0  0  0  0  0  0
  -29.2783  -21.7841   27.9012 C   0  0  1  0  0  0  0  0  0  0  0  0
  -27.7430  -13.2335   19.9754 C   0  0  2  0  0  0  0  0  0  0  0  0
  -31.4659  -14.8459   29.3430 C   0  0  0  0  0  0  0  0  0  1  0  0
  -27.9987  -19.3476   20.6604 C   0  0  0  0  0  0  0  0  0  0  0  0
  -24.9972  -21.1106   26.2954 C   0  0  0  0  0  0  0  0  0  0  0  0
  -24.8490  -20.0881   24.0149 C   0  0  0  0  0  0  0  0  0  0  0  0
  -25.5444  -22.4702   24.2689 C   0  0  0  0  0  0  0  0  0  0  0  0
  -31.2650  -19.1014   22.5962 C   0  0  0  0  0  0  0  0  0  0  0  0
  -31.3188  -12.2023   27.3050 C   0  0  0  0  0  0  0  0  0  0  0  0
  -27.1448  -20.6331   24.9441 C   0  0  1  0  0  0  0  0  0  0  0  0
  -28.9844  -19.6920   21.7661 C   0  0  2  0  0  0  0  0  0  0  0  0
  -25.6518  -21.0650   24.9002 C   0  0  0  0  0  0  0  0  0  0  0  0
  -25.9556  -11.6107   20.4785 N   0  0  0  0  0  0  0  0  0  0  0  0
  -26.3060  -12.8996   20.3297 N   0  0  0  0  0  0  0  0  0  0  0  0
  -28.6218  -20.9329   26.9069 N   0  0  0  0  0  0  0  0  0  0  0  0
  -30.1109  -12.5954   20.2125 N   0  0  0  0  0  0  0  0  0  0  0  0
  -25.4579  -15.1096   20.4154 N   0  0  0  0  0  0  0  0  0  0  0  0
  -21.8524  -12.5712   21.3917 N   0  0  0  0  0  0  0  0  0  0  0  0
  -30.7992  -12.8467   22.4543 N   0  0  0  0  0  0  0  0  0  0  0  0
  -28.7411  -22.8472   30.0081 N   0  0  0  0  0  0  0  0  0  0  0  0
  -27.7979  -20.6073   23.6398 N   0  0  0  0  0  0  0  0  0  0  0  0
  -31.9860  -13.1556   28.2184 N   0  3  0  0  0  0  0  0  0  0  0  0
  -30.2016  -18.8505   21.5896 N   0  3  0  0  0  0  0  0  0  0  0  0
  -22.5891  -14.7219   21.0910 O   0  0  0  0  0  0  0  0  0  0  0  0
  -27.2002  -21.4441   28.9692 O   0  0  0  0  0  0  0  0  0  0  0  0
  -28.0663  -22.7366   25.5378 O   0  0  0  0  0  0  0  0  0  0  0  0
  -28.4116  -18.3721   23.7070 O   0  0  0  0  0  0  0  0  0  0  0  0
  -32.2887  -13.1909   20.7093 O   0  0  0  0  0  0  0  0  0  0  0  0
  -21.7280   -7.0107   21.7098 O   0  0  0  0  0  0  0  0  0  0  0  0
  -30.3443  -15.6868   29.6572 O   0  0  0  0  0  0  0  0  0  1  0  0
  -18.3424   -6.9398   26.0615 F   0  0  0  0  0  0  0  0  0  0  0  0
  -35.0647  -11.5321   24.2065 F   0  0  0  0  0  0  0  0  0  0  0  0
  -22.0610   -5.1596   23.7359 F   0  0  0  0  0  0  0  0  0  0  0  0
  -34.2916  -11.4414   27.0401 Cl  0  0  0  0  0  0  0  0  0  0  0  0
  1  2  1  0  0  0  0
  1  5  2  0  0  0  0
  2  6  2  0  0  0  0
  3  8  2  0  0  0  0
  3 17  1  0  0  0  0
  4  9  1  0  0  0  0
  4 17  2  0  0  0  0
  5 19  1  0  0  0  0
  6 21  1  0  0  0  0
  7 10  2  0  0  0  0
  7 20  1  0  0  0  0
  8 25  1  0  0  0  0
  9 25  2  0  0  0  0
 10 26  1  0  0  0  0
 11 12  2  0  0  0  0
 11 27  1  0  0  0  0
 12 28  1  0  0  0  0
 13 22  1  0  0  0  0
 13 26  2  0  0  0  0
 14 23  1  0  0  0  0
 14 24  2  0  0  0  0
 15 24  1  0  0  0  0
 15 29  2  0  0  0  0
 16 28  2  0  0  0  0
 16 30  1  0  0  0  0
 17 32  1  0  0  0  0
 18 32  1  0  0  0  0
 18 33  2  0  0  0  0
 18 34  1  0  0  0  0
 19 21  2  0  0  0  0
 19 39  1  0  0  0  0
 20 22  2  0  0  0  0
 20 40  1  0  0  0  0
 21 50  1  0  0  0  0
 22 41  1  0  0  0  0
 23 31  2  0  0  0  0
 23 59  1  0  0  0  0
 24 69  1  0  0  0  0
 25 79  1  0  0  0  0
 26 80  1  0  0  0  0
 27 30  2  0  0  0  0
 27 79  1  0  0  0  0
 28 81  1  0  0  0  0
 29 31  1  0  0  0  0
 29 82  1  0  0  0  0
 30 83  1  0  0  0  0
 31 84  1  0  0  0  0
 32 63  2  0  0  0  0
 33 64  1  0  0  0  0
 33 67  1  0  0  0  0
 34 68  1  0  0  0  0
 34 74  2  0  0  0  0
 35 51  1  0  0  0  0
 35 70  1  0  0  0  0
 35 75  2  0  0  0  0
 36 60  1  0  0  0  0
 36 65  1  0  0  0  0
 36 76  2  0  0  0  0
 37 61  1  0  0  0  0
 37 71  1  0  0  0  0
 37 77  2  0  0  0  0
 38 66  1  0  0  0  0
 38 69  1  0  0  0  0
 38 78  2  0  0  0  0
 39 42  1  0  0  0  0
 40 51  1  0  0  0  0
 41 65  1  0  0  0  0
 42 44  1  0  0  0  0
 43 45  1  0  0  0  0
 43 46  1  0  0  0  0
 44 50  1  0  0  0  0
 45 52  1  0  0  0  0
 46 66  1  0  0  0  0
 47 52  1  0  0  0  0
 47 66  1  0  0  0  0
 48 53  1  0  0  0  0
 48 72  1  0  0  0  0
 49 53  1  0  0  0  0
 49 72  1  0  0  0  0
 50 70  1  0  0  0  0
 51 65  1  0  0  0  0
 52 64  1  0  0  0  0
 53 80  1  0  0  0  0
 54 61  1  0  0  0  0
 55 62  1  0  0  0  0
 56 62  1  0  0  0  0
 57 62  1  0  0  0  0
 58 73  1  0  0  0  0
 59 72  1  0  0  0  0
 60 62  1  0  0  0  0
 60 71  1  0  0  0  0
 61 73  1  0  0  0  0
 63 64  1  0  0  0  0
M  CHG  2  72   1  73   1
M  ISO  4  38 100  53 101  69 100  80 101
M  END
> <Batch ID>
0026

> <Smiles>
CNC(C)C(=O)NC(C(=O)N1Cc2cc([101O:1][101CH:1]3CN(Cc4cc([100NH:0][100C:0](=O)N5CCCC(n6nc(-c7ccc(Oc8ccc(F)cc8F)cc7)c(C(N)=O)c6N)C5)cc(F)c4Cl)C3)ccc2CC1C(=O)NC1CCCc2ccccc21)C(C)(C)C

> <Shape>
0.152

> <Color>
0.169

> <Negative vol penalty>
0.000

$$$$

  -OEChem-04042321253D

 93102  0     1  0  0  0  0  0999 V2000
  -18.5608  -32.1209   19.5574 C   0  0  0  0  0  0  0  0  0  0  0  0
  -19.8154  -31.6456   19.1893 C   0  0  0  0  0  0  0  0  0  0  0  0
  -26.0236  -22.9254   15.2668 C   0  0  0  0  0  0  0  0  0  0  0  0
  -27.0742  -15.6024   21.8470 C   0  0  0  0  0  0  0  0  0  0  0  0
  -28.5810  -14.9453   20.0764 C   0  0  0  0  0  0  0  0  0  0  0  0
  -18.1795  -32.1130   20.8984 C   0  0  0  0  0  0  0  0  0  0  0  0
  -20.6900  -31.1632   20.1624 C   0  0  0  0  0  0  0  0  0  0  0  0
  -24.6838  -26.5589   19.5657 C   0  0  0  0  0  0  0  0  0  0  0  0
  -27.2732  -22.6913   15.8404 C   0  0  0  0  0  0  0  0  0  0  0  0
  -25.6376  -24.2204   14.9587 C   0  0  0  0  0  0  0  0  0  0  0  0
  -26.3594  -14.4165   21.6788 C   0  0  0  0  0  0  0  0  0  0  0  0
  -27.8662  -13.7593   19.9082 C   0  0  0  0  0  0  0  0  0  0  0  0
  -26.0534  -26.5329   19.3063 C   0  0  0  0  0  0  0  0  0  0  0  0
  -24.0387  -13.1880   19.5504 C   0  0  0  0  0  0  0  0  0  0  0  0
  -22.6465  -13.2692   19.5266 C   0  0  0  0  0  0  0  0  0  0  0  0
  -26.4922  -26.3660   21.6725 C   0  0  0  0  0  0  0  0  0  0  0  0
  -22.5284  -11.8076   21.4468 C   0  0  0  0  0  0  0  0  0  0  0  0
  -28.1850  -15.8668   21.0457 C   0  0  0  0  0  0  0  0  0  0  0  0
  -30.0216  -17.3093   22.0722 C   0  0  0  0  0  0  0  0  0  0  0  0
  -19.0461  -31.6213   21.8873 C   0  0  0  0  0  0  0  0  0  0  0  0
  -24.2076  -26.4995   20.8833 C   0  0  0  0  0  0  0  0  0  0  0  0
  -20.3205  -31.1500   21.5181 C   0  0  0  0  0  0  0  0  0  0  0  0
  -25.1160  -26.3888   21.9457 C   0  0  0  0  0  0  0  0  0  0  0  0
  -27.7601  -25.0728   15.8350 C   0  0  0  0  0  0  0  0  0  0  0  0
  -28.1622  -23.7481   16.1321 C   0  0  0  0  0  0  0  0  0  0  0  0
  -26.4991  -25.2796   15.2340 C   0  0  0  0  0  0  0  0  0  0  0  0
  -26.7553  -13.4949   20.7094 C   0  0  0  0  0  0  0  0  0  0  0  0
  -26.9579  -26.4394   20.3599 C   0  0  0  0  0  0  0  0  0  0  0  0
  -24.6759  -12.4165   20.5224 C   0  0  0  0  0  0  0  0  0  0  0  0
  -21.8913  -12.5790   20.4748 C   0  0  0  0  0  0  0  0  0  0  0  0
  -23.9207  -11.7264   21.4706 C   0  0  0  0  0  0  0  0  0  0  0  0
  -28.9234  -17.0919   21.2186 C   0  0  0  0  0  0  0  0  0  0  0  0
  -30.3587  -18.6253   21.8696 C   0  0  0  0  0  0  0  0  0  0  0  0
  -30.6782  -16.4028   22.9681 C   0  0  0  0  0  0  0  0  0  0  0  0
  -22.5101  -28.4381   22.7445 C   0  0  0  0  0  0  0  0  0  0  0  0
  -22.5976  -25.9185   24.7856 C   0  0  0  0  0  0  0  0  0  0  0  0
  -24.1728  -23.0668   25.8022 C   0  0  0  0  0  0  0  0  0  0  0  0
  -29.7597  -22.2467   17.3700 C   0  0  0  0  0  0  0  0  0  0  0  0
  -18.6080  -31.6767   23.3294 C   0  0  0  0  0  0  0  0  0  0  0  0
  -22.7264  -26.5017   21.1447 C   0  0  0  0  0  0  0  0  0  0  0  0
  -28.5689  -26.3284   16.1200 C   0  0  0  0  0  0  0  0  0  0  0  0
  -24.6554  -26.3018   23.3771 C   0  0  0  0  0  0  0  0  0  0  0  0
  -19.4487  -30.8016   24.2555 C   0  0  0  0  0  0  0  0  0  0  0  0
  -28.4709  -22.8338   20.6209 C   0  0  0  0  0  0  0  0  0  0  0  0
  -20.9348  -31.0035   23.9771 C   0  0  0  0  0  0  0  0  0  0  0  0
  -28.5479  -21.4351   21.2321 C   0  0  0  0  0  0  0  0  0  0  0  0
  -30.8107  -25.4889   17.0028 C   0  0  0  0  0  0  0  0  0  0  0  0
  -28.0234  -22.7944   19.1591 C   0  0  0  0  0  0  0  0  0  0  0  0
  -30.5870  -24.2355   16.1664 C   0  0  0  0  0  0  0  0  0  0  0  0
  -28.9123  -20.5024   18.9147 C   0  0  0  0  0  0  0  0  0  0  0  0
  -21.2876  -30.5957   22.5416 C   0  0  1  0  0  0  0  0  0  0  0  0
  -22.3696  -26.9539   22.5573 C   0  0  1  0  0  0  0  0  0  0  0  0
  -29.4126  -20.5002   20.3677 C   0  0  2  0  0  0  0  0  0  0  0  0
  -29.5175  -26.2376   17.3154 C   0  0  1  0  0  0  0  0  0  0  0  0
  -24.0309  -21.2436   27.5207 C   0  0  0  0  0  0  0  0  0  0  0  0
  -23.6897  -27.8290   26.8992 C   0  0  0  0  0  0  0  0  0  0  0  0
  -24.4079  -25.8344   28.2310 C   0  0  0  0  0  0  0  0  0  0  0  0
  -21.9891  -26.2012   27.7433 C   0  0  0  0  0  0  0  0  0  0  0  0
  -30.4146  -27.4860   20.5279 C   0  0  0  0  0  0  0  0  0  0  0  0
  -28.2348  -28.6184   21.0360 C   0  0  0  0  0  0  0  0  0  0  0  0
  -24.7843  -27.0756   15.4785 C   0  0  0  0  0  0  0  0  0  0  0  0
  -23.8552  -20.9785   23.7293 C   0  0  0  0  0  0  0  0  0  0  0  0
  -30.1993  -28.5126   16.5690 C   0  0  0  0  0  0  0  0  0  0  0  0
  -24.9982  -26.5489   12.3578 C   0  0  0  0  0  0  0  0  0  0  0  0
  -28.8546  -28.2346   18.6463 C   0  0  0  0  0  0  0  0  0  0  0  0
  -23.5308  -25.4618   25.8809 C   0  0  1  0  0  0  0  0  0  0  0  0
  -23.6415  -21.6800   26.1169 C   0  0  2  0  0  0  0  0  0  0  0  0
  -23.4134  -26.3352   27.1619 C   0  0  0  0  0  0  0  0  0  0  0  0
  -28.9665  -27.6796   20.0713 C   0  0  0  0  0  0  0  0  0  1  0  0
  -28.5853  -18.1824   20.5255 N   0  0  0  0  0  0  0  0  0  0  0  0
  -29.4761  -19.0978   20.9433 N   0  0  0  0  0  0  0  0  0  0  0  0
  -29.4667  -23.4307   16.6608 N   0  0  0  0  0  0  0  0  0  0  0  0
  -23.1975  -26.3140   23.5817 N   0  0  0  0  0  0  0  0  0  0  0  0
  -28.8617  -21.8677   18.3854 N   0  0  0  0  0  0  0  0  0  0  0  0
  -31.3209  -19.4128   22.3952 N   0  0  0  0  0  0  0  0  0  0  0  0
  -30.2037  -15.0868   23.0536 N   0  0  0  0  0  0  0  0  0  0  0  0
  -21.3711  -29.1550   22.4315 N   0  0  0  0  0  0  0  0  0  0  0  0
  -23.2478  -24.0466   26.0946 N   0  0  0  0  0  0  0  0  0  0  0  0
  -26.0463  -26.5884   14.8590 N   0  0  2  0  0  0  0  0  0  0  0  0
  -24.1834  -20.6856   25.1482 N   0  3  0  0  0  0  0  0  0  0  0  0
  -29.8880  -27.6207   17.7406 N   0  3  1  0  0  0  0  0  0  0  0  0
  -31.6465  -16.7539   23.6841 O   0  0  0  0  0  0  0  0  0  0  0  0
  -23.5729  -28.8986   23.1448 O   0  0  0  0  0  0  0  0  0  0  0  0
  -21.3808  -25.9173   24.9883 O   0  0  0  0  0  0  0  0  0  0  0  0
  -25.2974  -23.2616   25.3464 O   0  0  0  0  0  0  0  0  0  0  0  0
  -30.7834  -21.5903   17.1399 O   0  0  0  0  0  0  0  0  0  0  0  0
  -27.5631  -26.3819   12.7653 O   0  0  0  0  0  0  0  0  0  0  0  0
  -26.4117  -28.5735   13.2089 O   0  0  0  0  0  0  0  0  0  0  0  0
  -26.0582  -12.3375   20.5452 O   0  0  0  0  0  0  0  0  0  0  0  0
  -28.3011  -26.4143   20.1085 O   0  0  0  0  0  0  0  0  0  1  0  0
  -20.5543  -12.6583   20.4527 F   0  0  0  0  0  0  0  0  0  0  0  0
  -24.5271  -10.9846   22.4075 F   0  0  0  0  0  0  0  0  0  0  0  0
  -26.4193  -27.1237   13.2638 S   0  0  0  0  0  0  0  0  0  0  0  0
  1  2  1  0  0  0  0
  1  6  2  0  0  0  0
  2  7  2  0  0  0  0
  3  9  2  0  0  0  0
  3 10  1  0  0  0  0
  4 11  2  0  0  0  0
  4 18  1  0  0  0  0
  5 12  1  0  0  0  0
  5 18  2  0  0  0  0
  6 20  1  0  0  0  0
  7 22  1  0  0  0  0
  8 13  2  0  0  0  0
  8 21  1  0  0  0  0
  9 25  1  0  0  0  0
 10 26  2  0  0  0  0
 11 27  1  0  0  0  0
 12 27  2  0  0  0  0
 13 28  1  0  0  0  0
 14 15  2  0  0  0  0
 14 29  1  0  0  0  0
 15 30  1  0  0  0  0
 16 23  1  0  0  0  0
 16 28  2  0  0  0  0
 17 30  2  0  0  0  0
 17 31  1  0  0  0  0
 18 32  1  0  0  0  0
 19 32  1  0  0  0  0
 19 33  2  0  0  0  0
 19 34  1  0  0  0  0
 20 22  2  0  0  0  0
 20 39  1  0  0  0  0
 21 23  2  0  0  0  0
 21 40  1  0  0  0  0
 22 51  1  0  0  0  0
 23 42  1  0  0  0  0
 24 25  2  0  0  0  0
 24 26  1  0  0  0  0
 24 41  1  0  0  0  0
 25 72  1  0  0  0  0
 26 79  1  0  0  0  0
 27 89  1  0  0  0  0
 28 90  1  0  0  0  0
 29 31  2  0  0  0  0
 29 89  1  0  0  0  0
 30 91  1  0  0  0  0
 31 92  1  0  0  0  0
 32 70  2  0  0  0  0
 33 71  1  0  0  0  0
 33 75  1  0  0  0  0
 34 76  1  0  0  0  0
 34 82  2  0  0  0  0
 35 52  1  0  0  0  0
 35 77  1  0  0  0  0
 35 83  2  0  0  0  0
 36 66  1  0  0  0  0
 36 73  1  0  0  0  0
 36 84  2  0  0  0  0
 37 67  1  0  0  0  0
 37 78  1  0  0  0  0
 37 85  2  0  0  0  0
 38 72  1  0  0  0  0
 38 74  1  0  0  0  0
 38 86  2  0  0  0  0
 39 43  1  0  0  0  0
 40 52  1  0  0  0  0
 41 54  1  0  0  0  0
 42 73  1  0  0  0  0
 43 45  1  0  0  0  0
 44 46  1  0  0  0  0
 44 48  1  0  0  0  0
 45 51  1  0  0  0  0
 46 53  1  0  0  0  0
 47 49  1  0  0  0  0
 47 54  1  0  0  0  0
 48 74  1  0  0  0  0
 49 72  1  0  0  0  0
 50 53  1  0  0  0  0
 50 74  1  0  0  0  0
 51 77  1  0  0  0  0
 52 73  1  0  0  0  0
 53 71  1  0  0  0  0
 54 81  1  0  0  0  0
 55 67  1  0  0  0  0
 56 68  1  0  0  0  0
 57 68  1  0  0  0  0
 58 68  1  0  0  0  0
 59 69  1  0  0  0  0
 60 69  1  0  0  0  0
 61 79  1  0  0  0  0
 62 80  1  0  0  0  0
 63 81  1  0  0  0  0
 64 93  1  0  0  0  0
 65 69  1  0  0  0  0
 65 81  1  0  0  0  0
 66 68  1  0  0  0  0
 66 78  1  0  0  0  0
 67 80  1  0  0  0  0
 69 90  1  0  0  0  0
 70 71  1  0  0  0  0
 79 93  1  0  0  0  0
 87 93  2  0  0  0  0
 88 93  2  0  0  0  0
M  CHG  2  80   1  81   1
M  ISO  4  38 100  69 101  72 100  90 101
M  END
> <Batch ID>
0026

> <Smiles>
CNC(C)C(=O)NC(C(=O)N1Cc2cc([101O:1][101C:1](C)(C)CN(C)C3CC[100N:0]([100C:0](=O)N4CCCC(n5nc(-c6ccc(Oc7ccc(F)cc7F)cc6)c(C(N)=O)c5N)C4)c4cccc(N(C)S(C)(=O)=O)c4C3)ccc2CC1C(=O)NC1CCCc2ccccc21)C(C)(C)C

> <Shape>
0.208

> <Color>
0.062

> <Negative vol penalty>
0.000

$$$$

  -OEChem-04042321253D

 87 96  0     1  0  0  0  0  0999 V2000
  -17.7415  -31.0500   18.1583 C   0  0  0  0  0  0  0  0  0  0  0  0
  -19.1191  -31.0857   17.9678 C   0  0  0  0  0  0  0  0  0  0  0  0
  -22.6660  -10.1976   20.1709 C   0  0  0  0  0  0  0  0  0  0  0  0
  -24.3335   -9.3959   21.7244 C   0  0  0  0  0  0  0  0  0  0  0  0
  -17.2067  -30.3561   19.2429 C   0  0  0  0  0  0  0  0  0  0  0  0
  -19.9629  -30.4285   18.8626 C   0  0  0  0  0  0  0  0  0  0  0  0
  -24.4677  -25.2780   16.6107 C   0  0  0  0  0  0  0  0  0  0  0  0
  -21.9338   -9.0242   20.3512 C   0  0  0  0  0  0  0  0  0  0  0  0
  -23.6013   -8.2224   21.9048 C   0  0  0  0  0  0  0  0  0  0  0  0
  -25.5063  -24.4305   16.2246 C   0  0  0  0  0  0  0  0  0  0  0  0
  -20.8705   -7.2329   23.6322 C   0  0  0  0  0  0  0  0  0  0  0  0
  -20.6983   -6.7724   24.9376 C   0  0  0  0  0  0  0  0  0  0  0  0
  -26.1392  -24.1340   18.5397 C   0  0  0  0  0  0  0  0  0  0  0  0
  -31.4016  -19.4666   19.5008 C   0  0  0  0  0  0  0  0  0  0  0  0
  -29.1772  -19.7250   20.4074 C   0  0  0  0  0  0  0  0  0  0  0  0
  -21.8175   -4.7112   24.3581 C   0  0  0  0  0  0  0  0  0  0  0  0
  -23.8659  -10.3834   20.8575 C   0  0  0  0  0  0  0  0  0  0  0  0
  -24.1986  -12.9115   20.9339 C   0  0  0  0  0  0  0  0  0  0  0  0
  -18.0437  -29.6820   20.1460 C   0  0  0  0  0  0  0  0  0  0  0  0
  -24.2510  -25.5448   17.9654 C   0  0  0  0  0  0  0  0  0  0  0  0
  -19.4388  -29.7261   19.9611 C   0  0  0  0  0  0  0  0  0  0  0  0
  -25.0926  -24.9722   18.9332 C   0  0  0  0  0  0  0  0  0  0  0  0
  -30.6054  -17.9448   21.1999 C   0  0  0  0  0  0  0  0  0  0  0  0
  -30.1841  -20.1461   19.5388 C   0  0  0  0  0  0  0  0  0  0  0  0
  -22.4014   -8.0366   21.2181 C   0  0  0  0  0  0  0  0  0  0  0  0
  -26.3401  -23.8601   17.1867 C   0  0  0  0  0  0  0  0  0  0  0  0
  -21.5162   -6.4325   22.6898 C   0  0  0  0  0  0  0  0  0  0  0  0
  -21.1718   -5.5116   25.3005 C   0  0  0  0  0  0  0  0  0  0  0  0
  -31.6123  -18.3659   20.3313 C   0  0  0  0  0  0  0  0  0  0  0  0
  -21.9897   -5.1717   23.0527 C   0  0  0  0  0  0  0  0  0  0  0  0
  -29.3878  -18.6243   21.2380 C   0  0  0  0  0  0  0  0  0  0  0  0
  -24.6230  -11.5952   20.6713 C   0  0  0  0  0  0  0  0  0  0  0  0
  -25.2755  -13.6936   20.5944 C   0  0  0  0  0  0  0  0  0  0  0  0
  -28.6751  -21.6024   18.2126 C   0  0  0  0  0  0  0  0  0  0  0  0
  -22.9433  -13.3850   21.4395 C   0  0  0  0  0  0  0  0  0  0  0  0
  -22.1837  -27.3220   20.5430 C   0  0  0  0  0  0  0  0  0  0  0  0
  -22.7946  -24.5311   21.6602 C   0  0  0  0  0  0  0  0  0  0  0  0
  -23.3326  -21.2324   22.3434 C   0  0  0  0  0  0  0  0  0  0  0  0
  -30.7607  -14.7198   20.6680 C   0  0  0  0  0  0  0  0  0  0  0  0
  -17.4221  -28.9849   21.3302 C   0  0  0  0  0  0  0  0  0  0  0  0
  -23.1827  -26.5003   18.4232 C   0  0  0  0  0  0  0  0  0  0  0  0
  -24.8436  -25.3150   20.3766 C   0  0  0  0  0  0  0  0  0  0  0  0
  -18.3633  -28.0013   22.0210 C   0  0  0  0  0  0  0  0  0  0  0  0
  -30.9326  -23.3860   17.6530 C   0  0  0  0  0  0  0  0  0  0  0  0
  -29.5412  -12.5345   18.1354 C   0  0  0  0  0  0  0  0  0  0  0  0
  -19.7345  -28.6347   22.2342 C   0  0  0  0  0  0  0  0  0  0  0  0
  -29.6897  -23.4480   16.7951 C   0  0  0  0  0  0  0  0  0  0  0  0
  -28.1210  -12.1993   18.5942 C   0  0  0  0  0  0  0  0  0  0  0  0
  -31.1595  -21.9603   18.1299 C   0  0  0  0  0  0  0  0  0  0  0  0
  -30.5010  -12.6601   19.3165 C   0  0  0  0  0  0  0  0  0  0  0  0
  -28.6497  -13.2654   20.8264 C   0  0  0  0  0  0  0  0  0  0  0  0
  -20.3853  -29.0048   20.8960 C   0  0  1  0  0  0  0  0  0  0  0  0
  -28.5057  -22.9991   17.6240 C   0  0  1  0  0  0  0  0  0  1  0  0
  -22.5410  -26.0920   19.7613 C   0  0  1  0  0  0  0  0  0  0  0  0
  -27.6336  -13.1837   19.6744 C   0  0  2  0  0  0  0  0  0  0  0  0
  -22.9017  -19.4879   24.0951 C   0  0  0  0  0  0  0  0  0  0  0  0
  -25.0003  -25.7307   23.3922 C   0  0  0  0  0  0  0  0  0  0  0  0
  -25.1801  -23.5264   24.5656 C   0  0  0  0  0  0  0  0  0  0  0  0
  -23.0505  -24.8214   24.6673 C   0  0  0  0  0  0  0  0  0  0  0  0
  -21.7573  -19.5716   20.4675 C   0  0  0  0  0  0  0  0  0  0  0  0
  -30.8676  -16.7615   22.0749 C   0  0  0  0  0  0  0  0  0  0  0  0
  -23.7049  -23.6796   22.5086 C   0  0  1  0  0  0  0  0  0  0  0  0
  -22.3955  -20.1355   22.8156 C   0  0  2  0  0  0  0  0  0  0  0  0
  -24.2372  -24.4412   23.7552 C   0  0  0  0  0  0  0  0  0  0  0  0
  -25.8719  -11.5401   20.2011 N   0  0  0  0  0  0  0  0  0  0  0  0
  -26.2416  -12.8317   20.1655 N   0  0  0  0  0  0  0  0  0  0  0  0
  -29.9670  -21.2891   18.6779 N   0  0  0  0  0  0  0  0  0  0  0  0
  -23.3991  -25.2962   20.6554 N   0  0  0  0  0  0  0  0  0  0  0  0
  -29.9812  -13.6095   20.3036 N   0  0  0  0  0  0  0  0  0  0  0  0
  -25.4807  -15.0275   20.6239 N   0  0  0  0  0  0  0  0  0  0  0  0
  -22.7876  -13.5143   22.8264 N   0  0  0  0  0  0  0  0  0  0  0  0
  -20.9298  -27.8267   20.2558 N   0  0  0  0  0  0  0  0  0  0  0  0
  -22.9548  -22.4686   22.8235 N   0  0  0  0  0  0  0  0  0  0  0  0
  -30.1909  -15.5732   21.6049 N   0  0  0  0  0  0  0  0  0  0  0  0
  -22.2680  -19.0787   21.7726 N   0  3  0  0  0  0  0  0  0  0  0  0
  -27.6926  -20.8603   18.2904 O   0  0  0  0  0  0  0  0  0  0  0  0
  -21.9825  -13.6689   20.6847 O   0  0  0  0  0  0  0  0  0  0  0  0
  -22.9853  -27.7796   21.3490 O   0  0  0  0  0  0  0  0  0  0  0  0
  -21.5809  -24.5244   21.8839 O   0  0  0  0  0  0  0  0  0  0  0  0
  -24.3048  -21.0140   21.6240 O   0  0  0  0  0  0  0  0  0  0  0  0
  -31.8790  -14.9374   20.1897 O   0  0  0  0  0  0  0  0  0  0  0  0
  -21.6871   -6.8915   21.3945 O   0  0  0  0  0  0  0  0  0  0  0  0
  -27.3494  -23.0301   16.8032 O   0  0  0  0  0  0  0  0  0  1  0  0
  -21.0077   -5.0702   26.5544 F   0  0  0  0  0  0  0  0  0  0  0  0
  -32.7858  -17.7195   20.2859 F   0  0  0  0  0  0  0  0  0  0  0  0
  -22.6119   -4.3988   22.1520 F   0  0  0  0  0  0  0  0  0  0  0  0
  -28.1192  -18.1323   22.3002 Cl  0  0  0  0  0  0  0  0  0  0  0  0
  1  2  1  0  0  0  0
  1  5  2  0  0  0  0
  2  6  2  0  0  0  0
  3  8  2  0  0  0  0
  3 17  1  0  0  0  0
  4  9  1  0  0  0  0
  4 17  2  0  0  0  0
  5 19  1  0  0  0  0
  6 21  1  0  0  0  0
  7 10  2  0  0  0  0
  7 20  1  0  0  0  0
  8 25  1  0  0  0  0
  9 25  2  0  0  0  0
 10 26  1  0  0  0  0
 11 12  2  0  0  0  0
 11 27  1  0  0  0  0
 12 28  1  0  0  0  0
 13 22  1  0  0  0  0
 13 26  2  0  0  0  0
 14 24  1  0  0  0  0
 14 29  2  0  0  0  0
 15 24  2  0  0  0  0
 15 31  1  0  0  0  0
 16 28  2  0  0  0  0
 16 30  1  0  0  0  0
 17 32  1  0  0  0  0
 18 32  1  0  0  0  0
 18 33  2  0  0  0  0
 18 35  1  0  0  0  0
 19 21  2  0  0  0  0
 19 40  1  0  0  0  0
 20 22  2  0  0  0  0
 20 41  1  0  0  0  0
 21 52  1  0  0  0  0
 22 42  1  0  0  0  0
 23 29  1  0  0  0  0
 23 31  2  0  0  0  0
 23 61  1  0  0  0  0
 24 67  1  0  0  0  0
 25 82  1  0  0  0  0
 26 83  1  0  0  0  0
 27 30  2  0  0  0  0
 27 82  1  0  0  0  0
 28 84  1  0  0  0  0
 29 85  1  0  0  0  0
 30 86  1  0  0  0  0
 31 87  1  0  0  0  0
 32 65  2  0  0  0  0
 33 66  1  0  0  0  0
 33 70  1  0  0  0  0
 34 53  1  0  0  0  0
 34 67  1  0  0  0  0
 34 76  2  0  0  0  0
 35 71  1  0  0  0  0
 35 77  2  0  0  0  0
 36 54  1  0  0  0  0
 36 72  1  0  0  0  0
 36 78  2  0  0  0  0
 37 62  1  0  0  0  0
 37 68  1  0  0  0  0
 37 79  2  0  0  0  0
 38 63  1  0  0  0  0
 38 73  1  0  0  0  0
 38 80  2  0  0  0  0
 39 69  1  0  0  0  0
 39 74  1  0  0  0  0
 39 81  2  0  0  0  0
 40 43  1  0  0  0  0
 41 54  1  0  0  0  0
 42 68  1  0  0  0  0
 43 46  1  0  0  0  0
 44 47  1  0  0  0  0
 44 49  1  0  0  0  0
 45 48  1  0  0  0  0
 45 50  1  0  0  0  0
 46 52  1  0  0  0  0
 47 53  1  0  0  0  0
 48 55  1  0  0  0  0
 49 67  1  0  0  0  0
 50 69  1  0  0  0  0
 51 55  1  0  0  0  0
 51 69  1  0  0  0  0
 52 72  1  0  0  0  0
 53 83  1  0  0  0  0
 54 68  1  0  0  0  0
 55 66  1  0  0  0  0
 56 63  1  0  0  0  0
 57 64  1  0  0  0  0
 58 64  1  0  0  0  0
 59 64  1  0  0  0  0
 60 75  1  0  0  0  0
 61 74  1  0  0  0  0
 62 64  1  0  0  0  0
 62 73  1  0  0  0  0
 63 75  1  0  0  0  0
 65 66  1  0  0  0  0
M  CHG  1  75   1
M  ISO  4  39 100  53 101  74 100  83 101
M  END
> <Batch ID>
0026

> <Smiles>
CNC(C)C(=O)NC(C(=O)N1Cc2cc([101O:1][101CH:1]3CCCN(c4cc(F)c(C[100NH:0][100C:0](=O)N5CCCC(n6nc(-c7ccc(Oc8ccc(F)cc8F)cc7)c(C(N)=O)c6N)C5)c(Cl)c4)C3=O)ccc2CC1C(=O)NC1CCCc2ccccc21)C(C)(C)C

> <Shape>
0.264

> <Color>
0.180

> <Negative vol penalty>
0.000

$$$$

  -OEChem-04042321253D

 84 92  0     1  0  0  0  0  0999 V2000
  -16.5524  -27.4743   22.2650 C   0  0  0  0  0  0  0  0  0  0  0  0
  -17.6282  -26.6014   22.3918 C   0  0  0  0  0  0  0  0  0  0  0  0
  -29.0853  -19.4262   18.7514 C   0  0  0  0  0  0  0  0  0  0  0  0
  -22.8338  -16.2839   21.4517 C   0  0  0  0  0  0  0  0  0  0  0  0
  -22.1514  -15.2250   19.3901 C   0  0  0  0  0  0  0  0  0  0  0  0
  -16.7581  -28.7674   21.7859 C   0  0  0  0  0  0  0  0  0  0  0  0
  -18.9103  -27.0208   22.0384 C   0  0  0  0  0  0  0  0  0  0  0  0
  -24.1792  -25.4036   24.7084 C   0  0  0  0  0  0  0  0  0  0  0  0
  -28.2929  -20.1565   19.6370 C   0  0  0  0  0  0  0  0  0  0  0  0
  -29.7477  -18.2799   19.1907 C   0  0  0  0  0  0  0  0  0  0  0  0
  -21.7272  -17.1303   21.3833 C   0  0  0  0  0  0  0  0  0  0  0  0
  -21.0448  -16.0713   19.3217 C   0  0  0  0  0  0  0  0  0  0  0  0
  -25.1457  -24.4547   24.3779 C   0  0  0  0  0  0  0  0  0  0  0  0
  -19.2764  -19.8109   21.5618 C   0  0  0  0  0  0  0  0  0  0  0  0
  -19.4776  -21.1662   21.8226 C   0  0  0  0  0  0  0  0  0  0  0  0
  -26.4401  -26.1660   23.2755 C   0  0  0  0  0  0  0  0  0  0  0  0
  -28.8255  -18.5944   21.4015 C   0  0  0  0  0  0  0  0  0  0  0  0
  -21.0337  -21.2901   19.9786 C   0  0  0  0  0  0  0  0  0  0  0  0
  -23.0459  -15.3313   20.4551 C   0  0  0  0  0  0  0  0  0  0  0  0
  -24.2590  -13.1970   21.1489 C   0  0  0  0  0  0  0  0  0  0  0  0
  -18.0448  -29.2060   21.4357 C   0  0  0  0  0  0  0  0  0  0  0  0
  -24.3309  -26.7410   24.3149 C   0  0  0  0  0  0  0  0  0  0  0  0
  -19.1332  -28.3206   21.5530 C   0  0  0  0  0  0  0  0  0  0  0  0
  -25.4754  -27.1304   23.6046 C   0  0  0  0  0  0  0  0  0  0  0  0
  -28.1630  -19.7406   20.9621 C   0  0  0  0  0  0  0  0  0  0  0  0
  -29.6178  -17.8641   20.5158 C   0  0  0  0  0  0  0  0  0  0  0  0
  -20.8327  -17.0240   20.3183 C   0  0  0  0  0  0  0  0  0  0  0  0
  -26.2750  -24.8353   23.6588 C   0  0  0  0  0  0  0  0  0  0  0  0
  -19.9540  -19.1950   20.5095 C   0  0  0  0  0  0  0  0  0  0  0  0
  -20.3562  -21.9059   21.0310 C   0  0  0  0  0  0  0  0  0  0  0  0
  -20.8326  -19.9347   19.7178 C   0  0  0  0  0  0  0  0  0  0  0  0
  -24.1892  -14.4571   20.5250 C   0  0  0  0  0  0  0  0  0  0  0  0
  -25.5498  -12.7792   20.9353 C   0  0  0  0  0  0  0  0  0  0  0  0
  -23.2474  -12.4693   21.8580 C   0  0  0  0  0  0  0  0  0  0  0  0
  -22.6925  -28.7318   22.4559 C   0  0  0  0  0  0  0  0  0  0  0  0
  -24.8411  -30.9018   23.5500 C   0  0  0  0  0  0  0  0  0  0  0  0
  -27.6618  -21.8500   22.1338 C   0  0  0  0  0  0  0  0  0  0  0  0
  -27.9268  -31.5092   24.8753 C   0  0  0  0  0  0  0  0  0  0  0  0
  -30.5716  -15.6054   20.0916 C   0  0  0  0  0  0  0  0  0  0  0  0
  -18.2107  -30.5974   20.8778 C   0  0  0  0  0  0  0  0  0  0  0  0
  -23.2923  -27.7575   24.7025 C   0  0  0  0  0  0  0  0  0  0  0  0
  -25.6954  -28.5575   23.1761 C   0  0  0  0  0  0  0  0  0  0  0  0
  -19.6570  -31.0858   20.8792 C   0  0  0  0  0  0  0  0  0  0  0  0
  -29.1753  -13.2187   17.8562 C   0  0  0  0  0  0  0  0  0  0  0  0
  -20.5853  -30.0068   20.3308 C   0  0  0  0  0  0  0  0  0  0  0  0
  -27.7297  -13.1522   18.3475 C   0  0  0  0  0  0  0  0  0  0  0  0
  -29.7262  -14.6446   17.8896 C   0  0  0  0  0  0  0  0  0  0  0  0
  -28.1465  -15.2435   19.6980 C   0  0  0  0  0  0  0  0  0  0  0  0
  -20.5426  -28.7466   21.2034 C   0  0  1  0  0  0  0  0  0  0  0  0
  -23.3000  -28.9915   23.8054 C   0  0  1  0  0  0  0  0  0  0  0  0
  -27.5852  -13.8134   19.7296 C   0  0  1  0  0  0  0  0  0  0  0  0
  -24.9567  -19.9891   21.7028 C   0  0  0  0  0  0  0  0  0  0  0  0
  -29.4133  -33.3863   25.6264 C   0  0  0  0  0  0  0  0  0  0  0  0
  -25.4452  -31.5853   20.6383 C   0  0  0  0  0  0  0  0  0  0  0  0
  -27.5383  -32.7205   21.4118 C   0  0  0  0  0  0  0  0  0  0  0  0
  -25.3141  -33.5596   22.1677 C   0  0  0  0  0  0  0  0  0  0  0  0
  -30.9352  -16.6975   22.2940 C   0  0  0  0  0  0  0  0  0  0  0  0
  -28.0242  -30.4773   27.6474 C   0  0  0  0  0  0  0  0  0  0  0  0
  -26.7754  -22.5688   23.1406 C   0  0  0  0  0  0  0  0  0  1  0  0
  -26.1924  -19.8387   22.5232 C   0  0  0  0  0  0  0  0  0  0  0  0
  -26.1994  -31.3823   23.0992 C   0  0  1  0  0  0  0  0  0  0  0  0
  -28.3684  -32.3652   26.0486 C   0  0  2  0  0  0  0  0  0  0  0  0
  -26.1195  -32.2846   21.8355 C   0  0  0  0  0  0  0  0  0  0  0  0
  -25.3439  -14.8162   19.9577 N   0  0  0  0  0  0  0  0  0  0  0  0
  -26.1514  -13.7757   20.2244 N   0  0  0  0  0  0  0  0  0  0  0  0
  -24.6484  -29.5132   23.5734 N   0  0  0  0  0  0  0  0  0  0  0  0
  -29.5296  -15.2483   19.2152 N   0  0  0  0  0  0  0  0  0  0  0  0
  -26.2176  -11.6603   21.2881 N   0  0  0  0  0  0  0  0  0  0  0  0
  -21.9755  -13.0443   21.9845 N   0  0  0  0  0  0  0  0  0  0  0  0
  -21.3269  -28.9369   22.4047 N   0  0  0  0  0  0  0  0  0  0  0  0
  -26.8088  -32.0279   24.2568 N   0  0  0  0  0  0  0  0  0  0  0  0
  -27.3393  -20.4995   21.8814 N   0  0  0  0  0  0  0  0  0  0  0  0
  -30.3038  -16.6773   20.9701 N   0  0  0  0  0  0  0  0  0  0  0  0
  -28.9520  -31.5117   27.1218 N   0  3  0  0  0  0  0  0  0  0  0  0
  -23.4697  -11.3499   22.3786 O   0  0  0  0  0  0  0  0  0  0  0  0
  -23.4098  -28.3733   21.5293 O   0  0  0  0  0  0  0  0  0  0  0  0
  -23.9850  -31.7278   23.8763 O   0  0  0  0  0  0  0  0  0  0  0  0
  -28.6065  -22.4632   21.6307 O   0  0  0  0  0  0  0  0  0  0  0  0
  -28.5169  -30.4851   24.5385 O   0  0  0  0  0  0  0  0  0  0  0  0
  -31.6484  -14.9970   20.1067 O   0  0  0  0  0  0  0  0  0  0  0  0
  -19.7526  -17.8495   20.2513 O   0  0  0  0  0  0  0  0  0  0  0  0
  -27.2196  -23.9110   23.3343 O   0  0  0  0  0  0  0  0  0  1  0  0
  -20.5481  -23.2078   21.2806 F   0  0  0  0  0  0  0  0  0  0  0  0
  -21.4854  -19.3489   18.7047 F   0  0  0  0  0  0  0  0  0  0  0  0
  1  2  1  0  0  0  0
  1  6  2  0  0  0  0
  2  7  2  0  0  0  0
  3  9  2  0  0  0  0
  3 10  1  0  0  0  0
  4 11  2  0  0  0  0
  4 19  1  0  0  0  0
  5 12  1  0  0  0  0
  5 19  2  0  0  0  0
  6 21  1  0  0  0  0
  7 23  1  0  0  0  0
  8 13  2  0  0  0  0
  8 22  1  0  0  0  0
  9 25  1  0  0  0  0
 10 26  2  0  0  0  0
 11 27  1  0  0  0  0
 12 27  2  0  0  0  0
 13 28  1  0  0  0  0
 14 15  2  0  0  0  0
 14 29  1  0  0  0  0
 15 30  1  0  0  0  0
 16 24  1  0  0  0  0
 16 28  2  0  0  0  0
 17 25  2  0  0  0  0
 17 26  1  0  0  0  0
 18 30  2  0  0  0  0
 18 31  1  0  0  0  0
 19 32  1  0  0  0  0
 20 32  1  0  0  0  0
 20 33  2  0  0  0  0
 20 34  1  0  0  0  0
 21 23  2  0  0  0  0
 21 40  1  0  0  0  0
 22 24  2  0  0  0  0
 22 41  1  0  0  0  0
 23 49  1  0  0  0  0
 24 42  1  0  0  0  0
 25 72  1  0  0  0  0
 26 73  1  0  0  0  0
 27 81  1  0  0  0  0
 28 82  1  0  0  0  0
 29 31  2  0  0  0  0
 29 81  1  0  0  0  0
 30 83  1  0  0  0  0
 31 84  1  0  0  0  0
 32 64  2  0  0  0  0
 33 65  1  0  0  0  0
 33 68  1  0  0  0  0
 34 69  1  0  0  0  0
 34 75  2  0  0  0  0
 35 50  1  0  0  0  0
 35 70  1  0  0  0  0
 35 76  2  0  0  0  0
 36 61  1  0  0  0  0
 36 66  1  0  0  0  0
 36 77  2  0  0  0  0
 37 59  1  0  0  0  0
 37 72  1  0  0  0  0
 37 78  2  0  0  0  0
 38 62  1  0  0  0  0
 38 71  1  0  0  0  0
 38 79  2  0  0  0  0
 39 67  1  0  0  0  0
 39 73  1  0  0  0  0
 39 80  2  0  0  0  0
 40 43  1  0  0  0  0
 41 50  1  0  0  0  0
 42 66  1  0  0  0  0
 43 45  1  0  0  0  0
 44 46  1  0  0  0  0
 44 47  1  0  0  0  0
 45 49  1  0  0  0  0
 46 51  1  0  0  0  0
 47 67  1  0  0  0  0
 48 51  1  0  0  0  0
 48 67  1  0  0  0  0
 49 70  1  0  0  0  0
 50 66  1  0  0  0  0
 51 65  1  0  0  0  0
 52 60  1  0  0  0  0
 53 62  1  0  0  0  0
 54 63  1  0  0  0  0
 55 63  1  0  0  0  0
 56 63  1  0  0  0  0
 57 73  1  0  0  0  0
 58 74  1  0  0  0  0
 59 82  1  0  0  0  0
 60 72  1  0  0  0  0
 61 63  1  0  0  0  0
 61 71  1  0  0  0  0
 62 74  1  0  0  0  0
 64 65  1  0  0  0  0
M  CHG  1  74   1
M  ISO  4  39 100  59 101  73 100  82 101
M  END
> <Batch ID>
0026

> <Smiles>
CCN(C(=O)[101CH2:1][101O:1]c1ccc2c(c1)CN(C(=O)C(NC(=O)C(C)NC)C(C)(C)C)C(C(=O)NC1CCCc3ccccc31)C2)c1cccc([100N:0](C)[100C:0](=O)N2CCCC(n3nc(-c4ccc(Oc5ccc(F)cc5F)cc4)c(C(N)=O)c3N)C2)c1

> <Shape>
0.255

> <Color>
0.103

> <Negative vol penalty>
0.000

$$$$

  -OEChem-04042321253D

 84 92  0     1  0  0  0  0  0999 V2000
  -39.5286  -28.5644   14.9548 C   0  0  0  0  0  0  0  0  0  0  0  0
  -39.4572  -27.5307   15.8832 C   0  0  0  0  0  0  0  0  0  0  0  0
  -23.1218   -9.8313   19.9584 C   0  0  0  0  0  0  0  0  0  0  0  0
  -23.8679   -9.8950   22.2554 C   0  0  0  0  0  0  0  0  0  0  0  0
  -38.4622  -29.4521   14.8183 C   0  0  0  0  0  0  0  0  0  0  0  0
  -38.3197  -27.3848   16.6764 C   0  0  0  0  0  0  0  0  0  0  0  0
  -35.8444  -22.1359   18.6328 C   0  0  0  0  0  0  0  0  0  0  0  0
  -29.7221  -17.6346   23.0641 C   0  0  0  0  0  0  0  0  0  0  0  0
  -22.4042   -8.6650   20.2237 C   0  0  0  0  0  0  0  0  0  0  0  0
  -23.1503   -8.7286   22.5208 C   0  0  0  0  0  0  0  0  0  0  0  0
  -35.9344  -21.4503   19.8434 C   0  0  0  0  0  0  0  0  0  0  0  0
  -19.9387   -7.8638   23.1191 C   0  0  0  0  0  0  0  0  0  0  0  0
  -30.2823  -18.5472   23.9578 C   0  0  0  0  0  0  0  0  0  0  0  0
  -19.1761   -7.8253   24.2864 C   0  0  0  0  0  0  0  0  0  0  0  0
  -33.8785  -22.4803   20.5726 C   0  0  0  0  0  0  0  0  0  0  0  0
  -31.9297  -16.8293   22.5026 C   0  0  0  0  0  0  0  0  0  0  0  0
  -20.4591   -5.9308   25.0622 C   0  0  0  0  0  0  0  0  0  0  0  0
  -23.8537  -10.4463   20.9742 C   0  0  0  0  0  0  0  0  0  0  0  0
  -24.1357  -12.9766   20.8134 C   0  0  0  0  0  0  0  0  0  0  0  0
  -37.3071  -29.3112   15.6035 C   0  0  0  0  0  0  0  0  0  0  0  0
  -34.7747  -23.0087   18.3869 C   0  0  0  0  0  0  0  0  0  0  0  0
  -37.2374  -28.2722   16.5512 C   0  0  0  0  0  0  0  0  0  0  0  0
  -33.7759  -23.1738   19.3571 C   0  0  0  0  0  0  0  0  0  0  0  0
  -32.4899  -17.7421   23.3963 C   0  0  0  0  0  0  0  0  0  0  0  0
  -30.5458  -16.7755   22.3365 C   0  0  0  0  0  0  0  0  0  0  0  0
  -22.4185   -8.1137   21.5049 C   0  0  0  0  0  0  0  0  0  0  0  0
  -34.9529  -21.6246   20.8147 C   0  0  0  0  0  0  0  0  0  0  0  0
  -20.9615   -6.9357   22.9233 C   0  0  0  0  0  0  0  0  0  0  0  0
  -19.4363   -6.8588   25.2579 C   0  0  0  0  0  0  0  0  0  0  0  0
  -31.6662  -18.6010   24.1239 C   0  0  0  0  0  0  0  0  0  0  0  0
  -21.2217   -5.9693   23.8948 C   0  0  0  0  0  0  0  0  0  0  0  0
  -24.5955  -11.6508   20.7006 C   0  0  0  0  0  0  0  0  0  0  0  0
  -25.2117  -13.7458   20.4435 C   0  0  0  0  0  0  0  0  0  0  0  0
  -22.8508  -13.4687   21.2167 C   0  0  0  0  0  0  0  0  0  0  0  0
  -34.5079  -26.1231   17.8097 C   0  0  0  0  0  0  0  0  0  0  0  0
  -31.3889  -25.3709   17.3313 C   0  0  0  0  0  0  0  0  0  0  0  0
  -28.7973  -23.2356   17.9402 C   0  0  0  0  0  0  0  0  0  0  0  0
  -30.6503  -14.9251   20.6302 C   0  0  0  0  0  0  0  0  0  0  0  0
  -34.4105  -19.6965   22.0156 C   0  0  0  0  0  0  0  0  0  1  0  0
  -36.1993  -30.3236   15.4534 C   0  0  0  0  0  0  0  0  0  0  0  0
  -34.6780  -23.7204   17.0653 C   0  0  0  0  0  0  0  0  0  0  0  0
  -32.5965  -24.0837   19.1342 C   0  0  0  0  0  0  0  0  0  0  0  0
  -34.8765  -29.8749   16.0690 C   0  0  0  0  0  0  0  0  0  0  0  0
  -29.6077  -12.4459   18.2970 C   0  0  0  0  0  0  0  0  0  0  0  0
  -35.1041  -29.3023   17.4644 C   0  0  0  0  0  0  0  0  0  0  0  0
  -28.1730  -12.1271   18.7236 C   0  0  0  0  0  0  0  0  0  0  0  0
  -30.5101  -12.7167   19.4996 C   0  0  0  0  0  0  0  0  0  0  0  0
  -28.5783  -13.4182   20.8580 C   0  0  0  0  0  0  0  0  0  0  0  0
  -36.0102  -28.0663   17.4125 C   0  0  1  0  0  0  0  0  0  0  0  0
  -33.8164  -24.9779   17.1255 C   0  0  1  0  0  0  0  0  0  0  0  0
  -27.6168  -13.2020   19.6780 C   0  0  2  0  0  0  0  0  0  0  0  0
  -26.3597  -22.9043   17.4442 C   0  0  0  0  0  0  0  0  0  0  0  0
  -34.3838  -17.4992   25.0425 C   0  0  0  0  0  0  0  0  0  0  0  0
  -34.6964  -16.7702   22.6587 C   0  0  0  0  0  0  0  0  0  0  0  0
  -30.6844  -27.5428   19.3553 C   0  0  0  0  0  0  0  0  0  0  0  0
  -28.3962  -26.5417   19.5285 C   0  0  0  0  0  0  0  0  0  0  0  0
  -29.1917  -27.4614   17.3504 C   0  0  0  0  0  0  0  0  0  0  0  0
  -29.3064  -20.6603   16.5736 C   0  0  0  0  0  0  0  0  0  0  0  0
  -30.1622  -25.2899   18.2075 C   0  0  1  0  0  0  0  0  0  0  0  0
  -27.7837  -22.5912   17.0118 C   0  0  2  0  0  0  0  0  0  0  0  0
  -34.0125  -17.7986   23.5784 C   0  0  0  0  0  0  0  0  0  0  0  0
  -29.6317  -26.6932   18.6157 C   0  0  0  0  0  0  0  0  0  0  0  0
  -25.8647  -11.5784   20.2909 N   0  0  0  0  0  0  0  0  0  0  0  0
  -26.2116  -12.8683   20.1429 N   0  0  0  0  0  0  0  0  0  0  0  0
  -32.5501  -24.7623   17.8284 N   0  0  0  0  0  0  0  0  0  0  0  0
  -29.9215  -13.7484   20.3564 N   0  0  0  0  0  0  0  0  0  0  0  0
  -25.3907  -15.0806   20.3492 N   0  0  0  0  0  0  0  0  0  0  0  0
  -21.8590  -12.5413   21.5637 N   0  0  0  0  0  0  0  0  0  0  0  0
  -29.9762  -15.8479   21.4294 N   0  0  0  0  0  0  0  0  0  0  0  0
  -35.2638  -26.9109   16.9627 N   0  0  0  0  0  0  0  0  0  0  0  0
  -29.1953  -24.4735   17.4815 N   0  0  0  0  0  0  0  0  0  0  0  0
  -34.5503  -19.0989   23.2512 N   0  0  0  0  0  0  0  0  0  0  0  0
  -27.9574  -21.1111   17.0026 N   0  3  0  0  0  0  0  0  0  0  0  0
  -22.5849  -14.6941   21.2519 O   0  0  0  0  0  0  0  0  0  0  0  0
  -34.3650  -26.2811   19.0164 O   0  0  0  0  0  0  0  0  0  0  0  0
  -31.3176  -25.9467   16.2427 O   0  0  0  0  0  0  0  0  0  0  0  0
  -29.1933  -22.6965   18.9712 O   0  0  0  0  0  0  0  0  0  0  0  0
  -31.7777  -15.1130   20.1660 O   0  0  0  0  0  0  0  0  0  0  0  0
  -33.8247  -19.2152   21.0503 O   0  0  0  0  0  0  0  0  0  0  0  0
  -21.7182   -6.9757   21.7642 O   0  0  0  0  0  0  0  0  0  0  0  0
  -35.0386  -20.9572   21.9975 O   0  0  0  0  0  0  0  0  0  1  0  0
  -18.7049   -6.8230   26.3795 F   0  0  0  0  0  0  0  0  0  0  0  0
  -32.1952  -19.4823   24.9841 F   0  0  0  0  0  0  0  0  0  0  0  0
  -22.2038   -5.0758   23.7129 F   0  0  0  0  0  0  0  0  0  0  0  0
  1  2  1  0  0  0  0
  1  5  2  0  0  0  0
  2  6  2  0  0  0  0
  3  9  2  0  0  0  0
  3 18  1  0  0  0  0
  4 10  1  0  0  0  0
  4 18  2  0  0  0  0
  5 20  1  0  0  0  0
  6 22  1  0  0  0  0
  7 11  2  0  0  0  0
  7 21  1  0  0  0  0
  8 13  2  0  0  0  0
  8 25  1  0  0  0  0
  9 26  1  0  0  0  0
 10 26  2  0  0  0  0
 11 27  1  0  0  0  0
 12 14  2  0  0  0  0
 12 28  1  0  0  0  0
 13 30  1  0  0  0  0
 14 29  1  0  0  0  0
 15 23  1  0  0  0  0
 15 27  2  0  0  0  0
 16 24  1  0  0  0  0
 16 25  2  0  0  0  0
 17 29  2  0  0  0  0
 17 31  1  0  0  0  0
 18 32  1  0  0  0  0
 19 32  1  0  0  0  0
 19 33  2  0  0  0  0
 19 34  1  0  0  0  0
 20 22  2  0  0  0  0
 20 40  1  0  0  0  0
 21 23  2  0  0  0  0
 21 41  1  0  0  0  0
 22 49  1  0  0  0  0
 23 42  1  0  0  0  0
 24 30  2  0  0  0  0
 24 61  1  0  0  0  0
 25 69  1  0  0  0  0
 26 80  1  0  0  0  0
 27 81  1  0  0  0  0
 28 31  2  0  0  0  0
 28 80  1  0  0  0  0
 29 82  1  0  0  0  0
 30 83  1  0  0  0  0
 31 84  1  0  0  0  0
 32 63  2  0  0  0  0
 33 64  1  0  0  0  0
 33 67  1  0  0  0  0
 34 68  1  0  0  0  0
 34 74  2  0  0  0  0
 35 50  1  0  0  0  0
 35 70  1  0  0  0  0
 35 75  2  0  0  0  0
 36 59  1  0  0  0  0
 36 65  1  0  0  0  0
 36 76  2  0  0  0  0
 37 60  1  0  0  0  0
 37 71  1  0  0  0  0
 37 77  2  0  0  0  0
 38 66  1  0  0  0  0
 38 69  1  0  0  0  0
 38 78  2  0  0  0  0
 39 72  1  0  0  0  0
 39 79  2  0  0  0  0
 39 81  1  0  0  0  0
 40 43  1  0  0  0  0
 41 50  1  0  0  0  0
 42 65  1  0  0  0  0
 43 45  1  0  0  0  0
 44 46  1  0  0  0  0
 44 47  1  0  0  0  0
 45 49  1  0  0  0  0
 46 51  1  0  0  0  0
 47 66  1  0  0  0  0
 48 51  1  0  0  0  0
 48 66  1  0  0  0  0
 49 70  1  0  0  0  0
 50 65  1  0  0  0  0
 51 64  1  0  0  0  0
 52 60  1  0  0  0  0
 53 61  1  0  0  0  0
 54 61  1  0  0  0  0
 55 62  1  0  0  0  0
 56 62  1  0  0  0  0
 57 62  1  0  0  0  0
 58 73  1  0  0  0  0
 59 62  1  0  0  0  0
 59 71  1  0  0  0  0
 60 73  1  0  0  0  0
 61 72  1  0  0  0  0
 63 64  1  0  0  0  0
M  CHG  1  73   1
M  ISO  4  38 100  39 101  69 100  81 101
M  END
> <Batch ID>
0026

> <Smiles>
CNC(C)C(=O)NC(C(=O)N1Cc2cc([101O:1][101C:1](=O)NC(C)(C)c3cc([100NH:0][100C:0](=O)N4CCCC(n5nc(-c6ccc(Oc7ccc(F)cc7F)cc6)c(C(N)=O)c5N)C4)ccc3F)ccc2CC1C(=O)NC1CCCc2ccccc21)C(C)(C)C

> <Shape>
0.219

> <Color>
0.212

> <Negative vol penalty>
0.000

$$$$

  -OEChem-04042321253D

 86 96  0     1  0  0  0  0  0999 V2000
  -16.4758  -27.0532   25.7392 C   0  0  0  0  0  0  0  0  0  0  0  0
  -17.3968  -26.2469   25.0782 C   0  0  0  0  0  0  0  0  0  0  0  0
  -23.3386   -9.7780   19.8734 C   0  0  0  0  0  0  0  0  0  0  0  0
  -23.5519   -9.9951   22.2702 C   0  0  0  0  0  0  0  0  0  0  0  0
  -16.4052  -28.4143   25.4452 C   0  0  0  0  0  0  0  0  0  0  0  0
  -18.2470  -26.8010   24.1219 C   0  0  0  0  0  0  0  0  0  0  0  0
  -24.0324  -25.1683   22.9513 C   0  0  0  0  0  0  0  0  0  0  0  0
  -27.7637  -18.6912   16.8012 C   0  0  0  0  0  0  0  0  0  0  0  0
  -26.8743  -19.6603   17.2652 C   0  0  0  0  0  0  0  0  0  0  0  0
  -22.6112   -8.6002   20.0449 C   0  0  0  0  0  0  0  0  0  0  0  0
  -22.8245   -8.8173   22.4416 C   0  0  0  0  0  0  0  0  0  0  0  0
  -24.5963  -24.3477   21.9754 C   0  0  0  0  0  0  0  0  0  0  0  0
  -23.3883   -5.4897   22.2422 C   0  0  0  0  0  0  0  0  0  0  0  0
  -23.8696   -4.5589   23.1628 C   0  0  0  0  0  0  0  0  0  0  0  0
  -25.0617  -26.2887   20.6208 C   0  0  0  0  0  0  0  0  0  0  0  0
  -27.7457  -19.3892   19.5022 C   0  0  0  0  0  0  0  0  0  0  0  0
  -21.8165   -4.7435   24.4228 C   0  0  0  0  0  0  0  0  0  0  0  0
  -23.8090  -10.4754   20.9861 C   0  0  0  0  0  0  0  0  0  0  0  0
  -24.0524  -13.0025   20.7364 C   0  0  0  0  0  0  0  0  0  0  0  0
  -17.2616  -28.9872   24.4917 C   0  0  0  0  0  0  0  0  0  0  0  0
  -23.9690  -26.5566   22.7641 C   0  0  0  0  0  0  0  0  0  0  0  0
  -18.1869  -28.1707   23.8138 C   0  0  0  0  0  0  0  0  0  0  0  0
  -24.4988  -27.1250   21.5969 C   0  0  0  0  0  0  0  0  0  0  0  0
  -28.6441  -18.0710   17.6878 C   0  0  0  0  0  0  0  0  0  0  0  0
  -26.8653  -20.0094   18.6156 C   0  0  0  0  0  0  0  0  0  0  0  0
  -22.3542   -8.1199   21.3289 C   0  0  0  0  0  0  0  0  0  0  0  0
  -25.1084  -24.9076   20.8087 C   0  0  0  0  0  0  0  0  0  0  0  0
  -22.1210   -6.0474   22.4119 C   0  0  0  0  0  0  0  0  0  0  0  0
  -23.0837   -4.1858   24.2531 C   0  0  0  0  0  0  0  0  0  0  0  0
  -21.3351   -5.6743   23.5022 C   0  0  0  0  0  0  0  0  0  0  0  0
  -28.6351  -18.4200   19.0382 C   0  0  0  0  0  0  0  0  0  0  0  0
  -24.5609  -11.6918   20.8097 C   0  0  0  0  0  0  0  0  0  0  0  0
  -25.1629  -13.7927   20.5668 C   0  0  0  0  0  0  0  0  0  0  0  0
  -22.6973  -13.4644   20.8147 C   0  0  0  0  0  0  0  0  0  0  0  0
  -21.6187  -28.6854   22.5446 C   0  0  0  0  0  0  0  0  0  0  0  0
  -24.0698  -30.8100   22.5269 C   0  0  0  0  0  0  0  0  0  0  0  0
  -27.3682  -31.4229   21.9010 C   0  0  0  0  0  0  0  0  0  0  0  0
  -30.0523  -14.8565   18.2058 C   0  0  0  0  0  0  0  0  0  0  0  0
  -17.1158  -30.4542   24.1736 C   0  0  0  0  0  0  0  0  0  0  0  0
  -23.3817  -27.4306   23.8382 C   0  0  0  0  0  0  0  0  0  0  0  0
  -24.4734  -28.6116   21.3567 C   0  0  0  0  0  0  0  0  0  0  0  0
  -18.3079  -31.0348   23.4172 C   0  0  0  0  0  0  0  0  0  0  0  0
  -30.0764  -12.7187   20.9721 C   0  0  0  0  0  0  0  0  0  0  0  0
  -18.7101  -30.1157   22.2681 C   0  0  0  0  0  0  0  0  0  0  0  0
  -28.6078  -12.3496   21.1711 C   0  0  0  0  0  0  0  0  0  0  0  0
  -28.0286  -14.9007   15.3202 C   0  0  0  0  0  0  0  0  0  0  0  0
  -27.8991  -13.7791   16.3070 C   0  0  0  0  0  0  0  0  0  0  0  0
  -30.4259  -12.7752   19.4903 C   0  0  0  0  0  0  0  0  0  0  0  0
  -28.0991  -13.3846   18.9007 C   0  0  0  0  0  0  0  0  0  0  0  0
  -25.4665  -22.0838   18.3493 C   0  0  0  0  0  0  0  0  0  0  0  0
  -26.0233  -21.6464   20.3308 C   0  0  0  0  0  0  0  0  0  0  0  0
  -19.1431  -28.7395   22.7880 C   0  0  1  0  0  0  0  0  0  0  0  0
  -22.9052  -28.7821   23.3148 C   0  0  1  0  0  0  0  0  0  0  0  0
  -27.6923  -13.3041   20.3866 C   0  0  1  0  0  0  0  0  0  0  0  0
  -27.9883  -15.1995   16.7939 C   0  0  0  0  0  0  0  0  0  0  0  0
  -25.1711  -22.7557   19.6976 C   0  0  0  0  0  0  0  0  0  1  0  0
  -29.0725  -33.2643   21.9445 C   0  0  0  0  0  0  0  0  0  0  0  0
  -22.8899  -31.9595   19.9586 C   0  0  0  0  0  0  0  0  0  0  0  0
  -25.0771  -33.1074   19.5500 C   0  0  0  0  0  0  0  0  0  0  0  0
  -23.7344  -33.6702   21.5756 C   0  0  0  0  0  0  0  0  0  0  0  0
  -29.0264  -29.9985   23.8960 C   0  0  0  0  0  0  0  0  0  0  0  0
  -29.5803  -17.0368   17.1509 C   0  0  0  0  0  0  0  0  0  0  0  0
  -24.9272  -31.4441   21.4584 C   0  0  1  0  0  0  0  0  0  0  0  0
  -28.4362  -32.1227   22.7220 C   0  0  2  0  0  0  0  0  0  0  0  0
  -24.1560  -32.5171   20.6390 C   0  0  0  0  0  0  0  0  0  0  0  0
  -25.8909  -11.6477   20.6958 N   0  0  0  0  0  0  0  0  0  0  0  0
  -26.2276  -12.9405   20.5491 N   0  0  0  0  0  0  0  0  0  0  0  0
  -25.9790  -20.9759   19.0780 N   0  0  0  0  0  0  0  0  0  0  0  0
  -23.8831  -29.4236   22.4336 N   0  0  0  0  0  0  0  0  0  0  0  0
  -29.5331  -13.6795   18.7644 N   0  0  0  0  0  0  0  0  0  0  0  0
  -25.3228  -15.1264   20.4325 N   0  0  0  0  0  0  0  0  0  0  0  0
  -21.6781  -12.5186   20.9904 N   0  0  0  0  0  0  0  0  0  0  0  0
  -20.4850  -28.8019   23.3262 N   0  0  0  0  0  0  0  0  0  0  0  0
  -26.1160  -31.9502   22.1360 N   0  0  0  0  0  0  0  0  0  0  0  0
  -29.1633  -15.6824   17.4966 N   0  0  0  0  0  0  0  0  0  0  0  0
  -29.5078  -31.1607   23.1057 N   0  3  0  0  0  0  0  0  0  0  0  0
  -22.3977  -14.6784   20.7149 O   0  0  0  0  0  0  0  0  0  0  0  0
  -21.6520  -28.5190   21.3310 O   0  0  0  0  0  0  0  0  0  0  0  0
  -23.5894  -31.5177   23.4158 O   0  0  0  0  0  0  0  0  0  0  0  0
  -27.6201  -30.5032   21.1256 O   0  0  0  0  0  0  0  0  0  0  0  0
  -31.2507  -15.1475   18.3135 O   0  0  0  0  0  0  0  0  0  0  0  0
  -21.6443   -6.9708   21.4966 O   0  0  0  0  0  0  0  0  0  0  0  0
  -25.6588  -24.1088   19.8542 O   0  0  0  0  0  0  0  0  0  1  0  0
  -23.5455   -3.2908   25.1363 F   0  0  0  0  0  0  0  0  0  0  0  0
  -20.1164   -6.2058   23.6699 F   0  0  0  0  0  0  0  0  0  0  0  0
  -29.7090  -17.6725   20.1639 Cl  0  0  0  0  0  0  0  0  0  0  0  0
  1  2  1  0  0  0  0
  1  5  2  0  0  0  0
  2  6  2  0  0  0  0
  3 10  2  0  0  0  0
  3 18  1  0  0  0  0
  4 11  1  0  0  0  0
  4 18  2  0  0  0  0
  5 20  1  0  0  0  0
  6 22  1  0  0  0  0
  7 12  2  0  0  0  0
  7 21  1  0  0  0  0
  8  9  2  0  0  0  0
  8 24  1  0  0  0  0
  9 25  1  0  0  0  0
 10 26  1  0  0  0  0
 11 26  2  0  0  0  0
 12 27  1  0  0  0  0
 13 14  2  0  0  0  0
 13 28  1  0  0  0  0
 14 29  1  0  0  0  0
 15 23  1  0  0  0  0
 15 27  2  0  0  0  0
 16 25  2  0  0  0  0
 16 31  1  0  0  0  0
 17 29  2  0  0  0  0
 17 30  1  0  0  0  0
 18 32  1  0  0  0  0
 19 32  1  0  0  0  0
 19 33  2  0  0  0  0
 19 34  1  0  0  0  0
 20 22  2  0  0  0  0
 20 39  1  0  0  0  0
 21 23  2  0  0  0  0
 21 40  1  0  0  0  0
 22 52  1  0  0  0  0
 23 41  1  0  0  0  0
 24 31  2  0  0  0  0
 24 62  1  0  0  0  0
 25 68  1  0  0  0  0
 26 82  1  0  0  0  0
 27 83  1  0  0  0  0
 28 30  2  0  0  0  0
 28 82  1  0  0  0  0
 29 84  1  0  0  0  0
 30 85  1  0  0  0  0
 31 86  1  0  0  0  0
 32 66  2  0  0  0  0
 33 67  1  0  0  0  0
 33 71  1  0  0  0  0
 34 72  1  0  0  0  0
 34 77  2  0  0  0  0
 35 53  1  0  0  0  0
 35 73  1  0  0  0  0
 35 78  2  0  0  0  0
 36 63  1  0  0  0  0
 36 69  1  0  0  0  0
 36 79  2  0  0  0  0
 37 64  1  0  0  0  0
 37 74  1  0  0  0  0
 37 80  2  0  0  0  0
 38 70  1  0  0  0  0
 38 75  1  0  0  0  0
 38 81  2  0  0  0  0
 39 42  1  0  0  0  0
 40 53  1  0  0  0  0
 41 69  1  0  0  0  0
 42 44  1  0  0  0  0
 43 45  1  0  0  0  0
 43 48  1  0  0  0  0
 44 52  1  0  0  0  0
 45 54  1  0  0  0  0
 46 47  1  0  0  0  0
 46 55  1  0  0  0  0
 47 55  1  0  0  0  0
 48 70  1  0  0  0  0
 49 54  1  0  0  0  0
 49 70  1  0  0  0  0
 50 56  1  0  0  0  0
 50 68  1  0  0  0  0
 51 56  1  0  0  0  0
 51 68  1  0  0  0  0
 52 73  1  0  0  0  0
 53 69  1  0  0  0  0
 54 67  1  0  0  0  0
 55 75  1  0  0  0  0
 56 83  1  0  0  0  0
 57 64  1  0  0  0  0
 58 65  1  0  0  0  0
 59 65  1  0  0  0  0
 60 65  1  0  0  0  0
 61 76  1  0  0  0  0
 62 75  1  0  0  0  0
 63 65  1  0  0  0  0
 63 74  1  0  0  0  0
 64 76  1  0  0  0  0
 66 67  1  0  0  0  0
M  CHG  1  76   1
M  ISO  4  38 100  56 101  75 100  83 101
M  END
> <Batch ID>
0026

> <Smiles>
CNC(C)C(=O)NC(C(=O)N1Cc2cc([101O:1][101CH:1]3CN(c4ccc(C[100N:0](C5CC5)[100C:0](=O)N5CCCC(n6nc(-c7ccc(Oc8ccc(F)cc8F)cc7)c(C(N)=O)c6N)C5)c(Cl)c4)C3)ccc2CC1C(=O)NC1CCCc2ccccc21)C(C)(C)C

> <Shape>
0.292

> <Color>
0.228

> <Negative vol penalty>
0.000

$$$$

  -OEChem-04042321253D

 86 95  0     1  0  0  0  0  0999 V2000
  -25.9104   -9.3105   24.6101 C   0  0  0  0  0  0  0  0  0  0  0  0
  -26.6698  -10.4622   24.7901 C   0  0  0  0  0  0  0  0  0  0  0  0
  -26.5916  -31.4024   20.2793 C   0  0  0  0  0  0  0  0  0  0  0  0
  -26.2273  -30.9972   22.6331 C   0  0  0  0  0  0  0  0  0  0  0  0
  -25.3100   -9.0585   23.3772 C   0  0  0  0  0  0  0  0  0  0  0  0
  -26.8301  -11.3620   23.7370 C   0  0  0  0  0  0  0  0  0  0  0  0
  -27.5963  -18.3666   22.4466 C   0  0  0  0  0  0  0  0  0  0  0  0
  -32.5071  -23.0157   17.2195 C   0  0  0  0  0  0  0  0  0  0  0  0
  -26.6480  -32.7744   20.5242 C   0  0  0  0  0  0  0  0  0  0  0  0
  -26.2837  -32.3693   22.8780 C   0  0  0  0  0  0  0  0  0  0  0  0
  -28.4338  -19.2517   21.7691 C   0  0  0  0  0  0  0  0  0  0  0  0
  -24.2379  -35.0425   22.5625 C   0  0  0  0  0  0  0  0  0  0  0  0
  -23.2687  -35.5913   23.4022 C   0  0  0  0  0  0  0  0  0  0  0  0
  -33.1266  -23.8768   16.3138 C   0  0  0  0  0  0  0  0  0  0  0  0
  -27.2847  -18.7519   19.7078 C   0  0  0  0  0  0  0  0  0  0  0  0
  -32.3194  -25.7771   17.5684 C   0  0  0  0  0  0  0  0  0  0  0  0
  -25.0002  -36.3380   24.9127 C   0  0  0  0  0  0  0  0  0  0  0  0
  -26.3812  -30.5138   21.3338 C   0  0  0  0  0  0  0  0  0  0  0  0
  -25.4121  -28.4184   20.2485 C   0  0  0  0  0  0  0  0  0  0  0  0
  -25.4550   -9.9605   22.3114 C   0  0  0  0  0  0  0  0  0  0  0  0
  -26.6021  -17.6581   21.7566 C   0  0  0  0  0  0  0  0  0  0  0  0
  -26.2321  -11.1212   22.4884 C   0  0  0  0  0  0  0  0  0  0  0  0
  -26.4342  -17.8604   20.3793 C   0  0  0  0  0  0  0  0  0  0  0  0
  -31.6999  -24.9160   18.4741 C   0  0  0  0  0  0  0  0  0  0  0  0
  -31.7937  -23.5353   18.2997 C   0  0  0  0  0  0  0  0  0  0  0  0
  -26.4941  -33.2579   21.8235 C   0  0  0  0  0  0  0  0  0  0  0  0
  -28.2800  -19.4423   20.3991 C   0  0  0  0  0  0  0  0  0  0  0  0
  -25.5882  -35.1413   22.8979 C   0  0  0  0  0  0  0  0  0  0  0  0
  -23.6499  -36.2391   24.5773 C   0  0  0  0  0  0  0  0  0  0  0  0
  -25.9694  -35.7891   24.0730 C   0  0  0  0  0  0  0  0  0  0  0  0
  -33.0328  -25.2575   16.4882 C   0  0  0  0  0  0  0  0  0  0  0  0
  -26.3222  -29.0964   21.0814 C   0  0  0  0  0  0  0  0  0  0  0  0
  -25.7733  -27.0971   20.3490 C   0  0  0  0  0  0  0  0  0  0  0  0
  -29.7913  -22.5647   19.5068 C   0  0  0  0  0  0  0  0  0  0  0  0
  -24.3363  -28.9366   19.4548 C   0  0  0  0  0  0  0  0  0  0  0  0
  -26.0033  -14.5833   21.2178 C   0  0  0  0  0  0  0  0  0  0  0  0
  -23.2845  -15.7476   19.8855 C   0  0  0  0  0  0  0  0  0  0  0  0
  -21.6720  -18.3714   18.4151 C   0  0  0  0  0  0  0  0  0  0  0  0
  -31.1761  -24.7440   22.0258 C   0  0  0  0  0  0  0  0  0  0  0  0
  -24.8262   -9.6217   20.9830 C   0  0  0  0  0  0  0  0  0  0  0  0
  -25.6893  -16.7272   22.5067 C   0  0  0  0  0  0  0  0  0  0  0  0
  -25.3688  -17.1393   19.5960 C   0  0  0  0  0  0  0  0  0  0  0  0
  -24.7352  -10.8116   20.0311 C   0  0  0  0  0  0  0  0  0  0  0  0
  -27.8035  -23.9754   23.3437 C   0  0  0  0  0  0  0  0  0  0  0  0
  -26.0586  -11.5692   19.9954 C   0  0  0  0  0  0  0  0  0  0  0  0
  -26.9872  -25.1871   22.8970 C   0  0  0  0  0  0  0  0  0  0  0  0
  -30.9828  -21.1422   21.0189 C   0  0  0  0  0  0  0  0  0  0  0  0
  -29.2751  -24.3252   23.5432 C   0  0  0  0  0  0  0  0  0  0  0  0
  -31.9101  -21.6039   19.9100 C   0  0  0  0  0  0  0  0  0  0  0  0
  -29.0931  -26.1726   21.9097 C   0  0  0  0  0  0  0  0  0  0  0  0
  -26.4087  -12.1336   21.3775 C   0  0  1  0  0  0  0  0  0  0  0  0
  -29.5949  -21.4088   20.4641 C   0  0  2  0  0  0  0  0  0  1  0  0
  -25.0458  -15.6721   21.6122 C   0  0  1  0  0  0  0  0  0  0  0  0
  -27.6145  -25.8434   21.6548 C   0  0  2  0  0  0  0  0  0  0  0  0
  -19.4680  -19.0096   17.3989 C   0  0  0  0  0  0  0  0  0  0  0  0
  -23.9898  -14.1698   17.3709 C   0  0  0  0  0  0  0  0  0  0  0  0
  -22.3289  -15.5611   16.1163 C   0  0  0  0  0  0  0  0  0  0  0  0
  -21.5692  -14.1082   17.9964 C   0  0  0  0  0  0  0  0  0  0  0  0
  -33.0885  -25.7247   20.8173 C   0  0  0  0  0  0  0  0  0  0  0  0
  -21.2318  -20.5014   20.4221 C   0  0  0  0  0  0  0  0  0  0  0  0
  -30.9421  -25.4998   19.6223 C   0  0  0  0  0  0  0  0  0  0  0  0
  -22.8825  -16.2078   18.5051 C   0  0  1  0  0  0  0  0  0  0  0  0
  -20.3060  -18.9836   18.6677 C   0  0  2  0  0  0  0  0  0  0  0  0
  -22.7140  -15.0240   17.5113 C   0  0  0  0  0  0  0  0  0  0  0  0
  -27.1958  -28.2738   21.6679 N   0  0  0  0  0  0  0  0  0  0  0  0
  -26.8362  -27.0652   21.2030 N   0  0  0  0  0  0  0  0  0  0  0  0
  -31.1666  -22.6377   19.2151 N   0  0  0  0  0  0  0  0  0  0  0  0
  -24.5054  -16.2349   20.3731 N   0  0  0  0  0  0  0  0  0  0  0  0
  -29.8345  -24.9865   22.3638 N   0  0  0  0  0  0  0  0  0  0  0  0
  -25.2822  -25.9710   19.7894 N   0  0  0  0  0  0  0  0  0  0  0  0
  -23.0659  -29.0404   20.0376 N   0  0  0  0  0  0  0  0  0  0  0  0
  -25.6318  -13.3241   21.6489 N   0  0  0  0  0  0  0  0  0  0  0  0
  -21.6817  -17.0180   18.6785 N   0  0  0  0  0  0  0  0  0  0  0  0
  -31.6737  -25.3869   20.8822 N   0  0  0  0  0  0  0  0  0  0  0  0
  -20.4487  -20.3811   19.1653 N   0  3  0  0  0  0  0  0  0  0  0  0
  -28.8578  -23.2207   19.0670 O   0  0  0  0  0  0  0  0  0  0  0  0
  -24.4933  -29.2816   18.2591 O   0  0  0  0  0  0  0  0  0  0  0  0
  -27.0041  -14.8646   20.5690 O   0  0  0  0  0  0  0  0  0  0  0  0
  -22.5392  -14.9894   20.5111 O   0  0  0  0  0  0  0  0  0  0  0  0
  -22.6332  -19.0274   18.0198 O   0  0  0  0  0  0  0  0  0  0  0  0
  -31.8856  -23.9881   22.7019 O   0  0  0  0  0  0  0  0  0  0  0  0
  -26.5493  -34.5966   22.0629 O   0  0  0  0  0  0  0  0  0  0  0  0
  -29.0966  -20.3051   19.7353 O   0  0  0  0  0  0  0  0  0  1  0  0
  -22.7192  -36.7674   25.3828 F   0  0  0  0  0  0  0  0  0  0  0  0
  -27.2652  -35.8882   24.3999 F   0  0  0  0  0  0  0  0  0  0  0  0
  -33.7982  -26.3194   15.3708 Cl  0  0  0  0  0  0  0  0  0  0  0  0
  1  2  1  0  0  0  0
  1  5  2  0  0  0  0
  2  6  2  0  0  0  0
  3  9  2  0  0  0  0
  3 18  1  0  0  0  0
  4 10  1  0  0  0  0
  4 18  2  0  0  0  0
  5 20  1  0  0  0  0
  6 22  1  0  0  0  0
  7 11  2  0  0  0  0
  7 21  1  0  0  0  0
  8 14  2  0  0  0  0
  8 25  1  0  0  0  0
  9 26  1  0  0  0  0
 10 26  2  0  0  0  0
 11 27  1  0  0  0  0
 12 13  2  0  0  0  0
 12 28  1  0  0  0  0
 13 29  1  0  0  0  0
 14 31  1  0  0  0  0
 15 23  1  0  0  0  0
 15 27  2  0  0  0  0
 16 24  1  0  0  0  0
 16 31  2  0  0  0  0
 17 29  2  0  0  0  0
 17 30  1  0  0  0  0
 18 32  1  0  0  0  0
 19 32  1  0  0  0  0
 19 33  2  0  0  0  0
 19 35  1  0  0  0  0
 20 22  2  0  0  0  0
 20 40  1  0  0  0  0
 21 23  2  0  0  0  0
 21 41  1  0  0  0  0
 22 51  1  0  0  0  0
 23 42  1  0  0  0  0
 24 25  2  0  0  0  0
 24 61  1  0  0  0  0
 25 67  1  0  0  0  0
 26 82  1  0  0  0  0
 27 83  1  0  0  0  0
 28 30  2  0  0  0  0
 28 82  1  0  0  0  0
 29 84  1  0  0  0  0
 30 85  1  0  0  0  0
 31 86  1  0  0  0  0
 32 65  2  0  0  0  0
 33 66  1  0  0  0  0
 33 70  1  0  0  0  0
 34 52  1  0  0  0  0
 34 67  1  0  0  0  0
 34 76  2  0  0  0  0
 35 71  1  0  0  0  0
 35 77  2  0  0  0  0
 36 53  1  0  0  0  0
 36 72  1  0  0  0  0
 36 78  2  0  0  0  0
 37 62  1  0  0  0  0
 37 68  1  0  0  0  0
 37 79  2  0  0  0  0
 38 63  1  0  0  0  0
 38 73  1  0  0  0  0
 38 80  2  0  0  0  0
 39 69  1  0  0  0  0
 39 74  1  0  0  0  0
 39 81  2  0  0  0  0
 40 43  1  0  0  0  0
 41 53  1  0  0  0  0
 42 68  1  0  0  0  0
 43 45  1  0  0  0  0
 44 46  1  0  0  0  0
 44 48  1  0  0  0  0
 45 51  1  0  0  0  0
 46 54  1  0  0  0  0
 47 49  1  0  0  0  0
 47 52  1  0  0  0  0
 48 69  1  0  0  0  0
 49 67  1  0  0  0  0
 50 54  1  0  0  0  0
 50 69  1  0  0  0  0
 51 72  1  0  0  0  0
 52 83  1  0  0  0  0
 53 68  1  0  0  0  0
 54 66  1  0  0  0  0
 55 63  1  0  0  0  0
 56 64  1  0  0  0  0
 57 64  1  0  0  0  0
 58 64  1  0  0  0  0
 59 74  1  0  0  0  0
 60 75  1  0  0  0  0
 61 74  1  0  0  0  0
 62 64  1  0  0  0  0
 62 73  1  0  0  0  0
 63 75  1  0  0  0  0
 65 66  1  0  0  0  0
M  CHG  1  75   1
M  ISO  4  39 100  52 101  74 100  83 101
M  END
> <Batch ID>
0026

> <Smiles>
CNC(C)C(=O)NC(C(=O)N1Cc2cc([101O:1][101CH:1]3CCN(c4ccc(Cl)cc4C[100N:0](C)[100C:0](=O)N4CCCC(n5nc(-c6ccc(Oc7ccc(F)cc7F)cc6)c(C(N)=O)c5N)C4)C3=O)ccc2CC1C(=O)NC1CCCc2ccccc21)C(C)(C)C

> <Shape>
0.215

> <Color>
0.077

> <Negative vol penalty>
0.000

$$$$

  -OEChem-04042321253D

 85 94  0     1  0  0  0  0  0999 V2000
  -26.8057  -34.9638   24.2957 C   0  0  0  0  0  0  0  0  0  0  0  0
  -27.2098  -33.6890   23.9120 C   0  0  0  0  0  0  0  0  0  0  0  0
  -24.9871  -18.9934   17.7263 C   0  0  0  0  0  0  0  0  0  0  0  0
  -24.9725  -21.3941   17.9976 C   0  0  0  0  0  0  0  0  0  0  0  0
  -25.4997  -35.1772   24.7347 C   0  0  0  0  0  0  0  0  0  0  0  0
  -26.3082  -32.6267   23.9681 C   0  0  0  0  0  0  0  0  0  0  0  0
  -26.4662  -29.7236   19.8217 C   0  0  0  0  0  0  0  0  0  0  0  0
  -33.4792  -25.8403   20.9659 C   0  0  0  0  0  0  0  0  0  0  0  0
  -23.7092  -19.0485   17.1700 C   0  0  0  0  0  0  0  0  0  0  0  0
  -23.6946  -21.4492   17.4412 C   0  0  0  0  0  0  0  0  0  0  0  0
  -27.5191  -28.8153   19.7201 C   0  0  0  0  0  0  0  0  0  0  0  0
  -20.5970  -18.5953   15.3468 C   0  0  0  0  0  0  0  0  0  0  0  0
  -20.3577  -17.8439   14.1963 C   0  0  0  0  0  0  0  0  0  0  0  0
  -34.4091  -25.8650   22.0052 C   0  0  0  0  0  0  0  0  0  0  0  0
  -26.0544  -27.0447   20.4541 C   0  0  0  0  0  0  0  0  0  0  0  0
  -32.6089  -25.8423   23.6164 C   0  0  0  0  0  0  0  0  0  0  0  0
  -22.0824  -19.0737   13.0343 C   0  0  0  0  0  0  0  0  0  0  0  0
  -25.6188  -20.1663   18.1401 C   0  0  0  0  0  0  0  0  0  0  0  0
  -28.1107  -19.6214   18.1076 C   0  0  0  0  0  0  0  0  0  0  0  0
  -24.5790  -34.1188   24.7871 C   0  0  0  0  0  0  0  0  0  0  0  0
  -25.2002  -29.3006   20.2514 C   0  0  0  0  0  0  0  0  0  0  0  0
  -24.9891  -32.8259   24.4095 C   0  0  0  0  0  0  0  0  0  0  0  0
  -24.9865  -27.9491   20.5578 C   0  0  0  0  0  0  0  0  0  0  0  0
  -31.6790  -25.8177   22.5770 C   0  0  0  0  0  0  0  0  0  0  0  0
  -32.1141  -25.8167   21.2518 C   0  0  0  0  0  0  0  0  0  0  0  0
  -23.0629  -20.2763   17.0274 C   0  0  0  0  0  0  0  0  0  0  0  0
  -27.3140  -27.4762   20.0391 C   0  0  0  0  0  0  0  0  0  0  0  0
  -21.5790  -19.5859   15.3411 C   0  0  0  0  0  0  0  0  0  0  0  0
  -21.1004  -18.0831   13.0400 C   0  0  0  0  0  0  0  0  0  0  0  0
  -22.3217  -19.8251   14.1849 C   0  0  0  0  0  0  0  0  0  0  0  0
  -33.9740  -25.8660   23.3305 C   0  0  0  0  0  0  0  0  0  0  0  0
  -26.9386  -20.1100   18.7154 C   0  0  0  0  0  0  0  0  0  0  0  0
  -29.0861  -19.7869   19.0604 C   0  0  0  0  0  0  0  0  0  0  0  0
  -28.3008  -19.0676   16.7989 C   0  0  0  0  0  0  0  0  0  0  0  0
  -23.3219  -29.9939   22.7203 C   0  0  0  0  0  0  0  0  0  0  0  0
  -21.2102  -28.1011   21.1454 C   0  0  0  0  0  0  0  0  0  0  0  0
  -20.6905  -25.5831   18.9012 C   0  0  0  0  0  0  0  0  0  0  0  0
  -29.6516  -23.5141   23.7121 C   0  0  0  0  0  0  0  0  0  0  0  0
  -23.1916  -34.3890   25.3134 C   0  0  0  0  0  0  0  0  0  0  0  0
  -24.0681  -30.2878   20.3301 C   0  0  0  0  0  0  0  0  0  0  0  0
  -23.6411  -27.4404   21.0045 C   0  0  0  0  0  0  0  0  0  0  0  0
  -22.1907  -33.2834   24.9877 C   0  0  0  0  0  0  0  0  0  0  0  0
  -29.6982  -19.9551   23.8025 C   0  0  0  0  0  0  0  0  0  0  0  0
  -29.9134  -24.4317   18.5909 C   0  0  0  0  0  0  0  0  0  0  0  0
  -22.7900  -31.9141   25.2917 C   0  0  0  0  0  0  0  0  0  0  0  0
  -29.1020  -19.5472   22.4542 C   0  0  0  0  0  0  0  0  0  0  0  0
  -29.3892  -25.7097   17.9451 C   0  0  0  0  0  0  0  0  0  0  0  0
  -31.2633  -24.6579   19.2652 C   0  0  0  0  0  0  0  0  0  0  0  0
  -29.0255  -21.2070   24.3615 C   0  0  0  0  0  0  0  0  0  0  0  0
  -28.4086  -21.9532   22.0951 C   0  0  0  0  0  0  0  0  0  0  0  0
  -30.6777  -27.0597   19.6610 C   0  0  0  0  0  0  0  0  0  0  0  0
  -24.0332  -31.6530   24.4328 C   0  0  1  0  0  0  0  0  0  0  0  0
  -22.9527  -29.8440   21.2715 C   0  0  1  0  0  0  0  0  0  0  0  0
  -29.0927  -20.7280   21.4649 C   0  0  2  0  0  0  0  0  0  0  0  0
  -29.3365  -26.8521   18.9548 C   0  0  2  0  0  0  0  0  0  1  0  0
  -18.8582  -24.2294   17.8489 C   0  0  0  0  0  0  0  0  0  0  0  0
  -20.9231  -26.4916   23.7216 C   0  0  0  0  0  0  0  0  0  0  0  0
  -19.8693  -24.6606   22.3780 C   0  0  0  0  0  0  0  0  0  0  0  0
  -18.7781  -26.9004   22.5024 C   0  0  0  0  0  0  0  0  0  0  0  0
  -21.3931  -26.5284   16.1861 C   0  0  0  0  0  0  0  0  0  0  0  0
  -30.2230  -25.7927   22.9116 C   0  0  0  0  0  0  0  0  0  0  0  0
  -20.8923  -26.6253   21.1434 C   0  0  1  0  0  0  0  0  0  0  0  0
  -19.7388  -25.4630   17.7246 C   0  0  2  0  0  0  0  0  0  0  0  0
  -20.1416  -26.1791   22.4298 C   0  0  0  0  0  0  0  0  0  0  0  0
  -27.1481  -20.5525   19.9581 N   0  0  0  0  0  0  0  0  0  0  0  0
  -28.4632  -20.3425   20.1390 N   0  0  0  0  0  0  0  0  0  0  0  0
  -31.1948  -25.7922   20.1955 N   0  0  2  0  0  0  0  0  0  0  0  0
  -22.5674  -28.4454   21.0717 N   0  0  0  0  0  0  0  0  0  0  0  0
  -29.0518  -22.2896   23.3749 N   0  0  0  0  0  0  0  0  0  0  0  0
  -30.4072  -19.5097   19.0724 N   0  0  0  0  0  0  0  0  0  0  0  0
  -28.6296  -19.9345   15.7478 N   0  0  0  0  0  0  0  0  0  0  0  0
  -23.6494  -31.2855   23.0866 N   0  0  0  0  0  0  0  0  0  0  0  0
  -20.1637  -26.3664   19.9063 N   0  0  0  0  0  0  0  0  0  0  0  0
  -29.6391  -24.4842   22.7174 N   0  0  0  0  0  0  0  0  0  0  0  0
  -20.5025  -25.3687   16.4483 N   0  3  0  0  0  0  0  0  0  0  0  0
  -28.1665  -17.8425   16.5651 O   0  0  0  0  0  0  0  0  0  0  0  0
  -23.3092  -29.0110   23.4519 O   0  0  0  0  0  0  0  0  0  0  0  0
  -20.2880  -28.9183   21.2028 O   0  0  0  0  0  0  0  0  0  0  0  0
  -21.7896  -25.0337   18.9277 O   0  0  0  0  0  0  0  0  0  0  0  0
  -30.1653  -23.7253   24.8160 O   0  0  0  0  0  0  0  0  0  0  0  0
  -21.8160  -20.3305   16.4844 O   0  0  0  0  0  0  0  0  0  0  0  0
  -28.3401  -26.5877   19.9415 O   0  0  0  0  0  0  0  0  0  1  0  0
  -20.8714  -17.3605   11.9357 F   0  0  0  0  0  0  0  0  0  0  0  0
  -23.2673  -20.7746   14.1737 F   0  0  0  0  0  0  0  0  0  0  0  0
  -35.1219  -25.8964   24.6124 Cl  0  0  0  0  0  0  0  0  0  0  0  0
  1  2  1  0  0  0  0
  1  5  2  0  0  0  0
  2  6  2  0  0  0  0
  3  9  2  0  0  0  0
  3 18  1  0  0  0  0
  4 10  1  0  0  0  0
  4 18  2  0  0  0  0
  5 20  1  0  0  0  0
  6 22  1  0  0  0  0
  7 11  2  0  0  0  0
  7 21  1  0  0  0  0
  8 14  2  0  0  0  0
  8 25  1  0  0  0  0
  9 26  1  0  0  0  0
 10 26  2  0  0  0  0
 11 27  1  0  0  0  0
 12 13  2  0  0  0  0
 12 28  1  0  0  0  0
 13 29  1  0  0  0  0
 14 31  1  0  0  0  0
 15 23  1  0  0  0  0
 15 27  2  0  0  0  0
 16 24  1  0  0  0  0
 16 31  2  0  0  0  0
 17 29  2  0  0  0  0
 17 30  1  0  0  0  0
 18 32  1  0  0  0  0
 19 32  1  0  0  0  0
 19 33  2  0  0  0  0
 19 34  1  0  0  0  0
 20 22  2  0  0  0  0
 20 39  1  0  0  0  0
 21 23  2  0  0  0  0
 21 40  1  0  0  0  0
 22 52  1  0  0  0  0
 23 41  1  0  0  0  0
 24 25  2  0  0  0  0
 24 61  1  0  0  0  0
 25 67  1  0  0  0  0
 26 81  1  0  0  0  0
 27 82  1  0  0  0  0
 28 30  2  0  0  0  0
 28 81  1  0  0  0  0
 29 83  1  0  0  0  0
 30 84  1  0  0  0  0
 31 85  1  0  0  0  0
 32 65  2  0  0  0  0
 33 66  1  0  0  0  0
 33 70  1  0  0  0  0
 34 71  1  0  0  0  0
 34 76  2  0  0  0  0
 35 53  1  0  0  0  0
 35 72  1  0  0  0  0
 35 77  2  0  0  0  0
 36 62  1  0  0  0  0
 36 68  1  0  0  0  0
 36 78  2  0  0  0  0
 37 63  1  0  0  0  0
 37 73  1  0  0  0  0
 37 79  2  0  0  0  0
 38 69  1  0  0  0  0
 38 74  1  0  0  0  0
 38 80  2  0  0  0  0
 39 42  1  0  0  0  0
 40 53  1  0  0  0  0
 41 68  1  0  0  0  0
 42 45  1  0  0  0  0
 43 46  1  0  0  0  0
 43 49  1  0  0  0  0
 44 47  1  0  0  0  0
 44 48  1  0  0  0  0
 45 52  1  0  0  0  0
 46 54  1  0  0  0  0
 47 55  1  0  0  0  0
 48 67  1  0  0  0  0
 49 69  1  0  0  0  0
 50 54  1  0  0  0  0
 50 69  1  0  0  0  0
 51 55  1  0  0  0  0
 51 67  1  0  0  0  0
 52 72  1  0  0  0  0
 53 68  1  0  0  0  0
 54 66  1  0  0  0  0
 55 82  1  0  0  0  0
 56 63  1  0  0  0  0
 57 64  1  0  0  0  0
 58 64  1  0  0  0  0
 59 64  1  0  0  0  0
 60 75  1  0  0  0  0
 61 74  1  0  0  0  0
 62 64  1  0  0  0  0
 62 73  1  0  0  0  0
 63 75  1  0  0  0  0
 65 66  1  0  0  0  0
M  CHG  1  75   1
M  ISO  4  38 100  55 101  74 100  82 101
M  END
> <Batch ID>
0026

> <Smiles>
CNC(C)C(=O)NC(C(=O)N1Cc2cc([101O:1][101CH:1]3CCCN(c4ccc(Cl)cc4C[100NH:0][100C:0](=O)N4CCCC(n5nc(-c6ccc(Oc7ccc(F)cc7F)cc6)c(C(N)=O)c5N)C4)C3)ccc2CC1C(=O)NC1CCCc2ccccc21)C(C)(C)C

> <Shape>
0.206

> <Color>
0.058

> <Negative vol penalty>
0.000

$$$$

  -OEChem-04042321253D

 85 94  0     1  0  0  0  0  0999 V2000
  -19.1522  -12.9568   17.5062 C   0  0  0  0  0  0  0  0  0  0  0  0
  -19.4966  -14.2894   17.7083 C   0  0  0  0  0  0  0  0  0  0  0  0
  -22.4244  -28.7076   20.6811 C   0  0  0  0  0  0  0  0  0  0  0  0
  -23.3434  -26.8711   21.9538 C   0  0  0  0  0  0  0  0  0  0  0  0
  -19.8860  -11.9466   18.1268 C   0  0  0  0  0  0  0  0  0  0  0  0
  -20.5743  -14.6127   18.5320 C   0  0  0  0  0  0  0  0  0  0  0  0
  -24.4785  -19.2778   17.8251 C   0  0  0  0  0  0  0  0  0  0  0  0
  -31.3363  -22.3181   19.8721 C   0  0  0  0  0  0  0  0  0  0  0  0
  -21.1473  -28.3880   21.1420 C   0  0  0  0  0  0  0  0  0  0  0  0
  -22.0663  -26.5515   22.4147 C   0  0  0  0  0  0  0  0  0  0  0  0
  -24.5432  -20.5432   18.4068 C   0  0  0  0  0  0  0  0  0  0  0  0
  -19.3296  -28.8398   23.9571 C   0  0  0  0  0  0  0  0  0  0  0  0
  -18.5186  -29.8858   24.3972 C   0  0  0  0  0  0  0  0  0  0  0  0
  -32.5157  -22.3816   19.1302 C   0  0  0  0  0  0  0  0  0  0  0  0
  -26.1186  -19.7088   20.0321 C   0  0  0  0  0  0  0  0  0  0  0  0
  -31.3942  -23.7217   17.4619 C   0  0  0  0  0  0  0  0  0  0  0  0
  -16.8810  -29.3253   22.7117 C   0  0  0  0  0  0  0  0  0  0  0  0
  -23.5225  -27.9491   21.0870 C   0  0  0  0  0  0  0  0  0  0  0  0
  -25.7671  -29.1553   21.2084 C   0  0  0  0  0  0  0  0  0  0  0  0
  -20.9792  -12.2573   18.9508 C   0  0  0  0  0  0  0  0  0  0  0  0
  -25.2263  -18.2140   18.3501 C   0  0  0  0  0  0  0  0  0  0  0  0
  -21.3225  -13.6058   19.1652 C   0  0  0  0  0  0  0  0  0  0  0  0
  -26.0636  -18.4316   19.4536 C   0  0  0  0  0  0  0  0  0  0  0  0
  -30.1857  -22.9563   19.4089 C   0  0  0  0  0  0  0  0  0  0  0  0
  -30.2147  -23.6581   18.2038 C   0  0  0  0  0  0  0  0  0  0  0  0
  -20.9683  -27.3099   22.0088 C   0  0  0  0  0  0  0  0  0  0  0  0
  -25.3611  -20.7582   19.5123 C   0  0  0  0  0  0  0  0  0  0  0  0
  -18.9163  -28.0365   22.8942 C   0  0  0  0  0  0  0  0  0  0  0  0
  -17.2943  -30.1286   23.7745 C   0  0  0  0  0  0  0  0  0  0  0  0
  -17.6920  -28.2793   22.2715 C   0  0  0  0  0  0  0  0  0  0  0  0
  -32.5447  -23.0835   17.9252 C   0  0  0  0  0  0  0  0  0  0  0  0
  -24.8419  -28.2785   20.6108 C   0  0  0  0  0  0  0  0  0  0  0  0
  -26.8585  -29.1229   20.3751 C   0  0  0  0  0  0  0  0  0  0  0  0
  -27.7891  -22.3055   19.6947 C   0  0  0  0  0  0  0  0  0  0  0  0
  -25.6504  -29.9297   22.4093 C   0  0  0  0  0  0  0  0  0  0  0  0
  -24.5186  -15.3974   19.6423 C   0  0  0  0  0  0  0  0  0  0  0  0
  -27.7365  -14.9941   19.5703 C   0  0  0  0  0  0  0  0  0  0  0  0
  -30.8347  -16.4235   19.4994 C   0  0  0  0  0  0  0  0  0  0  0  0
  -28.9412  -25.0482   16.5327 C   0  0  0  0  0  0  0  0  0  0  0  0
  -21.7130  -11.1329   19.6378 C   0  0  0  0  0  0  0  0  0  0  0  0
  -25.1659  -16.8615   17.6947 C   0  0  0  0  0  0  0  0  0  0  0  0
  -26.9019  -17.3277   20.0428 C   0  0  0  0  0  0  0  0  0  0  0  0
  -23.0727  -11.5447   20.1965 C   0  0  0  0  0  0  0  0  0  0  0  0
  -27.8148  -24.2825   21.8617 C   0  0  0  0  0  0  0  0  0  0  0  0
  -28.0504  -28.4147   15.7912 C   0  0  0  0  0  0  0  0  0  0  0  0
  -22.9606  -12.8623   20.9568 C   0  0  0  0  0  0  0  0  0  0  0  0
  -26.5096  -23.7657   21.2589 C   0  0  0  0  0  0  0  0  0  0  0  0
  -27.2158  -28.8436   17.0002 C   0  0  0  0  0  0  0  0  0  0  0  0
  -28.9882  -23.3501   21.5815 C   0  0  0  0  0  0  0  0  0  0  0  0
  -27.8006  -26.9543   15.4189 C   0  0  0  0  0  0  0  0  0  0  0  0
  -27.1281  -26.4253   17.7291 C   0  0  0  0  0  0  0  0  0  0  0  0
  -22.5003  -13.9955   20.0319 C   0  0  1  0  0  0  0  0  0  0  0  0
  -26.6453  -22.3507   20.7072 C   0  0  1  0  0  0  0  0  0  1  0  0
  -25.5768  -15.7266   18.6276 C   0  0  1  0  0  0  0  0  0  0  0  0
  -27.3941  -27.8703   18.1819 C   0  0  2  0  0  0  0  0  0  0  0  0
  -33.2747  -15.8373   19.4843 C   0  0  0  0  0  0  0  0  0  0  0  0
  -27.5957  -14.3420   22.5477 C   0  0  0  0  0  0  0  0  0  0  0  0
  -30.0700  -14.7034   22.6728 C   0  0  0  0  0  0  0  0  0  0  0  0
  -29.1478  -12.8867   21.2333 C   0  0  0  0  0  0  0  0  0  0  0  0
  -31.2516  -17.7316   16.8776 C   0  0  0  0  0  0  0  0  0  0  0  0
  -28.8732  -15.2957   20.5169 C   0  0  1  0  0  0  0  0  0  0  0  0
  -32.0518  -16.1474   18.6351 C   0  0  2  0  0  0  0  0  0  0  0  0
  -28.9045  -14.3275   21.7330 C   0  0  0  0  0  0  0  0  0  0  0  0
  -25.3051  -27.7293   19.4848 N   0  0  0  0  0  0  0  0  0  0  0  0
  -26.5332  -28.2624   19.3681 N   0  0  0  0  0  0  0  0  0  0  0  0
  -28.9824  -22.8754   20.1921 N   0  0  0  0  0  0  0  0  0  0  0  0
  -26.8037  -16.0216   19.3705 N   0  0  0  0  0  0  0  0  0  0  0  0
  -27.9922  -26.0908   16.5862 N   0  0  0  0  0  0  0  0  0  0  0  0
  -28.0550  -29.7468   20.4128 N   0  0  0  0  0  0  0  0  0  0  0  0
  -24.4608  -29.8456   23.1456 N   0  0  0  0  0  0  0  0  0  0  0  0
  -29.0589  -24.3145   17.7128 N   0  0  0  0  0  0  0  0  0  0  0  0
  -23.6004  -14.4582   19.2132 N   0  0  0  0  0  0  0  0  0  0  0  0
  -30.0895  -15.2828   19.7113 N   0  0  0  0  0  0  0  0  0  0  0  0
  -32.3598  -17.3296   17.7816 N   0  3  0  0  0  0  0  0  0  0  0  0
  -27.6067  -21.8449   18.5691 O   0  0  0  0  0  0  0  0  0  0  0  0
  -26.5674  -30.6867   22.8087 O   0  0  0  0  0  0  0  0  0  0  0  0
  -24.5350  -15.9533   20.7343 O   0  0  0  0  0  0  0  0  0  0  0  0
  -27.6822  -13.8901   19.0228 O   0  0  0  0  0  0  0  0  0  0  0  0
  -30.5733  -17.5386   19.9452 O   0  0  0  0  0  0  0  0  0  0  0  0
  -29.6204  -24.8399   15.5241 O   0  0  0  0  0  0  0  0  0  0  0  0
  -19.7222  -26.9979   22.4589 O   0  0  0  0  0  0  0  0  0  0  0  0
  -25.4256  -21.9921   20.0824 O   0  0  0  0  0  0  0  0  0  1  0  0
  -16.5149  -31.1321   24.1983 F   0  0  0  0  0  0  0  0  0  0  0  0
  -17.2890  -27.5102   21.2507 F   0  0  0  0  0  0  0  0  0  0  0  0
  -34.0001  -23.1606   17.0102 Cl  0  0  0  0  0  0  0  0  0  0  0  0
  1  2  1  0  0  0  0
  1  5  2  0  0  0  0
  2  6  2  0  0  0  0
  3  9  2  0  0  0  0
  3 18  1  0  0  0  0
  4 10  1  0  0  0  0
  4 18  2  0  0  0  0
  5 20  1  0  0  0  0
  6 22  1  0  0  0  0
  7 11  2  0  0  0  0
  7 21  1  0  0  0  0
  8 14  2  0  0  0  0
  8 24  1  0  0  0  0
  9 26  1  0  0  0  0
 10 26  2  0  0  0  0
 11 27  1  0  0  0  0
 12 13  2  0  0  0  0
 12 28  1  0  0  0  0
 13 29  1  0  0  0  0
 14 31  1  0  0  0  0
 15 23  1  0  0  0  0
 15 27  2  0  0  0  0
 16 25  1  0  0  0  0
 16 31  2  0  0  0  0
 17 29  2  0  0  0  0
 17 30  1  0  0  0  0
 18 32  1  0  0  0  0
 19 32  1  0  0  0  0
 19 33  2  0  0  0  0
 19 35  1  0  0  0  0
 20 22  2  0  0  0  0
 20 40  1  0  0  0  0
 21 23  2  0  0  0  0
 21 41  1  0  0  0  0
 22 52  1  0  0  0  0
 23 42  1  0  0  0  0
 24 25  2  0  0  0  0
 24 66  1  0  0  0  0
 25 71  1  0  0  0  0
 26 81  1  0  0  0  0
 27 82  1  0  0  0  0
 28 30  2  0  0  0  0
 28 81  1  0  0  0  0
 29 83  1  0  0  0  0
 30 84  1  0  0  0  0
 31 85  1  0  0  0  0
 32 64  2  0  0  0  0
 33 65  1  0  0  0  0
 33 69  1  0  0  0  0
 34 53  1  0  0  0  0
 34 66  1  0  0  0  0
 34 75  2  0  0  0  0
 35 70  1  0  0  0  0
 35 76  2  0  0  0  0
 36 54  1  0  0  0  0
 36 72  1  0  0  0  0
 36 77  2  0  0  0  0
 37 61  1  0  0  0  0
 37 67  1  0  0  0  0
 37 78  2  0  0  0  0
 38 62  1  0  0  0  0
 38 73  1  0  0  0  0
 38 79  2  0  0  0  0
 39 68  1  0  0  0  0
 39 71  1  0  0  0  0
 39 80  2  0  0  0  0
 40 43  1  0  0  0  0
 41 54  1  0  0  0  0
 42 67  1  0  0  0  0
 43 46  1  0  0  0  0
 44 47  1  0  0  0  0
 44 49  1  0  0  0  0
 45 48  1  0  0  0  0
 45 50  1  0  0  0  0
 46 52  1  0  0  0  0
 47 53  1  0  0  0  0
 48 55  1  0  0  0  0
 49 66  1  0  0  0  0
 50 68  1  0  0  0  0
 51 55  1  0  0  0  0
 51 68  1  0  0  0  0
 52 72  1  0  0  0  0
 53 82  1  0  0  0  0
 54 67  1  0  0  0  0
 55 65  1  0  0  0  0
 56 62  1  0  0  0  0
 57 63  1  0  0  0  0
 58 63  1  0  0  0  0
 59 63  1  0  0  0  0
 60 74  1  0  0  0  0
 61 63  1  0  0  0  0
 61 73  1  0  0  0  0
 62 74  1  0  0  0  0
 64 65  1  0  0  0  0
M  CHG  1  74   1
M  ISO  4  39 100  53 101  71 100  82 101
M  END
> <Batch ID>
0026

> <Smiles>
CNC(C)C(=O)NC(C(=O)N1Cc2cc([101O:1][101CH:1]3CCCN(c4ccc(Cl)cc4[100NH:0][100C:0](=O)N4CCCC(n5nc(-c6ccc(Oc7ccc(F)cc7F)cc6)c(C(N)=O)c5N)C4)C3=O)ccc2CC1C(=O)NC1CCCc2ccccc21)C(C)(C)C

> <Shape>
0.235

> <Color>
0.056

> <Negative vol penalty>
0.000

$$$$

  -OEChem-04042321253D

 86 95  0     1  0  0  0  0  0999 V2000
  -16.6950  -30.0015   23.7032 C   0  0  0  0  0  0  0  0  0  0  0  0
  -17.0954  -28.6939   23.9589 C   0  0  0  0  0  0  0  0  0  0  0  0
  -32.6926  -17.4509   23.4230 C   0  0  0  0  0  0  0  0  0  0  0  0
  -22.6540  -10.2052   20.2635 C   0  0  0  0  0  0  0  0  0  0  0  0
  -24.3068   -9.4939   21.8758 C   0  0  0  0  0  0  0  0  0  0  0  0
  -17.5149  -30.8471   22.9572 C   0  0  0  0  0  0  0  0  0  0  0  0
  -18.3156  -28.2309   23.4677 C   0  0  0  0  0  0  0  0  0  0  0  0
  -23.6587  -23.7521   25.1133 C   0  0  0  0  0  0  0  0  0  0  0  0
  -31.9253  -18.2955   24.2252 C   0  0  0  0  0  0  0  0  0  0  0  0
  -32.0692  -16.5974   22.5127 C   0  0  0  0  0  0  0  0  0  0  0  0
  -21.9257   -9.0383   20.4953 C   0  0  0  0  0  0  0  0  0  0  0  0
  -23.5785   -8.3270   22.1076 C   0  0  0  0  0  0  0  0  0  0  0  0
  -24.3849  -22.6950   24.5667 C   0  0  0  0  0  0  0  0  0  0  0  0
  -19.7897   -7.8587   22.8360 C   0  0  0  0  0  0  0  0  0  0  0  0
  -18.4093   -7.9774   22.9970 C   0  0  0  0  0  0  0  0  0  0  0  0
  -25.7551  -24.2695   23.3573 C   0  0  0  0  0  0  0  0  0  0  0  0
  -18.0628   -6.5347   21.0903 C   0  0  0  0  0  0  0  0  0  0  0  0
  -23.8446  -10.4329   20.9538 C   0  0  0  0  0  0  0  0  0  0  0  0
  -24.1634  -12.9634   20.9039 C   0  0  0  0  0  0  0  0  0  0  0  0
  -18.7501  -30.3972   22.4648 C   0  0  0  0  0  0  0  0  0  0  0  0
  -23.9687  -25.0777   24.7770 C   0  0  0  0  0  0  0  0  0  0  0  0
  -19.1521  -29.0709   22.7132 C   0  0  0  0  0  0  0  0  0  0  0  0
  -25.0329  -25.3418   23.9030 C   0  0  0  0  0  0  0  0  0  0  0  0
  -30.5346  -18.2866   24.1171 C   0  0  0  0  0  0  0  0  0  0  0  0
  -29.9113  -17.4330   23.2068 C   0  0  0  0  0  0  0  0  0  0  0  0
  -30.6786  -16.5884   22.4046 C   0  0  0  0  0  0  0  0  0  0  0  0
  -22.3879   -8.0993   21.4173 C   0  0  0  0  0  0  0  0  0  0  0  0
  -25.4314  -22.9534   23.6863 C   0  0  0  0  0  0  0  0  0  0  0  0
  -20.3067   -7.0781   21.8020 C   0  0  0  0  0  0  0  0  0  0  0  0
  -17.5458   -7.3154   22.1242 C   0  0  0  0  0  0  0  0  0  0  0  0
  -19.4433   -6.4161   20.9292 C   0  0  0  0  0  0  0  0  0  0  0  0
  -24.5976  -11.6378   20.7144 C   0  0  0  0  0  0  0  0  0  0  0  0
  -25.2402  -13.7332   20.5374 C   0  0  0  0  0  0  0  0  0  0  0  0
  -27.8514  -20.6170   24.1924 C   0  0  0  0  0  0  0  0  0  0  0  0
  -22.8996  -13.4551   21.3697 C   0  0  0  0  0  0  0  0  0  0  0  0
  -22.4125  -27.4517   23.3466 C   0  0  0  0  0  0  0  0  0  0  0  0
  -25.0446  -29.1567   24.1756 C   0  0  0  0  0  0  0  0  0  0  0  0
  -28.6151  -28.6390   24.2080 C   0  0  0  0  0  0  0  0  0  0  0  0
  -30.7007  -14.8201   20.6104 C   0  0  0  0  0  0  0  0  0  0  0  0
  -19.5807  -31.3335   21.6233 C   0  0  0  0  0  0  0  0  0  0  0  0
  -23.1930  -26.2079   25.3960 C   0  0  0  0  0  0  0  0  0  0  0  0
  -25.4190  -26.7479   23.5256 C   0  0  0  0  0  0  0  0  0  0  0  0
  -21.0288  -30.8804   21.4568 C   0  0  0  0  0  0  0  0  0  0  0  0
  -29.8195  -21.7978   22.3340 C   0  0  0  0  0  0  0  0  0  0  0  0
  -29.5470  -12.4710   18.1963 C   0  0  0  0  0  0  0  0  0  0  0  0
  -21.0869  -29.3979   21.1022 C   0  0  0  0  0  0  0  0  0  0  0  0
  -28.3121  -21.9073   22.1121 C   0  0  0  0  0  0  0  0  0  0  0  0
  -28.1208  -12.1539   18.6518 C   0  0  0  0  0  0  0  0  0  0  0  0
  -30.1867  -21.3095   23.7325 C   0  0  0  0  0  0  0  0  0  0  0  0
  -30.4898  -12.6705   19.3817 C   0  0  0  0  0  0  0  0  0  0  0  0
  -28.6120  -13.3355   20.8312 C   0  0  0  0  0  0  0  0  0  0  0  0
  -20.4799  -28.5395   22.2185 C   0  0  1  0  0  0  0  0  0  0  0  0
  -27.5317  -21.8899   23.4203 C   0  0  1  0  0  0  0  0  0  1  0  0
  -23.2644  -27.4972   24.5835 C   0  0  1  0  0  0  0  0  0  0  0  0
  -27.6116  -13.1903   19.6727 C   0  0  2  0  0  0  0  0  0  0  0  0
  -28.4189  -17.4271   23.0943 C   0  0  0  0  0  0  0  0  0  0  0  0
  -30.3997  -29.6668   25.6418 C   0  0  0  0  0  0  0  0  0  0  0  0
  -25.3283  -31.1535   21.8860 C   0  0  0  0  0  0  0  0  0  0  0  0
  -27.8040  -31.1219   22.2577 C   0  0  0  0  0  0  0  0  0  0  0  0
  -26.2832  -31.9230   24.0656 C   0  0  0  0  0  0  0  0  0  0  0  0
  -29.5956  -25.9893   25.0892 C   0  0  0  0  0  0  0  0  0  0  0  0
  -29.7327  -19.2058   24.9924 C   0  0  0  0  0  0  0  0  0  0  0  0
  -26.3739  -29.4548   23.5252 C   0  0  1  0  0  0  0  0  0  0  0  0
  -29.4966  -28.4616   25.4310 C   0  0  2  0  0  0  0  0  0  0  0  0
  -26.4332  -30.8892   22.9282 C   0  0  0  0  0  0  0  0  0  0  0  0
  -25.8524  -11.5659   20.2624 N   0  0  0  0  0  0  0  0  0  0  0  0
  -26.2159  -12.8560   20.1648 N   0  0  0  0  0  0  0  0  0  0  0  0
  -29.2216  -20.3496   24.2559 N   0  0  0  0  0  0  0  0  0  0  0  0
  -24.6264  -27.8187   24.1522 N   0  0  0  0  0  0  0  0  0  0  0  0
  -29.9446  -13.6689   20.3041 N   0  0  0  0  0  0  0  0  0  0  0  0
  -25.4383  -15.0680   20.5007 N   0  0  0  0  0  0  0  0  0  0  0  0
  -21.9036  -12.5272   21.7033 N   0  0  0  0  0  0  0  0  0  0  0  0
  -30.0665  -15.7138   21.4728 N   0  0  0  0  0  0  0  0  0  0  0  0
  -21.4127  -28.4052   23.3168 N   0  0  0  0  0  0  0  0  0  0  0  0
  -27.3919  -29.1852   24.5348 N   0  0  0  0  0  0  0  0  0  0  0  0
  -30.3542  -27.2522   25.2803 N   0  3  0  0  0  0  0  0  0  0  0  0
  -26.9723  -19.9262   24.7043 O   0  0  0  0  0  0  0  0  0  0  0  0
  -22.6552  -14.6812   21.4710 O   0  0  0  0  0  0  0  0  0  0  0  0
  -22.6459  -26.6146   22.4826 O   0  0  0  0  0  0  0  0  0  0  0  0
  -24.4043  -30.0761   24.6919 O   0  0  0  0  0  0  0  0  0  0  0  0
  -28.9769  -28.3279   23.0753 O   0  0  0  0  0  0  0  0  0  0  0  0
  -31.8165  -15.0130   20.1207 O   0  0  0  0  0  0  0  0  0  0  0  0
  -21.6774   -6.9607   21.6439 O   0  0  0  0  0  0  0  0  0  0  0  0
  -26.1415  -21.9234   23.1508 O   0  0  0  0  0  0  0  0  0  1  0  0
  -16.2202   -7.4282   22.2799 F   0  0  0  0  0  0  0  0  0  0  0  0
  -19.9340   -5.6638   19.9347 F   0  0  0  0  0  0  0  0  0  0  0  0
  1  2  1  0  0  0  0
  1  6  2  0  0  0  0
  2  7  2  0  0  0  0
  3  9  2  0  0  0  0
  3 10  1  0  0  0  0
  4 11  2  0  0  0  0
  4 18  1  0  0  0  0
  5 12  1  0  0  0  0
  5 18  2  0  0  0  0
  6 20  1  0  0  0  0
  7 22  1  0  0  0  0
  8 13  2  0  0  0  0
  8 21  1  0  0  0  0
  9 24  1  0  0  0  0
 10 26  2  0  0  0  0
 11 27  1  0  0  0  0
 12 27  2  0  0  0  0
 13 28  1  0  0  0  0
 14 15  2  0  0  0  0
 14 29  1  0  0  0  0
 15 30  1  0  0  0  0
 16 23  1  0  0  0  0
 16 28  2  0  0  0  0
 17 30  2  0  0  0  0
 17 31  1  0  0  0  0
 18 32  1  0  0  0  0
 19 32  1  0  0  0  0
 19 33  2  0  0  0  0
 19 35  1  0  0  0  0
 20 22  2  0  0  0  0
 20 40  1  0  0  0  0
 21 23  2  0  0  0  0
 21 41  1  0  0  0  0
 22 52  1  0  0  0  0
 23 42  1  0  0  0  0
 24 25  2  0  0  0  0
 24 62  1  0  0  0  0
 25 26  1  0  0  0  0
 25 56  1  0  0  0  0
 26 73  1  0  0  0  0
 27 83  1  0  0  0  0
 28 84  1  0  0  0  0
 29 31  2  0  0  0  0
 29 83  1  0  0  0  0
 30 85  1  0  0  0  0
 31 86  1  0  0  0  0
 32 66  2  0  0  0  0
 33 67  1  0  0  0  0
 33 71  1  0  0  0  0
 34 53  1  0  0  0  0
 34 68  1  0  0  0  0
 34 77  2  0  0  0  0
 35 72  1  0  0  0  0
 35 78  2  0  0  0  0
 36 54  1  0  0  0  0
 36 74  1  0  0  0  0
 36 79  2  0  0  0  0
 37 63  1  0  0  0  0
 37 69  1  0  0  0  0
 37 80  2  0  0  0  0
 38 64  1  0  0  0  0
 38 75  1  0  0  0  0
 38 81  2  0  0  0  0
 39 70  1  0  0  0  0
 39 73  1  0  0  0  0
 39 82  2  0  0  0  0
 40 43  1  0  0  0  0
 41 54  1  0  0  0  0
 42 69  1  0  0  0  0
 43 46  1  0  0  0  0
 44 47  1  0  0  0  0
 44 49  1  0  0  0  0
 45 48  1  0  0  0  0
 45 50  1  0  0  0  0
 46 52  1  0  0  0  0
 47 53  1  0  0  0  0
 48 55  1  0  0  0  0
 49 68  1  0  0  0  0
 50 70  1  0  0  0  0
 51 55  1  0  0  0  0
 51 70  1  0  0  0  0
 52 74  1  0  0  0  0
 53 84  1  0  0  0  0
 54 69  1  0  0  0  0
 55 67  1  0  0  0  0
 57 64  1  0  0  0  0
 58 65  1  0  0  0  0
 59 65  1  0  0  0  0
 60 65  1  0  0  0  0
 61 76  1  0  0  0  0
 62 68  1  0  0  0  0
 63 65  1  0  0  0  0
 63 75  1  0  0  0  0
 64 76  1  0  0  0  0
 66 67  1  0  0  0  0
M  CHG  1  76   1
M  ISO  4  39 100  53 101  73 100  84 101
M  END
> <Batch ID>
0026

> <Smiles>
CNC(C)C(=O)NC(C(=O)N1Cc2cc([101O:1][101CH:1]3CCCN(Cc4cccc([100NH:0][100C:0](=O)N5CCCC(n6nc(-c7ccc(Oc8ccc(F)cc8F)cc7)c(C(N)=O)c6N)C5)c4C)C3=O)ccc2CC1C(=O)NC1CCCc2ccccc21)C(C)(C)C

> <Shape>
0.266

> <Color>
0.218

> <Negative vol penalty>
0.000

$$$$

  -OEChem-04042321253D

 85 94  0     1  0  0  0  0  0999 V2000
  -18.5504  -16.3216   19.1734 C   0  0  0  0  0  0  0  0  0  0  0  0
  -19.6290  -17.1996   19.1402 C   0  0  0  0  0  0  0  0  0  0  0  0
  -19.3777  -28.4638   21.9895 C   0  0  0  0  0  0  0  0  0  0  0  0
  -20.6039  -27.1230   23.5818 C   0  0  0  0  0  0  0  0  0  0  0  0
  -18.6219  -15.1602   19.9414 C   0  0  0  0  0  0  0  0  0  0  0  0
  -20.7794  -16.9172   19.8759 C   0  0  0  0  0  0  0  0  0  0  0  0
  -26.5584  -18.2080   18.3127 C   0  0  0  0  0  0  0  0  0  0  0  0
  -31.2301  -22.5335   19.0930 C   0  0  0  0  0  0  0  0  0  0  0  0
  -18.3798  -27.4906   21.9384 C   0  0  0  0  0  0  0  0  0  0  0  0
  -19.6059  -26.1497   23.5308 C   0  0  0  0  0  0  0  0  0  0  0  0
  -27.4172  -19.2463   18.6704 C   0  0  0  0  0  0  0  0  0  0  0  0
  -18.6729  -23.6443   21.4612 C   0  0  0  0  0  0  0  0  0  0  0  0
  -32.1779  -23.4388   19.5701 C   0  0  0  0  0  0  0  0  0  0  0  0
  -19.0718  -22.3120   21.3553 C   0  0  0  0  0  0  0  0  0  0  0  0
  -28.3844  -17.8484   20.3821 C   0  0  0  0  0  0  0  0  0  0  0  0
  -29.8770  -22.9144   21.0579 C   0  0  0  0  0  0  0  0  0  0  0  0
  -17.9571  -21.8126   23.4398 C   0  0  0  0  0  0  0  0  0  0  0  0
  -20.4898  -28.2800   22.8111 C   0  0  0  0  0  0  0  0  0  0  0  0
  -21.5912  -30.3861   23.7378 C   0  0  0  0  0  0  0  0  0  0  0  0
  -19.7774  -14.8585   20.6792 C   0  0  0  0  0  0  0  0  0  0  0  0
  -26.5987  -16.9837   18.9953 C   0  0  0  0  0  0  0  0  0  0  0  0
  -20.8659  -15.7512   20.6555 C   0  0  0  0  0  0  0  0  0  0  0  0
  -27.5267  -16.7953   20.0294 C   0  0  0  0  0  0  0  0  0  0  0  0
  -30.0796  -22.2713   19.8368 C   0  0  0  0  0  0  0  0  0  0  0  0
  -30.8248  -23.8197   21.5352 C   0  0  0  0  0  0  0  0  0  0  0  0
  -18.4938  -26.3336   22.7091 C   0  0  0  0  0  0  0  0  0  0  0  0
  -28.3284  -19.0676   19.7072 C   0  0  0  0  0  0  0  0  0  0  0  0
  -17.9161  -24.0609   22.5564 C   0  0  0  0  0  0  0  0  0  0  0  0
  -18.7139  -21.3961   22.3446 C   0  0  0  0  0  0  0  0  0  0  0  0
  -31.9753  -24.0819   20.7912 C   0  0  0  0  0  0  0  0  0  0  0  0
  -17.5582  -23.1450   23.5457 C   0  0  0  0  0  0  0  0  0  0  0  0
  -21.5212  -29.2846   22.8639 C   0  0  0  0  0  0  0  0  0  0  0  0
  -22.7526  -31.0298   23.3867 C   0  0  0  0  0  0  0  0  0  0  0  0
  -20.6872  -30.7912   24.7743 C   0  0  0  0  0  0  0  0  0  0  0  0
  -24.5354  -15.3301   20.7594 C   0  0  0  0  0  0  0  0  0  0  0  0
  -26.8761  -13.0853   20.6933 C   0  0  0  0  0  0  0  0  0  0  0  0
  -30.1914  -12.3667   20.3203 C   0  0  0  0  0  0  0  0  0  0  0  0
  -27.8013  -29.1824   20.7505 C   0  0  0  0  0  0  0  0  0  0  0  0
  -19.7900  -13.6146   21.5321 C   0  0  0  0  0  0  0  0  0  0  0  0
  -25.6838  -15.8645   18.5796 C   0  0  0  0  0  0  0  0  0  0  0  0
  -27.6239  -15.4933   20.7802 C   0  0  0  0  0  0  0  0  0  0  0  0
  -21.1877  -13.2016   21.9861 C   0  0  0  0  0  0  0  0  0  0  0  0
  -25.6329  -31.7792   19.6406 C   0  0  0  0  0  0  0  0  0  0  0  0
  -21.9560  -14.4089   22.5144 C   0  0  0  0  0  0  0  0  0  0  0  0
  -24.3396  -31.5337   20.4196 C   0  0  0  0  0  0  0  0  0  0  0  0
  -29.1748  -27.6294   23.8480 C   0  0  0  0  0  0  0  0  0  0  0  0
  -26.3117  -30.4692   19.2465 C   0  0  0  0  0  0  0  0  0  0  0  0
  -25.2656  -29.2937   21.1433 C   0  0  0  0  0  0  0  0  0  0  0  0
  -30.3744  -26.7174   24.0523 C   0  0  0  0  0  0  0  0  0  0  0  0
  -29.4737  -26.4966   21.7887 C   0  0  0  0  0  0  0  0  0  0  0  0
  -22.1405  -15.4673   21.4203 C   0  0  1  0  0  0  0  0  0  0  0  0
  -25.4594  -14.8351   19.6829 C   0  0  1  0  0  0  0  0  0  0  0  0
  -24.5740  -30.5857   21.6111 C   0  0  2  0  0  0  0  0  0  0  0  0
  -29.1531  -27.8686   22.3481 C   0  0  1  0  0  0  0  0  0  0  0  0
  -31.8071  -10.4469   20.3566 C   0  0  0  0  0  0  0  0  0  0  0  0
  -26.7287  -13.0220   23.7403 C   0  0  0  0  0  0  0  0  0  0  0  0
  -28.9418  -11.8514   23.7535 C   0  0  0  0  0  0  0  0  0  0  0  0
  -26.9722  -10.7793   22.6608 C   0  0  0  0  0  0  0  0  0  0  0  0
  -30.9852  -12.8305   17.5072 C   0  0  0  0  0  0  0  0  0  0  0  0
  -30.6062  -24.5050   22.8417 C   0  0  0  0  0  0  0  0  0  0  0  0
  -29.0600  -21.2977   19.3232 C   0  0  0  0  0  0  0  0  0  1  0  0
  -28.0755  -12.7658   21.5525 C   0  0  1  0  0  0  0  0  0  0  0  0
  -30.9072  -11.3154   19.4914 C   0  0  2  0  0  0  0  0  0  0  0  0
  -27.6766  -12.1299   22.9141 C   0  0  0  0  0  0  0  0  0  0  0  0
  -22.5558  -29.2287   22.0209 N   0  0  0  0  0  0  0  0  0  0  0  0
  -23.2867  -30.3032   22.3634 N   0  0  0  0  0  0  0  0  0  0  0  0
  -26.7038  -14.4314   20.3408 N   0  0  0  0  0  0  0  0  0  0  0  0
  -26.5065  -29.6165   20.4217 N   0  0  0  0  0  0  0  0  0  0  0  0
  -23.3589  -32.1407   23.8564 N   0  0  0  0  0  0  0  0  0  0  0  0
  -19.5420  -30.0162   25.0025 N   0  0  0  0  0  0  0  0  0  0  0  0
  -23.1992  -15.0777   20.5136 N   0  0  0  0  0  0  0  0  0  0  0  0
  -28.9512  -11.9312   20.7369 N   0  0  0  0  0  0  0  0  0  0  0  0
  -27.8983  -28.3831   21.8829 N   0  0  0  0  0  0  0  0  0  0  0  0
  -30.5508  -25.9946   22.7283 N   0  3  2  0  0  0  0  0  0  0  0  0
  -31.7458  -11.9642   18.4442 N   0  3  0  0  0  0  0  0  0  0  0  0
  -20.8807  -31.8194   25.4664 O   0  0  0  0  0  0  0  0  0  0  0  0
  -25.0003  -15.8975   21.7409 O   0  0  0  0  0  0  0  0  0  0  0  0
  -26.1238  -12.1731   20.3417 O   0  0  0  0  0  0  0  0  0  0  0  0
  -30.6847  -13.4629   20.5760 O   0  0  0  0  0  0  0  0  0  0  0  0
  -28.7978  -29.4892   20.0873 O   0  0  0  0  0  0  0  0  0  0  0  0
  -17.5201  -25.3838   22.6597 O   0  0  0  0  0  0  0  0  0  0  0  0
  -29.1675  -20.0797   20.0588 O   0  0  0  0  0  0  0  0  0  1  0  0
  -19.0958  -20.1163   22.2421 F   0  0  0  0  0  0  0  0  0  0  0  0
  -32.8925  -24.9490   21.2423 F   0  0  0  0  0  0  0  0  0  0  0  0
  -16.8303  -23.5390   24.5996 F   0  0  0  0  0  0  0  0  0  0  0  0
  1  2  1  0  0  0  0
  1  5  2  0  0  0  0
  2  6  2  0  0  0  0
  3  9  2  0  0  0  0
  3 18  1  0  0  0  0
  4 10  1  0  0  0  0
  4 18  2  0  0  0  0
  5 20  1  0  0  0  0
  6 22  1  0  0  0  0
  7 11  2  0  0  0  0
  7 21  1  0  0  0  0
  8 13  2  0  0  0  0
  8 24  1  0  0  0  0
  9 26  1  0  0  0  0
 10 26  2  0  0  0  0
 11 27  1  0  0  0  0
 12 14  2  0  0  0  0
 12 28  1  0  0  0  0
 13 30  1  0  0  0  0
 14 29  1  0  0  0  0
 15 23  1  0  0  0  0
 15 27  2  0  0  0  0
 16 24  2  0  0  0  0
 16 25  1  0  0  0  0
 17 29  2  0  0  0  0
 17 31  1  0  0  0  0
 18 32  1  0  0  0  0
 19 32  1  0  0  0  0
 19 33  2  0  0  0  0
 19 34  1  0  0  0  0
 20 22  2  0  0  0  0
 20 39  1  0  0  0  0
 21 23  2  0  0  0  0
 21 40  1  0  0  0  0
 22 51  1  0  0  0  0
 23 41  1  0  0  0  0
 24 61  1  0  0  0  0
 25 30  2  0  0  0  0
 25 60  1  0  0  0  0
 26 81  1  0  0  0  0
 27 82  1  0  0  0  0
 28 31  2  0  0  0  0
 28 81  1  0  0  0  0
 29 83  1  0  0  0  0
 30 84  1  0  0  0  0
 31 85  1  0  0  0  0
 32 65  2  0  0  0  0
 33 66  1  0  0  0  0
 33 69  1  0  0  0  0
 34 70  1  0  0  0  0
 34 76  2  0  0  0  0
 35 52  1  0  0  0  0
 35 71  1  0  0  0  0
 35 77  2  0  0  0  0
 36 62  1  0  0  0  0
 36 67  1  0  0  0  0
 36 78  2  0  0  0  0
 37 63  1  0  0  0  0
 37 72  1  0  0  0  0
 37 79  2  0  0  0  0
 38 68  1  0  0  0  0
 38 73  1  0  0  0  0
 38 80  2  0  0  0  0
 39 42  1  0  0  0  0
 40 52  1  0  0  0  0
 41 67  1  0  0  0  0
 42 44  1  0  0  0  0
 43 45  1  0  0  0  0
 43 47  1  0  0  0  0
 44 51  1  0  0  0  0
 45 53  1  0  0  0  0
 46 49  1  0  0  0  0
 46 54  1  0  0  0  0
 47 68  1  0  0  0  0
 48 53  1  0  0  0  0
 48 68  1  0  0  0  0
 49 74  1  0  0  0  0
 50 54  1  0  0  0  0
 50 74  1  0  0  0  0
 51 71  1  0  0  0  0
 52 67  1  0  0  0  0
 53 66  1  0  0  0  0
 54 73  1  0  0  0  0
 55 63  1  0  0  0  0
 56 64  1  0  0  0  0
 57 64  1  0  0  0  0
 58 64  1  0  0  0  0
 59 75  1  0  0  0  0
 60 74  1  0  0  0  0
 61 82  1  0  0  0  0
 62 64  1  0  0  0  0
 62 72  1  0  0  0  0
 63 75  1  0  0  0  0
 65 66  1  0  0  0  0
M  CHG  2  74   1  75   1
M  ISO  4  38 100  61 101  73 100  82 101
M  END
> <Batch ID>
0026

> <Smiles>
CNC(C)C(=O)NC(C(=O)N1Cc2cc([101O:1][101CH2:1]c3ccc(F)c(CN4CCC([100NH:0][100C:0](=O)N5CCCC(n6nc(-c7ccc(Oc8ccc(F)cc8F)cc7)c(C(N)=O)c6N)C5)C4)c3)ccc2CC1C(=O)NC1CCCc2ccccc21)C(C)(C)C

> <Shape>
0.247

> <Color>
0.075

> <Negative vol penalty>
0.000

$$$$

  -OEChem-04042321253D

 84 93  0     1  0  0  0  0  0999 V2000
  -19.0345  -24.1926   21.9153 C   0  0  0  0  0  0  0  0  0  0  0  0
  -20.3322  -24.3987   21.4580 C   0  0  0  0  0  0  0  0  0  0  0  0
  -22.9859  -15.3287   25.1242 C   0  0  0  0  0  0  0  0  0  0  0  0
  -22.1984  -16.8707   23.4391 C   0  0  0  0  0  0  0  0  0  0  0  0
  -18.2148  -25.2843   22.1984 C   0  0  0  0  0  0  0  0  0  0  0  0
  -20.8105  -25.6967   21.2826 C   0  0  0  0  0  0  0  0  0  0  0  0
  -25.4887  -26.3085   23.1225 C   0  0  0  0  0  0  0  0  0  0  0  0
  -29.6335  -22.0132   18.3571 C   0  0  0  0  0  0  0  0  0  0  0  0
  -29.5888  -20.7628   18.9735 C   0  0  0  0  0  0  0  0  0  0  0  0
  -22.0423  -15.8279   26.0220 C   0  0  0  0  0  0  0  0  0  0  0  0
  -21.2548  -17.3699   24.3369 C   0  0  0  0  0  0  0  0  0  0  0  0
  -26.5444  -25.8231   22.3520 C   0  0  0  0  0  0  0  0  0  0  0  0
  -18.7304  -15.4771   26.6063 C   0  0  0  0  0  0  0  0  0  0  0  0
  -17.9983  -14.5564   27.3559 C   0  0  0  0  0  0  0  0  0  0  0  0
  -26.9705  -28.0546   21.5408 C   0  0  0  0  0  0  0  0  0  0  0  0
  -27.3594  -21.7195   17.5960 C   0  0  0  0  0  0  0  0  0  0  0  0
  -18.8653  -15.5251   29.3923 C   0  0  0  0  0  0  0  0  0  0  0  0
  -23.0640  -15.8501   23.8328 C   0  0  0  0  0  0  0  0  0  0  0  0
  -23.8734  -14.2664   22.0040 C   0  0  0  0  0  0  0  0  0  0  0  0
  -18.6865  -26.5964   22.0355 C   0  0  0  0  0  0  0  0  0  0  0  0
  -25.1585  -27.6711   23.0994 C   0  0  0  0  0  0  0  0  0  0  0  0
  -19.9959  -26.8070   21.5625 C   0  0  0  0  0  0  0  0  0  0  0  0
  -25.9118  -28.5552   22.3138 C   0  0  0  0  0  0  0  0  0  0  0  0
  -28.5188  -22.4916   17.6684 C   0  0  0  0  0  0  0  0  0  0  0  0
  -27.3147  -20.4690   18.2124 C   0  0  0  0  0  0  0  0  0  0  0  0
  -28.4294  -19.9906   18.9012 C   0  0  0  0  0  0  0  0  0  0  0  0
  -21.1767  -16.8485   25.6283 C   0  0  0  0  0  0  0  0  0  0  0  0
  -27.2837  -26.6956   21.5588 C   0  0  0  0  0  0  0  0  0  0  0  0
  -19.5300  -16.4218   27.2497 C   0  0  0  0  0  0  0  0  0  0  0  0
  -18.0657  -14.5804   28.7489 C   0  0  0  0  0  0  0  0  0  0  0  0
  -19.5974  -16.4458   28.6427 C   0  0  0  0  0  0  0  0  0  0  0  0
  -24.0389  -15.3353   22.9051 C   0  0  0  0  0  0  0  0  0  0  0  0
  -25.0803  -14.1746   21.3548 C   0  0  0  0  0  0  0  0  0  0  0  0
  -29.3900  -25.6274   18.6242 C   0  0  0  0  0  0  0  0  0  0  0  0
  -22.7308  -13.4312   21.7744 C   0  0  0  0  0  0  0  0  0  0  0  0
  -22.5950  -29.3438   22.2425 C   0  0  0  0  0  0  0  0  0  0  0  0
  -24.2938  -31.8288   23.4512 C   0  0  0  0  0  0  0  0  0  0  0  0
  -27.3426  -33.1381   24.2498 C   0  0  0  0  0  0  0  0  0  0  0  0
  -29.4333  -18.1170   20.2532 C   0  0  0  0  0  0  0  0  0  0  0  0
  -17.7477  -27.7446   22.3094 C   0  0  0  0  0  0  0  0  0  0  0  0
  -24.0338  -28.1833   23.9569 C   0  0  0  0  0  0  0  0  0  0  0  0
  -25.6107  -30.0302   22.2696 C   0  0  0  0  0  0  0  0  0  0  0  0
  -18.4559  -29.0891   22.4542 C   0  0  0  0  0  0  0  0  0  0  0  0
  -29.7496  -15.0262   21.9922 C   0  0  0  0  0  0  0  0  0  0  0  0
  -19.4723  -29.2807   21.3331 C   0  0  0  0  0  0  0  0  0  0  0  0
  -28.3055  -14.6544   22.3363 C   0  0  0  0  0  0  0  0  0  0  0  0
  -29.9852  -16.5327   22.0863 C   0  0  0  0  0  0  0  0  0  0  0  0
  -27.2971  -25.4747   18.5904 C   0  0  0  0  0  0  0  0  0  0  0  0
  -27.6014  -16.9855   21.6602 C   0  0  0  0  0  0  0  0  0  0  0  0
  -20.5592  -28.2001   21.3832 C   0  0  1  0  0  0  0  0  0  0  0  0
  -28.2726  -26.3895   19.3686 C   0  0  1  0  0  0  0  0  0  1  0  0
  -23.4591  -29.5066   23.4609 C   0  0  1  0  0  0  0  0  0  0  0  0
  -27.2990  -15.4850   21.5162 C   0  0  2  0  0  0  0  0  0  0  0  0
  -26.0604  -19.6621   18.1161 C   0  0  0  0  0  0  0  0  0  0  0  0
  -28.4149  -35.2045   25.1864 C   0  0  0  0  0  0  0  0  0  0  0  0
  -23.8592  -33.2574   20.7903 C   0  0  0  0  0  0  0  0  0  0  0  0
  -25.6973  -34.8372   21.4179 C   0  0  0  0  0  0  0  0  0  0  0  0
  -23.6294  -34.7172   22.8079 C   0  0  0  0  0  0  0  0  0  0  0  0
  -28.4794  -31.6498   26.5414 C   0  0  0  0  0  0  0  0  0  0  0  0
  -28.5680  -23.8365   17.0029 C   0  0  0  0  0  0  0  0  0  0  0  0
  -25.2916  -32.8141   22.8922 C   0  0  1  0  0  0  0  0  0  0  0  0
  -27.8440  -33.8312   25.5038 C   0  0  2  0  0  0  0  0  0  0  0  0
  -24.6241  -33.8784   21.9762 C   0  0  0  0  0  0  0  0  0  0  0  0
  -25.2551  -15.8832   22.8374 N   0  0  0  0  0  0  0  0  0  0  0  0
  -25.8649  -15.1556   21.8860 N   0  0  0  0  0  0  0  0  0  0  0  0
  -28.4690  -24.9055   17.9483 N   0  0  0  0  0  0  0  0  0  0  0  0
  -24.4974  -30.4815   23.1207 N   0  0  0  0  0  0  0  0  0  0  0  0
  -28.9974  -17.2543   21.2811 N   0  0  0  0  0  0  0  0  0  0  0  0
  -25.5363  -13.3511   20.3872 N   0  0  0  0  0  0  0  0  0  0  0  0
  -21.5721  -13.6621   22.5282 N   0  0  0  0  0  0  0  0  0  0  0  0
  -28.4038  -18.7230   19.5339 N   0  0  0  0  0  0  0  0  0  0  0  0
  -21.5188  -28.4964   22.4252 N   0  0  0  0  0  0  0  0  0  0  0  0
  -26.0002  -33.3724   24.0387 N   0  0  0  0  0  0  0  0  0  0  0  0
  -28.9101  -33.0179   26.1541 N   0  3  0  0  0  0  0  0  0  0  0  0
  -30.5994  -25.6330   18.6219 O   0  0  0  0  0  0  0  0  0  0  0  0
  -22.7427  -12.4970   20.9373 O   0  0  0  0  0  0  0  0  0  0  0  0
  -22.8824  -29.9437   21.2134 O   0  0  0  0  0  0  0  0  0  0  0  0
  -23.3719  -32.2386   24.1610 O   0  0  0  0  0  0  0  0  0  0  0  0
  -28.0698  -32.4599   23.5275 O   0  0  0  0  0  0  0  0  0  0  0  0
  -30.6313  -18.2834   20.0101 O   0  0  0  0  0  0  0  0  0  0  0  0
  -20.2557  -17.3357   26.5041 O   0  0  0  0  0  0  0  0  0  0  0  0
  -28.3142  -26.2244   20.8053 O   0  0  0  0  0  0  0  0  0  1  0  0
  -17.3614  -13.6972   29.4686 F   0  0  0  0  0  0  0  0  0  0  0  0
  -20.3630  -17.3517   29.2665 F   0  0  0  0  0  0  0  0  0  0  0  0
  1  2  1  0  0  0  0
  1  5  2  0  0  0  0
  2  6  2  0  0  0  0
  3 10  2  0  0  0  0
  3 18  1  0  0  0  0
  4 11  1  0  0  0  0
  4 18  2  0  0  0  0
  5 20  1  0  0  0  0
  6 22  1  0  0  0  0
  7 12  2  0  0  0  0
  7 21  1  0  0  0  0
  8  9  2  0  0  0  0
  8 24  1  0  0  0  0
  9 26  1  0  0  0  0
 10 27  1  0  0  0  0
 11 27  2  0  0  0  0
 12 28  1  0  0  0  0
 13 14  2  0  0  0  0
 13 29  1  0  0  0  0
 14 30  1  0  0  0  0
 15 23  1  0  0  0  0
 15 28  2  0  0  0  0
 16 24  2  0  0  0  0
 16 25  1  0  0  0  0
 17 30  2  0  0  0  0
 17 31  1  0  0  0  0
 18 32  1  0  0  0  0
 19 32  1  0  0  0  0
 19 33  2  0  0  0  0
 19 35  1  0  0  0  0
 20 22  2  0  0  0  0
 20 40  1  0  0  0  0
 21 23  2  0  0  0  0
 21 41  1  0  0  0  0
 22 50  1  0  0  0  0
 23 42  1  0  0  0  0
 24 60  1  0  0  0  0
 25 26  2  0  0  0  0
 25 54  1  0  0  0  0
 26 71  1  0  0  0  0
 27 81  1  0  0  0  0
 28 82  1  0  0  0  0
 29 31  2  0  0  0  0
 29 81  1  0  0  0  0
 30 83  1  0  0  0  0
 31 84  1  0  0  0  0
 32 64  2  0  0  0  0
 33 65  1  0  0  0  0
 33 69  1  0  0  0  0
 34 51  1  0  0  0  0
 34 66  1  0  0  0  0
 34 75  2  0  0  0  0
 35 70  1  0  0  0  0
 35 76  2  0  0  0  0
 36 52  1  0  0  0  0
 36 72  1  0  0  0  0
 36 77  2  0  0  0  0
 37 61  1  0  0  0  0
 37 67  1  0  0  0  0
 37 78  2  0  0  0  0
 38 62  1  0  0  0  0
 38 73  1  0  0  0  0
 38 79  2  0  0  0  0
 39 68  1  0  0  0  0
 39 71  1  0  0  0  0
 39 80  2  0  0  0  0
 40 43  1  0  0  0  0
 41 52  1  0  0  0  0
 42 67  1  0  0  0  0
 43 45  1  0  0  0  0
 44 46  1  0  0  0  0
 44 47  1  0  0  0  0
 45 50  1  0  0  0  0
 46 53  1  0  0  0  0
 47 68  1  0  0  0  0
 48 51  1  0  0  0  0
 48 66  1  0  0  0  0
 49 53  1  0  0  0  0
 49 68  1  0  0  0  0
 50 72  1  0  0  0  0
 51 82  1  0  0  0  0
 52 67  1  0  0  0  0
 53 65  1  0  0  0  0
 55 62  1  0  0  0  0
 56 63  1  0  0  0  0
 57 63  1  0  0  0  0
 58 63  1  0  0  0  0
 59 74  1  0  0  0  0
 60 66  1  0  0  0  0
 61 63  1  0  0  0  0
 61 73  1  0  0  0  0
 62 74  1  0  0  0  0
 64 65  1  0  0  0  0
M  CHG  1  74   1
M  ISO  4  39 100  51 101  71 100  82 101
M  END
> <Batch ID>
0026

> <Smiles>
CNC(C)C(=O)NC(C(=O)N1Cc2cc([101O:1][101CH:1]3CN(Cc4ccc([100NH:0][100C:0](=O)N5CCCC(n6nc(-c7ccc(Oc8ccc(F)cc8F)cc7)c(C(N)=O)c6N)C5)c(C)c4)C3=O)ccc2CC1C(=O)NC1CCCc2ccccc21)C(C)(C)C

> <Shape>
0.252

> <Color>
0.085

> <Negative vol penalty>
0.000

$$$$

  -OEChem-04042321253D

 85 94  0     1  0  0  0  0  0999 V2000
  -17.8371  -24.9421   24.3500 C   0  0  0  0  0  0  0  0  0  0  0  0
  -19.1190  -24.4931   24.0491 C   0  0  0  0  0  0  0  0  0  0  0  0
  -22.7055  -10.2891   20.5016 C   0  0  0  0  0  0  0  0  0  0  0  0
  -24.5371   -9.0548   21.4806 C   0  0  0  0  0  0  0  0  0  0  0  0
  -17.4345  -26.2159   23.9510 C   0  0  0  0  0  0  0  0  0  0  0  0
  -19.9987  -25.3172   23.3482 C   0  0  0  0  0  0  0  0  0  0  0  0
  -26.0724  -25.6628   24.0530 C   0  0  0  0  0  0  0  0  0  0  0  0
  -29.1036  -20.0574   21.6342 C   0  0  0  0  0  0  0  0  0  0  0  0
  -28.9570  -18.7043   21.3288 C   0  0  0  0  0  0  0  0  0  0  0  0
  -21.8209   -9.6854   21.3953 C   0  0  0  0  0  0  0  0  0  0  0  0
  -23.6526   -8.4511   22.3744 C   0  0  0  0  0  0  0  0  0  0  0  0
  -27.1323  -25.0943   23.3480 C   0  0  0  0  0  0  0  0  0  0  0  0
  -21.3931   -5.9364   22.3277 C   0  0  0  0  0  0  0  0  0  0  0  0
  -21.5105   -4.5607   22.5260 C   0  0  0  0  0  0  0  0  0  0  0  0
  -27.3499  -27.1187   22.0544 C   0  0  0  0  0  0  0  0  0  0  0  0
  -31.4878  -19.8774   21.2871 C   0  0  0  0  0  0  0  0  0  0  0  0
  -21.9398   -4.9358   24.8738 C   0  0  0  0  0  0  0  0  0  0  0  0
  -24.0636   -9.9738   20.5442 C   0  0  0  0  0  0  0  0  0  0  0  0
  -24.9441  -10.5288   18.2152 C   0  0  0  0  0  0  0  0  0  0  0  0
  -18.3129  -27.0598   23.2533 C   0  0  0  0  0  0  0  0  0  0  0  0
  -25.6354  -26.9618   23.7560 C   0  0  0  0  0  0  0  0  0  0  0  0
  -19.6069  -26.6030   22.9384 C   0  0  0  0  0  0  0  0  0  0  0  0
  -26.2859  -27.7024   22.7588 C   0  0  0  0  0  0  0  0  0  0  0  0
  -30.3690  -20.6440   21.6133 C   0  0  0  0  0  0  0  0  0  0  0  0
  -30.0758  -17.9378   21.0026 C   0  0  0  0  0  0  0  0  0  0  0  0
  -22.2945   -8.7664   22.3317 C   0  0  0  0  0  0  0  0  0  0  0  0
  -27.7694  -25.8211   22.3466 C   0  0  0  0  0  0  0  0  0  0  0  0
  -21.5492   -6.8118   23.4024 C   0  0  0  0  0  0  0  0  0  0  0  0
  -21.7838   -4.0604   23.7990 C   0  0  0  0  0  0  0  0  0  0  0  0
  -31.3412  -18.5243   20.9817 C   0  0  0  0  0  0  0  0  0  0  0  0
  -21.8225   -6.3115   24.6754 C   0  0  0  0  0  0  0  0  0  0  0  0
  -24.9777  -10.5967   19.6209 C   0  0  0  0  0  0  0  0  0  0  0  0
  -26.0184  -11.2822   17.8093 C   0  0  0  0  0  0  0  0  0  0  0  0
  -29.4870  -22.9627   21.6548 C   0  0  0  0  0  0  0  0  0  0  0  0
  -24.0240   -9.8459   17.3534 C   0  0  0  0  0  0  0  0  0  0  0  0
  -22.9171  -28.2279   22.7019 C   0  0  0  0  0  0  0  0  0  0  0  0
  -24.4608  -31.0270   23.2536 C   0  0  0  0  0  0  0  0  0  0  0  0
  -27.4259  -32.6841   23.5838 C   0  0  0  0  0  0  0  0  0  0  0  0
  -28.7414  -15.8186   20.6663 C   0  0  0  0  0  0  0  0  0  0  0  0
  -17.8166  -28.4105   22.8016 C   0  0  0  0  0  0  0  0  0  0  0  0
  -24.5080  -27.5706   24.5439 C   0  0  0  0  0  0  0  0  0  0  0  0
  -25.8682  -29.1081   22.4153 C   0  0  0  0  0  0  0  0  0  0  0  0
  -18.9354  -29.3640   22.3899 C   0  0  0  0  0  0  0  0  0  0  0  0
  -31.8887  -23.8218   23.0986 C   0  0  0  0  0  0  0  0  0  0  0  0
  -30.2019  -12.3330   20.0021 C   0  0  0  0  0  0  0  0  0  0  0  0
  -19.9329  -28.6550   21.4793 C   0  0  0  0  0  0  0  0  0  0  0  0
  -31.0221  -24.8431   22.3980 C   0  0  0  0  0  0  0  0  0  0  0  0
  -29.1377  -11.7891   19.0518 C   0  0  0  0  0  0  0  0  0  0  0  0
  -31.8629  -22.5099   22.3305 C   0  0  0  0  0  0  0  0  0  0  0  0
  -30.2353  -13.8560   20.0209 C   0  0  0  0  0  0  0  0  0  0  0  0
  -27.7635  -13.5663   20.2697 C   0  0  0  0  0  0  0  0  0  0  0  0
  -20.5983  -27.4771   22.2013 C   0  0  1  0  0  0  0  0  0  0  0  0
  -29.6035  -24.3189   22.3427 C   0  0  1  0  0  0  0  0  0  1  0  0
  -23.8123  -28.7113   23.8075 C   0  0  1  0  0  0  0  0  0  0  0  0
  -27.8384  -12.6186   19.0624 C   0  0  2  0  0  0  0  0  0  0  0  0
  -28.3679  -34.9735   23.9945 C   0  0  0  0  0  0  0  0  0  0  0  0
  -23.8125  -31.8073   20.3760 C   0  0  0  0  0  0  0  0  0  0  0  0
  -25.5436  -33.6078   20.5478 C   0  0  0  0  0  0  0  0  0  0  0  0
  -23.5470  -33.6530   22.0424 C   0  0  0  0  0  0  0  0  0  0  0  0
  -28.7642  -31.8132   26.0757 C   0  0  0  0  0  0  0  0  0  0  0  0
  -25.3557  -31.9323   22.4421 C   0  0  1  0  0  0  0  0  0  0  0  0
  -27.9195  -33.6668   24.6303 C   0  0  2  0  0  0  0  0  0  0  0  0
  -24.5715  -32.7229   21.3570 C   0  0  0  0  0  0  0  0  0  0  0  0
  -25.9931  -11.3347   20.0774 N   0  0  0  0  0  0  0  0  0  0  0  0
  -26.6074  -11.7375   18.9521 N   0  0  0  0  0  0  0  0  0  0  0  0
  -30.5214  -22.0478   21.9308 N   0  0  0  0  0  0  0  0  0  0  0  0
  -24.7568  -29.6572   23.2095 N   0  0  0  0  0  0  0  0  0  0  0  0
  -28.9276  -14.4586   20.3173 N   0  0  0  0  0  0  0  0  0  0  0  0
  -26.5072  -11.5930   16.5899 N   0  0  0  0  0  0  0  0  0  0  0  0
  -24.3102   -8.5248   16.9831 N   0  0  0  0  0  0  0  0  0  0  0  0
  -29.9237  -16.5630   20.6933 N   0  0  0  0  0  0  0  0  0  0  0  0
  -21.6243  -27.9523   23.1046 N   0  0  0  0  0  0  0  0  0  0  0  0
  -26.0621  -32.7745   23.4013 N   0  0  0  0  0  0  0  0  0  0  0  0
  -29.0706  -33.0898   25.3806 N   0  3  0  0  0  0  0  0  0  0  0  0
  -28.5005  -22.7289   20.9516 O   0  0  0  0  0  0  0  0  0  0  0  0
  -22.9873  -10.3966   16.9112 O   0  0  0  0  0  0  0  0  0  0  0  0
  -23.3656  -28.1148   21.5671 O   0  0  0  0  0  0  0  0  0  0  0  0
  -23.5378  -31.5178   23.9083 O   0  0  0  0  0  0  0  0  0  0  0  0
  -28.1757  -31.9160   22.9852 O   0  0  0  0  0  0  0  0  0  0  0  0
  -27.6230  -16.2786   20.9065 O   0  0  0  0  0  0  0  0  0  0  0  0
  -21.4316   -8.1773   23.2040 O   0  0  0  0  0  0  0  0  0  0  0  0
  -28.8038  -25.2683   21.6565 O   0  0  0  0  0  0  0  0  0  1  0  0
  -21.8949   -2.7392   23.9896 F   0  0  0  0  0  0  0  0  0  0  0  0
  -32.4238  -17.7969   20.6711 F   0  0  0  0  0  0  0  0  0  0  0  0
  -21.9723   -7.1475   25.7120 F   0  0  0  0  0  0  0  0  0  0  0  0
  1  2  1  0  0  0  0
  1  5  2  0  0  0  0
  2  6  2  0  0  0  0
  3 10  2  0  0  0  0
  3 18  1  0  0  0  0
  4 11  1  0  0  0  0
  4 18  2  0  0  0  0
  5 20  1  0  0  0  0
  6 22  1  0  0  0  0
  7 12  2  0  0  0  0
  7 21  1  0  0  0  0
  8  9  2  0  0  0  0
  8 24  1  0  0  0  0
  9 25  1  0  0  0  0
 10 26  1  0  0  0  0
 11 26  2  0  0  0  0
 12 27  1  0  0  0  0
 13 14  2  0  0  0  0
 13 28  1  0  0  0  0
 14 29  1  0  0  0  0
 15 23  1  0  0  0  0
 15 27  2  0  0  0  0
 16 24  2  0  0  0  0
 16 30  1  0  0  0  0
 17 29  2  0  0  0  0
 17 31  1  0  0  0  0
 18 32  1  0  0  0  0
 19 32  1  0  0  0  0
 19 33  2  0  0  0  0
 19 35  1  0  0  0  0
 20 22  2  0  0  0  0
 20 40  1  0  0  0  0
 21 23  2  0  0  0  0
 21 41  1  0  0  0  0
 22 52  1  0  0  0  0
 23 42  1  0  0  0  0
 24 66  1  0  0  0  0
 25 30  2  0  0  0  0
 25 71  1  0  0  0  0
 26 81  1  0  0  0  0
 27 82  1  0  0  0  0
 28 31  2  0  0  0  0
 28 81  1  0  0  0  0
 29 83  1  0  0  0  0
 30 84  1  0  0  0  0
 31 85  1  0  0  0  0
 32 64  2  0  0  0  0
 33 65  1  0  0  0  0
 33 69  1  0  0  0  0
 34 53  1  0  0  0  0
 34 66  1  0  0  0  0
 34 75  2  0  0  0  0
 35 70  1  0  0  0  0
 35 76  2  0  0  0  0
 36 54  1  0  0  0  0
 36 72  1  0  0  0  0
 36 77  2  0  0  0  0
 37 61  1  0  0  0  0
 37 67  1  0  0  0  0
 37 78  2  0  0  0  0
 38 62  1  0  0  0  0
 38 73  1  0  0  0  0
 38 79  2  0  0  0  0
 39 68  1  0  0  0  0
 39 71  1  0  0  0  0
 39 80  2  0  0  0  0
 40 43  1  0  0  0  0
 41 54  1  0  0  0  0
 42 67  1  0  0  0  0
 43 46  1  0  0  0  0
 44 47  1  0  0  0  0
 44 49  1  0  0  0  0
 45 48  1  0  0  0  0
 45 50  1  0  0  0  0
 46 52  1  0  0  0  0
 47 53  1  0  0  0  0
 48 55  1  0  0  0  0
 49 66  1  0  0  0  0
 50 68  1  0  0  0  0
 51 55  1  0  0  0  0
 51 68  1  0  0  0  0
 52 72  1  0  0  0  0
 53 82  1  0  0  0  0
 54 67  1  0  0  0  0
 55 65  1  0  0  0  0
 56 62  1  0  0  0  0
 57 63  1  0  0  0  0
 58 63  1  0  0  0  0
 59 63  1  0  0  0  0
 60 74  1  0  0  0  0
 61 63  1  0  0  0  0
 61 73  1  0  0  0  0
 62 74  1  0  0  0  0
 64 65  1  0  0  0  0
M  CHG  1  74   1
M  ISO  4  39 100  53 101  71 100  82 101
M  END
> <Batch ID>
0026

> <Smiles>
CNC(C)C(=O)NC(C(=O)N1Cc2cc([101O:1][101CH:1]3CCCN(c4ccc([100NH:0][100C:0](=O)N5CCCC(n6nc(-c7ccc(Oc8ccc(F)cc8F)cc7)c(C(N)=O)c6N)C5)c(F)c4)C3=O)ccc2CC1C(=O)NC1CCCc2ccccc21)C(C)(C)C

> <Shape>
0.285

> <Color>
0.103

> <Negative vol penalty>
0.000

$$$$

  -OEChem-04042321253D

 86 95  0     1  0  0  0  0  0999 V2000
  -17.2846  -24.4571   22.0132 C   0  0  0  0  0  0  0  0  0  0  0  0
  -17.6926  -23.2394   21.4782 C   0  0  0  0  0  0  0  0  0  0  0  0
  -26.6340  -28.4533   19.1854 C   0  0  0  0  0  0  0  0  0  0  0  0
  -25.7775  -27.1055   20.9983 C   0  0  0  0  0  0  0  0  0  0  0  0
  -18.2081  -25.2778   22.6594 C   0  0  0  0  0  0  0  0  0  0  0  0
  -19.0247  -22.8422   21.5881 C   0  0  0  0  0  0  0  0  0  0  0  0
  -21.1157  -17.1319   22.3130 C   0  0  0  0  0  0  0  0  0  0  0  0
  -30.3565  -16.2956   22.1374 C   0  0  0  0  0  0  0  0  0  0  0  0
  -25.6511  -29.4115   19.4334 C   0  0  0  0  0  0  0  0  0  0  0  0
  -24.7947  -28.0637   21.2464 C   0  0  0  0  0  0  0  0  0  0  0  0
  -21.6313  -16.2004   21.4129 C   0  0  0  0  0  0  0  0  0  0  0  0
  -24.5769  -31.0663   22.7819 C   0  0  0  0  0  0  0  0  0  0  0  0
  -24.3494  -31.4305   24.1089 C   0  0  0  0  0  0  0  0  0  0  0  0
  -29.8536  -15.2237   22.8747 C   0  0  0  0  0  0  0  0  0  0  0  0
  -23.8693  -16.8980   21.9824 C   0  0  0  0  0  0  0  0  0  0  0  0
  -29.3407  -15.3969   20.1380 C   0  0  0  0  0  0  0  0  0  0  0  0
  -22.0577  -30.6891   23.9195 C   0  0  0  0  0  0  0  0  0  0  0  0
  -26.6971  -27.3002   19.9678 C   0  0  0  0  0  0  0  0  0  0  0  0
  -29.1071  -26.4906   19.7579 C   0  0  0  0  0  0  0  0  0  0  0  0
  -19.5502  -24.8860   22.7858 C   0  0  0  0  0  0  0  0  0  0  0  0
  -21.9741  -17.9623   23.0479 C   0  0  0  0  0  0  0  0  0  0  0  0
  -19.9673  -23.6590   22.2354 C   0  0  0  0  0  0  0  0  0  0  0  0
  -23.3621  -17.8373   22.8931 C   0  0  0  0  0  0  0  0  0  0  0  0
  -30.1000  -16.3823   20.7690 C   0  0  0  0  0  0  0  0  0  0  0  0
  -28.8378  -14.3250   20.8753 C   0  0  0  0  0  0  0  0  0  0  0  0
  -24.7315  -29.2167   20.4639 C   0  0  0  0  0  0  0  0  0  0  0  0
  -23.0082  -16.0854   21.2453 C   0  0  0  0  0  0  0  0  0  0  0  0
  -23.5448  -30.5135   22.0236 C   0  0  0  0  0  0  0  0  0  0  0  0
  -23.0898  -31.2419   24.6778 C   0  0  0  0  0  0  0  0  0  0  0  0
  -22.2853  -30.3248   22.5924 C   0  0  0  0  0  0  0  0  0  0  0  0
  -29.0942  -14.2384   22.2437 C   0  0  0  0  0  0  0  0  0  0  0  0
  -27.7118  -26.3098   19.7117 C   0  0  0  0  0  0  0  0  0  0  0  0
  -29.6237  -25.2584   19.4397 C   0  0  0  0  0  0  0  0  0  0  0  0
  -29.8682  -27.6671   20.0615 C   0  0  0  0  0  0  0  0  0  0  0  0
  -22.4372  -21.1011   23.2404 C   0  0  0  0  0  0  0  0  0  0  0  0
  -24.4501  -20.2636   25.6423 C   0  0  0  0  0  0  0  0  0  0  0  0
  -26.4299  -17.8741   27.0627 C   0  0  0  0  0  0  0  0  0  0  0  0
  -29.7003  -19.8238   20.0771 C   0  0  0  0  0  0  0  0  0  0  0  0
  -20.5219  -25.8281   23.4513 C   0  0  0  0  0  0  0  0  0  0  0  0
  -21.4029  -18.9434   24.0346 C   0  0  0  0  0  0  0  0  0  0  0  0
  -24.3270  -18.6912   23.6731 C   0  0  0  0  0  0  0  0  0  0  0  0
  -21.8358  -25.1636   23.8540 C   0  0  0  0  0  0  0  0  0  0  0  0
  -27.3689  -21.1092   17.6256 C   0  0  0  0  0  0  0  0  0  0  0  0
  -24.6732  -11.6803   21.0618 C   0  0  0  0  0  0  0  0  0  0  0  0
  -22.3749  -24.3101   22.7105 C   0  0  0  0  0  0  0  0  0  0  0  0
  -27.3687  -22.6020   17.9595 C   0  0  0  0  0  0  0  0  0  0  0  0
  -23.7416  -12.8116   20.6472 C   0  0  0  0  0  0  0  0  0  0  0  0
  -27.4659  -20.2600   18.8896 C   0  0  0  0  0  0  0  0  0  0  0  0
  -28.6410  -22.0644   20.0884 C   0  0  0  0  0  0  0  0  0  0  0  0
  -26.0362  -11.8013   20.3952 C   0  0  0  0  0  0  0  0  0  0  0  0
  -25.7444  -14.2869   20.2326 C   0  0  0  0  0  0  0  0  0  0  0  0
  -21.3984  -23.1820   22.3562 C   0  0  1  0  0  0  0  0  0  0  0  0
  -22.3535  -20.0936   24.3520 C   0  0  1  0  0  0  0  0  0  0  0  0
  -28.5676  -22.9770   18.8507 C   0  0  2  0  0  0  0  0  0  0  0  0
  -24.3776  -14.1758   20.8952 C   0  0  1  0  0  0  0  0  0  1  0  0
  -27.9798  -17.4963   28.9998 C   0  0  0  0  0  0  0  0  0  0  0  0
  -26.6166  -21.8739   24.2197 C   0  0  0  0  0  0  0  0  0  0  0  0
  -28.3179  -20.7053   25.6368 C   0  0  0  0  0  0  0  0  0  0  0  0
  -26.5810  -22.1415   26.7060 C   0  0  0  0  0  0  0  0  0  0  0  0
  -24.7286  -15.7111   28.1518 C   0  0  0  0  0  0  0  0  0  0  0  0
  -30.6382  -17.5286   19.9809 C   0  0  0  0  0  0  0  0  0  0  0  0
  -28.0250  -13.2867   20.1595 C   0  0  0  0  0  0  0  0  0  0  0  0
  -25.9136  -19.9048   25.7345 C   0  0  1  0  0  0  0  0  0  0  0  0
  -26.5494  -17.3861   28.4952 C   0  0  2  0  0  0  0  0  0  0  0  0
  -26.8393  -21.1415   25.5580 C   0  0  0  0  0  0  0  0  0  0  0  0
  -27.3640  -25.0611   19.3894 N   0  0  0  0  0  0  0  0  0  0  0  0
  -28.5483  -24.4462   19.2301 N   0  0  0  0  0  0  0  0  0  0  0  0
  -23.7196  -19.6400   24.6208 N   0  0  0  0  0  0  0  0  0  0  0  0
  -28.6381  -20.6546   19.6836 N   0  0  0  0  0  0  0  0  0  0  0  0
  -30.8884  -24.8013   19.3215 N   0  0  0  0  0  0  0  0  0  0  0  0
  -30.2233  -27.9074   21.3958 N   0  0  0  0  0  0  0  0  0  0  0  0
  -21.4947  -22.1084   23.3219 N   0  0  0  0  0  0  0  0  0  0  0  0
  -26.0837  -19.2075   27.0046 N   0  0  0  0  0  0  0  0  0  0  0  0
  -29.6179  -18.5013   19.6588 N   0  0  0  0  0  0  0  0  0  0  0  0
  -26.6272  -13.1575   20.6990 N   0  3  2  0  0  0  0  0  0  0  0  0
  -26.1247  -15.9610   28.5941 N   0  3  0  0  0  0  0  0  0  0  0  0
  -30.2088  -28.4898   19.1779 O   0  0  0  0  0  0  0  0  0  0  0  0
  -23.2943  -20.9748   22.3738 O   0  0  0  0  0  0  0  0  0  0  0  0
  -23.9712  -21.0622   26.4513 O   0  0  0  0  0  0  0  0  0  0  0  0
  -26.6277  -17.1463   26.0923 O   0  0  0  0  0  0  0  0  0  0  0  0
  -30.6549  -20.2317   20.7476 O   0  0  0  0  0  0  0  0  0  0  0  0
  -23.7725  -30.1516   20.7064 O   0  0  0  0  0  0  0  0  0  0  0  0
  -23.5141  -15.1775   20.3668 O   0  0  0  0  0  0  0  0  0  1  0  0
  -22.8719  -31.5903   25.9527 F   0  0  0  0  0  0  0  0  0  0  0  0
  -21.2902  -29.7931   21.8693 F   0  0  0  0  0  0  0  0  0  0  0  0
  -28.4881  -12.9268   23.1878 Cl  0  0  0  0  0  0  0  0  0  0  0  0
  1  2  1  0  0  0  0
  1  5  2  0  0  0  0
  2  6  2  0  0  0  0
  3  9  2  0  0  0  0
  3 18  1  0  0  0  0
  4 10  1  0  0  0  0
  4 18  2  0  0  0  0
  5 20  1  0  0  0  0
  6 22  1  0  0  0  0
  7 11  2  0  0  0  0
  7 21  1  0  0  0  0
  8 14  2  0  0  0  0
  8 24  1  0  0  0  0
  9 26  1  0  0  0  0
 10 26  2  0  0  0  0
 11 27  1  0  0  0  0
 12 13  2  0  0  0  0
 12 28  1  0  0  0  0
 13 29  1  0  0  0  0
 14 31  1  0  0  0  0
 15 23  1  0  0  0  0
 15 27  2  0  0  0  0
 16 24  2  0  0  0  0
 16 25  1  0  0  0  0
 17 29  2  0  0  0  0
 17 30  1  0  0  0  0
 18 32  1  0  0  0  0
 19 32  1  0  0  0  0
 19 33  2  0  0  0  0
 19 34  1  0  0  0  0
 20 22  2  0  0  0  0
 20 39  1  0  0  0  0
 21 23  2  0  0  0  0
 21 40  1  0  0  0  0
 22 52  1  0  0  0  0
 23 41  1  0  0  0  0
 24 61  1  0  0  0  0
 25 31  2  0  0  0  0
 25 62  1  0  0  0  0
 26 82  1  0  0  0  0
 27 83  1  0  0  0  0
 28 30  2  0  0  0  0
 28 82  1  0  0  0  0
 29 84  1  0  0  0  0
 30 85  1  0  0  0  0
 31 86  1  0  0  0  0
 32 66  2  0  0  0  0
 33 67  1  0  0  0  0
 33 70  1  0  0  0  0
 34 71  1  0  0  0  0
 34 77  2  0  0  0  0
 35 53  1  0  0  0  0
 35 72  1  0  0  0  0
 35 78  2  0  0  0  0
 36 63  1  0  0  0  0
 36 68  1  0  0  0  0
 36 79  2  0  0  0  0
 37 64  1  0  0  0  0
 37 73  1  0  0  0  0
 37 80  2  0  0  0  0
 38 69  1  0  0  0  0
 38 74  1  0  0  0  0
 38 81  2  0  0  0  0
 39 42  1  0  0  0  0
 40 53  1  0  0  0  0
 41 68  1  0  0  0  0
 42 45  1  0  0  0  0
 43 46  1  0  0  0  0
 43 48  1  0  0  0  0
 44 47  1  0  0  0  0
 44 50  1  0  0  0  0
 45 52  1  0  0  0  0
 46 54  1  0  0  0  0
 47 55  1  0  0  0  0
 48 69  1  0  0  0  0
 49 54  1  0  0  0  0
 49 69  1  0  0  0  0
 50 75  1  0  0  0  0
 51 55  1  0  0  0  0
 51 75  1  0  0  0  0
 52 72  1  0  0  0  0
 53 68  1  0  0  0  0
 54 67  1  0  0  0  0
 55 83  1  0  0  0  0
 56 64  1  0  0  0  0
 57 65  1  0  0  0  0
 58 65  1  0  0  0  0
 59 65  1  0  0  0  0
 60 76  1  0  0  0  0
 61 74  1  0  0  0  0
 62 75  1  0  0  0  0
 63 65  1  0  0  0  0
 63 73  1  0  0  0  0
 64 76  1  0  0  0  0
 66 67  1  0  0  0  0
M  CHG  2  75   1  76   1
M  ISO  4  38 100  55 101  74 100  83 101
M  END
> <Batch ID>
0026

> <Smiles>
CNC(C)C(=O)NC(C(=O)N1Cc2cc([101O:1][101CH:1]3CCCN(Cc4cc(C[100NH:0][100C:0](=O)N5CCCC(n6nc(-c7ccc(Oc8ccc(F)cc8F)cc7)c(C(N)=O)c6N)C5)ccc4Cl)C3)ccc2CC1C(=O)NC1CCCc2ccccc21)C(C)(C)C

> <Shape>
0.226

> <Color>
0.053

> <Negative vol penalty>
0.000

$$$$

  -OEChem-04042321253D

 87 95  0     1  0  0  0  0  0999 V2000
  -18.6347  -25.5099   20.8080 C   0  0  0  0  0  0  0  0  0  0  0  0
  -18.8488  -24.3066   20.1434 C   0  0  0  0  0  0  0  0  0  0  0  0
  -26.1506  -28.5066   19.0030 C   0  0  0  0  0  0  0  0  0  0  0  0
  -26.8015  -28.8068   21.3102 C   0  0  0  0  0  0  0  0  0  0  0  0
  -19.5659  -25.9652   21.7405 C   0  0  0  0  0  0  0  0  0  0  0  0
  -19.9949  -23.5585   20.4101 C   0  0  0  0  0  0  0  0  0  0  0  0
  -22.2802  -16.7782   20.7584 C   0  0  0  0  0  0  0  0  0  0  0  0
  -29.1948  -14.6103   23.3532 C   0  0  0  0  0  0  0  0  0  0  0  0
  -25.2872  -29.5973   19.1046 C   0  0  0  0  0  0  0  0  0  0  0  0
  -25.9380  -29.8976   21.4119 C   0  0  0  0  0  0  0  0  0  0  0  0
  -23.2929  -15.9562   20.2656 C   0  0  0  0  0  0  0  0  0  0  0  0
  -23.6381  -32.5384   22.3847 C   0  0  0  0  0  0  0  0  0  0  0  0
  -22.8292  -32.6215   23.5180 C   0  0  0  0  0  0  0  0  0  0  0  0
  -29.4595  -15.3957   24.4751 C   0  0  0  0  0  0  0  0  0  0  0  0
  -24.7933  -16.8025   21.9543 C   0  0  0  0  0  0  0  0  0  0  0  0
  -21.8125  -30.5054   22.9475 C   0  0  0  0  0  0  0  0  0  0  0  0
  -26.9077  -28.1113   20.1058 C   0  0  0  0  0  0  0  0  0  0  0  0
  -29.1536  -27.0044   19.6172 C   0  0  0  0  0  0  0  0  0  0  0  0
  -20.7192  -25.2175   22.0258 C   0  0  0  0  0  0  0  0  0  0  0  0
  -22.5201  -17.6279   21.8478 C   0  0  0  0  0  0  0  0  0  0  0  0
  -20.9431  -24.0049   21.3463 C   0  0  0  0  0  0  0  0  0  0  0  0
  -23.7813  -17.6324   22.4606 C   0  0  0  0  0  0  0  0  0  0  0  0
  -30.1045  -17.2289   23.0396 C   0  0  0  0  0  0  0  0  0  0  0  0
  -29.3850  -15.1341   22.0745 C   0  0  0  0  0  0  0  0  0  0  0  0
  -25.1809  -30.2928   20.3090 C   0  0  0  0  0  0  0  0  0  0  0  0
  -24.5504  -15.9704   20.8618 C   0  0  0  0  0  0  0  0  0  0  0  0
  -23.5342  -31.4388   21.5328 C   0  0  0  0  0  0  0  0  0  0  0  0
  -21.9164  -31.6050   23.7994 C   0  0  0  0  0  0  0  0  0  0  0  0
  -22.6214  -30.4223   21.8142 C   0  0  0  0  0  0  0  0  0  0  0  0
  -29.9143  -16.7050   24.3183 C   0  0  0  0  0  0  0  0  0  0  0  0
  -29.8398  -16.4434   21.9177 C   0  0  0  0  0  0  0  0  0  0  0  0
  -27.7995  -26.9843   20.0016 C   0  0  0  0  0  0  0  0  0  0  0  0
  -29.5473  -25.6900   19.6781 C   0  0  0  0  0  0  0  0  0  0  0  0
  -29.9815  -28.1122   19.2391 C   0  0  0  0  0  0  0  0  0  0  0  0
  -22.4683  -20.7749   22.2919 C   0  0  0  0  0  0  0  0  0  0  0  0
  -22.9695  -19.9538   25.3898 C   0  0  0  0  0  0  0  0  0  0  0  0
  -27.8002  -14.2868   20.3880 C   0  0  0  0  0  0  0  0  0  0  0  0
  -24.1326  -17.6524   27.6253 C   0  0  0  0  0  0  0  0  0  0  0  0
  -29.7427  -20.9003   22.3177 C   0  0  0  0  0  0  0  0  0  0  0  0
  -21.7205  -25.7736   23.0070 C   0  0  0  0  0  0  0  0  0  0  0  0
  -21.4095  -18.4888   22.3842 C   0  0  0  0  0  0  0  0  0  0  0  0
  -24.0841  -18.5115   23.6455 C   0  0  0  0  0  0  0  0  0  0  0  0
  -22.7240  -24.7374   23.5065 C   0  0  0  0  0  0  0  0  0  0  0  0
  -26.8310  -21.4598   20.2426 C   0  0  0  0  0  0  0  0  0  0  0  0
  -23.2779  -23.9252   22.3402 C   0  0  0  0  0  0  0  0  0  0  0  0
  -26.9401  -22.9599   19.9636 C   0  0  0  0  0  0  0  0  0  0  0  0
  -27.2697  -21.1289   21.6660 C   0  0  0  0  0  0  0  0  0  0  0  0
  -28.7526  -23.0962   21.7345 C   0  0  0  0  0  0  0  0  0  0  0  0
  -22.1619  -23.1528   21.6265 C   0  0  1  0  0  0  0  0  0  0  0  0
  -21.9146  -19.6921   23.1743 C   0  0  1  0  0  0  0  0  0  0  0  0
  -28.3446  -23.4925   20.3039 C   0  0  2  0  0  0  0  0  0  0  0  0
  -31.3613  -11.2077   20.4862 C   0  0  0  0  0  0  0  0  0  0  0  0
  -24.4430  -17.2798   30.0875 C   0  0  0  0  0  0  0  0  0  0  0  0
  -25.3723  -21.8342   25.3689 C   0  0  0  0  0  0  0  0  0  0  0  0
  -26.1719  -20.7231   27.4652 C   0  0  0  0  0  0  0  0  0  0  0  0
  -23.9896  -21.9314   27.4506 C   0  0  0  0  0  0  0  0  0  0  0  0
  -22.3574  -15.2844   27.6086 C   0  0  0  0  0  0  0  0  0  0  0  0
  -30.5920  -18.6370   22.8775 C   0  0  0  0  0  0  0  0  0  0  0  0
  -26.8049  -15.2348   21.0412 C   0  0  0  0  0  0  0  0  0  1  0  0
  -30.2358  -12.0726   21.0359 C   0  0  0  0  0  0  0  0  0  0  0  0
  -30.1779  -13.4485   20.3833 C   0  0  0  0  0  0  0  0  0  0  0  0
  -24.1876  -19.7157   26.2491 C   0  0  1  0  0  0  0  0  0  0  0  0
  -23.5227  -17.0819   28.8930 C   0  0  2  0  0  0  0  0  0  0  0  0
  -24.9255  -21.0359   26.6099 C   0  0  0  0  0  0  0  0  0  0  0  0
  -27.3622  -25.7545   20.2855 N   0  0  0  0  0  0  0  0  0  0  0  0
  -28.4478  -24.9897   20.0792 N   0  0  0  0  0  0  0  0  0  0  0  0
  -22.9672  -19.3397   24.1294 N   0  0  0  0  0  0  0  0  0  0  0  0
  -28.6215  -21.6471   21.9194 N   0  0  0  0  0  0  0  0  0  0  0  0
  -30.7233  -25.0764   19.4269 N   0  0  0  0  0  0  0  0  0  0  0  0
  -29.4177  -29.3953   19.2304 N   0  0  0  0  0  0  0  0  0  0  0  0
  -21.7945  -21.9776   22.3870 N   0  0  0  0  0  0  0  0  0  0  0  0
  -23.7292  -18.9524   27.4047 N   0  0  0  0  0  0  0  0  0  0  0  0
  -29.5325  -19.5361   22.4772 N   0  0  0  0  0  0  0  0  0  0  0  0
  -29.1012  -14.2854   20.9349 N   0  0  0  0  0  0  0  0  0  0  0  0
  -23.2670  -15.6225   28.7335 N   0  3  0  0  0  0  0  0  0  0  0  0
  -31.1811  -27.9664   18.9026 O   0  0  0  0  0  0  0  0  0  0  0  0
  -23.4360  -20.5373   21.5787 O   0  0  0  0  0  0  0  0  0  0  0  0
  -22.0505  -20.6529   25.8239 O   0  0  0  0  0  0  0  0  0  0  0  0
  -27.4321  -13.6127   19.4227 O   0  0  0  0  0  0  0  0  0  0  0  0
  -24.8938  -17.0104   26.9050 O   0  0  0  0  0  0  0  0  0  0  0  0
  -30.8512  -21.4108   22.5118 O   0  0  0  0  0  0  0  0  0  0  0  0
  -24.3386  -31.3573   20.4085 O   0  0  0  0  0  0  0  0  0  0  0  0
  -25.5408  -15.1696   20.3824 O   0  0  0  0  0  0  0  0  0  1  0  0
  -21.1407  -31.6842   24.8886 F   0  0  0  0  0  0  0  0  0  0  0  0
  -22.5179  -29.3629   21.0001 F   0  0  0  0  0  0  0  0  0  0  0  0
  -30.2312  -17.6403   25.7350 Cl  0  0  0  0  0  0  0  0  0  0  0  0
  -30.0733  -17.0948   20.3268 Cl  0  0  0  0  0  0  0  0  0  0  0  0
  1  2  1  0  0  0  0
  1  5  2  0  0  0  0
  2  6  2  0  0  0  0
  3  9  2  0  0  0  0
  3 17  1  0  0  0  0
  4 10  1  0  0  0  0
  4 17  2  0  0  0  0
  5 19  1  0  0  0  0
  6 21  1  0  0  0  0
  7 11  2  0  0  0  0
  7 20  1  0  0  0  0
  8 14  2  0  0  0  0
  8 24  1  0  0  0  0
  9 25  1  0  0  0  0
 10 25  2  0  0  0  0
 11 26  1  0  0  0  0
 12 13  2  0  0  0  0
 12 27  1  0  0  0  0
 13 28  1  0  0  0  0
 14 30  1  0  0  0  0
 15 22  1  0  0  0  0
 15 26  2  0  0  0  0
 16 28  2  0  0  0  0
 16 29  1  0  0  0  0
 17 32  1  0  0  0  0
 18 32  1  0  0  0  0
 18 33  2  0  0  0  0
 18 34  1  0  0  0  0
 19 21  2  0  0  0  0
 19 40  1  0  0  0  0
 20 22  2  0  0  0  0
 20 41  1  0  0  0  0
 21 49  1  0  0  0  0
 22 42  1  0  0  0  0
 23 30  2  0  0  0  0
 23 31  1  0  0  0  0
 23 58  1  0  0  0  0
 24 31  2  0  0  0  0
 24 74  1  0  0  0  0
 25 82  1  0  0  0  0
 26 83  1  0  0  0  0
 27 29  2  0  0  0  0
 27 82  1  0  0  0  0
 28 84  1  0  0  0  0
 29 85  1  0  0  0  0
 30 86  1  0  0  0  0
 31 87  1  0  0  0  0
 32 65  2  0  0  0  0
 33 66  1  0  0  0  0
 33 69  1  0  0  0  0
 34 70  1  0  0  0  0
 34 76  2  0  0  0  0
 35 50  1  0  0  0  0
 35 71  1  0  0  0  0
 35 77  2  0  0  0  0
 36 62  1  0  0  0  0
 36 67  1  0  0  0  0
 36 78  2  0  0  0  0
 37 59  1  0  0  0  0
 37 74  1  0  0  0  0
 37 79  2  0  0  0  0
 38 63  1  0  0  0  0
 38 72  1  0  0  0  0
 38 80  2  0  0  0  0
 39 68  1  0  0  0  0
 39 73  1  0  0  0  0
 39 81  2  0  0  0  0
 40 43  1  0  0  0  0
 41 50  1  0  0  0  0
 42 67  1  0  0  0  0
 43 45  1  0  0  0  0
 44 46  1  0  0  0  0
 44 47  1  0  0  0  0
 45 49  1  0  0  0  0
 46 51  1  0  0  0  0
 47 68  1  0  0  0  0
 48 51  1  0  0  0  0
 48 68  1  0  0  0  0
 49 71  1  0  0  0  0
 50 67  1  0  0  0  0
 51 66  1  0  0  0  0
 52 60  1  0  0  0  0
 53 63  1  0  0  0  0
 54 64  1  0  0  0  0
 55 64  1  0  0  0  0
 56 64  1  0  0  0  0
 57 75  1  0  0  0  0
 58 73  1  0  0  0  0
 59 83  1  0  0  0  0
 60 61  1  0  0  0  0
 61 74  1  0  0  0  0
 62 64  1  0  0  0  0
 62 72  1  0  0  0  0
 63 75  1  0  0  0  0
 65 66  1  0  0  0  0
M  CHG  1  75   1
M  ISO  4  39 100  59 101  73 100  83 101
M  END
> <Batch ID>
0026

> <Smiles>
CCCN(C(=O)[101CH2:1][101O:1]c1ccc2c(c1)CN(C(=O)C(NC(=O)C(C)NC)C(C)(C)C)C(C(=O)NC1CCCc3ccccc31)C2)c1ccc(Cl)c(C[100NH:0][100C:0](=O)N2CCCC(n3nc(-c4ccc(Oc5ccc(F)cc5F)cc4)c(C(N)=O)c3N)C2)c1Cl

> <Shape>
0.199

> <Color>
0.046

> <Negative vol penalty>
0.000

$$$$

  -OEChem-04042321253D

 92102  0     1  0  0  0  0  0999 V2000
  -23.5704   -7.8609   21.5326 C   0  0  0  0  0  0  0  0  0  0  0  0
  -24.0938   -8.8973   22.2989 C   0  0  0  0  0  0  0  0  0  0  0  0
  -24.2988  -30.7155   23.9561 C   0  0  0  0  0  0  0  0  0  0  0  0
  -23.8206  -32.1077   22.0404 C   0  0  0  0  0  0  0  0  0  0  0  0
  -22.7660   -8.1479   20.4305 C   0  0  0  0  0  0  0  0  0  0  0  0
  -23.8141  -10.2214   21.9629 C   0  0  0  0  0  0  0  0  0  0  0  0
  -23.0451  -14.9149   25.8212 C   0  0  0  0  0  0  0  0  0  0  0  0
  -23.9790  -31.7746   24.8056 C   0  0  0  0  0  0  0  0  0  0  0  0
  -23.5007  -33.1668   22.8899 C   0  0  0  0  0  0  0  0  0  0  0  0
  -23.9023  -15.9279   26.2486 C   0  0  0  0  0  0  0  0  0  0  0  0
  -25.1541  -35.4785   24.7210 C   0  0  0  0  0  0  0  0  0  0  0  0
  -25.6664  -36.7376   24.4083 C   0  0  0  0  0  0  0  0  0  0  0  0
  -22.9936  -17.3984   24.5660 C   0  0  0  0  0  0  0  0  0  0  0  0
  -28.1181  -20.9004   19.6713 C   0  0  0  0  0  0  0  0  0  0  0  0
  -28.5634  -21.8264   22.2650 C   0  0  0  0  0  0  0  0  0  0  0  0
  -23.4195  -37.6083   24.2332 C   0  0  0  0  0  0  0  0  0  0  0  0
  -24.2197  -30.8821   22.5735 C   0  0  0  0  0  0  0  0  0  0  0  0
  -23.6764  -28.8037   21.1976 C   0  0  0  0  0  0  0  0  0  0  0  0
  -22.4684   -9.4759   20.0865 C   0  0  0  0  0  0  0  0  0  0  0  0
  -22.1618  -15.1329   24.7540 C   0  0  0  0  0  0  0  0  0  0  0  0
  -23.0061  -10.5264   20.8544 C   0  0  0  0  0  0  0  0  0  0  0  0
  -22.1244  -16.3874   24.1287 C   0  0  0  0  0  0  0  0  0  0  0  0
  -28.8923  -22.0416   19.8811 C   0  0  0  0  0  0  0  0  0  0  0  0
  -29.1149  -22.5046   21.1779 C   0  0  0  0  0  0  0  0  0  0  0  0
  -27.5665  -20.2223   20.7584 C   0  0  0  0  0  0  0  0  0  0  0  0
  -27.7892  -20.6852   22.0552 C   0  0  0  0  0  0  0  0  0  0  0  0
  -23.5799  -33.0002   24.2725 C   0  0  0  0  0  0  0  0  0  0  0  0
  -23.8787  -17.1690   25.6191 C   0  0  0  0  0  0  0  0  0  0  0  0
  -23.7745  -35.2843   24.7898 C   0  0  0  0  0  0  0  0  0  0  0  0
  -24.7991  -37.8025   24.1644 C   0  0  0  0  0  0  0  0  0  0  0  0
  -22.9073  -36.3492   24.5459 C   0  0  0  0  0  0  0  0  0  0  0  0
  -24.5505  -29.7886   21.6954 C   0  0  0  0  0  0  0  0  0  0  0  0
  -24.4718  -28.0023   20.4156 C   0  0  0  0  0  0  0  0  0  0  0  0
  -22.2711  -28.6290   21.4220 C   0  0  0  0  0  0  0  0  0  0  0  0
  -21.7726  -13.8586   21.8682 C   0  0  0  0  0  0  0  0  0  0  0  0
  -19.1486  -15.7648   21.8081 C   0  0  0  0  0  0  0  0  0  0  0  0
  -17.5660  -18.5535   22.9767 C   0  0  0  0  0  0  0  0  0  0  0  0
  -29.7784  -25.8406   20.1704 C   0  0  0  0  0  0  0  0  0  0  0  0
  -21.6330   -9.7380   18.8585 C   0  0  0  0  0  0  0  0  0  0  0  0
  -21.2248  -14.0384   24.3225 C   0  0  0  0  0  0  0  0  0  0  0  0
  -21.1805  -16.6788   22.9917 C   0  0  0  0  0  0  0  0  0  0  0  0
  -21.0776  -11.1583   18.7913 C   0  0  0  0  0  0  0  0  0  0  0  0
  -25.9979  -17.0522   19.5740 C   0  0  0  0  0  0  0  0  0  0  0  0
  -25.0965  -17.4275   20.7328 C   0  0  0  0  0  0  0  0  0  0  0  0
  -28.8210  -28.5313   18.1538 C   0  0  0  0  0  0  0  0  0  0  0  0
  -22.1689  -12.1741   19.1137 C   0  0  0  0  0  0  0  0  0  0  0  0
  -27.5447  -29.0538   18.8102 C   0  0  0  0  0  0  0  0  0  0  0  0
  -28.4114  -25.1980   23.5173 C   0  0  0  0  0  0  0  0  0  0  0  0
  -28.3014  -26.5484   22.8766 C   0  0  0  0  0  0  0  0  0  0  0  0
  -27.2630  -17.8538   19.8584 C   0  0  0  0  0  0  0  0  0  0  0  0
  -25.3809  -18.9143   20.9125 C   0  0  0  0  0  0  0  0  0  0  0  0
  -29.8424  -28.1181   19.2059 C   0  0  0  0  0  0  0  0  0  0  0  0
  -28.0487  -27.5841   20.8278 C   0  0  0  0  0  0  0  0  0  0  0  0
  -22.7050  -11.9750   20.5365 C   0  0  1  0  0  0  0  0  0  0  0  0
  -20.7278  -14.2076   22.8901 C   0  0  1  0  0  0  0  0  0  0  0  0
  -26.9811  -28.0263   19.8059 C   0  0  1  0  0  0  0  0  0  0  0  0
  -28.1575  -25.3028   22.0290 C   0  0  0  0  0  0  0  0  0  0  0  0
  -29.4719  -22.7522   18.7024 C   0  0  0  0  0  0  0  0  0  0  0  0
  -26.7806  -24.9539   21.5332 C   0  0  0  0  0  0  0  0  0  0  0  0
  -15.4475  -19.8725   22.7130 C   0  0  0  0  0  0  0  0  0  0  0  0
  -20.1815  -16.8913   19.1672 C   0  0  0  0  0  0  0  0  0  0  0  0
  -18.5896  -18.8042   19.4407 C   0  0  0  0  0  0  0  0  0  0  0  0
  -17.7160  -16.4770   19.2315 C   0  0  0  0  0  0  0  0  0  0  0  0
  -16.8208  -18.1431   25.8113 C   0  0  0  0  0  0  0  0  0  0  0  0
  -29.9412  -23.7234   21.4277 C   0  0  0  0  0  0  0  0  0  0  0  0
  -26.5174  -19.6298   25.4443 C   0  0  0  0  0  0  0  0  0  0  0  0
  -27.0756  -20.6364   24.4456 C   0  0  0  0  0  0  0  0  0  0  0  0
  -25.1424  -19.1022   25.0518 C   0  0  0  0  0  0  0  0  0  1  0  0
  -18.8662  -17.1816   21.3699 C   0  0  1  0  0  0  0  0  0  0  0  0
  -16.1531  -18.7702   23.4876 C   0  0  2  0  0  0  0  0  0  0  0  0
  -18.8576  -17.3327   19.8224 C   0  0  0  0  0  0  0  0  0  0  0  0
  -25.8051  -29.6293   21.2658 N   0  0  0  0  0  0  0  0  0  0  0  0
  -25.7252  -28.5349   20.4899 N   0  0  0  0  0  0  0  0  0  0  0  0
  -26.7881  -19.0725   20.5251 N   0  0  0  0  0  0  0  0  0  0  0  0
  -20.2884  -15.5744   22.6020 N   0  0  0  0  0  0  0  0  0  0  0  0
  -29.2783  -27.1506   20.1481 N   0  0  0  0  0  0  0  0  0  0  0  0
  -24.2144  -26.9010   19.6786 N   0  0  0  0  0  0  0  0  0  0  0  0
  -21.6084  -29.5430   22.2525 N   0  0  0  0  0  0  0  0  0  0  0  0
  -27.2509  -20.0265   23.1496 N   0  0  0  0  0  0  0  0  0  0  0  0
  -21.7820  -12.5252   21.5060 N   0  0  0  0  0  0  0  0  0  0  0  0
  -17.6156  -17.5667   22.0149 N   0  0  0  0  0  0  0  0  0  0  0  0
  -29.2237  -24.9526   21.1080 N   0  0  0  0  0  0  0  0  0  0  0  0
  -16.1758  -19.1491   24.9288 N   0  3  0  0  0  0  0  0  0  0  0  0
  -21.6257  -27.6807   20.9145 O   0  0  0  0  0  0  0  0  0  0  0  0
  -22.5142  -14.7347   21.4389 O   0  0  0  0  0  0  0  0  0  0  0  0
  -18.3820  -14.8614   21.4647 O   0  0  0  0  0  0  0  0  0  0  0  0
  -18.5289  -19.1978   23.3869 O   0  0  0  0  0  0  0  0  0  0  0  0
  -30.6878  -25.4843   19.4096 O   0  0  0  0  0  0  0  0  0  0  0  0
  -23.2675  -34.0338   25.1012 O   0  0  0  0  0  0  0  0  0  0  0  0
  -24.7149  -18.1593   26.0339 O   0  0  0  0  0  0  0  0  0  1  0  0
  -25.2913  -39.0119   23.8656 F   0  0  0  0  0  0  0  0  0  0  0  0
  -21.5810  -36.1689   24.6116 F   0  0  0  0  0  0  0  0  0  0  0  0
  1  2  1  0  0  0  0
  1  5  2  0  0  0  0
  2  6  2  0  0  0  0
  3  8  2  0  0  0  0
  3 17  1  0  0  0  0
  4  9  1  0  0  0  0
  4 17  2  0  0  0  0
  5 19  1  0  0  0  0
  6 21  1  0  0  0  0
  7 10  2  0  0  0  0
  7 20  1  0  0  0  0
  8 27  1  0  0  0  0
  9 27  2  0  0  0  0
 10 28  1  0  0  0  0
 11 12  2  0  0  0  0
 11 29  1  0  0  0  0
 12 30  1  0  0  0  0
 13 22  1  0  0  0  0
 13 28  2  0  0  0  0
 14 23  2  0  0  0  0
 14 25  1  0  0  0  0
 15 24  2  0  0  0  0
 15 26  1  0  0  0  0
 16 30  2  0  0  0  0
 16 31  1  0  0  0  0
 17 32  1  0  0  0  0
 18 32  1  0  0  0  0
 18 33  2  0  0  0  0
 18 34  1  0  0  0  0
 19 21  2  0  0  0  0
 19 39  1  0  0  0  0
 20 22  2  0  0  0  0
 20 40  1  0  0  0  0
 21 54  1  0  0  0  0
 22 41  1  0  0  0  0
 23 24  1  0  0  0  0
 23 58  1  0  0  0  0
 24 65  1  0  0  0  0
 25 26  2  0  0  0  0
 25 74  1  0  0  0  0
 26 79  1  0  0  0  0
 27 89  1  0  0  0  0
 28 90  1  0  0  0  0
 29 31  2  0  0  0  0
 29 89  1  0  0  0  0
 30 91  1  0  0  0  0
 31 92  1  0  0  0  0
 32 72  2  0  0  0  0
 33 73  1  0  0  0  0
 33 77  1  0  0  0  0
 34 78  1  0  0  0  0
 34 84  2  0  0  0  0
 35 55  1  0  0  0  0
 35 80  1  0  0  0  0
 35 85  2  0  0  0  0
 36 69  1  0  0  0  0
 36 75  1  0  0  0  0
 36 86  2  0  0  0  0
 37 70  1  0  0  0  0
 37 81  1  0  0  0  0
 37 87  2  0  0  0  0
 38 76  1  0  0  0  0
 38 82  1  0  0  0  0
 38 88  2  0  0  0  0
 39 42  1  0  0  0  0
 40 55  1  0  0  0  0
 41 75  1  0  0  0  0
 42 46  1  0  0  0  0
 43 44  1  0  0  0  0
 43 50  1  0  0  0  0
 44 51  1  0  0  0  0
 45 47  1  0  0  0  0
 45 52  1  0  0  0  0
 46 54  1  0  0  0  0
 47 56  1  0  0  0  0
 48 49  1  0  0  0  0
 48 57  1  0  0  0  0
 49 57  1  0  0  0  0
 50 74  1  0  0  0  0
 51 74  1  0  0  0  0
 52 76  1  0  0  0  0
 53 56  1  0  0  0  0
 53 76  1  0  0  0  0
 54 80  1  0  0  0  0
 55 75  1  0  0  0  0
 56 73  1  0  0  0  0
 57 59  1  0  0  0  0
 57 82  1  0  0  0  0
 60 70  1  0  0  0  0
 61 71  1  0  0  0  0
 62 71  1  0  0  0  0
 63 71  1  0  0  0  0
 64 83  1  0  0  0  0
 65 82  1  0  0  0  0
 66 67  1  0  0  0  0
 66 68  1  0  0  0  0
 67 79  1  0  0  0  0
 68 90  1  0  0  0  0
 69 71  1  0  0  0  0
 69 81  1  0  0  0  0
 70 83  1  0  0  0  0
 72 73  1  0  0  0  0
M  CHG  1  83   1
M  ISO  4  38 100  68 101  82 100  90 101
M  END
> <Batch ID>
0026

> <Smiles>
CNC(C)C(=O)NC(C(=O)N1Cc2cc([101O:1][101CH2:1]CCNc3cc(C[100N:0]([100C:0](=O)N4CCCC(n5nc(-c6ccc(Oc7ccc(F)cc7F)cc6)c(C(N)=O)c5N)C4)C4(C)CC4)c(C)cc3N3CCCC3)ccc2CC1C(=O)NC1CCCc2ccccc21)C(C)(C)C

> <Shape>
0.224

> <Color>
0.086

> <Negative vol penalty>
0.000

$$$$

  -OEChem-04042321253D

 89 98  0     1  0  0  0  0  0999 V2000
  -27.8596  -31.4190   28.3688 C   0  0  0  0  0  0  0  0  0  0  0  0
  -28.0044  -30.4725   27.3595 C   0  0  0  0  0  0  0  0  0  0  0  0
  -24.6108   -8.9227   22.0816 C   0  0  0  0  0  0  0  0  0  0  0  0
  -23.5856   -9.3879   19.9439 C   0  0  0  0  0  0  0  0  0  0  0  0
  -26.6305  -32.0484   28.5615 C   0  0  0  0  0  0  0  0  0  0  0  0
  -26.9198  -30.1542   26.5429 C   0  0  0  0  0  0  0  0  0  0  0  0
  -27.0927  -28.6783   20.6018 C   0  0  0  0  0  0  0  0  0  0  0  0
  -23.4600   -8.2466   22.4865 C   0  0  0  0  0  0  0  0  0  0  0  0
  -22.4347   -8.7117   20.3488 C   0  0  0  0  0  0  0  0  0  0  0  0
  -27.0684  -27.4520   19.9388 C   0  0  0  0  0  0  0  0  0  0  0  0
  -22.0511   -5.2123   21.9956 C   0  0  0  0  0  0  0  0  0  0  0  0
  -22.2126   -3.9838   22.6361 C   0  0  0  0  0  0  0  0  0  0  0  0
  -24.6866  -27.6743   19.6276 C   0  0  0  0  0  0  0  0  0  0  0  0
  -23.9923  -17.2442   15.2586 C   0  0  0  0  0  0  0  0  0  0  0  0
  -25.2827  -18.3725   17.4596 C   0  0  0  0  0  0  0  0  0  0  0  0
  -21.0900   -4.8551   24.5901 C   0  0  0  0  0  0  0  0  0  0  0  0
  -24.6736   -9.4935   20.8104 C   0  0  0  0  0  0  0  0  0  0  0  0
  -26.9821   -9.6479   19.7358 C   0  0  0  0  0  0  0  0  0  0  0  0
  -25.5330  -31.7447   27.7407 C   0  0  0  0  0  0  0  0  0  0  0  0
  -25.9104  -29.4078   20.7925 C   0  0  0  0  0  0  0  0  0  0  0  0
  -25.6745  -30.7793   26.7257 C   0  0  0  0  0  0  0  0  0  0  0  0
  -24.6990  -28.9107   20.2910 C   0  0  0  0  0  0  0  0  0  0  0  0
  -23.8442  -18.6039   15.5323 C   0  0  0  0  0  0  0  0  0  0  0  0
  -24.4894  -19.1681   16.6328 C   0  0  0  0  0  0  0  0  0  0  0  0
  -25.4308  -17.0128   17.1858 C   0  0  0  0  0  0  0  0  0  0  0  0
  -22.3720   -8.1410   21.6200 C   0  0  0  0  0  0  0  0  0  0  0  0
  -25.8648  -26.9485   19.4542 C   0  0  0  0  0  0  0  0  0  0  0  0
  -21.4091   -6.2622   22.6523 C   0  0  0  0  0  0  0  0  0  0  0  0
  -21.7320   -3.8052   23.9334 C   0  0  0  0  0  0  0  0  0  0  0  0
  -24.7855  -16.4487   16.0853 C   0  0  0  0  0  0  0  0  0  0  0  0
  -20.9285   -6.0836   23.9495 C   0  0  0  0  0  0  0  0  0  0  0  0
  -25.8620  -10.1926   20.3918 C   0  0  0  0  0  0  0  0  0  0  0  0
  -27.8296  -10.7144   19.5605 C   0  0  0  0  0  0  0  0  0  0  0  0
  -24.5427  -22.6827   17.9507 C   0  0  0  0  0  0  0  0  0  0  0  0
  -24.9954  -23.5317   18.8836 C   0  0  0  0  0  0  0  0  0  0  0  0
  -27.2340   -8.2985   19.3219 C   0  0  0  0  0  0  0  0  0  0  0  0
  -24.9318  -21.2415   17.9844 C   0  0  0  0  0  0  0  0  0  0  0  0
  -24.2711  -30.3998   23.3288 C   0  0  0  0  0  0  0  0  0  0  0  0
  -22.4854  -31.9253   21.0913 C   0  0  0  0  0  0  0  0  0  0  0  0
  -21.4243  -32.0928   17.8520 C   0  0  0  0  0  0  0  0  0  0  0  0
  -26.9429  -16.6101   19.1600 C   0  0  0  0  0  0  0  0  0  0  0  0
  -24.2115  -32.4167   28.0177 C   0  0  0  0  0  0  0  0  0  0  0  0
  -25.9576  -30.7416   21.4862 C   0  0  0  0  0  0  0  0  0  0  0  0
  -23.4051  -29.6646   20.4520 C   0  0  0  0  0  0  0  0  0  0  0  0
  -23.2142  -32.2962   26.8683 C   0  0  0  0  0  0  0  0  0  0  0  0
  -21.1417  -20.2449   13.5533 C   0  0  0  0  0  0  0  0  0  0  0  0
  -22.3627  -21.0285   13.1159 C   0  0  0  0  0  0  0  0  0  0  0  0
  -29.0078  -14.9227   21.5193 C   0  0  0  0  0  0  0  0  0  0  0  0
  -23.1646  -30.8614   26.3527 C   0  0  0  0  0  0  0  0  0  0  0  0
  -28.5415  -13.4676   21.4338 C   0  0  0  0  0  0  0  0  0  0  0  0
  -21.5982  -19.6144   14.8640 C   0  0  0  0  0  0  0  0  0  0  0  0
  -23.5112  -20.0991   13.4916 C   0  0  0  0  0  0  0  0  0  0  0  0
  -27.8448  -15.9010   21.3643 C   0  0  0  0  0  0  0  0  0  0  0  0
  -26.5506  -14.2417   20.0832 C   0  0  0  0  0  0  0  0  0  0  0  0
  -24.5282  -30.4251   25.8034 C   0  0  1  0  0  0  0  0  0  0  0  0
  -24.6132  -31.1561   22.0763 C   0  0  1  0  0  0  0  0  0  0  0  0
  -27.6963  -13.2200   20.1689 C   0  0  2  0  0  0  0  0  0  0  0  0
  -19.9385  -33.4271   16.3323 C   0  0  0  0  0  0  0  0  0  0  0  0
  -20.0334  -30.5814   22.3126 C   0  0  0  0  0  0  0  0  0  0  0  0
  -18.7643  -31.1668   20.2354 C   0  0  0  0  0  0  0  0  0  0  0  0
  -19.7009  -32.9765   21.6743 C   0  0  0  0  0  0  0  0  0  0  0  0
  -23.6944  -32.8592   16.1146 C   0  0  0  0  0  0  0  0  0  0  0  0
  -24.6401  -24.9834   18.9115 C   0  0  0  0  0  0  0  0  0  1  0  0
  -21.2674  -31.5719   20.2724 C   0  0  1  0  0  0  0  0  0  0  0  0
  -21.3482  -33.2528   16.8757 C   0  0  2  0  0  0  0  0  0  0  0  0
  -19.9654  -31.5588   21.1222 C   0  0  0  0  0  0  0  0  0  0  0  0
  -25.9838  -11.5033   20.6180 N   0  0  0  0  0  0  0  0  0  0  0  0
  -27.1906  -11.7911   20.1014 N   0  0  0  0  0  0  0  0  0  0  0  0
  -23.0376  -19.3875   14.6851 N   0  0  0  0  0  0  0  0  0  0  0  0
  -23.5020  -30.9611   21.1428 N   0  0  0  0  0  0  0  0  0  0  0  0
  -27.0921  -15.6085   20.1425 N   0  0  0  0  0  0  0  0  0  0  0  0
  -29.0517  -10.8269   18.9981 N   0  0  0  0  0  0  0  0  0  0  0  0
  -26.2572   -7.3271   19.5798 N   0  0  0  0  0  0  0  0  0  0  0  0
  -24.3534  -20.5463   16.9304 N   0  0  0  0  0  0  0  0  0  0  0  0
  -26.2361  -16.2064   18.0278 N   0  0  0  0  0  0  0  0  0  0  0  0
  -24.7455  -30.9855   24.4869 N   0  0  0  0  0  0  0  0  0  0  0  0
  -21.2416  -32.5083   19.1540 N   0  0  0  0  0  0  0  0  0  0  0  0
  -22.2698  -33.0243   15.7270 N   0  3  0  0  0  0  0  0  0  0  0  0
  -28.3010   -7.9609   18.7552 O   0  0  0  0  0  0  0  0  0  0  0  0
  -25.6691  -20.8017   18.8587 O   0  0  0  0  0  0  0  0  0  0  0  0
  -23.6234  -29.3625   23.2503 O   0  0  0  0  0  0  0  0  0  0  0  0
  -22.5362  -33.0197   21.6583 O   0  0  0  0  0  0  0  0  0  0  0  0
  -21.6221  -30.9336   17.4950 O   0  0  0  0  0  0  0  0  0  0  0  0
  -27.4314  -17.7343   19.2999 O   0  0  0  0  0  0  0  0  0  0  0  0
  -21.2489   -7.4810   22.0147 O   0  0  0  0  0  0  0  0  0  0  0  0
  -25.8382  -25.7515   18.8073 O   0  0  0  0  0  0  0  0  0  1  0  0
  -21.8858   -2.6249   24.5478 F   0  0  0  0  0  0  0  0  0  0  0  0
  -24.9196  -15.1427   15.8132 F   0  0  0  0  0  0  0  0  0  0  0  0
  -20.3099   -7.0882   24.5850 F   0  0  0  0  0  0  0  0  0  0  0  0
  1  2  1  0  0  0  0
  1  5  2  0  0  0  0
  2  6  2  0  0  0  0
  3  8  2  0  0  0  0
  3 17  1  0  0  0  0
  4  9  1  0  0  0  0
  4 17  2  0  0  0  0
  5 19  1  0  0  0  0
  6 21  1  0  0  0  0
  7 10  2  0  0  0  0
  7 20  1  0  0  0  0
  8 26  1  0  0  0  0
  9 26  2  0  0  0  0
 10 27  1  0  0  0  0
 11 12  2  0  0  0  0
 11 28  1  0  0  0  0
 12 29  1  0  0  0  0
 13 22  1  0  0  0  0
 13 27  2  0  0  0  0
 14 23  1  0  0  0  0
 14 30  2  0  0  0  0
 15 24  1  0  0  0  0
 15 25  2  0  0  0  0
 16 29  2  0  0  0  0
 16 31  1  0  0  0  0
 17 32  1  0  0  0  0
 18 32  1  0  0  0  0
 18 33  2  0  0  0  0
 18 36  1  0  0  0  0
 19 21  2  0  0  0  0
 19 42  1  0  0  0  0
 20 22  2  0  0  0  0
 20 43  1  0  0  0  0
 21 55  1  0  0  0  0
 22 44  1  0  0  0  0
 23 24  2  0  0  0  0
 23 69  1  0  0  0  0
 24 74  1  0  0  0  0
 25 30  1  0  0  0  0
 25 75  1  0  0  0  0
 26 85  1  0  0  0  0
 27 86  1  0  0  0  0
 28 31  2  0  0  0  0
 28 85  1  0  0  0  0
 29 87  1  0  0  0  0
 30 88  1  0  0  0  0
 31 89  1  0  0  0  0
 32 67  2  0  0  0  0
 33 68  1  0  0  0  0
 33 72  1  0  0  0  0
 34 35  2  0  0  0  0
 34 37  1  0  0  0  0
 35 63  1  0  0  0  0
 36 73  1  0  0  0  0
 36 79  2  0  0  0  0
 37 74  1  0  0  0  0
 37 80  2  0  0  0  0
 38 56  1  0  0  0  0
 38 76  1  0  0  0  0
 38 81  2  0  0  0  0
 39 64  1  0  0  0  0
 39 70  1  0  0  0  0
 39 82  2  0  0  0  0
 40 65  1  0  0  0  0
 40 77  1  0  0  0  0
 40 83  2  0  0  0  0
 41 71  1  0  0  0  0
 41 75  1  0  0  0  0
 41 84  2  0  0  0  0
 42 45  1  0  0  0  0
 43 56  1  0  0  0  0
 44 70  1  0  0  0  0
 45 49  1  0  0  0  0
 46 47  1  0  0  0  0
 46 51  1  0  0  0  0
 47 52  1  0  0  0  0
 48 50  1  0  0  0  0
 48 53  1  0  0  0  0
 49 55  1  0  0  0  0
 50 57  1  0  0  0  0
 51 69  1  0  0  0  0
 52 69  1  0  0  0  0
 53 71  1  0  0  0  0
 54 57  1  0  0  0  0
 54 71  1  0  0  0  0
 55 76  1  0  0  0  0
 56 70  1  0  0  0  0
 57 68  1  0  0  0  0
 58 65  1  0  0  0  0
 59 66  1  0  0  0  0
 60 66  1  0  0  0  0
 61 66  1  0  0  0  0
 62 78  1  0  0  0  0
 63 86  1  0  0  0  0
 64 66  1  0  0  0  0
 64 77  1  0  0  0  0
 65 78  1  0  0  0  0
 67 68  1  0  0  0  0
M  CHG  1  78   1
M  ISO  4  41 100  63 101  75 100  86 101
M  END
> <Batch ID>
0026

> <Smiles>
CNC(C)C(=O)NC(C(=O)N1Cc2cc([101O:1][101CH2:1]C=CC(=O)Nc3cc([100NH:0][100C:0](=O)N4CCCC(n5nc(-c6ccc(Oc7ccc(F)cc7F)cc6)c(C(N)=O)c5N)C4)c(F)cc3N3CCCC3)ccc2CC1C(=O)NC1CCCc2ccccc21)C(C)(C)C

> <Shape>
0.224

> <Color>
0.111

> <Negative vol penalty>
0.000

$$$$

  -OEChem-04042321253D

 85 94  0     1  0  0  0  0  0999 V2000
  -33.6095  -31.1187   16.9700 C   0  0  0  0  0  0  0  0  0  0  0  0
  -33.6454  -29.7728   17.3200 C   0  0  0  0  0  0  0  0  0  0  0  0
  -23.8010   -9.4298   20.6021 C   0  0  0  0  0  0  0  0  0  0  0  0
  -24.3848  -10.0604   22.8601 C   0  0  0  0  0  0  0  0  0  0  0  0
  -32.5284  -31.9098   17.3568 C   0  0  0  0  0  0  0  0  0  0  0  0
  -32.6008  -29.2173   18.0580 C   0  0  0  0  0  0  0  0  0  0  0  0
  -30.9739  -16.3038   25.2084 C   0  0  0  0  0  0  0  0  0  0  0  0
  -30.3862  -23.5263   17.5959 C   0  0  0  0  0  0  0  0  0  0  0  0
  -30.5883  -15.3023   24.3158 C   0  0  0  0  0  0  0  0  0  0  0  0
  -23.3480   -8.1942   21.0643 C   0  0  0  0  0  0  0  0  0  0  0  0
  -23.9318   -8.8248   23.3223 C   0  0  0  0  0  0  0  0  0  0  0  0
  -30.6105  -22.3692   18.3405 C   0  0  0  0  0  0  0  0  0  0  0  0
  -20.5971   -6.9646   22.5984 C   0  0  0  0  0  0  0  0  0  0  0  0
  -19.3760   -6.4983   22.1115 C   0  0  0  0  0  0  0  0  0  0  0  0
  -31.7762  -16.4033   22.4999 C   0  0  0  0  0  0  0  0  0  0  0  0
  -28.6379  -22.8356   19.6483 C   0  0  0  0  0  0  0  0  0  0  0  0
  -20.4801   -4.5475   21.2102 C   0  0  0  0  0  0  0  0  0  0  0  0
  -24.3194  -10.3629   21.5000 C   0  0  0  0  0  0  0  0  0  0  0  0
  -24.0385  -12.8231   20.8865 C   0  0  0  0  0  0  0  0  0  0  0  0
  -31.4654  -31.3615   18.0916 C   0  0  0  0  0  0  0  0  0  0  0  0
  -31.7453  -17.3500   24.7293 C   0  0  0  0  0  0  0  0  0  0  0  0
  -29.2903  -24.3539   17.8795 C   0  0  0  0  0  0  0  0  0  0  0  0
  -31.5051  -30.0021   18.4561 C   0  0  0  0  0  0  0  0  0  0  0  0
  -32.1415  -17.4053   23.3860 C   0  0  0  0  0  0  0  0  0  0  0  0
  -28.4004  -24.0014   18.9041 C   0  0  0  0  0  0  0  0  0  0  0  0
  -30.9875  -15.3511   22.9715 C   0  0  0  0  0  0  0  0  0  0  0  0
  -23.4134   -7.8917   22.4244 C   0  0  0  0  0  0  0  0  0  0  0  0
  -29.7379  -22.0252   19.3688 C   0  0  0  0  0  0  0  0  0  0  0  0
  -21.7598   -6.2223   22.3911 C   0  0  0  0  0  0  0  0  0  0  0  0
  -19.3174   -5.2898   21.4175 C   0  0  0  0  0  0  0  0  0  0  0  0
  -21.7013   -5.0138   21.6971 C   0  0  0  0  0  0  0  0  0  0  0  0
  -24.7880  -11.6393   21.0231 C   0  0  0  0  0  0  0  0  0  0  0  0
  -24.9347  -13.7426   20.3988 C   0  0  0  0  0  0  0  0  0  0  0  0
  -22.6558  -13.0696   21.1747 C   0  0  0  0  0  0  0  0  0  0  0  0
  -28.9416  -27.3673   18.8290 C   0  0  0  0  0  0  0  0  0  0  0  0
  -25.7945  -26.7452   18.3480 C   0  0  0  0  0  0  0  0  0  0  0  0
  -31.4670  -19.7610   21.5824 C   0  0  0  0  0  0  0  0  0  0  0  0
  -23.2981  -24.4275   18.1411 C   0  0  0  0  0  0  0  0  0  0  0  0
  -30.8824  -14.2160   20.7250 C   0  0  0  0  0  0  0  0  0  0  0  0
  -30.3410  -32.2672   18.5276 C   0  0  0  0  0  0  0  0  0  0  0  0
  -32.3081  -18.4999   25.5038 C   0  0  0  0  0  0  0  0  0  0  0  0
  -29.0472  -25.5846   17.0495 C   0  0  0  0  0  0  0  0  0  0  0  0
  -27.1977  -24.8454   19.2353 C   0  0  0  0  0  0  0  0  0  0  0  0
  -29.0951  -31.5138   18.9865 C   0  0  0  0  0  0  0  0  0  0  0  0
  -32.6714  -19.4703   24.3715 C   0  0  0  0  0  0  0  0  0  0  0  0
  -28.9186  -14.0534   17.7595 C   0  0  0  0  0  0  0  0  0  0  0  0
  -29.4754  -30.3802   19.9336 C   0  0  0  0  0  0  0  0  0  0  0  0
  -27.5664  -13.5294   18.2484 C   0  0  0  0  0  0  0  0  0  0  0  0
  -30.0819  -13.4122   18.5141 C   0  0  0  0  0  0  0  0  0  0  0  0
  -28.6440  -12.9758   20.4664 C   0  0  0  0  0  0  0  0  0  0  0  0
  -30.3791  -29.3572   19.2348 C   0  0  1  0  0  0  0  0  0  0  0  0
  -33.0112  -18.6048   23.1433 C   0  0  2  0  0  0  0  0  0  0  0  0
  -28.1884  -26.6253   17.7613 C   0  0  1  0  0  0  0  0  0  0  0  0
  -27.4394  -13.6407   19.7804 C   0  0  2  0  0  0  0  0  0  0  0  0
  -20.8237  -24.2247   17.7756 C   0  0  0  0  0  0  0  0  0  0  0  0
  -25.2967  -27.7082   21.2002 C   0  0  0  0  0  0  0  0  0  0  0  0
  -23.0473  -26.6133   21.1030 C   0  0  0  0  0  0  0  0  0  0  0  0
  -23.5978  -28.4698   19.5305 C   0  0  0  0  0  0  0  0  0  0  0  0
  -33.8892  -19.4603   21.0275 C   0  0  0  0  0  0  0  0  0  0  0  0
  -23.6750  -22.7949   15.7015 C   0  0  0  0  0  0  0  0  0  0  0  0
  -31.3094  -20.4772   20.2576 C   0  0  0  0  0  0  0  0  0  1  0  0
  -24.6697  -26.2044   19.1973 C   0  0  1  0  0  0  0  0  0  0  0  0
  -22.1950  -24.2237   17.1182 C   0  0  2  0  0  0  0  0  0  0  0  0
  -24.1765  -27.2338   20.2530 C   0  0  0  0  0  0  0  0  0  0  0  0
  -26.0622  -11.7900   20.6520 N   0  0  0  0  0  0  0  0  0  0  0  0
  -26.1203  -13.0794   20.2774 N   0  0  0  0  0  0  0  0  0  0  0  0
  -27.0065  -26.0422   18.3994 N   0  0  0  0  0  0  0  0  0  0  0  0
  -29.8954  -13.5602   19.9592 N   0  0  0  0  0  0  0  0  0  0  0  0
  -24.8164  -15.0456   20.0663 N   0  0  0  0  0  0  0  0  0  0  0  0
  -21.8780  -12.0140   21.6698 N   0  0  0  0  0  0  0  0  0  0  0  0
  -30.5807  -14.3259   22.0820 N   0  0  0  0  0  0  0  0  0  0  0  0
  -29.5966  -28.4959   18.3744 N   0  0  0  0  0  0  0  0  0  0  0  0
  -23.6360  -25.7581   18.2696 N   0  0  0  0  0  0  0  0  0  0  0  0
  -32.7387  -19.2907   21.9113 N   0  0  0  0  0  0  0  0  0  0  0  0
  -22.3769  -22.9238   16.4124 N   0  3  0  0  0  0  0  0  0  0  0  0
  -22.1217  -14.1882   20.9828 O   0  0  0  0  0  0  0  0  0  0  0  0
  -28.9281  -26.9478   19.9803 O   0  0  0  0  0  0  0  0  0  0  0  0
  -25.6026  -27.7500   17.6588 O   0  0  0  0  0  0  0  0  0  0  0  0
  -30.4766  -19.6325   22.3086 O   0  0  0  0  0  0  0  0  0  0  0  0
  -23.8063  -23.4995   18.7665 O   0  0  0  0  0  0  0  0  0  0  0  0
  -31.9064  -14.6724   20.2101 O   0  0  0  0  0  0  0  0  0  0  0  0
  -22.9712   -6.6861   22.8758 O   0  0  0  0  0  0  0  0  0  0  0  0
  -29.9549  -20.8966   20.0976 O   0  0  0  0  0  0  0  0  0  1  0  0
  -18.1445   -4.8415   20.9513 F   0  0  0  0  0  0  0  0  0  0  0  0
  -22.8147   -4.2957   21.4959 F   0  0  0  0  0  0  0  0  0  0  0  0
  1  2  1  0  0  0  0
  1  5  2  0  0  0  0
  2  6  2  0  0  0  0
  3 10  2  0  0  0  0
  3 18  1  0  0  0  0
  4 11  1  0  0  0  0
  4 18  2  0  0  0  0
  5 20  1  0  0  0  0
  6 23  1  0  0  0  0
  7  9  2  0  0  0  0
  7 21  1  0  0  0  0
  8 12  2  0  0  0  0
  8 22  1  0  0  0  0
  9 26  1  0  0  0  0
 10 27  1  0  0  0  0
 11 27  2  0  0  0  0
 12 28  1  0  0  0  0
 13 14  2  0  0  0  0
 13 29  1  0  0  0  0
 14 30  1  0  0  0  0
 15 24  1  0  0  0  0
 15 26  2  0  0  0  0
 16 25  1  0  0  0  0
 16 28  2  0  0  0  0
 17 30  2  0  0  0  0
 17 31  1  0  0  0  0
 18 32  1  0  0  0  0
 19 32  1  0  0  0  0
 19 33  2  0  0  0  0
 19 34  1  0  0  0  0
 20 23  2  0  0  0  0
 20 40  1  0  0  0  0
 21 24  2  0  0  0  0
 21 41  1  0  0  0  0
 22 25  2  0  0  0  0
 22 42  1  0  0  0  0
 23 51  1  0  0  0  0
 24 52  1  0  0  0  0
 25 43  1  0  0  0  0
 26 71  1  0  0  0  0
 27 82  1  0  0  0  0
 28 83  1  0  0  0  0
 29 31  2  0  0  0  0
 29 82  1  0  0  0  0
 30 84  1  0  0  0  0
 31 85  1  0  0  0  0
 32 65  2  0  0  0  0
 33 66  1  0  0  0  0
 33 69  1  0  0  0  0
 34 70  1  0  0  0  0
 34 76  2  0  0  0  0
 35 53  1  0  0  0  0
 35 72  1  0  0  0  0
 35 77  2  0  0  0  0
 36 62  1  0  0  0  0
 36 67  1  0  0  0  0
 36 78  2  0  0  0  0
 37 61  1  0  0  0  0
 37 74  1  0  0  0  0
 37 79  2  0  0  0  0
 38 63  1  0  0  0  0
 38 73  1  0  0  0  0
 38 80  2  0  0  0  0
 39 68  1  0  0  0  0
 39 71  1  0  0  0  0
 39 81  2  0  0  0  0
 40 44  1  0  0  0  0
 41 45  1  0  0  0  0
 42 53  1  0  0  0  0
 43 67  1  0  0  0  0
 44 47  1  0  0  0  0
 45 52  1  0  0  0  0
 46 48  1  0  0  0  0
 46 49  1  0  0  0  0
 47 51  1  0  0  0  0
 48 54  1  0  0  0  0
 49 68  1  0  0  0  0
 50 54  1  0  0  0  0
 50 68  1  0  0  0  0
 51 72  1  0  0  0  0
 52 74  1  0  0  0  0
 53 67  1  0  0  0  0
 54 66  1  0  0  0  0
 55 63  1  0  0  0  0
 56 64  1  0  0  0  0
 57 64  1  0  0  0  0
 58 64  1  0  0  0  0
 59 74  1  0  0  0  0
 60 75  1  0  0  0  0
 61 83  1  0  0  0  0
 62 64  1  0  0  0  0
 62 73  1  0  0  0  0
 63 75  1  0  0  0  0
 65 66  1  0  0  0  0
M  CHG  1  75   1
M  ISO  4  39 100  61 101  71 100  83 101
M  END
> <Batch ID>
0026

> <Smiles>
CNC(C)C(=O)NC(C(=O)N1Cc2cc([101O:1][101CH2:1]C(=O)N(C)C3CCc4ccc([100NH:0][100C:0](=O)N5CCCC(n6nc(-c7ccc(Oc8ccc(F)cc8F)cc7)c(C(N)=O)c6N)C5)cc43)ccc2CC1C(=O)NC1CCCc2ccccc21)C(C)(C)C

> <Shape>
0.233

> <Color>
0.152

> <Negative vol penalty>
0.000

$$$$

  -OEChem-04042321253D

 83 91  0     1  0  0  0  0  0999 V2000
  -31.6704  -15.3627   20.4883 C   0  0  0  0  0  0  0  0  0  0  0  0
  -23.2550  -24.1720   20.0984 C   0  0  0  0  0  0  0  0  0  0  0  0
  -24.2368  -23.1941   20.2220 C   0  0  0  0  0  0  0  0  0  0  0  0
  -26.7611  -29.8291   20.0563 C   0  0  0  0  0  0  0  0  0  0  0  0
  -26.3648  -28.6019   22.0993 C   0  0  0  0  0  0  0  0  0  0  0  0
  -22.0302  -24.0143   20.7456 C   0  0  0  0  0  0  0  0  0  0  0  0
  -23.9946  -22.0583   20.9938 C   0  0  0  0  0  0  0  0  0  0  0  0
  -25.4938  -17.7975   18.7040 C   0  0  0  0  0  0  0  0  0  0  0  0
  -28.5512  -20.6641   22.7521 C   0  0  0  0  0  0  0  0  0  0  0  0
  -25.6532  -30.6330   20.3242 C   0  0  0  0  0  0  0  0  0  0  0  0
  -25.2568  -29.4059   22.3673 C   0  0  0  0  0  0  0  0  0  0  0  0
  -26.8580  -17.5106   18.7229 C   0  0  0  0  0  0  0  0  0  0  0  0
  -22.1121  -30.9008   23.4093 C   0  0  0  0  0  0  0  0  0  0  0  0
  -20.9436  -30.2721   23.8393 C   0  0  0  0  0  0  0  0  0  0  0  0
  -29.0203  -19.7297   23.6753 C   0  0  0  0  0  0  0  0  0  0  0  0
  -29.7580  -19.5311   20.9922 C   0  0  0  0  0  0  0  0  0  0  0  0
  -26.5025  -15.9690   20.5439 C   0  0  0  0  0  0  0  0  0  0  0  0
  -20.8698  -29.0040   21.7841 C   0  0  0  0  0  0  0  0  0  0  0  0
  -27.1169  -28.8135   20.9439 C   0  0  0  0  0  0  0  0  0  0  0  0
  -30.2271  -18.5967   21.9154 C   0  0  0  0  0  0  0  0  0  0  0  0
  -29.5927  -28.2103   21.0628 C   0  0  0  0  0  0  0  0  0  0  0  0
  -21.7694  -22.8714   21.5179 C   0  0  0  0  0  0  0  0  0  0  0  0
  -24.6238  -17.1794   19.6137 C   0  0  0  0  0  0  0  0  0  0  0  0
  -22.7656  -21.8857   21.6531 C   0  0  0  0  0  0  0  0  0  0  0  0
  -25.1273  -16.2478   20.5328 C   0  0  0  0  0  0  0  0  0  0  0  0
  -28.9200  -20.5648   21.4105 C   0  0  0  0  0  0  0  0  0  0  0  0
  -24.9010  -30.4214   21.4797 C   0  0  0  0  0  0  0  0  0  0  0  0
  -27.3630  -16.5984   19.6448 C   0  0  0  0  0  0  0  0  0  0  0  0
  -22.6594  -30.5813   22.1667 C   0  0  0  0  0  0  0  0  0  0  0  0
  -20.3225  -29.3236   23.0267 C   0  0  0  0  0  0  0  0  0  0  0  0
  -22.0383  -29.6328   21.3541 C   0  0  0  0  0  0  0  0  0  0  0  0
  -29.8583  -18.6960   23.2570 C   0  0  0  0  0  0  0  0  0  0  0  0
  -28.2610  -27.9824   20.6674 C   0  0  0  0  0  0  0  0  0  0  0  0
  -30.2892  -27.1403   20.5562 C   0  0  0  0  0  0  0  0  0  0  0  0
  -31.1078  -17.5281   21.4223 C   0  0  0  0  0  0  0  0  0  0  0  0
  -30.7196  -16.3301   20.9429 C   0  0  0  0  0  0  0  0  0  0  0  0
  -30.1503  -29.2923   21.8204 C   0  0  0  0  0  0  0  0  0  0  0  0
  -22.7118  -18.2021   21.9378 C   0  0  0  0  0  0  0  0  0  0  0  0
  -21.8037  -15.0894   22.0295 C   0  0  0  0  0  0  0  0  0  0  0  0
  -22.5692  -11.8277   21.3796 C   0  0  0  0  0  0  0  0  0  0  0  0
  -28.7144  -21.5616   19.1060 C   0  0  0  0  0  0  0  0  0  0  0  0
  -20.4478  -22.7675   22.2373 C   0  0  0  0  0  0  0  0  0  0  0  0
  -23.1509  -17.4796   19.5627 C   0  0  0  0  0  0  0  0  0  0  0  0
  -24.2323  -15.5418   21.5172 C   0  0  0  0  0  0  0  0  0  0  0  0
  -20.1324  -21.3579   22.7312 C   0  0  0  0  0  0  0  0  0  0  0  0
  -30.2030  -23.9804   16.9588 C   0  0  0  0  0  0  0  0  0  0  0  0
  -21.3469  -20.7519   23.4272 C   0  0  0  0  0  0  0  0  0  0  0  0
  -30.0005  -25.3011   17.7050 C   0  0  0  0  0  0  0  0  0  0  0  0
  -29.0099  -23.0423   17.1323 C   0  0  0  0  0  0  0  0  0  0  0  0
  -28.4133  -24.1107   19.2705 C   0  0  0  0  0  0  0  0  0  0  0  0
  -22.5315  -20.6279   22.4612 C   0  0  1  0  0  0  0  0  0  0  0  0
  -22.4337  -17.1773   20.8748 C   0  0  1  0  0  0  0  0  0  0  0  0
  -29.6170  -25.0627   19.1787 C   0  0  2  0  0  0  0  0  0  0  0  0
  -21.6435   -9.5056   21.5989 C   0  0  0  0  0  0  0  0  0  0  0  0
  -22.4280  -15.1251   25.0159 C   0  0  0  0  0  0  0  0  0  0  0  0
  -22.4079  -12.6218   24.9792 C   0  0  0  0  0  0  0  0  0  0  0  0
  -20.3406  -13.8925   24.4012 C   0  0  0  0  0  0  0  0  0  0  0  0
  -22.6349  -11.4001   18.4518 C   0  0  0  0  0  0  0  0  0  0  0  0
  -29.2614  -15.9527   20.9236 C   0  0  0  0  0  0  0  0  0  1  0  0
  -22.2723  -13.8604   22.7704 C   0  0  1  0  0  0  0  0  0  0  0  0
  -21.7797  -10.7240   20.6991 C   0  0  2  0  0  0  0  0  0  0  0  0
  -21.8796  -13.8895   24.2746 C   0  0  0  0  0  0  0  0  0  0  0  0
  -32.4368  -14.5732   20.1193 N   0  0  0  0  0  0  0  0  0  0  0  0
  -28.1176  -26.8563   19.9637 N   0  0  0  0  0  0  0  0  0  0  0  0
  -29.3682  -26.3670   19.9129 N   0  0  0  0  0  0  0  0  0  0  0  0
  -22.8005  -15.8738   21.4321 N   0  0  0  0  0  0  0  0  0  0  0  0
  -28.7074  -22.8599   18.5536 N   0  0  0  0  0  0  0  0  0  0  0  0
  -31.5934  -26.7951   20.6027 N   0  0  0  0  0  0  0  0  0  0  0  0
  -29.2933  -30.3088   22.2639 N   0  0  0  0  0  0  0  0  0  0  0  0
  -28.4445  -21.5154   20.4734 N   0  0  0  0  0  0  0  0  0  0  0  0
  -22.3528  -19.4893   21.5859 N   0  0  0  0  0  0  0  0  0  0  0  0
  -21.7439  -12.7153   22.0370 N   0  0  0  0  0  0  0  0  0  0  0  0
  -22.4561  -10.3046   19.4391 N   0  3  0  0  0  0  0  0  0  0  0  0
  -31.3750  -29.3643   22.0820 O   0  0  0  0  0  0  0  0  0  0  0  0
  -23.2134  -17.8509   22.9993 O   0  0  0  0  0  0  0  0  0  0  0  0
  -20.5971  -15.3402   21.9765 O   0  0  0  0  0  0  0  0  0  0  0  0
  -23.7957  -11.8936   21.3357 O   0  0  0  0  0  0  0  0  0  0  0  0
  -28.9697  -20.5669   18.4224 O   0  0  0  0  0  0  0  0  0  0  0  0
  -23.8200  -31.2058   21.7416 O   0  0  0  0  0  0  0  0  0  0  0  0
  -28.6943  -16.3171   19.6658 O   0  0  0  0  0  0  0  0  0  1  0  0
  -19.2013  -28.7187   23.4404 F   0  0  0  0  0  0  0  0  0  0  0  0
  -22.5600  -29.3207   20.1599 F   0  0  0  0  0  0  0  0  0  0  0  0
  -30.4078  -17.5627   24.4416 Cl  0  0  0  0  0  0  0  0  0  0  0  0
  1 36  1  0  0  0  0
  1 63  3  0  0  0  0
  2  3  1  0  0  0  0
  2  6  2  0  0  0  0
  3  7  2  0  0  0  0
  4 10  2  0  0  0  0
  4 19  1  0  0  0  0
  5 11  1  0  0  0  0
  5 19  2  0  0  0  0
  6 22  1  0  0  0  0
  7 24  1  0  0  0  0
  8 12  2  0  0  0  0
  8 23  1  0  0  0  0
  9 15  2  0  0  0  0
  9 26  1  0  0  0  0
 10 27  1  0  0  0  0
 11 27  2  0  0  0  0
 12 28  1  0  0  0  0
 13 14  2  0  0  0  0
 13 29  1  0  0  0  0
 14 30  1  0  0  0  0
 15 32  1  0  0  0  0
 16 20  1  0  0  0  0
 16 26  2  0  0  0  0
 17 25  1  0  0  0  0
 17 28  2  0  0  0  0
 18 30  2  0  0  0  0
 18 31  1  0  0  0  0
 19 33  1  0  0  0  0
 20 32  2  0  0  0  0
 20 35  1  0  0  0  0
 21 33  1  0  0  0  0
 21 34  2  0  0  0  0
 21 37  1  0  0  0  0
 22 24  2  0  0  0  0
 22 42  1  0  0  0  0
 23 25  2  0  0  0  0
 23 43  1  0  0  0  0
 24 51  1  0  0  0  0
 25 44  1  0  0  0  0
 26 70  1  0  0  0  0
 27 79  1  0  0  0  0
 28 80  1  0  0  0  0
 29 31  2  0  0  0  0
 29 79  1  0  0  0  0
 30 81  1  0  0  0  0
 31 82  1  0  0  0  0
 32 83  1  0  0  0  0
 33 64  2  0  0  0  0
 34 65  1  0  0  0  0
 34 68  1  0  0  0  0
 35 36  2  0  0  0  0
 36 59  1  0  0  0  0
 37 69  1  0  0  0  0
 37 74  2  0  0  0  0
 38 52  1  0  0  0  0
 38 71  1  0  0  0  0
 38 75  2  0  0  0  0
 39 60  1  0  0  0  0
 39 66  1  0  0  0  0
 39 76  2  0  0  0  0
 40 61  1  0  0  0  0
 40 72  1  0  0  0  0
 40 77  2  0  0  0  0
 41 67  1  0  0  0  0
 41 70  1  0  0  0  0
 41 78  2  0  0  0  0
 42 45  1  0  0  0  0
 43 52  1  0  0  0  0
 44 66  1  0  0  0  0
 45 47  1  0  0  0  0
 46 48  1  0  0  0  0
 46 49  1  0  0  0  0
 47 51  1  0  0  0  0
 48 53  1  0  0  0  0
 49 67  1  0  0  0  0
 50 53  1  0  0  0  0
 50 67  1  0  0  0  0
 51 71  1  0  0  0  0
 52 66  1  0  0  0  0
 53 65  1  0  0  0  0
 54 61  1  0  0  0  0
 55 62  1  0  0  0  0
 56 62  1  0  0  0  0
 57 62  1  0  0  0  0
 58 73  1  0  0  0  0
 59 80  1  0  0  0  0
 60 62  1  0  0  0  0
 60 72  1  0  0  0  0
 61 73  1  0  0  0  0
 64 65  1  0  0  0  0
M  CHG  1  73   1
M  ISO  4  41 100  59 101  70 100  80 101
M  END
> <Batch ID>
0026

> <Smiles>
CNC(C)C(=O)NC(C(=O)N1Cc2cc([101O:1][101CH2:1]C(C#N)=Cc3cc([100NH:0][100C:0](=O)N4CCCC(n5nc(-c6ccc(Oc7ccc(F)cc7F)cc6)c(C(N)=O)c5N)C4)ccc3Cl)ccc2CC1C(=O)NC1CCCc2ccccc21)C(C)(C)C

> <Shape>
0.246

> <Color>
0.053

> <Negative vol penalty>
0.000

$$$$

  -OEChem-04042321253D

 86 95  0     1  0  0  0  0  0999 V2000
  -17.0738  -11.6057   23.1668 C   0  0  0  0  0  0  0  0  0  0  0  0
  -17.7511  -12.8036   23.3713 C   0  0  0  0  0  0  0  0  0  0  0  0
  -24.4531  -29.1765   19.5324 C   0  0  0  0  0  0  0  0  0  0  0  0
  -24.6296  -27.8232   21.5260 C   0  0  0  0  0  0  0  0  0  0  0  0
  -17.7873  -10.4132   23.0541 C   0  0  0  0  0  0  0  0  0  0  0  0
  -19.1424  -12.8094   23.4644 C   0  0  0  0  0  0  0  0  0  0  0  0
  -21.2536  -16.5457   20.7759 C   0  0  0  0  0  0  0  0  0  0  0  0
  -23.1900  -29.6081   19.9372 C   0  0  0  0  0  0  0  0  0  0  0  0
  -23.3665  -28.2549   21.9309 C   0  0  0  0  0  0  0  0  0  0  0  0
  -21.2186  -17.8256   21.3278 C   0  0  0  0  0  0  0  0  0  0  0  0
  -20.1411  -27.5538   21.1986 C   0  0  0  0  0  0  0  0  0  0  0  0
  -19.2525  -26.5937   21.6825 C   0  0  0  0  0  0  0  0  0  0  0  0
  -23.5011  -17.5644   22.0633 C   0  0  0  0  0  0  0  0  0  0  0  0
  -27.3455  -20.9249   25.1495 C   0  0  0  0  0  0  0  0  0  0  0  0
  -29.0693  -20.3004   23.0468 C   0  0  0  0  0  0  0  0  0  0  0  0
  -19.1466  -27.7575   23.7971 C   0  0  0  0  0  0  0  0  0  0  0  0
  -25.1729  -28.2840   20.3268 C   0  0  0  0  0  0  0  0  0  0  0  0
  -27.6129  -28.6347   19.6700 C   0  0  0  0  0  0  0  0  0  0  0  0
  -19.1887  -10.4057   23.1361 C   0  0  0  0  0  0  0  0  0  0  0  0
  -22.4111  -15.7601   20.8733 C   0  0  0  0  0  0  0  0  0  0  0  0
  -19.8753  -11.6155   23.3540 C   0  0  0  0  0  0  0  0  0  0  0  0
  -23.5491  -16.2759   21.5096 C   0  0  0  0  0  0  0  0  0  0  0  0
  -27.1704  -21.5249   23.9025 C   0  0  0  0  0  0  0  0  0  0  0  0
  -28.3825  -20.0127   25.3452 C   0  0  0  0  0  0  0  0  0  0  0  0
  -28.0323  -21.2126   22.8512 C   0  0  0  0  0  0  0  0  0  0  0  0
  -22.6467  -29.1473   21.1364 C   0  0  0  0  0  0  0  0  0  0  0  0
  -22.3414  -18.3340   21.9741 C   0  0  0  0  0  0  0  0  0  0  0  0
  -20.5326  -28.6157   22.0140 C   0  0  0  0  0  0  0  0  0  0  0  0
  -18.7552  -26.6956   22.9818 C   0  0  0  0  0  0  0  0  0  0  0  0
  -20.0353  -28.7176   23.3132 C   0  0  0  0  0  0  0  0  0  0  0  0
  -29.2443  -19.7004   24.2938 C   0  0  0  0  0  0  0  0  0  0  0  0
  -26.4775  -27.8373   19.9089 C   0  0  0  0  0  0  0  0  0  0  0  0
  -28.5879  -27.7413   19.2989 C   0  0  0  0  0  0  0  0  0  0  0  0
  -27.7719  -30.0558   19.7742 C   0  0  0  0  0  0  0  0  0  0  0  0
  -23.1202  -12.9675   22.2159 C   0  0  0  0  0  0  0  0  0  0  0  0
  -25.9678  -13.4178   20.7290 C   0  0  0  0  0  0  0  0  0  0  0  0
  -28.2351  -16.1657   20.1585 C   0  0  0  0  0  0  0  0  0  0  0  0
  -28.6458  -21.6064   20.4328 C   0  0  0  0  0  0  0  0  0  0  0  0
  -19.9135   -9.0856   23.0556 C   0  0  0  0  0  0  0  0  0  0  0  0
  -22.4416  -14.3918   20.2494 C   0  0  0  0  0  0  0  0  0  0  0  0
  -24.8231  -15.4806   21.6233 C   0  0  0  0  0  0  0  0  0  0  0  0
  -21.4102   -9.2276   22.7910 C   0  0  0  0  0  0  0  0  0  0  0  0
  -28.8047  -23.3808   17.1947 C   0  0  0  0  0  0  0  0  0  0  0  0
  -23.4213  -22.8074   20.9578 C   0  0  0  0  0  0  0  0  0  0  0  0
  -22.0144  -10.2927   23.7006 C   0  0  0  0  0  0  0  0  0  0  0  0
  -28.5705  -24.8590   17.5095 C   0  0  0  0  0  0  0  0  0  0  0  0
  -22.4828  -21.6884   21.3900 C   0  0  0  0  0  0  0  0  0  0  0  0
  -29.4848  -22.6333   18.3334 C   0  0  0  0  0  0  0  0  0  0  0  0
  -28.0753  -24.0282   19.8626 C   0  0  0  0  0  0  0  0  0  0  0  0
  -24.3119  -23.2681   22.1029 C   0  0  0  0  0  0  0  0  0  0  0  0
  -24.1460  -20.9976   23.1553 C   0  0  0  0  0  0  0  0  0  0  0  0
  -21.3856  -11.6659   23.4356 C   0  0  1  0  0  0  0  0  0  0  0  0
  -23.5043  -13.4815   20.8572 C   0  0  1  0  0  0  0  0  0  0  0  0
  -28.6445  -25.1750   19.0127 C   0  0  2  0  0  0  0  0  0  0  0  0
  -23.2507  -20.5284   22.0160 C   0  0  1  0  0  0  0  0  0  1  0  0
  -28.5370  -19.3922   26.6963 C   0  0  0  0  0  0  0  0  0  0  0  0
  -29.9753  -17.1934   18.6709 C   0  0  0  0  0  0  0  0  0  0  0  0
  -27.9637  -12.1348   22.6475 C   0  0  0  0  0  0  0  0  0  0  0  0
  -29.6720  -13.7902   21.8670 C   0  0  0  0  0  0  0  0  0  0  0  0
  -28.6874  -12.1621   20.2538 C   0  0  0  0  0  0  0  0  0  0  0  0
  -26.2554  -17.9621   18.8886 C   0  0  0  0  0  0  0  0  0  0  0  0
  -26.0481  -22.5039   23.7213 C   0  0  0  0  0  0  0  0  0  0  0  0
  -27.2732  -14.0806   21.0973 C   0  0  1  0  0  0  0  0  0  0  0  0
  -28.4995  -16.8666   18.8381 C   0  0  2  0  0  0  0  0  0  0  0  0
  -28.3743  -13.0507   21.4773 C   0  0  0  0  0  0  0  0  0  0  0  0
  -26.7084  -26.5375   19.7065 N   0  0  0  0  0  0  0  0  0  0  0  0
  -28.0001  -26.5111   19.3364 N   0  0  0  0  0  0  0  0  0  0  0  0
  -24.8012  -14.1456   21.0029 N   0  0  0  0  0  0  0  0  0  0  0  0
  -28.7149  -22.7325   19.5767 N   0  0  0  0  0  0  0  0  0  0  0  0
  -29.8821  -27.8958   18.9475 N   0  0  0  0  0  0  0  0  0  0  0  0
  -28.1812  -30.5940   21.0018 N   0  0  0  0  0  0  0  0  0  0  0  0
  -27.8713  -21.8123   21.5773 N   0  0  0  0  0  0  0  0  0  0  0  0
  -21.9385  -12.2514   22.2331 N   0  0  0  0  0  0  0  0  0  0  0  0
  -27.6239  -14.9435   19.9745 N   0  0  0  0  0  0  0  0  0  0  0  0
  -25.0661  -22.0851   22.6620 N   0  3  2  0  0  0  0  0  0  0  0  0
  -27.7252  -18.1376   18.7623 N   0  3  0  0  0  0  0  0  0  0  0  0
  -27.5416  -30.8269   18.8119 O   0  0  0  0  0  0  0  0  0  0  0  0
  -23.8432  -13.2020   23.1771 O   0  0  0  0  0  0  0  0  0  0  0  0
  -25.9831  -12.2985   20.2107 O   0  0  0  0  0  0  0  0  0  0  0  0
  -28.5436  -16.6520   21.2442 O   0  0  0  0  0  0  0  0  0  0  0  0
  -29.2159  -20.5483   20.1582 O   0  0  0  0  0  0  0  0  0  0  0  0
  -21.4143  -29.5685   21.5319 O   0  0  0  0  0  0  0  0  0  0  0  0
  -22.3097  -19.5827   22.5141 O   0  0  0  0  0  0  0  0  0  1  0  0
  -17.9006  -25.7744   23.4458 F   0  0  0  0  0  0  0  0  0  0  0  0
  -20.4069  -29.7362   24.1008 F   0  0  0  0  0  0  0  0  0  0  0  0
  -30.5385  -18.5767   24.4988 Cl  0  0  0  0  0  0  0  0  0  0  0  0
  1  2  1  0  0  0  0
  1  5  2  0  0  0  0
  2  6  2  0  0  0  0
  3  8  2  0  0  0  0
  3 17  1  0  0  0  0
  4  9  1  0  0  0  0
  4 17  2  0  0  0  0
  5 19  1  0  0  0  0
  6 21  1  0  0  0  0
  7 10  2  0  0  0  0
  7 20  1  0  0  0  0
  8 26  1  0  0  0  0
  9 26  2  0  0  0  0
 10 27  1  0  0  0  0
 11 12  2  0  0  0  0
 11 28  1  0  0  0  0
 12 29  1  0  0  0  0
 13 22  1  0  0  0  0
 13 27  2  0  0  0  0
 14 23  1  0  0  0  0
 14 24  2  0  0  0  0
 15 25  1  0  0  0  0
 15 31  2  0  0  0  0
 16 29  2  0  0  0  0
 16 30  1  0  0  0  0
 17 32  1  0  0  0  0
 18 32  1  0  0  0  0
 18 33  2  0  0  0  0
 18 34  1  0  0  0  0
 19 21  2  0  0  0  0
 19 39  1  0  0  0  0
 20 22  2  0  0  0  0
 20 40  1  0  0  0  0
 21 52  1  0  0  0  0
 22 41  1  0  0  0  0
 23 25  2  0  0  0  0
 23 62  1  0  0  0  0
 24 31  1  0  0  0  0
 24 56  1  0  0  0  0
 25 72  1  0  0  0  0
 26 82  1  0  0  0  0
 27 83  1  0  0  0  0
 28 30  2  0  0  0  0
 28 82  1  0  0  0  0
 29 84  1  0  0  0  0
 30 85  1  0  0  0  0
 31 86  1  0  0  0  0
 32 66  2  0  0  0  0
 33 67  1  0  0  0  0
 33 70  1  0  0  0  0
 34 71  1  0  0  0  0
 34 77  2  0  0  0  0
 35 53  1  0  0  0  0
 35 73  1  0  0  0  0
 35 78  2  0  0  0  0
 36 63  1  0  0  0  0
 36 68  1  0  0  0  0
 36 79  2  0  0  0  0
 37 64  1  0  0  0  0
 37 74  1  0  0  0  0
 37 80  2  0  0  0  0
 38 69  1  0  0  0  0
 38 72  1  0  0  0  0
 38 81  2  0  0  0  0
 39 42  1  0  0  0  0
 40 53  1  0  0  0  0
 41 68  1  0  0  0  0
 42 45  1  0  0  0  0
 43 46  1  0  0  0  0
 43 48  1  0  0  0  0
 44 47  1  0  0  0  0
 44 50  1  0  0  0  0
 45 52  1  0  0  0  0
 46 54  1  0  0  0  0
 47 55  1  0  0  0  0
 48 69  1  0  0  0  0
 49 54  1  0  0  0  0
 49 69  1  0  0  0  0
 50 75  1  0  0  0  0
 51 55  1  0  0  0  0
 51 75  1  0  0  0  0
 52 73  1  0  0  0  0
 53 68  1  0  0  0  0
 54 67  1  0  0  0  0
 55 83  1  0  0  0  0
 57 64  1  0  0  0  0
 58 65  1  0  0  0  0
 59 65  1  0  0  0  0
 60 65  1  0  0  0  0
 61 76  1  0  0  0  0
 62 75  1  0  0  0  0
 63 65  1  0  0  0  0
 63 74  1  0  0  0  0
 64 76  1  0  0  0  0
 66 67  1  0  0  0  0
M  CHG  2  75   1  76   1
M  ISO  4  38 100  55 101  72 100  83 101
M  END
> <Batch ID>
0026

> <Smiles>
CNC(C)C(=O)NC(C(=O)N1Cc2cc([101O:1][101CH:1]3CCCN(Cc4cc(C)c(Cl)cc4[100NH:0][100C:0](=O)N4CCCC(n5nc(-c6ccc(Oc7ccc(F)cc7F)cc6)c(C(N)=O)c5N)C4)C3)ccc2CC1C(=O)NC1CCCc2ccccc21)C(C)(C)C

> <Shape>
0.241

> <Color>
0.062

> <Negative vol penalty>
0.000

$$$$

  -OEChem-04042321253D

 97106  0     1  0  0  0  0  0999 V2000
  -27.1284  -33.1179   27.8367 C   0  0  0  0  0  0  0  0  0  0  0  0
  -27.4456  -32.0322   27.0267 C   0  0  0  0  0  0  0  0  0  0  0  0
  -27.0659  -12.8158   20.9730 C   0  0  0  0  0  0  0  0  0  0  0  0
  -26.9493  -13.1148   18.5784 C   0  0  0  0  0  0  0  0  0  0  0  0
  -25.8136  -33.5774   27.9013 C   0  0  0  0  0  0  0  0  0  0  0  0
  -26.4478  -31.4046   26.2816 C   0  0  0  0  0  0  0  0  0  0  0  0
  -27.0333  -28.8836   20.7312 C   0  0  0  0  0  0  0  0  0  0  0  0
  -29.9828  -20.3744   16.4289 C   0  0  0  0  0  0  0  0  0  0  0  0
  -30.6357  -21.2821   17.2634 C   0  0  0  0  0  0  0  0  0  0  0  0
  -26.3622  -11.6170   20.8576 C   0  0  0  0  0  0  0  0  0  0  0  0
  -26.2456  -11.9160   18.4630 C   0  0  0  0  0  0  0  0  0  0  0  0
  -27.2138  -27.5657   20.3139 C   0  0  0  0  0  0  0  0  0  0  0  0
  -24.2826   -8.6572   21.2300 C   0  0  0  0  0  0  0  0  0  0  0  0
  -23.2453   -8.4230   22.1325 C   0  0  0  0  0  0  0  0  0  0  0  0
  -24.8369  -27.3595   19.9569 C   0  0  0  0  0  0  0  0  0  0  0  0
  -28.5308  -21.8284   18.2776 C   0  0  0  0  0  0  0  0  0  0  0  0
  -22.1130  -10.4070   21.3461 C   0  0  0  0  0  0  0  0  0  0  0  0
  -27.3595  -13.5647   19.8334 C   0  0  0  0  0  0  0  0  0  0  0  0
  -29.4820  -14.9780   19.9057 C   0  0  0  0  0  0  0  0  0  0  0  0
  -24.8010  -32.9612   27.1492 C   0  0  0  0  0  0  0  0  0  0  0  0
  -25.7498  -29.4470   20.7749 C   0  0  0  0  0  0  0  0  0  0  0  0
  -25.1180  -31.8554   26.3373 C   0  0  0  0  0  0  0  0  0  0  0  0
  -24.6431  -28.6857   20.3727 C   0  0  0  0  0  0  0  0  0  0  0  0
  -28.5855  -20.1706   16.4852 C   0  0  0  0  0  0  0  0  0  0  0  0
  -27.8536  -20.9198   17.4343 C   0  0  0  0  0  0  0  0  0  0  0  0
  -29.9080  -22.0104   18.1897 C   0  0  0  0  0  0  0  0  0  0  0  0
  -25.9521  -11.1671   19.6026 C   0  0  0  0  0  0  0  0  0  0  0  0
  -26.1152  -26.8025   19.9294 C   0  0  0  0  0  0  0  0  0  0  0  0
  -24.2353   -9.7665   20.3856 C   0  0  0  0  0  0  0  0  0  0  0  0
  -22.1604   -9.2978   22.1905 C   0  0  0  0  0  0  0  0  0  0  0  0
  -23.1504  -10.6413   20.4436 C   0  0  0  0  0  0  0  0  0  0  0  0
  -28.0859  -14.8034   19.9521 C   0  0  0  0  0  0  0  0  0  0  0  0
  -29.6645  -16.3300   20.0648 C   0  0  0  0  0  0  0  0  0  0  0  0
  -30.5210  -14.0050   19.7341 C   0  0  0  0  0  0  0  0  0  0  0  0
  -23.8989  -30.6355   23.0695 C   0  0  0  0  0  0  0  0  0  0  0  0
  -21.9800  -31.4234   20.5756 C   0  0  0  0  0  0  0  0  0  0  0  0
  -26.0519  -23.9561   17.7087 C   0  0  0  0  0  0  0  0  0  0  0  0
  -21.0125  -30.8160   17.3598 C   0  0  0  0  0  0  0  0  0  0  0  0
  -25.8391  -20.8985   18.8878 C   0  0  0  0  0  0  0  0  0  0  0  0
  -23.3858  -33.4636   27.2881 C   0  0  0  0  0  0  0  0  0  0  0  0
  -25.5750  -30.8785   21.2020 C   0  0  0  0  0  0  0  0  0  0  0  0
  -23.2468  -29.2501   20.3822 C   0  0  0  0  0  0  0  0  0  0  0  0
  -22.4558  -32.9788   26.1789 C   0  0  0  0  0  0  0  0  0  0  0  0
  -27.6427  -20.2079   22.0210 C   0  0  0  0  0  0  0  0  0  0  0  0
  -22.6374  -31.4823   25.9459 C   0  0  0  0  0  0  0  0  0  0  0  0
  -28.0275  -18.7348   21.8734 C   0  0  0  0  0  0  0  0  0  0  0  0
  -26.3421  -20.5354   21.2904 C   0  0  0  0  0  0  0  0  0  0  0  0
  -26.9693  -19.6476   14.7324 C   0  0  0  0  0  0  0  0  0  0  0  0
  -26.7187  -18.6629   19.7203 C   0  0  0  0  0  0  0  0  0  0  0  0
  -24.0681  -31.1638   25.4950 C   0  0  1  0  0  0  0  0  0  0  0  0
  -24.1653  -31.1864   21.6972 C   0  0  1  0  0  0  0  0  0  0  0  0
  -25.6146  -19.8114   15.4185 C   0  0  1  0  0  0  0  0  0  0  0  0
  -28.0559  -18.3220   20.3913 C   0  0  2  0  0  0  0  0  0  0  0  0
  -25.5636  -20.9844   16.4209 C   0  0  2  0  0  0  0  0  0  0  0  0
  -24.5187  -19.9439   14.3506 C   0  0  0  0  0  0  0  0  0  0  0  0
  -29.7905  -15.8906   16.3337 C   0  0  0  0  0  0  0  0  0  0  0  0
  -19.3950  -31.5988   15.6081 C   0  0  0  0  0  0  0  0  0  0  0  0
  -19.7170  -29.9746   22.0213 C   0  0  0  0  0  0  0  0  0  0  0  0
  -18.4436  -29.9591   19.8658 C   0  0  0  0  0  0  0  0  0  0  0  0
  -19.0524  -32.1280   20.9371 C   0  0  0  0  0  0  0  0  0  0  0  0
  -31.6200  -22.4088   19.9608 C   0  0  0  0  0  0  0  0  0  0  0  0
  -23.8363  -23.7347   16.5128 C   0  0  0  0  0  0  0  0  0  0  0  0
  -23.1986  -31.5798   15.5168 C   0  0  0  0  0  0  0  0  0  0  0  0
  -32.3227  -24.4625   17.6495 C   0  0  0  0  0  0  0  0  0  0  0  0
  -25.3711  -24.9952   18.5744 C   0  0  0  0  0  0  0  0  0  1  0  0
  -25.7717  -22.3803   15.8139 C   0  0  0  0  0  0  0  0  0  0  0  0
  -29.0238  -17.1706   16.6347 C   0  0  0  0  0  0  0  0  0  0  0  0
  -28.7011  -17.9727   15.3797 C   0  0  0  0  0  0  0  0  0  0  0  0
  -20.8558  -30.7409   19.8345 C   0  0  1  0  0  0  0  0  0  0  0  0
  -20.7963  -31.7466   16.1801 C   0  0  2  0  0  0  0  0  0  0  0  0
  -19.5431  -30.6891   20.6662 C   0  0  0  0  0  0  0  0  0  0  0  0
  -27.4281  -15.9526   20.1271 N   0  0  0  0  0  0  0  0  0  0  0  0
  -28.4152  -16.8622   20.1922 N   0  0  0  0  0  0  0  0  0  0  0  0
  -26.4277  -20.7697   17.6041 N   0  0  0  0  0  0  0  0  0  0  0  0
  -27.9857  -19.2063   15.6783 N   0  0  1  0  0  0  0  0  0  0  0  0
  -23.1267  -30.6525   20.8137 N   0  0  0  0  0  0  0  0  0  0  0  0
  -26.3871  -20.0835   19.9000 N   0  0  0  0  0  0  0  0  0  0  0  0
  -30.7700  -17.1035   20.1069 N   0  0  0  0  0  0  0  0  0  0  0  0
  -30.1583  -12.6595   19.5844 N   0  0  0  0  0  0  0  0  0  0  0  0
  -24.2425  -31.4936   24.0967 N   0  0  0  0  0  0  0  0  0  0  0  0
  -20.7273  -31.4357   18.5581 N   0  0  0  0  0  0  0  0  0  0  0  0
  -30.5654  -22.9403   19.0501 N   0  0  1  0  0  0  0  0  0  0  0  0
  -25.2515  -23.3631   16.6988 N   0  0  0  0  0  0  0  0  0  0  0  0
  -21.7787  -31.4499   15.0994 N   0  3  0  0  0  0  0  0  0  0  0  0
  -31.7359  -14.3174   19.7304 O   0  0  0  0  0  0  0  0  0  0  0  0
  -23.4159  -29.5155   23.1876 O   0  0  0  0  0  0  0  0  0  0  0  0
  -21.8485  -32.5994   20.9240 O   0  0  0  0  0  0  0  0  0  0  0  0
  -27.2398  -23.6936   17.9205 O   0  0  0  0  0  0  0  0  0  0  0  0
  -21.3924  -29.6543   17.2309 O   0  0  0  0  0  0  0  0  0  0  0  0
  -24.8888  -21.6594   19.1041 O   0  0  0  0  0  0  0  0  0  0  0  0
  -30.9246  -25.4542   19.6078 O   0  0  0  0  0  0  0  0  0  0  0  0
  -29.7454  -24.8460   17.4712 O   0  0  0  0  0  0  0  0  0  0  0  0
  -25.2656   -9.9973   19.4896 O   0  0  0  0  0  0  0  0  0  0  0  0
  -26.2903  -25.5021   19.5181 O   0  0  0  0  0  0  0  0  0  1  0  0
  -21.1635   -9.0719   23.0562 F   0  0  0  0  0  0  0  0  0  0  0  0
  -23.0988  -11.7080   19.6340 F   0  0  0  0  0  0  0  0  0  0  0  0
  -30.7496  -24.5594   18.4783 S   0  0  0  0  0  0  0  0  0  0  0  0
  1  2  1  0  0  0  0
  1  5  2  0  0  0  0
  2  6  2  0  0  0  0
  3 10  2  0  0  0  0
  3 18  1  0  0  0  0
  4 11  1  0  0  0  0
  4 18  2  0  0  0  0
  5 20  1  0  0  0  0
  6 22  1  0  0  0  0
  7 12  2  0  0  0  0
  7 21  1  0  0  0  0
  8  9  2  0  0  0  0
  8 24  1  0  0  0  0
  9 26  1  0  0  0  0
 10 27  1  0  0  0  0
 11 27  2  0  0  0  0
 12 28  1  0  0  0  0
 13 14  2  0  0  0  0
 13 29  1  0  0  0  0
 14 30  1  0  0  0  0
 15 23  1  0  0  0  0
 15 28  2  0  0  0  0
 16 25  1  0  0  0  0
 16 26  2  0  0  0  0
 17 30  2  0  0  0  0
 17 31  1  0  0  0  0
 18 32  1  0  0  0  0
 19 32  1  0  0  0  0
 19 33  2  0  0  0  0
 19 34  1  0  0  0  0
 20 22  2  0  0  0  0
 20 40  1  0  0  0  0
 21 23  2  0  0  0  0
 21 41  1  0  0  0  0
 22 50  1  0  0  0  0
 23 42  1  0  0  0  0
 24 25  2  0  0  0  0
 24 75  1  0  0  0  0
 25 74  1  0  0  0  0
 26 82  1  0  0  0  0
 27 93  1  0  0  0  0
 28 94  1  0  0  0  0
 29 31  2  0  0  0  0
 29 93  1  0  0  0  0
 30 95  1  0  0  0  0
 31 96  1  0  0  0  0
 32 72  2  0  0  0  0
 33 73  1  0  0  0  0
 33 78  1  0  0  0  0
 34 79  1  0  0  0  0
 34 85  2  0  0  0  0
 35 51  1  0  0  0  0
 35 80  1  0  0  0  0
 35 86  2  0  0  0  0
 36 69  1  0  0  0  0
 36 76  1  0  0  0  0
 36 87  2  0  0  0  0
 37 65  1  0  0  0  0
 37 83  1  0  0  0  0
 37 88  2  0  0  0  0
 38 70  1  0  0  0  0
 38 81  1  0  0  0  0
 38 89  2  0  0  0  0
 39 74  1  0  0  0  0
 39 77  1  0  0  0  0
 39 90  2  0  0  0  0
 40 43  1  0  0  0  0
 41 51  1  0  0  0  0
 42 76  1  0  0  0  0
 43 45  1  0  0  0  0
 44 46  1  0  0  0  0
 44 47  1  0  0  0  0
 45 50  1  0  0  0  0
 46 53  1  0  0  0  0
 47 77  1  0  0  0  0
 48 52  1  0  0  0  0
 48 75  1  0  0  0  0
 49 53  1  0  0  0  0
 49 77  1  0  0  0  0
 50 80  1  0  0  0  0
 51 76  1  0  0  0  0
 52 54  1  0  0  0  0
 52 55  1  0  0  0  0
 53 73  1  0  0  0  0
 54 66  1  0  0  0  0
 54 74  1  0  0  0  0
 56 67  1  0  0  0  0
 57 70  1  0  0  0  0
 58 71  1  0  0  0  0
 59 71  1  0  0  0  0
 60 71  1  0  0  0  0
 61 82  1  0  0  0  0
 62 83  1  0  0  0  0
 63 84  1  0  0  0  0
 64 97  1  0  0  0  0
 65 94  1  0  0  0  0
 66 83  1  0  0  0  0
 67 68  1  0  0  0  0
 68 75  1  0  0  0  0
 69 71  1  0  0  0  0
 69 81  1  0  0  0  0
 70 84  1  0  0  0  0
 72 73  1  0  0  0  0
 82 97  1  0  0  0  0
 91 97  2  0  0  0  0
 92 97  2  0  0  0  0
M  CHG  1  84   1
M  ISO  4  39 100  65 101  74 100  94 101
M  END
> <Batch ID>
0026

> <Smiles>
CCCN1CC(C)C(CN(C)C(=O)[101CH2:1][101O:1]c2ccc3c(c2)CN(C(=O)C(NC(=O)C(C)NC)C(C)(C)C)C(C(=O)NC2CCCc4ccccc42)C3)[100N:0]([100C:0](=O)N2CCCC(n3nc(-c4ccc(Oc5ccc(F)cc5F)cc4)c(C(N)=O)c3N)C2)c2cc(N(C)S(C)(=O)=O)ccc21

> <Shape>
0.254

> <Color>
0.108

> <Negative vol penalty>
0.000

$$$$

  -OEChem-04042321253D

 84 92  0     1  0  0  0  0  0999 V2000
  -29.0215  -37.0409   18.6027 C   0  0  0  0  0  0  0  0  0  0  0  0
  -29.2885  -35.6805   18.7188 C   0  0  0  0  0  0  0  0  0  0  0  0
  -23.1847   -9.7024   20.0186 C   0  0  0  0  0  0  0  0  0  0  0  0
  -24.0997   -9.7964   22.2526 C   0  0  0  0  0  0  0  0  0  0  0  0
  -28.0915  -37.6423   19.4496 C   0  0  0  0  0  0  0  0  0  0  0  0
  -28.6265  -34.9210   19.6829 C   0  0  0  0  0  0  0  0  0  0  0  0
  -26.8581  -29.0784   19.1905 C   0  0  0  0  0  0  0  0  0  0  0  0
  -29.5775  -19.1936   17.8186 C   0  0  0  0  0  0  0  0  0  0  0  0
  -29.1829  -20.3592   18.4753 C   0  0  0  0  0  0  0  0  0  0  0  0
  -22.5465   -8.5020   20.3304 C   0  0  0  0  0  0  0  0  0  0  0  0
  -23.4614   -8.5960   22.5645 C   0  0  0  0  0  0  0  0  0  0  0  0
  -27.4268  -27.8856   19.6350 C   0  0  0  0  0  0  0  0  0  0  0  0
  -20.3501   -7.5748   23.3997 C   0  0  0  0  0  0  0  0  0  0  0  0
  -19.6814   -7.4964   24.6213 C   0  0  0  0  0  0  0  0  0  0  0  0
  -26.0244  -27.9550   21.5966 C   0  0  0  0  0  0  0  0  0  0  0  0
  -28.5818  -19.0594   20.4212 C   0  0  0  0  0  0  0  0  0  0  0  0
  -21.1096   -5.6645   25.2856 C   0  0  0  0  0  0  0  0  0  0  0  0
  -23.9613  -10.3496   20.9796 C   0  0  0  0  0  0  0  0  0  0  0  0
  -24.1081  -12.8910   20.8136 C   0  0  0  0  0  0  0  0  0  0  0  0
  -27.4107  -36.8879   20.4181 C   0  0  0  0  0  0  0  0  0  0  0  0
  -25.8744  -29.7252   19.9523 C   0  0  0  0  0  0  0  0  0  0  0  0
  -27.6876  -35.5132   20.5445 C   0  0  0  0  0  0  0  0  0  0  0  0
  -25.4429  -29.1545   21.1583 C   0  0  0  0  0  0  0  0  0  0  0  0
  -29.4743  -17.9609   18.4632 C   0  0  0  0  0  0  0  0  0  0  0  0
  -28.9764  -17.8938   19.7644 C   0  0  0  0  0  0  0  0  0  0  0  0
  -28.6850  -20.2921   19.7766 C   0  0  0  0  0  0  0  0  0  0  0  0
  -22.6848   -7.9488   21.6034 C   0  0  0  0  0  0  0  0  0  0  0  0
  -27.0121  -27.3252   20.8396 C   0  0  0  0  0  0  0  0  0  0  0  0
  -21.3986   -6.6980   23.1210 C   0  0  0  0  0  0  0  0  0  0  0  0
  -20.0611   -6.5413   25.5642 C   0  0  0  0  0  0  0  0  0  0  0  0
  -21.7783   -5.7428   24.0640 C   0  0  0  0  0  0  0  0  0  0  0  0
  -24.6213  -11.5894   20.6579 C   0  0  0  0  0  0  0  0  0  0  0  0
  -25.1145  -13.7125   20.3678 C   0  0  0  0  0  0  0  0  0  0  0  0
  -22.8354  -13.3192   21.3163 C   0  0  0  0  0  0  0  0  0  0  0  0
  -25.6490  -32.5503   21.3918 C   0  0  0  0  0  0  0  0  0  0  0  0
  -22.5998  -31.5899   21.9418 C   0  0  0  0  0  0  0  0  0  0  0  0
  -20.3901  -29.0105   22.2745 C   0  0  0  0  0  0  0  0  0  0  0  0
  -30.6826  -14.8382   20.5835 C   0  0  0  0  0  0  0  0  0  0  0  0
  -26.4489  -37.5916   21.3424 C   0  0  0  0  0  0  0  0  0  0  0  0
  -25.2517  -30.9973   19.4459 C   0  0  0  0  0  0  0  0  0  0  0  0
  -24.3756  -29.7988   22.0034 C   0  0  0  0  0  0  0  0  0  0  0  0
  -25.5155  -36.6416   22.0883 C   0  0  0  0  0  0  0  0  0  0  0  0
  -29.3830  -12.6680   17.8810 C   0  0  0  0  0  0  0  0  0  0  0  0
  -26.3000  -35.4699   22.6701 C   0  0  0  0  0  0  0  0  0  0  0  0
  -28.0155  -12.2495   18.4185 C   0  0  0  0  0  0  0  0  0  0  0  0
  -30.3684  -12.9650   19.0073 C   0  0  0  0  0  0  0  0  0  0  0  0
  -28.5079  -13.5495   20.5275 C   0  0  0  0  0  0  0  0  0  0  0  0
  -26.9717  -34.6508   21.5613 C   0  0  1  0  0  0  0  0  0  0  0  0
  -24.6250  -31.8382   20.5539 C   0  0  1  0  0  0  0  0  0  0  0  0
  -27.4778  -13.2879   19.4184 C   0  0  2  0  0  0  0  0  0  0  0  0
  -29.9020  -16.7267   17.7393 C   0  0  0  0  0  0  0  0  0  0  0  0
  -17.9742  -28.5365   22.7604 C   0  0  0  0  0  0  0  0  0  0  0  0
  -23.0833  -32.1694   24.8983 C   0  0  0  0  0  0  0  0  0  0  0  0
  -21.0445  -30.8153   25.4255 C   0  0  0  0  0  0  0  0  0  0  0  0
  -20.8430  -32.8850   24.0477 C   0  0  0  0  0  0  0  0  0  0  0  0
  -31.0103  -17.0736   21.5707 C   0  0  0  0  0  0  0  0  0  0  0  0
  -19.9961  -27.7110   19.6449 C   0  0  0  0  0  0  0  0  0  0  0  0
  -28.8553  -16.5851   20.4739 C   0  0  0  0  0  0  0  0  0  0  0  0
  -27.9201  -23.8289   20.8366 C   0  0  0  0  0  0  0  0  0  0  0  0
  -28.3667  -22.7660   19.8400 C   0  0  0  0  0  0  0  0  0  0  0  0
  -28.0198  -25.2447   20.2811 C   0  0  0  0  0  0  0  0  0  1  0  0
  -21.9020  -30.8228   23.0389 C   0  0  1  0  0  0  0  0  0  0  0  0
  -19.0136  -28.7800   21.6774 C   0  0  2  0  0  0  0  0  0  0  0  0
  -21.7397  -31.6617   24.3378 C   0  0  0  0  0  0  0  0  0  0  0  0
  -25.8576  -11.5796   20.1525 N   0  0  0  0  0  0  0  0  0  0  0  0
  -26.1297  -12.8852   19.9867 N   0  0  0  0  0  0  0  0  0  0  0  0
  -23.8018  -31.0447   21.4687 N   0  0  0  0  0  0  0  0  0  0  0  0
  -29.8152  -13.9218   19.9663 N   0  0  0  0  0  0  0  0  0  0  0  0
  -25.2212  -15.0546   20.2684 N   0  0  0  0  0  0  0  0  0  0  0  0
  -21.9188  -12.3438   21.7320 N   0  0  0  0  0  0  0  0  0  0  0  0
  -28.2938  -21.4508   20.4291 N   0  0  0  0  0  0  0  0  0  0  0  0
  -26.0044  -33.7951   20.9084 N   0  0  0  0  0  0  0  0  0  0  0  0
  -20.6436  -30.3516   22.4707 N   0  0  0  0  0  0  0  0  0  0  0  0
  -30.1476  -16.0856   20.9388 N   0  0  0  0  0  0  0  0  0  0  0  0
  -19.0337  -27.5972   20.7709 N   0  3  0  0  0  0  0  0  0  0  0  0
  -22.5142  -14.5301   21.3793 O   0  0  0  0  0  0  0  0  0  0  0  0
  -26.0834  -32.0109   22.4028 O   0  0  0  0  0  0  0  0  0  0  0  0
  -22.0933  -32.6307   21.5153 O   0  0  0  0  0  0  0  0  0  0  0  0
  -21.1617  -28.0925   22.5438 O   0  0  0  0  0  0  0  0  0  0  0  0
  -31.8700  -14.5607   20.7956 O   0  0  0  0  0  0  0  0  0  0  0  0
  -22.0620   -6.7775   21.9081 O   0  0  0  0  0  0  0  0  0  0  0  0
  -27.5660  -26.1614   21.2761 O   0  0  0  0  0  0  0  0  0  1  0  0
  -19.4199   -6.4672   26.7379 F   0  0  0  0  0  0  0  0  0  0  0  0
  -22.7855   -4.8985   23.8024 F   0  0  0  0  0  0  0  0  0  0  0  0
  1  2  1  0  0  0  0
  1  5  2  0  0  0  0
  2  6  2  0  0  0  0
  3 10  2  0  0  0  0
  3 18  1  0  0  0  0
  4 11  1  0  0  0  0
  4 18  2  0  0  0  0
  5 20  1  0  0  0  0
  6 22  1  0  0  0  0
  7 12  2  0  0  0  0
  7 21  1  0  0  0  0
  8  9  2  0  0  0  0
  8 24  1  0  0  0  0
  9 26  1  0  0  0  0
 10 27  1  0  0  0  0
 11 27  2  0  0  0  0
 12 28  1  0  0  0  0
 13 14  2  0  0  0  0
 13 29  1  0  0  0  0
 14 30  1  0  0  0  0
 15 23  1  0  0  0  0
 15 28  2  0  0  0  0
 16 25  1  0  0  0  0
 16 26  2  0  0  0  0
 17 30  2  0  0  0  0
 17 31  1  0  0  0  0
 18 32  1  0  0  0  0
 19 32  1  0  0  0  0
 19 33  2  0  0  0  0
 19 34  1  0  0  0  0
 20 22  2  0  0  0  0
 20 39  1  0  0  0  0
 21 23  2  0  0  0  0
 21 40  1  0  0  0  0
 22 48  1  0  0  0  0
 23 41  1  0  0  0  0
 24 25  2  0  0  0  0
 24 51  1  0  0  0  0
 25 58  1  0  0  0  0
 26 71  1  0  0  0  0
 27 81  1  0  0  0  0
 28 82  1  0  0  0  0
 29 31  2  0  0  0  0
 29 81  1  0  0  0  0
 30 83  1  0  0  0  0
 31 84  1  0  0  0  0
 32 65  2  0  0  0  0
 33 66  1  0  0  0  0
 33 69  1  0  0  0  0
 34 70  1  0  0  0  0
 34 76  2  0  0  0  0
 35 49  1  0  0  0  0
 35 72  1  0  0  0  0
 35 77  2  0  0  0  0
 36 62  1  0  0  0  0
 36 67  1  0  0  0  0
 36 78  2  0  0  0  0
 37 63  1  0  0  0  0
 37 73  1  0  0  0  0
 37 79  2  0  0  0  0
 38 68  1  0  0  0  0
 38 74  1  0  0  0  0
 38 80  2  0  0  0  0
 39 42  1  0  0  0  0
 40 49  1  0  0  0  0
 41 67  1  0  0  0  0
 42 44  1  0  0  0  0
 43 45  1  0  0  0  0
 43 46  1  0  0  0  0
 44 48  1  0  0  0  0
 45 50  1  0  0  0  0
 46 68  1  0  0  0  0
 47 50  1  0  0  0  0
 47 68  1  0  0  0  0
 48 72  1  0  0  0  0
 49 67  1  0  0  0  0
 50 66  1  0  0  0  0
 52 63  1  0  0  0  0
 53 64  1  0  0  0  0
 54 64  1  0  0  0  0
 55 64  1  0  0  0  0
 56 74  1  0  0  0  0
 57 75  1  0  0  0  0
 58 74  1  0  0  0  0
 59 60  1  0  0  0  0
 59 61  1  0  0  0  0
 60 71  1  0  0  0  0
 61 82  1  0  0  0  0
 62 64  1  0  0  0  0
 62 73  1  0  0  0  0
 63 75  1  0  0  0  0
 65 66  1  0  0  0  0
M  CHG  1  75   1
M  ISO  4  38 100  61 101  74 100  82 101
M  END
> <Batch ID>
0026

> <Smiles>
CNC(C)C(=O)NC(C(=O)N1Cc2cc([101O:1][101CH2:1]CCNc3ccc(C)c(C[100N:0](C)[100C:0](=O)N4CCCC(n5nc(-c6ccc(Oc7ccc(F)cc7F)cc6)c(C(N)=O)c5N)C4)c3)ccc2CC1C(=O)NC1CCCc2ccccc21)C(C)(C)C

> <Shape>
0.371

> <Color>
0.221

> <Negative vol penalty>
0.000

$$$$

  -OEChem-04042321253D

 82 90  0     1  0  0  0  0  0999 V2000
  -22.2698  -28.3637   22.4607 C   0  0  0  0  0  0  0  0  0  0  0  0
  -23.3857  -27.6275   22.8458 C   0  0  0  0  0  0  0  0  0  0  0  0
  -23.0782   -9.8646   19.9413 C   0  0  0  0  0  0  0  0  0  0  0  0
  -23.8339   -9.8770   22.2361 C   0  0  0  0  0  0  0  0  0  0  0  0
  -21.3423  -28.7736   23.4176 C   0  0  0  0  0  0  0  0  0  0  0  0
  -23.5752  -27.3017   24.1883 C   0  0  0  0  0  0  0  0  0  0  0  0
  -24.9666  -22.4762   24.8386 C   0  0  0  0  0  0  0  0  0  0  0  0
  -22.3345   -8.7116   20.1924 C   0  0  0  0  0  0  0  0  0  0  0  0
  -23.0901   -8.7240   22.4872 C   0  0  0  0  0  0  0  0  0  0  0  0
  -26.2991  -22.1574   24.5806 C   0  0  0  0  0  0  0  0  0  0  0  0
  -19.8613   -7.9257   23.0855 C   0  0  0  0  0  0  0  0  0  0  0  0
  -19.1022   -7.8879   24.2551 C   0  0  0  0  0  0  0  0  0  0  0  0
  -26.7669  -22.2244   26.9461 C   0  0  0  0  0  0  0  0  0  0  0  0
  -32.0585  -16.6006   22.5365 C   0  0  0  0  0  0  0  0  0  0  0  0
  -31.8825  -18.3558   24.1873 C   0  0  0  0  0  0  0  0  0  0  0  0
  -20.3434   -5.9527   24.9981 C   0  0  0  0  0  0  0  0  0  0  0  0
  -23.8279  -10.4473   20.9631 C   0  0  0  0  0  0  0  0  0  0  0  0
  -24.1686  -12.9724   20.8382 C   0  0  0  0  0  0  0  0  0  0  0  0
  -21.5156  -28.4444   24.7712 C   0  0  0  0  0  0  0  0  0  0  0  0
  -24.5259  -22.6825   26.1538 C   0  0  0  0  0  0  0  0  0  0  0  0
  -22.6499  -27.7088   25.1644 C   0  0  0  0  0  0  0  0  0  0  0  0
  -25.4278  -22.5432   27.2184 C   0  0  0  0  0  0  0  0  0  0  0  0
  -29.8895  -17.4741   23.1442 C   0  0  0  0  0  0  0  0  0  0  0  0
  -30.6712  -16.5979   22.3914 C   0  0  0  0  0  0  0  0  0  0  0  0
  -30.4951  -18.3531   24.0422 C   0  0  0  0  0  0  0  0  0  0  0  0
  -22.3405   -8.1413   21.4654 C   0  0  0  0  0  0  0  0  0  0  0  0
  -27.2001  -22.0343   25.6342 C   0  0  0  0  0  0  0  0  0  0  0  0
  -20.8614   -6.9769   22.8721 C   0  0  0  0  0  0  0  0  0  0  0  0
  -19.3433   -6.9014   25.2114 C   0  0  0  0  0  0  0  0  0  0  0  0
  -21.1024   -5.9905   23.8284 C   0  0  0  0  0  0  0  0  0  0  0  0
  -32.6641  -17.4795   23.4345 C   0  0  0  0  0  0  0  0  0  0  0  0
  -24.5968  -11.6381   20.7042 C   0  0  0  0  0  0  0  0  0  0  0  0
  -25.2610  -13.7217   20.4754 C   0  0  0  0  0  0  0  0  0  0  0  0
  -22.8970  -13.4884   21.2537 C   0  0  0  0  0  0  0  0  0  0  0  0
  -23.2754  -25.1359   27.7415 C   0  0  0  0  0  0  0  0  0  0  0  0
  -22.9487  -22.9373   30.1041 C   0  0  0  0  0  0  0  0  0  0  0  0
  -23.9912  -19.9987   31.4915 C   0  0  0  0  0  0  0  0  0  0  0  0
  -30.7262  -14.7708   20.6579 C   0  0  0  0  0  0  0  0  0  0  0  0
  -20.5107  -28.9502   25.7757 C   0  0  0  0  0  0  0  0  0  0  0  0
  -23.0794  -22.9995   26.4174 C   0  0  0  0  0  0  0  0  0  0  0  0
  -25.0004  -22.7347   28.6499 C   0  0  0  0  0  0  0  0  0  0  0  0
  -20.5906  -28.2431   27.1262 C   0  0  0  0  0  0  0  0  0  0  0  0
  -29.6176  -12.3512   18.2928 C   0  0  0  0  0  0  0  0  0  0  0  0
  -22.0399  -28.1414   27.5906 C   0  0  0  0  0  0  0  0  0  0  0  0
  -28.1773  -12.0597   18.7204 C   0  0  0  0  0  0  0  0  0  0  0  0
  -30.5303  -12.5831   19.4957 C   0  0  0  0  0  0  0  0  0  0  0  0
  -28.6204  -13.3095   20.8718 C   0  0  0  0  0  0  0  0  0  0  0  0
  -22.8776  -27.3146   26.6076 C   0  0  1  0  0  0  0  0  0  0  0  0
  -22.8543  -23.6936   27.7571 C   0  0  1  0  0  0  0  0  0  0  0  0
  -27.6499  -13.1331   19.6926 C   0  0  2  0  0  0  0  0  0  0  0  0
  -28.4002  -17.4713   22.9889 C   0  0  0  0  0  0  0  0  0  0  0  0
  -23.5604  -18.4786   33.4411 C   0  0  0  0  0  0  0  0  0  0  0  0
  -24.4394  -24.8687   31.9365 C   0  0  0  0  0  0  0  0  0  0  0  0
  -24.8098  -22.9679   33.5232 C   0  0  0  0  0  0  0  0  0  0  0  0
  -22.4893  -23.7181   32.9985 C   0  0  0  0  0  0  0  0  0  0  0  0
  -23.2290  -17.7531   29.7209 C   0  0  0  0  0  0  0  0  0  0  0  0
  -30.2993  -20.1657   25.7457 C   0  0  0  0  0  0  0  0  0  0  0  0
  -29.1983  -20.9903   26.3913 C   0  0  0  0  0  0  0  0  0  1  0  0
  -23.8111  -22.4610   31.2480 C   0  0  1  0  0  0  0  0  0  0  0  0
  -23.2192  -18.7915   31.9925 C   0  0  2  0  0  0  0  0  0  0  0  0
  -23.8962  -23.5021   32.3995 C   0  0  0  0  0  0  0  0  0  0  0  0
  -25.8625  -11.5420   20.2885 N   0  0  0  0  0  0  0  0  0  0  0  0
  -26.2389  -12.8255   20.1581 N   0  0  0  0  0  0  0  0  0  0  0  0
  -23.5771  -23.0496   28.8558 N   0  0  0  0  0  0  0  0  0  0  0  0
  -29.9691  -13.6155   20.3698 N   0  0  0  0  0  0  0  0  0  0  0  0
  -25.4707  -15.0531   20.3998 N   0  0  0  0  0  0  0  0  0  0  0  0
  -21.8850  -12.5794   21.5911 N   0  0  0  0  0  0  0  0  0  0  0  0
  -30.0768  -15.6972   21.4731 N   0  0  0  0  0  0  0  0  0  0  0  0
  -29.7363  -19.2307   24.7987 N   0  0  0  0  0  0  0  0  0  0  0  0
  -22.6252  -25.9016   26.7926 N   0  0  0  0  0  0  0  0  0  0  0  0
  -23.2747  -21.1658   31.6519 N   0  0  0  0  0  0  0  0  0  0  0  0
  -23.5373  -17.5934   31.1654 N   0  3  0  0  0  0  0  0  0  0  0  0
  -22.6600  -14.7190   21.3079 O   0  0  0  0  0  0  0  0  0  0  0  0
  -24.1261  -25.5255   28.5329 O   0  0  0  0  0  0  0  0  0  0  0  0
  -21.7596  -23.1932   30.3092 O   0  0  0  0  0  0  0  0  0  0  0  0
  -25.1189  -19.9152   31.0098 O   0  0  0  0  0  0  0  0  0  0  0  0
  -31.8561  -14.9391   20.1920 O   0  0  0  0  0  0  0  0  0  0  0  0
  -21.6147   -7.0163   21.7108 O   0  0  0  0  0  0  0  0  0  0  0  0
  -28.5015  -21.7239   25.3851 O   0  0  0  0  0  0  0  0  0  1  0  0
  -18.6153   -6.8662   26.3352 F   0  0  0  0  0  0  0  0  0  0  0  0
  -22.0627   -5.0771   23.6296 F   0  0  0  0  0  0  0  0  0  0  0  0
  -34.3759  -17.4829   23.6133 Cl  0  0  0  0  0  0  0  0  0  0  0  0
  1  2  1  0  0  0  0
  1  5  2  0  0  0  0
  2  6  2  0  0  0  0
  3  8  2  0  0  0  0
  3 17  1  0  0  0  0
  4  9  1  0  0  0  0
  4 17  2  0  0  0  0
  5 19  1  0  0  0  0
  6 21  1  0  0  0  0
  7 10  2  0  0  0  0
  7 20  1  0  0  0  0
  8 26  1  0  0  0  0
  9 26  2  0  0  0  0
 10 27  1  0  0  0  0
 11 12  2  0  0  0  0
 11 28  1  0  0  0  0
 12 29  1  0  0  0  0
 13 22  1  0  0  0  0
 13 27  2  0  0  0  0
 14 24  2  0  0  0  0
 14 31  1  0  0  0  0
 15 25  1  0  0  0  0
 15 31  2  0  0  0  0
 16 29  2  0  0  0  0
 16 30  1  0  0  0  0
 17 32  1  0  0  0  0
 18 32  1  0  0  0  0
 18 33  2  0  0  0  0
 18 34  1  0  0  0  0
 19 21  2  0  0  0  0
 19 39  1  0  0  0  0
 20 22  2  0  0  0  0
 20 40  1  0  0  0  0
 21 48  1  0  0  0  0
 22 41  1  0  0  0  0
 23 24  1  0  0  0  0
 23 25  2  0  0  0  0
 23 51  1  0  0  0  0
 24 68  1  0  0  0  0
 25 69  1  0  0  0  0
 26 78  1  0  0  0  0
 27 79  1  0  0  0  0
 28 30  2  0  0  0  0
 28 78  1  0  0  0  0
 29 80  1  0  0  0  0
 30 81  1  0  0  0  0
 31 82  1  0  0  0  0
 32 62  2  0  0  0  0
 33 63  1  0  0  0  0
 33 66  1  0  0  0  0
 34 67  1  0  0  0  0
 34 73  2  0  0  0  0
 35 49  1  0  0  0  0
 35 70  1  0  0  0  0
 35 74  2  0  0  0  0
 36 59  1  0  0  0  0
 36 64  1  0  0  0  0
 36 75  2  0  0  0  0
 37 60  1  0  0  0  0
 37 71  1  0  0  0  0
 37 76  2  0  0  0  0
 38 65  1  0  0  0  0
 38 68  1  0  0  0  0
 38 77  2  0  0  0  0
 39 42  1  0  0  0  0
 40 49  1  0  0  0  0
 41 64  1  0  0  0  0
 42 44  1  0  0  0  0
 43 45  1  0  0  0  0
 43 46  1  0  0  0  0
 44 48  1  0  0  0  0
 45 50  1  0  0  0  0
 46 65  1  0  0  0  0
 47 50  1  0  0  0  0
 47 65  1  0  0  0  0
 48 70  1  0  0  0  0
 49 64  1  0  0  0  0
 50 63  1  0  0  0  0
 52 60  1  0  0  0  0
 53 61  1  0  0  0  0
 54 61  1  0  0  0  0
 55 61  1  0  0  0  0
 56 72  1  0  0  0  0
 57 58  1  0  0  0  0
 57 69  1  0  0  0  0
 58 79  1  0  0  0  0
 59 61  1  0  0  0  0
 59 71  1  0  0  0  0
 60 72  1  0  0  0  0
 62 63  1  0  0  0  0
M  CHG  1  72   1
M  ISO  4  38 100  58 101  68 100  79 101
M  END
> <Batch ID>
0026

> <Smiles>
CNC(C)C(=O)NC(C(=O)N1Cc2cc([101O:1][101CH2:1]CNc3cc(Cl)cc([100NH:0][100C:0](=O)N4CCCC(n5nc(-c6ccc(Oc7ccc(F)cc7F)cc6)c(C(N)=O)c5N)C4)c3C)ccc2CC1C(=O)NC1CCCc2ccccc21)C(C)(C)C

> <Shape>
0.189

> <Color>
0.196

> <Negative vol penalty>
0.000

$$$$

  -OEChem-04042321253D

 87 96  0     1  0  0  0  0  0999 V2000
  -16.9737  -28.1212   23.8238 C   0  0  0  0  0  0  0  0  0  0  0  0
  -17.9854  -27.3241   23.2981 C   0  0  0  0  0  0  0  0  0  0  0  0
  -22.8676  -11.7266   22.5341 C   0  0  0  0  0  0  0  0  0  0  0  0
  -24.2988   -9.7802   22.5263 C   0  0  0  0  0  0  0  0  0  0  0  0
  -17.0351  -29.5069   23.6826 C   0  0  0  0  0  0  0  0  0  0  0  0
  -19.0587  -27.9122   22.6299 C   0  0  0  0  0  0  0  0  0  0  0  0
  -23.5176  -25.9453   24.0063 C   0  0  0  0  0  0  0  0  0  0  0  0
  -31.4349  -18.3647   22.7003 C   0  0  0  0  0  0  0  0  0  0  0  0
  -31.1122  -17.2331   21.9515 C   0  0  0  0  0  0  0  0  0  0  0  0
  -22.1863  -11.2213   23.6414 C   0  0  0  0  0  0  0  0  0  0  0  0
  -23.6175   -9.2748   23.6337 C   0  0  0  0  0  0  0  0  0  0  0  0
  -23.8642  -24.7100   23.4608 C   0  0  0  0  0  0  0  0  0  0  0  0
  -20.6996   -7.6819   24.2497 C   0  0  0  0  0  0  0  0  0  0  0  0
  -20.3394   -6.3346   24.2295 C   0  0  0  0  0  0  0  0  0  0  0  0
  -28.7817  -17.8688   21.9952 C   0  0  0  0  0  0  0  0  0  0  0  0
  -25.2715  -25.8235   21.8487 C   0  0  0  0  0  0  0  0  0  0  0  0
  -21.6610   -5.9514   26.2153 C   0  0  0  0  0  0  0  0  0  0  0  0
  -23.9238  -11.0060   21.9765 C   0  0  0  0  0  0  0  0  0  0  0  0
  -29.1045  -19.0005   22.7440 C   0  0  0  0  0  0  0  0  0  0  0  0
  -24.0878  -11.8311   19.5682 C   0  0  0  0  0  0  0  0  0  0  0  0
  -18.1145  -30.1130   23.0207 C   0  0  0  0  0  0  0  0  0  0  0  0
  -24.0377  -27.1317   23.4693 C   0  0  0  0  0  0  0  0  0  0  0  0
  -19.1339  -29.3073   22.4784 C   0  0  0  0  0  0  0  0  0  0  0  0
  -24.9319  -27.0724   22.3909 C   0  0  0  0  0  0  0  0  0  0  0  0
  -30.4311  -19.2485   23.0966 C   0  0  0  0  0  0  0  0  0  0  0  0
  -29.7856  -16.9851   21.5989 C   0  0  0  0  0  0  0  0  0  0  0  0
  -22.5612   -9.9954   24.1912 C   0  0  0  0  0  0  0  0  0  0  0  0
  -24.7390  -24.6491   22.3800 C   0  0  0  0  0  0  0  0  0  0  0  0
  -21.5407   -8.1641   25.2527 C   0  0  0  0  0  0  0  0  0  0  0  0
  -20.8200   -5.4693   25.2123 C   0  0  0  0  0  0  0  0  0  0  0  0
  -22.0214   -7.2988   26.2355 C   0  0  0  0  0  0  0  0  0  0  0  0
  -24.6276  -11.5273   20.8324 C   0  0  0  0  0  0  0  0  0  0  0  0
  -25.1574  -12.2914   18.8398 C   0  0  0  0  0  0  0  0  0  0  0  0
  -26.6431  -21.8711   22.7195 C   0  0  0  0  0  0  0  0  0  0  0  0
  -28.0293  -19.9219   23.1527 C   0  0  0  0  0  0  0  0  0  0  0  0
  -22.7401  -11.7083   19.0947 C   0  0  0  0  0  0  0  0  0  0  0  0
  -22.7863  -29.7052   22.0856 C   0  0  0  0  0  0  0  0  0  0  0  0
  -25.8430  -30.7830   22.2178 C   0  0  0  0  0  0  0  0  0  0  0  0
  -29.1394  -29.4286   21.6551 C   0  0  0  0  0  0  0  0  0  0  0  0
  -30.3334  -14.8583   20.3648 C   0  0  0  0  0  0  0  0  0  0  0  0
  -18.1134  -31.6117   22.8515 C   0  0  0  0  0  0  0  0  0  0  0  0
  -23.6748  -28.4546   24.0862 C   0  0  0  0  0  0  0  0  0  0  0  0
  -25.5338  -28.3157   21.7906 C   0  0  0  0  0  0  0  0  0  0  0  0
  -19.4736  -32.1811   22.4568 C   0  0  0  0  0  0  0  0  0  0  0  0
  -28.3506  -22.3972   20.4391 C   0  0  0  0  0  0  0  0  0  0  0  0
  -29.9141  -11.8601   18.4907 C   0  0  0  0  0  0  0  0  0  0  0  0
  -20.0894  -31.3593   21.3288 C   0  0  0  0  0  0  0  0  0  0  0  0
  -26.9233  -22.9047   20.4313 C   0  0  0  0  0  0  0  0  0  0  0  0
  -28.4600  -11.4654   18.7586 C   0  0  0  0  0  0  0  0  0  0  0  0
  -28.4013  -21.0127   21.0528 C   0  0  0  0  0  0  0  0  0  0  0  0
  -30.5736  -12.4686   19.7271 C   0  0  0  0  0  0  0  0  0  0  0  0
  -28.3875  -13.1931   20.6017 C   0  0  0  0  0  0  0  0  0  0  0  0
  -20.3270  -29.9096   21.7686 C   0  0  1  0  0  0  0  0  0  0  0  0
  -26.4519  -23.0977   21.8577 C   0  0  1  0  0  0  0  0  0  1  0  0
  -23.8619  -29.6302   23.1320 C   0  0  1  0  0  0  0  0  0  0  0  0
  -27.6614  -12.6351   19.3667 C   0  0  2  0  0  0  0  0  0  0  0  0
  -30.8020  -20.4537   23.8970 C   0  0  0  0  0  0  0  0  0  0  0  0
  -31.3621  -30.0951   22.6106 C   0  0  0  0  0  0  0  0  0  0  0  0
  -26.0866  -32.4914   19.7015 C   0  0  0  0  0  0  0  0  0  0  0  0
  -28.5162  -31.8934   19.6148 C   0  0  0  0  0  0  0  0  0  0  0  0
  -27.6136  -33.1577   21.5666 C   0  0  0  0  0  0  0  0  0  0  0  0
  -29.6684  -26.6882   22.6397 C   0  0  0  0  0  0  0  0  0  0  0  0
  -27.0433  -30.7085   21.3052 C   0  0  1  0  0  0  0  0  0  0  0  0
  -30.1911  -29.1297   22.7083 C   0  0  2  0  0  0  0  0  0  0  0  0
  -27.2950  -32.0424   20.5471 C   0  0  0  0  0  0  0  0  0  0  0  0
  -25.9383  -11.7736   20.9061 N   0  0  0  0  0  0  0  0  0  0  0  0
  -26.2311  -12.2371   19.6791 N   0  0  0  0  0  0  0  0  0  0  0  0
  -27.6986  -20.9374   22.3550 N   0  0  0  0  0  0  0  0  0  0  0  0
  -25.1434  -29.5857   22.4248 N   0  0  0  0  0  0  0  0  0  0  0  0
  -29.7635  -13.5731   20.2454 N   0  0  0  0  0  0  0  0  0  0  0  0
  -25.2748  -12.7332   17.5696 N   0  0  0  0  0  0  0  0  0  0  0  0
  -21.7650  -11.2180   19.9741 N   0  0  0  0  0  0  0  0  0  0  0  0
  -29.4582  -15.8353   20.8382 N   0  0  0  0  0  0  0  0  0  0  0  0
  -21.5087  -29.8206   22.5992 N   0  0  0  0  0  0  0  0  0  0  0  0
  -28.1610  -30.2730   22.1356 N   0  0  0  0  0  0  0  0  0  0  0  0
  -27.4046  -19.7248   24.3100 N   0  3  0  0  0  0  0  0  0  0  0  0
  -30.7104  -27.7427   22.5427 N   0  3  0  0  0  0  0  0  0  0  0  0
  -25.9738  -21.6715   23.7289 O   0  0  0  0  0  0  0  0  0  0  0  0
  -22.4134  -12.0085   17.9214 O   0  0  0  0  0  0  0  0  0  0  0  0
  -23.0930  -29.6631   20.8999 O   0  0  0  0  0  0  0  0  0  0  0  0
  -25.5417  -31.8622   22.7337 O   0  0  0  0  0  0  0  0  0  0  0  0
  -29.1837  -28.9628   20.5186 O   0  0  0  0  0  0  0  0  0  0  0  0
  -31.5032  -15.0819   20.0432 O   0  0  0  0  0  0  0  0  0  0  0  0
  -21.8968   -9.5021   25.2718 O   0  0  0  0  0  0  0  0  0  0  0  0
  -25.0784  -23.4446   21.8452 O   0  0  0  0  0  0  0  0  0  1  0  0
  -20.4727   -4.1758   25.1937 F   0  0  0  0  0  0  0  0  0  0  0  0
  -22.8287   -7.7564   27.2022 F   0  0  0  0  0  0  0  0  0  0  0  0
  1  2  1  0  0  0  0
  1  5  2  0  0  0  0
  2  6  2  0  0  0  0
  3 10  2  0  0  0  0
  3 18  1  0  0  0  0
  4 11  1  0  0  0  0
  4 18  2  0  0  0  0
  5 21  1  0  0  0  0
  6 23  1  0  0  0  0
  7 12  2  0  0  0  0
  7 22  1  0  0  0  0
  8  9  2  0  0  0  0
  8 25  1  0  0  0  0
  9 26  1  0  0  0  0
 10 27  1  0  0  0  0
 11 27  2  0  0  0  0
 12 28  1  0  0  0  0
 13 14  2  0  0  0  0
 13 29  1  0  0  0  0
 14 30  1  0  0  0  0
 15 19  1  0  0  0  0
 15 26  2  0  0  0  0
 16 24  1  0  0  0  0
 16 28  2  0  0  0  0
 17 30  2  0  0  0  0
 17 31  1  0  0  0  0
 18 32  1  0  0  0  0
 19 25  2  0  0  0  0
 19 35  1  0  0  0  0
 20 32  1  0  0  0  0
 20 33  2  0  0  0  0
 20 36  1  0  0  0  0
 21 23  2  0  0  0  0
 21 41  1  0  0  0  0
 22 24  2  0  0  0  0
 22 42  1  0  0  0  0
 23 53  1  0  0  0  0
 24 43  1  0  0  0  0
 25 57  1  0  0  0  0
 26 73  1  0  0  0  0
 27 84  1  0  0  0  0
 28 85  1  0  0  0  0
 29 31  2  0  0  0  0
 29 84  1  0  0  0  0
 30 86  1  0  0  0  0
 31 87  1  0  0  0  0
 32 66  2  0  0  0  0
 33 67  1  0  0  0  0
 33 71  1  0  0  0  0
 34 54  1  0  0  0  0
 34 68  1  0  0  0  0
 34 78  2  0  0  0  0
 35 68  1  0  0  0  0
 35 76  2  0  0  0  0
 36 72  1  0  0  0  0
 36 79  2  0  0  0  0
 37 55  1  0  0  0  0
 37 74  1  0  0  0  0
 37 80  2  0  0  0  0
 38 63  1  0  0  0  0
 38 69  1  0  0  0  0
 38 81  2  0  0  0  0
 39 64  1  0  0  0  0
 39 75  1  0  0  0  0
 39 82  2  0  0  0  0
 40 70  1  0  0  0  0
 40 73  1  0  0  0  0
 40 83  2  0  0  0  0
 41 44  1  0  0  0  0
 42 55  1  0  0  0  0
 43 69  1  0  0  0  0
 44 47  1  0  0  0  0
 45 48  1  0  0  0  0
 45 50  1  0  0  0  0
 46 49  1  0  0  0  0
 46 51  1  0  0  0  0
 47 53  1  0  0  0  0
 48 54  1  0  0  0  0
 49 56  1  0  0  0  0
 50 68  1  0  0  0  0
 51 70  1  0  0  0  0
 52 56  1  0  0  0  0
 52 70  1  0  0  0  0
 53 74  1  0  0  0  0
 54 85  1  0  0  0  0
 55 69  1  0  0  0  0
 56 67  1  0  0  0  0
 58 64  1  0  0  0  0
 59 65  1  0  0  0  0
 60 65  1  0  0  0  0
 61 65  1  0  0  0  0
 62 77  1  0  0  0  0
 63 65  1  0  0  0  0
 63 75  1  0  0  0  0
 64 77  1  0  0  0  0
 66 67  1  0  0  0  0
M  CHG  2  76   1  77   1
M  ISO  4  40 100  54 101  73 100  85 101
M  END
> <Batch ID>
0026

> <Smiles>
CNC(C)C(=O)NC(C(=O)N1Cc2cc([101O:1][101CH:1]3CCCN(C(=N)c4cc([100NH:0][100C:0](=O)N5CCCC(n6nc(-c7ccc(Oc8ccc(F)cc8F)cc7)c(C(N)=O)c6N)C5)ccc4C)C3=O)ccc2CC1C(=O)NC1CCCc2ccccc21)C(C)(C)C

> <Shape>
0.261

> <Color>
0.083

> <Negative vol penalty>
0.000

$$$$

  -OEChem-04042321253D

 84 93  0     1  0  0  0  0  0999 V2000
  -16.6549  -25.0545   22.6299 C   0  0  0  0  0  0  0  0  0  0  0  0
  -17.7999  -24.3828   22.2135 C   0  0  0  0  0  0  0  0  0  0  0  0
  -32.1744  -18.8461   19.2596 C   0  0  0  0  0  0  0  0  0  0  0  0
  -23.4236  -10.1389   22.3839 C   0  0  0  0  0  0  0  0  0  0  0  0
  -24.1861  -11.7310   24.0334 C   0  0  0  0  0  0  0  0  0  0  0  0
  -16.7323  -26.3949   23.0055 C   0  0  0  0  0  0  0  0  0  0  0  0
  -19.0227  -25.0517   22.1714 C   0  0  0  0  0  0  0  0  0  0  0  0
  -24.5503  -22.6956   23.3546 C   0  0  0  0  0  0  0  0  0  0  0  0
  -31.2961  -19.9291   19.2983 C   0  0  0  0  0  0  0  0  0  0  0  0
  -31.6750  -17.5445   19.2140 C   0  0  0  0  0  0  0  0  0  0  0  0
  -22.8037   -9.3953   23.3881 C   0  0  0  0  0  0  0  0  0  0  0  0
  -23.5661  -10.9874   25.0377 C   0  0  0  0  0  0  0  0  0  0  0  0
  -25.5648  -22.2207   22.5245 C   0  0  0  0  0  0  0  0  0  0  0  0
  -23.7167   -7.1728   25.7653 C   0  0  0  0  0  0  0  0  0  0  0  0
  -23.8866   -5.7885   25.7443 C   0  0  0  0  0  0  0  0  0  0  0  0
  -26.6564  -24.3688   22.6399 C   0  0  0  0  0  0  0  0  0  0  0  0
  -21.4966   -5.4983   25.5424 C   0  0  0  0  0  0  0  0  0  0  0  0
  -24.1149  -11.3067   22.7066 C   0  0  0  0  0  0  0  0  0  0  0  0
  -24.1936  -13.1237   20.9178 C   0  0  0  0  0  0  0  0  0  0  0  0
  -17.9584  -27.0779   22.9772 C   0  0  0  0  0  0  0  0  0  0  0  0
  -24.5756  -24.0162   23.8256 C   0  0  0  0  0  0  0  0  0  0  0  0
  -19.1163  -26.4029   22.5456 C   0  0  0  0  0  0  0  0  0  0  0  0
  -25.6424  -24.8572   23.4780 C   0  0  0  0  0  0  0  0  0  0  0  0
  -29.9185  -19.7104   19.2915 C   0  0  0  0  0  0  0  0  0  0  0  0
  -30.2974  -17.3258   19.2072 C   0  0  0  0  0  0  0  0  0  0  0  0
  -22.8749   -9.8196   24.7150 C   0  0  0  0  0  0  0  0  0  0  0  0
  -26.6166  -23.0583   22.1647 C   0  0  0  0  0  0  0  0  0  0  0  0
  -22.4368   -7.7199   25.6749 C   0  0  0  0  0  0  0  0  0  0  0  0
  -22.7765   -4.9512   25.6328 C   0  0  0  0  0  0  0  0  0  0  0  0
  -21.3267   -6.8826   25.5634 C   0  0  0  0  0  0  0  0  0  0  0  0
  -29.4191  -18.4088   19.2460 C   0  0  0  0  0  0  0  0  0  0  0  0
  -24.7559  -12.0749   21.6698 C   0  0  0  0  0  0  0  0  0  0  0  0
  -25.2012  -13.5185   20.0721 C   0  0  0  0  0  0  0  0  0  0  0  0
  -29.2592  -22.1067   18.8104 C   0  0  0  0  0  0  0  0  0  0  0  0
  -22.8779  -13.6904   20.9783 C   0  0  0  0  0  0  0  0  0  0  0  0
  -22.6815  -26.5486   23.5051 C   0  0  0  0  0  0  0  0  0  0  0  0
  -24.7200  -27.8589   25.6615 C   0  0  0  0  0  0  0  0  0  0  0  0
  -27.8243  -27.8684   27.0793 C   0  0  0  0  0  0  0  0  0  0  0  0
  -30.5307  -14.8190   19.1187 C   0  0  0  0  0  0  0  0  0  0  0  0
  -17.9838  -28.5397   23.3473 C   0  0  0  0  0  0  0  0  0  0  0  0
  -23.4876  -24.5050   24.7419 C   0  0  0  0  0  0  0  0  0  0  0  0
  -25.7267  -26.2770   23.9733 C   0  0  0  0  0  0  0  0  0  0  0  0
  -27.9924  -22.9128   18.9954 C   0  0  0  0  0  0  0  0  0  0  0  0
  -19.3861  -29.0717   23.6316 C   0  0  0  0  0  0  0  0  0  0  0  0
  -29.6640  -11.3666   19.0353 C   0  0  0  0  0  0  0  0  0  0  0  0
  -20.3595  -28.6165   22.5490 C   0  0  0  0  0  0  0  0  0  0  0  0
  -28.2636  -11.3294   19.6514 C   0  0  0  0  0  0  0  0  0  0  0  0
  -30.5544  -12.4064   19.7133 C   0  0  0  0  0  0  0  0  0  0  0  0
  -28.5873  -13.7221   20.3977 C   0  0  0  0  0  0  0  0  0  0  0  0
  -27.6808  -20.7100   19.8767 C   0  0  0  0  0  0  0  0  0  0  0  0
  -20.4655  -27.0872   22.5100 C   0  0  1  0  0  0  0  0  0  0  0  0
  -23.3473  -26.0241   24.7457 C   0  0  1  0  0  0  0  0  0  0  0  0
  -27.6338  -12.7351   19.7047 C   0  0  2  0  0  0  0  0  0  0  0  0
  -27.2278  -22.1454   20.0584 C   0  0  1  0  0  0  0  0  0  1  0  0
  -29.2057  -29.0803   28.7883 C   0  0  0  0  0  0  0  0  0  0  0  0
  -25.0945  -30.1761   23.7120 C   0  0  0  0  0  0  0  0  0  0  0  0
  -27.1375  -30.8375   24.9993 C   0  0  0  0  0  0  0  0  0  0  0  0
  -24.9051  -30.8523   26.1123 C   0  0  0  0  0  0  0  0  0  0  0  0
  -28.1663  -25.4211   28.7081 C   0  0  0  0  0  0  0  0  0  0  0  0
  -26.0082  -28.6414   25.5764 C   0  0  1  0  0  0  0  0  0  0  0  0
  -28.2689  -27.9104   28.5302 C   0  0  2  0  0  0  0  0  0  0  0  0
  -25.7840  -30.1007   25.0889 C   0  0  0  0  0  0  0  0  0  0  0  0
  -26.0226  -11.8194   21.3315 N   0  0  0  0  0  0  0  0  0  0  0  0
  -26.2644  -12.7133   20.3576 N   0  0  0  0  0  0  0  0  0  0  0  0
  -29.0227  -20.8213   19.3311 N   0  0  0  0  0  0  0  0  0  0  0  0
  -24.6356  -26.7104   24.8617 N   0  0  0  0  0  0  0  0  0  0  0  0
  -29.8948  -13.7139   19.7230 N   0  0  0  0  0  0  0  0  0  0  0  0
  -25.2727  -14.4724   19.1195 N   0  0  0  0  0  0  0  0  0  0  0  0
  -21.9665  -13.1659   21.9048 N   0  0  0  0  0  0  0  0  0  0  0  0
  -29.7938  -16.0022   19.1609 N   0  0  0  0  0  0  0  0  0  0  0  0
  -21.3037  -26.6111   23.5895 N   0  0  0  0  0  0  0  0  0  0  0  0
  -26.6350  -28.5399   26.8899 N   0  0  0  0  0  0  0  0  0  0  0  0
  -28.9793  -26.6510   28.8909 N   0  3  0  0  0  0  0  0  0  0  0  0
  -30.2441  -22.5571   18.2430 O   0  0  0  0  0  0  0  0  0  0  0  0
  -22.5160  -14.6230   20.2215 O   0  0  0  0  0  0  0  0  0  0  0  0
  -23.3672  -26.8741   22.5430 O   0  0  0  0  0  0  0  0  0  0  0  0
  -23.8246  -28.2482   26.4153 O   0  0  0  0  0  0  0  0  0  0  0  0
  -28.4696  -27.3002   26.2011 O   0  0  0  0  0  0  0  0  0  0  0  0
  -31.6348  -14.7166   18.5779 O   0  0  0  0  0  0  0  0  0  0  0  0
  -22.2699   -9.0944   25.6951 O   0  0  0  0  0  0  0  0  0  0  0  0
  -27.6078  -22.5975   21.3541 O   0  0  0  0  0  0  0  0  0  1  0  0
  -22.9399   -3.6219   25.6111 F   0  0  0  0  0  0  0  0  0  0  0  0
  -20.0947   -7.4024   25.4751 F   0  0  0  0  0  0  0  0  0  0  0  0
  -28.0938  -18.1986   19.2404 F   0  0  0  0  0  0  0  0  0  0  0  0
  1  2  1  0  0  0  0
  1  6  2  0  0  0  0
  2  7  2  0  0  0  0
  3  9  2  0  0  0  0
  3 10  1  0  0  0  0
  4 11  2  0  0  0  0
  4 18  1  0  0  0  0
  5 12  1  0  0  0  0
  5 18  2  0  0  0  0
  6 20  1  0  0  0  0
  7 22  1  0  0  0  0
  8 13  2  0  0  0  0
  8 21  1  0  0  0  0
  9 24  1  0  0  0  0
 10 25  2  0  0  0  0
 11 26  1  0  0  0  0
 12 26  2  0  0  0  0
 13 27  1  0  0  0  0
 14 15  2  0  0  0  0
 14 28  1  0  0  0  0
 15 29  1  0  0  0  0
 16 23  1  0  0  0  0
 16 27  2  0  0  0  0
 17 29  2  0  0  0  0
 17 30  1  0  0  0  0
 18 32  1  0  0  0  0
 19 32  1  0  0  0  0
 19 33  2  0  0  0  0
 19 35  1  0  0  0  0
 20 22  2  0  0  0  0
 20 40  1  0  0  0  0
 21 23  2  0  0  0  0
 21 41  1  0  0  0  0
 22 51  1  0  0  0  0
 23 42  1  0  0  0  0
 24 31  2  0  0  0  0
 24 65  1  0  0  0  0
 25 31  1  0  0  0  0
 25 70  1  0  0  0  0
 26 80  1  0  0  0  0
 27 81  1  0  0  0  0
 28 30  2  0  0  0  0
 28 80  1  0  0  0  0
 29 82  1  0  0  0  0
 30 83  1  0  0  0  0
 31 84  1  0  0  0  0
 32 63  2  0  0  0  0
 33 64  1  0  0  0  0
 33 68  1  0  0  0  0
 34 43  1  0  0  0  0
 34 65  1  0  0  0  0
 34 74  2  0  0  0  0
 35 69  1  0  0  0  0
 35 75  2  0  0  0  0
 36 52  1  0  0  0  0
 36 71  1  0  0  0  0
 36 76  2  0  0  0  0
 37 60  1  0  0  0  0
 37 66  1  0  0  0  0
 37 77  2  0  0  0  0
 38 61  1  0  0  0  0
 38 72  1  0  0  0  0
 38 78  2  0  0  0  0
 39 67  1  0  0  0  0
 39 70  1  0  0  0  0
 39 79  2  0  0  0  0
 40 44  1  0  0  0  0
 41 52  1  0  0  0  0
 42 66  1  0  0  0  0
 43 54  1  0  0  0  0
 44 46  1  0  0  0  0
 45 47  1  0  0  0  0
 45 48  1  0  0  0  0
 46 51  1  0  0  0  0
 47 53  1  0  0  0  0
 48 67  1  0  0  0  0
 49 53  1  0  0  0  0
 49 67  1  0  0  0  0
 50 54  1  0  0  0  0
 50 65  1  0  0  0  0
 51 71  1  0  0  0  0
 52 66  1  0  0  0  0
 53 64  1  0  0  0  0
 54 81  1  0  0  0  0
 55 61  1  0  0  0  0
 56 62  1  0  0  0  0
 57 62  1  0  0  0  0
 58 62  1  0  0  0  0
 59 73  1  0  0  0  0
 60 62  1  0  0  0  0
 60 72  1  0  0  0  0
 61 73  1  0  0  0  0
 63 64  1  0  0  0  0
M  CHG  1  73   1
M  ISO  4  39 100  54 101  70 100  81 101
M  END
> <Batch ID>
0026

> <Smiles>
CNC(C)C(=O)NC(C(=O)N1Cc2cc([101O:1][101CH:1]3CC(=O)N(c4cccc([100NH:0][100C:0](=O)N5CCCC(n6nc(-c7ccc(Oc8ccc(F)cc8F)cc7)c(C(N)=O)c6N)C5)c4F)C3)ccc2CC1C(=O)NC1CCCc2ccccc21)C(C)(C)C

> <Shape>
0.241

> <Color>
0.111

> <Negative vol penalty>
0.000

$$$$

  -OEChem-04042321253D

 89 99  0     1  0  0  0  0  0999 V2000
  -28.5495  -36.6085   25.2149 C   0  0  0  0  0  0  0  0  0  0  0  0
  -28.9734  -35.4593   24.5551 C   0  0  0  0  0  0  0  0  0  0  0  0
  -22.9611   -9.6516   21.6950 C   0  0  0  0  0  0  0  0  0  0  0  0
  -25.3330   -9.4036   22.0814 C   0  0  0  0  0  0  0  0  0  0  0  0
  -27.3076  -36.6293   25.8484 C   0  0  0  0  0  0  0  0  0  0  0  0
  -28.1559  -34.3299   24.5294 C   0  0  0  0  0  0  0  0  0  0  0  0
  -27.5979  -30.2929   19.9580 C   0  0  0  0  0  0  0  0  0  0  0  0
  -30.1479  -24.4522   20.2312 C   0  0  0  0  0  0  0  0  0  0  0  0
  -30.9823  -19.7995   21.6641 C   0  0  0  0  0  0  0  0  0  0  0  0
  -30.5395  -23.1166   20.0919 C   0  0  0  0  0  0  0  0  0  0  0  0
  -22.8135   -8.2647   21.7103 C   0  0  0  0  0  0  0  0  0  0  0  0
  -25.1855   -8.0166   22.0968 C   0  0  0  0  0  0  0  0  0  0  0  0
  -28.1660  -29.0386   19.7398 C   0  0  0  0  0  0  0  0  0  0  0  0
  -22.6358   -5.8041   24.0226 C   0  0  0  0  0  0  0  0  0  0  0  0
  -30.1674  -19.1676   22.6034 C   0  0  0  0  0  0  0  0  0  0  0  0
  -21.5732   -5.2733   24.7538 C   0  0  0  0  0  0  0  0  0  0  0  0
  -29.7156  -24.6220   17.8484 C   0  0  0  0  0  0  0  0  0  0  0  0
  -26.1967  -27.9932   20.6608 C   0  0  0  0  0  0  0  0  0  0  0  0
  -29.6417  -18.8753   19.8792 C   0  0  0  0  0  0  0  0  0  0  0  0
  -20.6909   -4.2678   22.7419 C   0  0  0  0  0  0  0  0  0  0  0  0
  -24.2208  -10.2211   21.8804 C   0  0  0  0  0  0  0  0  0  0  0  0
  -24.2871  -12.5305   22.9620 C   0  0  0  0  0  0  0  0  0  0  0  0
  -26.4705  -35.5028   25.8221 C   0  0  0  0  0  0  0  0  0  0  0  0
  -26.3273  -30.4073   20.5403 C   0  0  0  0  0  0  0  0  0  0  0  0
  -26.9023  -34.3352   25.1642 C   0  0  0  0  0  0  0  0  0  0  0  0
  -30.1147  -23.3019   17.7264 C   0  0  0  0  0  0  0  0  0  0  0  0
  -25.6136  -29.2500   20.8830 C   0  0  0  0  0  0  0  0  0  0  0  0
  -29.7387  -25.1995   19.1172 C   0  0  0  0  0  0  0  0  0  0  0  0
  -30.7194  -19.6534   20.3020 C   0  0  0  0  0  0  0  0  0  0  0  0
  -30.5230  -22.5422   18.8302 C   0  0  0  0  0  0  0  0  0  0  0  0
  -28.8268  -18.2433   20.8185 C   0  0  0  0  0  0  0  0  0  0  0  0
  -23.9257   -7.4472   21.9113 C   0  0  0  0  0  0  0  0  0  0  0  0
  -27.4666  -27.8885   20.0939 C   0  0  0  0  0  0  0  0  0  0  0  0
  -22.7260   -5.5668   22.6510 C   0  0  0  0  0  0  0  0  0  0  0  0
  -20.6008   -4.5052   24.1135 C   0  0  0  0  0  0  0  0  0  0  0  0
  -29.0897  -18.3895   22.1806 C   0  0  0  0  0  0  0  0  0  0  0  0
  -21.7536   -4.7987   22.0107 C   0  0  0  0  0  0  0  0  0  0  0  0
  -24.3740  -11.6537   21.8641 C   0  0  0  0  0  0  0  0  0  0  0  0
  -24.5056  -13.7757   22.4251 C   0  0  0  0  0  0  0  0  0  0  0  0
  -24.0317  -12.2449   24.3437 C   0  0  0  0  0  0  0  0  0  0  0  0
  -25.1918  -31.7072   23.2095 C   0  0  0  0  0  0  0  0  0  0  0  0
  -22.3259  -30.9084   21.9170 C   0  0  0  0  0  0  0  0  0  0  0  0
  -20.5679  -28.9160   19.7754 C   0  0  0  0  0  0  0  0  0  0  0  0
  -27.3335  -17.2073   19.0741 C   0  0  0  0  0  0  0  0  0  0  0  0
  -25.1570  -35.5570   26.5614 C   0  0  0  0  0  0  0  0  0  0  0  0
  -25.7173  -31.7669   20.7445 C   0  0  0  0  0  0  0  0  0  0  0  0
  -30.1501  -22.4519   16.4972 C   0  0  0  0  0  0  0  0  0  0  0  0
  -24.2379  -29.3181   21.4924 C   0  0  0  0  0  0  0  0  0  0  0  0
  -24.1902  -34.4430   26.1682 C   0  0  0  0  0  0  0  0  0  0  0  0
  -24.7193  -15.2913   17.6003 C   0  0  0  0  0  0  0  0  0  0  0  0
  -24.9097  -33.0983   26.1365 C   0  0  0  0  0  0  0  0  0  0  0  0
  -24.3893  -14.2462   18.6685 C   0  0  0  0  0  0  0  0  0  0  0  0
  -30.9404  -21.2275   17.0016 C   0  0  0  0  0  0  0  0  0  0  0  0
  -26.2154  -15.5960   17.5481 C   0  0  0  0  0  0  0  0  0  0  0  0
  -26.4882  -14.9237   19.9024 C   0  0  0  0  0  0  0  0  0  0  0  0
  -26.0333  -33.0983   25.0930 C   0  0  1  0  0  0  0  0  0  0  0  0
  -24.6323  -31.7801   21.8169 C   0  0  1  0  0  0  0  0  0  0  0  0
  -24.9848  -14.6316   20.0369 C   0  0  2  0  0  0  0  0  0  0  0  0
  -18.2352  -28.4733   18.9630 C   0  0  0  0  0  0  0  0  0  0  0  0
  -21.6964  -29.4540   24.5243 C   0  0  0  0  0  0  0  0  0  0  0  0
  -19.8392  -28.2698   23.3342 C   0  0  0  0  0  0  0  0  0  0  0  0
  -19.7858  -30.7529   23.5668 C   0  0  0  0  0  0  0  0  0  0  0  0
  -21.2848  -29.6006   16.9868 C   0  0  0  0  0  0  0  0  0  0  0  0
  -31.5973  -20.3334   19.2915 C   0  0  0  0  0  0  0  0  0  0  0  0
  -29.3187  -26.6290   19.2942 C   0  0  0  0  0  0  0  0  0  1  0  0
  -21.4320  -29.6929   21.9672 C   0  0  1  0  0  0  0  0  0  0  0  0
  -19.5245  -29.2431   18.7224 C   0  0  2  0  0  0  0  0  0  0  0  0
  -20.7151  -29.5408   23.3385 C   0  0  0  0  0  0  0  0  0  0  0  0
  -24.6278  -12.2881   20.7164 N   0  0  0  0  0  0  0  0  0  0  0  0
  -24.7022  -13.5768   21.0902 N   0  0  0  0  0  0  0  0  0  0  0  0
  -30.8552  -21.2467   18.4603 N   0  0  1  0  0  0  0  0  0  0  0  0
  -23.6868  -30.6706   21.6780 N   0  0  0  0  0  0  0  0  0  0  0  0
  -26.7087  -15.9574   18.8789 N   0  0  0  0  0  0  0  0  0  0  0  0
  -24.5468  -15.0104   22.9694 N   0  0  0  0  0  0  0  0  0  0  0  0
  -23.8295  -10.9112   24.7240 N   0  0  0  0  0  0  0  0  0  0  0  0
  -27.7320  -17.4539   20.3875 N   0  0  0  0  0  0  0  0  0  0  0  0
  -25.4873  -32.9387   23.7623 N   0  0  0  0  0  0  0  0  0  0  0  0
  -20.5266  -29.8048   20.8287 N   0  0  0  0  0  0  0  0  0  0  0  0
  -20.0323  -28.8967   17.3648 N   0  3  0  0  0  0  0  0  0  0  0  0
  -23.9679  -13.1475   25.2125 O   0  0  0  0  0  0  0  0  0  0  0  0
  -25.3429  -30.6146   23.7435 O   0  0  0  0  0  0  0  0  0  0  0  0
  -21.8336  -32.0282   22.0765 O   0  0  0  0  0  0  0  0  0  0  0  0
  -21.3397  -27.9648   19.6754 O   0  0  0  0  0  0  0  0  0  0  0  0
  -27.4783  -18.0118   18.1501 O   0  0  0  0  0  0  0  0  0  0  0  0
  -23.7820   -6.0938   21.9266 O   0  0  0  0  0  0  0  0  0  0  0  0
  -28.0190  -26.6629   19.8826 O   0  0  0  0  0  0  0  0  0  1  0  0
  -19.5812   -3.9942   24.8161 F   0  0  0  0  0  0  0  0  0  0  0  0
  -28.3137  -17.7863   23.0924 F   0  0  0  0  0  0  0  0  0  0  0  0
  -21.8355   -4.5663   20.6934 F   0  0  0  0  0  0  0  0  0  0  0  0
  1  2  1  0  0  0  0
  1  5  2  0  0  0  0
  2  6  2  0  0  0  0
  3 11  2  0  0  0  0
  3 21  1  0  0  0  0
  4 12  1  0  0  0  0
  4 21  2  0  0  0  0
  5 23  1  0  0  0  0
  6 25  1  0  0  0  0
  7 13  2  0  0  0  0
  7 24  1  0  0  0  0
  8 10  2  0  0  0  0
  8 28  1  0  0  0  0
  9 15  2  0  0  0  0
  9 29  1  0  0  0  0
 10 30  1  0  0  0  0
 11 32  1  0  0  0  0
 12 32  2  0  0  0  0
 13 33  1  0  0  0  0
 14 16  2  0  0  0  0
 14 34  1  0  0  0  0
 15 36  1  0  0  0  0
 16 35  1  0  0  0  0
 17 26  1  0  0  0  0
 17 28  2  0  0  0  0
 18 27  1  0  0  0  0
 18 33  2  0  0  0  0
 19 29  2  0  0  0  0
 19 31  1  0  0  0  0
 20 35  2  0  0  0  0
 20 37  1  0  0  0  0
 21 38  1  0  0  0  0
 22 38  1  0  0  0  0
 22 39  2  0  0  0  0
 22 40  1  0  0  0  0
 23 25  2  0  0  0  0
 23 45  1  0  0  0  0
 24 27  2  0  0  0  0
 24 46  1  0  0  0  0
 25 56  1  0  0  0  0
 26 30  2  0  0  0  0
 26 47  1  0  0  0  0
 27 48  1  0  0  0  0
 28 65  1  0  0  0  0
 29 64  1  0  0  0  0
 30 71  1  0  0  0  0
 31 36  2  0  0  0  0
 31 76  1  0  0  0  0
 32 85  1  0  0  0  0
 33 86  1  0  0  0  0
 34 37  2  0  0  0  0
 34 85  1  0  0  0  0
 35 87  1  0  0  0  0
 36 88  1  0  0  0  0
 37 89  1  0  0  0  0
 38 69  2  0  0  0  0
 39 70  1  0  0  0  0
 39 74  1  0  0  0  0
 40 75  1  0  0  0  0
 40 80  2  0  0  0  0
 41 57  1  0  0  0  0
 41 77  1  0  0  0  0
 41 81  2  0  0  0  0
 42 66  1  0  0  0  0
 42 72  1  0  0  0  0
 42 82  2  0  0  0  0
 43 67  1  0  0  0  0
 43 78  1  0  0  0  0
 43 83  2  0  0  0  0
 44 73  1  0  0  0  0
 44 76  1  0  0  0  0
 44 84  2  0  0  0  0
 45 49  1  0  0  0  0
 46 57  1  0  0  0  0
 47 53  1  0  0  0  0
 48 72  1  0  0  0  0
 49 51  1  0  0  0  0
 50 52  1  0  0  0  0
 50 54  1  0  0  0  0
 51 56  1  0  0  0  0
 52 58  1  0  0  0  0
 53 71  1  0  0  0  0
 54 73  1  0  0  0  0
 55 58  1  0  0  0  0
 55 73  1  0  0  0  0
 56 77  1  0  0  0  0
 57 72  1  0  0  0  0
 58 70  1  0  0  0  0
 59 67  1  0  0  0  0
 60 68  1  0  0  0  0
 61 68  1  0  0  0  0
 62 68  1  0  0  0  0
 63 79  1  0  0  0  0
 64 71  1  0  0  0  0
 65 86  1  0  0  0  0
 66 68  1  0  0  0  0
 66 78  1  0  0  0  0
 67 79  1  0  0  0  0
 69 70  1  0  0  0  0
M  CHG  1  79   1
M  ISO  4  44 100  65 101  76 100  86 101
M  END
> <Batch ID>
0026

> <Smiles>
CNC(C)C(=O)NC(C(=O)N1Cc2cc([101O:1][101CH2:1]c3ccc4c(c3)CCN4Cc3ccc(F)c([100NH:0][100C:0](=O)N4CCCC(n5nc(-c6ccc(Oc7ccc(F)cc7F)cc6)c(C(N)=O)c5N)C4)c3)ccc2CC1C(=O)NC1CCCc2ccccc21)C(C)(C)C

> <Shape>
0.316

> <Color>
0.069

> <Negative vol penalty>
0.000

$$$$

  -OEChem-04042321253D

 85 94  0     1  0  0  0  0  0999 V2000
  -16.7230  -28.5429   21.2462 C   0  0  0  0  0  0  0  0  0  0  0  0
  -17.9109  -28.3116   20.5599 C   0  0  0  0  0  0  0  0  0  0  0  0
  -26.4844  -12.7031   21.6792 C   0  0  0  0  0  0  0  0  0  0  0  0
  -25.9487  -13.8065   19.5977 C   0  0  0  0  0  0  0  0  0  0  0  0
  -16.7575  -29.0154   22.5574 C   0  0  0  0  0  0  0  0  0  0  0  0
  -19.1340  -28.5537   21.1843 C   0  0  0  0  0  0  0  0  0  0  0  0
  -22.4761  -24.8264   20.4214 C   0  0  0  0  0  0  0  0  0  0  0  0
  -27.4111  -26.7890   14.3073 C   0  0  0  0  0  0  0  0  0  0  0  0
  -26.9388  -26.8564   15.6180 C   0  0  0  0  0  0  0  0  0  0  0  0
  -25.2340  -12.0851   21.6734 C   0  0  0  0  0  0  0  0  0  0  0  0
  -24.6983  -13.1885   19.5919 C   0  0  0  0  0  0  0  0  0  0  0  0
  -23.1216  -24.7929   19.1860 C   0  0  0  0  0  0  0  0  0  0  0  0
  -23.7616   -9.4564   20.1388 C   0  0  0  0  0  0  0  0  0  0  0  0
  -23.7094   -8.0962   20.4431 C   0  0  0  0  0  0  0  0  0  0  0  0
  -25.0612  -25.8285   20.1782 C   0  0  0  0  0  0  0  0  0  0  0  0
  -27.7623  -24.4116   14.5561 C   0  0  0  0  0  0  0  0  0  0  0  0
  -22.2708   -8.5724   22.3248 C   0  0  0  0  0  0  0  0  0  0  0  0
  -26.8418  -13.5639   20.6413 C   0  0  0  0  0  0  0  0  0  0  0  0
  -29.3259  -13.7146   20.0809 C   0  0  0  0  0  0  0  0  0  0  0  0
  -17.9818  -29.2542   23.2015 C   0  0  0  0  0  0  0  0  0  0  0  0
  -23.1154  -25.3721   21.5439 C   0  0  0  0  0  0  0  0  0  0  0  0
  -19.1848  -29.0311   22.5049 C   0  0  0  0  0  0  0  0  0  0  0  0
  -24.4227  -25.8654   21.4272 C   0  0  0  0  0  0  0  0  0  0  0  0
  -27.8228  -25.5666   13.7763 C   0  0  0  0  0  0  0  0  0  0  0  0
  -26.8783  -25.7015   16.3978 C   0  0  0  0  0  0  0  0  0  0  0  0
  -27.2901  -24.4790   15.8669 C   0  0  0  0  0  0  0  0  0  0  0  0
  -24.3409  -12.3278   20.6298 C   0  0  0  0  0  0  0  0  0  0  0  0
  -24.4132  -25.2967   19.0636 C   0  0  0  0  0  0  0  0  0  0  0  0
  -23.0685  -10.3747   20.9276 C   0  0  0  0  0  0  0  0  0  0  0  0
  -22.9640   -7.6541   21.5361 C   0  0  0  0  0  0  0  0  0  0  0  0
  -22.3231   -9.9326   22.0205 C   0  0  0  0  0  0  0  0  0  0  0  0
  -28.1331  -14.2030   20.6470 C   0  0  0  0  0  0  0  0  0  0  0  0
  -30.2585  -14.6851   20.3544 C   0  0  0  0  0  0  0  0  0  0  0  0
  -29.5692  -12.4928   19.3711 C   0  0  0  0  0  0  0  0  0  0  0  0
  -22.5343  -27.8192   23.4875 C   0  0  0  0  0  0  0  0  0  0  0  0
  -25.0662  -26.6184   25.1214 C   0  0  0  0  0  0  0  0  0  0  0  0
  -27.9264  -24.7573   25.0733 C   0  0  0  0  0  0  0  0  0  0  0  0
  -29.8338  -20.5599   21.4305 C   0  0  0  0  0  0  0  0  0  0  0  0
  -17.9682  -29.8098   24.6036 C   0  0  0  0  0  0  0  0  0  0  0  0
  -22.4156  -25.3765   22.8753 C   0  0  0  0  0  0  0  0  0  0  0  0
  -25.1605  -26.4433   22.6063 C   0  0  0  0  0  0  0  0  0  0  0  0
  -19.3096  -29.6847   25.3213 C   0  0  0  0  0  0  0  0  0  0  0  0
  -31.2874  -18.0950   23.5490 C   0  0  0  0  0  0  0  0  0  0  0  0
  -20.4466  -30.1369   24.4105 C   0  0  0  0  0  0  0  0  0  0  0  0
  -30.7515  -16.7739   22.9944 C   0  0  0  0  0  0  0  0  0  0  0  0
  -30.1110  -21.5658   18.0182 C   0  0  0  0  0  0  0  0  0  0  0  0
  -30.2443  -19.2071   23.4647 C   0  0  0  0  0  0  0  0  0  0  0  0
  -29.1312  -18.0934   21.5688 C   0  0  0  0  0  0  0  0  0  0  0  0
  -29.6735  -22.7463   17.1652 C   0  0  0  0  0  0  0  0  0  0  0  0
  -27.9944  -22.2141   18.8625 C   0  0  0  0  0  0  0  0  0  0  0  0
  -20.5317  -29.2583   23.1566 C   0  0  1  0  0  0  0  0  0  0  0  0
  -22.9680  -26.4238   23.8372 C   0  0  1  0  0  0  0  0  0  0  0  0
  -30.1662  -16.9555   21.5810 C   0  0  2  0  0  0  0  0  0  0  0  0
  -29.3672  -21.7695   19.3269 C   0  0  1  0  0  0  0  0  0  0  0  0
  -28.3281  -25.4948   12.3751 C   0  0  0  0  0  0  0  0  0  0  0  0
  -29.8012  -23.9881   26.5534 C   0  0  0  0  0  0  0  0  0  0  0  0
  -26.3192  -29.3966   24.9740 C   0  0  0  0  0  0  0  0  0  0  0  0
  -28.5146  -28.3629   25.5904 C   0  0  0  0  0  0  0  0  0  0  0  0
  -26.5930  -28.2442   27.1766 C   0  0  0  0  0  0  0  0  0  0  0  0
  -27.2364  -21.9087   24.6629 C   0  0  0  0  0  0  0  0  0  0  0  0
  -27.2347  -23.2295   16.6831 C   0  0  0  0  0  0  0  0  0  0  0  0
  -26.3678  -25.7990   17.8054 C   0  0  0  0  0  0  0  0  0  1  0  0
  -26.5607  -26.8283   25.0823 C   0  0  1  0  0  0  0  0  0  0  0  0
  -28.4276  -23.6568   25.9910 C   0  0  2  0  0  0  0  0  0  0  0  0
  -26.9825  -28.1989   25.6830 C   0  0  0  0  0  0  0  0  0  0  0  0
  -28.2908  -15.3915   21.2359 N   0  0  0  0  0  0  0  0  0  0  0  0
  -29.5935  -15.6579   21.0413 N   0  0  0  0  0  0  0  0  0  0  0  0
  -24.4315  -26.4310   23.8853 N   0  0  0  0  0  0  0  0  0  0  0  0
  -29.7305  -19.3284   22.0982 N   0  0  0  0  0  0  0  0  0  0  0  0
  -31.5742  -14.7928   20.0721 N   0  0  0  0  0  0  0  0  0  0  0  0
  -28.4996  -11.6079   19.1782 N   0  0  0  0  0  0  0  0  0  0  0  0
  -21.1637  -27.9940   23.4673 N   0  0  0  0  0  0  0  0  0  0  0  0
  -27.1525  -25.6750   25.7516 N   0  0  0  0  0  0  0  0  0  0  0  0
  -29.3280  -20.5869   20.1366 N   0  0  0  0  0  0  0  0  0  0  0  0
  -28.3151  -23.1473   17.7130 N   0  3  2  0  0  0  0  0  0  0  0  0
  -28.5217  -22.3672   25.2500 N   0  3  0  0  0  0  0  0  0  0  0  0
  -30.7051  -12.1870   18.9357 O   0  0  0  0  0  0  0  0  0  0  0  0
  -23.3805  -28.6745   23.2547 O   0  0  0  0  0  0  0  0  0  0  0  0
  -24.4845  -26.6136   26.2092 O   0  0  0  0  0  0  0  0  0  0  0  0
  -28.1976  -24.8007   23.8753 O   0  0  0  0  0  0  0  0  0  0  0  0
  -30.3443  -21.5597   21.9471 O   0  0  0  0  0  0  0  0  0  0  0  0
  -23.1207  -11.7247   20.6237 O   0  0  0  0  0  0  0  0  0  0  0  0
  -25.0452  -25.2658   17.8589 O   0  0  0  0  0  0  0  0  0  1  0  0
  -22.9127   -6.3477   21.8272 F   0  0  0  0  0  0  0  0  0  0  0  0
  -21.6541  -10.8099   22.7812 F   0  0  0  0  0  0  0  0  0  0  0  0
  1  2  1  0  0  0  0
  1  5  2  0  0  0  0
  2  6  2  0  0  0  0
  3 10  2  0  0  0  0
  3 18  1  0  0  0  0
  4 11  1  0  0  0  0
  4 18  2  0  0  0  0
  5 20  1  0  0  0  0
  6 22  1  0  0  0  0
  7 12  2  0  0  0  0
  7 21  1  0  0  0  0
  8  9  2  0  0  0  0
  8 24  1  0  0  0  0
  9 25  1  0  0  0  0
 10 27  1  0  0  0  0
 11 27  2  0  0  0  0
 12 28  1  0  0  0  0
 13 14  2  0  0  0  0
 13 29  1  0  0  0  0
 14 30  1  0  0  0  0
 15 23  1  0  0  0  0
 15 28  2  0  0  0  0
 16 24  2  0  0  0  0
 16 26  1  0  0  0  0
 17 30  2  0  0  0  0
 17 31  1  0  0  0  0
 18 32  1  0  0  0  0
 19 32  1  0  0  0  0
 19 33  2  0  0  0  0
 19 34  1  0  0  0  0
 20 22  2  0  0  0  0
 20 39  1  0  0  0  0
 21 23  2  0  0  0  0
 21 40  1  0  0  0  0
 22 51  1  0  0  0  0
 23 41  1  0  0  0  0
 24 55  1  0  0  0  0
 25 26  2  0  0  0  0
 25 62  1  0  0  0  0
 26 61  1  0  0  0  0
 27 82  1  0  0  0  0
 28 83  1  0  0  0  0
 29 31  2  0  0  0  0
 29 82  1  0  0  0  0
 30 84  1  0  0  0  0
 31 85  1  0  0  0  0
 32 66  2  0  0  0  0
 33 67  1  0  0  0  0
 33 70  1  0  0  0  0
 34 71  1  0  0  0  0
 34 77  2  0  0  0  0
 35 52  1  0  0  0  0
 35 72  1  0  0  0  0
 35 78  2  0  0  0  0
 36 63  1  0  0  0  0
 36 68  1  0  0  0  0
 36 79  2  0  0  0  0
 37 64  1  0  0  0  0
 37 73  1  0  0  0  0
 37 80  2  0  0  0  0
 38 69  1  0  0  0  0
 38 74  1  0  0  0  0
 38 81  2  0  0  0  0
 39 42  1  0  0  0  0
 40 52  1  0  0  0  0
 41 68  1  0  0  0  0
 42 44  1  0  0  0  0
 43 45  1  0  0  0  0
 43 47  1  0  0  0  0
 44 51  1  0  0  0  0
 45 53  1  0  0  0  0
 46 49  1  0  0  0  0
 46 54  1  0  0  0  0
 47 69  1  0  0  0  0
 48 53  1  0  0  0  0
 48 69  1  0  0  0  0
 49 75  1  0  0  0  0
 50 54  1  0  0  0  0
 50 75  1  0  0  0  0
 51 72  1  0  0  0  0
 52 68  1  0  0  0  0
 53 67  1  0  0  0  0
 54 74  1  0  0  0  0
 56 64  1  0  0  0  0
 57 65  1  0  0  0  0
 58 65  1  0  0  0  0
 59 65  1  0  0  0  0
 60 76  1  0  0  0  0
 61 75  1  0  0  0  0
 62 83  1  0  0  0  0
 63 65  1  0  0  0  0
 63 73  1  0  0  0  0
 64 76  1  0  0  0  0
 66 67  1  0  0  0  0
M  CHG  2  75   1  76   1
M  ISO  4  38 100  62 101  74 100  83 101
M  END
> <Batch ID>
0026

> <Smiles>
CNC(C)C(=O)NC(C(=O)N1Cc2cc([101O:1][101CH2:1]c3ccc(C)cc3CN3CCC([100NH:0][100C:0](=O)N4CCCC(n5nc(-c6ccc(Oc7ccc(F)cc7F)cc6)c(C(N)=O)c5N)C4)C3)ccc2CC1C(=O)NC1CCCc2ccccc21)C(C)(C)C

> <Shape>
0.225

> <Color>
0.074

> <Negative vol penalty>
0.000

$$$$

  -OEChem-04042321253D

 84 93  0     1  0  0  0  0  0999 V2000
  -27.5437  -32.1373   27.6027 C   0  0  0  0  0  0  0  0  0  0  0  0
  -27.7710  -31.1367   26.6632 C   0  0  0  0  0  0  0  0  0  0  0  0
  -24.2531   -9.4279   22.2929 C   0  0  0  0  0  0  0  0  0  0  0  0
  -23.7884   -9.3934   19.9223 C   0  0  0  0  0  0  0  0  0  0  0  0
  -26.2389  -32.5238   27.9058 C   0  0  0  0  0  0  0  0  0  0  0  0
  -26.6935  -30.5214   26.0270 C   0  0  0  0  0  0  0  0  0  0  0  0
  -27.4129  -30.0149   21.0399 C   0  0  0  0  0  0  0  0  0  0  0  0
  -23.1826   -8.5618   22.5154 C   0  0  0  0  0  0  0  0  0  0  0  0
  -22.7179   -8.5272   20.1447 C   0  0  0  0  0  0  0  0  0  0  0  0
  -28.2444  -28.9782   20.6186 C   0  0  0  0  0  0  0  0  0  0  0  0
  -22.5559   -5.2514   22.2298 C   0  0  0  0  0  0  0  0  0  0  0  0
  -22.7611   -4.1757   23.0937 C   0  0  0  0  0  0  0  0  0  0  0  0
  -28.5311  -22.2474   21.8839 C   0  0  0  0  0  0  0  0  0  0  0  0
  -26.3045  -27.6411   20.1005 C   0  0  0  0  0  0  0  0  0  0  0  0
  -30.5771  -22.3691   20.6103 C   0  0  0  0  0  0  0  0  0  0  0  0
  -21.0015   -4.9953   24.5322 C   0  0  0  0  0  0  0  0  0  0  0  0
  -24.5560   -9.8438   20.9964 C   0  0  0  0  0  0  0  0  0  0  0  0
  -27.0000  -10.3879   20.5085 C   0  0  0  0  0  0  0  0  0  0  0  0
  -25.1452  -31.9196   27.2660 C   0  0  0  0  0  0  0  0  0  0  0  0
  -26.0187  -29.8682   21.0049 C   0  0  0  0  0  0  0  0  0  0  0  0
  -25.3728  -30.8993   26.3229 C   0  0  0  0  0  0  0  0  0  0  0  0
  -28.6870  -20.8612   22.0259 C   0  0  0  0  0  0  0  0  0  0  0  0
  -25.4575  -28.6784   20.5195 C   0  0  0  0  0  0  0  0  0  0  0  0
  -29.7903  -20.2229   21.4322 C   0  0  0  0  0  0  0  0  0  0  0  0
  -29.4739  -22.9974   21.1818 C   0  0  0  0  0  0  0  0  0  0  0  0
  -22.4150   -8.1114   21.4413 C   0  0  0  0  0  0  0  0  0  0  0  0
  -27.6903  -27.7899   20.1515 C   0  0  0  0  0  0  0  0  0  0  0  0
  -21.5735   -6.1991   22.5171 C   0  0  0  0  0  0  0  0  0  0  0  0
  -21.9839   -4.0477   24.2449 C   0  0  0  0  0  0  0  0  0  0  0  0
  -30.7360  -20.9893   20.7356 C   0  0  0  0  0  0  0  0  0  0  0  0
  -20.7963   -6.0711   23.6682 C   0  0  0  0  0  0  0  0  0  0  0  0
  -25.6613  -10.7389   20.7660 C   0  0  0  0  0  0  0  0  0  0  0  0
  -27.6483  -11.5900   20.3631 C   0  0  0  0  0  0  0  0  0  0  0  0
  -27.6036   -9.0911   20.4095 C   0  0  0  0  0  0  0  0  0  0  0  0
  -23.7060  -29.8840   23.1854 C   0  0  0  0  0  0  0  0  0  0  0  0
  -21.7811  -29.7313   20.5789 C   0  0  0  0  0  0  0  0  0  0  0  0
  -21.4101  -28.8691   17.2978 C   0  0  0  0  0  0  0  0  0  0  0  0
  -28.7477  -16.6367   21.8526 C   0  0  0  0  0  0  0  0  0  0  0  0
  -23.7511  -32.3381   27.6612 C   0  0  0  0  0  0  0  0  0  0  0  0
  -25.1353  -31.0060   21.4378 C   0  0  0  0  0  0  0  0  0  0  0  0
  -27.6407  -20.0683   22.7661 C   0  0  0  0  0  0  0  0  0  0  0  0
  -23.9667  -28.4784   20.4426 C   0  0  0  0  0  0  0  0  0  0  0  0
  -30.0017  -18.7368   21.5624 C   0  0  0  0  0  0  0  0  0  0  0  0
  -22.6784  -31.8972   26.6686 C   0  0  0  0  0  0  0  0  0  0  0  0
  -25.8403  -16.2830   19.9038 C   0  0  0  0  0  0  0  0  0  0  0  0
  -22.8771  -30.4350   26.2824 C   0  0  0  0  0  0  0  0  0  0  0  0
  -25.6360  -14.7689   19.9346 C   0  0  0  0  0  0  0  0  0  0  0  0
  -28.1446  -18.6931   23.1910 C   0  0  0  0  0  0  0  0  0  0  0  0
  -26.2920  -16.8283   21.2596 C   0  0  0  0  0  0  0  0  0  0  0  0
  -27.2846  -14.6386   21.8401 C   0  0  0  0  0  0  0  0  0  0  0  0
  -24.2309  -30.2253   25.5934 C   0  0  1  0  0  0  0  0  0  0  0  0
  -23.7349  -30.5550   21.8413 C   0  0  1  0  0  0  0  0  0  0  0  0
  -26.8870  -14.0545   20.4757 C   0  0  1  0  0  0  0  0  0  0  0  0
  -19.7106  -28.8278   15.4519 C   0  0  0  0  0  0  0  0  0  0  0  0
  -20.4626  -27.2912   21.8506 C   0  0  0  0  0  0  0  0  0  0  0  0
  -19.4780  -26.7446   19.6145 C   0  0  0  0  0  0  0  0  0  0  0  0
  -18.8750  -28.8810   20.7523 C   0  0  0  0  0  0  0  0  0  0  0  0
  -23.0221  -30.6941   15.6156 C   0  0  0  0  0  0  0  0  0  0  0  0
  -30.2380  -25.2203   20.3455 C   0  0  0  0  0  0  0  0  0  0  0  0
  -29.7759  -26.6677   20.3676 C   0  0  0  0  0  0  0  0  0  1  0  0
  -21.1832  -28.6164   19.7552 C   0  0  1  0  0  0  0  0  0  0  0  0
  -20.8224  -29.6229   16.1184 C   0  0  2  0  0  0  0  0  0  0  0  0
  -20.0279  -27.8860   20.4963 C   0  0  0  0  0  0  0  0  0  0  0  0
  -25.4691  -12.0605   20.7839 N   0  0  0  0  0  0  0  0  0  0  0  0
  -26.6956  -12.5506   20.5359 N   0  0  0  0  0  0  0  0  0  0  0  0
  -23.1450  -29.6177   20.8833 N   0  0  0  0  0  0  0  0  0  0  0  0
  -28.8398  -18.0191   22.0888 N   0  0  0  0  0  0  0  0  0  0  0  0
  -27.4600  -16.0902   21.7565 N   0  0  0  0  0  0  0  0  0  0  0  0
  -28.9346  -11.9085   20.1056 N   0  0  0  0  0  0  0  0  0  0  0  0
  -26.7928   -7.9616   20.5857 N   0  0  0  0  0  0  0  0  0  0  0  0
  -29.3101  -24.3919   21.0514 N   0  0  0  0  0  0  0  0  0  0  0  0
  -24.1732  -30.6737   24.2186 N   0  0  0  0  0  0  0  0  0  0  0  0
  -20.7936  -29.2131   18.4822 N   0  0  0  0  0  0  0  0  0  0  0  0
  -21.8772  -29.8987   15.1024 N   0  3  0  0  0  0  0  0  0  0  0  0
  -28.8289   -8.9389   20.1882 O   0  0  0  0  0  0  0  0  0  0  0  0
  -23.2892  -28.7354   23.2784 O   0  0  0  0  0  0  0  0  0  0  0  0
  -21.0660  -30.6721   20.9329 O   0  0  0  0  0  0  0  0  0  0  0  0
  -22.3221  -28.0537   17.1796 O   0  0  0  0  0  0  0  0  0  0  0  0
  -29.7599  -15.9339   21.7370 O   0  0  0  0  0  0  0  0  0  0  0  0
  -21.3705   -7.2661   21.6580 O   0  0  0  0  0  0  0  0  0  0  0  0
  -28.5053  -26.7690   19.7374 O   0  0  0  0  0  0  0  0  0  1  0  0
  -22.1800   -3.0138   25.0736 F   0  0  0  0  0  0  0  0  0  0  0  0
  -31.8075  -20.4000   20.1849 F   0  0  0  0  0  0  0  0  0  0  0  0
  -19.8502   -6.9777   23.9489 F   0  0  0  0  0  0  0  0  0  0  0  0
  1  2  1  0  0  0  0
  1  5  2  0  0  0  0
  2  6  2  0  0  0  0
  3  8  2  0  0  0  0
  3 17  1  0  0  0  0
  4  9  1  0  0  0  0
  4 17  2  0  0  0  0
  5 19  1  0  0  0  0
  6 21  1  0  0  0  0
  7 10  2  0  0  0  0
  7 20  1  0  0  0  0
  8 26  1  0  0  0  0
  9 26  2  0  0  0  0
 10 27  1  0  0  0  0
 11 12  2  0  0  0  0
 11 28  1  0  0  0  0
 12 29  1  0  0  0  0
 13 22  1  0  0  0  0
 13 25  2  0  0  0  0
 14 23  1  0  0  0  0
 14 27  2  0  0  0  0
 15 25  1  0  0  0  0
 15 30  2  0  0  0  0
 16 29  2  0  0  0  0
 16 31  1  0  0  0  0
 17 32  1  0  0  0  0
 18 32  1  0  0  0  0
 18 33  2  0  0  0  0
 18 34  1  0  0  0  0
 19 21  2  0  0  0  0
 19 39  1  0  0  0  0
 20 23  2  0  0  0  0
 20 40  1  0  0  0  0
 21 51  1  0  0  0  0
 22 24  2  0  0  0  0
 22 41  1  0  0  0  0
 23 42  1  0  0  0  0
 24 30  1  0  0  0  0
 24 43  1  0  0  0  0
 25 71  1  0  0  0  0
 26 80  1  0  0  0  0
 27 81  1  0  0  0  0
 28 31  2  0  0  0  0
 28 80  1  0  0  0  0
 29 82  1  0  0  0  0
 30 83  1  0  0  0  0
 31 84  1  0  0  0  0
 32 64  2  0  0  0  0
 33 65  1  0  0  0  0
 33 69  1  0  0  0  0
 34 70  1  0  0  0  0
 34 75  2  0  0  0  0
 35 52  1  0  0  0  0
 35 72  1  0  0  0  0
 35 76  2  0  0  0  0
 36 61  1  0  0  0  0
 36 66  1  0  0  0  0
 36 77  2  0  0  0  0
 37 62  1  0  0  0  0
 37 73  1  0  0  0  0
 37 78  2  0  0  0  0
 38 67  1  0  0  0  0
 38 68  1  0  0  0  0
 38 79  2  0  0  0  0
 39 44  1  0  0  0  0
 40 52  1  0  0  0  0
 41 48  1  0  0  0  0
 42 66  1  0  0  0  0
 43 67  1  0  0  0  0
 44 46  1  0  0  0  0
 45 47  1  0  0  0  0
 45 49  1  0  0  0  0
 46 51  1  0  0  0  0
 47 53  1  0  0  0  0
 48 67  1  0  0  0  0
 49 68  1  0  0  0  0
 50 53  1  0  0  0  0
 50 68  1  0  0  0  0
 51 72  1  0  0  0  0
 52 66  1  0  0  0  0
 53 65  1  0  0  0  0
 54 62  1  0  0  0  0
 55 63  1  0  0  0  0
 56 63  1  0  0  0  0
 57 63  1  0  0  0  0
 58 74  1  0  0  0  0
 59 60  1  0  0  0  0
 59 71  1  0  0  0  0
 60 81  1  0  0  0  0
 61 63  1  0  0  0  0
 61 73  1  0  0  0  0
 62 74  1  0  0  0  0
 64 65  1  0  0  0  0
M  CHG  1  74   1
M  ISO  4  38 100  60 101  67 100  81 101
M  END
> <Batch ID>
0026

> <Smiles>
CNC(C)C(=O)NC(C(=O)N1Cc2cc([101O:1][101CH2:1]CNc3cc(F)c4c(c3)CC[100N:0]([100C:0](=O)N3CCCC(n5nc(-c6ccc(Oc7ccc(F)cc7F)cc6)c(C(N)=O)c5N)C3)C4)ccc2CC1C(=O)NC1CCCc2ccccc21)C(C)(C)C

> <Shape>
0.314

> <Color>
0.129

> <Negative vol penalty>
0.000

$$$$

  -OEChem-04042321253D

 93103  0     1  0  0  0  0  0999 V2000
  -32.9656  -26.8192   15.6897 C   0  0  0  0  0  0  0  0  0  0  0  0
  -31.7146  -26.2109   15.7099 C   0  0  0  0  0  0  0  0  0  0  0  0
  -24.3514  -14.5328   22.8223 C   0  0  0  0  0  0  0  0  0  0  0  0
  -25.3112  -16.0118   21.1705 C   0  0  0  0  0  0  0  0  0  0  0  0
  -33.5004  -27.3498   16.8629 C   0  0  0  0  0  0  0  0  0  0  0  0
  -30.9982  -26.1318   16.9036 C   0  0  0  0  0  0  0  0  0  0  0  0
  -24.4353  -29.0434   17.4894 C   0  0  0  0  0  0  0  0  0  0  0  0
  -24.9445  -13.4406   22.1891 C   0  0  0  0  0  0  0  0  0  0  0  0
  -25.9043  -14.9197   20.5373 C   0  0  0  0  0  0  0  0  0  0  0  0
  -23.0901  -29.3906   17.6164 C   0  0  0  0  0  0  0  0  0  0  0  0
  -27.9677  -12.5614   18.6936 C   0  0  0  0  0  0  0  0  0  0  0  0
  -29.3002  -12.6842   18.2998 C   0  0  0  0  0  0  0  0  0  0  0  0
  -23.1225  -28.7100   19.9367 C   0  0  0  0  0  0  0  0  0  0  0  0
  -19.1410  -25.0741   19.8823 C   0  0  0  0  0  0  0  0  0  0  0  0
  -19.1919  -23.0117   18.0044 C   0  0  0  0  0  0  0  0  0  0  0  0
  -29.9438  -13.0671   20.5968 C   0  0  0  0  0  0  0  0  0  0  0  0
  -24.5347  -15.8184   22.3130 C   0  0  0  0  0  0  0  0  0  0  0  0
  -24.1271  -17.3769   24.2910 C   0  0  0  0  0  0  0  0  0  0  0  0
  -32.7860  -27.2858   18.0696 C   0  0  0  0  0  0  0  0  0  0  0  0
  -25.1341  -28.5419   18.5910 C   0  0  0  0  0  0  0  0  0  0  0  0
  -31.5245  -26.6609   18.0943 C   0  0  0  0  0  0  0  0  0  0  0  0
  -24.4734  -28.3722   19.8188 C   0  0  0  0  0  0  0  0  0  0  0  0
  -19.1135  -23.7451   20.3051 C   0  0  0  0  0  0  0  0  0  0  0  0
  -19.2193  -24.3407   17.5817 C   0  0  0  0  0  0  0  0  0  0  0  0
  -19.1938  -25.3719   18.5206 C   0  0  0  0  0  0  0  0  0  0  0  0
  -25.7210  -13.6341   21.0466 C   0  0  0  0  0  0  0  0  0  0  0  0
  -22.4354  -29.2240   18.8370 C   0  0  0  0  0  0  0  0  0  0  0  0
  -27.6233  -12.6916   20.0390 C   0  0  0  0  0  0  0  0  0  0  0  0
  -30.2882  -12.9370   19.2513 C   0  0  0  0  0  0  0  0  0  0  0  0
  -19.1390  -22.7139   19.3661 C   0  0  0  0  0  0  0  0  0  0  0  0
  -28.6114  -12.9444   20.9906 C   0  0  0  0  0  0  0  0  0  0  0  0
  -23.9218  -16.9469   22.9664 C   0  0  0  0  0  0  0  0  0  0  0  0
  -23.3206  -18.4809   24.4226 C   0  0  0  0  0  0  0  0  0  0  0  0
  -24.9714  -16.8276   25.3113 C   0  0  0  0  0  0  0  0  0  0  0  0
  -28.3912  -27.2734   19.9543 C   0  0  0  0  0  0  0  0  0  0  0  0
  -27.1435  -29.0417   22.1284 C   0  0  0  0  0  0  0  0  0  0  0  0
  -25.6378  -31.3925   24.0890 C   0  0  0  0  0  0  0  0  0  0  0  0
  -21.3237  -23.1679   22.6891 C   0  0  0  0  0  0  0  0  0  0  0  0
  -33.4257  -27.8313   19.3218 C   0  0  0  0  0  0  0  0  0  0  0  0
  -26.5675  -28.0972   18.4838 C   0  0  0  0  0  0  0  0  0  0  0  0
  -25.2559  -27.7968   20.9675 C   0  0  0  0  0  0  0  0  0  0  0  0
  -32.4397  -28.0397   20.4683 C   0  0  0  0  0  0  0  0  0  0  0  0
  -20.1030  -26.4466   25.2342 C   0  0  0  0  0  0  0  0  0  0  0  0
  -20.8392  -27.2173   24.1363 C   0  0  0  0  0  0  0  0  0  0  0  0
  -20.1135  -24.9823   14.0178 C   0  0  0  0  0  0  0  0  0  0  0  0
  -18.6066  -25.1391   13.9901 C   0  0  0  0  0  0  0  0  0  0  0  0
  -19.6973  -20.3034   21.4157 C   0  0  0  0  0  0  0  0  0  0  0  0
  -31.5408  -26.8177   20.6282 C   0  0  0  0  0  0  0  0  0  0  0  0
  -20.6782  -19.1992   21.8075 C   0  0  0  0  0  0  0  0  0  0  0  0
  -19.9124  -25.0294   24.7019 C   0  0  0  0  0  0  0  0  0  0  0  0
  -21.0554  -26.2268   22.9957 C   0  0  0  0  0  0  0  0  0  0  0  0
  -20.3456  -24.1863   15.2970 C   0  0  0  0  0  0  0  0  0  0  0  0
  -18.2667  -25.3825   15.4560 C   0  0  0  0  0  0  0  0  0  0  0  0
  -20.4154  -21.5679   20.9407 C   0  0  0  0  0  0  0  0  0  0  0  0
  -22.4030  -20.9751   22.2900 C   0  0  0  0  0  0  0  0  0  0  0  0
  -30.7061  -26.5777   19.3645 C   0  0  1  0  0  0  0  0  0  0  0  0
  -27.3799  -28.3653   19.7634 C   0  0  1  0  0  0  0  0  0  0  0  0
  -21.7080  -19.7147   22.8277 C   0  0  2  0  0  0  0  0  0  0  0  0
  -19.9467  -25.2014   23.1897 C   0  0  0  0  0  0  0  0  0  0  0  0
  -25.8877  -32.5783   26.2865 C   0  0  0  0  0  0  0  0  0  0  0  0
  -26.1846  -26.5385   23.5839 C   0  0  0  0  0  0  0  0  0  0  0  0
  -25.5521  -27.9932   25.5210 C   0  0  0  0  0  0  0  0  0  0  0  0
  -27.9356  -27.8463   24.7997 C   0  0  0  0  0  0  0  0  0  0  0  0
  -25.8274  -34.0365   22.7728 C   0  0  0  0  0  0  0  0  0  0  0  0
  -19.0544  -23.4303   21.7618 C   0  0  0  0  0  0  0  0  0  0  0  0
  -18.8898  -29.1168   18.2030 C   0  0  0  0  0  0  0  0  0  0  0  0
  -18.7905  -27.7954   18.9557 C   0  0  0  0  0  0  0  0  0  0  0  0
  -20.3152  -29.4575   17.7844 C   0  0  0  0  0  0  0  0  0  1  0  0
  -26.2817  -29.1091   23.3638 C   0  0  1  0  0  0  0  0  0  0  0  0
  -26.1887  -32.6175   24.7963 C   0  0  2  0  0  0  0  0  0  0  0  0
  -26.4778  -27.8767   24.2912 C   0  0  0  0  0  0  0  0  0  0  0  0
  -23.0528  -17.7150   22.3038 N   0  0  0  0  0  0  0  0  0  0  0  0
  -22.7050  -18.6387   23.2159 N   0  0  0  0  0  0  0  0  0  0  0  0
  -19.2736  -24.6183   16.2024 N   0  0  0  0  0  0  0  0  0  0  0  0
  -26.5985  -28.3969   21.0114 N   0  0  0  0  0  0  0  0  0  0  0  0
  -21.4216  -21.9983   21.9211 N   0  0  0  0  0  0  0  0  0  0  0  0
  -23.0851  -19.3223   25.4517 N   0  0  0  0  0  0  0  0  0  0  0  0
  -26.2900  -17.2925   25.4094 N   0  0  0  0  0  0  0  0  0  0  0  0
  -19.2213  -26.6992   18.1220 N   0  0  0  0  0  0  0  0  0  0  0  0
  -29.5929  -27.5009   19.3111 N   0  0  0  0  0  0  0  0  0  0  0  0
  -26.5785  -30.3884   23.9992 N   0  0  0  0  0  0  0  0  0  0  0  0
  -20.1916  -23.9727   22.4919 N   0  0  0  0  0  0  0  0  0  0  0  0
  -25.5884  -33.8576   24.2281 N   0  3  0  0  0  0  0  0  0  0  0  0
  -24.5735  -15.9386   26.1019 O   0  0  0  0  0  0  0  0  0  0  0  0
  -28.1041  -26.2965   20.6361 O   0  0  0  0  0  0  0  0  0  0  0  0
  -28.2718  -29.5413   22.1522 O   0  0  0  0  0  0  0  0  0  0  0  0
  -24.4869  -31.3311   23.6623 O   0  0  0  0  0  0  0  0  0  0  0  0
  -22.2033  -23.4816   23.5015 O   0  0  0  0  0  0  0  0  0  0  0  0
  -26.3001  -12.5686   20.4286 O   0  0  0  0  0  0  0  0  0  0  0  0
  -21.1233  -29.5692   18.9552 O   0  0  0  0  0  0  0  0  0  1  0  0
  -31.5679  -13.0534   18.8732 F   0  0  0  0  0  0  0  0  0  0  0  0
  -19.1112  -21.4338   19.7627 F   0  0  0  0  0  0  0  0  0  0  0  0
  -28.2867  -13.0692   22.2848 F   0  0  0  0  0  0  0  0  0  0  0  0
  1  2  1  0  0  0  0
  1  5  2  0  0  0  0
  2  6  2  0  0  0  0
  3  8  2  0  0  0  0
  3 17  1  0  0  0  0
  4  9  1  0  0  0  0
  4 17  2  0  0  0  0
  5 19  1  0  0  0  0
  6 21  1  0  0  0  0
  7 10  2  0  0  0  0
  7 20  1  0  0  0  0
  8 26  1  0  0  0  0
  9 26  2  0  0  0  0
 10 27  1  0  0  0  0
 11 12  2  0  0  0  0
 11 28  1  0  0  0  0
 12 29  1  0  0  0  0
 13 22  1  0  0  0  0
 13 27  2  0  0  0  0
 14 23  2  0  0  0  0
 14 25  1  0  0  0  0
 15 24  1  0  0  0  0
 15 30  2  0  0  0  0
 16 29  2  0  0  0  0
 16 31  1  0  0  0  0
 17 32  1  0  0  0  0
 18 32  1  0  0  0  0
 18 33  2  0  0  0  0
 18 34  1  0  0  0  0
 19 21  2  0  0  0  0
 19 39  1  0  0  0  0
 20 22  2  0  0  0  0
 20 40  1  0  0  0  0
 21 56  1  0  0  0  0
 22 41  1  0  0  0  0
 23 30  1  0  0  0  0
 23 65  1  0  0  0  0
 24 25  2  0  0  0  0
 24 74  1  0  0  0  0
 25 79  1  0  0  0  0
 26 89  1  0  0  0  0
 27 90  1  0  0  0  0
 28 31  2  0  0  0  0
 28 89  1  0  0  0  0
 29 91  1  0  0  0  0
 30 92  1  0  0  0  0
 31 93  1  0  0  0  0
 32 72  2  0  0  0  0
 33 73  1  0  0  0  0
 33 77  1  0  0  0  0
 34 78  1  0  0  0  0
 34 84  2  0  0  0  0
 35 57  1  0  0  0  0
 35 80  1  0  0  0  0
 35 85  2  0  0  0  0
 36 69  1  0  0  0  0
 36 75  1  0  0  0  0
 36 86  2  0  0  0  0
 37 70  1  0  0  0  0
 37 81  1  0  0  0  0
 37 87  2  0  0  0  0
 38 76  1  0  0  0  0
 38 82  1  0  0  0  0
 38 88  2  0  0  0  0
 39 42  1  0  0  0  0
 40 57  1  0  0  0  0
 41 75  1  0  0  0  0
 42 48  1  0  0  0  0
 43 44  1  0  0  0  0
 43 50  1  0  0  0  0
 44 51  1  0  0  0  0
 45 46  1  0  0  0  0
 45 52  1  0  0  0  0
 46 53  1  0  0  0  0
 47 49  1  0  0  0  0
 47 54  1  0  0  0  0
 48 56  1  0  0  0  0
 49 58  1  0  0  0  0
 50 59  1  0  0  0  0
 51 59  1  0  0  0  0
 52 74  1  0  0  0  0
 53 74  1  0  0  0  0
 54 76  1  0  0  0  0
 55 58  1  0  0  0  0
 55 76  1  0  0  0  0
 56 80  1  0  0  0  0
 57 75  1  0  0  0  0
 58 73  1  0  0  0  0
 59 82  1  0  0  0  0
 60 70  1  0  0  0  0
 61 71  1  0  0  0  0
 62 71  1  0  0  0  0
 63 71  1  0  0  0  0
 64 83  1  0  0  0  0
 65 82  1  0  0  0  0
 66 67  1  0  0  0  0
 66 68  1  0  0  0  0
 67 79  1  0  0  0  0
 68 90  1  0  0  0  0
 69 71  1  0  0  0  0
 69 81  1  0  0  0  0
 70 83  1  0  0  0  0
 72 73  1  0  0  0  0
M  CHG  1  83   1
M  ISO  4  38 100  68 101  82 100  90 101
M  END
> <Batch ID>
0026

> <Smiles>
CNC(C)C(=O)NC(C(=O)N1Cc2cc([101O:1][101CH2:1]CCNc3cc(C[100N:0](C4CCCC4)[100C:0](=O)N4CCCC(n5nc(-c6ccc(Oc7ccc(F)cc7F)cc6)c(C(N)=O)c5N)C4)c(F)cc3N3CCCC3)ccc2CC1C(=O)NC1CCCc2ccccc21)C(C)(C)C

> <Shape>
0.200

> <Color>
0.076

> <Negative vol penalty>
0.000

$$$$

  -OEChem-04042321253D

 86 95  0     1  0  0  0  0  0999 V2000
  -17.1851  -30.3084   23.9481 C   0  0  0  0  0  0  0  0  0  0  0  0
  -18.5324  -30.6548   23.9546 C   0  0  0  0  0  0  0  0  0  0  0  0
  -22.9439  -14.2309   22.7330 C   0  0  0  0  0  0  0  0  0  0  0  0
  -25.1436  -14.8308   21.9340 C   0  0  0  0  0  0  0  0  0  0  0  0
  -16.7935  -29.0446   23.5082 C   0  0  0  0  0  0  0  0  0  0  0  0
  -19.4892  -29.7372   23.5221 C   0  0  0  0  0  0  0  0  0  0  0  0
  -25.8310  -29.4294   20.2050 C   0  0  0  0  0  0  0  0  0  0  0  0
  -22.9285  -13.1362   21.8687 C   0  0  0  0  0  0  0  0  0  0  0  0
  -25.1282  -13.7360   21.0697 C   0  0  0  0  0  0  0  0  0  0  0  0
  -27.1067  -28.8910   20.3679 C   0  0  0  0  0  0  0  0  0  0  0  0
  -24.2358  -10.0194   21.7731 C   0  0  0  0  0  0  0  0  0  0  0  0
  -23.7965   -8.7974   22.2825 C   0  0  0  0  0  0  0  0  0  0  0  0
  -26.3068  -26.7653   19.5549 C   0  0  0  0  0  0  0  0  0  0  0  0
  -26.2175  -24.4670   22.8340 C   0  0  0  0  0  0  0  0  0  0  0  0
  -22.0221   -8.7520   20.6433 C   0  0  0  0  0  0  0  0  0  0  0  0
  -24.0515  -15.0783   22.7656 C   0  0  0  0  0  0  0  0  0  0  0  0
  -24.5411  -16.2402   24.9832 C   0  0  0  0  0  0  0  0  0  0  0  0
  -17.7451  -28.1145   23.0610 C   0  0  0  0  0  0  0  0  0  0  0  0
  -24.7793  -28.6354   19.7253 C   0  0  0  0  0  0  0  0  0  0  0  0
  -19.1101  -28.4594   23.0770 C   0  0  0  0  0  0  0  0  0  0  0  0
  -25.0193  -27.2967   19.3844 C   0  0  0  0  0  0  0  0  0  0  0  0
  -28.5958  -24.8430   22.6366 C   0  0  0  0  0  0  0  0  0  0  0  0
  -26.3727  -23.1954   22.2821 C   0  0  0  0  0  0  0  0  0  0  0  0
  -24.0206  -12.8888   21.0371 C   0  0  0  0  0  0  0  0  0  0  0  0
  -27.3441  -27.5580   20.0455 C   0  0  0  0  0  0  0  0  0  0  0  0
  -23.5682  -10.6077   20.6989 C   0  0  0  0  0  0  0  0  0  0  0  0
  -22.6897   -8.1637   21.7176 C   0  0  0  0  0  0  0  0  0  0  0  0
  -22.4614   -9.9740   20.1340 C   0  0  0  0  0  0  0  0  0  0  0  0
  -27.3290  -25.2908   23.0113 C   0  0  0  0  0  0  0  0  0  0  0  0
  -28.7511  -23.5714   22.0847 C   0  0  0  0  0  0  0  0  0  0  0  0
  -27.6395  -22.7476   21.9074 C   0  0  0  0  0  0  0  0  0  0  0  0
  -24.0678  -16.2096   23.6578 C   0  0  0  0  0  0  0  0  0  0  0  0
  -24.3368  -17.5358   25.3909 C   0  0  0  0  0  0  0  0  0  0  0  0
  -25.1142  -15.1913   25.7751 C   0  0  0  0  0  0  0  0  0  0  0  0
  -21.9835  -27.6723   20.8914 C   0  0  0  0  0  0  0  0  0  0  0  0
  -21.5905  -26.4754   17.9022 C   0  0  0  0  0  0  0  0  0  0  0  0
  -23.0294  -25.3568   15.0169 C   0  0  0  0  0  0  0  0  0  0  0  0
  -23.9045  -22.7202   22.4516 C   0  0  0  0  0  0  0  0  0  0  0  0
  -17.2781  -26.7439   22.6391 C   0  0  0  0  0  0  0  0  0  0  0  0
  -23.4152  -29.2384   19.5300 C   0  0  0  0  0  0  0  0  0  0  0  0
  -23.9291  -26.4076   18.8464 C   0  0  0  0  0  0  0  0  0  0  0  0
  -18.3213  -25.9629   21.8441 C   0  0  0  0  0  0  0  0  0  0  0  0
  -21.4705  -21.2949   24.6245 C   0  0  0  0  0  0  0  0  0  0  0  0
  -31.8478  -26.1465   23.6096 C   0  0  0  0  0  0  0  0  0  0  0  0
  -19.6845  -26.0492   22.5231 C   0  0  0  0  0  0  0  0  0  0  0  0
  -21.9069  -19.8333   24.7487 C   0  0  0  0  0  0  0  0  0  0  0  0
  -31.5239  -27.1297   22.4988 C   0  0  0  0  0  0  0  0  0  0  0  0
  -30.4743  -25.6543   24.0491 C   0  0  0  0  0  0  0  0  0  0  0  0
  -21.7103  -21.8409   23.2180 C   0  0  0  0  0  0  0  0  0  0  0  0
  -23.5136  -20.2069   22.8340 C   0  0  0  0  0  0  0  0  0  0  0  0
  -20.1756  -27.5003   22.5921 C   0  0  1  0  0  0  0  0  0  0  0  0
  -22.2984  -28.1992   19.5199 C   0  0  1  0  0  0  0  0  0  0  0  0
  -23.3517  -19.6323   24.2508 C   0  0  2  0  0  0  0  0  0  0  0  0
  -30.3250  -26.4904   21.7768 C   0  0  2  0  0  0  0  0  0  0  0  0
  -22.4518  -24.4079   12.7667 C   0  0  0  0  0  0  0  0  0  0  0  0
  -20.9907  -23.7781   19.1963 C   0  0  0  0  0  0  0  0  0  0  0  0
  -21.3631  -22.7037   16.9658 C   0  0  0  0  0  0  0  0  0  0  0  0
  -19.5179  -24.3565   17.2596 C   0  0  0  0  0  0  0  0  0  0  0  0
  -24.2924  -27.6306   13.6049 C   0  0  0  0  0  0  0  0  0  0  0  0
  -29.3990  -27.5783   21.2426 C   0  0  0  0  0  0  0  0  0  1  0  0
  -21.9129  -25.1658   17.2240 C   0  0  1  0  0  0  0  0  0  0  0  0
  -22.7425  -25.6724   13.5600 C   0  0  2  0  0  0  0  0  0  0  0  0
  -20.9665  -24.0170   17.6733 C   0  0  0  0  0  0  0  0  0  0  0  0
  -23.5980  -17.3917   23.2505 N   0  0  0  0  0  0  0  0  0  0  0  0
  -23.7751  -18.1773   24.3265 N   0  0  0  0  0  0  0  0  0  0  0  0
  -29.6911  -25.6647   22.8144 N   0  0  3  0  0  0  0  0  0  0  0  0
  -22.6110  -27.0417   18.6792 N   0  0  0  0  0  0  0  0  0  0  0  0
  -23.1008  -21.6190   22.8154 N   0  0  0  0  0  0  0  0  0  0  0  0
  -24.5846  -18.1773   26.5525 N   0  0  0  0  0  0  0  0  0  0  0  0
  -25.2517  -13.9200   25.2013 N   0  0  0  0  0  0  0  0  0  0  0  0
  -25.2180  -22.3905   22.1190 N   0  0  0  0  0  0  0  0  0  0  0  0
  -20.6893  -27.9217   21.3065 N   0  0  0  0  0  0  0  0  0  0  0  0
  -21.8901  -25.4324   15.7898 N   0  0  0  0  0  0  0  0  0  0  0  0
  -23.9104  -26.3588   12.9389 N   0  3  0  0  0  0  0  0  0  0  0  0
  -25.4781  -15.3719   26.9619 O   0  0  0  0  0  0  0  0  0  0  0  0
  -22.8501  -27.0818   21.5254 O   0  0  0  0  0  0  0  0  0  0  0  0
  -20.4767  -26.9811   17.7424 O   0  0  0  0  0  0  0  0  0  0  0  0
  -24.1513  -25.0682   15.4275 O   0  0  0  0  0  0  0  0  0  0  0  0
  -23.4679  -23.8740   22.4625 O   0  0  0  0  0  0  0  0  0  0  0  0
  -24.0060  -11.8205   20.1938 O   0  0  0  0  0  0  0  0  0  0  0  0
  -28.5882  -27.0299   20.2042 O   0  0  0  0  0  0  0  0  0  1  0  0
  -22.2689   -6.9896   22.2059 F   0  0  0  0  0  0  0  0  0  0  0  0
  -21.8167  -10.5337   19.1011 F   0  0  0  0  0  0  0  0  0  0  0  0
  -27.0850  -26.8582   23.6979 Cl  0  0  0  0  0  0  0  0  0  0  0  0
  -30.3398  -23.0341   21.6245 Cl  0  0  0  0  0  0  0  0  0  0  0  0
  -27.8037  -21.1587   21.2219 Cl  0  0  0  0  0  0  0  0  0  0  0  0
  1  2  1  0  0  0  0
  1  5  2  0  0  0  0
  2  6  2  0  0  0  0
  3  8  2  0  0  0  0
  3 16  1  0  0  0  0
  4  9  1  0  0  0  0
  4 16  2  0  0  0  0
  5 18  1  0  0  0  0
  6 20  1  0  0  0  0
  7 10  2  0  0  0  0
  7 19  1  0  0  0  0
  8 24  1  0  0  0  0
  9 24  2  0  0  0  0
 10 25  1  0  0  0  0
 11 12  2  0  0  0  0
 11 26  1  0  0  0  0
 12 27  1  0  0  0  0
 13 21  1  0  0  0  0
 13 25  2  0  0  0  0
 14 23  1  0  0  0  0
 14 29  2  0  0  0  0
 15 27  2  0  0  0  0
 15 28  1  0  0  0  0
 16 32  1  0  0  0  0
 17 32  1  0  0  0  0
 17 33  2  0  0  0  0
 17 34  1  0  0  0  0
 18 20  2  0  0  0  0
 18 39  1  0  0  0  0
 19 21  2  0  0  0  0
 19 40  1  0  0  0  0
 20 51  1  0  0  0  0
 21 41  1  0  0  0  0
 22 29  1  0  0  0  0
 22 30  2  0  0  0  0
 22 66  1  0  0  0  0
 23 31  2  0  0  0  0
 23 71  1  0  0  0  0
 24 80  1  0  0  0  0
 25 81  1  0  0  0  0
 26 28  2  0  0  0  0
 26 80  1  0  0  0  0
 27 82  1  0  0  0  0
 28 83  1  0  0  0  0
 29 84  1  0  0  0  0
 30 31  1  0  0  0  0
 30 85  1  0  0  0  0
 31 86  1  0  0  0  0
 32 64  2  0  0  0  0
 33 65  1  0  0  0  0
 33 69  1  0  0  0  0
 34 70  1  0  0  0  0
 34 75  2  0  0  0  0
 35 52  1  0  0  0  0
 35 72  1  0  0  0  0
 35 76  2  0  0  0  0
 36 61  1  0  0  0  0
 36 67  1  0  0  0  0
 36 77  2  0  0  0  0
 37 62  1  0  0  0  0
 37 73  1  0  0  0  0
 37 78  2  0  0  0  0
 38 68  1  0  0  0  0
 38 71  1  0  0  0  0
 38 79  2  0  0  0  0
 39 42  1  0  0  0  0
 40 52  1  0  0  0  0
 41 67  1  0  0  0  0
 42 45  1  0  0  0  0
 43 46  1  0  0  0  0
 43 49  1  0  0  0  0
 44 47  1  0  0  0  0
 44 48  1  0  0  0  0
 45 51  1  0  0  0  0
 46 53  1  0  0  0  0
 47 54  1  0  0  0  0
 48 66  1  0  0  0  0
 49 68  1  0  0  0  0
 50 53  1  0  0  0  0
 50 68  1  0  0  0  0
 51 72  1  0  0  0  0
 52 67  1  0  0  0  0
 53 65  1  0  0  0  0
 54 60  1  0  0  0  0
 54 66  1  0  0  0  0
 55 62  1  0  0  0  0
 56 63  1  0  0  0  0
 57 63  1  0  0  0  0
 58 63  1  0  0  0  0
 59 74  1  0  0  0  0
 60 81  1  0  0  0  0
 61 63  1  0  0  0  0
 61 73  1  0  0  0  0
 62 74  1  0  0  0  0
 64 65  1  0  0  0  0
M  CHG  1  74   1
M  ISO  4  38 100  60 101  71 100  81 101
M  END
> <Batch ID>
0026

> <Smiles>
CNC(C)C(=O)NC(C(=O)N1Cc2cc([101O:1][101CH2:1]C3CCCN3c3c(Cl)cc([100NH:0][100C:0](=O)N4CCCC(n5nc(-c6ccc(Oc7ccc(F)cc7F)cc6)c(C(N)=O)c5N)C4)c(Cl)c3Cl)ccc2CC1C(=O)NC1CCCc2ccccc21)C(C)(C)C

> <Shape>
0.203

> <Color>
0.083

> <Negative vol penalty>
0.000

$$$$

  -OEChem-04042321253D

 85 94  0     1  0  0  0  0  0999 V2000
  -18.2061  -31.1697   25.0796 C   0  0  0  0  0  0  0  0  0  0  0  0
  -19.2817  -30.5729   25.7294 C   0  0  0  0  0  0  0  0  0  0  0  0
  -23.5116   -9.6469   21.4696 C   0  0  0  0  0  0  0  0  0  0  0  0
  -24.0858  -10.7305   23.5513 C   0  0  0  0  0  0  0  0  0  0  0  0
  -17.8294  -30.7317   23.8107 C   0  0  0  0  0  0  0  0  0  0  0  0
  -19.9807  -29.5368   25.1110 C   0  0  0  0  0  0  0  0  0  0  0  0
  -26.5667  -26.7632   24.6137 C   0  0  0  0  0  0  0  0  0  0  0  0
  -22.8904   -8.6175   22.1768 C   0  0  0  0  0  0  0  0  0  0  0  0
  -23.4646   -9.7011   24.2584 C   0  0  0  0  0  0  0  0  0  0  0  0
  -27.2366  -25.5479   24.7484 C   0  0  0  0  0  0  0  0  0  0  0  0
  -19.9521   -8.1106   23.7711 C   0  0  0  0  0  0  0  0  0  0  0  0
  -18.7010   -7.6823   23.3274 C   0  0  0  0  0  0  0  0  0  0  0  0
  -31.4195  -18.0181   21.0946 C   0  0  0  0  0  0  0  0  0  0  0  0
  -26.5458  -24.9273   22.5220 C   0  0  0  0  0  0  0  0  0  0  0  0
  -29.5682  -20.0019   21.6817 C   0  0  0  0  0  0  0  0  0  0  0  0
  -19.5845   -5.4604   22.9813 C   0  0  0  0  0  0  0  0  0  0  0  0
  -24.1094  -10.7034   22.1569 C   0  0  0  0  0  0  0  0  0  0  0  0
  -24.1621  -12.9601   20.9686 C   0  0  0  0  0  0  0  0  0  0  0  0
  -18.5302  -29.6962   23.1724 C   0  0  0  0  0  0  0  0  0  0  0  0
  -25.8711  -27.0656   23.4343 C   0  0  0  0  0  0  0  0  0  0  0  0
  -19.6122  -29.0836   23.8329 C   0  0  0  0  0  0  0  0  0  0  0  0
  -31.8601  -19.2774   21.5376 C   0  0  0  0  0  0  0  0  0  0  0  0
  -25.8701  -26.1482   22.3739 C   0  0  0  0  0  0  0  0  0  0  0  0
  -29.1378  -18.7511   21.2282 C   0  0  0  0  0  0  0  0  0  0  0  0
  -30.9337  -20.2991   21.8601 C   0  0  0  0  0  0  0  0  0  0  0  0
  -30.0630  -17.7580   20.9377 C   0  0  0  0  0  0  0  0  0  0  0  0
  -22.8669   -8.6446   23.5712 C   0  0  0  0  0  0  0  0  0  0  0  0
  -27.2238  -24.6285   23.7036 C   0  0  0  0  0  0  0  0  0  0  0  0
  -21.0194   -7.2138   23.8200 C   0  0  0  0  0  0  0  0  0  0  0  0
  -18.5172   -6.3572   22.9325 C   0  0  0  0  0  0  0  0  0  0  0  0
  -20.8356   -5.8887   23.4251 C   0  0  0  0  0  0  0  0  0  0  0  0
  -24.7517  -11.7668   21.4269 C   0  0  0  0  0  0  0  0  0  0  0  0
  -25.1840  -13.6285   20.3398 C   0  0  0  0  0  0  0  0  0  0  0  0
  -22.8115  -13.4231   21.0996 C   0  0  0  0  0  0  0  0  0  0  0  0
  -22.8338  -27.6632   22.7120 C   0  0  0  0  0  0  0  0  0  0  0  0
  -24.0630  -28.2986   19.7781 C   0  0  0  0  0  0  0  0  0  0  0  0
  -26.5816  -27.8181   17.5259 C   0  0  0  0  0  0  0  0  0  0  0  0
  -30.4607  -15.3966   20.1553 C   0  0  0  0  0  0  0  0  0  0  0  0
  -18.0564  -29.2248   21.8204 C   0  0  0  0  0  0  0  0  0  0  0  0
  -25.1759  -28.3921   23.2946 C   0  0  0  0  0  0  0  0  0  0  0  0
  -33.3444  -19.4960   21.7044 C   0  0  0  0  0  0  0  0  0  0  0  0
  -25.1551  -26.4333   21.0793 C   0  0  0  0  0  0  0  0  0  0  0  0
  -19.0835  -28.3742   21.0775 C   0  0  0  0  0  0  0  0  0  0  0  0
  -33.6847  -20.9793   21.7097 C   0  0  0  0  0  0  0  0  0  0  0  0
  -29.8224  -12.0778   19.0348 C   0  0  0  0  0  0  0  0  0  0  0  0
  -19.6766  -27.3204   22.0073 C   0  0  0  0  0  0  0  0  0  0  0  0
  -28.3978  -11.7992   19.5196 C   0  0  0  0  0  0  0  0  0  0  0  0
  -32.7766  -21.7110   22.6866 C   0  0  0  0  0  0  0  0  0  0  0  0
  -30.6088  -12.9188   20.0388 C   0  0  0  0  0  0  0  0  0  0  0  0
  -28.5292  -13.8881   20.9360 C   0  0  0  0  0  0  0  0  0  0  0  0
  -20.4108  -27.9736   23.1845 C   0  0  1  0  0  0  0  0  0  0  0  0
  -24.0694  -28.3791   22.2444 C   0  0  1  0  0  0  0  0  0  0  0  0
  -27.6773  -13.0990   19.9284 C   0  0  2  0  0  0  0  0  0  0  0  0
  -27.6714  -18.5123   21.0618 C   0  0  0  0  0  0  0  0  0  0  0  0
  -27.2881  -28.4373   15.1989 C   0  0  0  0  0  0  0  0  0  0  0  0
  -22.0399  -26.3186   18.6395 C   0  0  0  0  0  0  0  0  0  0  0  0
  -23.3883  -26.2603   16.5308 C   0  0  0  0  0  0  0  0  0  0  0  0
  -22.3429  -28.3970   17.2820 C   0  0  0  0  0  0  0  0  0  0  0  0
  -29.0374  -29.1507   18.5015 C   0  0  0  0  0  0  0  0  0  0  0  0
  -29.9857  -22.3468   24.1662 C   0  0  0  0  0  0  0  0  0  0  0  0
  -30.4314  -22.5742   22.7268 C   0  0  0  0  0  0  0  0  0  0  0  0
  -29.0312  -23.4226   24.6706 C   0  0  0  0  0  0  0  0  0  1  0  0
  -24.3403  -27.4862   18.5363 C   0  0  1  0  0  0  0  0  0  0  0  0
  -27.3717  -28.7955   16.6745 C   0  0  2  0  0  0  0  0  0  0  0  0
  -23.0398  -27.1090   17.7721 C   0  0  0  0  0  0  0  0  0  0  0  0
  -26.0476  -11.6792   21.1156 N   0  0  0  0  0  0  0  0  0  0  0  0
  -26.2808  -12.8259   20.4549 N   0  0  0  0  0  0  0  0  0  0  0  0
  -31.3734  -21.5453   22.3104 N   0  0  3  0  0  0  0  0  0  0  0  0
  -24.4848  -27.7413   20.9935 N   0  0  0  0  0  0  0  0  0  0  0  0
  -29.8671  -14.1358   20.3760 N   0  0  0  0  0  0  0  0  0  0  0  0
  -25.2425  -14.8185   19.7050 N   0  0  0  0  0  0  0  0  0  0  0  0
  -21.8897  -12.6119   21.7753 N   0  0  0  0  0  0  0  0  0  0  0  0
  -29.6483  -16.4816   20.4830 N   0  0  0  0  0  0  0  0  0  0  0  0
  -21.7069  -28.4612   22.7640 N   0  0  0  0  0  0  0  0  0  0  0  0
  -25.2940  -28.2588   17.7476 N   0  0  0  0  0  0  0  0  0  0  0  0
  -28.8062  -28.7923   17.0785 N   0  3  0  0  0  0  0  0  0  0  0  0
  -22.4294  -14.5162   20.6171 O   0  0  0  0  0  0  0  0  0  0  0  0
  -22.8979  -26.4744   23.0025 O   0  0  0  0  0  0  0  0  0  0  0  0
  -23.4994  -29.3908   19.6728 O   0  0  0  0  0  0  0  0  0  0  0  0
  -27.0578  -26.7668   17.9486 O   0  0  0  0  0  0  0  0  0  0  0  0
  -31.5951  -15.5061   19.6829 O   0  0  0  0  0  0  0  0  0  0  0  0
  -22.2607   -7.6404   24.2615 O   0  0  0  0  0  0  0  0  0  0  0  0
  -27.8763  -23.4413   23.8326 O   0  0  0  0  0  0  0  0  0  1  0  0
  -17.3153   -5.9457   22.5078 F   0  0  0  0  0  0  0  0  0  0  0  0
  -21.8568   -5.0223   23.4709 F   0  0  0  0  0  0  0  0  0  0  0  0
  1  2  1  0  0  0  0
  1  5  2  0  0  0  0
  2  6  2  0  0  0  0
  3  8  2  0  0  0  0
  3 17  1  0  0  0  0
  4  9  1  0  0  0  0
  4 17  2  0  0  0  0
  5 19  1  0  0  0  0
  6 21  1  0  0  0  0
  7 10  2  0  0  0  0
  7 20  1  0  0  0  0
  8 27  1  0  0  0  0
  9 27  2  0  0  0  0
 10 28  1  0  0  0  0
 11 12  2  0  0  0  0
 11 29  1  0  0  0  0
 12 30  1  0  0  0  0
 13 22  1  0  0  0  0
 13 26  2  0  0  0  0
 14 23  1  0  0  0  0
 14 28  2  0  0  0  0
 15 24  2  0  0  0  0
 15 25  1  0  0  0  0
 16 30  2  0  0  0  0
 16 31  1  0  0  0  0
 17 32  1  0  0  0  0
 18 32  1  0  0  0  0
 18 33  2  0  0  0  0
 18 34  1  0  0  0  0
 19 21  2  0  0  0  0
 19 39  1  0  0  0  0
 20 23  2  0  0  0  0
 20 40  1  0  0  0  0
 21 51  1  0  0  0  0
 22 25  2  0  0  0  0
 22 41  1  0  0  0  0
 23 42  1  0  0  0  0
 24 26  1  0  0  0  0
 24 54  1  0  0  0  0
 25 68  1  0  0  0  0
 26 73  1  0  0  0  0
 27 82  1  0  0  0  0
 28 83  1  0  0  0  0
 29 31  2  0  0  0  0
 29 82  1  0  0  0  0
 30 84  1  0  0  0  0
 31 85  1  0  0  0  0
 32 66  2  0  0  0  0
 33 67  1  0  0  0  0
 33 71  1  0  0  0  0
 34 72  1  0  0  0  0
 34 77  2  0  0  0  0
 35 52  1  0  0  0  0
 35 74  1  0  0  0  0
 35 78  2  0  0  0  0
 36 63  1  0  0  0  0
 36 69  1  0  0  0  0
 36 79  2  0  0  0  0
 37 64  1  0  0  0  0
 37 75  1  0  0  0  0
 37 80  2  0  0  0  0
 38 70  1  0  0  0  0
 38 73  1  0  0  0  0
 38 81  2  0  0  0  0
 39 43  1  0  0  0  0
 40 52  1  0  0  0  0
 41 44  1  0  0  0  0
 42 69  1  0  0  0  0
 43 46  1  0  0  0  0
 44 48  1  0  0  0  0
 45 47  1  0  0  0  0
 45 49  1  0  0  0  0
 46 51  1  0  0  0  0
 47 53  1  0  0  0  0
 48 68  1  0  0  0  0
 49 70  1  0  0  0  0
 50 53  1  0  0  0  0
 50 70  1  0  0  0  0
 51 74  1  0  0  0  0
 52 69  1  0  0  0  0
 53 67  1  0  0  0  0
 55 64  1  0  0  0  0
 56 65  1  0  0  0  0
 57 65  1  0  0  0  0
 58 65  1  0  0  0  0
 59 76  1  0  0  0  0
 60 61  1  0  0  0  0
 60 62  1  0  0  0  0
 61 68  1  0  0  0  0
 62 83  1  0  0  0  0
 63 65  1  0  0  0  0
 63 75  1  0  0  0  0
 64 76  1  0  0  0  0
 66 67  1  0  0  0  0
M  CHG  1  76   1
M  ISO  4  38 100  62 101  73 100  83 101
M  END
> <Batch ID>
0026

> <Smiles>
CNC(C)C(=O)NC(C(=O)N1Cc2cc([101O:1][101CH2:1]CCN3CCCc4cc([100NH:0][100C:0](=O)N5CCCC(n6nc(-c7ccc(Oc8ccc(F)cc8F)cc7)c(C(N)=O)c6N)C5)c(C)cc43)ccc2CC1C(=O)NC1CCCc2ccccc21)C(C)(C)C

> <Shape>
0.245

> <Color>
0.140

> <Negative vol penalty>
0.000

$$$$

  -OEChem-04042321253D

 86 95  0     1  0  0  0  0  0999 V2000
  -16.5497  -29.8482   23.4265 C   0  0  0  0  0  0  0  0  0  0  0  0
  -17.6181  -30.6954   23.6980 C   0  0  0  0  0  0  0  0  0  0  0  0
  -20.0139  -24.5620   12.1862 C   0  0  0  0  0  0  0  0  0  0  0  0
  -20.8735  -23.3630   14.0995 C   0  0  0  0  0  0  0  0  0  0  0  0
  -16.7904  -28.5423   23.0048 C   0  0  0  0  0  0  0  0  0  0  0  0
  -18.9273  -30.2408   23.5365 C   0  0  0  0  0  0  0  0  0  0  0  0
  -27.0796  -29.3299   22.0830 C   0  0  0  0  0  0  0  0  0  0  0  0
  -29.5034  -20.8283   15.8069 C   0  0  0  0  0  0  0  0  0  0  0  0
  -18.7584  -23.9901   12.3918 C   0  0  0  0  0  0  0  0  0  0  0  0
  -19.6180  -22.7911   14.3052 C   0  0  0  0  0  0  0  0  0  0  0  0
  -27.8675  -28.3359   21.5043 C   0  0  0  0  0  0  0  0  0  0  0  0
  -16.1118  -24.4622   14.4425 C   0  0  0  0  0  0  0  0  0  0  0  0
  -29.9671  -20.1482   16.9329 C   0  0  0  0  0  0  0  0  0  0  0  0
  -14.9981  -25.2985   14.3661 C   0  0  0  0  0  0  0  0  0  0  0  0
  -26.1788  -27.9879   19.8171 C   0  0  0  0  0  0  0  0  0  0  0  0
  -28.0728  -22.1774   17.2107 C   0  0  0  0  0  0  0  0  0  0  0  0
  -14.1198  -23.9633   12.5542 C   0  0  0  0  0  0  0  0  0  0  0  0
  -21.0715  -24.2484   13.0400 C   0  0  0  0  0  0  0  0  0  0  0  0
  -22.6906  -26.2089   12.8338 C   0  0  0  0  0  0  0  0  0  0  0  0
  -18.1036  -28.0684   22.8503 C   0  0  0  0  0  0  0  0  0  0  0  0
  -25.8284  -29.6534   21.5386 C   0  0  0  0  0  0  0  0  0  0  0  0
  -19.1907  -28.9336   23.0888 C   0  0  0  0  0  0  0  0  0  0  0  0
  -25.3781  -28.9882   20.3893 C   0  0  0  0  0  0  0  0  0  0  0  0
  -28.5365  -21.4972   18.3368 C   0  0  0  0  0  0  0  0  0  0  0  0
  -28.5563  -21.8429   15.9457 C   0  0  0  0  0  0  0  0  0  0  0  0
  -18.5605  -23.1047   13.4513 C   0  0  0  0  0  0  0  0  0  0  0  0
  -27.4159  -27.6627   20.3729 C   0  0  0  0  0  0  0  0  0  0  0  0
  -16.2295  -23.3764   13.5747 C   0  0  0  0  0  0  0  0  0  0  0  0
  -14.0021  -25.0490   13.4219 C   0  0  0  0  0  0  0  0  0  0  0  0
  -29.4836  -20.4826   18.1979 C   0  0  0  0  0  0  0  0  0  0  0  0
  -15.2335  -23.1270   12.6306 C   0  0  0  0  0  0  0  0  0  0  0  0
  -22.3688  -24.8385   12.8278 C   0  0  0  0  0  0  0  0  0  0  0  0
  -24.0410  -26.2456   12.5854 C   0  0  0  0  0  0  0  0  0  0  0  0
  -27.9271  -24.3103   19.9395 C   0  0  0  0  0  0  0  0  0  0  0  0
  -21.8446  -27.3471   13.0452 C   0  0  0  0  0  0  0  0  0  0  0  0
  -22.8295  -29.5415   22.5863 C   0  0  0  0  0  0  0  0  0  0  0  0
  -22.2025  -31.0288   19.7725 C   0  0  0  0  0  0  0  0  0  0  0  0
  -23.2937  -30.7476   16.3450 C   0  0  0  0  0  0  0  0  0  0  0  0
  -28.4632  -22.3268   13.4752 C   0  0  0  0  0  0  0  0  0  0  0  0
  -18.3067  -26.6484   22.3837 C   0  0  0  0  0  0  0  0  0  0  0  0
  -25.0023  -30.7466   22.1589 C   0  0  0  0  0  0  0  0  0  0  0  0
  -24.0514  -29.3121   19.7542 C   0  0  0  0  0  0  0  0  0  0  0  0
  -19.7105  -26.1242   22.6683 C   0  0  0  0  0  0  0  0  0  0  0  0
  -30.4440  -24.2471   21.4390 C   0  0  0  0  0  0  0  0  0  0  0  0
  -27.5096  -23.7934   10.3741 C   0  0  0  0  0  0  0  0  0  0  0  0
  -20.7476  -27.1272   22.1857 C   0  0  0  0  0  0  0  0  0  0  0  0
  -30.0488  -25.4989   20.6839 C   0  0  0  0  0  0  0  0  0  0  0  0
  -26.1149  -24.3579   10.6537 C   0  0  0  0  0  0  0  0  0  0  0  0
  -29.9640  -23.0215   20.6823 C   0  0  0  0  0  0  0  0  0  0  0  0
  -27.7423  -22.4703   11.1014 C   0  0  0  0  0  0  0  0  0  0  0  0
  -26.0869  -23.0664   12.8259 C   0  0  0  0  0  0  0  0  0  0  0  0
  -20.6234  -28.4516   22.9496 C   0  0  1  0  0  0  0  0  0  0  0  0
  -28.5378  -25.5534   20.5741 C   0  0  1  0  0  0  0  0  0  1  0  0
  -23.5181  -30.6376   21.8233 C   0  0  1  0  0  0  0  0  0  0  0  0
  -25.8295  -24.4313   12.1666 C   0  0  2  0  0  0  0  0  0  0  0  0
  -23.3872  -32.4639   14.5166 C   0  0  0  0  0  0  0  0  0  0  0  0
  -19.4521  -29.9478   19.0132 C   0  0  0  0  0  0  0  0  0  0  0  0
  -20.0883  -30.2152   16.6066 C   0  0  0  0  0  0  0  0  0  0  0  0
  -19.9723  -32.2146   18.0938 C   0  0  0  0  0  0  0  0  0  0  0  0
  -26.1736  -30.2560   15.8722 C   0  0  0  0  0  0  0  0  0  0  0  0
  -28.0157  -21.8596   19.6975 C   0  0  0  0  0  0  0  0  0  0  0  0
  -21.8739  -30.5718   18.3717 C   0  0  1  0  0  0  0  0  0  0  0  0
  -24.1741  -31.7258   15.5884 C   0  0  2  0  0  0  0  0  0  0  0  0
  -20.3625  -30.7215   18.0388 C   0  0  0  0  0  0  0  0  0  0  0  0
  -23.4292  -24.0608   12.5939 N   0  0  0  0  0  0  0  0  0  0  0  0
  -24.4306  -24.9455   12.4505 N   0  0  0  0  0  0  0  0  0  0  0  0
  -28.5893  -23.1063   20.1865 N   0  0  0  0  0  0  0  0  0  0  0  0
  -23.2773  -30.3843   20.4013 N   0  0  0  0  0  0  0  0  0  0  0  0
  -27.4564  -22.6171   12.5303 N   0  0  0  0  0  0  0  0  0  0  0  0
  -24.9212  -27.2627   12.4712 N   0  0  0  0  0  0  0  0  0  0  0  0
  -20.4813  -27.1304   13.2875 N   0  0  0  0  0  0  0  0  0  0  0  0
  -28.0861  -22.5341   14.8016 N   0  0  0  0  0  0  0  0  0  0  0  0
  -21.4765  -29.4385   22.3252 N   0  0  0  0  0  0  0  0  0  0  0  0
  -22.7583  -31.3159   17.4815 N   0  0  0  0  0  0  0  0  0  0  0  0
  -25.3022  -31.0065   14.9318 N   0  3  0  0  0  0  0  0  0  0  0  0
  -26.8709  -24.3984   19.3079 O   0  0  0  0  0  0  0  0  0  0  0  0
  -22.2816  -28.5221   13.0036 O   0  0  0  0  0  0  0  0  0  0  0  0
  -23.4780  -28.8402   23.3539 O   0  0  0  0  0  0  0  0  0  0  0  0
  -21.5349  -31.9294   20.2870 O   0  0  0  0  0  0  0  0  0  0  0  0
  -23.0973  -29.5958   15.9637 O   0  0  0  0  0  0  0  0  0  0  0  0
  -29.5865  -21.9499   13.1315 O   0  0  0  0  0  0  0  0  0  0  0  0
  -17.3354  -22.5466   13.6524 O   0  0  0  0  0  0  0  0  0  0  0  0
  -28.1827  -26.6916   19.8065 O   0  0  0  0  0  0  0  0  0  1  0  0
  -12.9319  -25.8513   13.3497 F   0  0  0  0  0  0  0  0  0  0  0  0
  -29.9343  -19.8226   19.2738 F   0  0  0  0  0  0  0  0  0  0  0  0
  -15.3405  -22.0847   11.7951 F   0  0  0  0  0  0  0  0  0  0  0  0
  1  2  1  0  0  0  0
  1  5  2  0  0  0  0
  2  6  2  0  0  0  0
  3  9  2  0  0  0  0
  3 18  1  0  0  0  0
  4 10  1  0  0  0  0
  4 18  2  0  0  0  0
  5 20  1  0  0  0  0
  6 22  1  0  0  0  0
  7 11  2  0  0  0  0
  7 21  1  0  0  0  0
  8 13  2  0  0  0  0
  8 25  1  0  0  0  0
  9 26  1  0  0  0  0
 10 26  2  0  0  0  0
 11 27  1  0  0  0  0
 12 14  2  0  0  0  0
 12 28  1  0  0  0  0
 13 30  1  0  0  0  0
 14 29  1  0  0  0  0
 15 23  1  0  0  0  0
 15 27  2  0  0  0  0
 16 24  1  0  0  0  0
 16 25  2  0  0  0  0
 17 29  2  0  0  0  0
 17 31  1  0  0  0  0
 18 32  1  0  0  0  0
 19 32  1  0  0  0  0
 19 33  2  0  0  0  0
 19 35  1  0  0  0  0
 20 22  2  0  0  0  0
 20 40  1  0  0  0  0
 21 23  2  0  0  0  0
 21 41  1  0  0  0  0
 22 52  1  0  0  0  0
 23 42  1  0  0  0  0
 24 30  2  0  0  0  0
 24 61  1  0  0  0  0
 25 72  1  0  0  0  0
 26 82  1  0  0  0  0
 27 83  1  0  0  0  0
 28 31  2  0  0  0  0
 28 82  1  0  0  0  0
 29 84  1  0  0  0  0
 30 85  1  0  0  0  0
 31 86  1  0  0  0  0
 32 65  2  0  0  0  0
 33 66  1  0  0  0  0
 33 70  1  0  0  0  0
 34 53  1  0  0  0  0
 34 67  1  0  0  0  0
 34 76  2  0  0  0  0
 35 71  1  0  0  0  0
 35 77  2  0  0  0  0
 36 54  1  0  0  0  0
 36 73  1  0  0  0  0
 36 78  2  0  0  0  0
 37 62  1  0  0  0  0
 37 68  1  0  0  0  0
 37 79  2  0  0  0  0
 38 63  1  0  0  0  0
 38 74  1  0  0  0  0
 38 80  2  0  0  0  0
 39 69  1  0  0  0  0
 39 72  1  0  0  0  0
 39 81  2  0  0  0  0
 40 43  1  0  0  0  0
 41 54  1  0  0  0  0
 42 68  1  0  0  0  0
 43 46  1  0  0  0  0
 44 47  1  0  0  0  0
 44 49  1  0  0  0  0
 45 48  1  0  0  0  0
 45 50  1  0  0  0  0
 46 52  1  0  0  0  0
 47 53  1  0  0  0  0
 48 55  1  0  0  0  0
 49 67  1  0  0  0  0
 50 69  1  0  0  0  0
 51 55  1  0  0  0  0
 51 69  1  0  0  0  0
 52 73  1  0  0  0  0
 53 83  1  0  0  0  0
 54 68  1  0  0  0  0
 55 66  1  0  0  0  0
 56 63  1  0  0  0  0
 57 64  1  0  0  0  0
 58 64  1  0  0  0  0
 59 64  1  0  0  0  0
 60 75  1  0  0  0  0
 61 67  1  0  0  0  0
 62 64  1  0  0  0  0
 62 74  1  0  0  0  0
 63 75  1  0  0  0  0
 65 66  1  0  0  0  0
M  CHG  1  75   1
M  ISO  4  39 100  53 101  72 100  83 101
M  END
> <Batch ID>
0026

> <Smiles>
CNC(C)C(=O)NC(C(=O)N1Cc2cc([101O:1][101CH:1]3CCCN(Cc4cc([100NH:0][100C:0](=O)N5CCCC(n6nc(-c7ccc(Oc8ccc(F)cc8F)cc7)c(C(N)=O)c6N)C5)ccc4F)C3=O)ccc2CC1C(=O)NC1CCCc2ccccc21)C(C)(C)C

> <Shape>
0.171

> <Color>
0.122

> <Negative vol penalty>
0.000

$$$$

  -OEChem-04042321253D

 87 95  0     1  0  0  0  0  0999 V2000
  -31.0381  -23.1701   24.2365 C   0  0  0  0  0  0  0  0  0  0  0  0
  -29.6573  -23.3393   24.2197 C   0  0  0  0  0  0  0  0  0  0  0  0
  -29.9730  -28.1022   19.5152 C   0  0  0  0  0  0  0  0  0  0  0  0
  -29.4171  -27.0201   21.6026 C   0  0  0  0  0  0  0  0  0  0  0  0
  -31.6474  -22.3279   23.3073 C   0  0  0  0  0  0  0  0  0  0  0  0
  -28.8852  -22.6673   23.2729 C   0  0  0  0  0  0  0  0  0  0  0  0
  -23.2305  -20.4442   24.0404 C   0  0  0  0  0  0  0  0  0  0  0  0
  -19.0613  -25.2382   23.7709 C   0  0  0  0  0  0  0  0  0  0  0  0
  -19.5257  -26.2051   24.6625 C   0  0  0  0  0  0  0  0  0  0  0  0
  -31.3267  -27.8639   19.7521 C   0  0  0  0  0  0  0  0  0  0  0  0
  -30.7709  -26.7817   21.8395 C   0  0  0  0  0  0  0  0  0  0  0  0
  -21.9731  -20.9416   23.7011 C   0  0  0  0  0  0  0  0  0  0  0  0
  -33.4521  -28.5234   22.9389 C   0  0  0  0  0  0  0  0  0  0  0  0
  -33.9430  -28.7896   24.2171 C   0  0  0  0  0  0  0  0  0  0  0  0
  -22.0129  -19.6402   21.6704 C   0  0  0  0  0  0  0  0  0  0  0  0
  -19.0807  -26.8709   21.9902 C   0  0  0  0  0  0  0  0  0  0  0  0
  -34.5973  -26.4753   24.4477 C   0  0  0  0  0  0  0  0  0  0  0  0
  -29.0182  -27.6804   20.4404 C   0  0  0  0  0  0  0  0  0  0  0  0
  -26.7139  -27.0876   19.5205 C   0  0  0  0  0  0  0  0  0  0  0  0
  -30.8814  -21.6377   22.3548 C   0  0  0  0  0  0  0  0  0  0  0  0
  -23.8945  -19.5480   23.1905 C   0  0  0  0  0  0  0  0  0  0  0  0
  -29.4850  -21.8161   22.3292 C   0  0  0  0  0  0  0  0  0  0  0  0
  -23.2776  -19.1309   22.0024 C   0  0  0  0  0  0  0  0  0  0  0  0
  -18.8388  -25.5711   22.4347 C   0  0  0  0  0  0  0  0  0  0  0  0
  -19.7677  -27.5049   24.2180 C   0  0  0  0  0  0  0  0  0  0  0  0
  -19.5452  -27.8378   22.8818 C   0  0  0  0  0  0  0  0  0  0  0  0
  -31.7257  -27.2036   20.9143 C   0  0  0  0  0  0  0  0  0  0  0  0
  -21.3653  -20.5419   22.5146 C   0  0  0  0  0  0  0  0  0  0  0  0
  -33.5337  -27.2332   22.4151 C   0  0  0  0  0  0  0  0  0  0  0  0
  -34.5156  -27.7656   24.9715 C   0  0  0  0  0  0  0  0  0  0  0  0
  -34.1063  -26.2092   23.1695 C   0  0  0  0  0  0  0  0  0  0  0  0
  -27.6196  -27.9268   20.1965 C   0  0  0  0  0  0  0  0  0  0  0  0
  -25.5217  -27.7687   19.5571 C   0  0  0  0  0  0  0  0  0  0  0  0
  -26.9307  -25.8067   18.9137 C   0  0  0  0  0  0  0  0  0  0  0  0
  -26.6267  -19.6020   21.5670 C   0  0  0  0  0  0  0  0  0  0  0  0
  -25.8539  -16.5179   20.9240 C   0  0  0  0  0  0  0  0  0  0  0  0
  -23.4239  -14.1383   20.6420 C   0  0  0  0  0  0  0  0  0  0  0  0
  -21.7235  -30.7861   22.3165 C   0  0  0  0  0  0  0  0  0  0  0  0
  -31.5896  -20.7751   21.3404 C   0  0  0  0  0  0  0  0  0  0  0  0
  -25.2389  -19.0000   23.5838 C   0  0  0  0  0  0  0  0  0  0  0  0
  -23.9395  -18.1551   21.0654 C   0  0  0  0  0  0  0  0  0  0  0  0
  -30.6618  -19.8083   20.6091 C   0  0  0  0  0  0  0  0  0  0  0  0
  -24.4918  -32.5315   20.9141 C   0  0  0  0  0  0  0  0  0  0  0  0
  -29.4007  -20.5286   20.1427 C   0  0  0  0  0  0  0  0  0  0  0  0
  -25.4795  -31.4208   20.5527 C   0  0  0  0  0  0  0  0  0  0  0  0
  -23.7404  -32.2201   22.2066 C   0  0  0  0  0  0  0  0  0  0  0  0
  -24.0517  -29.7989   21.8679 C   0  0  0  0  0  0  0  0  0  0  0  0
  -28.6108  -21.0851   21.3334 C   0  0  1  0  0  0  0  0  0  0  0  0
  -26.0473  -18.4899   22.3948 C   0  0  1  0  0  0  0  0  0  0  0  0
  -24.7931  -30.0416   20.5421 C   0  0  2  0  0  0  0  0  0  0  0  0
  -23.0938  -11.7186   20.0647 C   0  0  0  0  0  0  0  0  0  0  0  0
  -26.1998  -17.1791   17.9655 C   0  0  0  0  0  0  0  0  0  0  0  0
  -24.9639  -15.0709   17.4214 C   0  0  0  0  0  0  0  0  0  0  0  0
  -27.1296  -14.9621   18.6545 C   0  0  0  0  0  0  0  0  0  0  0  0
  -22.3334  -13.5271   23.3246 C   0  0  0  0  0  0  0  0  0  0  0  0
  -22.1870  -29.8751   26.0129 C   0  0  0  0  0  0  0  0  0  0  0  0
  -22.5746  -27.6041   25.0681 C   0  0  0  0  0  0  0  0  0  0  0  0
  -20.3727  -24.1549   20.0895 C   0  0  0  0  0  0  0  0  0  0  0  0
  -19.7969  -29.2230   22.3832 C   0  0  0  0  0  0  0  0  0  0  0  0
  -18.3387  -24.5310   21.4760 C   0  0  0  0  0  0  0  0  0  0  0  0
  -20.2637  -28.5234   25.1913 C   0  0  0  0  0  0  0  0  0  0  0  0
  -18.8332  -22.2603   20.5816 C   0  0  0  0  0  0  0  0  0  0  0  0
  -19.8458  -21.1514   20.7896 C   0  0  0  0  0  0  0  0  0  1  0  0
  -25.0679  -15.8157   19.8432 C   0  0  1  0  0  0  0  0  0  0  0  0
  -23.3331  -12.7224   21.1818 C   0  0  2  0  0  0  0  0  0  0  0  0
  -25.8284  -15.7768   18.4877 C   0  0  0  0  0  0  0  0  0  0  0  0
  -27.0516  -29.0550   20.6307 N   0  0  0  0  0  0  0  0  0  0  0  0
  -25.7761  -28.9295   20.2265 N   0  0  0  0  0  0  0  0  0  0  0  0
  -25.2562  -17.6524   21.4910 N   0  0  0  0  0  0  0  0  0  0  0  0
  -23.1112  -30.8994   22.1308 N   0  0  0  0  0  0  0  0  0  0  0  0
  -24.2912  -27.4821   19.0816 N   0  0  0  0  0  0  0  0  0  0  0  0
  -28.2162  -25.2511   18.9671 N   0  0  0  0  0  0  0  0  0  0  0  0
  -27.8721  -20.0272   21.9887 N   0  0  0  0  0  0  0  0  0  0  0  0
  -24.7273  -14.5006   20.3752 N   0  0  0  0  0  0  0  0  0  0  0  0
  -21.2070  -29.4995   22.2221 N   0  0  0  0  0  0  0  0  0  0  0  0
  -22.2147  -12.6118   22.1605 N   0  3  0  0  0  0  0  0  0  0  0  0
  -21.7092  -28.8377   25.0293 N   0  3  0  0  0  0  0  0  0  0  0  0
  -19.4027  -23.5418   21.0690 N   0  3  1  0  0  0  0  0  0  0  0  0
  -26.0154  -25.1812   18.3267 O   0  0  0  0  0  0  0  0  0  0  0  0
  -25.9917  -20.0407   20.6152 O   0  0  0  0  0  0  0  0  0  0  0  0
  -26.9544  -16.0719   21.2581 O   0  0  0  0  0  0  0  0  0  0  0  0
  -22.4369  -14.8504   20.4705 O   0  0  0  0  0  0  0  0  0  0  0  0
  -20.9977  -31.7600   22.5438 O   0  0  0  0  0  0  0  0  0  0  0  0
  -33.0466  -26.9707   21.1457 O   0  0  0  0  0  0  0  0  0  0  0  0
  -20.1382  -21.0264   22.1807 O   0  0  0  0  0  0  0  0  0  1  0  0
  -34.9883  -28.0217   26.1983 F   0  0  0  0  0  0  0  0  0  0  0  0
  -34.1886  -24.9679   22.6712 F   0  0  0  0  0  0  0  0  0  0  0  0
  1  2  1  0  0  0  0
  1  5  2  0  0  0  0
  2  6  2  0  0  0  0
  3 10  2  0  0  0  0
  3 18  1  0  0  0  0
  4 11  1  0  0  0  0
  4 18  2  0  0  0  0
  5 20  1  0  0  0  0
  6 22  1  0  0  0  0
  7 12  2  0  0  0  0
  7 21  1  0  0  0  0
  8  9  2  0  0  0  0
  8 24  1  0  0  0  0
  9 25  1  0  0  0  0
 10 27  1  0  0  0  0
 11 27  2  0  0  0  0
 12 28  1  0  0  0  0
 13 14  2  0  0  0  0
 13 29  1  0  0  0  0
 14 30  1  0  0  0  0
 15 23  1  0  0  0  0
 15 28  2  0  0  0  0
 16 24  2  0  0  0  0
 16 26  1  0  0  0  0
 17 30  2  0  0  0  0
 17 31  1  0  0  0  0
 18 32  1  0  0  0  0
 19 32  1  0  0  0  0
 19 33  2  0  0  0  0
 19 34  1  0  0  0  0
 20 22  2  0  0  0  0
 20 39  1  0  0  0  0
 21 23  2  0  0  0  0
 21 40  1  0  0  0  0
 22 48  1  0  0  0  0
 23 41  1  0  0  0  0
 24 60  1  0  0  0  0
 25 26  2  0  0  0  0
 25 61  1  0  0  0  0
 26 59  1  0  0  0  0
 27 84  1  0  0  0  0
 28 85  1  0  0  0  0
 29 31  2  0  0  0  0
 29 84  1  0  0  0  0
 30 86  1  0  0  0  0
 31 87  1  0  0  0  0
 32 67  2  0  0  0  0
 33 68  1  0  0  0  0
 33 71  1  0  0  0  0
 34 72  1  0  0  0  0
 34 79  2  0  0  0  0
 35 49  1  0  0  0  0
 35 73  1  0  0  0  0
 35 80  2  0  0  0  0
 36 64  1  0  0  0  0
 36 69  1  0  0  0  0
 36 81  2  0  0  0  0
 37 65  1  0  0  0  0
 37 74  1  0  0  0  0
 37 82  2  0  0  0  0
 38 70  1  0  0  0  0
 38 75  1  0  0  0  0
 38 83  2  0  0  0  0
 39 42  1  0  0  0  0
 40 49  1  0  0  0  0
 41 69  1  0  0  0  0
 42 44  1  0  0  0  0
 43 45  1  0  0  0  0
 43 46  1  0  0  0  0
 44 48  1  0  0  0  0
 45 50  1  0  0  0  0
 46 70  1  0  0  0  0
 47 50  1  0  0  0  0
 47 70  1  0  0  0  0
 48 73  1  0  0  0  0
 49 69  1  0  0  0  0
 50 68  1  0  0  0  0
 51 65  1  0  0  0  0
 52 66  1  0  0  0  0
 53 66  1  0  0  0  0
 54 66  1  0  0  0  0
 55 76  1  0  0  0  0
 56 77  1  0  0  0  0
 57 77  1  0  0  0  0
 58 78  1  0  0  0  0
 59 75  1  0  0  0  0
 60 78  1  0  0  0  0
 61 77  1  0  0  0  0
 62 63  1  0  0  0  0
 62 78  1  0  0  0  0
 63 85  1  0  0  0  0
 64 66  1  0  0  0  0
 64 74  1  0  0  0  0
 65 76  1  0  0  0  0
 67 68  1  0  0  0  0
M  CHG  3  76   1  77   1  78   1
M  ISO  4  38 100  63 101  75 100  85 101
M  END
> <Batch ID>
0026

> <Smiles>
CNC(C)C(=O)NC(C(=O)N1Cc2cc([101O:1][101CH2:1]CN(C)Cc3ccc(CN(C)C)c(C[100NH:0][100C:0](=O)N4CCCC(n5nc(-c6ccc(Oc7ccc(F)cc7F)cc6)c(C(N)=O)c5N)C4)c3)ccc2CC1C(=O)NC1CCCc2ccccc21)C(C)(C)C

> <Shape>
0.204

> <Color>
0.081

> <Negative vol penalty>
0.000

$$$$

  -OEChem-04042321253D

 85 95  0     1  0  0  0  0  0999 V2000
  -28.1487  -35.7123   22.9702 C   0  0  0  0  0  0  0  0  0  0  0  0
  -28.3580  -34.3450   22.8222 C   0  0  0  0  0  0  0  0  0  0  0  0
  -24.3075  -13.1782   23.0704 C   0  0  0  0  0  0  0  0  0  0  0  0
  -22.7769  -13.0055   21.2091 C   0  0  0  0  0  0  0  0  0  0  0  0
  -26.9095  -36.1841   23.4012 C   0  0  0  0  0  0  0  0  0  0  0  0
  -27.3285  -33.4484   23.1063 C   0  0  0  0  0  0  0  0  0  0  0  0
  -26.8651  -29.8422   19.5812 C   0  0  0  0  0  0  0  0  0  0  0  0
  -33.0418  -22.5739   19.6487 C   0  0  0  0  0  0  0  0  0  0  0  0
  -23.3145  -12.7095   23.9306 C   0  0  0  0  0  0  0  0  0  0  0  0
  -21.7839  -12.5367   22.0693 C   0  0  0  0  0  0  0  0  0  0  0  0
  -27.7810  -28.7918   19.6207 C   0  0  0  0  0  0  0  0  0  0  0  0
  -18.9558  -10.9525   23.7156 C   0  0  0  0  0  0  0  0  0  0  0  0
  -33.4586  -21.2444   19.9068 C   0  0  0  0  0  0  0  0  0  0  0  0
  -18.2042   -9.8528   23.3015 C   0  0  0  0  0  0  0  0  0  0  0  0
  -26.1389  -27.4094   20.7215 C   0  0  0  0  0  0  0  0  0  0  0  0
  -20.2187   -8.5254   23.1703 C   0  0  0  0  0  0  0  0  0  0  0  0
  -24.0387  -13.3262   21.7097 C   0  0  0  0  0  0  0  0  0  0  0  0
  -26.0092  -13.0432   20.1145 C   0  0  0  0  0  0  0  0  0  0  0  0
  -25.8612  -35.2934   23.6814 C   0  0  0  0  0  0  0  0  0  0  0  0
  -25.5807  -29.6874   20.1223 C   0  0  0  0  0  0  0  0  0  0  0  0
  -26.0745  -33.9086   23.5427 C   0  0  0  0  0  0  0  0  0  0  0  0
  -25.2078  -28.4586   20.6853 C   0  0  0  0  0  0  0  0  0  0  0  0
  -30.8454  -21.8117   19.2519 C   0  0  0  0  0  0  0  0  0  0  0  0
  -31.7117  -22.8689   19.3168 C   0  0  0  0  0  0  0  0  0  0  0  0
  -31.2818  -20.5329   19.4971 C   0  0  0  0  0  0  0  0  0  0  0  0
  -22.0527  -12.3887   23.4300 C   0  0  0  0  0  0  0  0  0  0  0  0
  -27.4190  -27.5761   20.1935 C   0  0  0  0  0  0  0  0  0  0  0  0
  -20.3388  -10.8386   23.8570 C   0  0  0  0  0  0  0  0  0  0  0  0
  -18.8356   -8.6393   23.0289 C   0  0  0  0  0  0  0  0  0  0  0  0
  -32.5570  -20.1807   19.8363 C   0  0  0  0  0  0  0  0  0  0  0  0
  -20.9702   -9.6251   23.5844 C   0  0  0  0  0  0  0  0  0  0  0  0
  -25.0639  -13.8109   20.8208 C   0  0  0  0  0  0  0  0  0  0  0  0
  -26.7502  -13.9666   19.4183 C   0  0  0  0  0  0  0  0  0  0  0  0
  -26.2002  -11.6224   20.0898 C   0  0  0  0  0  0  0  0  0  0  0  0
  -23.9540  -31.0782   22.4724 C   0  0  0  0  0  0  0  0  0  0  0  0
  -21.5244  -29.2452   21.3503 C   0  0  0  0  0  0  0  0  0  0  0  0
  -20.5493  -26.4573   19.6403 C   0  0  0  0  0  0  0  0  0  0  0  0
  -29.6117  -18.7048   19.5700 C   0  0  0  0  0  0  0  0  0  0  0  0
  -24.5540  -35.8477   24.1898 C   0  0  0  0  0  0  0  0  0  0  0  0
  -24.5955  -30.8215   20.0478 C   0  0  0  0  0  0  0  0  0  0  0  0
  -23.8344  -28.2346   21.2617 C   0  0  0  0  0  0  0  0  0  0  0  0
  -29.4499  -21.3127   19.0109 C   0  0  0  0  0  0  0  0  0  0  0  0
  -23.3986  -34.8532   24.1104 C   0  0  0  0  0  0  0  0  0  0  0  0
  -26.0090  -18.8686   18.5948 C   0  0  0  0  0  0  0  0  0  0  0  0
  -23.8277  -33.4922   24.6493 C   0  0  0  0  0  0  0  0  0  0  0  0
  -25.5133  -17.5301   19.1253 C   0  0  0  0  0  0  0  0  0  0  0  0
  -29.6779  -25.7446   22.0447 C   0  0  0  0  0  0  0  0  0  0  0  0
  -27.1657  -19.4335   19.4194 C   0  0  0  0  0  0  0  0  0  0  0  0
  -27.7932  -17.1315   20.1126 C   0  0  0  0  0  0  0  0  0  0  0  0
  -30.1717  -24.5188   21.3030 C   0  0  0  0  0  0  0  0  0  0  0  0
  -30.7209  -26.5348   20.0247 C   0  0  0  0  0  0  0  0  0  0  0  0
  -24.9746  -32.9060   23.8171 C   0  0  1  0  0  0  0  0  0  0  0  0
  -23.4865  -30.7189   21.0904 C   0  0  1  0  0  0  0  0  0  0  0  0
  -26.6808  -16.5417   19.2356 C   0  0  1  0  0  0  0  0  0  0  0  0
  -29.5308  -26.7767   20.9400 C   0  0  1  0  0  0  0  0  0  1  0  0
  -18.4972  -25.2051   18.9205 C   0  0  0  0  0  0  0  0  0  0  0  0
  -21.1735  -28.1913   24.1922 C   0  0  0  0  0  0  0  0  0  0  0  0
  -19.8120  -26.3120   23.2527 C   0  0  0  0  0  0  0  0  0  0  0  0
  -19.0358  -28.6674   22.9847 C   0  0  0  0  0  0  0  0  0  0  0  0
  -21.2156  -26.7810   16.7750 C   0  0  0  0  0  0  0  0  0  0  0  0
  -31.2655  -24.2590   19.0502 C   0  0  0  0  0  0  0  0  0  0  0  0
  -21.0143  -27.8536   21.6375 C   0  0  1  0  0  0  0  0  0  0  0  0
  -19.5249  -26.2588   18.5378 C   0  0  2  0  0  0  0  0  0  0  0  0
  -20.2855  -27.7606   23.0077 C   0  0  0  0  0  0  0  0  0  0  0  0
  -25.1908  -15.1211   20.5943 N   0  0  0  0  0  0  0  0  0  0  0  0
  -26.2245  -15.1839   19.7378 N   0  0  0  0  0  0  0  0  0  0  0  0
  -30.0296  -19.9865   19.3071 N   0  0  0  0  0  0  0  0  0  0  0  0
  -22.9087  -29.3758   21.1708 N   0  0  0  0  0  0  0  0  0  0  0  0
  -28.2338  -18.4544   19.6475 N   0  0  0  0  0  0  0  0  0  0  0  0
  -27.7938  -13.8480   18.5702 N   0  0  0  0  0  0  0  0  0  0  0  0
  -25.3505  -10.8205   20.8639 N   0  0  0  0  0  0  0  0  0  0  0  0
  -24.4697  -32.3559   22.5774 N   0  0  0  0  0  0  0  0  0  0  0  0
  -20.1888  -27.4776   20.4949 N   0  0  0  0  0  0  0  0  0  0  0  0
  -31.1293  -25.0902   20.2817 N   0  3  2  0  0  0  0  0  0  0  0  0
  -20.1956  -25.8259   17.2794 N   0  3  0  0  0  0  0  0  0  0  0  0
  -27.1083  -11.0813   19.4144 O   0  0  0  0  0  0  0  0  0  0  0  0
  -23.8529  -30.2576   23.3768 O   0  0  0  0  0  0  0  0  0  0  0  0
  -20.7232  -30.1805   21.2806 O   0  0  0  0  0  0  0  0  0  0  0  0
  -21.5658  -25.7731   19.7362 O   0  0  0  0  0  0  0  0  0  0  0  0
  -30.4379  -17.8058   19.7812 O   0  0  0  0  0  0  0  0  0  0  0  0
  -21.0835  -11.9311   24.2689 O   0  0  0  0  0  0  0  0  0  0  0  0
  -28.3171  -26.5427   20.2342 O   0  0  0  0  0  0  0  0  0  1  0  0
  -18.1136   -7.5830   22.6327 F   0  0  0  0  0  0  0  0  0  0  0  0
  -32.9297  -18.9221   20.0802 F   0  0  0  0  0  0  0  0  0  0  0  0
  -22.2985   -9.5093   23.7196 F   0  0  0  0  0  0  0  0  0  0  0  0
  1  2  1  0  0  0  0
  1  5  2  0  0  0  0
  2  6  2  0  0  0  0
  3  9  2  0  0  0  0
  3 17  1  0  0  0  0
  4 10  1  0  0  0  0
  4 17  2  0  0  0  0
  5 19  1  0  0  0  0
  6 21  1  0  0  0  0
  7 11  2  0  0  0  0
  7 20  1  0  0  0  0
  8 13  2  0  0  0  0
  8 24  1  0  0  0  0
  9 26  1  0  0  0  0
 10 26  2  0  0  0  0
 11 27  1  0  0  0  0
 12 14  2  0  0  0  0
 12 28  1  0  0  0  0
 13 30  1  0  0  0  0
 14 29  1  0  0  0  0
 15 22  1  0  0  0  0
 15 27  2  0  0  0  0
 16 29  2  0  0  0  0
 16 31  1  0  0  0  0
 17 32  1  0  0  0  0
 18 32  1  0  0  0  0
 18 33  2  0  0  0  0
 18 34  1  0  0  0  0
 19 21  2  0  0  0  0
 19 39  1  0  0  0  0
 20 22  2  0  0  0  0
 20 40  1  0  0  0  0
 21 52  1  0  0  0  0
 22 41  1  0  0  0  0
 23 24  2  0  0  0  0
 23 25  1  0  0  0  0
 23 42  1  0  0  0  0
 24 61  1  0  0  0  0
 25 30  2  0  0  0  0
 25 67  1  0  0  0  0
 26 81  1  0  0  0  0
 27 82  1  0  0  0  0
 28 31  2  0  0  0  0
 28 81  1  0  0  0  0
 29 83  1  0  0  0  0
 30 84  1  0  0  0  0
 31 85  1  0  0  0  0
 32 65  2  0  0  0  0
 33 66  1  0  0  0  0
 33 70  1  0  0  0  0
 34 71  1  0  0  0  0
 34 76  2  0  0  0  0
 35 53  1  0  0  0  0
 35 72  1  0  0  0  0
 35 77  2  0  0  0  0
 36 62  1  0  0  0  0
 36 68  1  0  0  0  0
 36 78  2  0  0  0  0
 37 63  1  0  0  0  0
 37 73  1  0  0  0  0
 37 79  2  0  0  0  0
 38 67  1  0  0  0  0
 38 69  1  0  0  0  0
 38 80  2  0  0  0  0
 39 43  1  0  0  0  0
 40 53  1  0  0  0  0
 41 68  1  0  0  0  0
 42 67  1  0  0  0  0
 43 45  1  0  0  0  0
 44 46  1  0  0  0  0
 44 48  1  0  0  0  0
 45 52  1  0  0  0  0
 46 54  1  0  0  0  0
 47 50  1  0  0  0  0
 47 55  1  0  0  0  0
 48 69  1  0  0  0  0
 49 54  1  0  0  0  0
 49 69  1  0  0  0  0
 50 74  1  0  0  0  0
 51 55  1  0  0  0  0
 51 74  1  0  0  0  0
 52 72  1  0  0  0  0
 53 68  1  0  0  0  0
 54 66  1  0  0  0  0
 55 82  1  0  0  0  0
 56 63  1  0  0  0  0
 57 64  1  0  0  0  0
 58 64  1  0  0  0  0
 59 64  1  0  0  0  0
 60 75  1  0  0  0  0
 61 74  1  0  0  0  0
 62 64  1  0  0  0  0
 62 73  1  0  0  0  0
 63 75  1  0  0  0  0
 65 66  1  0  0  0  0
M  CHG  2  74   1  75   1
M  ISO  4  38 100  55 101  67 100  82 101
M  END
> <Batch ID>
0026

> <Smiles>
CNC(C)C(=O)NC(C(=O)N1Cc2cc([101O:1][101CH:1]3CCN(Cc4ccc(F)c5c4C[100N:0]5[100C:0](=O)N4CCCC(n5nc(-c6ccc(Oc7ccc(F)cc7F)cc6)c(C(N)=O)c5N)C4)C3)ccc2CC1C(=O)NC1CCCc2ccccc21)C(C)(C)C

> <Shape>
0.295

> <Color>
0.080

> <Negative vol penalty>
0.000

$$$$

  -OEChem-04042321253D

 83 92  0     1  0  0  0  0  0999 V2000
  -27.8755  -23.0964   28.5398 C   0  0  0  0  0  0  0  0  0  0  0  0
  -27.8534  -23.4809   27.2030 C   0  0  0  0  0  0  0  0  0  0  0  0
  -26.3177  -12.6651   21.6077 C   0  0  0  0  0  0  0  0  0  0  0  0
  -25.8511  -13.5227   19.3978 C   0  0  0  0  0  0  0  0  0  0  0  0
  -27.0845  -23.7687   29.4706 C   0  0  0  0  0  0  0  0  0  0  0  0
  -27.0393  -24.5373   26.7959 C   0  0  0  0  0  0  0  0  0  0  0  0
  -29.4198  -27.7310   23.6689 C   0  0  0  0  0  0  0  0  0  0  0  0
  -25.0998  -11.9852   21.6010 C   0  0  0  0  0  0  0  0  0  0  0  0
  -24.6332  -12.8428   19.3910 C   0  0  0  0  0  0  0  0  0  0  0  0
  -29.5587  -27.3352   22.3393 C   0  0  0  0  0  0  0  0  0  0  0  0
  -23.8417   -9.1414   20.2731 C   0  0  0  0  0  0  0  0  0  0  0  0
  -23.8357   -7.8181   20.7139 C   0  0  0  0  0  0  0  0  0  0  0  0
  -27.6828  -28.7264   21.7354 C   0  0  0  0  0  0  0  0  0  0  0  0
  -28.1441  -22.7065   18.9689 C   0  0  0  0  0  0  0  0  0  0  0  0
  -27.9954  -21.0588   17.2083 C   0  0  0  0  0  0  0  0  0  0  0  0
  -22.2711   -8.4064   22.4584 C   0  0  0  0  0  0  0  0  0  0  0  0
  -26.6933  -13.4339   20.5061 C   0  0  0  0  0  0  0  0  0  0  0  0
  -29.1957  -13.6567   20.0632 C   0  0  0  0  0  0  0  0  0  0  0  0
  -26.2677  -24.8402   29.0764 C   0  0  0  0  0  0  0  0  0  0  0  0
  -28.4028  -28.6205   24.0441 C   0  0  0  0  0  0  0  0  0  0  0  0
  -26.2356  -25.2237   27.7220 C   0  0  0  0  0  0  0  0  0  0  0  0
  -27.5347  -29.1339   23.0700 C   0  0  0  0  0  0  0  0  0  0  0  0
  -27.5841  -23.6625   18.1216 C   0  0  0  0  0  0  0  0  0  0  0  0
  -28.3498  -21.4046   18.5123 C   0  0  0  0  0  0  0  0  0  0  0  0
  -24.2575  -12.0740   20.4927 C   0  0  0  0  0  0  0  0  0  0  0  0
  -28.6883  -27.8306   21.3728 C   0  0  0  0  0  0  0  0  0  0  0  0
  -23.0626  -10.0973   20.9250 C   0  0  0  0  0  0  0  0  0  0  0  0
  -23.0503   -7.4505   21.8065 C   0  0  0  0  0  0  0  0  0  0  0  0
  -22.2773   -9.7297   22.0176 C   0  0  0  0  0  0  0  0  0  0  0  0
  -27.4353  -22.0148   16.3609 C   0  0  0  0  0  0  0  0  0  0  0  0
  -27.2297  -23.3166   16.8176 C   0  0  0  0  0  0  0  0  0  0  0  0
  -27.9510  -14.1369   20.5126 C   0  0  0  0  0  0  0  0  0  0  0  0
  -30.0648  -14.6973   20.2827 C   0  0  0  0  0  0  0  0  0  0  0  0
  -29.5358  -12.3837   19.4978 C   0  0  0  0  0  0  0  0  0  0  0  0
  -25.8849  -28.4622   25.9778 C   0  0  0  0  0  0  0  0  0  0  0  0
  -25.6337  -31.6180   25.2709 C   0  0  0  0  0  0  0  0  0  0  0  0
  -26.3155  -34.1649   23.1039 C   0  0  0  0  0  0  0  0  0  0  0  0
  -29.3289  -20.6129   20.6943 C   0  0  0  0  0  0  0  0  0  0  0  0
  -25.3944  -25.5059   30.1103 C   0  0  0  0  0  0  0  0  0  0  0  0
  -28.2830  -29.0584   25.4781 C   0  0  0  0  0  0  0  0  0  0  0  0
  -26.4391  -30.1071   23.4178 C   0  0  0  0  0  0  0  0  0  0  0  0
  -24.8430  -26.8572   29.6629 C   0  0  0  0  0  0  0  0  0  0  0  0
  -30.7436  -18.4666   23.1578 C   0  0  0  0  0  0  0  0  0  0  0  0
  -24.2865  -26.7640   28.2457 C   0  0  0  0  0  0  0  0  0  0  0  0
  -30.3064  -17.0685   22.7147 C   0  0  0  0  0  0  0  0  0  0  0  0
  -29.6584  -19.5096   22.8963 C   0  0  0  0  0  0  0  0  0  0  0  0
  -28.7116  -18.1454   21.0765 C   0  0  0  0  0  0  0  0  0  0  0  0
  -27.9591  -26.1504   18.1000 C   0  0  0  0  0  0  0  0  0  0  0  0
  -27.4162  -25.3586   19.9724 C   0  0  0  0  0  0  0  0  0  0  0  0
  -25.3844  -26.3809   27.2460 C   0  0  1  0  0  0  0  0  0  0  0  0
  -26.8900  -29.5696   25.8324 C   0  0  1  0  0  0  0  0  0  0  0  0
  -29.7968  -17.0719   21.2602 C   0  0  2  0  0  0  0  0  0  0  0  0
  -27.7083  -26.7821   19.4765 C   0  0  0  0  0  0  0  0  0  1  0  0
  -25.9488  -36.6260   22.7787 C   0  0  0  0  0  0  0  0  0  0  0  0
  -22.7439  -31.0771   24.4547 C   0  0  0  0  0  0  0  0  0  0  0  0
  -22.7361  -33.2865   23.2772 C   0  0  0  0  0  0  0  0  0  0  0  0
  -23.0850  -33.1918   25.7454 C   0  0  0  0  0  0  0  0  0  0  0  0
  -29.2227  -34.7187   23.1247 C   0  0  0  0  0  0  0  0  0  0  0  0
  -24.9334  -32.4217   24.2020 C   0  0  1  0  0  0  0  0  0  0  0  0
  -26.8786  -35.5563   23.3301 C   0  0  2  0  0  0  0  0  0  0  0  0
  -23.3939  -32.4745   24.4133 C   0  0  0  0  0  0  0  0  0  0  0  0
  -28.0191  -15.3854   20.9822 N   0  0  0  0  0  0  0  0  0  0  0  0
  -29.3171  -15.6985   20.8292 N   0  0  0  0  0  0  0  0  0  0  0  0
  -27.3940  -24.9501   18.6109 N   0  0  0  0  0  0  0  0  0  0  0  0
  -26.3586  -30.5001   24.8343 N   0  0  0  0  0  0  0  0  0  0  0  0
  -29.2278  -19.4573   21.4975 N   0  0  0  0  0  0  0  0  0  0  0  0
  -31.3881  -14.8445   20.0596 N   0  0  0  0  0  0  0  0  0  0  0  0
  -28.5214  -11.4292   19.3424 N   0  0  0  0  0  0  0  0  0  0  0  0
  -28.9201  -20.4343   19.3730 N   0  0  0  0  0  0  0  0  0  0  0  0
  -26.2130  -27.5276   26.9413 N   0  0  0  0  0  0  0  0  0  0  0  0
  -25.5795  -33.7297   24.1856 N   0  0  0  0  0  0  0  0  0  0  0  0
  -28.2030  -35.6943   22.6608 N   0  3  0  0  0  0  0  0  0  0  0  0
  -30.7079  -12.0953   19.1563 O   0  0  0  0  0  0  0  0  0  0  0  0
  -24.8850  -28.4568   25.2694 O   0  0  0  0  0  0  0  0  0  0  0  0
  -25.5469  -31.9733   26.4490 O   0  0  0  0  0  0  0  0  0  0  0  0
  -26.5063  -33.5291   22.0695 O   0  0  0  0  0  0  0  0  0  0  0  0
  -29.7728  -21.6749   21.1381 O   0  0  0  0  0  0  0  0  0  0  0  0
  -23.0691  -11.4105   20.4857 O   0  0  0  0  0  0  0  0  0  0  0  0
  -28.8213  -27.4454   20.0744 O   0  0  0  0  0  0  0  0  0  1  0  0
  -23.0434   -6.1794   22.2288 F   0  0  0  0  0  0  0  0  0  0  0  0
  -21.5258  -10.6434   22.6472 F   0  0  0  0  0  0  0  0  0  0  0  0
  -27.0219  -21.5173   14.7566 Cl  0  0  0  0  0  0  0  0  0  0  0  0
  -26.5338  -24.5211   15.7775 Cl  0  0  0  0  0  0  0  0  0  0  0  0
  1  2  1  0  0  0  0
  1  5  2  0  0  0  0
  2  6  2  0  0  0  0
  3  8  2  0  0  0  0
  3 17  1  0  0  0  0
  4  9  1  0  0  0  0
  4 17  2  0  0  0  0
  5 19  1  0  0  0  0
  6 21  1  0  0  0  0
  7 10  2  0  0  0  0
  7 20  1  0  0  0  0
  8 25  1  0  0  0  0
  9 25  2  0  0  0  0
 10 26  1  0  0  0  0
 11 12  2  0  0  0  0
 11 27  1  0  0  0  0
 12 28  1  0  0  0  0
 13 22  1  0  0  0  0
 13 26  2  0  0  0  0
 14 23  1  0  0  0  0
 14 24  2  0  0  0  0
 15 24  1  0  0  0  0
 15 30  2  0  0  0  0
 16 28  2  0  0  0  0
 16 29  1  0  0  0  0
 17 32  1  0  0  0  0
 18 32  1  0  0  0  0
 18 33  2  0  0  0  0
 18 34  1  0  0  0  0
 19 21  2  0  0  0  0
 19 39  1  0  0  0  0
 20 22  2  0  0  0  0
 20 40  1  0  0  0  0
 21 50  1  0  0  0  0
 22 41  1  0  0  0  0
 23 31  2  0  0  0  0
 23 64  1  0  0  0  0
 24 69  1  0  0  0  0
 25 78  1  0  0  0  0
 26 79  1  0  0  0  0
 27 29  2  0  0  0  0
 27 78  1  0  0  0  0
 28 80  1  0  0  0  0
 29 81  1  0  0  0  0
 30 31  1  0  0  0  0
 30 82  1  0  0  0  0
 31 83  1  0  0  0  0
 32 62  2  0  0  0  0
 33 63  1  0  0  0  0
 33 67  1  0  0  0  0
 34 68  1  0  0  0  0
 34 73  2  0  0  0  0
 35 51  1  0  0  0  0
 35 70  1  0  0  0  0
 35 74  2  0  0  0  0
 36 59  1  0  0  0  0
 36 65  1  0  0  0  0
 36 75  2  0  0  0  0
 37 60  1  0  0  0  0
 37 71  1  0  0  0  0
 37 76  2  0  0  0  0
 38 66  1  0  0  0  0
 38 69  1  0  0  0  0
 38 77  2  0  0  0  0
 39 42  1  0  0  0  0
 40 51  1  0  0  0  0
 41 65  1  0  0  0  0
 42 44  1  0  0  0  0
 43 45  1  0  0  0  0
 43 46  1  0  0  0  0
 44 50  1  0  0  0  0
 45 52  1  0  0  0  0
 46 66  1  0  0  0  0
 47 52  1  0  0  0  0
 47 66  1  0  0  0  0
 48 53  1  0  0  0  0
 48 64  1  0  0  0  0
 49 53  1  0  0  0  0
 49 64  1  0  0  0  0
 50 70  1  0  0  0  0
 51 65  1  0  0  0  0
 52 63  1  0  0  0  0
 53 79  1  0  0  0  0
 54 60  1  0  0  0  0
 55 61  1  0  0  0  0
 56 61  1  0  0  0  0
 57 61  1  0  0  0  0
 58 72  1  0  0  0  0
 59 61  1  0  0  0  0
 59 71  1  0  0  0  0
 60 72  1  0  0  0  0
 62 63  1  0  0  0  0
M  CHG  1  72   1
M  ISO  4  38 100  53 101  69 100  79 101
M  END
> <Batch ID>
0026

> <Smiles>
CNC(C)C(=O)NC(C(=O)N1Cc2cc([101O:1][101CH:1]3CN(c4cc([100NH:0][100C:0](=O)N5CCCC(n6nc(-c7ccc(Oc8ccc(F)cc8F)cc7)c(C(N)=O)c6N)C5)cc(Cl)c4Cl)C3)ccc2CC1C(=O)NC1CCCc2ccccc21)C(C)(C)C

> <Shape>
0.269

> <Color>
0.082

> <Negative vol penalty>
0.000

$$$$

  -OEChem-04042321253D

 85 94  0     1  0  0  0  0  0999 V2000
  -32.0322  -34.0818   26.6463 C   0  0  0  0  0  0  0  0  0  0  0  0
  -31.9183  -32.7002   26.7629 C   0  0  0  0  0  0  0  0  0  0  0  0
  -32.6779  -17.4506   23.4519 C   0  0  0  0  0  0  0  0  0  0  0  0
  -23.0737   -9.8709   19.9328 C   0  0  0  0  0  0  0  0  0  0  0  0
  -23.8379   -9.8641   22.2248 C   0  0  0  0  0  0  0  0  0  0  0  0
  -31.1990  -34.7775   25.7712 C   0  0  0  0  0  0  0  0  0  0  0  0
  -30.9703  -32.0135   26.0052 C   0  0  0  0  0  0  0  0  0  0  0  0
  -31.5248  -26.3976   23.6263 C   0  0  0  0  0  0  0  0  0  0  0  0
  -31.8999  -18.3212   24.2150 C   0  0  0  0  0  0  0  0  0  0  0  0
  -32.0679  -16.5796   22.5491 C   0  0  0  0  0  0  0  0  0  0  0  0
  -22.3302   -8.7163   20.1773 C   0  0  0  0  0  0  0  0  0  0  0  0
  -23.0943   -8.7095   22.4693 C   0  0  0  0  0  0  0  0  0  0  0  0
  -31.0763  -25.1489   24.0547 C   0  0  0  0  0  0  0  0  0  0  0  0
  -19.8672   -7.9083   23.0731 C   0  0  0  0  0  0  0  0  0  0  0  0
  -19.1125   -7.8614   24.2451 C   0  0  0  0  0  0  0  0  0  0  0  0
  -29.1400  -25.3629   22.6319 C   0  0  0  0  0  0  0  0  0  0  0  0
  -20.3551   -5.9195   24.9676 C   0  0  0  0  0  0  0  0  0  0  0  0
  -23.8276  -10.4447   20.9566 C   0  0  0  0  0  0  0  0  0  0  0  0
  -24.1694  -12.9705   20.8510 C   0  0  0  0  0  0  0  0  0  0  0  0
  -30.2469  -34.0978   24.9952 C   0  0  0  0  0  0  0  0  0  0  0  0
  -30.7775  -27.1443   22.7041 C   0  0  0  0  0  0  0  0  0  0  0  0
  -30.1227  -32.7009   25.1199 C   0  0  0  0  0  0  0  0  0  0  0  0
  -29.5825  -26.6196   22.1914 C   0  0  0  0  0  0  0  0  0  0  0  0
  -30.5121  -18.3209   24.0754 C   0  0  0  0  0  0  0  0  0  0  0  0
  -29.9021  -17.4499   23.1726 C   0  0  0  0  0  0  0  0  0  0  0  0
  -30.6801  -16.5792   22.4095 C   0  0  0  0  0  0  0  0  0  0  0  0
  -22.3405   -8.1356   21.4455 C   0  0  0  0  0  0  0  0  0  0  0  0
  -29.8823  -24.6327   23.5597 C   0  0  0  0  0  0  0  0  0  0  0  0
  -20.8659   -6.9607   22.8482 C   0  0  0  0  0  0  0  0  0  0  0  0
  -19.3564   -6.8671   25.1924 C   0  0  0  0  0  0  0  0  0  0  0  0
  -21.1099   -5.9664   23.7955 C   0  0  0  0  0  0  0  0  0  0  0  0
  -24.5963  -11.6371   20.7045 C   0  0  0  0  0  0  0  0  0  0  0  0
  -25.2609  -13.7221   20.4902 C   0  0  0  0  0  0  0  0  0  0  0  0
  -27.8798  -20.7451   23.9780 C   0  0  0  0  0  0  0  0  0  0  0  0
  -22.8997  -13.4839   21.2754 C   0  0  0  0  0  0  0  0  0  0  0  0
  -29.3277  -29.9725   22.7582 C   0  0  0  0  0  0  0  0  0  0  0  0
  -28.8376  -29.3451   19.6136 C   0  0  0  0  0  0  0  0  0  0  0  0
  -28.5582  -27.0183   17.1328 C   0  0  0  0  0  0  0  0  0  0  0  0
  -30.7275  -14.7663   20.6609 C   0  0  0  0  0  0  0  0  0  0  0  0
  -29.3364  -34.8982   24.0980 C   0  0  0  0  0  0  0  0  0  0  0  0
  -31.2884  -28.4778   22.2318 C   0  0  0  0  0  0  0  0  0  0  0  0
  -28.7534  -27.3726   21.1844 C   0  0  0  0  0  0  0  0  0  0  0  0
  -27.8333  -21.8982   23.0019 C   0  0  0  0  0  0  0  0  0  0  0  0
  -28.6124  -34.0521   23.0540 C   0  0  0  0  0  0  0  0  0  0  0  0
  -29.6084  -12.3668   18.2803 C   0  0  0  0  0  0  0  0  0  0  0  0
  -28.0226  -32.8007   23.6966 C   0  0  0  0  0  0  0  0  0  0  0  0
  -28.1696  -12.0727   18.7109 C   0  0  0  0  0  0  0  0  0  0  0  0
  -30.5258  -12.5883   19.4816 C   0  0  0  0  0  0  0  0  0  0  0  0
  -28.6215  -13.3046   20.8708 C   0  0  0  0  0  0  0  0  0  0  0  0
  -30.1139  -21.2029   23.3431 C   0  0  0  0  0  0  0  0  0  0  0  0
  -29.1234  -31.9175   24.2965 C   0  0  1  0  0  0  0  0  0  0  0  0
  -30.1876  -29.3778   21.6791 C   0  0  1  0  0  0  0  0  0  0  0  0
  -27.6465  -13.1385   19.6938 C   0  0  2  0  0  0  0  0  0  0  0  0
  -29.2706  -22.4114   22.9805 C   0  0  2  0  0  0  0  0  0  1  0  0
  -28.4127  -17.4532   23.0262 C   0  0  0  0  0  0  0  0  0  0  0  0
  -28.1184  -26.8063   14.6713 C   0  0  0  0  0  0  0  0  0  0  0  0
  -25.8700  -29.8596   20.1021 C   0  0  0  0  0  0  0  0  0  0  0  0
  -25.3867  -28.7317   17.9197 C   0  0  0  0  0  0  0  0  0  0  0  0
  -26.7571  -30.8155   17.9681 C   0  0  0  0  0  0  0  0  0  0  0  0
  -31.2013  -25.7774   16.6496 C   0  0  0  0  0  0  0  0  0  0  0  0
  -29.6986  -19.2682   24.9090 C   0  0  0  0  0  0  0  0  0  0  0  0
  -27.7573  -28.6543   18.8170 C   0  0  1  0  0  0  0  0  0  0  0  0
  -29.1813  -26.9396   15.7508 C   0  0  2  0  0  0  0  0  0  0  0  0
  -26.4572  -29.5017   18.7222 C   0  0  0  0  0  0  0  0  0  0  0  0
  -25.8603  -11.5437   20.2833 N   0  0  0  0  0  0  0  0  0  0  0  0
  -26.2371  -12.8280   20.1620 N   0  0  0  0  0  0  0  0  0  0  0  0
  -29.2163  -20.3925   24.1360 N   0  0  0  0  0  0  0  0  0  0  0  0
  -29.2919  -28.6749   20.7583 N   0  0  0  0  0  0  0  0  0  0  0  0
  -29.9686  -13.6139   20.3662 N   0  0  0  0  0  0  0  0  0  0  0  0
  -25.4712  -15.0540   20.4248 N   0  0  0  0  0  0  0  0  0  0  0  0
  -21.8883  -12.5728   21.6091 N   0  0  0  0  0  0  0  0  0  0  0  0
  -30.0817  -15.6865   21.4861 N   0  0  0  0  0  0  0  0  0  0  0  0
  -29.7981  -31.1733   23.2547 N   0  0  0  0  0  0  0  0  0  0  0  0
  -28.3505  -28.3235   17.5259 N   0  0  0  0  0  0  0  0  0  0  0  0
  -30.0934  -25.7645   15.6599 N   0  3  0  0  0  0  0  0  0  0  0  0
  -26.8956  -20.2196   24.4772 O   0  0  0  0  0  0  0  0  0  0  0  0
  -22.6636  -14.7142   21.3406 O   0  0  0  0  0  0  0  0  0  0  0  0
  -28.3118  -29.3862   23.1131 O   0  0  0  0  0  0  0  0  0  0  0  0
  -29.2678  -30.4359   19.2303 O   0  0  0  0  0  0  0  0  0  0  0  0
  -28.2799  -26.0215   17.7958 O   0  0  0  0  0  0  0  0  0  0  0  0
  -31.8557  -14.9377   20.1922 O   0  0  0  0  0  0  0  0  0  0  0  0
  -21.6149   -7.0091   21.6845 O   0  0  0  0  0  0  0  0  0  0  0  0
  -29.4420  -23.4145   23.9767 O   0  0  0  0  0  0  0  0  0  1  0  0
  -18.6326   -6.8231   26.3186 F   0  0  0  0  0  0  0  0  0  0  0  0
  -22.0687   -5.0541   23.5856 F   0  0  0  0  0  0  0  0  0  0  0  0
  1  2  1  0  0  0  0
  1  6  2  0  0  0  0
  2  7  2  0  0  0  0
  3  9  2  0  0  0  0
  3 10  1  0  0  0  0
  4 11  2  0  0  0  0
  4 18  1  0  0  0  0
  5 12  1  0  0  0  0
  5 18  2  0  0  0  0
  6 20  1  0  0  0  0
  7 22  1  0  0  0  0
  8 13  2  0  0  0  0
  8 21  1  0  0  0  0
  9 24  1  0  0  0  0
 10 26  2  0  0  0  0
 11 27  1  0  0  0  0
 12 27  2  0  0  0  0
 13 28  1  0  0  0  0
 14 15  2  0  0  0  0
 14 29  1  0  0  0  0
 15 30  1  0  0  0  0
 16 23  1  0  0  0  0
 16 28  2  0  0  0  0
 17 30  2  0  0  0  0
 17 31  1  0  0  0  0
 18 32  1  0  0  0  0
 19 32  1  0  0  0  0
 19 33  2  0  0  0  0
 19 35  1  0  0  0  0
 20 22  2  0  0  0  0
 20 40  1  0  0  0  0
 21 23  2  0  0  0  0
 21 41  1  0  0  0  0
 22 51  1  0  0  0  0
 23 42  1  0  0  0  0
 24 25  2  0  0  0  0
 24 61  1  0  0  0  0
 25 26  1  0  0  0  0
 25 55  1  0  0  0  0
 26 72  1  0  0  0  0
 27 82  1  0  0  0  0
 28 83  1  0  0  0  0
 29 31  2  0  0  0  0
 29 82  1  0  0  0  0
 30 84  1  0  0  0  0
 31 85  1  0  0  0  0
 32 65  2  0  0  0  0
 33 66  1  0  0  0  0
 33 70  1  0  0  0  0
 34 43  1  0  0  0  0
 34 67  1  0  0  0  0
 34 76  2  0  0  0  0
 35 71  1  0  0  0  0
 35 77  2  0  0  0  0
 36 52  1  0  0  0  0
 36 73  1  0  0  0  0
 36 78  2  0  0  0  0
 37 62  1  0  0  0  0
 37 68  1  0  0  0  0
 37 79  2  0  0  0  0
 38 63  1  0  0  0  0
 38 74  1  0  0  0  0
 38 80  2  0  0  0  0
 39 69  1  0  0  0  0
 39 72  1  0  0  0  0
 39 81  2  0  0  0  0
 40 44  1  0  0  0  0
 41 52  1  0  0  0  0
 42 68  1  0  0  0  0
 43 54  1  0  0  0  0
 44 46  1  0  0  0  0
 45 47  1  0  0  0  0
 45 48  1  0  0  0  0
 46 51  1  0  0  0  0
 47 53  1  0  0  0  0
 48 69  1  0  0  0  0
 49 53  1  0  0  0  0
 49 69  1  0  0  0  0
 50 54  1  0  0  0  0
 50 67  1  0  0  0  0
 51 73  1  0  0  0  0
 52 68  1  0  0  0  0
 53 66  1  0  0  0  0
 54 83  1  0  0  0  0
 56 63  1  0  0  0  0
 57 64  1  0  0  0  0
 58 64  1  0  0  0  0
 59 64  1  0  0  0  0
 60 75  1  0  0  0  0
 61 67  1  0  0  0  0
 62 64  1  0  0  0  0
 62 74  1  0  0  0  0
 63 75  1  0  0  0  0
 65 66  1  0  0  0  0
M  CHG  1  75   1
M  ISO  4  39 100  54 101  72 100  83 101
M  END
> <Batch ID>
0026

> <Smiles>
CNC(C)C(=O)NC(C(=O)N1Cc2cc([101O:1][101CH:1]3CC(=O)N(Cc4cccc([100NH:0][100C:0](=O)N5CCCC(n6nc(-c7ccc(Oc8ccc(F)cc8F)cc7)c(C(N)=O)c6N)C5)c4C)C3)ccc2CC1C(=O)NC1CCCc2ccccc21)C(C)(C)C

> <Shape>
0.224

> <Color>
0.192

> <Negative vol penalty>
0.000

$$$$

  -OEChem-04042321253D

 87 96  0     1  0  0  0  0  0999 V2000
  -24.6791  -28.2964   27.6357 C   0  0  0  0  0  0  0  0  0  0  0  0
  -25.5339  -27.7041   26.7116 C   0  0  0  0  0  0  0  0  0  0  0  0
  -23.8545   -9.6958   22.2578 C   0  0  0  0  0  0  0  0  0  0  0  0
  -23.3735   -9.8046   19.8926 C   0  0  0  0  0  0  0  0  0  0  0  0
  -23.3810  -28.6412   27.2618 C   0  0  0  0  0  0  0  0  0  0  0  0
  -25.0905  -27.4553   25.4131 C   0  0  0  0  0  0  0  0  0  0  0  0
  -28.4076  -27.7375   20.2728 C   0  0  0  0  0  0  0  0  0  0  0  0
  -28.9724  -17.2967   18.9239 C   0  0  0  0  0  0  0  0  0  0  0  0
  -28.8832  -18.4047   18.0813 C   0  0  0  0  0  0  0  0  0  0  0  0
  -23.1820   -8.4765   22.3385 C   0  0  0  0  0  0  0  0  0  0  0  0
  -22.7010   -8.5852   19.9734 C   0  0  0  0  0  0  0  0  0  0  0  0
  -29.0374  -26.7568   19.5079 C   0  0  0  0  0  0  0  0  0  0  0  0
  -19.9802   -7.4032   22.4841 C   0  0  0  0  0  0  0  0  0  0  0  0
  -19.0959   -7.2209   23.5473 C   0  0  0  0  0  0  0  0  0  0  0  0
  -27.1183  -26.6706   18.0489 C   0  0  0  0  0  0  0  0  0  0  0  0
  -29.1222  -19.8722   19.9857 C   0  0  0  0  0  0  0  0  0  0  0  0
  -20.3945   -5.3288   24.3028 C   0  0  0  0  0  0  0  0  0  0  0  0
  -23.9502  -10.3599   21.0348 C   0  0  0  0  0  0  0  0  0  0  0  0
  -24.3362  -12.8077   21.6407 C   0  0  0  0  0  0  0  0  0  0  0  0
  -22.9246  -28.4053   25.9554 C   0  0  0  0  0  0  0  0  0  0  0  0
  -27.1217  -28.1852   19.9373 C   0  0  0  0  0  0  0  0  0  0  0  0
  -23.7846  -27.7961   25.0218 C   0  0  0  0  0  0  0  0  0  0  0  0
  -26.4753  -27.6590   18.8097 C   0  0  0  0  0  0  0  0  0  0  0  0
  -29.1364  -17.4764   20.2975 C   0  0  0  0  0  0  0  0  0  0  0  0
  -28.9582  -19.6924   18.6122 C   0  0  0  0  0  0  0  0  0  0  0  0
  -22.6053   -7.9211   21.1963 C   0  0  0  0  0  0  0  0  0  0  0  0
  -28.3916  -26.2211   18.3974 C   0  0  0  0  0  0  0  0  0  0  0  0
  -21.0717   -6.5484   22.3302 C   0  0  0  0  0  0  0  0  0  0  0  0
  -19.3030   -6.1837   24.4566 C   0  0  0  0  0  0  0  0  0  0  0  0
  -29.2114  -18.7641   20.8283 C   0  0  0  0  0  0  0  0  0  0  0  0
  -21.2788   -5.5112   23.2396 C   0  0  0  0  0  0  0  0  0  0  0  0
  -24.6443  -11.6198   20.9509 C   0  0  0  0  0  0  0  0  0  0  0  0
  -25.2854  -13.7061   21.2182 C   0  0  0  0  0  0  0  0  0  0  0  0
  -28.9227  -22.1821   18.1333 C   0  0  0  0  0  0  0  0  0  0  0  0
  -23.2861  -13.0751   22.5795 C   0  0  0  0  0  0  0  0  0  0  0  0
  -24.2890  -28.1556   21.3791 C   0  0  0  0  0  0  0  0  0  0  0  0
  -23.4017  -29.9352   18.8163 C   0  0  0  0  0  0  0  0  0  0  0  0
  -23.9678  -30.8239   15.5703 C   0  0  0  0  0  0  0  0  0  0  0  0
  -30.8211  -14.5611   20.2480 C   0  0  0  0  0  0  0  0  0  0  0  0
  -21.4978  -28.7521   25.6112 C   0  0  0  0  0  0  0  0  0  0  0  0
  -26.4668  -29.2629   20.7570 C   0  0  0  0  0  0  0  0  0  0  0  0
  -25.1027  -28.1201   18.3953 C   0  0  0  0  0  0  0  0  0  0  0  0
  -21.2272  -28.7972   24.1095 C   0  0  0  0  0  0  0  0  0  0  0  0
  -28.6520  -13.4445   17.4642 C   0  0  0  0  0  0  0  0  0  0  0  0
  -21.8255  -27.5738   23.4223 C   0  0  0  0  0  0  0  0  0  0  0  0
  -27.4238  -12.9044   18.1949 C   0  0  0  0  0  0  0  0  0  0  0  0
  -28.2796  -22.0565   15.8453 C   0  0  0  0  0  0  0  0  0  0  0  0
  -29.9143  -13.3264   18.3128 C   0  0  0  0  0  0  0  0  0  0  0  0
  -28.7483  -20.6922   16.3102 C   0  0  0  0  0  0  0  0  0  0  0  0
  -28.5705  -13.4173   20.3864 C   0  0  0  0  0  0  0  0  0  0  0  0
  -23.3484  -27.5327   23.5968 C   0  0  1  0  0  0  0  0  0  0  0  0
  -28.9137  -23.0032   16.8540 C   0  0  1  0  0  0  0  0  0  0  0  0
  -24.9471  -29.2751   20.6233 C   0  0  1  0  0  0  0  0  0  0  0  0
  -27.2734  -13.5641   19.5767 C   0  0  2  0  0  0  0  0  0  0  0  0
  -23.0525  -32.2711   13.7358 C   0  0  0  0  0  0  0  0  0  0  0  0
  -21.1489  -27.9284   18.3605 C   0  0  0  0  0  0  0  0  0  0  0  0
  -20.8837  -28.8563   16.0503 C   0  0  0  0  0  0  0  0  0  0  0  0
  -20.4973  -30.3206   18.0325 C   0  0  0  0  0  0  0  0  0  0  0  0
  -31.6348  -16.3328   21.7575 C   0  0  0  0  0  0  0  0  0  0  0  0
  -26.4687  -32.3980   15.4061 C   0  0  0  0  0  0  0  0  0  0  0  0
  -29.2333  -16.2888   21.1948 C   0  0  0  0  0  0  0  0  0  0  0  0
  -28.1630  -24.3141   16.9949 C   0  0  0  0  0  0  0  0  0  1  0  0
  -22.8571  -29.6323   17.4413 C   0  0  1  0  0  0  0  0  0  0  0  0
  -24.0335  -32.1816   14.8944 C   0  0  2  0  0  0  0  0  0  0  0  0
  -21.3718  -29.1741   17.4798 C   0  0  0  0  0  0  0  0  0  0  0  0
  -25.7061  -11.7487   20.1508 N   0  0  0  0  0  0  0  0  0  0  0  0
  -26.0734  -13.0282   20.3352 N   0  0  0  0  0  0  0  0  0  0  0  0
  -28.8649  -20.8262   17.7504 N   0  0  0  0  0  0  0  0  0  0  0  0
  -24.5013  -29.1713   19.2324 N   0  0  0  0  0  0  0  0  0  0  0  0
  -29.7296  -13.9232   19.6360 N   0  0  0  0  0  0  0  0  0  0  0  0
  -25.5144  -15.0019   21.5196 N   0  0  0  0  0  0  0  0  0  0  0  0
  -22.0585  -13.5448   22.0929 N   0  0  0  0  0  0  0  0  0  0  0  0
  -23.9862  -28.4645   22.6914 N   0  0  0  0  0  0  0  0  0  0  0  0
  -23.0935  -30.8259   16.6365 N   0  0  0  0  0  0  0  0  0  0  0  0
  -30.5359  -15.6322   21.1083 N   0  0  0  0  0  0  0  0  0  0  0  0
  -25.4053  -32.4330   14.3692 N   0  3  0  0  0  0  0  0  0  0  0  0
  -29.0278  -22.6774   19.2460 O   0  0  0  0  0  0  0  0  0  0  0  0
  -23.4373  -12.9182   23.8148 O   0  0  0  0  0  0  0  0  0  0  0  0
  -24.0707  -27.0909   20.8130 O   0  0  0  0  0  0  0  0  0  0  0  0
  -22.8754  -30.8220   19.4933 O   0  0  0  0  0  0  0  0  0  0  0  0
  -24.6235  -29.8572   15.1881 O   0  0  0  0  0  0  0  0  0  0  0  0
  -31.9848  -14.2003   20.0299 O   0  0  0  0  0  0  0  0  0  0  0  0
  -21.9491   -6.7312   21.2747 O   0  0  0  0  0  0  0  0  0  0  0  0
  -29.0039  -25.2632   17.6495 O   0  0  0  0  0  0  0  0  0  1  0  0
  -18.4546   -6.0096   25.4784 F   0  0  0  0  0  0  0  0  0  0  0  0
  -29.3690  -18.9469   22.1467 F   0  0  0  0  0  0  0  0  0  0  0  0
  -22.3262   -4.6874   23.0977 F   0  0  0  0  0  0  0  0  0  0  0  0
  1  2  1  0  0  0  0
  1  5  2  0  0  0  0
  2  6  2  0  0  0  0
  3 10  2  0  0  0  0
  3 18  1  0  0  0  0
  4 11  1  0  0  0  0
  4 18  2  0  0  0  0
  5 20  1  0  0  0  0
  6 22  1  0  0  0  0
  7 12  2  0  0  0  0
  7 21  1  0  0  0  0
  8  9  2  0  0  0  0
  8 24  1  0  0  0  0
  9 25  1  0  0  0  0
 10 26  1  0  0  0  0
 11 26  2  0  0  0  0
 12 27  1  0  0  0  0
 13 14  2  0  0  0  0
 13 28  1  0  0  0  0
 14 29  1  0  0  0  0
 15 23  1  0  0  0  0
 15 27  2  0  0  0  0
 16 25  2  0  0  0  0
 16 30  1  0  0  0  0
 17 29  2  0  0  0  0
 17 31  1  0  0  0  0
 18 32  1  0  0  0  0
 19 32  1  0  0  0  0
 19 33  2  0  0  0  0
 19 35  1  0  0  0  0
 20 22  2  0  0  0  0
 20 40  1  0  0  0  0
 21 23  2  0  0  0  0
 21 41  1  0  0  0  0
 22 51  1  0  0  0  0
 23 42  1  0  0  0  0
 24 30  2  0  0  0  0
 24 61  1  0  0  0  0
 25 68  1  0  0  0  0
 26 83  1  0  0  0  0
 27 84  1  0  0  0  0
 28 31  2  0  0  0  0
 28 83  1  0  0  0  0
 29 85  1  0  0  0  0
 30 86  1  0  0  0  0
 31 87  1  0  0  0  0
 32 66  2  0  0  0  0
 33 67  1  0  0  0  0
 33 71  1  0  0  0  0
 34 52  1  0  0  0  0
 34 68  1  0  0  0  0
 34 77  2  0  0  0  0
 35 72  1  0  0  0  0
 35 78  2  0  0  0  0
 36 53  1  0  0  0  0
 36 73  1  0  0  0  0
 36 79  2  0  0  0  0
 37 63  1  0  0  0  0
 37 69  1  0  0  0  0
 37 80  2  0  0  0  0
 38 64  1  0  0  0  0
 38 74  1  0  0  0  0
 38 81  2  0  0  0  0
 39 70  1  0  0  0  0
 39 75  1  0  0  0  0
 39 82  2  0  0  0  0
 40 43  1  0  0  0  0
 41 53  1  0  0  0  0
 42 69  1  0  0  0  0
 43 45  1  0  0  0  0
 44 46  1  0  0  0  0
 44 48  1  0  0  0  0
 45 51  1  0  0  0  0
 46 54  1  0  0  0  0
 47 49  1  0  0  0  0
 47 52  1  0  0  0  0
 48 70  1  0  0  0  0
 49 68  1  0  0  0  0
 50 54  1  0  0  0  0
 50 70  1  0  0  0  0
 51 73  1  0  0  0  0
 52 62  1  0  0  0  0
 53 69  1  0  0  0  0
 54 67  1  0  0  0  0
 55 64  1  0  0  0  0
 56 65  1  0  0  0  0
 57 65  1  0  0  0  0
 58 65  1  0  0  0  0
 59 75  1  0  0  0  0
 60 76  1  0  0  0  0
 61 75  1  0  0  0  0
 62 84  1  0  0  0  0
 63 65  1  0  0  0  0
 63 74  1  0  0  0  0
 64 76  1  0  0  0  0
 66 67  1  0  0  0  0
M  CHG  1  76   1
M  ISO  4  39 100  62 101  75 100  84 101
M  END
> <Batch ID>
0026

> <Smiles>
CNC(C)C(=O)NC(C(=O)N1Cc2cc([101O:1][101CH2:1]C3CCN(c4ccc(C[100N:0](C)[100C:0](=O)N5CCCC(n6nc(-c7ccc(Oc8ccc(F)cc8F)cc7)c(C(N)=O)c6N)C5)c(F)c4)C3=O)ccc2CC1C(=O)NC1CCCc2ccccc21)C(C)(C)C

> <Shape>
0.292

> <Color>
0.152

> <Negative vol penalty>
0.000

$$$$

  -OEChem-04042321253D

 86 95  0     1  0  0  0  0  0999 V2000
  -22.0221  -28.8879   26.6525 C   0  0  0  0  0  0  0  0  0  0  0  0
  -23.2572  -28.6573   26.0573 C   0  0  0  0  0  0  0  0  0  0  0  0
  -23.5522  -10.5518   22.9607 C   0  0  0  0  0  0  0  0  0  0  0  0
  -24.0778   -9.3135   20.9539 C   0  0  0  0  0  0  0  0  0  0  0  0
  -20.8610  -28.8304   25.8845 C   0  0  0  0  0  0  0  0  0  0  0  0
  -23.3327  -28.3809   24.6917 C   0  0  0  0  0  0  0  0  0  0  0  0
  -27.8279  -28.1205   22.7095 C   0  0  0  0  0  0  0  0  0  0  0  0
  -22.9533   -9.4157   23.5049 C   0  0  0  0  0  0  0  0  0  0  0  0
  -23.4789   -8.1773   21.4981 C   0  0  0  0  0  0  0  0  0  0  0  0
  -28.6981  -27.0586   22.9518 C   0  0  0  0  0  0  0  0  0  0  0  0
  -20.0167   -7.7674   23.2152 C   0  0  0  0  0  0  0  0  0  0  0  0
  -18.7824   -7.9252   23.8455 C   0  0  0  0  0  0  0  0  0  0  0  0
  -28.1945  -26.1563   20.7720 C   0  0  0  0  0  0  0  0  0  0  0  0
  -29.4668  -19.8249   22.5871 C   0  0  0  0  0  0  0  0  0  0  0  0
  -31.3417  -17.9751   21.6673 C   0  0  0  0  0  0  0  0  0  0  0  0
  -19.7301   -7.0981   25.9083 C   0  0  0  0  0  0  0  0  0  0  0  0
  -24.1144  -10.5007   21.6851 C   0  0  0  0  0  0  0  0  0  0  0  0
  -24.1235  -12.9179   20.8700 C   0  0  0  0  0  0  0  0  0  0  0  0
  -20.9222  -28.5407   24.5114 C   0  0  0  0  0  0  0  0  0  0  0  0
  -27.1249  -28.2027   21.4989 C   0  0  0  0  0  0  0  0  0  0  0  0
  -22.1743  -28.3420   23.8948 C   0  0  0  0  0  0  0  0  0  0  0  0
  -27.3179  -27.2217   20.5158 C   0  0  0  0  0  0  0  0  0  0  0  0
  -29.0416  -18.6555   21.9569 C   0  0  0  0  0  0  0  0  0  0  0  0
  -30.8295  -20.0695   22.7574 C   0  0  0  0  0  0  0  0  0  0  0  0
  -29.9789  -17.7306   21.4970 C   0  0  0  0  0  0  0  0  0  0  0  0
  -22.9167   -8.2284   22.7736 C   0  0  0  0  0  0  0  0  0  0  0  0
  -28.8794  -26.0747   21.9842 C   0  0  0  0  0  0  0  0  0  0  0  0
  -21.1077   -7.2749   23.9314 C   0  0  0  0  0  0  0  0  0  0  0  0
  -18.6391   -7.5906   25.1921 C   0  0  0  0  0  0  0  0  0  0  0  0
  -31.7669  -19.1446   22.2975 C   0  0  0  0  0  0  0  0  0  0  0  0
  -20.9644   -6.9403   25.2780 C   0  0  0  0  0  0  0  0  0  0  0  0
  -24.7327  -11.6741   21.1222 C   0  0  0  0  0  0  0  0  0  0  0  0
  -25.1269  -13.6899   20.3373 C   0  0  0  0  0  0  0  0  0  0  0  0
  -22.7716  -13.3380   21.0969 C   0  0  0  0  0  0  0  0  0  0  0  0
  -24.0527  -28.1903   20.6837 C   0  0  0  0  0  0  0  0  0  0  0  0
  -25.2362  -28.8097   17.7277 C   0  0  0  0  0  0  0  0  0  0  0  0
  -28.0007  -27.6735   15.7068 C   0  0  0  0  0  0  0  0  0  0  0  0
  -30.3827  -15.5284   20.3422 C   0  0  0  0  0  0  0  0  0  0  0  0
  -19.6350  -28.4986   23.7261 C   0  0  0  0  0  0  0  0  0  0  0  0
  -26.2102  -29.3688   21.2422 C   0  0  0  0  0  0  0  0  0  0  0  0
  -26.6024  -27.2747   19.1915 C   0  0  0  0  0  0  0  0  0  0  0  0
  -19.7743  -27.7666   22.3952 C   0  0  0  0  0  0  0  0  0  0  0  0
  -32.9086  -22.3401   24.8508 C   0  0  0  0  0  0  0  0  0  0  0  0
  -29.7528  -12.4221   18.7200 C   0  0  0  0  0  0  0  0  0  0  0  0
  -20.9865  -28.2893   21.6389 C   0  0  0  0  0  0  0  0  0  0  0  0
  -32.0755  -23.6150   24.8168 C   0  0  0  0  0  0  0  0  0  0  0  0
  -28.3405  -12.0529   19.1796 C   0  0  0  0  0  0  0  0  0  0  0  0
  -32.0510  -21.1003   24.6158 C   0  0  0  0  0  0  0  0  0  0  0  0
  -30.5510  -13.1024   19.8308 C   0  0  0  0  0  0  0  0  0  0  0  0
  -30.4439  -22.4616   23.2672 C   0  0  0  0  0  0  0  0  0  0  0  0
  -28.4806  -13.8919   20.9075 C   0  0  0  0  0  0  0  0  0  0  0  0
  -22.2783  -28.0094   22.4174 C   0  0  1  0  0  0  0  0  0  0  0  0
  -25.1551  -29.0779   20.1794 C   0  0  1  0  0  0  0  0  0  0  0  0
  -31.3021  -23.7144   23.4996 C   0  0  1  0  0  0  0  0  0  0  0  0
  -27.6164  -13.2625   19.8026 C   0  0  2  0  0  0  0  0  0  0  0  0
  -27.5758  -18.4206   21.7855 C   0  0  0  0  0  0  0  0  0  0  0  0
  -29.2610  -28.8277   13.8692 C   0  0  0  0  0  0  0  0  0  0  0  0
  -23.2671  -27.3895   15.8795 C   0  0  0  0  0  0  0  0  0  0  0  0
  -25.1480  -27.0296   14.2667 C   0  0  0  0  0  0  0  0  0  0  0  0
  -24.4357  -29.3475   14.8523 C   0  0  0  0  0  0  0  0  0  0  0  0
  -30.5960  -27.2559   17.0666 C   0  0  0  0  0  0  0  0  0  0  0  0
  -30.4336  -24.9716   23.4796 C   0  0  0  0  0  0  0  0  0  1  0  0
  -25.6898  -27.9676   16.5597 C   0  0  1  0  0  0  0  0  0  0  0  0
  -29.2465  -28.4620   15.3453 C   0  0  2  0  0  0  0  0  0  0  0  0
  -24.6370  -27.9241   15.4163 C   0  0  0  0  0  0  0  0  0  0  0  0
  -26.0231  -11.6527   20.7779 N   0  0  0  0  0  0  0  0  0  0  0  0
  -26.2329  -12.8925   20.3038 N   0  0  0  0  0  0  0  0  0  0  0  0
  -31.2551  -21.2445   23.3900 N   0  0  2  0  0  0  0  0  0  0  0  0
  -25.7139  -28.4312   18.9904 N   0  0  0  0  0  0  0  0  0  0  0  0
  -29.8049  -14.2414   20.3702 N   0  0  0  0  0  0  0  0  0  0  0  0
  -25.1622  -14.9662   19.8988 N   0  0  0  0  0  0  0  0  0  0  0  0
  -21.8705  -12.4187   21.6514 N   0  0  0  0  0  0  0  0  0  0  0  0
  -29.5671  -16.5378   20.8526 N   0  0  0  0  0  0  0  0  0  0  0  0
  -23.3753  -28.6994   21.7752 N   0  0  0  0  0  0  0  0  0  0  0  0
  -26.9887  -28.4952   16.1562 N   0  0  0  0  0  0  0  0  0  0  0  0
  -30.4693  -27.6641   15.6438 N   0  3  0  0  0  0  0  0  0  0  0  0
  -22.3702  -14.4890   20.8012 O   0  0  0  0  0  0  0  0  0  0  0  0
  -23.8319  -27.1232   20.1230 O   0  0  0  0  0  0  0  0  0  0  0  0
  -24.4914  -29.7721   17.5262 O   0  0  0  0  0  0  0  0  0  0  0  0
  -27.9310  -26.4513   15.5977 O   0  0  0  0  0  0  0  0  0  0  0  0
  -31.5066  -15.7251   19.8731 O   0  0  0  0  0  0  0  0  0  0  0  0
  -22.3326   -7.1196   23.3044 O   0  0  0  0  0  0  0  0  0  0  0  0
  -29.7277  -25.0368   22.2184 O   0  0  0  0  0  0  0  0  0  1  0  0
  -17.4542   -7.7437   25.7976 F   0  0  0  0  0  0  0  0  0  0  0  0
  -33.0792  -19.3695   22.4545 F   0  0  0  0  0  0  0  0  0  0  0  0
  -22.0091   -6.4678   25.9715 F   0  0  0  0  0  0  0  0  0  0  0  0
  1  2  1  0  0  0  0
  1  5  2  0  0  0  0
  2  6  2  0  0  0  0
  3  8  2  0  0  0  0
  3 17  1  0  0  0  0
  4  9  1  0  0  0  0
  4 17  2  0  0  0  0
  5 19  1  0  0  0  0
  6 21  1  0  0  0  0
  7 10  2  0  0  0  0
  7 20  1  0  0  0  0
  8 26  1  0  0  0  0
  9 26  2  0  0  0  0
 10 27  1  0  0  0  0
 11 12  2  0  0  0  0
 11 28  1  0  0  0  0
 12 29  1  0  0  0  0
 13 22  1  0  0  0  0
 13 27  2  0  0  0  0
 14 23  2  0  0  0  0
 14 24  1  0  0  0  0
 15 25  2  0  0  0  0
 15 30  1  0  0  0  0
 16 29  2  0  0  0  0
 16 31  1  0  0  0  0
 17 32  1  0  0  0  0
 18 32  1  0  0  0  0
 18 33  2  0  0  0  0
 18 34  1  0  0  0  0
 19 21  2  0  0  0  0
 19 39  1  0  0  0  0
 20 22  2  0  0  0  0
 20 40  1  0  0  0  0
 21 52  1  0  0  0  0
 22 41  1  0  0  0  0
 23 25  1  0  0  0  0
 23 56  1  0  0  0  0
 24 30  2  0  0  0  0
 24 68  1  0  0  0  0
 25 73  1  0  0  0  0
 26 82  1  0  0  0  0
 27 83  1  0  0  0  0
 28 31  2  0  0  0  0
 28 82  1  0  0  0  0
 29 84  1  0  0  0  0
 30 85  1  0  0  0  0
 31 86  1  0  0  0  0
 32 66  2  0  0  0  0
 33 67  1  0  0  0  0
 33 71  1  0  0  0  0
 34 72  1  0  0  0  0
 34 77  2  0  0  0  0
 35 53  1  0  0  0  0
 35 74  1  0  0  0  0
 35 78  2  0  0  0  0
 36 63  1  0  0  0  0
 36 69  1  0  0  0  0
 36 79  2  0  0  0  0
 37 64  1  0  0  0  0
 37 75  1  0  0  0  0
 37 80  2  0  0  0  0
 38 70  1  0  0  0  0
 38 73  1  0  0  0  0
 38 81  2  0  0  0  0
 39 42  1  0  0  0  0
 40 53  1  0  0  0  0
 41 69  1  0  0  0  0
 42 45  1  0  0  0  0
 43 46  1  0  0  0  0
 43 48  1  0  0  0  0
 44 47  1  0  0  0  0
 44 49  1  0  0  0  0
 45 52  1  0  0  0  0
 46 54  1  0  0  0  0
 47 55  1  0  0  0  0
 48 68  1  0  0  0  0
 49 70  1  0  0  0  0
 50 54  1  0  0  0  0
 50 68  1  0  0  0  0
 51 55  1  0  0  0  0
 51 70  1  0  0  0  0
 52 74  1  0  0  0  0
 53 69  1  0  0  0  0
 54 62  1  0  0  0  0
 55 67  1  0  0  0  0
 57 64  1  0  0  0  0
 58 65  1  0  0  0  0
 59 65  1  0  0  0  0
 60 65  1  0  0  0  0
 61 76  1  0  0  0  0
 62 83  1  0  0  0  0
 63 65  1  0  0  0  0
 63 75  1  0  0  0  0
 64 76  1  0  0  0  0
 66 67  1  0  0  0  0
M  CHG  1  76   1
M  ISO  4  38 100  62 101  73 100  83 101
M  END
> <Batch ID>
0026

> <Smiles>
CNC(C)C(=O)NC(C(=O)N1Cc2cc([101O:1][101CH2:1]C3CCCN(c4cc(C)c([100NH:0][100C:0](=O)N5CCCC(n6nc(-c7ccc(Oc8ccc(F)cc8F)cc7)c(C(N)=O)c6N)C5)cc4F)C3)ccc2CC1C(=O)NC1CCCc2ccccc21)C(C)(C)C

> <Shape>
0.247

> <Color>
0.156

> <Negative vol penalty>
0.000

$$$$

  -OEChem-04042321253D

 85 94  0     1  0  0  0  0  0999 V2000
  -27.8727  -23.6221   18.4921 C   0  0  0  0  0  0  0  0  0  0  0  0
  -26.6535  -24.0769   18.9843 C   0  0  0  0  0  0  0  0  0  0  0  0
  -27.3590  -14.6145   19.9409 C   0  0  0  0  0  0  0  0  0  0  0  0
  -24.9600  -14.8254   19.7487 C   0  0  0  0  0  0  0  0  0  0  0  0
  -29.0638  -24.0682   19.0631 C   0  0  0  0  0  0  0  0  0  0  0  0
  -26.6248  -24.9773   20.0486 C   0  0  0  0  0  0  0  0  0  0  0  0
  -23.3428  -28.7613   19.3040 C   0  0  0  0  0  0  0  0  0  0  0  0
  -20.8467  -24.0119   23.8656 C   0  0  0  0  0  0  0  0  0  0  0  0
  -22.0788  -23.3866   23.6746 C   0  0  0  0  0  0  0  0  0  0  0  0
  -27.2211  -13.2436   20.1584 C   0  0  0  0  0  0  0  0  0  0  0  0
  -24.8220  -13.4545   19.9661 C   0  0  0  0  0  0  0  0  0  0  0  0
  -21.9926  -28.4833   19.5121 C   0  0  0  0  0  0  0  0  0  0  0  0
  -23.8133  -10.0708   20.8281 C   0  0  0  0  0  0  0  0  0  0  0  0
  -22.8244   -9.6518   21.7180 C   0  0  0  0  0  0  0  0  0  0  0  0
  -22.1215  -29.5164   21.6882 C   0  0  0  0  0  0  0  0  0  0  0  0
  -19.7773  -22.3167   22.5165 C   0  0  0  0  0  0  0  0  0  0  0  0
  -23.8826  -10.9116   23.4873 C   0  0  0  0  0  0  0  0  0  0  0  0
  -26.2284  -15.4054   19.7361 C   0  0  0  0  0  0  0  0  0  0  0  0
  -26.5266  -17.4751   18.2750 C   0  0  0  0  0  0  0  0  0  0  0  0
  -29.0499  -24.9820   20.1287 C   0  0  0  0  0  0  0  0  0  0  0  0
  -24.0965  -29.4104   20.2925 C   0  0  0  0  0  0  0  0  0  0  0  0
  -27.8168  -25.4350   20.6354 C   0  0  0  0  0  0  0  0  0  0  0  0
  -23.4805  -29.8038   21.4891 C   0  0  0  0  0  0  0  0  0  0  0  0
  -19.6959  -23.4769   23.2866 C   0  0  0  0  0  0  0  0  0  0  0  0
  -21.0095  -21.6915   22.3255 C   0  0  0  0  0  0  0  0  0  0  0  0
  -22.1602  -22.2264   22.9045 C   0  0  0  0  0  0  0  0  0  0  0  0
  -25.9526  -12.6636   20.1710 C   0  0  0  0  0  0  0  0  0  0  0  0
  -21.3824  -28.8582   20.7055 C   0  0  0  0  0  0  0  0  0  0  0  0
  -24.8370  -10.9102   21.2678 C   0  0  0  0  0  0  0  0  0  0  0  0
  -22.8590  -10.0722   23.0476 C   0  0  0  0  0  0  0  0  0  0  0  0
  -24.8716  -11.3305   22.5973 C   0  0  0  0  0  0  0  0  0  0  0  0
  -26.3702  -16.8217   19.5120 C   0  0  0  0  0  0  0  0  0  0  0  0
  -26.6168  -18.8068   18.5991 C   0  0  0  0  0  0  0  0  0  0  0  0
  -18.1968  -26.6946   23.5996 C   0  0  0  0  0  0  0  0  0  0  0  0
  -26.5849  -16.9274   16.9512 C   0  0  0  0  0  0  0  0  0  0  0  0
  -26.6400  -28.6444   22.0382 C   0  0  0  0  0  0  0  0  0  0  0  0
  -26.4109  -31.7282   23.0180 C   0  0  0  0  0  0  0  0  0  0  0  0
  -24.4542  -34.4882   23.4654 C   0  0  0  0  0  0  0  0  0  0  0  0
  -24.6493  -22.0222   23.2353 C   0  0  0  0  0  0  0  0  0  0  0  0
  -30.3619  -25.3993   20.7444 C   0  0  0  0  0  0  0  0  0  0  0  0
  -25.5454  -29.7269   20.0417 C   0  0  0  0  0  0  0  0  0  0  0  0
  -24.2405  -30.5211   22.5737 C   0  0  0  0  0  0  0  0  0  0  0  0
  -30.2540  -26.6421   21.6242 C   0  0  0  0  0  0  0  0  0  0  0  0
  -28.0218  -21.7130   22.1366 C   0  0  0  0  0  0  0  0  0  0  0  0
  -29.0560  -26.5300   22.5618 C   0  0  0  0  0  0  0  0  0  0  0  0
  -27.9940  -20.4866   21.2215 C   0  0  0  0  0  0  0  0  0  0  0  0
  -27.0867  -21.5488   23.3334 C   0  0  0  0  0  0  0  0  0  0  0  0
  -18.7045  -26.0045   21.6808 C   0  0  0  0  0  0  0  0  0  0  0  0
  -25.6751  -19.9655   22.0806 C   0  0  0  0  0  0  0  0  0  0  0  0
  -27.7451  -26.4310   21.7724 C   0  0  1  0  0  0  0  0  0  0  0  0
  -18.4655  -27.4243   22.2621 C   0  0  2  0  0  0  0  0  0  0  0  0
  -26.3428  -29.9335   21.3257 C   0  0  1  0  0  0  0  0  0  0  0  0
  -26.5524  -20.1109   20.8264 C   0  0  2  0  0  0  0  0  0  0  0  0
  -21.0675  -20.4515   21.4933 C   0  0  0  0  0  0  0  0  0  0  0  0
  -24.5395  -36.8458   24.3210 C   0  0  0  0  0  0  0  0  0  0  0  0
  -26.4028  -30.6853   25.8855 C   0  0  0  0  0  0  0  0  0  0  0  0
  -25.5452  -32.9193   26.6217 C   0  0  0  0  0  0  0  0  0  0  0  0
  -27.7798  -32.7420   25.5273 C   0  0  0  0  0  0  0  0  0  0  0  0
  -23.7028  -35.5963   20.8260 C   0  0  0  0  0  0  0  0  0  0  0  0
  -18.3701  -24.1514   23.4903 C   0  0  0  0  0  0  0  0  0  0  0  0
  -19.6500  -28.3668   22.2590 C   0  0  0  0  0  0  0  0  0  1  0  0
  -25.6907  -32.4444   24.1349 C   0  0  1  0  0  0  0  0  0  0  0  0
  -24.6706  -35.9461   23.1019 C   0  0  2  0  0  0  0  0  0  0  0  0
  -26.3405  -32.1825   25.5229 C   0  0  0  0  0  0  0  0  0  0  0  0
  -26.3614  -17.6684   20.5450 N   0  0  0  0  0  0  0  0  0  0  0  0
  -26.5134  -18.8676   19.9577 N   0  0  0  0  0  0  0  0  0  0  0  0
  -18.3726  -25.4957   23.0011 N   0  0  0  0  0  0  0  0  0  0  0  0
  -25.6562  -30.8024   22.2838 N   0  0  0  0  0  0  0  0  0  0  0  0
  -25.7384  -21.1976   22.8824 N   0  0  0  0  0  0  0  0  0  0  0  0
  -26.7739  -19.9199   17.8516 N   0  0  0  0  0  0  0  0  0  0  0  0
  -26.4759  -15.5386   16.7974 N   0  0  0  0  0  0  0  0  0  0  0  0
  -23.4211  -21.6062   22.7223 N   0  0  0  0  0  0  0  0  0  0  0  0
  -27.3517  -27.7340   21.2805 N   0  0  0  0  0  0  0  0  0  0  0  0
  -25.6429  -33.8517   23.7534 N   0  0  0  0  0  0  0  0  0  0  0  0
  -23.6697  -36.3810   22.0870 N   0  3  0  0  0  0  0  0  0  0  0  0
  -17.9412  -27.0193   24.7363 O   0  0  0  0  0  0  0  0  0  0  0  0
  -26.7459  -17.6467   15.9363 O   0  0  0  0  0  0  0  0  0  0  0  0
  -26.2536  -28.4880   23.1905 O   0  0  0  0  0  0  0  0  0  0  0  0
  -27.5974  -31.9861   22.8004 O   0  0  0  0  0  0  0  0  0  0  0  0
  -23.3414  -33.9672   23.4949 O   0  0  0  0  0  0  0  0  0  0  0  0
  -24.7994  -23.0387   23.9181 O   0  0  0  0  0  0  0  0  0  0  0  0
  -25.8177  -11.3259   20.3829 O   0  0  0  0  0  0  0  0  0  0  0  0
  -20.0648  -28.5875   20.9115 O   0  0  0  0  0  0  0  0  0  1  0  0
  -21.9083   -9.6709   23.9017 F   0  0  0  0  0  0  0  0  0  0  0  0
  -25.8519  -12.1379   23.0253 F   0  0  0  0  0  0  0  0  0  0  0  0
  1  2  1  0  0  0  0
  1  5  2  0  0  0  0
  2  6  2  0  0  0  0
  3 10  2  0  0  0  0
  3 18  1  0  0  0  0
  4 11  1  0  0  0  0
  4 18  2  0  0  0  0
  5 20  1  0  0  0  0
  6 22  1  0  0  0  0
  7 12  2  0  0  0  0
  7 21  1  0  0  0  0
  8  9  2  0  0  0  0
  8 24  1  0  0  0  0
  9 26  1  0  0  0  0
 10 27  1  0  0  0  0
 11 27  2  0  0  0  0
 12 28  1  0  0  0  0
 13 14  2  0  0  0  0
 13 29  1  0  0  0  0
 14 30  1  0  0  0  0
 15 23  1  0  0  0  0
 15 28  2  0  0  0  0
 16 24  2  0  0  0  0
 16 25  1  0  0  0  0
 17 30  2  0  0  0  0
 17 31  1  0  0  0  0
 18 32  1  0  0  0  0
 19 32  1  0  0  0  0
 19 33  2  0  0  0  0
 19 35  1  0  0  0  0
 20 22  2  0  0  0  0
 20 40  1  0  0  0  0
 21 23  2  0  0  0  0
 21 41  1  0  0  0  0
 22 50  1  0  0  0  0
 23 42  1  0  0  0  0
 24 60  1  0  0  0  0
 25 26  2  0  0  0  0
 25 54  1  0  0  0  0
 26 72  1  0  0  0  0
 27 82  1  0  0  0  0
 28 83  1  0  0  0  0
 29 31  2  0  0  0  0
 29 82  1  0  0  0  0
 30 84  1  0  0  0  0
 31 85  1  0  0  0  0
 32 65  2  0  0  0  0
 33 66  1  0  0  0  0
 33 70  1  0  0  0  0
 34 51  1  0  0  0  0
 34 67  1  0  0  0  0
 34 76  2  0  0  0  0
 35 71  1  0  0  0  0
 35 77  2  0  0  0  0
 36 52  1  0  0  0  0
 36 73  1  0  0  0  0
 36 78  2  0  0  0  0
 37 62  1  0  0  0  0
 37 68  1  0  0  0  0
 37 79  2  0  0  0  0
 38 63  1  0  0  0  0
 38 74  1  0  0  0  0
 38 80  2  0  0  0  0
 39 69  1  0  0  0  0
 39 72  1  0  0  0  0
 39 81  2  0  0  0  0
 40 43  1  0  0  0  0
 41 52  1  0  0  0  0
 42 68  1  0  0  0  0
 43 45  1  0  0  0  0
 44 46  1  0  0  0  0
 44 47  1  0  0  0  0
 45 50  1  0  0  0  0
 46 53  1  0  0  0  0
 47 69  1  0  0  0  0
 48 51  1  0  0  0  0
 48 67  1  0  0  0  0
 49 53  1  0  0  0  0
 49 69  1  0  0  0  0
 50 73  1  0  0  0  0
 51 61  1  0  0  0  0
 52 68  1  0  0  0  0
 53 66  1  0  0  0  0
 55 63  1  0  0  0  0
 56 64  1  0  0  0  0
 57 64  1  0  0  0  0
 58 64  1  0  0  0  0
 59 75  1  0  0  0  0
 60 67  1  0  0  0  0
 61 83  1  0  0  0  0
 62 64  1  0  0  0  0
 62 74  1  0  0  0  0
 63 75  1  0  0  0  0
 65 66  1  0  0  0  0
M  CHG  1  75   1
M  ISO  4  39 100  61 101  72 100  83 101
M  END
> <Batch ID>
0026

> <Smiles>
CNC(C)C(=O)NC(C(=O)N1Cc2cc([101O:1][101CH2:1]C3CN(Cc4ccc([100NH:0][100C:0](=O)N5CCCC(n6nc(-c7ccc(Oc8ccc(F)cc8F)cc7)c(C(N)=O)c6N)C5)c(C)c4)C3=O)ccc2CC1C(=O)NC1CCCc2ccccc21)C(C)(C)C

> <Shape>
0.268

> <Color>
0.061

> <Negative vol penalty>
0.000

$$$$

  -OEChem-04042321253D

 86 95  0     1  0  0  0  0  0999 V2000
  -27.7207  -33.8829   25.8087 C   0  0  0  0  0  0  0  0  0  0  0  0
  -27.9316  -32.6503   25.1990 C   0  0  0  0  0  0  0  0  0  0  0  0
  -27.2225  -19.6456   19.4974 C   0  0  0  0  0  0  0  0  0  0  0  0
  -27.8844  -18.8582   18.5553 C   0  0  0  0  0  0  0  0  0  0  0  0
  -26.8315  -14.0581   22.7144 C   0  0  0  0  0  0  0  0  0  0  0  0
  -27.0078  -14.8789   20.4490 C   0  0  0  0  0  0  0  0  0  0  0  0
  -26.4291  -34.2745   26.1583 C   0  0  0  0  0  0  0  0  0  0  0  0
  -26.8509  -31.8082   24.9394 C   0  0  0  0  0  0  0  0  0  0  0  0
  -27.0318  -29.7898   20.2985 C   0  0  0  0  0  0  0  0  0  0  0  0
  -27.9168  -20.6392   20.1875 C   0  0  0  0  0  0  0  0  0  0  0  0
  -29.2408  -19.0644   18.3035 C   0  0  0  0  0  0  0  0  0  0  0  0
  -26.3819  -12.8283   22.2338 C   0  0  0  0  0  0  0  0  0  0  0  0
  -26.5583  -13.6490   19.9683 C   0  0  0  0  0  0  0  0  0  0  0  0
  -27.9035  -28.7195   20.1032 C   0  0  0  0  0  0  0  0  0  0  0  0
  -23.4966  -11.5179   21.0581 C   0  0  0  0  0  0  0  0  0  0  0  0
  -22.3990  -10.9368   21.6930 C   0  0  0  0  0  0  0  0  0  0  0  0
  -26.0526  -27.1845   20.2966 C   0  0  0  0  0  0  0  0  0  0  0  0
  -23.7441   -9.0101   22.2551 C   0  0  0  0  0  0  0  0  0  0  0  0
  -27.1444  -15.0835   21.8220 C   0  0  0  0  0  0  0  0  0  0  0  0
  -26.9237  -17.2316   23.1801 C   0  0  0  0  0  0  0  0  0  0  0  0
  -25.3309  -33.4409   25.8941 C   0  0  0  0  0  0  0  0  0  0  0  0
  -25.6633  -29.5646   20.5055 C   0  0  0  0  0  0  0  0  0  0  0  0
  -25.5435  -32.1885   25.2870 C   0  0  0  0  0  0  0  0  0  0  0  0
  -25.1652  -28.2539   20.4917 C   0  0  0  0  0  0  0  0  0  0  0  0
  -29.2732  -20.8454   19.9356 C   0  0  0  0  0  0  0  0  0  0  0  0
  -29.9352  -20.0580   18.9936 C   0  0  0  0  0  0  0  0  0  0  0  0
  -26.2454  -12.6237   20.8608 C   0  0  0  0  0  0  0  0  0  0  0  0
  -27.4145  -27.4164   20.1051 C   0  0  0  0  0  0  0  0  0  0  0  0
  -24.7180  -10.8451   21.0216 C   0  0  0  0  0  0  0  0  0  0  0  0
  -22.5227   -9.6829   22.2916 C   0  0  0  0  0  0  0  0  0  0  0  0
  -24.8417   -9.5912   21.6201 C   0  0  0  0  0  0  0  0  0  0  0  0
  -27.6083  -16.3543   22.3178 C   0  0  0  0  0  0  0  0  0  0  0  0
  -27.7838  -18.2892   23.3476 C   0  0  0  0  0  0  0  0  0  0  0  0
  -28.9413  -24.0801   20.1419 C   0  0  0  0  0  0  0  0  0  0  0  0
  -25.6263  -17.1020   23.7764 C   0  0  0  0  0  0  0  0  0  0  0  0
  -23.6281  -30.1445   22.8774 C   0  0  0  0  0  0  0  0  0  0  0  0
  -21.4372  -29.0716   20.7394 C   0  0  0  0  0  0  0  0  0  0  0  0
  -20.7717  -27.1970   17.9663 C   0  0  0  0  0  0  0  0  0  0  0  0
  -32.3420  -20.1237   19.6964 C   0  0  0  0  0  0  0  0  0  0  0  0
  -23.9587  -33.8870   26.3330 C   0  0  0  0  0  0  0  0  0  0  0  0
  -24.7319  -30.7315   20.6880 C   0  0  0  0  0  0  0  0  0  0  0  0
  -23.7014  -27.9597   20.6893 C   0  0  0  0  0  0  0  0  0  0  0  0
  -22.8249  -33.0976   25.6837 C   0  0  0  0  0  0  0  0  0  0  0  0
  -27.5451  -24.0498   22.7181 C   0  0  0  0  0  0  0  0  0  0  0  0
  -32.4313  -19.4065   23.3255 C   0  0  0  0  0  0  0  0  0  0  0  0
  -23.1155  -31.6012   25.7404 C   0  0  0  0  0  0  0  0  0  0  0  0
  -27.8350  -25.3696   22.0345 C   0  0  0  0  0  0  0  0  0  0  0  0
  -31.1872  -18.5445   23.5317 C   0  0  0  0  0  0  0  0  0  0  0  0
  -28.6717  -23.0714   22.4380 C   0  0  0  0  0  0  0  0  0  0  0  0
  -32.9987  -19.2544   21.9174 C   0  0  0  0  0  0  0  0  0  0  0  0
  -30.7540  -18.6685   21.0460 C   0  0  0  0  0  0  0  0  0  0  0  0
  -24.3940  -31.2578   24.9666 C   0  0  1  0  0  0  0  0  0  0  0  0
  -27.9235  -25.1421   20.5383 C   0  0  1  0  0  0  0  0  0  1  0  0
  -23.4370  -30.3564   21.4022 C   0  0  1  0  0  0  0  0  0  0  0  0
  -30.1398  -18.8349   22.4440 C   0  0  1  0  0  0  0  0  0  0  0  0
  -18.8811  -26.4824   16.4788 C   0  0  0  0  0  0  0  0  0  0  0  0
  -20.5131  -27.0916   22.8692 C   0  0  0  0  0  0  0  0  0  0  0  0
  -19.3322  -25.8135   21.0691 C   0  0  0  0  0  0  0  0  0  0  0  0
  -18.6649  -28.1643   21.5700 C   0  0  0  0  0  0  0  0  0  0  0  0
  -31.7056  -20.8663   17.4435 C   0  0  0  0  0  0  0  0  0  0  0  0
  -21.9968  -28.4804   15.5976 C   0  0  0  0  0  0  0  0  0  0  0  0
  -29.9950  -21.9219   20.6934 C   0  0  0  0  0  0  0  0  0  0  0  0
  -20.8565  -27.7228   20.3893 C   0  0  1  0  0  0  0  0  0  0  0  0
  -19.9822  -27.5063   16.7071 C   0  0  2  0  0  0  0  0  0  0  0  0
  -19.8696  -27.2031   21.4726 C   0  0  0  0  0  0  0  0  0  0  0  0
  -28.8106  -16.8147   21.9622 N   0  0  0  0  0  0  0  0  0  0  0  0
  -28.8882  -17.9928   22.6041 N   0  0  0  0  0  0  0  0  0  0  0  0
  -29.1131  -23.0275   21.0429 N   0  0  0  0  0  0  0  0  0  0  0  0
  -22.8317  -29.1338   20.8700 N   0  0  0  0  0  0  0  0  0  0  0  0
  -31.9762  -19.4746   20.8934 N   0  0  0  0  0  0  0  0  0  0  0  0
  -27.6957  -19.4345   24.0567 N   0  0  0  0  0  0  0  0  0  0  0  0
  -24.8752  -15.9517   23.4989 N   0  0  0  0  0  0  0  0  0  0  0  0
  -24.1349  -31.2444   23.5428 N   0  0  0  0  0  0  0  0  0  0  0  0
  -20.2668  -27.8642   19.0624 N   0  0  0  0  0  0  0  0  0  0  0  0
  -31.3375  -20.2551   18.7187 N   0  0  0  0  0  0  0  0  0  0  0  0
  -20.8810  -27.5029   15.5183 N   0  3  0  0  0  0  0  0  0  0  0  0
  -29.5087  -24.1503   19.0486 O   0  0  0  0  0  0  0  0  0  0  0  0
  -25.1404  -17.9879   24.5199 O   0  0  0  0  0  0  0  0  0  0  0  0
  -23.3360  -29.0635   23.3753 O   0  0  0  0  0  0  0  0  0  0  0  0
  -20.6818  -30.0360   20.8844 O   0  0  0  0  0  0  0  0  0  0  0  0
  -21.7371  -26.4366   17.9773 O   0  0  0  0  0  0  0  0  0  0  0  0
  -33.4987  -20.5105   19.4888 O   0  0  0  0  0  0  0  0  0  0  0  0
  -25.8070  -11.4237   20.3915 O   0  0  0  0  0  0  0  0  0  0  0  0
  -28.2633  -26.3698   19.9154 O   0  0  0  0  0  0  0  0  0  1  0  0
  -21.4690   -9.1257   22.9026 F   0  0  0  0  0  0  0  0  0  0  0  0
  -26.0128   -8.9406   21.5893 F   0  0  0  0  0  0  0  0  0  0  0  0
  1  2  1  0  0  0  0
  1  7  2  0  0  0  0
  2  8  2  0  0  0  0
  3  4  1  0  0  0  0
  3 10  2  0  0  0  0
  4 11  2  0  0  0  0
  5 12  2  0  0  0  0
  5 19  1  0  0  0  0
  6 13  1  0  0  0  0
  6 19  2  0  0  0  0
  7 21  1  0  0  0  0
  8 23  1  0  0  0  0
  9 14  2  0  0  0  0
  9 22  1  0  0  0  0
 10 25  1  0  0  0  0
 11 26  1  0  0  0  0
 12 27  1  0  0  0  0
 13 27  2  0  0  0  0
 14 28  1  0  0  0  0
 15 16  2  0  0  0  0
 15 29  1  0  0  0  0
 16 30  1  0  0  0  0
 17 24  1  0  0  0  0
 17 28  2  0  0  0  0
 18 30  2  0  0  0  0
 18 31  1  0  0  0  0
 19 32  1  0  0  0  0
 20 32  1  0  0  0  0
 20 33  2  0  0  0  0
 20 35  1  0  0  0  0
 21 23  2  0  0  0  0
 21 40  1  0  0  0  0
 22 24  2  0  0  0  0
 22 41  1  0  0  0  0
 23 52  1  0  0  0  0
 24 42  1  0  0  0  0
 25 26  2  0  0  0  0
 25 62  1  0  0  0  0
 26 75  1  0  0  0  0
 27 83  1  0  0  0  0
 28 84  1  0  0  0  0
 29 31  2  0  0  0  0
 29 83  1  0  0  0  0
 30 85  1  0  0  0  0
 31 86  1  0  0  0  0
 32 66  2  0  0  0  0
 33 67  1  0  0  0  0
 33 71  1  0  0  0  0
 34 53  1  0  0  0  0
 34 68  1  0  0  0  0
 34 77  2  0  0  0  0
 35 72  1  0  0  0  0
 35 78  2  0  0  0  0
 36 54  1  0  0  0  0
 36 73  1  0  0  0  0
 36 79  2  0  0  0  0
 37 63  1  0  0  0  0
 37 69  1  0  0  0  0
 37 80  2  0  0  0  0
 38 64  1  0  0  0  0
 38 74  1  0  0  0  0
 38 81  2  0  0  0  0
 39 70  1  0  0  0  0
 39 75  1  0  0  0  0
 39 82  2  0  0  0  0
 40 43  1  0  0  0  0
 41 54  1  0  0  0  0
 42 69  1  0  0  0  0
 43 46  1  0  0  0  0
 44 47  1  0  0  0  0
 44 49  1  0  0  0  0
 45 48  1  0  0  0  0
 45 50  1  0  0  0  0
 46 52  1  0  0  0  0
 47 53  1  0  0  0  0
 48 55  1  0  0  0  0
 49 68  1  0  0  0  0
 50 70  1  0  0  0  0
 51 55  1  0  0  0  0
 51 70  1  0  0  0  0
 52 73  1  0  0  0  0
 53 84  1  0  0  0  0
 54 69  1  0  0  0  0
 55 67  1  0  0  0  0
 56 64  1  0  0  0  0
 57 65  1  0  0  0  0
 58 65  1  0  0  0  0
 59 65  1  0  0  0  0
 60 75  1  0  0  0  0
 61 76  1  0  0  0  0
 62 68  1  0  0  0  0
 63 65  1  0  0  0  0
 63 74  1  0  0  0  0
 64 76  1  0  0  0  0
 66 67  1  0  0  0  0
M  CHG  1  76   1
M  ISO  4  39 100  53 101  75 100  84 101
M  END
> <Batch ID>
0026

> <Smiles>
CNC(C)C(=O)NC(C(=O)N1Cc2cc([101O:1][101CH:1]3CCCN(Cc4ccccc4[100N:0](C)[100C:0](=O)N4CCCC(n5nc(-c6ccc(Oc7ccc(F)cc7F)cc6)c(C(N)=O)c5N)C4)C3=O)ccc2CC1C(=O)NC1CCCc2ccccc21)C(C)(C)C

> <Shape>
0.279

> <Color>
0.085

> <Negative vol penalty>
0.000

$$$$

  -OEChem-04042321253D

 84 93  0     1  0  0  0  0  0999 V2000
  -18.8291  -20.4381   36.7740 C   0  0  0  0  0  0  0  0  0  0  0  0
  -19.9052  -20.9595   36.0630 C   0  0  0  0  0  0  0  0  0  0  0  0
  -23.0752   -9.8687   19.9403 C   0  0  0  0  0  0  0  0  0  0  0  0
  -23.8349   -9.8746   22.2338 C   0  0  0  0  0  0  0  0  0  0  0  0
  -18.3707  -19.1507   36.4978 C   0  0  0  0  0  0  0  0  0  0  0  0
  -20.5244  -20.1932   35.0761 C   0  0  0  0  0  0  0  0  0  0  0  0
  -23.8620  -20.8499   28.7718 C   0  0  0  0  0  0  0  0  0  0  0  0
  -32.0645  -16.6061   22.5522 C   0  0  0  0  0  0  0  0  0  0  0  0
  -22.3309   -8.7157   20.1898 C   0  0  0  0  0  0  0  0  0  0  0  0
  -23.0905   -8.7216   22.4833 C   0  0  0  0  0  0  0  0  0  0  0  0
  -25.0465  -20.4796   28.1364 C   0  0  0  0  0  0  0  0  0  0  0  0
  -19.8621   -7.9247   23.0852 C   0  0  0  0  0  0  0  0  0  0  0  0
  -19.1050   -7.8846   24.2560 C   0  0  0  0  0  0  0  0  0  0  0  0
  -32.6524  -17.4904   23.4566 C   0  0  0  0  0  0  0  0  0  0  0  0
  -24.1184  -18.2980   27.6908 C   0  0  0  0  0  0  0  0  0  0  0  0
  -29.8807  -17.4557   23.1408 C   0  0  0  0  0  0  0  0  0  0  0  0
  -20.3457   -5.9464   24.9919 C   0  0  0  0  0  0  0  0  0  0  0  0
  -23.8273  -10.4481   20.9623 C   0  0  0  0  0  0  0  0  0  0  0  0
  -24.1700  -12.9732   20.8433 C   0  0  0  0  0  0  0  0  0  0  0  0
  -18.9783  -18.3718   35.5004 C   0  0  0  0  0  0  0  0  0  0  0  0
  -22.7990  -19.9418   28.8812 C   0  0  0  0  0  0  0  0  0  0  0  0
  -20.0745  -18.8936   34.7873 C   0  0  0  0  0  0  0  0  0  0  0  0
  -22.9205  -18.6601   28.3257 C   0  0  0  0  0  0  0  0  0  0  0  0
  -30.4686  -18.3400   24.0453 C   0  0  0  0  0  0  0  0  0  0  0  0
  -30.6787  -16.5887   22.3942 C   0  0  0  0  0  0  0  0  0  0  0  0
  -22.3385   -8.1422   21.4613 C   0  0  0  0  0  0  0  0  0  0  0  0
  -25.1759  -19.2025   27.5984 C   0  0  0  0  0  0  0  0  0  0  0  0
  -20.8609   -6.9756   22.8677 C   0  0  0  0  0  0  0  0  0  0  0  0
  -19.3468   -6.8955   25.2094 C   0  0  0  0  0  0  0  0  0  0  0  0
  -21.1027   -5.9865   23.8210 C   0  0  0  0  0  0  0  0  0  0  0  0
  -31.8544  -18.3573   24.2032 C   0  0  0  0  0  0  0  0  0  0  0  0
  -24.5968  -11.6388   20.7051 C   0  0  0  0  0  0  0  0  0  0  0  0
  -25.2624  -13.7224   20.4804 C   0  0  0  0  0  0  0  0  0  0  0  0
  -22.8996  -13.4893   21.2623 C   0  0  0  0  0  0  0  0  0  0  0  0
  -21.2567  -18.5748   31.3011 C   0  0  0  0  0  0  0  0  0  0  0  0
  -19.3449  -17.4471   28.9356 C   0  0  0  0  0  0  0  0  0  0  0  0
  -18.9851  -16.6356   25.6403 C   0  0  0  0  0  0  0  0  0  0  0  0
  -30.7290  -14.7660   20.6559 C   0  0  0  0  0  0  0  0  0  0  0  0
  -18.4778  -16.9679   35.2701 C   0  0  0  0  0  0  0  0  0  0  0  0
  -21.5181  -20.3656   29.5460 C   0  0  0  0  0  0  0  0  0  0  0  0
  -21.8013  -17.6548   28.3988 C   0  0  0  0  0  0  0  0  0  0  0  0
  -18.9499  -16.3616   33.9511 C   0  0  0  0  0  0  0  0  0  0  0  0
  -29.6139  -12.3535   18.2867 C   0  0  0  0  0  0  0  0  0  0  0  0
  -20.4436  -16.6027   33.7571 C   0  0  0  0  0  0  0  0  0  0  0  0
  -28.1741  -12.0622   18.7160 C   0  0  0  0  0  0  0  0  0  0  0  0
  -28.1663  -17.4986   27.7648 C   0  0  0  0  0  0  0  0  0  0  0  0
  -30.5290  -12.5815   19.4885 C   0  0  0  0  0  0  0  0  0  0  0  0
  -28.6222  -13.3061   20.8698 C   0  0  0  0  0  0  0  0  0  0  0  0
  -28.8663  -17.4402   26.4221 C   0  0  0  0  0  0  0  0  0  0  0  0
  -28.5548  -19.7760   27.0903 C   0  0  0  0  0  0  0  0  0  0  0  0
  -20.7565  -18.1025   33.6922 C   0  0  1  0  0  0  0  0  0  0  0  0
  -20.6899  -19.1887   30.0523 C   0  0  1  0  0  0  0  0  0  0  0  0
  -27.6494  -13.1337   19.6919 C   0  0  2  0  0  0  0  0  0  0  0  0
  -27.5263  -18.8761   27.7573 C   0  0  1  0  0  0  0  0  0  1  0  0
  -17.3195  -15.7019   24.0120 C   0  0  0  0  0  0  0  0  0  0  0  0
  -19.8265  -14.6484   30.0515 C   0  0  0  0  0  0  0  0  0  0  0  0
  -18.9610  -13.7154   27.8954 C   0  0  0  0  0  0  0  0  0  0  0  0
  -17.4708  -15.0974   29.3419 C   0  0  0  0  0  0  0  0  0  0  0  0
  -19.0170  -19.1070   24.0124 C   0  0  0  0  0  0  0  0  0  0  0  0
  -29.5759  -19.2563   24.8292 C   0  0  0  0  0  0  0  0  0  0  0  0
  -19.3399  -16.2175   28.0598 C   0  0  1  0  0  0  0  0  0  0  0  0
  -17.8957  -16.9638   24.6353 C   0  0  2  0  0  0  0  0  0  0  0  0
  -18.9215  -14.9377   28.8373 C   0  0  0  0  0  0  0  0  0  0  0  0
  -25.8616  -11.5427   20.2869 N   0  0  0  0  0  0  0  0  0  0  0  0
  -26.2390  -12.8262   20.1591 N   0  0  0  0  0  0  0  0  0  0  0  0
  -20.5712  -18.1145   29.0643 N   0  0  0  0  0  0  0  0  0  0  0  0
  -29.9703  -13.6122   20.3662 N   0  0  0  0  0  0  0  0  0  0  0  0
  -25.4733  -15.0538   20.4078 N   0  0  0  0  0  0  0  0  0  0  0  0
  -21.8874  -12.5803   21.5991 N   0  0  0  0  0  0  0  0  0  0  0  0
  -30.0818  -15.6910   21.4746 N   0  0  0  0  0  0  0  0  0  0  0  0
  -20.4105  -18.6352   32.3919 N   0  0  0  0  0  0  0  0  0  0  0  0
  -18.4841  -16.5312   26.9207 N   0  0  0  0  0  0  0  0  0  0  0  0
  -29.4147  -18.8382   26.2554 N   0  3  2  0  0  0  0  0  0  0  0  0
  -18.4390  -17.8211   23.5440 N   0  3  0  0  0  0  0  0  0  0  0  0
  -22.6638  -14.7200   21.3200 O   0  0  0  0  0  0  0  0  0  0  0  0
  -22.3782  -18.0813   31.2764 O   0  0  0  0  0  0  0  0  0  0  0  0
  -18.2977  -17.8063   29.4796 O   0  0  0  0  0  0  0  0  0  0  0  0
  -20.1621  -16.4832   25.3210 O   0  0  0  0  0  0  0  0  0  0  0  0
  -31.8582  -14.9345   20.1885 O   0  0  0  0  0  0  0  0  0  0  0  0
  -21.6122   -7.0172   21.7051 O   0  0  0  0  0  0  0  0  0  0  0  0
  -26.3312  -18.8383   26.9783 O   0  0  0  0  0  0  0  0  0  1  0  0
  -18.6207   -6.8581   26.3344 F   0  0  0  0  0  0  0  0  0  0  0  0
  -22.0617   -5.0728   23.6182 F   0  0  0  0  0  0  0  0  0  0  0  0
  -32.6178  -19.4377   25.3118 Cl  0  0  0  0  0  0  0  0  0  0  0  0
  1  2  1  0  0  0  0
  1  5  2  0  0  0  0
  2  6  2  0  0  0  0
  3  9  2  0  0  0  0
  3 18  1  0  0  0  0
  4 10  1  0  0  0  0
  4 18  2  0  0  0  0
  5 20  1  0  0  0  0
  6 22  1  0  0  0  0
  7 11  2  0  0  0  0
  7 21  1  0  0  0  0
  8 14  2  0  0  0  0
  8 25  1  0  0  0  0
  9 26  1  0  0  0  0
 10 26  2  0  0  0  0
 11 27  1  0  0  0  0
 12 13  2  0  0  0  0
 12 28  1  0  0  0  0
 13 29  1  0  0  0  0
 14 31  1  0  0  0  0
 15 23  1  0  0  0  0
 15 27  2  0  0  0  0
 16 24  1  0  0  0  0
 16 25  2  0  0  0  0
 17 29  2  0  0  0  0
 17 30  1  0  0  0  0
 18 32  1  0  0  0  0
 19 32  1  0  0  0  0
 19 33  2  0  0  0  0
 19 34  1  0  0  0  0
 20 22  2  0  0  0  0
 20 39  1  0  0  0  0
 21 23  2  0  0  0  0
 21 40  1  0  0  0  0
 22 51  1  0  0  0  0
 23 41  1  0  0  0  0
 24 31  2  0  0  0  0
 24 60  1  0  0  0  0
 25 70  1  0  0  0  0
 26 80  1  0  0  0  0
 27 81  1  0  0  0  0
 28 30  2  0  0  0  0
 28 80  1  0  0  0  0
 29 82  1  0  0  0  0
 30 83  1  0  0  0  0
 31 84  1  0  0  0  0
 32 64  2  0  0  0  0
 33 65  1  0  0  0  0
 33 68  1  0  0  0  0
 34 69  1  0  0  0  0
 34 75  2  0  0  0  0
 35 52  1  0  0  0  0
 35 71  1  0  0  0  0
 35 76  2  0  0  0  0
 36 61  1  0  0  0  0
 36 66  1  0  0  0  0
 36 77  2  0  0  0  0
 37 62  1  0  0  0  0
 37 72  1  0  0  0  0
 37 78  2  0  0  0  0
 38 67  1  0  0  0  0
 38 70  1  0  0  0  0
 38 79  2  0  0  0  0
 39 42  1  0  0  0  0
 40 52  1  0  0  0  0
 41 66  1  0  0  0  0
 42 44  1  0  0  0  0
 43 45  1  0  0  0  0
 43 47  1  0  0  0  0
 44 51  1  0  0  0  0
 45 53  1  0  0  0  0
 46 49  1  0  0  0  0
 46 54  1  0  0  0  0
 47 67  1  0  0  0  0
 48 53  1  0  0  0  0
 48 67  1  0  0  0  0
 49 73  1  0  0  0  0
 50 54  1  0  0  0  0
 50 73  1  0  0  0  0
 51 71  1  0  0  0  0
 52 66  1  0  0  0  0
 53 65  1  0  0  0  0
 54 81  1  0  0  0  0
 55 62  1  0  0  0  0
 56 63  1  0  0  0  0
 57 63  1  0  0  0  0
 58 63  1  0  0  0  0
 59 74  1  0  0  0  0
 60 73  1  0  0  0  0
 61 63  1  0  0  0  0
 61 72  1  0  0  0  0
 62 74  1  0  0  0  0
 64 65  1  0  0  0  0
M  CHG  2  73   1  74   1
M  ISO  4  38 100  54 101  70 100  81 101
M  END
> <Batch ID>
0026

> <Smiles>
CNC(C)C(=O)NC(C(=O)N1Cc2cc([101O:1][101CH:1]3CCN(Cc4cc([100NH:0][100C:0](=O)N5CCCC(n6nc(-c7ccc(Oc8ccc(F)cc8F)cc7)c(C(N)=O)c6N)C5)ccc4Cl)C3)ccc2CC1C(=O)NC1CCCc2ccccc21)C(C)(C)C

> <Shape>
0.165

> <Color>
0.188

> <Negative vol penalty>
0.000

$$$$

  -OEChem-04042321253D

 88 97  0     1  0  0  0  0  0999 V2000
  -39.3637  -28.9870   21.9018 C   0  0  0  0  0  0  0  0  0  0  0  0
  -38.3397  -28.2954   22.5408 C   0  0  0  0  0  0  0  0  0  0  0  0
  -23.0075   -9.8888   19.9659 C   0  0  0  0  0  0  0  0  0  0  0  0
  -23.7359   -9.9186   22.2693 C   0  0  0  0  0  0  0  0  0  0  0  0
  -39.2007  -29.4101   20.5833 C   0  0  0  0  0  0  0  0  0  0  0  0
  -37.1514  -28.0274   21.8621 C   0  0  0  0  0  0  0  0  0  0  0  0
  -35.5582  -23.2684   22.5391 C   0  0  0  0  0  0  0  0  0  0  0  0
  -22.2460   -8.7485   20.2214 C   0  0  0  0  0  0  0  0  0  0  0  0
  -22.9744   -8.7783   22.5248 C   0  0  0  0  0  0  0  0  0  0  0  0
  -34.9263  -22.9742   23.7466 C   0  0  0  0  0  0  0  0  0  0  0  0
  -23.2317   -5.4455   22.0176 C   0  0  0  0  0  0  0  0  0  0  0  0
  -23.8246   -4.4229   22.7581 C   0  0  0  0  0  0  0  0  0  0  0  0
  -32.7802  -23.1459   22.6585 C   0  0  0  0  0  0  0  0  0  0  0  0
  -30.4801  -18.3302   24.0557 C   0  0  0  0  0  0  0  0  0  0  0  0
  -32.0424  -16.5414   22.5921 C   0  0  0  0  0  0  0  0  0  0  0  0
  -22.1022   -4.6411   24.4382 C   0  0  0  0  0  0  0  0  0  0  0  0
  -23.7525  -10.4739   20.9898 C   0  0  0  0  0  0  0  0  0  0  0  0
  -24.1271  -12.9928   20.8397 C   0  0  0  0  0  0  0  0  0  0  0  0
  -38.0136  -29.1387   19.8849 C   0  0  0  0  0  0  0  0  0  0  0  0
  -34.8041  -23.5147   21.3827 C   0  0  0  0  0  0  0  0  0  0  0  0
  -36.9718  -28.4484   20.5334 C   0  0  0  0  0  0  0  0  0  0  0  0
  -33.4050  -23.4405   21.4370 C   0  0  0  0  0  0  0  0  0  0  0  0
  -29.8760  -17.4474   23.1606 C   0  0  0  0  0  0  0  0  0  0  0  0
  -31.8654  -18.3187   24.2190 C   0  0  0  0  0  0  0  0  0  0  0  0
  -30.6571  -16.5529   22.4288 C   0  0  0  0  0  0  0  0  0  0  0  0
  -22.2294   -8.1932   21.5009 C   0  0  0  0  0  0  0  0  0  0  0  0
  -33.5371  -22.9157   23.8071 C   0  0  0  0  0  0  0  0  0  0  0  0
  -22.0741   -6.0660   22.4874 C   0  0  0  0  0  0  0  0  0  0  0  0
  -23.2598   -4.0207   23.9684 C   0  0  0  0  0  0  0  0  0  0  0  0
  -21.5094   -5.6638   23.6977 C   0  0  0  0  0  0  0  0  0  0  0  0
  -32.6465  -17.4242   23.4873 C   0  0  0  0  0  0  0  0  0  0  0  0
  -24.5397  -11.6516   20.7264 C   0  0  0  0  0  0  0  0  0  0  0  0
  -25.2334  -13.7237   20.4813 C   0  0  0  0  0  0  0  0  0  0  0  0
  -22.8575  -13.5299   21.2337 C   0  0  0  0  0  0  0  0  0  0  0  0
  -34.4389  -25.9954   19.4291 C   0  0  0  0  0  0  0  0  0  0  0  0
  -32.6782  -23.8833   17.7082 C   0  0  0  0  0  0  0  0  0  0  0  0
  -30.8078  -21.0291   17.6637 C   0  0  0  0  0  0  0  0  0  0  0  0
  -30.7092  -14.7050   20.7175 C   0  0  0  0  0  0  0  0  0  0  0  0
  -37.8652  -29.6574   18.4765 C   0  0  0  0  0  0  0  0  0  0  0  0
  -35.5017  -23.8044   20.0820 C   0  0  0  0  0  0  0  0  0  0  0  0
  -32.5505  -23.6768   20.2195 C   0  0  0  0  0  0  0  0  0  0  0  0
  -36.7204  -29.0060   17.7049 C   0  0  0  0  0  0  0  0  0  0  0  0
  -29.5976  -12.2720   18.3675 C   0  0  0  0  0  0  0  0  0  0  0  0
  -27.3534  -20.2026   20.7331 C   0  0  0  0  0  0  0  0  0  0  0  0
  -26.0850  -19.5996   21.3023 C   0  0  0  0  0  0  0  0  0  0  0  0
  -35.4583  -28.9599   18.5603 C   0  0  0  0  0  0  0  0  0  0  0  0
  -28.1487  -12.0041   18.7810 C   0  0  0  0  0  0  0  0  0  0  0  0
  -30.4989  -12.5064   19.5785 C   0  0  0  0  0  0  0  0  0  0  0  0
  -28.5822  -13.2734   20.9230 C   0  0  0  0  0  0  0  0  0  0  0  0
  -28.4325  -19.5557   21.5745 C   0  0  0  0  0  0  0  0  0  0  0  0
  -26.4403  -18.1409   21.5306 C   0  0  0  0  0  0  0  0  0  0  0  0
  -35.6777  -28.1170   19.8224 C   0  0  1  0  0  0  0  0  0  0  0  0
  -34.6184  -24.5445   19.0822 C   0  0  1  0  0  0  0  0  0  0  0  0
  -27.6236  -13.0955   19.7343 C   0  0  2  0  0  0  0  0  0  0  0  0
  -29.4679  -19.5759   16.1177 C   0  0  0  0  0  0  0  0  0  0  0  0
  -30.4094  -25.9228   17.7615 C   0  0  0  0  0  0  0  0  0  0  0  0
  -28.8441  -24.0957   17.0687 C   0  0  0  0  0  0  0  0  0  0  0  0
  -30.7199  -24.7648   15.5666 C   0  0  0  0  0  0  0  0  0  0  0  0
  -32.5652  -18.6970   18.1451 C   0  0  0  0  0  0  0  0  0  0  0  0
  -28.3902  -17.4825   23.0051 C   0  0  0  0  0  0  0  0  0  0  0  0
  -32.6078  -21.0226   26.7399 C   0  0  0  0  0  0  0  0  0  0  0  0
  -31.6799  -20.1530   25.9002 C   0  0  0  0  0  0  0  0  0  0  0  0
  -33.6215  -21.7929   25.9018 C   0  0  0  0  0  0  0  0  0  1  0  0
  -31.2252  -23.4745   17.6813 C   0  0  1  0  0  0  0  0  0  0  0  0
  -30.8323  -19.8230   16.7422 C   0  0  2  0  0  0  0  0  0  0  0  0
  -30.3154  -24.5619   17.0431 C   0  0  0  0  0  0  0  0  0  0  0  0
  -25.8089  -11.5345   20.3271 N   0  0  0  0  0  0  0  0  0  0  0  0
  -26.2034  -12.8115   20.1863 N   0  0  0  0  0  0  0  0  0  0  0  0
  -33.2791  -23.9628   18.9725 N   0  0  0  0  0  0  0  0  0  0  0  0
  -29.9407  -13.5562   20.4337 N   0  0  0  0  0  0  0  0  0  0  0  0
  -25.4612  -15.0514   20.3928 N   0  0  0  0  0  0  0  0  0  0  0  0
  -21.8299  -12.6379   21.5694 N   0  0  0  0  0  0  0  0  0  0  0  0
  -30.0621  -15.6492   21.5139 N   0  0  0  0  0  0  0  0  0  0  0  0
  -32.4370  -19.2071   25.1164 N   0  0  0  0  0  0  0  0  0  0  0  0
  -35.6214  -26.7063   19.5043 N   0  0  0  0  0  0  0  0  0  0  0  0
  -31.1771  -22.1828   17.0049 N   0  0  0  0  0  0  0  0  0  0  0  0
  -27.9443  -18.1327   21.7350 N   0  3  0  0  0  0  0  0  0  0  0  0
  -31.2314  -18.6020   17.4977 N   0  3  0  0  0  0  0  0  0  0  0  0
  -22.6357  -14.7639   21.2708 O   0  0  0  0  0  0  0  0  0  0  0  0
  -33.3109  -26.4374   19.6134 O   0  0  0  0  0  0  0  0  0  0  0  0
  -33.2606  -24.1164   16.6461 O   0  0  0  0  0  0  0  0  0  0  0  0
  -30.4890  -20.9559   18.8484 O   0  0  0  0  0  0  0  0  0  0  0  0
  -31.8466  -14.8534   20.2633 O   0  0  0  0  0  0  0  0  0  0  0  0
  -21.4863   -7.0805   21.7506 O   0  0  0  0  0  0  0  0  0  0  0  0
  -32.9178  -22.6294   24.9845 O   0  0  0  0  0  0  0  0  0  1  0  0
  -23.8283   -3.0376   24.6787 F   0  0  0  0  0  0  0  0  0  0  0  0
  -20.3967   -6.2553   24.1536 F   0  0  0  0  0  0  0  0  0  0  0  0
  -34.3649  -17.3767   23.6598 Cl  0  0  0  0  0  0  0  0  0  0  0  0
  1  2  1  0  0  0  0
  1  5  2  0  0  0  0
  2  6  2  0  0  0  0
  3  8  2  0  0  0  0
  3 17  1  0  0  0  0
  4  9  1  0  0  0  0
  4 17  2  0  0  0  0
  5 19  1  0  0  0  0
  6 21  1  0  0  0  0
  7 10  2  0  0  0  0
  7 20  1  0  0  0  0
  8 26  1  0  0  0  0
  9 26  2  0  0  0  0
 10 27  1  0  0  0  0
 11 12  2  0  0  0  0
 11 28  1  0  0  0  0
 12 29  1  0  0  0  0
 13 22  1  0  0  0  0
 13 27  2  0  0  0  0
 14 23  2  0  0  0  0
 14 24  1  0  0  0  0
 15 25  2  0  0  0  0
 15 31  1  0  0  0  0
 16 29  2  0  0  0  0
 16 30  1  0  0  0  0
 17 32  1  0  0  0  0
 18 32  1  0  0  0  0
 18 33  2  0  0  0  0
 18 34  1  0  0  0  0
 19 21  2  0  0  0  0
 19 39  1  0  0  0  0
 20 22  2  0  0  0  0
 20 40  1  0  0  0  0
 21 52  1  0  0  0  0
 22 41  1  0  0  0  0
 23 25  1  0  0  0  0
 23 60  1  0  0  0  0
 24 31  2  0  0  0  0
 24 74  1  0  0  0  0
 25 73  1  0  0  0  0
 26 84  1  0  0  0  0
 27 85  1  0  0  0  0
 28 30  2  0  0  0  0
 28 84  1  0  0  0  0
 29 86  1  0  0  0  0
 30 87  1  0  0  0  0
 31 88  1  0  0  0  0
 32 67  2  0  0  0  0
 33 68  1  0  0  0  0
 33 71  1  0  0  0  0
 34 72  1  0  0  0  0
 34 79  2  0  0  0  0
 35 53  1  0  0  0  0
 35 75  1  0  0  0  0
 35 80  2  0  0  0  0
 36 64  1  0  0  0  0
 36 69  1  0  0  0  0
 36 81  2  0  0  0  0
 37 65  1  0  0  0  0
 37 76  1  0  0  0  0
 37 82  2  0  0  0  0
 38 70  1  0  0  0  0
 38 73  1  0  0  0  0
 38 83  2  0  0  0  0
 39 42  1  0  0  0  0
 40 53  1  0  0  0  0
 41 69  1  0  0  0  0
 42 46  1  0  0  0  0
 43 47  1  0  0  0  0
 43 48  1  0  0  0  0
 44 45  1  0  0  0  0
 44 50  1  0  0  0  0
 45 51  1  0  0  0  0
 46 52  1  0  0  0  0
 47 54  1  0  0  0  0
 48 70  1  0  0  0  0
 49 54  1  0  0  0  0
 49 70  1  0  0  0  0
 50 77  1  0  0  0  0
 51 77  1  0  0  0  0
 52 75  1  0  0  0  0
 53 69  1  0  0  0  0
 54 68  1  0  0  0  0
 55 65  1  0  0  0  0
 56 66  1  0  0  0  0
 57 66  1  0  0  0  0
 58 66  1  0  0  0  0
 59 78  1  0  0  0  0
 60 77  1  0  0  0  0
 61 62  1  0  0  0  0
 61 63  1  0  0  0  0
 62 74  1  0  0  0  0
 63 85  1  0  0  0  0
 64 66  1  0  0  0  0
 64 76  1  0  0  0  0
 65 78  1  0  0  0  0
 67 68  1  0  0  0  0
M  CHG  2  77   1  78   1
M  ISO  4  38 100  63 101  73 100  85 101
M  END
> <Batch ID>
0026

> <Smiles>
CNC(C)C(=O)NC(C(=O)N1Cc2cc([101O:1][101CH2:1]CCNc3cc(CN4CCCC4)c([100NH:0][100C:0](=O)N4CCCC(n5nc(-c6ccc(Oc7ccc(F)cc7F)cc6)c(C(N)=O)c5N)C4)cc3Cl)ccc2CC1C(=O)NC1CCCc2ccccc21)C(C)(C)C

> <Shape>
0.214

> <Color>
0.191

> <Negative vol penalty>
0.000

$$$$

  -OEChem-04042321253D

 83 92  0     1  0  0  0  0  0999 V2000
  -28.2780  -34.1155   25.7447 C   0  0  0  0  0  0  0  0  0  0  0  0
  -28.9854  -33.4069   24.7789 C   0  0  0  0  0  0  0  0  0  0  0  0
  -22.8194  -11.1099   19.2115 C   0  0  0  0  0  0  0  0  0  0  0  0
  -23.1874   -9.9130   21.2777 C   0  0  0  0  0  0  0  0  0  0  0  0
  -28.4007  -18.0973   16.4554 C   0  0  0  0  0  0  0  0  0  0  0  0
  -27.1425  -33.5542   26.3273 C   0  0  0  0  0  0  0  0  0  0  0  0
  -28.5583  -32.1359   24.3959 C   0  0  0  0  0  0  0  0  0  0  0  0
  -28.3331  -27.8046   18.6946 C   0  0  0  0  0  0  0  0  0  0  0  0
  -28.3832  -19.4942   16.4890 C   0  0  0  0  0  0  0  0  0  0  0  0
  -21.7878  -10.2296   18.8853 C   0  0  0  0  0  0  0  0  0  0  0  0
  -22.1558   -9.0327   20.9514 C   0  0  0  0  0  0  0  0  0  0  0  0
  -28.6802  -26.5099   18.3112 C   0  0  0  0  0  0  0  0  0  0  0  0
  -18.7772   -9.0207   21.0251 C   0  0  0  0  0  0  0  0  0  0  0  0
  -17.8586   -8.7021   22.0253 C   0  0  0  0  0  0  0  0  0  0  0  0
  -29.8758  -19.5191   18.4119 C   0  0  0  0  0  0  0  0  0  0  0  0
  -26.6592  -25.6732   19.3284 C   0  0  0  0  0  0  0  0  0  0  0  0
  -18.4600   -6.3699   21.8346 C   0  0  0  0  0  0  0  0  0  0  0  0
  -23.5193  -10.9515   20.4077 C   0  0  0  0  0  0  0  0  0  0  0  0
  -29.1567  -17.4330   17.4047 C   0  0  0  0  0  0  0  0  0  0  0  0
  -24.4791  -13.0665   21.4629 C   0  0  0  0  0  0  0  0  0  0  0  0
  -26.6956  -32.2797   25.9442 C   0  0  0  0  0  0  0  0  0  0  0  0
  -27.1498  -28.0424   19.4085 C   0  0  0  0  0  0  0  0  0  0  0  0
  -27.4165  -31.5565   24.9748 C   0  0  0  0  0  0  0  0  0  0  0  0
  -29.8833  -18.1372   18.3695 C   0  0  0  0  0  0  0  0  0  0  0  0
  -26.2981  -26.9722   19.7175 C   0  0  0  0  0  0  0  0  0  0  0  0
  -29.1149  -20.1995   17.4593 C   0  0  0  0  0  0  0  0  0  0  0  0
  -21.4560   -9.1910   19.7552 C   0  0  0  0  0  0  0  0  0  0  0  0
  -27.8447  -25.4436   18.6306 C   0  0  0  0  0  0  0  0  0  0  0  0
  -19.5371   -8.0139   20.4296 C   0  0  0  0  0  0  0  0  0  0  0  0
  -17.7001   -7.3767   22.4300 C   0  0  0  0  0  0  0  0  0  0  0  0
  -19.3786   -6.6885   20.8344 C   0  0  0  0  0  0  0  0  0  0  0  0
  -24.5854  -11.8602   20.7450 C   0  0  0  0  0  0  0  0  0  0  0  0
  -25.7638  -13.5495   21.5149 C   0  0  0  0  0  0  0  0  0  0  0  0
  -29.3745  -16.0112   17.6204 C   0  0  0  0  0  0  0  0  0  0  0  0
  -23.3225  -13.6942   22.0320 C   0  0  0  0  0  0  0  0  0  0  0  0
  -26.4606  -29.2142   22.2817 C   0  0  0  0  0  0  0  0  0  0  0  0
  -23.4059  -28.9764   21.2164 C   0  0  0  0  0  0  0  0  0  0  0  0
  -21.1852  -27.4897   19.0940 C   0  0  0  0  0  0  0  0  0  0  0  0
  -30.6352  -14.6236   19.3027 C   0  0  0  0  0  0  0  0  0  0  0  0
  -25.4899  -31.6949   26.6363 C   0  0  0  0  0  0  0  0  0  0  0  0
  -26.7764  -29.4482   19.7915 C   0  0  0  0  0  0  0  0  0  0  0  0
  -30.6065  -17.1704   19.2532 C   0  0  0  0  0  0  0  0  0  0  0  0
  -25.0065  -27.1769   20.4648 C   0  0  0  0  0  0  0  0  0  0  0  0
  -24.8886  -30.4978   25.9043 C   0  0  0  0  0  0  0  0  0  0  0  0
  -30.1648  -11.3702   20.3259 C   0  0  0  0  0  0  0  0  0  0  0  0
  -25.9844  -29.5231   25.4849 C   0  0  0  0  0  0  0  0  0  0  0  0
  -28.6612  -11.2927   20.5920 C   0  0  0  0  0  0  0  0  0  0  0  0
  -30.4575  -12.1755   19.0645 C   0  0  0  0  0  0  0  0  0  0  0  0
  -28.3803  -13.4875   19.3415 C   0  0  0  0  0  0  0  0  0  0  0  0
  -26.9704  -30.1855   24.5150 C   0  0  1  0  0  0  0  0  0  0  0  0
  -25.8021  -29.5093   20.9638 C   0  0  1  0  0  0  0  0  0  0  0  0
  -28.0301  -12.6968   20.6181 C   0  0  1  0  0  0  0  0  0  0  0  0
  -18.7514  -27.4759   18.4827 C   0  0  0  0  0  0  0  0  0  0  0  0
  -22.7848  -27.3705   23.7354 C   0  0  0  0  0  0  0  0  0  0  0  0
  -20.6724  -26.5964   22.6370 C   0  0  0  0  0  0  0  0  0  0  0  0
  -21.0226  -29.0241   23.0915 C   0  0  0  0  0  0  0  0  0  0  0  0
  -21.7582  -28.3438   16.3189 C   0  0  0  0  0  0  0  0  0  0  0  0
  -29.7965  -22.3975   18.4236 C   0  0  0  0  0  0  0  0  0  0  0  0
  -29.5723  -23.8776   18.1628 C   0  0  0  0  0  0  0  0  0  1  0  0
  -22.3428  -27.9050   21.2485 C   0  0  1  0  0  0  0  0  0  0  0  0
  -20.1186  -28.0706   18.1833 C   0  0  2  0  0  0  0  0  0  0  0  0
  -21.7309  -27.7196   22.6657 C   0  0  0  0  0  0  0  0  0  0  0  0
  -25.8387  -11.5934   20.3678 N   0  0  0  0  0  0  0  0  0  0  0  0
  -26.5316  -12.6388   20.8505 N   0  0  0  0  0  0  0  0  0  0  0  0
  -30.1442  -15.8486   18.7193 N   0  0  0  0  0  0  0  0  0  0  0  0
  -24.6884  -28.5690   20.8228 N   0  0  0  0  0  0  0  0  0  0  0  0
  -29.8340  -13.4955   19.1292 N   0  0  0  0  0  0  0  0  0  0  0  0
  -26.3003  -14.6601   22.0636 N   0  0  0  0  0  0  0  0  0  0  0  0
  -22.0798  -13.0625   21.8866 N   0  0  0  0  0  0  0  0  0  0  0  0
  -29.0797  -21.6112   17.4693 N   0  0  0  0  0  0  0  0  0  0  0  0
  -26.4013  -30.2571   23.1863 N   0  0  0  0  0  0  0  0  0  0  0  0
  -21.3716  -28.2629   20.2203 N   0  0  0  0  0  0  0  0  0  0  0  0
  -28.8932  -15.0871   16.8015 N   0  3  0  0  0  0  0  0  0  0  0  0
  -20.4491  -27.7945   16.7566 N   0  3  0  0  0  0  0  0  0  0  0  0
  -23.3864  -14.7912   22.6371 O   0  0  0  0  0  0  0  0  0  0  0  0
  -26.9824  -28.1207   22.4649 O   0  0  0  0  0  0  0  0  0  0  0  0
  -23.1076  -30.1336   21.5223 O   0  0  0  0  0  0  0  0  0  0  0  0
  -21.7897  -26.4516   18.8341 O   0  0  0  0  0  0  0  0  0  0  0  0
  -31.7045  -14.6513   19.9036 O   0  0  0  0  0  0  0  0  0  0  0  0
  -20.4492   -8.3320   19.4373 O   0  0  0  0  0  0  0  0  0  0  0  0
  -28.1838  -24.1699   18.2555 O   0  0  0  0  0  0  0  0  0  1  0  0
  -16.8191   -7.0710   23.3916 F   0  0  0  0  0  0  0  0  0  0  0  0
  -20.1066   -5.7172   20.2668 F   0  0  0  0  0  0  0  0  0  0  0  0
  1  2  1  0  0  0  0
  1  6  2  0  0  0  0
  2  7  2  0  0  0  0
  3 10  2  0  0  0  0
  3 18  1  0  0  0  0
  4 11  1  0  0  0  0
  4 18  2  0  0  0  0
  5  9  2  0  0  0  0
  5 19  1  0  0  0  0
  6 21  1  0  0  0  0
  7 23  1  0  0  0  0
  8 12  2  0  0  0  0
  8 22  1  0  0  0  0
  9 26  1  0  0  0  0
 10 27  1  0  0  0  0
 11 27  2  0  0  0  0
 12 28  1  0  0  0  0
 13 14  2  0  0  0  0
 13 29  1  0  0  0  0
 14 30  1  0  0  0  0
 15 24  1  0  0  0  0
 15 26  2  0  0  0  0
 16 25  1  0  0  0  0
 16 28  2  0  0  0  0
 17 30  2  0  0  0  0
 17 31  1  0  0  0  0
 18 32  1  0  0  0  0
 19 24  2  0  0  0  0
 19 34  1  0  0  0  0
 20 32  1  0  0  0  0
 20 33  2  0  0  0  0
 20 35  1  0  0  0  0
 21 23  2  0  0  0  0
 21 40  1  0  0  0  0
 22 25  2  0  0  0  0
 22 41  1  0  0  0  0
 23 50  1  0  0  0  0
 24 42  1  0  0  0  0
 25 43  1  0  0  0  0
 26 70  1  0  0  0  0
 27 80  1  0  0  0  0
 28 81  1  0  0  0  0
 29 31  2  0  0  0  0
 29 80  1  0  0  0  0
 30 82  1  0  0  0  0
 31 83  1  0  0  0  0
 32 63  2  0  0  0  0
 33 64  1  0  0  0  0
 33 68  1  0  0  0  0
 34 65  1  0  0  0  0
 34 73  2  0  0  0  0
 35 69  1  0  0  0  0
 35 75  2  0  0  0  0
 36 51  1  0  0  0  0
 36 71  1  0  0  0  0
 36 76  2  0  0  0  0
 37 60  1  0  0  0  0
 37 66  1  0  0  0  0
 37 77  2  0  0  0  0
 38 61  1  0  0  0  0
 38 72  1  0  0  0  0
 38 78  2  0  0  0  0
 39 65  1  0  0  0  0
 39 67  1  0  0  0  0
 39 79  2  0  0  0  0
 40 44  1  0  0  0  0
 41 51  1  0  0  0  0
 42 65  1  0  0  0  0
 43 66  1  0  0  0  0
 44 46  1  0  0  0  0
 45 47  1  0  0  0  0
 45 48  1  0  0  0  0
 46 50  1  0  0  0  0
 47 52  1  0  0  0  0
 48 67  1  0  0  0  0
 49 52  1  0  0  0  0
 49 67  1  0  0  0  0
 50 71  1  0  0  0  0
 51 66  1  0  0  0  0
 52 64  1  0  0  0  0
 53 61  1  0  0  0  0
 54 62  1  0  0  0  0
 55 62  1  0  0  0  0
 56 62  1  0  0  0  0
 57 74  1  0  0  0  0
 58 59  1  0  0  0  0
 58 70  1  0  0  0  0
 59 81  1  0  0  0  0
 60 62  1  0  0  0  0
 60 72  1  0  0  0  0
 61 74  1  0  0  0  0
 63 64  1  0  0  0  0
M  CHG  2  73   1  74   1
M  ISO  4  39 100  59 101  65 100  81 101
M  END
> <Batch ID>
0026

> <Smiles>
CNC(C)C(=O)NC(C(=O)N1Cc2cc([101O:1][101CH2:1]CNc3ccc4c(c3)C[100N:0]([100C:0](=O)N3CCCC(n5nc(-c6ccc(Oc7ccc(F)cc7F)cc6)c(C(N)=O)c5N)C3)C4=N)ccc2CC1C(=O)NC1CCCc2ccccc21)C(C)(C)C

> <Shape>
0.297

> <Color>
0.114

> <Negative vol penalty>
0.000

$$$$

  -OEChem-04042321253D

 85 94  0     1  0  0  0  0  0999 V2000
  -21.2707  -16.2972   36.7518 C   0  0  0  0  0  0  0  0  0  0  0  0
  -22.1705  -16.8784   35.8642 C   0  0  0  0  0  0  0  0  0  0  0  0
  -23.0748   -9.8686   19.9397 C   0  0  0  0  0  0  0  0  0  0  0  0
  -23.8341   -9.8747   22.2333 C   0  0  0  0  0  0  0  0  0  0  0  0
  -20.5956  -15.1308   36.3945 C   0  0  0  0  0  0  0  0  0  0  0  0
  -22.3967  -16.2929   34.6191 C   0  0  0  0  0  0  0  0  0  0  0  0
  -23.5768  -19.1845   29.3510 C   0  0  0  0  0  0  0  0  0  0  0  0
  -32.0641  -16.6033   22.5498 C   0  0  0  0  0  0  0  0  0  0  0  0
  -22.3304   -8.7156   20.1891 C   0  0  0  0  0  0  0  0  0  0  0  0
  -23.0896   -8.7217   22.4828 C   0  0  0  0  0  0  0  0  0  0  0  0
  -24.7655  -19.4501   28.6727 C   0  0  0  0  0  0  0  0  0  0  0  0
  -19.8610   -7.9250   23.0842 C   0  0  0  0  0  0  0  0  0  0  0  0
  -19.1038   -7.8850   24.2549 C   0  0  0  0  0  0  0  0  0  0  0  0
  -32.6552  -17.4869   23.4528 C   0  0  0  0  0  0  0  0  0  0  0  0
  -24.4180  -17.4909   27.3089 C   0  0  0  0  0  0  0  0  0  0  0  0
  -20.3442   -5.9469   24.9912 C   0  0  0  0  0  0  0  0  0  0  0  0
  -23.8267  -10.4481   20.9617 C   0  0  0  0  0  0  0  0  0  0  0  0
  -24.1695  -12.9731   20.8424 C   0  0  0  0  0  0  0  0  0  0  0  0
  -20.8064  -14.5360   35.1405 C   0  0  0  0  0  0  0  0  0  0  0  0
  -22.8040  -18.0621   29.0202 C   0  0  0  0  0  0  0  0  0  0  0  0
  -21.7248  -15.1167   34.2451 C   0  0  0  0  0  0  0  0  0  0  0  0
  -23.2185  -17.2147   27.9828 C   0  0  0  0  0  0  0  0  0  0  0  0
  -30.4742  -18.3413   24.0446 C   0  0  0  0  0  0  0  0  0  0  0  0
  -30.6780  -16.5887   22.3942 C   0  0  0  0  0  0  0  0  0  0  0  0
  -22.3378   -8.1422   21.4607 C   0  0  0  0  0  0  0  0  0  0  0  0
  -25.1877  -18.6016   27.6534 C   0  0  0  0  0  0  0  0  0  0  0  0
  -20.8599   -6.9758   22.8669 C   0  0  0  0  0  0  0  0  0  0  0  0
  -19.3454   -6.8960   25.2084 C   0  0  0  0  0  0  0  0  0  0  0  0
  -21.1015   -5.9869   23.8204 C   0  0  0  0  0  0  0  0  0  0  0  0
  -29.8830  -17.4577   23.1416 C   0  0  0  0  0  0  0  0  0  0  0  0
  -31.8603  -18.3559   24.2002 C   0  0  0  0  0  0  0  0  0  0  0  0
  -24.5963  -11.6387   20.7045 C   0  0  0  0  0  0  0  0  0  0  0  0
  -25.2620  -13.7223   20.4796 C   0  0  0  0  0  0  0  0  0  0  0  0
  -22.8991  -13.4893   21.2611 C   0  0  0  0  0  0  0  0  0  0  0  0
  -21.8668  -15.4486   30.5678 C   0  0  0  0  0  0  0  0  0  0  0  0
  -20.1491  -14.9358   27.8643 C   0  0  0  0  0  0  0  0  0  0  0  0
  -20.6759  -15.2559   24.3093 C   0  0  0  0  0  0  0  0  0  0  0  0
  -30.7285  -14.7658   20.6561 C   0  0  0  0  0  0  0  0  0  0  0  0
  -20.0889  -13.2493   34.8175 C   0  0  0  0  0  0  0  0  0  0  0  0
  -21.5106  -17.8044   29.7434 C   0  0  0  0  0  0  0  0  0  0  0  0
  -22.4147  -16.0078   27.5756 C   0  0  0  0  0  0  0  0  0  0  0  0
  -20.1049  -12.8994   33.3317 C   0  0  0  0  0  0  0  0  0  0  0  0
  -29.6139  -12.3530   18.2869 C   0  0  0  0  0  0  0  0  0  0  0  0
  -21.5080  -13.0704   32.7581 C   0  0  0  0  0  0  0  0  0  0  0  0
  -28.1740  -12.0618   18.7160 C   0  0  0  0  0  0  0  0  0  0  0  0
  -28.1799  -17.5115   27.7717 C   0  0  0  0  0  0  0  0  0  0  0  0
  -30.5287  -12.5812   19.4889 C   0  0  0  0  0  0  0  0  0  0  0  0
  -28.6217  -13.3060   20.8698 C   0  0  0  0  0  0  0  0  0  0  0  0
  -28.8756  -17.4495   26.4268 C   0  0  0  0  0  0  0  0  0  0  0  0
  -28.5758  -19.7869   27.0947 C   0  0  0  0  0  0  0  0  0  0  0  0
  -21.9785  -14.5251   32.8755 C   0  0  1  0  0  0  0  0  0  0  0  0
  -21.0647  -16.3473   29.6695 C   0  0  1  0  0  0  0  0  0  0  0  0
  -27.6491  -13.1334   19.6917 C   0  0  2  0  0  0  0  0  0  0  0  0
  -27.5456  -18.8916   27.7653 C   0  0  1  0  0  0  0  0  0  1  0  0
  -19.0414  -15.6531   22.4471 C   0  0  0  0  0  0  0  0  0  0  0  0
  -20.1370  -11.8948   27.6153 C   0  0  0  0  0  0  0  0  0  0  0  0
  -20.0268  -12.1684   25.1291 C   0  0  0  0  0  0  0  0  0  0  0  0
  -18.1772  -13.0357   26.5608 C   0  0  0  0  0  0  0  0  0  0  0  0
  -22.1542  -17.6393   23.3643 C   0  0  0  0  0  0  0  0  0  0  0  0
  -29.5877  -19.2617   24.8307 C   0  0  0  0  0  0  0  0  0  0  0  0
  -20.4041  -14.2327   26.5529 C   0  0  1  0  0  0  0  0  0  0  0  0
  -20.0530  -16.2890   23.3877 C   0  0  2  0  0  0  0  0  0  0  0  0
  -19.7074  -12.8447   26.4795 C   0  0  0  0  0  0  0  0  0  0  0  0
  -25.8612  -11.5425   20.2865 N   0  0  0  0  0  0  0  0  0  0  0  0
  -26.2386  -12.8260   20.1586 N   0  0  0  0  0  0  0  0  0  0  0  0
  -21.1607  -15.7947   28.3169 N   0  0  0  0  0  0  0  0  0  0  0  0
  -29.9699  -13.6120   20.3664 N   0  0  0  0  0  0  0  0  0  0  0  0
  -25.4729  -15.0537   20.4070 N   0  0  0  0  0  0  0  0  0  0  0  0
  -21.8867  -12.5804   21.5979 N   0  0  0  0  0  0  0  0  0  0  0  0
  -30.0813  -15.6909   21.4746 N   0  0  0  0  0  0  0  0  0  0  0  0
  -21.3629  -15.3398   31.8499 N   0  0  0  0  0  0  0  0  0  0  0  0
  -19.9959  -15.1623   25.5052 N   0  0  0  0  0  0  0  0  0  0  0  0
  -29.4292  -18.8451   26.2576 N   0  3  2  0  0  0  0  0  0  0  0  0
  -21.1053  -16.9526   22.5672 N   0  3  0  0  0  0  0  0  0  0  0  0
  -22.6632  -14.7200   21.3187 O   0  0  0  0  0  0  0  0  0  0  0  0
  -22.8678  -14.8938   30.1297 O   0  0  0  0  0  0  0  0  0  0  0  0
  -19.0884  -14.7360   28.4613 O   0  0  0  0  0  0  0  0  0  0  0  0
  -21.6643  -14.5952   23.9979 O   0  0  0  0  0  0  0  0  0  0  0  0
  -31.8578  -14.9342   20.1888 O   0  0  0  0  0  0  0  0  0  0  0  0
  -21.6114   -7.0173   21.7045 O   0  0  0  0  0  0  0  0  0  0  0  0
  -26.3480  -18.8582   26.9901 O   0  0  0  0  0  0  0  0  0  1  0  0
  -18.6191   -6.8587   26.3332 F   0  0  0  0  0  0  0  0  0  0  0  0
  -22.0605   -5.0731   23.6178 F   0  0  0  0  0  0  0  0  0  0  0  0
  -28.5499  -17.4452   22.9900 F   0  0  0  0  0  0  0  0  0  0  0  0
  -32.6281  -19.4359   25.3063 Cl  0  0  0  0  0  0  0  0  0  0  0  0
  1  2  1  0  0  0  0
  1  5  2  0  0  0  0
  2  6  2  0  0  0  0
  3  9  2  0  0  0  0
  3 17  1  0  0  0  0
  4 10  1  0  0  0  0
  4 17  2  0  0  0  0
  5 19  1  0  0  0  0
  6 21  1  0  0  0  0
  7 11  2  0  0  0  0
  7 20  1  0  0  0  0
  8 14  1  0  0  0  0
  8 24  2  0  0  0  0
  9 25  1  0  0  0  0
 10 25  2  0  0  0  0
 11 26  1  0  0  0  0
 12 13  2  0  0  0  0
 12 27  1  0  0  0  0
 13 28  1  0  0  0  0
 14 31  2  0  0  0  0
 15 22  1  0  0  0  0
 15 26  2  0  0  0  0
 16 28  2  0  0  0  0
 16 29  1  0  0  0  0
 17 32  1  0  0  0  0
 18 32  1  0  0  0  0
 18 33  2  0  0  0  0
 18 34  1  0  0  0  0
 19 21  2  0  0  0  0
 19 39  1  0  0  0  0
 20 22  2  0  0  0  0
 20 40  1  0  0  0  0
 21 51  1  0  0  0  0
 22 41  1  0  0  0  0
 23 30  2  0  0  0  0
 23 31  1  0  0  0  0
 23 60  1  0  0  0  0
 24 30  1  0  0  0  0
 24 70  1  0  0  0  0
 25 80  1  0  0  0  0
 26 81  1  0  0  0  0
 27 29  2  0  0  0  0
 27 80  1  0  0  0  0
 28 82  1  0  0  0  0
 29 83  1  0  0  0  0
 30 84  1  0  0  0  0
 31 85  1  0  0  0  0
 32 64  2  0  0  0  0
 33 65  1  0  0  0  0
 33 68  1  0  0  0  0
 34 69  1  0  0  0  0
 34 75  2  0  0  0  0
 35 52  1  0  0  0  0
 35 71  1  0  0  0  0
 35 76  2  0  0  0  0
 36 61  1  0  0  0  0
 36 66  1  0  0  0  0
 36 77  2  0  0  0  0
 37 62  1  0  0  0  0
 37 72  1  0  0  0  0
 37 78  2  0  0  0  0
 38 67  1  0  0  0  0
 38 70  1  0  0  0  0
 38 79  2  0  0  0  0
 39 42  1  0  0  0  0
 40 52  1  0  0  0  0
 41 66  1  0  0  0  0
 42 44  1  0  0  0  0
 43 45  1  0  0  0  0
 43 47  1  0  0  0  0
 44 51  1  0  0  0  0
 45 53  1  0  0  0  0
 46 49  1  0  0  0  0
 46 54  1  0  0  0  0
 47 67  1  0  0  0  0
 48 53  1  0  0  0  0
 48 67  1  0  0  0  0
 49 73  1  0  0  0  0
 50 54  1  0  0  0  0
 50 73  1  0  0  0  0
 51 71  1  0  0  0  0
 52 66  1  0  0  0  0
 53 65  1  0  0  0  0
 54 81  1  0  0  0  0
 55 62  1  0  0  0  0
 56 63  1  0  0  0  0
 57 63  1  0  0  0  0
 58 63  1  0  0  0  0
 59 74  1  0  0  0  0
 60 73  1  0  0  0  0
 61 63  1  0  0  0  0
 61 72  1  0  0  0  0
 62 74  1  0  0  0  0
 64 65  1  0  0  0  0
M  CHG  2  73   1  74   1
M  ISO  4  38 100  54 101  70 100  81 101
M  END
> <Batch ID>
0026

> <Smiles>
CNC(C)C(=O)NC(C(=O)N1Cc2cc([101O:1][101CH:1]3CCN(Cc4c(Cl)ccc([100NH:0][100C:0](=O)N5CCCC(n6nc(-c7ccc(Oc8ccc(F)cc8F)cc7)c(C(N)=O)c6N)C5)c4F)C3)ccc2CC1C(=O)NC1CCCc2ccccc21)C(C)(C)C

> <Shape>
0.167

> <Color>
0.188

> <Negative vol penalty>
0.000

$$$$

  -OEChem-04042321253D

 86 95  0     1  0  0  0  0  0999 V2000
  -27.9585  -21.1599   15.9020 C   0  0  0  0  0  0  0  0  0  0  0  0
  -27.0020  -21.7715   16.7045 C   0  0  0  0  0  0  0  0  0  0  0  0
  -27.7851  -17.1337   18.8970 C   0  0  0  0  0  0  0  0  0  0  0  0
  -27.9674  -17.3046   21.3001 C   0  0  0  0  0  0  0  0  0  0  0  0
  -29.2456  -21.6889   15.8321 C   0  0  0  0  0  0  0  0  0  0  0  0
  -27.3287  -22.9190   17.4280 C   0  0  0  0  0  0  0  0  0  0  0  0
  -23.6570  -25.2025   19.7747 C   0  0  0  0  0  0  0  0  0  0  0  0
  -28.5397  -18.2983   18.7569 C   0  0  0  0  0  0  0  0  0  0  0  0
  -28.7221  -18.4692   21.1600 C   0  0  0  0  0  0  0  0  0  0  0  0
  -23.0518  -24.6796   20.9167 C   0  0  0  0  0  0  0  0  0  0  0  0
  -28.1587  -21.7410   20.5205 C   0  0  0  0  0  0  0  0  0  0  0  0
  -27.8426  -22.8211   21.3446 C   0  0  0  0  0  0  0  0  0  0  0  0
  -24.2750  -26.2515   22.2775 C   0  0  0  0  0  0  0  0  0  0  0  0
  -21.2943  -18.0336   24.9420 C   0  0  0  0  0  0  0  0  0  0  0  0
  -19.1825  -16.9004   24.6367 C   0  0  0  0  0  0  0  0  0  0  0  0
  -30.0736  -22.7679   22.2702 C   0  0  0  0  0  0  0  0  0  0  0  0
  -27.4988  -16.6368   20.1686 C   0  0  0  0  0  0  0  0  0  0  0  0
  -27.1983  -14.1117   20.3718 C   0  0  0  0  0  0  0  0  0  0  0  0
  -29.5909  -22.8362   16.5652 C   0  0  0  0  0  0  0  0  0  0  0  0
  -24.5856  -26.2484   19.8768 C   0  0  0  0  0  0  0  0  0  0  0  0
  -28.6156  -23.4819   17.3520 C   0  0  0  0  0  0  0  0  0  0  0  0
  -24.8887  -26.7877   21.1352 C   0  0  0  0  0  0  0  0  0  0  0  0
  -20.7247  -18.8268   25.9379 C   0  0  0  0  0  0  0  0  0  0  0  0
  -19.3840  -18.6569   26.2833 C   0  0  0  0  0  0  0  0  0  0  0  0
  -20.5232  -17.0704   24.2913 C   0  0  0  0  0  0  0  0  0  0  0  0
  -29.0082  -18.9661   19.8884 C   0  0  0  0  0  0  0  0  0  0  0  0
  -23.3629  -25.2022   22.1686 C   0  0  0  0  0  0  0  0  0  0  0  0
  -29.4323  -21.1743   20.5714 C   0  0  0  0  0  0  0  0  0  0  0  0
  -28.8000  -23.3346   22.2194 C   0  0  0  0  0  0  0  0  0  0  0  0
  -30.3897  -21.6877   21.4462 C   0  0  0  0  0  0  0  0  0  0  0  0
  -18.6129  -17.6936   25.6327 C   0  0  0  0  0  0  0  0  0  0  0  0
  -26.7188  -15.4341   20.3140 C   0  0  0  0  0  0  0  0  0  0  0  0
  -26.0689  -13.3429   20.5130 C   0  0  0  0  0  0  0  0  0  0  0  0
  -28.5442  -13.6222   20.3041 C   0  0  0  0  0  0  0  0  0  0  0  0
  -27.6639  -26.5926   19.1633 C   0  0  0  0  0  0  0  0  0  0  0  0
  -27.1073  -29.6817   19.9815 C   0  0  0  0  0  0  0  0  0  0  0  0
  -25.2113  -31.9205   21.7251 C   0  0  0  0  0  0  0  0  0  0  0  0
  -20.4850  -15.2607   22.5296 C   0  0  0  0  0  0  0  0  0  0  0  0
  -30.9965  -23.3707   16.4466 C   0  0  0  0  0  0  0  0  0  0  0  0
  -25.2096  -26.8193   18.6330 C   0  0  0  0  0  0  0  0  0  0  0  0
  -25.8637  -27.9242   21.2969 C   0  0  0  0  0  0  0  0  0  0  0  0
  -31.3703  -24.3173   17.5826 C   0  0  0  0  0  0  0  0  0  0  0  0
  -21.3807  -13.6539   19.3243 C   0  0  0  0  0  0  0  0  0  0  0  0
  -30.2835  -25.3663   17.7641 C   0  0  0  0  0  0  0  0  0  0  0  0
  -22.9079  -13.5733   19.3028 C   0  0  0  0  0  0  0  0  0  0  0  0
  -22.7289  -23.1346   25.7627 C   0  0  0  0  0  0  0  0  0  0  0  0
  -20.8035  -13.5786   20.7310 C   0  0  0  0  0  0  0  0  0  0  0  0
  -22.7681  -14.9669   21.4266 C   0  0  0  0  0  0  0  0  0  0  0  0
  -22.0951  -22.3205   26.8789 C   0  0  0  0  0  0  0  0  0  0  0  0
  -21.4463  -21.4630   24.6840 C   0  0  0  0  0  0  0  0  0  0  0  0
  -28.9567  -24.7131   18.1717 C   0  0  1  0  0  0  0  0  0  0  0  0
  -26.5271  -27.5398   18.9022 C   0  0  1  0  0  0  0  0  0  0  0  0
  -21.7864  -22.9400   24.5833 C   0  0  2  0  0  0  0  0  0  0  0  0
  -23.5479  -13.8826   20.6665 C   0  0  2  0  0  0  0  0  0  0  0  0
  -18.7876  -19.5173   27.3536 C   0  0  0  0  0  0  0  0  0  0  0  0
  -25.0231  -34.3717   22.2288 C   0  0  0  0  0  0  0  0  0  0  0  0
  -29.4585  -29.4627   21.9138 C   0  0  0  0  0  0  0  0  0  0  0  0
  -28.6392  -31.5447   23.0372 C   0  0  0  0  0  0  0  0  0  0  0  0
  -29.3470  -31.6157   20.6462 C   0  0  0  0  0  0  0  0  0  0  0  0
  -22.5180  -32.0820   20.5089 C   0  0  0  0  0  0  0  0  0  0  0  0
  -21.5766  -19.8559   26.6208 C   0  0  0  0  0  0  0  0  0  0  0  0
  -22.4064  -23.3147   23.2541 C   0  0  0  0  0  0  0  0  0  1  0  0
  -27.1754  -30.4772   21.2628 C   0  0  1  0  0  0  0  0  0  0  0  0
  -24.5791  -33.2388   21.3165 C   0  0  2  0  0  0  0  0  0  0  0  0
  -28.6381  -30.7524   21.7125 C   0  0  0  0  0  0  0  0  0  0  0  0
  -25.3885  -15.5049   20.4103 N   0  0  0  0  0  0  0  0  0  0  0  0
  -25.0224  -14.2174   20.5301 N   0  0  0  0  0  0  0  0  0  0  0  0
  -26.4523  -28.4440   20.0515 N   0  0  0  0  0  0  0  0  0  0  0  0
  -21.3418  -14.6373   21.5900 N   0  0  0  0  0  0  0  0  0  0  0  0
  -25.8789  -12.0109   20.6229 N   0  0  0  0  0  0  0  0  0  0  0  0
  -29.5856  -14.5487   20.1585 N   0  0  0  0  0  0  0  0  0  0  0  0
  -21.1024  -16.2651   23.2794 N   0  0  0  0  0  0  0  0  0  0  0  0
  -27.9081  -25.7084   18.1298 N   0  0  0  0  0  0  0  0  0  0  0  0
  -26.3827  -31.6813   21.0383 N   0  0  0  0  0  0  0  0  0  0  0  0
  -21.2812  -21.2513   26.1734 N   0  3  1  0  0  0  0  0  0  0  0  0
  -23.0932  -33.1415   21.3769 N   0  3  0  0  0  0  0  0  0  0  0  0
  -28.8140  -12.3981   20.3543 O   0  0  0  0  0  0  0  0  0  0  0  0
  -28.2752  -26.6600   20.2232 O   0  0  0  0  0  0  0  0  0  0  0  0
  -27.6103  -30.1448   18.9548 O   0  0  0  0  0  0  0  0  0  0  0  0
  -24.7174  -31.1790   22.5717 O   0  0  0  0  0  0  0  0  0  0  0  0
  -19.3011  -14.9353   22.6419 O   0  0  0  0  0  0  0  0  0  0  0  0
  -29.7449  -20.1025   19.7521 O   0  0  0  0  0  0  0  0  0  0  0  0
  -22.7740  -24.6932   23.2848 O   0  0  0  0  0  0  0  0  0  1  0  0
  -28.4968  -24.3728   23.0095 F   0  0  0  0  0  0  0  0  0  0  0  0
  -31.6153  -21.1482   21.4987 F   0  0  0  0  0  0  0  0  0  0  0  0
  -16.9509  -17.4503   26.0325 Cl  0  0  0  0  0  0  0  0  0  0  0  0
  1  2  1  0  0  0  0
  1  5  2  0  0  0  0
  2  6  2  0  0  0  0
  3  8  2  0  0  0  0
  3 17  1  0  0  0  0
  4  9  1  0  0  0  0
  4 17  2  0  0  0  0
  5 19  1  0  0  0  0
  6 21  1  0  0  0  0
  7 10  2  0  0  0  0
  7 20  1  0  0  0  0
  8 26  1  0  0  0  0
  9 26  2  0  0  0  0
 10 27  1  0  0  0  0
 11 12  2  0  0  0  0
 11 28  1  0  0  0  0
 12 29  1  0  0  0  0
 13 22  1  0  0  0  0
 13 27  2  0  0  0  0
 14 23  1  0  0  0  0
 14 25  2  0  0  0  0
 15 25  1  0  0  0  0
 15 31  2  0  0  0  0
 16 29  2  0  0  0  0
 16 30  1  0  0  0  0
 17 32  1  0  0  0  0
 18 32  1  0  0  0  0
 18 33  2  0  0  0  0
 18 34  1  0  0  0  0
 19 21  2  0  0  0  0
 19 39  1  0  0  0  0
 20 22  2  0  0  0  0
 20 40  1  0  0  0  0
 21 51  1  0  0  0  0
 22 41  1  0  0  0  0
 23 24  2  0  0  0  0
 23 61  1  0  0  0  0
 24 31  1  0  0  0  0
 24 55  1  0  0  0  0
 25 72  1  0  0  0  0
 26 82  1  0  0  0  0
 27 83  1  0  0  0  0
 28 30  2  0  0  0  0
 28 82  1  0  0  0  0
 29 84  1  0  0  0  0
 30 85  1  0  0  0  0
 31 86  1  0  0  0  0
 32 66  2  0  0  0  0
 33 67  1  0  0  0  0
 33 70  1  0  0  0  0
 34 71  1  0  0  0  0
 34 77  2  0  0  0  0
 35 52  1  0  0  0  0
 35 73  1  0  0  0  0
 35 78  2  0  0  0  0
 36 63  1  0  0  0  0
 36 68  1  0  0  0  0
 36 79  2  0  0  0  0
 37 64  1  0  0  0  0
 37 74  1  0  0  0  0
 37 80  2  0  0  0  0
 38 69  1  0  0  0  0
 38 72  1  0  0  0  0
 38 81  2  0  0  0  0
 39 42  1  0  0  0  0
 40 52  1  0  0  0  0
 41 68  1  0  0  0  0
 42 44  1  0  0  0  0
 43 45  1  0  0  0  0
 43 47  1  0  0  0  0
 44 51  1  0  0  0  0
 45 54  1  0  0  0  0
 46 49  1  0  0  0  0
 46 53  1  0  0  0  0
 47 69  1  0  0  0  0
 48 54  1  0  0  0  0
 48 69  1  0  0  0  0
 49 75  1  0  0  0  0
 50 53  1  0  0  0  0
 50 75  1  0  0  0  0
 51 73  1  0  0  0  0
 52 68  1  0  0  0  0
 53 62  1  0  0  0  0
 54 67  1  0  0  0  0
 56 64  1  0  0  0  0
 57 65  1  0  0  0  0
 58 65  1  0  0  0  0
 59 65  1  0  0  0  0
 60 76  1  0  0  0  0
 61 75  1  0  0  0  0
 62 83  1  0  0  0  0
 63 65  1  0  0  0  0
 63 74  1  0  0  0  0
 64 76  1  0  0  0  0
 66 67  1  0  0  0  0
M  CHG  2  75   1  76   1
M  ISO  4  38 100  62 101  72 100  83 101
M  END
> <Batch ID>
0026

> <Smiles>
CNC(C)C(=O)NC(C(=O)N1Cc2cc([101O:1][101CH2:1]C3CCN(Cc4cc([100NH:0][100C:0](=O)N5CCCC(n6nc(-c7ccc(Oc8ccc(F)cc8F)cc7)c(C(N)=O)c6N)C5)cc(Cl)c4C)C3)ccc2CC1C(=O)NC1CCCc2ccccc21)C(C)(C)C

> <Shape>
0.208

> <Color>
0.072

> <Negative vol penalty>
0.000

$$$$

  -OEChem-04042321253D

 88 96  0     1  0  0  0  0  0999 V2000
  -32.4307  -23.8480   22.1551 C   0  0  0  0  0  0  0  0  0  0  0  0
  -31.4221  -24.5417   21.4959 C   0  0  0  0  0  0  0  0  0  0  0  0
  -31.0593  -18.2857   20.5093 C   0  0  0  0  0  0  0  0  0  0  0  0
  -29.4015  -17.6105   18.8867 C   0  0  0  0  0  0  0  0  0  0  0  0
  -32.6056  -24.0168   23.5270 C   0  0  0  0  0  0  0  0  0  0  0  0
  -30.5959  -25.4134   22.2061 C   0  0  0  0  0  0  0  0  0  0  0  0
  -27.4524  -28.1451   19.5870 C   0  0  0  0  0  0  0  0  0  0  0  0
  -21.4183  -19.7389   16.4079 C   0  0  0  0  0  0  0  0  0  0  0  0
  -31.5539  -16.9820   20.5466 C   0  0  0  0  0  0  0  0  0  0  0  0
  -29.8961  -16.3068   18.9239 C   0  0  0  0  0  0  0  0  0  0  0  0
  -26.3228  -27.6102   18.9692 C   0  0  0  0  0  0  0  0  0  0  0  0
  -30.4897  -12.7216   18.8598 C   0  0  0  0  0  0  0  0  0  0  0  0
  -29.5656  -11.6796   18.9352 C   0  0  0  0  0  0  0  0  0  0  0  0
  -21.5289  -19.0357   17.6074 C   0  0  0  0  0  0  0  0  0  0  0  0
  -24.9383  -28.5315   20.7166 C   0  0  0  0  0  0  0  0  0  0  0  0
  -28.7363  -12.5662   21.0240 C   0  0  0  0  0  0  0  0  0  0  0  0
  -29.9831  -18.5999   19.6794 C   0  0  0  0  0  0  0  0  0  0  0  0
  -29.8823  -20.9878   18.7875 C   0  0  0  0  0  0  0  0  0  0  0  0
  -31.7726  -24.8817   24.2558 C   0  0  0  0  0  0  0  0  0  0  0  0
  -27.3344  -28.8691   20.7821 C   0  0  0  0  0  0  0  0  0  0  0  0
  -30.7719  -25.6155   23.5869 C   0  0  0  0  0  0  0  0  0  0  0  0
  -26.0676  -29.0767   21.3463 C   0  0  0  0  0  0  0  0  0  0  0  0
  -21.7557  -21.1198   18.8083 C   0  0  0  0  0  0  0  0  0  0  0  0
  -21.4764  -21.1326   16.4085 C   0  0  0  0  0  0  0  0  0  0  0  0
  -21.6450  -21.8230   17.6088 C   0  0  0  0  0  0  0  0  0  0  0  0
  -30.9723  -15.9925   19.7539 C   0  0  0  0  0  0  0  0  0  0  0  0
  -25.0658  -27.8009   19.5355 C   0  0  0  0  0  0  0  0  0  0  0  0
  -30.5372  -13.6860   19.8665 C   0  0  0  0  0  0  0  0  0  0  0  0
  -28.6889  -11.6019   20.0173 C   0  0  0  0  0  0  0  0  0  0  0  0
  -29.6605  -13.6083   20.9486 C   0  0  0  0  0  0  0  0  0  0  0  0
  -21.6976  -19.7261   18.8076 C   0  0  0  0  0  0  0  0  0  0  0  0
  -29.4714  -19.9463   19.6410 C   0  0  0  0  0  0  0  0  0  0  0  0
  -29.0959  -22.0555   19.1455 C   0  0  0  0  0  0  0  0  0  0  0  0
  -30.8851  -20.9899   17.7628 C   0  0  0  0  0  0  0  0  0  0  0  0
  -28.4194  -28.4970   23.7466 C   0  0  0  0  0  0  0  0  0  0  0  0
  -27.0985  -31.4276   24.1816 C   0  0  0  0  0  0  0  0  0  0  0  0
  -24.8032  -33.7480   23.1843 C   0  0  0  0  0  0  0  0  0  0  0  0
  -23.7078  -22.4676   21.7242 C   0  0  0  0  0  0  0  0  0  0  0  0
  -32.0112  -25.0327   25.7376 C   0  0  0  0  0  0  0  0  0  0  0  0
  -28.5597  -29.4623   21.4219 C   0  0  0  0  0  0  0  0  0  0  0  0
  -25.8849  -29.8637   22.6174 C   0  0  0  0  0  0  0  0  0  0  0  0
  -30.8161  -25.6286   26.4744 C   0  0  0  0  0  0  0  0  0  0  0  0
  -26.7547  -23.8919   22.8921 C   0  0  0  0  0  0  0  0  0  0  0  0
  -30.3351  -26.8811   25.7572 C   0  0  0  0  0  0  0  0  0  0  0  0
  -27.8335  -23.1362   22.1143 C   0  0  0  0  0  0  0  0  0  0  0  0
  -25.5827  -22.9840   23.2585 C   0  0  0  0  0  0  0  0  0  0  0  0
  -26.0590  -21.5061   21.3448 C   0  0  0  0  0  0  0  0  0  0  0  0
  -29.8414  -26.5457   24.3441 C   0  0  1  0  0  0  0  0  0  0  0  0
  -28.3794  -29.7446   22.9102 C   0  0  1  0  0  0  0  0  0  0  0  0
  -27.2359  -22.3933   20.9043 C   0  0  2  0  0  0  0  0  0  0  0  0
  -23.4808  -22.5215   14.2299 C   0  0  0  0  0  0  0  0  0  0  0  0
  -19.0867  -22.0780   14.3864 C   0  0  0  0  0  0  0  0  0  0  0  0
  -23.9336  -36.0312   23.7571 C   0  0  0  0  0  0  0  0  0  0  0  0
  -25.5691  -30.2496   26.5445 C   0  0  0  0  0  0  0  0  0  0  0  0
  -24.0558  -32.2427   26.4690 C   0  0  0  0  0  0  0  0  0  0  0  0
  -26.4880  -32.5425   26.9352 C   0  0  0  0  0  0  0  0  0  0  0  0
  -25.5910  -34.8366   20.5474 C   0  0  0  0  0  0  0  0  0  0  0  0
  -21.9360  -21.8704   20.0922 C   0  0  0  0  0  0  0  0  0  0  0  0
  -22.8506  -25.2625   18.2592 C   0  0  0  0  0  0  0  0  0  0  0  0
  -22.3210  -21.5911   14.1202 C   0  0  0  0  0  0  0  0  0  0  0  0
  -20.2794  -22.7594   14.9660 C   0  0  0  0  0  0  0  0  0  0  0  0
  -22.9262  -23.9597   17.4722 C   0  0  0  0  0  0  0  0  0  0  0  0
  -24.1364  -26.0776   18.1857 C   0  0  0  0  0  0  0  0  0  1  0  0
  -25.7395  -31.9367   24.5975 C   0  0  1  0  0  0  0  0  0  0  0  0
  -24.9261  -35.2380   22.9213 C   0  0  2  0  0  0  0  0  0  0  0  0
  -25.4664  -31.7264   26.1136 C   0  0  0  0  0  0  0  0  0  0  0  0
  -28.4996  -20.3188   20.4781 N   0  0  0  0  0  0  0  0  0  0  0  0
  -28.2933  -21.6062   20.1526 N   0  0  0  0  0  0  0  0  0  0  0  0
  -27.1139  -30.4183   23.2085 N   0  0  0  0  0  0  0  0  0  0  0  0
  -25.0609  -22.3107   22.0668 N   0  0  0  0  0  0  0  0  0  0  0  0
  -29.0196  -23.3254   18.6940 N   0  0  0  0  0  0  0  0  0  0  0  0
  -31.6001  -19.8081   17.5252 N   0  0  0  0  0  0  0  0  0  0  0  0
  -21.7023  -23.2080   17.6100 N   0  0  0  0  0  0  0  0  0  0  0  0
  -29.5924  -27.7765   23.6266 N   0  0  0  0  0  0  0  0  0  0  0  0
  -25.6757  -33.3290   24.1664 N   0  0  0  0  0  0  0  0  0  0  0  0
  -23.2966  -21.8007   20.5766 N   0  0  0  0  0  0  0  0  0  0  0  0
  -21.3630  -21.8231   15.1808 N   0  0  0  0  0  0  0  0  0  0  0  0
  -24.6708  -35.5329   21.4830 N   0  3  0  0  0  0  0  0  0  0  0  0
  -31.1509  -22.0143   17.0893 O   0  0  0  0  0  0  0  0  0  0  0  0
  -27.4578  -28.2101   24.4500 O   0  0  0  0  0  0  0  0  0  0  0  0
  -28.1094  -31.9128   24.6957 O   0  0  0  0  0  0  0  0  0  0  0  0
  -24.0098  -33.0284   22.5816 O   0  0  0  0  0  0  0  0  0  0  0  0
  -22.9254  -23.1556   22.3886 O   0  0  0  0  0  0  0  0  0  0  0  0
  -31.4547  -14.7203   19.7898 O   0  0  0  0  0  0  0  0  0  0  0  0
  -23.9617  -27.2794   18.9349 O   0  0  0  0  0  0  0  0  0  1  0  0
  -27.8005  -10.6020   20.0888 F   0  0  0  0  0  0  0  0  0  0  0  0
  -29.7006  -14.5324   21.9182 F   0  0  0  0  0  0  0  0  0  0  0  0
  -21.8303  -18.8172   20.2695 Cl  0  0  0  0  0  0  0  0  0  0  0  0
  1  2  1  0  0  0  0
  1  5  2  0  0  0  0
  2  6  2  0  0  0  0
  3  9  2  0  0  0  0
  3 17  1  0  0  0  0
  4 10  1  0  0  0  0
  4 17  2  0  0  0  0
  5 19  1  0  0  0  0
  6 21  1  0  0  0  0
  7 11  2  0  0  0  0
  7 20  1  0  0  0  0
  8 14  2  0  0  0  0
  8 24  1  0  0  0  0
  9 26  1  0  0  0  0
 10 26  2  0  0  0  0
 11 27  1  0  0  0  0
 12 13  2  0  0  0  0
 12 28  1  0  0  0  0
 13 29  1  0  0  0  0
 14 31  1  0  0  0  0
 15 22  1  0  0  0  0
 15 27  2  0  0  0  0
 16 29  2  0  0  0  0
 16 30  1  0  0  0  0
 17 32  1  0  0  0  0
 18 32  1  0  0  0  0
 18 33  2  0  0  0  0
 18 34  1  0  0  0  0
 19 21  2  0  0  0  0
 19 39  1  0  0  0  0
 20 22  2  0  0  0  0
 20 40  1  0  0  0  0
 21 48  1  0  0  0  0
 22 41  1  0  0  0  0
 23 25  1  0  0  0  0
 23 31  2  0  0  0  0
 23 58  1  0  0  0  0
 24 25  2  0  0  0  0
 24 77  1  0  0  0  0
 25 73  1  0  0  0  0
 26 84  1  0  0  0  0
 27 85  1  0  0  0  0
 28 30  2  0  0  0  0
 28 84  1  0  0  0  0
 29 86  1  0  0  0  0
 30 87  1  0  0  0  0
 31 88  1  0  0  0  0
 32 67  2  0  0  0  0
 33 68  1  0  0  0  0
 33 71  1  0  0  0  0
 34 72  1  0  0  0  0
 34 79  2  0  0  0  0
 35 49  1  0  0  0  0
 35 74  1  0  0  0  0
 35 80  2  0  0  0  0
 36 64  1  0  0  0  0
 36 69  1  0  0  0  0
 36 81  2  0  0  0  0
 37 65  1  0  0  0  0
 37 75  1  0  0  0  0
 37 82  2  0  0  0  0
 38 70  1  0  0  0  0
 38 76  1  0  0  0  0
 38 83  2  0  0  0  0
 39 42  1  0  0  0  0
 40 49  1  0  0  0  0
 41 69  1  0  0  0  0
 42 44  1  0  0  0  0
 43 45  1  0  0  0  0
 43 46  1  0  0  0  0
 44 48  1  0  0  0  0
 45 50  1  0  0  0  0
 46 70  1  0  0  0  0
 47 50  1  0  0  0  0
 47 70  1  0  0  0  0
 48 74  1  0  0  0  0
 49 69  1  0  0  0  0
 50 68  1  0  0  0  0
 51 60  1  0  0  0  0
 52 61  1  0  0  0  0
 53 65  1  0  0  0  0
 54 66  1  0  0  0  0
 55 66  1  0  0  0  0
 56 66  1  0  0  0  0
 57 78  1  0  0  0  0
 58 76  1  0  0  0  0
 59 62  1  0  0  0  0
 59 63  1  0  0  0  0
 60 77  1  0  0  0  0
 61 77  1  0  0  0  0
 62 73  1  0  0  0  0
 63 85  1  0  0  0  0
 64 66  1  0  0  0  0
 64 75  1  0  0  0  0
 65 78  1  0  0  0  0
 67 68  1  0  0  0  0
M  CHG  1  78   1
M  ISO  4  38 100  63 101  76 100  85 101
M  END
> <Batch ID>
0026

> <Smiles>
CCN(CC)c1ccc(Cl)c(C[100NH:0][100C:0](=O)N2CCCC(n3nc(-c4ccc(Oc5ccc(F)cc5F)cc4)c(C(N)=O)c3N)C2)c1NCC[101CH2:1][101O:1]c1ccc2c(c1)CN(C(=O)C(NC(=O)C(C)NC)C(C)(C)C)C(C(=O)NC1CCCc3ccccc31)C2

> <Shape>
0.226

> <Color>
0.090

> <Negative vol penalty>
0.000

$$$$

  -OEChem-04042321253D

 84 93  0     1  0  0  0  0  0999 V2000
  -20.3640  -29.4630   15.0399 C   0  0  0  0  0  0  0  0  0  0  0  0
  -21.0868  -28.3346   15.4137 C   0  0  0  0  0  0  0  0  0  0  0  0
  -31.2520  -19.4765   19.1681 C   0  0  0  0  0  0  0  0  0  0  0  0
  -23.0721   -9.8707   19.9430 C   0  0  0  0  0  0  0  0  0  0  0  0
  -23.8335   -9.8793   22.2359 C   0  0  0  0  0  0  0  0  0  0  0  0
  -20.0557  -30.4376   15.9880 C   0  0  0  0  0  0  0  0  0  0  0  0
  -21.5026  -28.1808   16.7358 C   0  0  0  0  0  0  0  0  0  0  0  0
  -21.9603  -22.9359   19.8643 C   0  0  0  0  0  0  0  0  0  0  0  0
  -31.5100  -18.4250   20.0474 C   0  0  0  0  0  0  0  0  0  0  0  0
  -30.0166  -20.1235   19.1980 C   0  0  0  0  0  0  0  0  0  0  0  0
  -22.3283   -8.7178   20.1943 C   0  0  0  0  0  0  0  0  0  0  0  0
  -23.0897   -8.7264   22.4872 C   0  0  0  0  0  0  0  0  0  0  0  0
  -23.0436  -22.1066   20.1517 C   0  0  0  0  0  0  0  0  0  0  0  0
  -19.3810   -7.9223   21.6481 C   0  0  0  0  0  0  0  0  0  0  0  0
  -18.0738   -7.8758   21.1637 C   0  0  0  0  0  0  0  0  0  0  0  0
  -23.3003  -23.1931   22.2901 C   0  0  0  0  0  0  0  0  0  0  0  0
  -29.2973  -18.6674   20.9866 C   0  0  0  0  0  0  0  0  0  0  0  0
  -18.6326   -5.9318   19.8425 C   0  0  0  0  0  0  0  0  0  0  0  0
  -23.8247  -10.4515   20.9638 C   0  0  0  0  0  0  0  0  0  0  0  0
  -24.1665  -12.9765   20.8418 C   0  0  0  0  0  0  0  0  0  0  0  0
  -20.4595  -30.2910   17.3244 C   0  0  0  0  0  0  0  0  0  0  0  0
  -21.5450  -23.9090   20.7847 C   0  0  0  0  0  0  0  0  0  0  0  0
  -21.2005  -29.1550   17.7024 C   0  0  0  0  0  0  0  0  0  0  0  0
  -22.2099  -24.0318   22.0131 C   0  0  0  0  0  0  0  0  0  0  0  0
  -30.5327  -18.0204   20.9567 C   0  0  0  0  0  0  0  0  0  0  0  0
  -29.0392  -19.7189   20.1073 C   0  0  0  0  0  0  0  0  0  0  0  0
  -22.3371   -8.1456   21.4664 C   0  0  0  0  0  0  0  0  0  0  0  0
  -23.7155  -22.2371   21.3635 C   0  0  0  0  0  0  0  0  0  0  0  0
  -20.3140   -6.9736   21.2296 C   0  0  0  0  0  0  0  0  0  0  0  0
  -17.6995   -6.8805   20.2610 C   0  0  0  0  0  0  0  0  0  0  0  0
  -19.9398   -5.9783   20.3269 C   0  0  0  0  0  0  0  0  0  0  0  0
  -24.5936  -11.6421   20.7047 C   0  0  0  0  0  0  0  0  0  0  0  0
  -25.2585  -13.7257   20.4772 C   0  0  0  0  0  0  0  0  0  0  0  0
  -26.6936  -20.0903   20.9936 C   0  0  0  0  0  0  0  0  0  0  0  0
  -22.8964  -13.4927   21.2612 C   0  0  0  0  0  0  0  0  0  0  0  0
  -21.3423  -27.0811   20.7571 C   0  0  0  0  0  0  0  0  0  0  0  0
  -19.9130  -26.6256   23.6332 C   0  0  0  0  0  0  0  0  0  0  0  0
  -19.4778  -24.6323   26.3690 C   0  0  0  0  0  0  0  0  0  0  0  0
  -30.7424  -14.7447   20.6613 C   0  0  0  0  0  0  0  0  0  0  0  0
  -20.1435  -31.3938   18.3035 C   0  0  0  0  0  0  0  0  0  0  0  0
  -20.3580  -24.7778   20.4708 C   0  0  0  0  0  0  0  0  0  0  0  0
  -21.7907  -25.0471   23.0437 C   0  0  0  0  0  0  0  0  0  0  0  0
  -20.2978  -30.9750   19.7633 C   0  0  0  0  0  0  0  0  0  0  0  0
  -29.6031  -12.3585   18.2770 C   0  0  0  0  0  0  0  0  0  0  0  0
  -21.6105  -30.2254   19.9677 C   0  0  0  0  0  0  0  0  0  0  0  0
  -28.1660  -12.0651   18.7110 C   0  0  0  0  0  0  0  0  0  0  0  0
  -26.2269  -22.1130   19.8230 C   0  0  0  0  0  0  0  0  0  0  0  0
  -30.5211  -12.5801   19.4771 C   0  0  0  0  0  0  0  0  0  0  0  0
  -27.4379  -21.4433   19.2065 C   0  0  0  0  0  0  0  0  0  0  0  0
  -28.6202  -13.3123   20.8644 C   0  0  0  0  0  0  0  0  0  0  0  0
  -21.6478  -28.9402   19.1320 C   0  0  1  0  0  0  0  0  0  0  0  0
  -25.5414  -20.9771   20.5597 C   0  0  2  0  0  0  0  0  0  1  0  0
  -20.3438  -26.0800   21.2655 C   0  0  1  0  0  0  0  0  0  0  0  0
  -27.6453  -13.1369   19.6875 C   0  0  2  0  0  0  0  0  0  0  0  0
  -18.2794  -24.5449   28.5720 C   0  0  0  0  0  0  0  0  0  0  0  0
  -21.9329  -28.5883   24.8072 C   0  0  0  0  0  0  0  0  0  0  0  0
  -21.3217  -27.7470   27.0847 C   0  0  0  0  0  0  0  0  0  0  0  0
  -19.5984  -28.8570   25.6631 C   0  0  0  0  0  0  0  0  0  0  0  0
  -17.9736  -22.2068   25.5860 C   0  0  0  0  0  0  0  0  0  0  0  0
  -30.8091  -16.8961   21.8966 C   0  0  0  0  0  0  0  0  0  0  0  0
  -20.3914  -26.5328   25.0621 C   0  0  1  0  0  0  0  0  0  0  0  0
  -18.2247  -24.1800   27.0966 C   0  0  2  0  0  0  0  0  0  0  0  0
  -20.8205  -27.9133   25.6343 C   0  0  0  0  0  0  0  0  0  0  0  0
  -25.8582  -11.5460   20.2857 N   0  0  0  0  0  0  0  0  0  0  0  0
  -26.2351  -12.8294   20.1562 N   0  0  0  0  0  0  0  0  0  0  0  0
  -27.7756  -20.3816   20.1381 N   0  0  0  0  0  0  0  0  0  0  0  0
  -20.6283  -25.8774   22.6876 N   0  0  0  0  0  0  0  0  0  0  0  0
  -29.9711  -13.6093   20.3627 N   0  0  0  0  0  0  0  0  0  0  0  0
  -25.4689  -15.0571   20.4031 N   0  0  0  0  0  0  0  0  0  0  0  0
  -21.8846  -12.5838   21.5997 N   0  0  0  0  0  0  0  0  0  0  0  0
  -20.8552  -27.9053   19.7608 N   0  0  0  0  0  0  0  0  0  0  0  0
  -19.3205  -25.8828   25.8097 N   0  0  0  0  0  0  0  0  0  0  0  0
  -30.1438  -15.6741   21.5030 N   0  0  0  0  0  0  0  0  0  0  0  0
  -18.0647  -22.7027   26.9834 N   0  3  0  0  0  0  0  0  0  0  0  0
  -26.6042  -19.2814   21.9053 O   0  0  0  0  0  0  0  0  0  0  0  0
  -22.6602  -14.7234   21.3178 O   0  0  0  0  0  0  0  0  0  0  0  0
  -22.4707  -27.1049   21.2346 O   0  0  0  0  0  0  0  0  0  0  0  0
  -18.9361  -27.3303   23.3672 O   0  0  0  0  0  0  0  0  0  0  0  0
  -20.4959  -23.9466   26.3063 O   0  0  0  0  0  0  0  0  0  0  0  0
  -31.8780  -14.9198   20.2068 O   0  0  0  0  0  0  0  0  0  0  0  0
  -21.6112   -7.0207   21.7120 O   0  0  0  0  0  0  0  0  0  0  0  0
  -24.7736  -21.4293   21.6463 O   0  0  0  0  0  0  0  0  0  1  0  0
  -16.4438   -6.8350   19.7971 F   0  0  0  0  0  0  0  0  0  0  0  0
  -20.8314   -5.0635   19.9221 F   0  0  0  0  0  0  0  0  0  0  0  0
  1  2  1  0  0  0  0
  1  6  2  0  0  0  0
  2  7  2  0  0  0  0
  3  9  1  0  0  0  0
  3 10  2  0  0  0  0
  4 11  2  0  0  0  0
  4 19  1  0  0  0  0
  5 12  1  0  0  0  0
  5 19  2  0  0  0  0
  6 21  1  0  0  0  0
  7 23  1  0  0  0  0
  8 13  2  0  0  0  0
  8 22  1  0  0  0  0
  9 25  2  0  0  0  0
 10 26  1  0  0  0  0
 11 27  1  0  0  0  0
 12 27  2  0  0  0  0
 13 28  1  0  0  0  0
 14 15  2  0  0  0  0
 14 29  1  0  0  0  0
 15 30  1  0  0  0  0
 16 24  1  0  0  0  0
 16 28  2  0  0  0  0
 17 25  1  0  0  0  0
 17 26  2  0  0  0  0
 18 30  2  0  0  0  0
 18 31  1  0  0  0  0
 19 32  1  0  0  0  0
 20 32  1  0  0  0  0
 20 33  2  0  0  0  0
 20 35  1  0  0  0  0
 21 23  2  0  0  0  0
 21 40  1  0  0  0  0
 22 24  2  0  0  0  0
 22 41  1  0  0  0  0
 23 51  1  0  0  0  0
 24 42  1  0  0  0  0
 25 60  1  0  0  0  0
 26 66  1  0  0  0  0
 27 81  1  0  0  0  0
 28 82  1  0  0  0  0
 29 31  2  0  0  0  0
 29 81  1  0  0  0  0
 30 83  1  0  0  0  0
 31 84  1  0  0  0  0
 32 64  2  0  0  0  0
 33 65  1  0  0  0  0
 33 69  1  0  0  0  0
 34 52  1  0  0  0  0
 34 66  1  0  0  0  0
 34 75  2  0  0  0  0
 35 70  1  0  0  0  0
 35 76  2  0  0  0  0
 36 53  1  0  0  0  0
 36 71  1  0  0  0  0
 36 77  2  0  0  0  0
 37 61  1  0  0  0  0
 37 67  1  0  0  0  0
 37 78  2  0  0  0  0
 38 62  1  0  0  0  0
 38 72  1  0  0  0  0
 38 79  2  0  0  0  0
 39 68  1  0  0  0  0
 39 73  1  0  0  0  0
 39 80  2  0  0  0  0
 40 43  1  0  0  0  0
 41 53  1  0  0  0  0
 42 67  1  0  0  0  0
 43 45  1  0  0  0  0
 44 46  1  0  0  0  0
 44 48  1  0  0  0  0
 45 51  1  0  0  0  0
 46 54  1  0  0  0  0
 47 49  1  0  0  0  0
 47 52  1  0  0  0  0
 48 68  1  0  0  0  0
 49 66  1  0  0  0  0
 50 54  1  0  0  0  0
 50 68  1  0  0  0  0
 51 71  1  0  0  0  0
 52 82  1  0  0  0  0
 53 67  1  0  0  0  0
 54 65  1  0  0  0  0
 55 62  1  0  0  0  0
 56 63  1  0  0  0  0
 57 63  1  0  0  0  0
 58 63  1  0  0  0  0
 59 74  1  0  0  0  0
 60 73  1  0  0  0  0
 61 63  1  0  0  0  0
 61 72  1  0  0  0  0
 62 74  1  0  0  0  0
 64 65  1  0  0  0  0
M  CHG  1  74   1
M  ISO  4  39 100  52 101  73 100  82 101
M  END
> <Batch ID>
0026

> <Smiles>
CNC(C)C(=O)NC(C(=O)N1Cc2cc([101O:1][101CH:1]3CCN(c4cccc(C[100NH:0][100C:0](=O)N5CCCC(n6nc(-c7ccc(Oc8ccc(F)cc8F)cc7)c(C(N)=O)c6N)C5)c4)C3=O)ccc2CC1C(=O)NC1CCCc2ccccc21)C(C)(C)C

> <Shape>
0.223

> <Color>
0.191

> <Negative vol penalty>
0.000

$$$$

  -OEChem-04042321253D

 85 94  0     1  0  0  0  0  0999 V2000
  -30.6145  -24.4340   17.3801 C   0  0  0  0  0  0  0  0  0  0  0  0
  -29.3829  -24.3685   18.0237 C   0  0  0  0  0  0  0  0  0  0  0  0
  -23.8294  -24.0884   25.1853 C   0  0  0  0  0  0  0  0  0  0  0  0
  -27.7197  -14.6278   19.1480 C   0  0  0  0  0  0  0  0  0  0  0  0
  -25.8465  -15.4604   20.4266 C   0  0  0  0  0  0  0  0  0  0  0  0
  -31.6089  -25.2826   17.8648 C   0  0  0  0  0  0  0  0  0  0  0  0
  -29.1453  -25.1509   19.1533 C   0  0  0  0  0  0  0  0  0  0  0  0
  -24.6145  -27.4098   19.0341 C   0  0  0  0  0  0  0  0  0  0  0  0
  -22.5316  -23.8241   24.7477 C   0  0  0  0  0  0  0  0  0  0  0  0
  -24.9210  -23.6259   24.4503 C   0  0  0  0  0  0  0  0  0  0  0  0
  -27.3601  -13.3199   19.4728 C   0  0  0  0  0  0  0  0  0  0  0  0
  -25.4868  -14.1524   20.7514 C   0  0  0  0  0  0  0  0  0  0  0  0
  -23.5047  -26.6278   19.3512 C   0  0  0  0  0  0  0  0  0  0  0  0
  -23.8981  -11.5659   19.2660 C   0  0  0  0  0  0  0  0  0  0  0  0
  -22.5501  -11.2221   19.1651 C   0  0  0  0  0  0  0  0  0  0  0  0
  -23.4961  -27.5540   21.5786 C   0  0  0  0  0  0  0  0  0  0  0  0
  -22.5140  -10.6733   21.5177 C   0  0  0  0  0  0  0  0  0  0  0  0
  -26.9629  -15.6981   19.6250 C   0  0  0  0  0  0  0  0  0  0  0  0
  -27.4285  -17.6111   18.0029 C   0  0  0  0  0  0  0  0  0  0  0  0
  -31.3800  -26.0829   18.9952 C   0  0  0  0  0  0  0  0  0  0  0  0
  -25.1811  -28.2631   19.9918 C   0  0  0  0  0  0  0  0  0  0  0  0
  -30.1381  -26.0100   19.6544 C   0  0  0  0  0  0  0  0  0  0  0  0
  -24.6115  -28.3477   21.2703 C   0  0  0  0  0  0  0  0  0  0  0  0
  -22.3254  -23.0973   23.5752 C   0  0  0  0  0  0  0  0  0  0  0  0
  -23.4170  -22.6348   22.8402 C   0  0  0  0  0  0  0  0  0  0  0  0
  -24.7148  -22.8991   23.2777 C   0  0  0  0  0  0  0  0  0  0  0  0
  -26.2436  -13.0822   20.2745 C   0  0  0  0  0  0  0  0  0  0  0  0
  -22.9470  -26.6977   20.6244 C   0  0  0  0  0  0  0  0  0  0  0  0
  -24.5541  -11.4635   20.4927 C   0  0  0  0  0  0  0  0  0  0  0  0
  -21.8580  -10.7758   20.2909 C   0  0  0  0  0  0  0  0  0  0  0  0
  -23.8621  -11.0172   21.6186 C   0  0  0  0  0  0  0  0  0  0  0  0
  -27.3343  -17.0495   19.2903 C   0  0  0  0  0  0  0  0  0  0  0  0
  -27.8139  -18.9110   18.2227 C   0  0  0  0  0  0  0  0  0  0  0  0
  -27.1890  -17.0115   16.7227 C   0  0  0  0  0  0  0  0  0  0  0  0
  -28.0163  -28.4707   21.4139 C   0  0  0  0  0  0  0  0  0  0  0  0
  -26.7610  -31.1940   22.6510 C   0  0  0  0  0  0  0  0  0  0  0  0
  -23.9772  -32.9744   23.5039 C   0  0  0  0  0  0  0  0  0  0  0  0
  -27.1841  -22.6269   22.8595 C   0  0  0  0  0  0  0  0  0  0  0  0
  -32.5018  -26.9497   19.5101 C   0  0  0  0  0  0  0  0  0  0  0  0
  -26.3619  -29.1199   19.6258 C   0  0  0  0  0  0  0  0  0  0  0  0
  -25.1697  -29.2630   22.3282 C   0  0  0  0  0  0  0  0  0  0  0  0
  -32.0401  -28.0242   20.4912 C   0  0  0  0  0  0  0  0  0  0  0  0
  -30.2412  -21.6216   21.3363 C   0  0  0  0  0  0  0  0  0  0  0  0
  -18.2470  -24.1182   21.2403 C   0  0  0  0  0  0  0  0  0  0  0  0
  -31.0955  -27.4281   21.5301 C   0  0  0  0  0  0  0  0  0  0  0  0
  -29.8501  -20.3898   20.5168 C   0  0  0  0  0  0  0  0  0  0  0  0
  -18.9927  -25.4316   21.3687 C   0  0  0  0  0  0  0  0  0  0  0  0
  -29.4768  -21.6902   22.6572 C   0  0  0  0  0  0  0  0  0  0  0  0
  -27.6252  -20.3661   21.7152 C   0  0  0  0  0  0  0  0  0  0  0  0
  -19.3535  -23.0840   21.1627 C   0  0  0  0  0  0  0  0  0  0  0  0
  -29.8338  -26.8615   20.8678 C   0  0  1  0  0  0  0  0  0  0  0  0
  -27.1711  -29.5713   20.8377 C   0  0  1  0  0  0  0  0  0  0  0  0
  -28.3216  -20.2881   20.3468 C   0  0  2  0  0  0  0  0  0  0  0  0
  -20.1012  -25.0929   22.3543 C   0  0  2  0  0  0  0  0  0  0  0  0
  -23.1907  -21.8555   21.5826 C   0  0  0  0  0  0  0  0  0  0  0  0
  -22.6136  -34.9285   24.2909 C   0  0  0  0  0  0  0  0  0  0  0  0
  -27.4930  -30.1276   25.4145 C   0  0  0  0  0  0  0  0  0  0  0  0
  -25.9517  -31.8341   26.4047 C   0  0  0  0  0  0  0  0  0  0  0  0
  -27.9385  -32.5664   25.0858 C   0  0  0  0  0  0  0  0  0  0  0  0
  -23.7803  -34.0871   20.7685 C   0  0  0  0  0  0  0  0  0  0  0  0
  -20.9192  -22.8272   23.1272 C   0  0  0  0  0  0  0  0  0  0  0  0
  -21.2984  -26.0213   22.2656 C   0  0  0  0  0  0  0  0  0  1  0  0
  -25.9643  -31.5392   23.8860 C   0  0  1  0  0  0  0  0  0  0  0  0
  -23.5822  -34.4156   23.2366 C   0  0  2  0  0  0  0  0  0  0  0  0
  -26.8273  -31.4980   25.1786 C   0  0  0  0  0  0  0  0  0  0  0  0
  -27.6357  -17.9211   20.2564 N   0  0  0  0  0  0  0  0  0  0  0  0
  -27.9231  -19.0436   19.5757 N   0  0  0  0  0  0  0  0  0  0  0  0
  -26.3286  -30.0760   21.9238 N   0  0  0  0  0  0  0  0  0  0  0  0
  -28.0353  -21.5922   22.4175 N   0  0  0  0  0  0  0  0  0  0  0  0
  -28.0666  -19.9420   17.3887 N   0  0  0  0  0  0  0  0  0  0  0  0
  -25.8949  -17.0723   16.1881 N   0  0  0  0  0  0  0  0  0  0  0  0
  -25.8381  -22.4395   22.5466 N   0  0  0  0  0  0  0  0  0  0  0  0
  -28.9217  -27.9303   20.5209 N   0  0  0  0  0  0  0  0  0  0  0  0
  -25.3436  -32.8330   23.6228 N   0  0  0  0  0  0  0  0  0  0  0  0
  -20.4999  -23.6757   21.9655 N   0  3  1  0  0  0  0  0  0  0  0  0
  -22.9305  -34.5351   21.9017 N   0  3  0  0  0  0  0  0  0  0  0  0
  -28.0920  -16.4244   16.0797 O   0  0  0  0  0  0  0  0  0  0  0  0
  -27.8596  -28.1375   22.5827 O   0  0  0  0  0  0  0  0  0  0  0  0
  -27.7270  -31.8949   22.3390 O   0  0  0  0  0  0  0  0  0  0  0  0
  -23.1555  -32.0656   23.6013 O   0  0  0  0  0  0  0  0  0  0  0  0
  -27.6207  -23.6202   23.4467 O   0  0  0  0  0  0  0  0  0  0  0  0
  -25.8923  -11.8060   20.5914 O   0  0  0  0  0  0  0  0  0  0  0  0
  -21.8641  -25.9351   20.9368 O   0  0  0  0  0  0  0  0  0  1  0  0
  -20.5631  -10.4471   20.1942 F   0  0  0  0  0  0  0  0  0  0  0  0
  -24.4866  -10.9178   22.8000 F   0  0  0  0  0  0  0  0  0  0  0  0
  1  2  1  0  0  0  0
  1  6  2  0  0  0  0
  2  7  2  0  0  0  0
  3  9  2  0  0  0  0
  3 10  1  0  0  0  0
  4 11  2  0  0  0  0
  4 18  1  0  0  0  0
  5 12  1  0  0  0  0
  5 18  2  0  0  0  0
  6 20  1  0  0  0  0
  7 22  1  0  0  0  0
  8 13  2  0  0  0  0
  8 21  1  0  0  0  0
  9 24  1  0  0  0  0
 10 26  2  0  0  0  0
 11 27  1  0  0  0  0
 12 27  2  0  0  0  0
 13 28  1  0  0  0  0
 14 15  2  0  0  0  0
 14 29  1  0  0  0  0
 15 30  1  0  0  0  0
 16 23  1  0  0  0  0
 16 28  2  0  0  0  0
 17 30  2  0  0  0  0
 17 31  1  0  0  0  0
 18 32  1  0  0  0  0
 19 32  1  0  0  0  0
 19 33  2  0  0  0  0
 19 34  1  0  0  0  0
 20 22  2  0  0  0  0
 20 39  1  0  0  0  0
 21 23  2  0  0  0  0
 21 40  1  0  0  0  0
 22 51  1  0  0  0  0
 23 41  1  0  0  0  0
 24 25  2  0  0  0  0
 24 61  1  0  0  0  0
 25 26  1  0  0  0  0
 25 55  1  0  0  0  0
 26 72  1  0  0  0  0
 27 82  1  0  0  0  0
 28 83  1  0  0  0  0
 29 31  2  0  0  0  0
 29 82  1  0  0  0  0
 30 84  1  0  0  0  0
 31 85  1  0  0  0  0
 32 66  2  0  0  0  0
 33 67  1  0  0  0  0
 33 70  1  0  0  0  0
 34 71  1  0  0  0  0
 34 77  2  0  0  0  0
 35 52  1  0  0  0  0
 35 73  1  0  0  0  0
 35 78  2  0  0  0  0
 36 63  1  0  0  0  0
 36 68  1  0  0  0  0
 36 79  2  0  0  0  0
 37 64  1  0  0  0  0
 37 74  1  0  0  0  0
 37 80  2  0  0  0  0
 38 69  1  0  0  0  0
 38 72  1  0  0  0  0
 38 81  2  0  0  0  0
 39 42  1  0  0  0  0
 40 52  1  0  0  0  0
 41 68  1  0  0  0  0
 42 45  1  0  0  0  0
 43 46  1  0  0  0  0
 43 48  1  0  0  0  0
 44 47  1  0  0  0  0
 44 50  1  0  0  0  0
 45 51  1  0  0  0  0
 46 53  1  0  0  0  0
 47 54  1  0  0  0  0
 48 69  1  0  0  0  0
 49 53  1  0  0  0  0
 49 69  1  0  0  0  0
 50 75  1  0  0  0  0
 51 73  1  0  0  0  0
 52 68  1  0  0  0  0
 53 67  1  0  0  0  0
 54 62  1  0  0  0  0
 54 75  1  0  0  0  0
 56 64  1  0  0  0  0
 57 65  1  0  0  0  0
 58 65  1  0  0  0  0
 59 65  1  0  0  0  0
 60 76  1  0  0  0  0
 61 75  1  0  0  0  0
 62 83  1  0  0  0  0
 63 65  1  0  0  0  0
 63 74  1  0  0  0  0
 64 76  1  0  0  0  0
 66 67  1  0  0  0  0
M  CHG  2  75   1  76   1
M  ISO  4  38 100  62 101  72 100  83 101
M  END
> <Batch ID>
0026

> <Smiles>
CNC(C)C(=O)NC(C(=O)N1Cc2cc([101O:1][101CH2:1]C3CCCN3Cc3cccc([100NH:0][100C:0](=O)N4CCCC(n5nc(-c6ccc(Oc7ccc(F)cc7F)cc6)c(C(N)=O)c5N)C4)c3C)ccc2CC1C(=O)NC1CCCc2ccccc21)C(C)(C)C

> <Shape>
0.280

> <Color>
0.059

> <Negative vol penalty>
0.000

$$$$

  -OEChem-04042321253D

 85 94  0     1  0  0  0  0  0999 V2000
  -27.3742  -34.6443   25.3131 C   0  0  0  0  0  0  0  0  0  0  0  0
  -26.4279  -34.3720   24.3304 C   0  0  0  0  0  0  0  0  0  0  0  0
  -24.7775   -8.0278   20.7343 C   0  0  0  0  0  0  0  0  0  0  0  0
  -23.2616   -9.8861   20.4416 C   0  0  0  0  0  0  0  0  0  0  0  0
  -28.6970  -34.2408   25.1364 C   0  0  0  0  0  0  0  0  0  0  0  0
  -26.8041  -33.6968   23.1698 C   0  0  0  0  0  0  0  0  0  0  0  0
  -23.6913  -27.4666   21.3298 C   0  0  0  0  0  0  0  0  0  0  0  0
  -23.7060   -7.2105   21.0943 C   0  0  0  0  0  0  0  0  0  0  0  0
  -22.1901   -9.0688   20.8015 C   0  0  0  0  0  0  0  0  0  0  0  0
  -22.9967  -26.3789   20.8000 C   0  0  0  0  0  0  0  0  0  0  0  0
  -21.7987   -6.6663   23.8311 C   0  0  0  0  0  0  0  0  0  0  0  0
  -21.9606   -5.8385   24.9420 C   0  0  0  0  0  0  0  0  0  0  0  0
  -24.5215  -26.3049   18.9245 C   0  0  0  0  0  0  0  0  0  0  0  0
  -23.9688  -18.9870   18.2678 C   0  0  0  0  0  0  0  0  0  0  0  0
  -25.9625  -19.0767   20.2171 C   0  0  0  0  0  0  0  0  0  0  0  0
  -21.5781   -3.8992   23.5528 C   0  0  0  0  0  0  0  0  0  0  0  0
  -24.5553   -9.3657   20.4080 C   0  0  0  0  0  0  0  0  0  0  0  0
  -26.5433  -10.0300   18.9540 C   0  0  0  0  0  0  0  0  0  0  0  0
  -29.0876  -33.5518   23.9774 C   0  0  0  0  0  0  0  0  0  0  0  0
  -24.8142  -27.9684   20.6660 C   0  0  0  0  0  0  0  0  0  0  0  0
  -28.1337  -33.2848   22.9768 C   0  0  0  0  0  0  0  0  0  0  0  0
  -25.2287  -27.3863   19.4568 C   0  0  0  0  0  0  0  0  0  0  0  0
  -24.4881  -20.2148   18.6782 C   0  0  0  0  0  0  0  0  0  0  0  0
  -25.4431  -17.8489   19.8067 C   0  0  0  0  0  0  0  0  0  0  0  0
  -22.4124   -7.7310   21.1279 C   0  0  0  0  0  0  0  0  0  0  0  0
  -23.4107  -25.7997   19.6003 C   0  0  0  0  0  0  0  0  0  0  0  0
  -21.5263   -6.1106   22.5810 C   0  0  0  0  0  0  0  0  0  0  0  0
  -21.8504   -4.4550   24.8029 C   0  0  0  0  0  0  0  0  0  0  0  0
  -25.4850  -20.2596   19.6528 C   0  0  0  0  0  0  0  0  0  0  0  0
  -21.4161   -4.7270   22.4418 C   0  0  0  0  0  0  0  0  0  0  0  0
  -24.4462  -17.8041   18.8321 C   0  0  0  0  0  0  0  0  0  0  0  0
  -25.6617  -10.2106   20.0366 C   0  0  0  0  0  0  0  0  0  0  0  0
  -27.4085  -11.0937   19.0346 C   0  0  0  0  0  0  0  0  0  0  0  0
  -26.5769   -8.9935   17.9639 C   0  0  0  0  0  0  0  0  0  0  0  0
  -27.5943  -30.4874   20.6238 C   0  0  0  0  0  0  0  0  0  0  0  0
  -28.7884  -27.8265   19.6731 C   0  0  0  0  0  0  0  0  0  0  0  0
  -29.8052  -24.6247   19.0796 C   0  0  0  0  0  0  0  0  0  0  0  0
  -26.9385  -16.5696   21.3795 C   0  0  0  0  0  0  0  0  0  0  0  0
  -30.5389  -33.1773   23.8099 C   0  0  0  0  0  0  0  0  0  0  0  0
  -25.5562  -29.1772   21.1681 C   0  0  0  0  0  0  0  0  0  0  0  0
  -26.4215  -27.9814   18.7597 C   0  0  0  0  0  0  0  0  0  0  0  0
  -30.7775  -32.1364   22.7190 C   0  0  0  0  0  0  0  0  0  0  0  0
  -29.3633  -14.0984   22.2102 C   0  0  0  0  0  0  0  0  0  0  0  0
  -23.5969  -22.7174   16.0648 C   0  0  0  0  0  0  0  0  0  0  0  0
  -30.0086  -32.5034   21.4537 C   0  0  0  0  0  0  0  0  0  0  0  0
  -28.7724  -12.8055   21.6432 C   0  0  0  0  0  0  0  0  0  0  0  0
  -22.9023  -23.7779   16.9056 C   0  0  0  0  0  0  0  0  0  0  0  0
  -23.5240  -21.3419   16.7237 C   0  0  0  0  0  0  0  0  0  0  0  0
  -28.2814  -15.0153   22.7780 C   0  0  0  0  0  0  0  0  0  0  0  0
  -26.5861  -14.0233   21.2910 C   0  0  0  0  0  0  0  0  0  0  0  0
  -23.4105  -22.4225   18.9752 C   0  0  0  0  0  0  0  0  0  0  0  0
  -28.4979  -32.5327   21.7151 C   0  0  1  0  0  0  0  0  0  0  0  0
  -27.0707  -29.1091   20.9023 C   0  0  1  0  0  0  0  0  0  0  0  0
  -27.6310  -13.0962   20.6490 C   0  0  2  0  0  0  0  0  0  0  0  0
  -23.4766  -23.8011   18.3166 C   0  0  2  0  0  0  0  0  0  1  0  0
  -31.8430  -23.2812   18.4966 C   0  0  0  0  0  0  0  0  0  0  0  0
  -28.5980  -28.7967   16.7875 C   0  0  0  0  0  0  0  0  0  0  0  0
  -29.9427  -26.7992   16.1019 C   0  0  0  0  0  0  0  0  0  0  0  0
  -30.9314  -28.4990   17.6366 C   0  0  0  0  0  0  0  0  0  0  0  0
  -29.6321  -23.0591   21.5851 C   0  0  0  0  0  0  0  0  0  0  0  0
  -29.1366  -26.9429   18.5020 C   0  0  1  0  0  0  0  0  0  0  0  0
  -30.9741  -23.8220   19.6215 C   0  0  2  0  0  0  0  0  0  0  0  0
  -29.6278  -27.7562   17.2713 C   0  0  0  0  0  0  0  0  0  0  0  0
  -25.9414  -11.3029   20.7526 N   0  0  0  0  0  0  0  0  0  0  0  0
  -27.0084  -11.8183   20.1186 N   0  0  0  0  0  0  0  0  0  0  0  0
  -24.0081  -21.4014   18.1100 N   0  0  1  0  0  0  0  0  0  0  0  0
  -27.4713  -28.2967   19.7411 N   0  0  0  0  0  0  0  0  0  0  0  0
  -27.2362  -15.2496   21.7792 N   0  0  0  0  0  0  0  0  0  0  0  0
  -28.4650  -11.4704   18.2833 N   0  0  0  0  0  0  0  0  0  0  0  0
  -25.6142   -7.9769   18.0278 N   0  0  0  0  0  0  0  0  0  0  0  0
  -25.9500  -16.6665   20.4006 N   0  0  0  0  0  0  0  0  0  0  0  0
  -27.9658  -31.1875   21.7558 N   0  0  0  0  0  0  0  0  0  0  0  0
  -30.1024  -25.9688   18.9986 N   0  0  0  0  0  0  0  0  0  0  0  0
  -30.4816  -22.6709   20.4298 N   0  3  0  0  0  0  0  0  0  0  0  0
  -27.4454   -8.9606   17.0593 O   0  0  0  0  0  0  0  0  0  0  0  0
  -27.6584  -30.8870   19.4671 O   0  0  0  0  0  0  0  0  0  0  0  0
  -29.6600  -28.0986   20.5034 O   0  0  0  0  0  0  0  0  0  0  0  0
  -28.7367  -24.1104   18.7566 O   0  0  0  0  0  0  0  0  0  0  0  0
  -27.5368  -17.5406   21.8497 O   0  0  0  0  0  0  0  0  0  0  0  0
  -21.3666   -6.9337   21.4789 O   0  0  0  0  0  0  0  0  0  0  0  0
  -22.7307  -24.7352   19.0910 O   0  0  0  0  0  0  0  0  0  1  0  0
  -22.0075   -3.6601   25.8695 F   0  0  0  0  0  0  0  0  0  0  0  0
  -25.9911  -21.4341   20.0550 F   0  0  0  0  0  0  0  0  0  0  0  0
  -21.1558   -4.1873   21.2432 F   0  0  0  0  0  0  0  0  0  0  0  0
  -23.7736  -16.3054   18.2966 Cl  0  0  0  0  0  0  0  0  0  0  0  0
  1  2  1  0  0  0  0
  1  5  2  0  0  0  0
  2  6  2  0  0  0  0
  3  8  2  0  0  0  0
  3 17  1  0  0  0  0
  4  9  1  0  0  0  0
  4 17  2  0  0  0  0
  5 19  1  0  0  0  0
  6 21  1  0  0  0  0
  7 10  2  0  0  0  0
  7 20  1  0  0  0  0
  8 25  1  0  0  0  0
  9 25  2  0  0  0  0
 10 26  1  0  0  0  0
 11 12  2  0  0  0  0
 11 27  1  0  0  0  0
 12 28  1  0  0  0  0
 13 22  1  0  0  0  0
 13 26  2  0  0  0  0
 14 23  1  0  0  0  0
 14 31  2  0  0  0  0
 15 24  2  0  0  0  0
 15 29  1  0  0  0  0
 16 28  2  0  0  0  0
 16 30  1  0  0  0  0
 17 32  1  0  0  0  0
 18 32  1  0  0  0  0
 18 33  2  0  0  0  0
 18 34  1  0  0  0  0
 19 21  2  0  0  0  0
 19 39  1  0  0  0  0
 20 22  2  0  0  0  0
 20 40  1  0  0  0  0
 21 52  1  0  0  0  0
 22 41  1  0  0  0  0
 23 29  2  0  0  0  0
 23 66  1  0  0  0  0
 24 31  1  0  0  0  0
 24 71  1  0  0  0  0
 25 80  1  0  0  0  0
 26 81  1  0  0  0  0
 27 30  2  0  0  0  0
 27 80  1  0  0  0  0
 28 82  1  0  0  0  0
 29 83  1  0  0  0  0
 30 84  1  0  0  0  0
 31 85  1  0  0  0  0
 32 64  2  0  0  0  0
 33 65  1  0  0  0  0
 33 69  1  0  0  0  0
 34 70  1  0  0  0  0
 34 75  2  0  0  0  0
 35 53  1  0  0  0  0
 35 72  1  0  0  0  0
 35 76  2  0  0  0  0
 36 61  1  0  0  0  0
 36 67  1  0  0  0  0
 36 77  2  0  0  0  0
 37 62  1  0  0  0  0
 37 73  1  0  0  0  0
 37 78  2  0  0  0  0
 38 68  1  0  0  0  0
 38 71  1  0  0  0  0
 38 79  2  0  0  0  0
 39 42  1  0  0  0  0
 40 53  1  0  0  0  0
 41 67  1  0  0  0  0
 42 45  1  0  0  0  0
 43 46  1  0  0  0  0
 43 49  1  0  0  0  0
 44 47  1  0  0  0  0
 44 48  1  0  0  0  0
 45 52  1  0  0  0  0
 46 54  1  0  0  0  0
 47 55  1  0  0  0  0
 48 66  1  0  0  0  0
 49 68  1  0  0  0  0
 50 54  1  0  0  0  0
 50 68  1  0  0  0  0
 51 55  1  0  0  0  0
 51 66  1  0  0  0  0
 52 72  1  0  0  0  0
 53 67  1  0  0  0  0
 54 65  1  0  0  0  0
 55 81  1  0  0  0  0
 56 62  1  0  0  0  0
 57 63  1  0  0  0  0
 58 63  1  0  0  0  0
 59 63  1  0  0  0  0
 60 74  1  0  0  0  0
 61 63  1  0  0  0  0
 61 73  1  0  0  0  0
 62 74  1  0  0  0  0
 64 65  1  0  0  0  0
M  CHG  1  74   1
M  ISO  4  38 100  55 101  71 100  81 101
M  END
> <Batch ID>
0026

> <Smiles>
CNC(C)C(=O)NC(C(=O)N1Cc2cc([101O:1][101CH:1]3CCCN(c4cc(Cl)c([100NH:0][100C:0](=O)N5CCCC(n6nc(-c7ccc(Oc8ccc(F)cc8F)cc7)c(C(N)=O)c6N)C5)cc4F)C3)ccc2CC1C(=O)NC1CCCc2ccccc21)C(C)(C)C

> <Shape>
0.225

> <Color>
0.091

> <Negative vol penalty>
0.000

$$$$

  -OEChem-04042321253D

 88 97  0     1  0  0  0  0  0999 V2000
  -18.5484  -29.9448   26.3956 C   0  0  0  0  0  0  0  0  0  0  0  0
  -19.9224  -29.7277   26.4198 C   0  0  0  0  0  0  0  0  0  0  0  0
  -30.2476  -20.7919   18.5743 C   0  0  0  0  0  0  0  0  0  0  0  0
  -24.1905   -9.7999   20.6154 C   0  0  0  0  0  0  0  0  0  0  0  0
  -22.0233  -10.1339   21.6296 C   0  0  0  0  0  0  0  0  0  0  0  0
  -17.8018  -29.5557   25.2843 C   0  0  0  0  0  0  0  0  0  0  0  0
  -20.5504  -29.1204   25.3330 C   0  0  0  0  0  0  0  0  0  0  0  0
  -26.7439  -29.1478   21.7337 C   0  0  0  0  0  0  0  0  0  0  0  0
  -29.1254  -20.0026   18.3228 C   0  0  0  0  0  0  0  0  0  0  0  0
  -30.0933  -22.0824   19.0810 C   0  0  0  0  0  0  0  0  0  0  0  0
  -23.9846   -8.4204   20.6296 C   0  0  0  0  0  0  0  0  0  0  0  0
  -21.8173   -8.7544   21.6437 C   0  0  0  0  0  0  0  0  0  0  0  0
  -27.7297  -28.2727   21.2796 C   0  0  0  0  0  0  0  0  0  0  0  0
  -22.7842   -6.1101   23.5155 C   0  0  0  0  0  0  0  0  0  0  0  0
  -22.2705   -5.5435   24.6820 C   0  0  0  0  0  0  0  0  0  0  0  0
  -26.3507  -27.7143   19.3807 C   0  0  0  0  0  0  0  0  0  0  0  0
  -20.3581   -4.7347   23.4468 C   0  0  0  0  0  0  0  0  0  0  0  0
  -23.2099  -10.6566   21.1155 C   0  0  0  0  0  0  0  0  0  0  0  0
  -24.4555  -12.7934   21.7402 C   0  0  0  0  0  0  0  0  0  0  0  0
  -18.4224  -28.9521   24.1793 C   0  0  0  0  0  0  0  0  0  0  0  0
  -25.5475  -29.3049   21.0192 C   0  0  0  0  0  0  0  0  0  0  0  0
  -19.8112  -28.7216   24.2064 C   0  0  0  0  0  0  0  0  0  0  0  0
  -25.3524  -28.5940   19.8264 C   0  0  0  0  0  0  0  0  0  0  0  0
  -27.6945  -21.7943   19.0843 C   0  0  0  0  0  0  0  0  0  0  0  0
  -27.8489  -20.5038   18.5777 C   0  0  0  0  0  0  0  0  0  0  0  0
  -28.8168  -22.5835   19.3359 C   0  0  0  0  0  0  0  0  0  0  0  0
  -22.7980   -7.8976   21.1437 C   0  0  0  0  0  0  0  0  0  0  0  0
  -27.5319  -27.5536   20.1045 C   0  0  0  0  0  0  0  0  0  0  0  0
  -22.0849   -5.9891   22.3147 C   0  0  0  0  0  0  0  0  0  0  0  0
  -21.0575   -4.8558   24.6476 C   0  0  0  0  0  0  0  0  0  0  0  0
  -20.8718   -5.3014   22.2804 C   0  0  0  0  0  0  0  0  0  0  0  0
  -23.4223  -12.0817   21.1017 C   0  0  0  0  0  0  0  0  0  0  0  0
  -24.2141  -14.1077   21.4229 C   0  0  0  0  0  0  0  0  0  0  0  0
  -25.5369  -12.3097   22.5478 C   0  0  0  0  0  0  0  0  0  0  0  0
  -22.8913  -17.9832   17.6122 C   0  0  0  0  0  0  0  0  0  0  0  0
  -22.4752  -28.7845   21.6468 C   0  0  0  0  0  0  0  0  0  0  0  0
  -22.0477  -30.1953   18.7573 C   0  0  0  0  0  0  0  0  0  0  0  0
  -23.3427  -30.9908   15.7016 C   0  0  0  0  0  0  0  0  0  0  0  0
  -17.5667  -28.5057   23.0203 C   0  0  0  0  0  0  0  0  0  0  0  0
  -24.5053  -30.2729   21.5082 C   0  0  0  0  0  0  0  0  0  0  0  0
  -24.0943  -28.7420   19.0118 C   0  0  0  0  0  0  0  0  0  0  0  0
  -18.3644  -28.2086   21.7531 C   0  0  0  0  0  0  0  0  0  0  0  0
  -20.2017  -16.3030   19.2804 C   0  0  0  0  0  0  0  0  0  0  0  0
  -19.5856  -27.3545   22.0790 C   0  0  0  0  0  0  0  0  0  0  0  0
  -20.8795  -15.0973   19.9300 C   0  0  0  0  0  0  0  0  0  0  0  0
  -24.6590  -18.6753   19.1665 C   0  0  0  0  0  0  0  0  0  0  0  0
  -20.8379  -16.6444   17.9366 C   0  0  0  0  0  0  0  0  0  0  0  0
  -26.5022  -19.2138   16.9519 C   0  0  0  0  0  0  0  0  0  0  0  0
  -22.9939  -15.6636   18.6518 C   0  0  0  0  0  0  0  0  0  0  0  0
  -20.5324  -28.0882   23.0365 C   0  0  1  0  0  0  0  0  0  0  0  0
  -24.3863  -18.0830   17.7829 C   0  0  2  0  0  0  0  0  0  0  0  0
  -23.1094  -29.9686   20.9734 C   0  0  1  0  0  0  0  0  0  0  0  0
  -25.0075  -18.9639   16.6890 C   0  0  2  0  0  0  0  0  0  0  0  0
  -22.4015  -15.3040   20.0259 C   0  0  2  0  0  0  0  0  0  0  0  0
  -26.1469  -18.9322   19.4336 C   0  0  1  0  0  0  0  0  0  0  0  0
  -26.3240  -22.3331   19.3553 C   0  0  0  0  0  0  0  0  0  0  0  0
  -24.8329  -18.3412   15.2987 C   0  0  0  0  0  0  0  0  0  0  0  0
  -26.9220  -17.6300   19.6607 C   0  0  0  0  0  0  0  0  0  0  0  0
  -22.7418  -32.1132   13.5391 C   0  0  0  0  0  0  0  0  0  0  0  0
  -20.4135  -27.7501   17.9451 C   0  0  0  0  0  0  0  0  0  0  0  0
  -20.6529  -28.4692   15.5589 C   0  0  0  0  0  0  0  0  0  0  0  0
  -19.4648  -29.9370   17.1889 C   0  0  0  0  0  0  0  0  0  0  0  0
  -25.4639  -33.0275   16.0351 C   0  0  0  0  0  0  0  0  0  0  0  0
  -29.8050  -24.7354   20.1224 C   0  0  0  0  0  0  0  0  0  0  0  0
  -29.3147  -26.0753   20.6452 C   0  0  0  0  0  0  0  0  0  1  0  0
  -21.9788  -29.7090   17.3298 C   0  0  1  0  0  0  0  0  0  0  0  0
  -23.3534  -32.2920   14.9199 C   0  0  2  0  0  0  0  0  0  0  0  0
  -20.6505  -28.9619   17.0218 C   0  0  0  0  0  0  0  0  0  0  0  0
  -22.5865  -12.8779   20.4297 N   0  0  0  0  0  0  0  0  0  0  0  0
  -23.0943  -14.1036   20.6442 N   0  0  0  0  0  0  0  0  0  0  0  0
  -26.7346  -19.6961   18.3179 N   0  0  1  0  0  0  0  0  0  0  0  0
  -22.2866  -16.8108   18.0658 N   0  0  0  0  0  0  0  0  0  0  0  0
  -23.1023  -29.6960   19.5347 N   0  0  0  0  0  0  0  0  0  0  0  0
  -24.8524  -15.2551   21.7368 N   0  0  0  0  0  0  0  0  0  0  0  0
  -25.3400  -12.1985   23.9310 N   0  0  0  0  0  0  0  0  0  0  0  0
  -28.6852  -23.8671   19.8394 N   0  0  0  0  0  0  0  0  0  0  0  0
  -21.3058  -29.0803   22.3209 N   0  0  0  0  0  0  0  0  0  0  0  0
  -22.2162  -30.8771   16.4886 N   0  0  0  0  0  0  0  0  0  0  0  0
  -24.7498  -32.7858   14.7550 N   0  3  0  0  0  0  0  0  0  0  0  0
  -26.6504  -12.0012   22.0594 O   0  0  0  0  0  0  0  0  0  0  0  0
  -22.2806  -18.9215   17.0937 O   0  0  0  0  0  0  0  0  0  0  0  0
  -23.0068  -27.6838   21.5599 O   0  0  0  0  0  0  0  0  0  0  0  0
  -21.2014  -30.9946   19.1654 O   0  0  0  0  0  0  0  0  0  0  0  0
  -24.2417  -30.1568   15.6192 O   0  0  0  0  0  0  0  0  0  0  0  0
  -22.5966   -6.5516   21.1574 O   0  0  0  0  0  0  0  0  0  0  0  0
  -28.4922  -26.6982   19.6594 O   0  0  0  0  0  0  0  0  0  1  0  0
  -20.5650   -4.3103   25.7675 F   0  0  0  0  0  0  0  0  0  0  0  0
  -20.1959   -5.1809   21.1295 F   0  0  0  0  0  0  0  0  0  0  0  0
  1  2  1  0  0  0  0
  1  6  2  0  0  0  0
  2  7  2  0  0  0  0
  3  9  1  0  0  0  0
  3 10  2  0  0  0  0
  4 11  2  0  0  0  0
  4 18  1  0  0  0  0
  5 12  1  0  0  0  0
  5 18  2  0  0  0  0
  6 20  1  0  0  0  0
  7 22  1  0  0  0  0
  8 13  2  0  0  0  0
  8 21  1  0  0  0  0
  9 25  2  0  0  0  0
 10 26  1  0  0  0  0
 11 27  1  0  0  0  0
 12 27  2  0  0  0  0
 13 28  1  0  0  0  0
 14 15  2  0  0  0  0
 14 29  1  0  0  0  0
 15 30  1  0  0  0  0
 16 23  1  0  0  0  0
 16 28  2  0  0  0  0
 17 30  2  0  0  0  0
 17 31  1  0  0  0  0
 18 32  1  0  0  0  0
 19 32  1  0  0  0  0
 19 33  2  0  0  0  0
 19 34  1  0  0  0  0
 20 22  2  0  0  0  0
 20 39  1  0  0  0  0
 21 23  2  0  0  0  0
 21 40  1  0  0  0  0
 22 50  1  0  0  0  0
 23 41  1  0  0  0  0
 24 25  1  0  0  0  0
 24 26  2  0  0  0  0
 24 56  1  0  0  0  0
 25 71  1  0  0  0  0
 26 76  1  0  0  0  0
 27 85  1  0  0  0  0
 28 86  1  0  0  0  0
 29 31  2  0  0  0  0
 29 85  1  0  0  0  0
 30 87  1  0  0  0  0
 31 88  1  0  0  0  0
 32 69  2  0  0  0  0
 33 70  1  0  0  0  0
 33 74  1  0  0  0  0
 34 75  1  0  0  0  0
 34 80  2  0  0  0  0
 35 51  1  0  0  0  0
 35 72  1  0  0  0  0
 35 81  2  0  0  0  0
 36 52  1  0  0  0  0
 36 77  1  0  0  0  0
 36 82  2  0  0  0  0
 37 66  1  0  0  0  0
 37 73  1  0  0  0  0
 37 83  2  0  0  0  0
 38 67  1  0  0  0  0
 38 78  1  0  0  0  0
 38 84  2  0  0  0  0
 39 42  1  0  0  0  0
 40 52  1  0  0  0  0
 41 73  1  0  0  0  0
 42 44  1  0  0  0  0
 43 45  1  0  0  0  0
 43 47  1  0  0  0  0
 44 50  1  0  0  0  0
 45 54  1  0  0  0  0
 46 51  1  0  0  0  0
 46 55  1  0  0  0  0
 47 72  1  0  0  0  0
 48 53  1  0  0  0  0
 48 71  1  0  0  0  0
 49 54  1  0  0  0  0
 49 72  1  0  0  0  0
 50 77  1  0  0  0  0
 51 53  1  0  0  0  0
 52 73  1  0  0  0  0
 53 57  1  0  0  0  0
 54 70  1  0  0  0  0
 55 58  1  0  0  0  0
 55 71  1  0  0  0  0
 59 67  1  0  0  0  0
 60 68  1  0  0  0  0
 61 68  1  0  0  0  0
 62 68  1  0  0  0  0
 63 79  1  0  0  0  0
 64 65  1  0  0  0  0
 64 76  1  0  0  0  0
 65 86  1  0  0  0  0
 66 68  1  0  0  0  0
 66 78  1  0  0  0  0
 67 79  1  0  0  0  0
 69 70  1  0  0  0  0
M  CHG  1  79   1
M  ISO  4  35 100  51 100  65 101  86 101
M  END
> <Batch ID>
0026

> <Smiles>
CNC(C)C(=O)NC(C(=O)N1Cc2cc([101O:1][101CH2:1]CNc3cccc(N4CC(C)[100CH:0]([100C:0](=O)N5CCCC(n6nc(-c7ccc(Oc8ccc(F)cc8F)cc7)c(C(N)=O)c6N)C5)CC4C)c3C)ccc2CC1C(=O)NC1CCCc2ccccc21)C(C)(C)C

> <Shape>
0.246

> <Color>
0.121

> <Negative vol penalty>
0.000

$$$$

  -OEChem-04042321253D

 84 93  0     1  0  0  0  0  0999 V2000
  -27.5229  -23.9859   17.3721 C   0  0  0  0  0  0  0  0  0  0  0  0
  -26.3897  -24.2878   18.1205 C   0  0  0  0  0  0  0  0  0  0  0  0
  -26.0736  -14.1634   20.4663 C   0  0  0  0  0  0  0  0  0  0  0  0
  -23.9348  -13.9743   21.5741 C   0  0  0  0  0  0  0  0  0  0  0  0
  -28.7617  -24.5065   17.7441 C   0  0  0  0  0  0  0  0  0  0  0  0
  -26.4948  -25.1097   19.2420 C   0  0  0  0  0  0  0  0  0  0  0  0
  -22.8314  -28.6002   19.4429 C   0  0  0  0  0  0  0  0  0  0  0  0
  -21.6396  -23.2420   26.2290 C   0  0  0  0  0  0  0  0  0  0  0  0
  -20.7714  -24.1713   25.6559 C   0  0  0  0  0  0  0  0  0  0  0  0
  -26.2577  -12.7860   20.5866 C   0  0  0  0  0  0  0  0  0  0  0  0
  -24.1189  -12.5969   21.6943 C   0  0  0  0  0  0  0  0  0  0  0  0
  -21.5750  -28.1803   19.8773 C   0  0  0  0  0  0  0  0  0  0  0  0
  -23.8420   -9.8669   19.7218 C   0  0  0  0  0  0  0  0  0  0  0  0
  -22.7642   -9.0404   19.4044 C   0  0  0  0  0  0  0  0  0  0  0  0
  -22.0397  -29.0765   22.0682 C   0  0  0  0  0  0  0  0  0  0  0  0
  -20.4272  -21.4482   25.1570 C   0  0  0  0  0  0  0  0  0  0  0  0
  -22.7822   -8.1539   21.6518 C   0  0  0  0  0  0  0  0  0  0  0  0
  -24.9122  -14.7576   20.9601 C   0  0  0  0  0  0  0  0  0  0  0  0
  -24.1089  -16.8668   19.7711 C   0  0  0  0  0  0  0  0  0  0  0  0
  -28.8804  -25.3430   18.8651 C   0  0  0  0  0  0  0  0  0  0  0  0
  -23.7072  -29.2529   20.3224 C   0  0  0  0  0  0  0  0  0  0  0  0
  -27.7366  -25.6409   19.6301 C   0  0  0  0  0  0  0  0  0  0  0  0
  -23.3057  -29.5060   21.6418 C   0  0  0  0  0  0  0  0  0  0  0  0
  -21.4675  -21.8804   25.9795 C   0  0  0  0  0  0  0  0  0  0  0  0
  -19.7311  -23.7390   24.8334 C   0  0  0  0  0  0  0  0  0  0  0  0
  -25.2804  -12.0028   21.2006 C   0  0  0  0  0  0  0  0  0  0  0  0
  -21.1800  -28.4158   21.1909 C   0  0  0  0  0  0  0  0  0  0  0  0
  -24.3900   -9.8369   21.0042 C   0  0  0  0  0  0  0  0  0  0  0  0
  -22.2343   -8.1839   20.3694 C   0  0  0  0  0  0  0  0  0  0  0  0
  -23.8601   -8.9804   21.9692 C   0  0  0  0  0  0  0  0  0  0  0  0
  -19.5590  -22.3774   24.5839 C   0  0  0  0  0  0  0  0  0  0  0  0
  -24.7216  -16.1805   20.8366 C   0  0  0  0  0  0  0  0  0  0  0  0
  -24.1772  -18.1906   20.1308 C   0  0  0  0  0  0  0  0  0  0  0  0
  -23.5296  -16.3536   18.5641 C   0  0  0  0  0  0  0  0  0  0  0  0
  -26.5959  -28.6232   21.4896 C   0  0  0  0  0  0  0  0  0  0  0  0
  -26.3096  -31.5998   22.7467 C   0  0  0  0  0  0  0  0  0  0  0  0
  -24.2575  -34.1231   23.7805 C   0  0  0  0  0  0  0  0  0  0  0  0
  -24.5833  -20.9620   25.4229 C   0  0  0  0  0  0  0  0  0  0  0  0
  -30.2485  -25.8436   19.2557 C   0  0  0  0  0  0  0  0  0  0  0  0
  -25.0486  -29.7233   19.8308 C   0  0  0  0  0  0  0  0  0  0  0  0
  -24.2007  -30.2207   22.6198 C   0  0  0  0  0  0  0  0  0  0  0  0
  -30.2122  -27.0100   20.2398 C   0  0  0  0  0  0  0  0  0  0  0  0
  -26.8347  -21.2458   22.6793 C   0  0  0  0  0  0  0  0  0  0  0  0
  -29.2329  -26.7218   21.3733 C   0  0  0  0  0  0  0  0  0  0  0  0
  -26.4931  -20.0418   21.7998 C   0  0  0  0  0  0  0  0  0  0  0  0
  -26.7165  -20.9114   24.1646 C   0  0  0  0  0  0  0  0  0  0  0  0
  -25.0781  -19.1327   23.6893 C   0  0  0  0  0  0  0  0  0  0  0  0
  -18.3387  -26.1833   22.2981 C   0  0  0  0  0  0  0  0  0  0  0  0
  -20.3527  -25.7034   22.5744 C   0  0  0  0  0  0  0  0  0  0  0  0
  -27.8060  -26.5488   20.8389 C   0  0  1  0  0  0  0  0  0  0  0  0
  -26.0610  -29.9214   20.9548 C   0  0  1  0  0  0  0  0  0  0  0  0
  -25.1289  -19.4370   22.1822 C   0  0  2  0  0  0  0  0  0  0  0  0
  -19.6239  -26.6092   21.5664 C   0  0  0  0  0  0  0  0  0  1  0  0
  -24.3139  -36.4169   24.7967 C   0  0  0  0  0  0  0  0  0  0  0  0
  -26.9452  -30.3757   25.4684 C   0  0  0  0  0  0  0  0  0  0  0  0
  -26.0669  -32.4636   26.5348 C   0  0  0  0  0  0  0  0  0  0  0  0
  -28.0527  -32.5745   25.0292 C   0  0  0  0  0  0  0  0  0  0  0  0
  -22.9186  -35.3238   21.4301 C   0  0  0  0  0  0  0  0  0  0  0  0
  -22.3956  -20.8868   26.5923 C   0  0  0  0  0  0  0  0  0  0  0  0
  -18.8188  -24.7701   24.2372 C   0  0  0  0  0  0  0  0  0  0  0  0
  -25.7642  -32.1686   24.0343 C   0  0  1  0  0  0  0  0  0  0  0  0
  -24.2787  -35.6157   23.5046 C   0  0  2  0  0  0  0  0  0  0  0  0
  -26.6909  -31.8804   25.2490 C   0  0  0  0  0  0  0  0  0  0  0  0
  -25.1480  -17.0005   21.8008 N   0  0  0  0  0  0  0  0  0  0  0  0
  -24.8028  -18.2157   21.3426 N   0  0  0  0  0  0  0  0  0  0  0  0
  -25.5050  -30.6555   22.0933 N   0  0  0  0  0  0  0  0  0  0  0  0
  -25.3991  -20.3435   24.4612 N   0  0  0  0  0  0  0  0  0  0  0  0
  -23.7628  -19.3239   19.5257 N   0  0  0  0  0  0  0  0  0  0  0  0
  -23.5435  -14.9682   18.3529 N   0  0  0  0  0  0  0  0  0  0  0  0
  -27.2189  -27.8371   20.5391 N   0  0  0  0  0  0  0  0  0  0  0  0
  -25.5278  -33.5867   23.7863 N   0  0  0  0  0  0  0  0  0  0  0  0
  -23.3481  -20.3632   25.6387 N   0  0  0  0  0  0  0  0  0  0  0  0
  -19.0726  -25.0065   22.7991 N   0  3  0  0  0  0  0  0  0  0  0  0
  -23.0672  -36.0175   22.7353 N   0  3  0  0  0  0  0  0  0  0  0  0
  -23.0296  -17.1028   17.6911 O   0  0  0  0  0  0  0  0  0  0  0  0
  -26.4553  -28.3551   22.6771 O   0  0  0  0  0  0  0  0  0  0  0  0
  -27.4058  -31.9845   22.3321 O   0  0  0  0  0  0  0  0  0  0  0  0
  -23.2184  -33.4964   23.9753 O   0  0  0  0  0  0  0  0  0  0  0  0
  -24.9277  -21.9760   26.0394 O   0  0  0  0  0  0  0  0  0  0  0  0
  -25.4596  -10.6586   21.3180 O   0  0  0  0  0  0  0  0  0  0  0  0
  -19.9544  -28.0064   21.6178 O   0  0  0  0  0  0  0  0  0  1  0  0
  -21.1982   -7.3914   20.0649 F   0  0  0  0  0  0  0  0  0  0  0  0
  -24.3815   -8.9480   23.2032 F   0  0  0  0  0  0  0  0  0  0  0  0
  -18.2824  -21.8060   23.5723 Cl  0  0  0  0  0  0  0  0  0  0  0  0
  1  2  1  0  0  0  0
  1  5  2  0  0  0  0
  2  6  2  0  0  0  0
  3 10  2  0  0  0  0
  3 18  1  0  0  0  0
  4 11  1  0  0  0  0
  4 18  2  0  0  0  0
  5 20  1  0  0  0  0
  6 22  1  0  0  0  0
  7 12  2  0  0  0  0
  7 21  1  0  0  0  0
  8  9  2  0  0  0  0
  8 24  1  0  0  0  0
  9 25  1  0  0  0  0
 10 26  1  0  0  0  0
 11 26  2  0  0  0  0
 12 27  1  0  0  0  0
 13 14  2  0  0  0  0
 13 28  1  0  0  0  0
 14 29  1  0  0  0  0
 15 23  1  0  0  0  0
 15 27  2  0  0  0  0
 16 24  2  0  0  0  0
 16 31  1  0  0  0  0
 17 29  2  0  0  0  0
 17 30  1  0  0  0  0
 18 32  1  0  0  0  0
 19 32  1  0  0  0  0
 19 33  2  0  0  0  0
 19 34  1  0  0  0  0
 20 22  2  0  0  0  0
 20 39  1  0  0  0  0
 21 23  2  0  0  0  0
 21 40  1  0  0  0  0
 22 50  1  0  0  0  0
 23 41  1  0  0  0  0
 24 59  1  0  0  0  0
 25 31  2  0  0  0  0
 25 60  1  0  0  0  0
 26 80  1  0  0  0  0
 27 81  1  0  0  0  0
 28 30  2  0  0  0  0
 28 80  1  0  0  0  0
 29 82  1  0  0  0  0
 30 83  1  0  0  0  0
 31 84  1  0  0  0  0
 32 64  2  0  0  0  0
 33 65  1  0  0  0  0
 33 68  1  0  0  0  0
 34 69  1  0  0  0  0
 34 75  2  0  0  0  0
 35 51  1  0  0  0  0
 35 70  1  0  0  0  0
 35 76  2  0  0  0  0
 36 61  1  0  0  0  0
 36 66  1  0  0  0  0
 36 77  2  0  0  0  0
 37 62  1  0  0  0  0
 37 71  1  0  0  0  0
 37 78  2  0  0  0  0
 38 67  1  0  0  0  0
 38 72  1  0  0  0  0
 38 79  2  0  0  0  0
 39 42  1  0  0  0  0
 40 51  1  0  0  0  0
 41 66  1  0  0  0  0
 42 44  1  0  0  0  0
 43 45  1  0  0  0  0
 43 46  1  0  0  0  0
 44 50  1  0  0  0  0
 45 52  1  0  0  0  0
 46 67  1  0  0  0  0
 47 52  1  0  0  0  0
 47 67  1  0  0  0  0
 48 53  1  0  0  0  0
 48 73  1  0  0  0  0
 49 53  1  0  0  0  0
 49 73  1  0  0  0  0
 50 70  1  0  0  0  0
 51 66  1  0  0  0  0
 52 65  1  0  0  0  0
 53 81  1  0  0  0  0
 54 62  1  0  0  0  0
 55 63  1  0  0  0  0
 56 63  1  0  0  0  0
 57 63  1  0  0  0  0
 58 74  1  0  0  0  0
 59 72  1  0  0  0  0
 60 73  1  0  0  0  0
 61 63  1  0  0  0  0
 61 71  1  0  0  0  0
 62 74  1  0  0  0  0
 64 65  1  0  0  0  0
M  CHG  2  73   1  74   1
M  ISO  4  38 100  53 101  72 100  81 101
M  END
> <Batch ID>
0026

> <Smiles>
CNC(C)C(=O)NC(C(=O)N1Cc2cc([101O:1][101CH:1]3CN(Cc4ccc(C[100NH:0][100C:0](=O)N5CCCC(n6nc(-c7ccc(Oc8ccc(F)cc8F)cc7)c(C(N)=O)c6N)C5)cc4Cl)C3)ccc2CC1C(=O)NC1CCCc2ccccc21)C(C)(C)C

> <Shape>
0.281

> <Color>
0.074

> <Negative vol penalty>
0.000

$$$$

  -OEChem-04042321253D

 87 97  0     1  0  0  0  0  0999 V2000
  -24.5209  -36.1566   23.6775 C   0  0  0  0  0  0  0  0  0  0  0  0
  -25.3710  -35.7247   22.6645 C   0  0  0  0  0  0  0  0  0  0  0  0
  -26.6875  -12.8622   19.5773 C   0  0  0  0  0  0  0  0  0  0  0  0
  -25.2951  -13.3261   21.4965 C   0  0  0  0  0  0  0  0  0  0  0  0
  -24.2867  -35.3416   24.7842 C   0  0  0  0  0  0  0  0  0  0  0  0
  -25.9884  -34.4779   22.7583 C   0  0  0  0  0  0  0  0  0  0  0  0
  -28.2609  -29.0520   18.6702 C   0  0  0  0  0  0  0  0  0  0  0  0
  -26.4371  -11.4981   19.7253 C   0  0  0  0  0  0  0  0  0  0  0  0
  -25.0446  -11.9619   21.6445 C   0  0  0  0  0  0  0  0  0  0  0  0
  -29.3985  -28.2794   18.4406 C   0  0  0  0  0  0  0  0  0  0  0  0
  -23.0672   -9.6246   20.2137 C   0  0  0  0  0  0  0  0  0  0  0  0
  -21.7506   -9.2312   20.4529 C   0  0  0  0  0  0  0  0  0  0  0  0
  -28.9803  -22.7057   18.1327 C   0  0  0  0  0  0  0  0  0  0  0  0
  -28.8576  -26.9233   20.3609 C   0  0  0  0  0  0  0  0  0  0  0  0
  -29.6085  -23.8666   16.0862 C   0  0  0  0  0  0  0  0  0  0  0  0
  -22.4279   -8.2385   22.5488 C   0  0  0  0  0  0  0  0  0  0  0  0
  -26.1165  -13.7763   20.4629 C   0  0  0  0  0  0  0  0  0  0  0  0
  -27.8037  -22.3549   17.4991 C   0  0  0  0  0  0  0  0  0  0  0  0
  -27.6260  -15.8300   20.3570 C   0  0  0  0  0  0  0  0  0  0  0  0
  -24.8939  -34.0801   24.8870 C   0  0  0  0  0  0  0  0  0  0  0  0
  -27.4175  -28.7723   19.7550 C   0  0  0  0  0  0  0  0  0  0  0  0
  -25.7632  -33.6458   23.8680 C   0  0  0  0  0  0  0  0  0  0  0  0
  -27.7085  -27.6922   20.6005 C   0  0  0  0  0  0  0  0  0  0  0  0
  -27.5089  -22.7381   16.1948 C   0  0  0  0  0  0  0  0  0  0  0  0
  -29.8924  -23.4725   17.4064 C   0  0  0  0  0  0  0  0  0  0  0  0
  -25.6156  -11.0479   20.7589 C   0  0  0  0  0  0  0  0  0  0  0  0
  -29.6986  -27.2167   19.2877 C   0  0  0  0  0  0  0  0  0  0  0  0
  -24.0643   -9.3249   21.1420 C   0  0  0  0  0  0  0  0  0  0  0  0
  -21.4309   -8.5382   21.6205 C   0  0  0  0  0  0  0  0  0  0  0  0
  -28.4069  -23.5003   15.4712 C   0  0  0  0  0  0  0  0  0  0  0  0
  -23.7446   -8.6319   22.3096 C   0  0  0  0  0  0  0  0  0  0  0  0
  -26.3753  -15.1855   20.3109 C   0  0  0  0  0  0  0  0  0  0  0  0
  -27.3356  -17.1578   20.1590 C   0  0  0  0  0  0  0  0  0  0  0  0
  -26.6789  -21.5707   18.0142 C   0  0  0  0  0  0  0  0  0  0  0  0
  -28.9335  -15.2778   20.5604 C   0  0  0  0  0  0  0  0  0  0  0  0
  -26.5065  -30.3577   22.3551 C   0  0  0  0  0  0  0  0  0  0  0  0
  -24.5487  -27.8021   22.7528 C   0  0  0  0  0  0  0  0  0  0  0  0
  -23.9138  -24.5111   22.1102 C   0  0  0  0  0  0  0  0  0  0  0  0
  -24.4486  -20.9084   17.0143 C   0  0  0  0  0  0  0  0  0  0  0  0
  -24.6475  -33.2544   26.1248 C   0  0  0  0  0  0  0  0  0  0  0  0
  -26.1798  -29.5986   19.9733 C   0  0  0  0  0  0  0  0  0  0  0  0
  -26.8244  -27.3378   21.7672 C   0  0  0  0  0  0  0  0  0  0  0  0
  -26.1704  -22.2301   15.7967 C   0  0  0  0  0  0  0  0  0  0  0  0
  -25.0465  -31.7892   25.9691 C   0  0  0  0  0  0  0  0  0  0  0  0
  -22.9345  -19.6246   20.1372 C   0  0  0  0  0  0  0  0  0  0  0  0
  -33.2138  -23.4188   18.8851 C   0  0  0  0  0  0  0  0  0  0  0  0
  -26.4259  -31.6769   25.3275 C   0  0  0  0  0  0  0  0  0  0  0  0
  -23.7521  -18.3645   20.4131 C   0  0  0  0  0  0  0  0  0  0  0  0
  -33.1536  -24.8855   18.4970 C   0  0  0  0  0  0  0  0  0  0  0  0
  -31.7451  -23.0307   19.0045 C   0  0  0  0  0  0  0  0  0  0  0  0
  -22.8670  -19.9406   18.6463 C   0  0  0  0  0  0  0  0  0  0  0  0
  -25.0254  -18.7861   18.2716 C   0  0  0  0  0  0  0  0  0  0  0  0
  -26.4320  -32.2893   23.9217 C   0  0  1  0  0  0  0  0  0  0  0  0
  -25.6697  -29.5428   21.4100 C   0  0  1  0  0  0  0  0  0  0  0  0
  -25.1451  -18.4679   19.7698 C   0  0  2  0  0  0  0  0  0  0  0  0
  -31.9355  -24.9708   17.5608 C   0  0  2  0  0  0  0  0  0  0  0  0
  -22.2567  -22.6920   22.6023 C   0  0  0  0  0  0  0  0  0  0  0  0
  -25.7064  -27.5105   25.5608 C   0  0  0  0  0  0  0  0  0  0  0  0
  -24.7561  -25.1954   25.6367 C   0  0  0  0  0  0  0  0  0  0  0  0
  -23.2349  -27.1594   25.4097 C   0  0  0  0  0  0  0  0  0  0  0  0
  -23.2498  -24.1815   19.2450 C   0  0  0  0  0  0  0  0  0  0  0  0
  -31.2496  -26.3236   17.7217 C   0  0  0  0  0  0  0  0  0  1  0  0
  -24.6637  -26.4645   23.4430 C   0  0  1  0  0  0  0  0  0  0  0  0
  -22.6570  -23.8006   21.6413 C   0  0  2  0  0  0  0  0  0  0  0  0
  -24.6082  -26.5900   24.9918 C   0  0  0  0  0  0  0  0  0  0  0  0
  -25.3655  -16.0340   20.1004 N   0  0  0  0  0  0  0  0  0  0  0  0
  -25.9813  -17.2253   20.0125 N   0  0  0  0  0  0  0  0  0  0  0  0
  -31.0865  -23.8496   17.9879 N   0  0  3  0  0  0  0  0  0  0  0  0
  -25.7557  -21.4246   16.9487 N   0  0  0  0  0  0  0  0  0  0  0  0
  -25.6292  -28.1794   21.9428 N   0  0  0  0  0  0  0  0  0  0  0  0
  -24.1983  -19.9798   18.0396 N   0  0  0  0  0  0  0  0  0  0  0  0
  -28.1091  -18.2625   20.0979 N   0  0  0  0  0  0  0  0  0  0  0  0
  -29.4186  -15.1745   21.8712 N   0  0  0  0  0  0  0  0  0  0  0  0
  -25.8186  -31.3843   22.9735 N   0  0  0  0  0  0  0  0  0  0  0  0
  -23.6186  -25.6204   22.8741 N   0  0  0  0  0  0  0  0  0  0  0  0
  -22.8733  -23.2000   20.2947 N   0  3  0  0  0  0  0  0  0  0  0  0
  -26.6194  -21.1700   19.1628 O   0  0  0  0  0  0  0  0  0  0  0  0
  -29.6569  -14.9027   19.6067 O   0  0  0  0  0  0  0  0  0  0  0  0
  -27.6885  -30.0752   22.5128 O   0  0  0  0  0  0  0  0  0  0  0  0
  -23.5344  -28.4839   22.9203 O   0  0  0  0  0  0  0  0  0  0  0  0
  -25.0445  -24.1190   21.8302 O   0  0  0  0  0  0  0  0  0  0  0  0
  -23.5671  -21.2973   16.2396 O   0  0  0  0  0  0  0  0  0  0  0  0
  -25.3708   -9.7168   20.9035 O   0  0  0  0  0  0  0  0  0  0  0  0
  -30.8186  -26.4546   19.0643 O   0  0  0  0  0  0  0  0  0  1  0  0
  -20.1662   -8.1618   21.8508 F   0  0  0  0  0  0  0  0  0  0  0  0
  -28.1385  -23.8814   14.2167 F   0  0  0  0  0  0  0  0  0  0  0  0
  -24.6980   -8.3422   23.2057 F   0  0  0  0  0  0  0  0  0  0  0  0
  1  2  1  0  0  0  0
  1  5  2  0  0  0  0
  2  6  2  0  0  0  0
  3  8  2  0  0  0  0
  3 17  1  0  0  0  0
  4  9  1  0  0  0  0
  4 17  2  0  0  0  0
  5 20  1  0  0  0  0
  6 22  1  0  0  0  0
  7 10  2  0  0  0  0
  7 21  1  0  0  0  0
  8 26  1  0  0  0  0
  9 26  2  0  0  0  0
 10 27  1  0  0  0  0
 11 12  2  0  0  0  0
 11 28  1  0  0  0  0
 12 29  1  0  0  0  0
 13 18  1  0  0  0  0
 13 25  2  0  0  0  0
 14 23  1  0  0  0  0
 14 27  2  0  0  0  0
 15 25  1  0  0  0  0
 15 30  2  0  0  0  0
 16 29  2  0  0  0  0
 16 31  1  0  0  0  0
 17 32  1  0  0  0  0
 18 24  2  0  0  0  0
 18 34  1  0  0  0  0
 19 32  1  0  0  0  0
 19 33  2  0  0  0  0
 19 35  1  0  0  0  0
 20 22  2  0  0  0  0
 20 40  1  0  0  0  0
 21 23  2  0  0  0  0
 21 41  1  0  0  0  0
 22 53  1  0  0  0  0
 23 42  1  0  0  0  0
 24 30  1  0  0  0  0
 24 43  1  0  0  0  0
 25 68  1  0  0  0  0
 26 83  1  0  0  0  0
 27 84  1  0  0  0  0
 28 31  2  0  0  0  0
 28 83  1  0  0  0  0
 29 85  1  0  0  0  0
 30 86  1  0  0  0  0
 31 87  1  0  0  0  0
 32 66  2  0  0  0  0
 33 67  1  0  0  0  0
 33 72  1  0  0  0  0
 34 69  1  0  0  0  0
 34 77  2  0  0  0  0
 35 73  1  0  0  0  0
 35 78  2  0  0  0  0
 36 54  1  0  0  0  0
 36 74  1  0  0  0  0
 36 79  2  0  0  0  0
 37 63  1  0  0  0  0
 37 70  1  0  0  0  0
 37 80  2  0  0  0  0
 38 64  1  0  0  0  0
 38 75  1  0  0  0  0
 38 81  2  0  0  0  0
 39 69  1  0  0  0  0
 39 71  1  0  0  0  0
 39 82  2  0  0  0  0
 40 44  1  0  0  0  0
 41 54  1  0  0  0  0
 42 70  1  0  0  0  0
 43 69  1  0  0  0  0
 44 47  1  0  0  0  0
 45 48  1  0  0  0  0
 45 51  1  0  0  0  0
 46 49  1  0  0  0  0
 46 50  1  0  0  0  0
 47 53  1  0  0  0  0
 48 55  1  0  0  0  0
 49 56  1  0  0  0  0
 50 68  1  0  0  0  0
 51 71  1  0  0  0  0
 52 55  1  0  0  0  0
 52 71  1  0  0  0  0
 53 74  1  0  0  0  0
 54 70  1  0  0  0  0
 55 67  1  0  0  0  0
 56 62  1  0  0  0  0
 56 68  1  0  0  0  0
 57 64  1  0  0  0  0
 58 65  1  0  0  0  0
 59 65  1  0  0  0  0
 60 65  1  0  0  0  0
 61 76  1  0  0  0  0
 62 84  1  0  0  0  0
 63 65  1  0  0  0  0
 63 75  1  0  0  0  0
 64 76  1  0  0  0  0
 66 67  1  0  0  0  0
M  CHG  1  76   1
M  ISO  4  39 100  62 101  69 100  84 101
M  END
> <Batch ID>
0026

> <Smiles>
CNC(C)C(=O)NC(C(=O)N1Cc2cc([101O:1][101CH2:1]C3CCCN3c3cc(F)c4c(c3)C(=O)[100N:0]([100C:0](=O)N3CCCC(n5nc(-c6ccc(Oc7ccc(F)cc7F)cc6)c(C(N)=O)c5N)C3)C4)ccc2CC1C(=O)NC1CCCc2ccccc21)C(C)(C)C

> <Shape>
0.247

> <Color>
0.062

> <Negative vol penalty>
0.000

$$$$

  -OEChem-04042321253D

 84 93  0     1  0  0  0  0  0999 V2000
  -31.4568  -34.9750   24.2386 C   0  0  0  0  0  0  0  0  0  0  0  0
  -31.5854  -33.6660   23.7854 C   0  0  0  0  0  0  0  0  0  0  0  0
  -23.3202   -9.7001   20.0709 C   0  0  0  0  0  0  0  0  0  0  0  0
  -23.7918  -10.0815   22.4095 C   0  0  0  0  0  0  0  0  0  0  0  0
  -30.3784  -35.3281   25.0487 C   0  0  0  0  0  0  0  0  0  0  0  0
  -30.6363  -32.7091   24.1430 C   0  0  0  0  0  0  0  0  0  0  0  0
  -28.6551  -28.0311   20.7229 C   0  0  0  0  0  0  0  0  0  0  0  0
  -22.6367   -8.5295   20.3996 C   0  0  0  0  0  0  0  0  0  0  0  0
  -23.1083   -8.9109   22.7383 C   0  0  0  0  0  0  0  0  0  0  0  0
  -28.9971  -26.6798   20.6935 C   0  0  0  0  0  0  0  0  0  0  0  0
  -19.8969   -7.9179   23.0873 C   0  0  0  0  0  0  0  0  0  0  0  0
  -19.0075   -7.9682   24.1607 C   0  0  0  0  0  0  0  0  0  0  0  0
  -27.1273  -26.1815   22.1339 C   0  0  0  0  0  0  0  0  0  0  0  0
  -30.6783  -18.2003   20.4819 C   0  0  0  0  0  0  0  0  0  0  0  0
  -28.9286  -19.9167   21.8142 C   0  0  0  0  0  0  0  0  0  0  0  0
  -20.2865   -6.2646   25.3004 C   0  0  0  0  0  0  0  0  0  0  0  0
  -23.8978  -10.4761   21.0758 C   0  0  0  0  0  0  0  0  0  0  0  0
  -24.0681  -12.9827   20.6336 C   0  0  0  0  0  0  0  0  0  0  0  0
  -29.4104  -34.3773   25.4086 C   0  0  0  0  0  0  0  0  0  0  0  0
  -27.5512  -28.4699   21.4681 C   0  0  0  0  0  0  0  0  0  0  0  0
  -29.5447  -33.0495   24.9599 C   0  0  0  0  0  0  0  0  0  0  0  0
  -26.7719  -27.5385   22.1690 C   0  0  0  0  0  0  0  0  0  0  0  0
  -30.7699  -19.5784   20.2871 C   0  0  0  0  0  0  0  0  0  0  0  0
  -29.8951  -20.4366   20.9532 C   0  0  0  0  0  0  0  0  0  0  0  0
  -29.7118  -17.6804   21.3429 C   0  0  0  0  0  0  0  0  0  0  0  0
  -22.5307   -8.1348   21.7333 C   0  0  0  0  0  0  0  0  0  0  0  0
  -28.2349  -25.7551   21.4013 C   0  0  0  0  0  0  0  0  0  0  0  0
  -20.9811   -7.0409   23.1205 C   0  0  0  0  0  0  0  0  0  0  0  0
  -19.2023   -7.1416   25.2672 C   0  0  0  0  0  0  0  0  0  0  0  0
  -21.1759   -6.2143   24.2270 C   0  0  0  0  0  0  0  0  0  0  0  0
  -28.8369  -18.5386   22.0090 C   0  0  0  0  0  0  0  0  0  0  0  0
  -24.6044  -11.6852   20.7369 C   0  0  0  0  0  0  0  0  0  0  0  0
  -25.1394  -13.7706   20.2899 C   0  0  0  0  0  0  0  0  0  0  0  0
  -22.7220  -13.4353   20.8308 C   0  0  0  0  0  0  0  0  0  0  0  0
  -27.1482  -30.4292   23.9384 C   0  0  0  0  0  0  0  0  0  0  0  0
  -24.0033  -29.9008   23.3448 C   0  0  0  0  0  0  0  0  0  0  0  0
  -21.6081  -27.8674   22.0124 C   0  0  0  0  0  0  0  0  0  0  0  0
  -30.4533  -15.3106   20.9178 C   0  0  0  0  0  0  0  0  0  0  0  0
  -28.2879  -34.7952   26.3251 C   0  0  0  0  0  0  0  0  0  0  0  0
  -27.1798  -29.9274   21.4680 C   0  0  0  0  0  0  0  0  0  0  0  0
  -25.5652  -27.9556   22.9679 C   0  0  0  0  0  0  0  0  0  0  0  0
  -27.1232  -33.8088   26.3508 C   0  0  0  0  0  0  0  0  0  0  0  0
  -29.8140  -12.5121   18.8113 C   0  0  0  0  0  0  0  0  0  0  0  0
  -27.6370  -32.3798   26.4954 C   0  0  0  0  0  0  0  0  0  0  0  0
  -28.3575  -12.1543   19.1160 C   0  0  0  0  0  0  0  0  0  0  0  0
  -30.2635  -23.8998   19.7405 C   0  0  0  0  0  0  0  0  0  0  0  0
  -30.5565  -12.9800   20.0617 C   0  0  0  0  0  0  0  0  0  0  0  0
  -29.8038  -22.4650   19.4826 C   0  0  0  0  0  0  0  0  0  0  0  0
  -28.4478  -13.7110   21.1048 C   0  0  0  0  0  0  0  0  0  0  0  0
  -30.2254  -22.7578   21.8506 C   0  0  0  0  0  0  0  0  0  0  0  0
  -28.5223  -31.9888   25.3060 C   0  0  1  0  0  0  0  0  0  0  0  0
  -26.3395  -30.3300   22.6760 C   0  0  1  0  0  0  0  0  0  0  0  0
  -27.6412  -13.2960   19.8635 C   0  0  2  0  0  0  0  0  0  0  0  0
  -29.9443  -24.1175   21.2124 C   0  0  2  0  0  0  0  0  0  1  0  0
  -31.8144  -20.1083   19.3593 C   0  0  0  0  0  0  0  0  0  0  0  0
  -19.1232  -27.6836   21.7143 C   0  0  0  0  0  0  0  0  0  0  0  0
  -23.7135  -29.0993   26.2746 C   0  0  0  0  0  0  0  0  0  0  0  0
  -21.5172  -28.0454   25.6967 C   0  0  0  0  0  0  0  0  0  0  0  0
  -21.8413  -30.4991   25.3859 C   0  0  0  0  0  0  0  0  0  0  0  0
  -21.8447  -27.8754   19.0624 C   0  0  0  0  0  0  0  0  0  0  0  0
  -22.9834  -28.8883   23.8071 C   0  0  1  0  0  0  0  0  0  0  0  0
  -20.4302  -28.1615   21.1010 C   0  0  2  0  0  0  0  0  0  0  0  0
  -22.5377  -29.1251   25.2777 C   0  0  0  0  0  0  0  0  0  0  0  0
  -25.9145  -11.6467   20.4795 N   0  0  0  0  0  0  0  0  0  0  0  0
  -26.2104  -12.9298   20.2110 N   0  0  0  0  0  0  0  0  0  0  0  0
  -29.9718  -21.8016   20.7722 N   0  0  3  0  0  0  0  0  0  0  0  0
  -25.2463  -29.3927   22.9417 N   0  0  0  0  0  0  0  0  0  0  0  0
  -29.8215  -14.0654   20.7148 N   0  0  0  0  0  0  0  0  0  0  0  0
  -25.2603  -15.0937   20.0505 N   0  0  0  0  0  0  0  0  0  0  0  0
  -21.7449  -12.4934   21.1806 N   0  0  0  0  0  0  0  0  0  0  0  0
  -29.6456  -16.2759   21.5182 N   0  0  0  0  0  0  0  0  0  0  0  0
  -27.7080  -31.6744   24.1516 N   0  0  0  0  0  0  0  0  0  0  0  0
  -21.8941  -28.9344   22.8377 N   0  0  0  0  0  0  0  0  0  0  0  0
  -20.6094  -27.4811   19.7873 N   0  3  0  0  0  0  0  0  0  0  0  0
  -22.3922  -14.6367   20.6845 O   0  0  0  0  0  0  0  0  0  0  0  0
  -27.2552  -29.4489   24.6660 O   0  0  0  0  0  0  0  0  0  0  0  0
  -23.7054  -31.0978   23.3347 O   0  0  0  0  0  0  0  0  0  0  0  0
  -22.2116  -26.7969   21.9966 O   0  0  0  0  0  0  0  0  0  0  0  0
  -31.6158  -15.5146   20.5589 O   0  0  0  0  0  0  0  0  0  0  0  0
  -21.8637   -6.9927   22.0544 O   0  0  0  0  0  0  0  0  0  0  0  0
  -28.5668  -24.4357   21.3748 O   0  0  0  0  0  0  0  0  0  1  0  0
  -18.3490   -7.1911   26.2985 F   0  0  0  0  0  0  0  0  0  0  0  0
  -22.2163   -5.3706   24.2651 F   0  0  0  0  0  0  0  0  0  0  0  0
  -27.6255  -17.9368   23.0839 Cl  0  0  0  0  0  0  0  0  0  0  0  0
  1  2  1  0  0  0  0
  1  5  2  0  0  0  0
  2  6  2  0  0  0  0
  3  8  2  0  0  0  0
  3 17  1  0  0  0  0
  4  9  1  0  0  0  0
  4 17  2  0  0  0  0
  5 19  1  0  0  0  0
  6 21  1  0  0  0  0
  7 10  2  0  0  0  0
  7 20  1  0  0  0  0
  8 26  1  0  0  0  0
  9 26  2  0  0  0  0
 10 27  1  0  0  0  0
 11 12  2  0  0  0  0
 11 28  1  0  0  0  0
 12 29  1  0  0  0  0
 13 22  1  0  0  0  0
 13 27  2  0  0  0  0
 14 23  1  0  0  0  0
 14 25  2  0  0  0  0
 15 24  1  0  0  0  0
 15 31  2  0  0  0  0
 16 29  2  0  0  0  0
 16 30  1  0  0  0  0
 17 32  1  0  0  0  0
 18 32  1  0  0  0  0
 18 33  2  0  0  0  0
 18 34  1  0  0  0  0
 19 21  2  0  0  0  0
 19 39  1  0  0  0  0
 20 22  2  0  0  0  0
 20 40  1  0  0  0  0
 21 51  1  0  0  0  0
 22 41  1  0  0  0  0
 23 24  2  0  0  0  0
 23 55  1  0  0  0  0
 24 66  1  0  0  0  0
 25 31  1  0  0  0  0
 25 71  1  0  0  0  0
 26 80  1  0  0  0  0
 27 81  1  0  0  0  0
 28 30  2  0  0  0  0
 28 80  1  0  0  0  0
 29 82  1  0  0  0  0
 30 83  1  0  0  0  0
 31 84  1  0  0  0  0
 32 64  2  0  0  0  0
 33 65  1  0  0  0  0
 33 69  1  0  0  0  0
 34 70  1  0  0  0  0
 34 75  2  0  0  0  0
 35 52  1  0  0  0  0
 35 72  1  0  0  0  0
 35 76  2  0  0  0  0
 36 61  1  0  0  0  0
 36 67  1  0  0  0  0
 36 77  2  0  0  0  0
 37 62  1  0  0  0  0
 37 73  1  0  0  0  0
 37 78  2  0  0  0  0
 38 68  1  0  0  0  0
 38 71  1  0  0  0  0
 38 79  2  0  0  0  0
 39 42  1  0  0  0  0
 40 52  1  0  0  0  0
 41 67  1  0  0  0  0
 42 44  1  0  0  0  0
 43 45  1  0  0  0  0
 43 47  1  0  0  0  0
 44 51  1  0  0  0  0
 45 53  1  0  0  0  0
 46 48  1  0  0  0  0
 46 54  1  0  0  0  0
 47 68  1  0  0  0  0
 48 66  1  0  0  0  0
 49 53  1  0  0  0  0
 49 68  1  0  0  0  0
 50 54  1  0  0  0  0
 50 66  1  0  0  0  0
 51 72  1  0  0  0  0
 52 67  1  0  0  0  0
 53 65  1  0  0  0  0
 54 81  1  0  0  0  0
 56 62  1  0  0  0  0
 57 63  1  0  0  0  0
 58 63  1  0  0  0  0
 59 63  1  0  0  0  0
 60 74  1  0  0  0  0
 61 63  1  0  0  0  0
 61 73  1  0  0  0  0
 62 74  1  0  0  0  0
 64 65  1  0  0  0  0
M  CHG  1  74   1
M  ISO  4  38 100  54 101  71 100  81 101
M  END
> <Batch ID>
0026

> <Smiles>
CNC(C)C(=O)NC(C(=O)N1Cc2cc([101O:1][101CH:1]3CCN(c4cc(Cl)c([100NH:0][100C:0](=O)N5CCCC(n6nc(-c7ccc(Oc8ccc(F)cc8F)cc7)c(C(N)=O)c6N)C5)cc4C)C3)ccc2CC1C(=O)NC1CCCc2ccccc21)C(C)(C)C

> <Shape>
0.343

> <Color>
0.187

> <Negative vol penalty>
0.000

$$$$

  -OEChem-04042321253D

 84 93  0     1  0  0  0  0  0999 V2000
  -27.5171  -34.2279   17.6059 C   0  0  0  0  0  0  0  0  0  0  0  0
  -27.9573  -32.9245   17.3990 C   0  0  0  0  0  0  0  0  0  0  0  0
  -22.9431  -10.1987   20.4283 C   0  0  0  0  0  0  0  0  0  0  0  0
  -24.3624   -9.2270   22.1249 C   0  0  0  0  0  0  0  0  0  0  0  0
  -27.0762  -34.6213   18.8688 C   0  0  0  0  0  0  0  0  0  0  0  0
  -27.9579  -32.0140   18.4551 C   0  0  0  0  0  0  0  0  0  0  0  0
  -26.8503  -25.9995   18.1314 C   0  0  0  0  0  0  0  0  0  0  0  0
  -32.1430  -17.9424   21.1811 C   0  0  0  0  0  0  0  0  0  0  0  0
  -31.8082  -19.2664   20.8973 C   0  0  0  0  0  0  0  0  0  0  0  0
  -22.1673   -9.0396   20.4135 C   0  0  0  0  0  0  0  0  0  0  0  0
  -23.5866   -8.0679   22.1101 C   0  0  0  0  0  0  0  0  0  0  0  0
  -27.6950  -24.8915   18.0827 C   0  0  0  0  0  0  0  0  0  0  0  0
  -20.6224   -7.0404   23.3666 C   0  0  0  0  0  0  0  0  0  0  0  0
  -20.2617   -6.4881   24.5956 C   0  0  0  0  0  0  0  0  0  0  0  0
  -27.4673  -24.6205   20.4689 C   0  0  0  0  0  0  0  0  0  0  0  0
  -21.4043   -4.4411   24.0110 C   0  0  0  0  0  0  0  0  0  0  0  0
  -24.0407  -10.2924   21.2840 C   0  0  0  0  0  0  0  0  0  0  0  0
  -24.6567  -12.6270   22.1071 C   0  0  0  0  0  0  0  0  0  0  0  0
  -27.0624  -33.7125   19.9386 C   0  0  0  0  0  0  0  0  0  0  0  0
  -26.3155  -26.4337   19.3528 C   0  0  0  0  0  0  0  0  0  0  0  0
  -27.5177  -32.3960   19.7338 C   0  0  0  0  0  0  0  0  0  0  0  0
  -26.6140  -25.7328   20.5300 C   0  0  0  0  0  0  0  0  0  0  0  0
  -31.3969  -17.2183   22.1110 C   0  0  0  0  0  0  0  0  0  0  0  0
  -30.7274  -19.8663   21.5434 C   0  0  0  0  0  0  0  0  0  0  0  0
  -22.4890   -7.9742   21.2544 C   0  0  0  0  0  0  0  0  0  0  0  0
  -28.0060  -24.2035   19.2519 C   0  0  0  0  0  0  0  0  0  0  0  0
  -21.3740   -6.2931   22.4597 C   0  0  0  0  0  0  0  0  0  0  0  0
  -20.6527   -5.1885   24.9178 C   0  0  0  0  0  0  0  0  0  0  0  0
  -21.7649   -4.9935   22.7819 C   0  0  0  0  0  0  0  0  0  0  0  0
  -30.3161  -17.8182   22.7571 C   0  0  0  0  0  0  0  0  0  0  0  0
  -29.9813  -19.1423   22.4734 C   0  0  0  0  0  0  0  0  0  0  0  0
  -24.8429  -11.4892   21.2994 C   0  0  0  0  0  0  0  0  0  0  0  0
  -25.6735  -13.4760   21.7439 C   0  0  0  0  0  0  0  0  0  0  0  0
  -23.6543  -12.8928   23.0972 C   0  0  0  0  0  0  0  0  0  0  0  0
  -26.5263  -29.0981   21.0732 C   0  0  0  0  0  0  0  0  0  0  0  0
  -24.2939  -27.6260   22.9094 C   0  0  0  0  0  0  0  0  0  0  0  0
  -22.8546  -24.7075   23.9379 C   0  0  0  0  0  0  0  0  0  0  0  0
  -31.0355  -14.3954   20.4997 C   0  0  0  0  0  0  0  0  0  0  0  0
  -26.6214  -34.1970   21.2971 C   0  0  0  0  0  0  0  0  0  0  0  0
  -25.3845  -27.6146   19.3846 C   0  0  0  0  0  0  0  0  0  0  0  0
  -26.0495  -26.1462   21.8638 C   0  0  0  0  0  0  0  0  0  0  0  0
  -26.3013  -33.0672   22.2724 C   0  0  0  0  0  0  0  0  0  0  0  0
  -28.9204  -13.2571   17.8715 C   0  0  0  0  0  0  0  0  0  0  0  0
  -27.3976  -32.0071   22.2398 C   0  0  0  0  0  0  0  0  0  0  0  0
  -27.6590  -12.7841   18.5960 C   0  0  0  0  0  0  0  0  0  0  0  0
  -30.1817  -12.9519   18.6766 C   0  0  0  0  0  0  0  0  0  0  0  0
  -28.9083  -12.9850   20.7864 C   0  0  0  0  0  0  0  0  0  0  0  0
  -29.1018  -21.7726   21.3107 C   0  0  0  0  0  0  0  0  0  0  0  0
  -30.8534  -21.9645   20.1606 C   0  0  0  0  0  0  0  0  0  0  0  0
  -27.5101  -31.3724   20.8484 C   0  0  1  0  0  0  0  0  0  0  0  0
  -25.3078  -28.2782   20.7562 C   0  0  1  0  0  0  0  0  0  0  0  0
  -27.6064  -13.3211   20.0390 C   0  0  2  0  0  0  0  0  0  0  0  0
  -29.6246  -22.8625   20.3644 C   0  0  0  0  0  0  0  0  0  1  0  0
  -21.0787  -23.8209   25.4733 C   0  0  0  0  0  0  0  0  0  0  0  0
  -26.1255  -28.1070   25.3018 C   0  0  0  0  0  0  0  0  0  0  0  0
  -24.7928  -26.4122   26.5744 C   0  0  0  0  0  0  0  0  0  0  0  0
  -23.6967  -28.4968   25.7525 C   0  0  0  0  0  0  0  0  0  0  0  0
  -21.3443  -23.5132   21.6903 C   0  0  0  0  0  0  0  0  0  0  0  0
  -31.7575  -15.8028   22.4121 C   0  0  0  0  0  0  0  0  0  0  0  0
  -24.3313  -26.6946   24.0968 C   0  0  1  0  0  0  0  0  0  0  0  0
  -21.4002  -24.2911   24.0632 C   0  0  2  0  0  0  0  0  0  0  0  0
  -24.7489  -27.4208   25.4067 C   0  0  0  0  0  0  0  0  0  0  0  0
  -25.8951  -11.6020   20.4844 N   0  0  0  0  0  0  0  0  0  0  0  0
  -26.3792  -12.8208   20.7781 N   0  0  0  0  0  0  0  0  0  0  0  0
  -30.3959  -21.1864   21.2589 N   0  0  0  0  0  0  0  0  0  0  0  0
  -25.1491  -27.3109   21.8440 N   0  0  0  0  0  0  0  0  0  0  0  0
  -30.0682  -13.4893   20.0346 N   0  0  0  0  0  0  0  0  0  0  0  0
  -26.0237  -14.7117   22.1596 N   0  0  0  0  0  0  0  0  0  0  0  0
  -22.6844  -11.9121   23.3459 N   0  0  0  0  0  0  0  0  0  0  0  0
  -26.4490  -30.4096   20.6448 N   0  0  0  0  0  0  0  0  0  0  0  0
  -23.0198  -26.0586   24.1583 N   0  0  0  0  0  0  0  0  0  0  0  0
  -30.8497  -14.8611   21.7955 N   0  0  0  0  0  0  0  0  0  0  0  0
  -21.0959  -23.1808   23.1168 N   0  3  0  0  0  0  0  0  0  0  0  0
  -23.6101  -13.9746   23.7306 O   0  0  0  0  0  0  0  0  0  0  0  0
  -27.4663  -28.5798   21.6642 O   0  0  0  0  0  0  0  0  0  0  0  0
  -23.5286  -28.5934   22.9235 O   0  0  0  0  0  0  0  0  0  0  0  0
  -23.7546  -23.9131   23.6747 O   0  0  0  0  0  0  0  0  0  0  0  0
  -31.9909  -14.7662   19.8092 O   0  0  0  0  0  0  0  0  0  0  0  0
  -21.7320   -6.8432   21.2403 O   0  0  0  0  0  0  0  0  0  0  0  0
  -28.8308  -23.1221   19.2073 O   0  0  0  0  0  0  0  0  0  1  0  0
  -20.3076   -4.6587   26.0986 F   0  0  0  0  0  0  0  0  0  0  0  0
  -22.4881   -4.2711   21.9153 F   0  0  0  0  0  0  0  0  0  0  0  0
  -29.5933  -17.1303   23.6520 F   0  0  0  0  0  0  0  0  0  0  0  0
  -28.9402  -19.7089   23.0998 F   0  0  0  0  0  0  0  0  0  0  0  0
  1  2  1  0  0  0  0
  1  5  2  0  0  0  0
  2  6  2  0  0  0  0
  3 10  2  0  0  0  0
  3 17  1  0  0  0  0
  4 11  1  0  0  0  0
  4 17  2  0  0  0  0
  5 19  1  0  0  0  0
  6 21  1  0  0  0  0
  7 12  2  0  0  0  0
  7 20  1  0  0  0  0
  8  9  2  0  0  0  0
  8 23  1  0  0  0  0
  9 24  1  0  0  0  0
 10 25  1  0  0  0  0
 11 25  2  0  0  0  0
 12 26  1  0  0  0  0
 13 14  2  0  0  0  0
 13 27  1  0  0  0  0
 14 28  1  0  0  0  0
 15 22  1  0  0  0  0
 15 26  2  0  0  0  0
 16 28  2  0  0  0  0
 16 29  1  0  0  0  0
 17 32  1  0  0  0  0
 18 32  1  0  0  0  0
 18 33  2  0  0  0  0
 18 34  1  0  0  0  0
 19 21  2  0  0  0  0
 19 39  1  0  0  0  0
 20 22  2  0  0  0  0
 20 40  1  0  0  0  0
 21 50  1  0  0  0  0
 22 41  1  0  0  0  0
 23 30  2  0  0  0  0
 23 59  1  0  0  0  0
 24 31  2  0  0  0  0
 24 65  1  0  0  0  0
 25 79  1  0  0  0  0
 26 80  1  0  0  0  0
 27 29  2  0  0  0  0
 27 79  1  0  0  0  0
 28 81  1  0  0  0  0
 29 82  1  0  0  0  0
 30 31  1  0  0  0  0
 30 83  1  0  0  0  0
 31 84  1  0  0  0  0
 32 63  2  0  0  0  0
 33 64  1  0  0  0  0
 33 68  1  0  0  0  0
 34 69  1  0  0  0  0
 34 74  2  0  0  0  0
 35 51  1  0  0  0  0
 35 70  1  0  0  0  0
 35 75  2  0  0  0  0
 36 60  1  0  0  0  0
 36 66  1  0  0  0  0
 36 76  2  0  0  0  0
 37 61  1  0  0  0  0
 37 71  1  0  0  0  0
 37 77  2  0  0  0  0
 38 67  1  0  0  0  0
 38 72  1  0  0  0  0
 38 78  2  0  0  0  0
 39 42  1  0  0  0  0
 40 51  1  0  0  0  0
 41 66  1  0  0  0  0
 42 44  1  0  0  0  0
 43 45  1  0  0  0  0
 43 46  1  0  0  0  0
 44 50  1  0  0  0  0
 45 52  1  0  0  0  0
 46 67  1  0  0  0  0
 47 52  1  0  0  0  0
 47 67  1  0  0  0  0
 48 53  1  0  0  0  0
 48 65  1  0  0  0  0
 49 53  1  0  0  0  0
 49 65  1  0  0  0  0
 50 70  1  0  0  0  0
 51 66  1  0  0  0  0
 52 64  1  0  0  0  0
 53 80  1  0  0  0  0
 54 61  1  0  0  0  0
 55 62  1  0  0  0  0
 56 62  1  0  0  0  0
 57 62  1  0  0  0  0
 58 73  1  0  0  0  0
 59 72  1  0  0  0  0
 60 62  1  0  0  0  0
 60 71  1  0  0  0  0
 61 73  1  0  0  0  0
 63 64  1  0  0  0  0
M  CHG  1  73   1
M  ISO  4  38 100  53 101  72 100  80 101
M  END
> <Batch ID>
0026

> <Smiles>
CNC(C)C(=O)NC(C(=O)N1Cc2cc([101O:1][101CH:1]3CN(c4ccc(C[100NH:0][100C:0](=O)N5CCCC(n6nc(-c7ccc(Oc8ccc(F)cc8F)cc7)c(C(N)=O)c6N)C5)c(F)c4F)C3)ccc2CC1C(=O)NC1CCCc2ccccc21)C(C)(C)C

> <Shape>
0.269

> <Color>
0.161

> <Negative vol penalty>
0.000

$$$$

  -OEChem-04042321253D

 85 94  0     1  0  0  0  0  0999 V2000
  -17.2461  -30.6608   23.9511 C   0  0  0  0  0  0  0  0  0  0  0  0
  -18.5957  -30.9984   23.9403 C   0  0  0  0  0  0  0  0  0  0  0  0
  -23.6112  -13.5010   22.5844 C   0  0  0  0  0  0  0  0  0  0  0  0
  -23.3274  -14.4479   20.3799 C   0  0  0  0  0  0  0  0  0  0  0  0
  -16.8438  -29.3885   23.5473 C   0  0  0  0  0  0  0  0  0  0  0  0
  -19.5439  -30.0634   23.5267 C   0  0  0  0  0  0  0  0  0  0  0  0
  -25.8630  -29.6257   20.1811 C   0  0  0  0  0  0  0  0  0  0  0  0
  -22.9867  -12.3279   22.1609 C   0  0  0  0  0  0  0  0  0  0  0  0
  -22.7028  -13.2748   19.9564 C   0  0  0  0  0  0  0  0  0  0  0  0
  -27.1362  -29.0834   20.3506 C   0  0  0  0  0  0  0  0  0  0  0  0
  -23.8061   -9.5724   20.3807 C   0  0  0  0  0  0  0  0  0  0  0  0
  -24.3937   -8.3593   20.7394 C   0  0  0  0  0  0  0  0  0  0  0  0
  -26.3177  -26.9422   19.5992 C   0  0  0  0  0  0  0  0  0  0  0  0
  -26.4141  -24.3650   23.4095 C   0  0  0  0  0  0  0  0  0  0  0  0
  -28.6028  -24.1389   21.6945 C   0  0  0  0  0  0  0  0  0  0  0  0
  -22.3800   -7.7325   21.9182 C   0  0  0  0  0  0  0  0  0  0  0  0
  -23.7816  -14.5610   21.6939 C   0  0  0  0  0  0  0  0  0  0  0  0
  -25.8013  -16.0704   22.0812 C   0  0  0  0  0  0  0  0  0  0  0  0
  -17.7866  -28.4406   23.1193 C   0  0  0  0  0  0  0  0  0  0  0  0
  -24.8033  -28.8263   19.7290 C   0  0  0  0  0  0  0  0  0  0  0  0
  -19.1539  -28.7767   23.1180 C   0  0  0  0  0  0  0  0  0  0  0  0
  -25.0326  -27.4774   19.4223 C   0  0  0  0  0  0  0  0  0  0  0  0
  -27.5188  -25.2004   23.5748 C   0  0  0  0  0  0  0  0  0  0  0  0
  -28.6132  -25.0874   22.7173 C   0  0  0  0  0  0  0  0  0  0  0  0
  -26.4037  -23.4165   22.3867 C   0  0  0  0  0  0  0  0  0  0  0  0
  -22.5325  -12.2148   20.8469 C   0  0  0  0  0  0  0  0  0  0  0  0
  -27.3631  -27.7408   20.0624 C   0  0  0  0  0  0  0  0  0  0  0  0
  -22.5055   -9.8656   20.7908 C   0  0  0  0  0  0  0  0  0  0  0  0
  -23.6807   -7.4393   21.5081 C   0  0  0  0  0  0  0  0  0  0  0  0
  -21.7925   -8.9457   21.5595 C   0  0  0  0  0  0  0  0  0  0  0  0
  -27.4981  -23.3035   21.5293 C   0  0  0  0  0  0  0  0  0  0  0  0
  -24.4262  -15.7733   22.1309 C   0  0  0  0  0  0  0  0  0  0  0  0
  -25.8989  -17.3340   22.6105 C   0  0  0  0  0  0  0  0  0  0  0  0
  -26.8929  -15.2753   21.5996 C   0  0  0  0  0  0  0  0  0  0  0  0
  -22.0087  -27.9129   20.9370 C   0  0  0  0  0  0  0  0  0  0  0  0
  -21.5895  -26.6398   17.9830 C   0  0  0  0  0  0  0  0  0  0  0  0
  -23.0034  -25.4354   15.1199 C   0  0  0  0  0  0  0  0  0  0  0  0
  -24.1121  -22.5909   23.0295 C   0  0  0  0  0  0  0  0  0  0  0  0
  -17.3082  -27.0623   22.7368 C   0  0  0  0  0  0  0  0  0  0  0  0
  -23.4420  -29.4328   19.5258 C   0  0  0  0  0  0  0  0  0  0  0  0
  -23.9334  -26.5815   18.9148 C   0  0  0  0  0  0  0  0  0  0  0  0
  -18.3414  -26.2536   21.9566 C   0  0  0  0  0  0  0  0  0  0  0  0
  -22.4779  -20.1568   25.0499 C   0  0  0  0  0  0  0  0  0  0  0  0
  -31.8794  -26.3947   23.6358 C   0  0  0  0  0  0  0  0  0  0  0  0
  -19.7093  -26.3489   22.6249 C   0  0  0  0  0  0  0  0  0  0  0  0
  -22.9522  -18.8239   24.4665 C   0  0  0  0  0  0  0  0  0  0  0  0
  -31.5550  -27.3502   22.5012 C   0  0  0  0  0  0  0  0  0  0  0  0
  -30.5055  -25.9234   24.0964 C   0  0  0  0  0  0  0  0  0  0  0  0
  -22.2693  -21.2095   23.9627 C   0  0  0  0  0  0  0  0  0  0  0  0
  -23.8925  -20.0859   22.4891 C   0  0  0  0  0  0  0  0  0  0  0  0
  -20.2101  -27.7981   22.6524 C   0  0  1  0  0  0  0  0  0  0  0  0
  -22.3185  -28.4011   19.5501 C   0  0  1  0  0  0  0  0  0  0  0  0
  -24.1789  -19.0133   23.5526 C   0  0  2  0  0  0  0  0  0  0  0  0
  -30.3476  -26.6998   21.8036 C   0  0  2  0  0  0  0  0  0  0  0  0
  -27.5035  -26.2074   24.6784 C   0  0  0  0  0  0  0  0  0  0  0  0
  -22.4059  -24.4310   12.8993 C   0  0  0  0  0  0  0  0  0  0  0  0
  -20.9804  -23.9818   19.3519 C   0  0  0  0  0  0  0  0  0  0  0  0
  -21.3321  -22.8461   17.1486 C   0  0  0  0  0  0  0  0  0  0  0  0
  -19.4994  -24.5182   17.4094 C   0  0  0  0  0  0  0  0  0  0  0  0
  -24.2723  -27.6626   13.6405 C   0  0  0  0  0  0  0  0  0  0  0  0
  -29.4254  -27.7793   21.2462 C   0  0  0  0  0  0  0  0  0  1  0  0
  -21.8993  -25.3105   17.3380 C   0  0  1  0  0  0  0  0  0  0  0  0
  -22.7096  -25.7141   13.6569 C   0  0  2  0  0  0  0  0  0  0  0  0
  -20.9483  -24.1803   17.8233 C   0  0  0  0  0  0  0  0  0  0  0  0
  -23.7022  -16.7681   22.6509 N   0  0  0  0  0  0  0  0  0  0  0  0
  -24.6259  -17.7025   22.9328 N   0  0  0  0  0  0  0  0  0  0  0  0
  -29.7148  -25.9062   22.8666 N   0  0  3  0  0  0  0  0  0  0  0  0
  -22.6184  -27.2197   18.7386 N   0  0  0  0  0  0  0  0  0  0  0  0
  -23.4736  -21.3375   23.1392 N   0  0  0  0  0  0  0  0  0  0  0  0
  -26.9487  -18.1548   22.8272 N   0  0  0  0  0  0  0  0  0  0  0  0
  -26.6159  -14.0000   21.0883 N   0  0  0  0  0  0  0  0  0  0  0  0
  -25.2661  -22.5836   22.2466 N   0  0  0  0  0  0  0  0  0  0  0  0
  -20.7187  -28.1818   21.3530 N   0  0  0  0  0  0  0  0  0  0  0  0
  -21.8694  -25.5390   15.8974 N   0  0  0  0  0  0  0  0  0  0  0  0
  -23.8781  -26.3761   13.0108 N   0  3  0  0  0  0  0  0  0  0  0  0
  -28.0806  -15.6770   21.6371 O   0  0  0  0  0  0  0  0  0  0  0  0
  -22.8753  -27.3337   21.5813 O   0  0  0  0  0  0  0  0  0  0  0  0
  -20.4781  -27.1483   17.8165 O   0  0  0  0  0  0  0  0  0  0  0  0
  -24.1260  -25.1504   15.5313 O   0  0  0  0  0  0  0  0  0  0  0  0
  -23.6832  -23.5908   23.6110 O   0  0  0  0  0  0  0  0  0  0  0  0
  -21.9232  -11.0701   20.4333 O   0  0  0  0  0  0  0  0  0  0  0  0
  -28.6047  -27.2089   20.2277 O   0  0  0  0  0  0  0  0  0  1  0  0
  -24.2445   -6.2738   21.8512 F   0  0  0  0  0  0  0  0  0  0  0  0
  -20.5422   -9.2212   21.9555 F   0  0  0  0  0  0  0  0  0  0  0  0
  -27.5266  -22.1427   20.2499 Cl  0  0  0  0  0  0  0  0  0  0  0  0
  1  2  1  0  0  0  0
  1  5  2  0  0  0  0
  2  6  2  0  0  0  0
  3  8  2  0  0  0  0
  3 17  1  0  0  0  0
  4  9  1  0  0  0  0
  4 17  2  0  0  0  0
  5 19  1  0  0  0  0
  6 21  1  0  0  0  0
  7 10  2  0  0  0  0
  7 20  1  0  0  0  0
  8 26  1  0  0  0  0
  9 26  2  0  0  0  0
 10 27  1  0  0  0  0
 11 12  2  0  0  0  0
 11 28  1  0  0  0  0
 12 29  1  0  0  0  0
 13 22  1  0  0  0  0
 13 27  2  0  0  0  0
 14 23  1  0  0  0  0
 14 25  2  0  0  0  0
 15 24  1  0  0  0  0
 15 31  2  0  0  0  0
 16 29  2  0  0  0  0
 16 30  1  0  0  0  0
 17 32  1  0  0  0  0
 18 32  1  0  0  0  0
 18 33  2  0  0  0  0
 18 34  1  0  0  0  0
 19 21  2  0  0  0  0
 19 39  1  0  0  0  0
 20 22  2  0  0  0  0
 20 40  1  0  0  0  0
 21 51  1  0  0  0  0
 22 41  1  0  0  0  0
 23 24  2  0  0  0  0
 23 55  1  0  0  0  0
 24 67  1  0  0  0  0
 25 31  1  0  0  0  0
 25 72  1  0  0  0  0
 26 81  1  0  0  0  0
 27 82  1  0  0  0  0
 28 30  2  0  0  0  0
 28 81  1  0  0  0  0
 29 83  1  0  0  0  0
 30 84  1  0  0  0  0
 31 85  1  0  0  0  0
 32 65  2  0  0  0  0
 33 66  1  0  0  0  0
 33 70  1  0  0  0  0
 34 71  1  0  0  0  0
 34 76  2  0  0  0  0
 35 52  1  0  0  0  0
 35 73  1  0  0  0  0
 35 77  2  0  0  0  0
 36 62  1  0  0  0  0
 36 68  1  0  0  0  0
 36 78  2  0  0  0  0
 37 63  1  0  0  0  0
 37 74  1  0  0  0  0
 37 79  2  0  0  0  0
 38 69  1  0  0  0  0
 38 72  1  0  0  0  0
 38 80  2  0  0  0  0
 39 42  1  0  0  0  0
 40 52  1  0  0  0  0
 41 68  1  0  0  0  0
 42 45  1  0  0  0  0
 43 46  1  0  0  0  0
 43 49  1  0  0  0  0
 44 47  1  0  0  0  0
 44 48  1  0  0  0  0
 45 51  1  0  0  0  0
 46 53  1  0  0  0  0
 47 54  1  0  0  0  0
 48 67  1  0  0  0  0
 49 69  1  0  0  0  0
 50 53  1  0  0  0  0
 50 69  1  0  0  0  0
 51 73  1  0  0  0  0
 52 68  1  0  0  0  0
 53 66  1  0  0  0  0
 54 61  1  0  0  0  0
 54 67  1  0  0  0  0
 56 63  1  0  0  0  0
 57 64  1  0  0  0  0
 58 64  1  0  0  0  0
 59 64  1  0  0  0  0
 60 75  1  0  0  0  0
 61 82  1  0  0  0  0
 62 64  1  0  0  0  0
 62 74  1  0  0  0  0
 63 75  1  0  0  0  0
 65 66  1  0  0  0  0
M  CHG  1  75   1
M  ISO  4  38 100  61 101  72 100  82 101
M  END
> <Batch ID>
0026

> <Smiles>
CNC(C)C(=O)NC(C(=O)N1Cc2cc([101O:1][101CH2:1]C3CCCN3c3cc(Cl)c([100NH:0][100C:0](=O)N4CCCC(n5nc(-c6ccc(Oc7ccc(F)cc7F)cc6)c(C(N)=O)c5N)C4)cc3C)ccc2CC1C(=O)NC1CCCc2ccccc21)C(C)(C)C

> <Shape>
0.202

> <Color>
0.077

> <Negative vol penalty>
0.000

$$$$

  -OEChem-04042321253D

 91101  0     1  0  0  0  0  0999 V2000
  -30.5946  -25.2642   17.9090 C   0  0  0  0  0  0  0  0  0  0  0  0
  -29.2054  -25.3356   17.8933 C   0  0  0  0  0  0  0  0  0  0  0  0
  -26.3746  -13.0777   19.8477 C   0  0  0  0  0  0  0  0  0  0  0  0
  -24.0807  -12.9193   20.5896 C   0  0  0  0  0  0  0  0  0  0  0  0
  -31.3028  -25.7263   19.0176 C   0  0  0  0  0  0  0  0  0  0  0  0
  -28.5233  -25.8683   18.9868 C   0  0  0  0  0  0  0  0  0  0  0  0
  -23.3535  -29.1489   18.8588 C   0  0  0  0  0  0  0  0  0  0  0  0
  -19.9614  -21.4264   19.1120 C   0  0  0  0  0  0  0  0  0  0  0  0
  -21.3020  -21.4917   18.7324 C   0  0  0  0  0  0  0  0  0  0  0  0
  -26.6960  -11.9481   20.6003 C   0  0  0  0  0  0  0  0  0  0  0  0
  -24.4021  -11.7897   21.3422 C   0  0  0  0  0  0  0  0  0  0  0  0
  -22.0190  -28.8051   19.0700 C   0  0  0  0  0  0  0  0  0  0  0  0
  -24.9206   -8.4962   20.7908 C   0  0  0  0  0  0  0  0  0  0  0  0
  -24.0539   -7.4054   20.7222 C   0  0  0  0  0  0  0  0  0  0  0  0
  -22.2034  -29.5234   21.3655 C   0  0  0  0  0  0  0  0  0  0  0  0
  -21.5461  -23.5634   19.9513 C   0  0  0  0  0  0  0  0  0  0  0  0
  -23.6715   -7.5594   23.1027 C   0  0  0  0  0  0  0  0  0  0  0  0
  -25.0670  -13.5633   19.8424 C   0  0  0  0  0  0  0  0  0  0  0  0
  -24.8638  -14.8898   17.6729 C   0  0  0  0  0  0  0  0  0  0  0  0
  -30.6296  -26.2738   20.1211 C   0  0  0  0  0  0  0  0  0  0  0  0
  -24.1274  -29.6733   19.9041 C   0  0  0  0  0  0  0  0  0  0  0  0
  -29.2231  -26.3369   20.1117 C   0  0  0  0  0  0  0  0  0  0  0  0
  -23.5468  -29.8755   21.1643 C   0  0  0  0  0  0  0  0  0  0  0  0
  -19.4131  -22.4296   19.9112 C   0  0  0  0  0  0  0  0  0  0  0  0
  -22.0944  -22.5602   19.1521 C   0  0  0  0  0  0  0  0  0  0  0  0
  -20.2055  -23.4981   20.3308 C   0  0  0  0  0  0  0  0  0  0  0  0
  -25.7097  -11.3041   21.3475 C   0  0  0  0  0  0  0  0  0  0  0  0
  -21.4446  -28.9896   20.3242 C   0  0  0  0  0  0  0  0  0  0  0  0
  -25.1628   -9.1185   22.0155 C   0  0  0  0  0  0  0  0  0  0  0  0
  -23.4293   -6.9371   21.8781 C   0  0  0  0  0  0  0  0  0  0  0  0
  -24.5382   -8.6502   23.1714 C   0  0  0  0  0  0  0  0  0  0  0  0
  -24.7345  -14.7304   19.0656 C   0  0  0  0  0  0  0  0  0  0  0  0
  -24.4176  -16.1660   17.4304 C   0  0  0  0  0  0  0  0  0  0  0  0
  -25.3441  -13.9668   16.6865 C   0  0  0  0  0  0  0  0  0  0  0  0
  -26.7515  -28.7424   21.4375 C   0  0  0  0  0  0  0  0  0  0  0  0
  -26.4847  -31.6486   22.8535 C   0  0  0  0  0  0  0  0  0  0  0  0
  -24.4800  -34.2596   23.7539 C   0  0  0  0  0  0  0  0  0  0  0  0
  -24.2348  -21.4550   18.5287 C   0  0  0  0  0  0  0  0  0  0  0  0
  -31.4356  -26.7170   21.3164 C   0  0  0  0  0  0  0  0  0  0  0  0
  -25.5580  -30.0640   19.6529 C   0  0  0  0  0  0  0  0  0  0  0  0
  -24.3289  -30.4539   22.3141 C   0  0  0  0  0  0  0  0  0  0  0  0
  -30.6574  -27.6115   22.2780 C   0  0  0  0  0  0  0  0  0  0  0  0
  -17.5564  -27.3353   23.6174 C   0  0  0  0  0  0  0  0  0  0  0  0
  -18.1150  -28.7517   23.7023 C   0  0  0  0  0  0  0  0  0  0  0  0
  -15.9584  -21.4533   20.9230 C   0  0  0  0  0  0  0  0  0  0  0  0
  -15.8369  -22.9607   20.8282 C   0  0  0  0  0  0  0  0  0  0  0  0
  -21.9947  -19.4397   20.4165 C   0  0  0  0  0  0  0  0  0  0  0  0
  -29.2773  -27.0239   22.5552 C   0  0  0  0  0  0  0  0  0  0  0  0
  -18.5984  -26.3504   23.0935 C   0  0  0  0  0  0  0  0  0  0  0  0
  -22.5292  -18.0378   20.1256 C   0  0  0  0  0  0  0  0  0  0  0  0
  -18.6856  -29.2057   22.3644 C   0  0  0  0  0  0  0  0  0  0  0  0
  -17.4628  -21.2443   21.0528 C   0  0  0  0  0  0  0  0  0  0  0  0
  -17.0299  -23.3403   19.9584 C   0  0  0  0  0  0  0  0  0  0  0  0
  -23.1224  -20.4574   20.5912 C   0  0  0  0  0  0  0  0  0  0  0  0
  -24.6176  -19.0874   19.1729 C   0  0  0  0  0  0  0  0  0  0  0  0
  -28.4487  -26.9309   21.2683 C   0  0  1  0  0  0  0  0  0  0  0  0
  -26.3972  -30.1101   20.9261 C   0  0  1  0  0  0  0  0  0  0  0  0
  -19.1768  -26.7956   21.7432 C   0  0  1  0  0  0  0  0  0  0  0  0
  -23.5048  -18.0547   18.9356 C   0  0  1  0  0  0  0  0  0  0  0  0
  -19.7327  -28.2273   21.8299 C   0  0  1  0  0  0  0  0  0  1  0  0
  -24.5402  -36.4740   24.9331 C   0  0  0  0  0  0  0  0  0  0  0  0
  -26.6077  -30.2110   25.5420 C   0  0  0  0  0  0  0  0  0  0  0  0
  -25.7244  -32.2925   26.6167 C   0  0  0  0  0  0  0  0  0  0  0  0
  -27.9207  -32.3368   25.4347 C   0  0  0  0  0  0  0  0  0  0  0  0
  -24.0372  -23.9269   18.3672 C   0  0  0  0  0  0  0  0  0  0  0  0
  -23.6051  -35.7075   21.3255 C   0  0  0  0  0  0  0  0  0  0  0  0
  -20.2481  -25.8082   21.2728 C   0  0  0  0  0  0  0  0  0  0  0  0
  -25.7892  -32.1785   24.0842 C   0  0  1  0  0  0  0  0  0  0  0  0
  -24.6477  -35.7599   23.5947 C   0  0  2  0  0  0  0  0  0  0  0  0
  -26.4960  -31.7420   25.3985 C   0  0  0  0  0  0  0  0  0  0  0  0
  -24.2447  -15.8185   19.6658 N   0  0  0  0  0  0  0  0  0  0  0  0
  -24.0624  -16.6738   18.6454 N   0  0  0  0  0  0  0  0  0  0  0  0
  -18.0579  -22.3437   20.2829 N   0  0  0  0  0  0  0  0  0  0  0  0
  -25.7258  -30.8144   22.0204 N   0  0  0  0  0  0  0  0  0  0  0  0
  -24.0495  -20.4086   19.4519 N   0  0  0  0  0  0  0  0  0  0  0  0
  -24.2986  -16.8922   16.2986 N   0  0  0  0  0  0  0  0  0  0  0  0
  -24.4237  -13.1072   16.0715 N   0  0  0  0  0  0  0  0  0  0  0  0
  -19.6758  -24.5132   21.1320 N   0  0  0  0  0  0  0  0  0  0  0  0
  -27.9221  -28.2307   20.9111 N   0  0  0  0  0  0  0  0  0  0  0  0
  -25.6936  -33.6236   23.9087 N   0  0  0  0  0  0  0  0  0  0  0  0
  -23.4826  -22.6268   18.7597 N   0  0  0  0  0  0  0  0  0  0  0  0
  -23.5998  -36.3047   22.6858 N   0  3  0  0  0  0  0  0  0  0  0  0
  -26.5563  -13.8947   16.3720 O   0  0  0  0  0  0  0  0  0  0  0  0
  -26.0179  -28.1927   22.2508 O   0  0  0  0  0  0  0  0  0  0  0  0
  -27.6557  -31.9691   22.6355 O   0  0  0  0  0  0  0  0  0  0  0  0
  -23.3819  -33.7076   23.7459 O   0  0  0  0  0  0  0  0  0  0  0  0
  -25.0302  -21.3601   17.5863 O   0  0  0  0  0  0  0  0  0  0  0  0
  -26.0229  -10.2018   22.0818 O   0  0  0  0  0  0  0  0  0  0  0  0
  -20.1424  -28.6543   20.5332 O   0  0  0  0  0  0  0  0  0  1  0  0
  -22.5958   -5.8906   21.8118 F   0  0  0  0  0  0  0  0  0  0  0  0
  -24.7661   -9.2447   24.3506 F   0  0  0  0  0  0  0  0  0  0  0  0
  1  2  1  0  0  0  0
  1  5  2  0  0  0  0
  2  6  2  0  0  0  0
  3 10  2  0  0  0  0
  3 18  1  0  0  0  0
  4 11  1  0  0  0  0
  4 18  2  0  0  0  0
  5 20  1  0  0  0  0
  6 22  1  0  0  0  0
  7 12  2  0  0  0  0
  7 21  1  0  0  0  0
  8  9  2  0  0  0  0
  8 24  1  0  0  0  0
  9 25  1  0  0  0  0
 10 27  1  0  0  0  0
 11 27  2  0  0  0  0
 12 28  1  0  0  0  0
 13 14  2  0  0  0  0
 13 29  1  0  0  0  0
 14 30  1  0  0  0  0
 15 23  1  0  0  0  0
 15 28  2  0  0  0  0
 16 25  2  0  0  0  0
 16 26  1  0  0  0  0
 17 30  2  0  0  0  0
 17 31  1  0  0  0  0
 18 32  1  0  0  0  0
 19 32  1  0  0  0  0
 19 33  2  0  0  0  0
 19 34  1  0  0  0  0
 20 22  2  0  0  0  0
 20 39  1  0  0  0  0
 21 23  2  0  0  0  0
 21 40  1  0  0  0  0
 22 56  1  0  0  0  0
 23 41  1  0  0  0  0
 24 26  2  0  0  0  0
 24 73  1  0  0  0  0
 25 81  1  0  0  0  0
 26 78  1  0  0  0  0
 27 88  1  0  0  0  0
 28 89  1  0  0  0  0
 29 31  2  0  0  0  0
 29 88  1  0  0  0  0
 30 90  1  0  0  0  0
 31 91  1  0  0  0  0
 32 71  2  0  0  0  0
 33 72  1  0  0  0  0
 33 76  1  0  0  0  0
 34 77  1  0  0  0  0
 34 83  2  0  0  0  0
 35 57  1  0  0  0  0
 35 79  1  0  0  0  0
 35 84  2  0  0  0  0
 36 68  1  0  0  0  0
 36 74  1  0  0  0  0
 36 85  2  0  0  0  0
 37 69  1  0  0  0  0
 37 80  1  0  0  0  0
 37 86  2  0  0  0  0
 38 75  1  0  0  0  0
 38 81  1  0  0  0  0
 38 87  2  0  0  0  0
 39 42  1  0  0  0  0
 40 57  1  0  0  0  0
 41 74  1  0  0  0  0
 42 48  1  0  0  0  0
 43 44  1  0  0  0  0
 43 49  1  0  0  0  0
 44 51  1  0  0  0  0
 45 46  1  0  0  0  0
 45 52  1  0  0  0  0
 46 53  1  0  0  0  0
 47 50  1  0  0  0  0
 47 54  1  0  0  0  0
 48 56  1  0  0  0  0
 49 58  1  0  0  0  0
 50 59  1  0  0  0  0
 51 60  1  0  0  0  0
 52 73  1  0  0  0  0
 53 73  1  0  0  0  0
 54 75  1  0  0  0  0
 55 59  1  0  0  0  0
 55 75  1  0  0  0  0
 56 79  1  0  0  0  0
 57 74  1  0  0  0  0
 58 60  1  0  0  0  0
 58 67  1  0  0  0  0
 59 72  1  0  0  0  0
 60 89  1  0  0  0  0
 61 69  1  0  0  0  0
 62 70  1  0  0  0  0
 63 70  1  0  0  0  0
 64 70  1  0  0  0  0
 65 81  1  0  0  0  0
 66 82  1  0  0  0  0
 67 78  1  0  0  0  0
 68 70  1  0  0  0  0
 68 80  1  0  0  0  0
 69 82  1  0  0  0  0
 71 72  1  0  0  0  0
M  CHG  1  82   1
M  ISO  4  38 100  60 101  81 100  89 101
M  END
> <Batch ID>
0026

> <Smiles>
CNC(C)C(=O)NC(C(=O)N1Cc2cc([101O:1][101CH:1]3CCCCC3CNc3cc([100N:0](C)[100C:0](=O)N4CCCC(n5nc(-c6ccc(Oc7ccc(F)cc7F)cc6)c(C(N)=O)c5N)C4)ccc3N3CCCC3)ccc2CC1C(=O)NC1CCCc2ccccc21)C(C)(C)C

> <Shape>
0.286

> <Color>
0.085

> <Negative vol penalty>
0.000

$$$$

  -OEChem-04042321253D

 87 96  0     1  0  0  0  0  0999 V2000
  -16.8466  -22.4991   19.8458 C   0  0  0  0  0  0  0  0  0  0  0  0
  -17.8587  -22.9523   19.0058 C   0  0  0  0  0  0  0  0  0  0  0  0
  -26.6220  -12.9205   21.5955 C   0  0  0  0  0  0  0  0  0  0  0  0
  -26.2480  -13.8602   19.4014 C   0  0  0  0  0  0  0  0  0  0  0  0
  -16.4483  -23.2723   20.9356 C   0  0  0  0  0  0  0  0  0  0  0  0
  -18.4724  -24.1794   19.2544 C   0  0  0  0  0  0  0  0  0  0  0  0
  -23.5136  -23.9518   18.8302 C   0  0  0  0  0  0  0  0  0  0  0  0
  -29.4038  -21.0395   17.2446 C   0  0  0  0  0  0  0  0  0  0  0  0
  -28.9710  -22.0736   16.4146 C   0  0  0  0  0  0  0  0  0  0  0  0
  -25.3201  -12.4199   21.6031 C   0  0  0  0  0  0  0  0  0  0  0  0
  -24.9461  -13.3597   19.4089 C   0  0  0  0  0  0  0  0  0  0  0  0
  -24.0449  -23.9554   17.5412 C   0  0  0  0  0  0  0  0  0  0  0  0
  -23.6517   -9.7979   20.2710 C   0  0  0  0  0  0  0  0  0  0  0  0
  -23.4649   -8.4839   20.7000 C   0  0  0  0  0  0  0  0  0  0  0  0
  -24.5394  -26.3065   17.7581 C   0  0  0  0  0  0  0  0  0  0  0  0
  -29.8126  -22.6317   19.0152 C   0  0  0  0  0  0  0  0  0  0  0  0
  -22.0263   -9.2681   22.4755 C   0  0  0  0  0  0  0  0  0  0  0  0
  -27.0859  -13.6407   20.4947 C   0  0  0  0  0  0  0  0  0  0  0  0
  -29.5876  -13.5120   20.0123 C   0  0  0  0  0  0  0  0  0  0  0  0
  -17.0640  -24.5051   21.2032 C   0  0  0  0  0  0  0  0  0  0  0  0
  -23.4812  -25.1300   19.5900 C   0  0  0  0  0  0  0  0  0  0  0  0
  -18.0810  -24.9705   20.3480 C   0  0  0  0  0  0  0  0  0  0  0  0
  -24.0095  -26.3147   19.0574 C   0  0  0  0  0  0  0  0  0  0  0  0
  -29.3798  -23.6658   18.1851 C   0  0  0  0  0  0  0  0  0  0  0  0
  -29.8246  -21.3186   18.5450 C   0  0  0  0  0  0  0  0  0  0  0  0
  -28.9590  -23.3867   16.8848 C   0  0  0  0  0  0  0  0  0  0  0  0
  -24.4821  -12.6395   20.5098 C   0  0  0  0  0  0  0  0  0  0  0  0
  -24.5552  -25.1335   17.0039 C   0  0  0  0  0  0  0  0  0  0  0  0
  -23.0259  -10.8470   20.9443 C   0  0  0  0  0  0  0  0  0  0  0  0
  -22.6522   -8.2189   21.8022 C   0  0  0  0  0  0  0  0  0  0  0  0
  -22.2131  -10.5821   22.0465 C   0  0  0  0  0  0  0  0  0  0  0  0
  -28.4305  -14.1585   20.4866 C   0  0  0  0  0  0  0  0  0  0  0  0
  -30.5986  -14.4167   20.2266 C   0  0  0  0  0  0  0  0  0  0  0  0
  -29.7353  -12.2102   19.4300 C   0  0  0  0  0  0  0  0  0  0  0  0
  -21.1802  -26.9151   20.8638 C   0  0  0  0  0  0  0  0  0  0  0  0
  -23.6814  -28.5183   22.1662 C   0  0  0  0  0  0  0  0  0  0  0  0
  -26.9853  -29.3580   22.0037 C   0  0  0  0  0  0  0  0  0  0  0  0
  -30.7146  -20.3719   20.7032 C   0  0  0  0  0  0  0  0  0  0  0  0
  -16.5670  -25.3275   22.3657 C   0  0  0  0  0  0  0  0  0  0  0  0
  -22.9291  -25.1035   20.9889 C   0  0  0  0  0  0  0  0  0  0  0  0
  -24.0168  -27.6017   19.8397 C   0  0  0  0  0  0  0  0  0  0  0  0
  -17.5252  -26.4426   22.7766 C   0  0  0  0  0  0  0  0  0  0  0  0
  -31.8483  -18.0195   23.1236 C   0  0  0  0  0  0  0  0  0  0  0  0
  -32.7459  -26.5655   18.5164 C   0  0  0  0  0  0  0  0  0  0  0  0
  -31.8673  -27.5548   19.2552 C   0  0  0  0  0  0  0  0  0  0  0  0
  -18.0137  -27.2059   21.5496 C   0  0  0  0  0  0  0  0  0  0  0  0
  -31.2107  -16.7024   22.6754 C   0  0  0  0  0  0  0  0  0  0  0  0
  -30.9180  -19.2084   22.8895 C   0  0  0  0  0  0  0  0  0  0  0  0
  -29.7599  -18.0125   21.0735 C   0  0  0  0  0  0  0  0  0  0  0  0
  -31.8685  -25.3341   18.4455 C   0  0  0  0  0  0  0  0  0  0  0  0
  -30.4871  -27.3387   18.6598 C   0  0  0  0  0  0  0  0  0  0  0  0
  -18.7879  -26.2848   20.5990 C   0  0  1  0  0  0  0  0  0  0  0  0
  -22.4786  -26.4760   21.4795 C   0  0  1  0  0  0  0  0  0  0  0  0
  -30.6846  -16.7942   21.2295 C   0  0  2  0  0  0  0  0  0  0  0  0
  -28.7338  -30.7135   23.1880 C   0  0  0  0  0  0  0  0  0  0  0  0
  -22.4965  -31.0715   20.9884 C   0  0  0  0  0  0  0  0  0  0  0  0
  -24.7052  -32.1881   21.3666 C   0  0  0  0  0  0  0  0  0  0  0  0
  -23.4028  -31.3148   23.3066 C   0  0  0  0  0  0  0  0  0  0  0  0
  -28.6343  -26.9631   22.5549 C   0  0  0  0  0  0  0  0  0  0  0  0
  -29.3783  -25.0633   18.7139 C   0  0  0  0  0  0  0  0  0  0  0  0
  -27.0503  -25.4824   14.4285 C   0  0  0  0  0  0  0  0  0  0  0  0
  -27.7047  -24.1823   14.8800 C   0  0  0  0  0  0  0  0  0  0  0  0
  -26.1180  -26.0752   15.4784 C   0  0  0  0  0  0  0  0  0  1  0  0
  -24.5400  -29.6857   21.7430 C   0  0  1  0  0  0  0  0  0  0  0  0
  -28.0803  -29.3467   23.0550 C   0  0  2  0  0  0  0  0  0  0  0  0
  -23.7844  -31.0414   21.8354 C   0  0  0  0  0  0  0  0  0  0  0  0
  -28.6820  -15.3795   20.9662 N   0  0  0  0  0  0  0  0  0  0  0  0
  -30.0087  -15.5074   20.7944 N   0  0  0  0  0  0  0  0  0  0  0  0
  -23.4602  -27.5261   21.2006 N   0  0  0  0  0  0  0  0  0  0  0  0
  -30.4630  -19.2333   21.4976 N   0  0  0  0  0  0  0  0  0  0  0  0
  -31.9258  -14.3775   19.9828 N   0  0  0  0  0  0  0  0  0  0  0  0
  -28.5937  -11.4106   19.2829 N   0  0  0  0  0  0  0  0  0  0  0  0
  -30.2647  -20.2677   19.3874 N   0  0  0  0  0  0  0  0  0  0  0  0
  -28.5254  -24.4018   16.0463 N   0  0  0  0  0  0  0  0  0  0  0  0
  -20.1262  -26.0529   21.0985 N   0  0  0  0  0  0  0  0  0  0  0  0
  -25.7493  -29.6190   22.5564 N   0  0  0  0  0  0  0  0  0  0  0  0
  -30.4924  -25.9009   18.1735 N   0  3  0  0  0  0  0  0  0  0  0  0
  -29.1333  -28.3553   22.6954 N   0  3  0  0  0  0  0  0  0  0  0  0
  -30.8493  -11.7626   19.0664 O   0  0  0  0  0  0  0  0  0  0  0  0
  -21.1375  -27.9597   20.2245 O   0  0  0  0  0  0  0  0  0  0  0  0
  -23.2297  -28.4844   23.3136 O   0  0  0  0  0  0  0  0  0  0  0  0
  -27.2049  -29.1591   20.8109 O   0  0  0  0  0  0  0  0  0  0  0  0
  -31.3113  -21.3554   21.1490 O   0  0  0  0  0  0  0  0  0  0  0  0
  -23.2117  -12.1510   20.5166 O   0  0  0  0  0  0  0  0  0  0  0  0
  -25.0738  -25.1400   15.7457 O   0  0  0  0  0  0  0  0  0  1  0  0
  -22.4716   -6.9569   22.2131 F   0  0  0  0  0  0  0  0  0  0  0  0
  -21.6083  -11.5858   22.6966 F   0  0  0  0  0  0  0  0  0  0  0  0
  1  2  1  0  0  0  0
  1  5  2  0  0  0  0
  2  6  2  0  0  0  0
  3 10  2  0  0  0  0
  3 18  1  0  0  0  0
  4 11  1  0  0  0  0
  4 18  2  0  0  0  0
  5 20  1  0  0  0  0
  6 22  1  0  0  0  0
  7 12  2  0  0  0  0
  7 21  1  0  0  0  0
  8  9  2  0  0  0  0
  8 25  1  0  0  0  0
  9 26  1  0  0  0  0
 10 27  1  0  0  0  0
 11 27  2  0  0  0  0
 12 28  1  0  0  0  0
 13 14  2  0  0  0  0
 13 29  1  0  0  0  0
 14 30  1  0  0  0  0
 15 23  1  0  0  0  0
 15 28  2  0  0  0  0
 16 24  1  0  0  0  0
 16 25  2  0  0  0  0
 17 30  2  0  0  0  0
 17 31  1  0  0  0  0
 18 32  1  0  0  0  0
 19 32  1  0  0  0  0
 19 33  2  0  0  0  0
 19 34  1  0  0  0  0
 20 22  2  0  0  0  0
 20 39  1  0  0  0  0
 21 23  2  0  0  0  0
 21 40  1  0  0  0  0
 22 52  1  0  0  0  0
 23 41  1  0  0  0  0
 24 26  2  0  0  0  0
 24 60  1  0  0  0  0
 25 73  1  0  0  0  0
 26 74  1  0  0  0  0
 27 84  1  0  0  0  0
 28 85  1  0  0  0  0
 29 31  2  0  0  0  0
 29 84  1  0  0  0  0
 30 86  1  0  0  0  0
 31 87  1  0  0  0  0
 32 67  2  0  0  0  0
 33 68  1  0  0  0  0
 33 71  1  0  0  0  0
 34 72  1  0  0  0  0
 34 79  2  0  0  0  0
 35 53  1  0  0  0  0
 35 75  1  0  0  0  0
 35 80  2  0  0  0  0
 36 64  1  0  0  0  0
 36 69  1  0  0  0  0
 36 81  2  0  0  0  0
 37 65  1  0  0  0  0
 37 76  1  0  0  0  0
 37 82  2  0  0  0  0
 38 70  1  0  0  0  0
 38 73  1  0  0  0  0
 38 83  2  0  0  0  0
 39 42  1  0  0  0  0
 40 53  1  0  0  0  0
 41 69  1  0  0  0  0
 42 46  1  0  0  0  0
 43 47  1  0  0  0  0
 43 48  1  0  0  0  0
 44 45  1  0  0  0  0
 44 50  1  0  0  0  0
 45 51  1  0  0  0  0
 46 52  1  0  0  0  0
 47 54  1  0  0  0  0
 48 70  1  0  0  0  0
 49 54  1  0  0  0  0
 49 70  1  0  0  0  0
 50 77  1  0  0  0  0
 51 77  1  0  0  0  0
 52 75  1  0  0  0  0
 53 69  1  0  0  0  0
 54 68  1  0  0  0  0
 55 65  1  0  0  0  0
 56 66  1  0  0  0  0
 57 66  1  0  0  0  0
 58 66  1  0  0  0  0
 59 78  1  0  0  0  0
 60 77  1  0  0  0  0
 61 62  1  0  0  0  0
 61 63  1  0  0  0  0
 62 74  1  0  0  0  0
 63 85  1  0  0  0  0
 64 66  1  0  0  0  0
 64 76  1  0  0  0  0
 65 78  1  0  0  0  0
 67 68  1  0  0  0  0
M  CHG  2  77   1  78   1
M  ISO  4  38 100  63 101  73 100  85 101
M  END
> <Batch ID>
0026

> <Smiles>
CNC(C)C(=O)NC(C(=O)N1Cc2cc([101O:1][101CH2:1]CCNc3ccc([100NH:0][100C:0](=O)N4CCCC(n5nc(-c6ccc(Oc7ccc(F)cc7F)cc6)c(C(N)=O)c5N)C4)cc3CN3CCCC3)ccc2CC1C(=O)NC1CCCc2ccccc21)C(C)(C)C

> <Shape>
0.291

> <Color>
0.057

> <Negative vol penalty>
0.000

$$$$

  -OEChem-04042321253D

 78 86  0     1  0  0  0  0  0999 V2000
  -28.0667  -37.0392   21.1568 C   0  0  0  0  0  0  0  0  0  0  0  0
  -28.4786  -35.7212   20.9880 C   0  0  0  0  0  0  0  0  0  0  0  0
  -26.8779  -12.7381   21.8118 C   0  0  0  0  0  0  0  0  0  0  0  0
  -26.2289  -14.3697   20.1524 C   0  0  0  0  0  0  0  0  0  0  0  0
  -26.9484  -37.3241   21.9392 C   0  0  0  0  0  0  0  0  0  0  0  0
  -27.7731  -34.6872   21.6025 C   0  0  0  0  0  0  0  0  0  0  0  0
  -26.8406  -29.0494   19.4001 C   0  0  0  0  0  0  0  0  0  0  0  0
  -29.9140  -23.9385   21.6652 C   0  0  0  0  0  0  0  0  0  0  0  0
  -29.0925  -23.0456   19.5759 C   0  0  0  0  0  0  0  0  0  0  0  0
  -30.3903  -22.6757   22.0176 C   0  0  0  0  0  0  0  0  0  0  0  0
  -29.5689  -21.7828   19.9283 C   0  0  0  0  0  0  0  0  0  0  0  0
  -25.5581  -12.2939   21.8913 C   0  0  0  0  0  0  0  0  0  0  0  0
  -24.9090  -13.9255   20.2318 C   0  0  0  0  0  0  0  0  0  0  0  0
  -27.4760  -27.8317   19.6398 C   0  0  0  0  0  0  0  0  0  0  0  0
  -22.4256  -10.4880   22.2670 C   0  0  0  0  0  0  0  0  0  0  0  0
  -22.2040   -9.1109   22.2726 C   0  0  0  0  0  0  0  0  0  0  0  0
  -25.7862  -27.2777   21.2698 C   0  0  0  0  0  0  0  0  0  0  0  0
  -23.2629   -8.9317   20.1084 C   0  0  0  0  0  0  0  0  0  0  0  0
  -27.2133  -13.7760   20.9424 C   0  0  0  0  0  0  0  0  0  0  0  0
  -29.5834  -13.7604   19.9988 C   0  0  0  0  0  0  0  0  0  0  0  0
  -26.2231  -36.2924   22.5558 C   0  0  0  0  0  0  0  0  0  0  0  0
  -25.6774  -29.3956   20.1025 C   0  0  0  0  0  0  0  0  0  0  0  0
  -26.6449  -34.9587   22.3951 C   0  0  0  0  0  0  0  0  0  0  0  0
  -25.1365  -28.4992   21.0353 C   0  0  0  0  0  0  0  0  0  0  0  0
  -29.2650  -24.1234   20.4444 C   0  0  0  0  0  0  0  0  0  0  0  0
  -30.2178  -21.5979   21.1491 C   0  0  0  0  0  0  0  0  0  0  0  0
  -24.5736  -12.8876   21.1013 C   0  0  0  0  0  0  0  0  0  0  0  0
  -26.9505  -26.9469   20.5769 C   0  0  0  0  0  0  0  0  0  0  0  0
  -23.0657  -11.0870   21.1821 C   0  0  0  0  0  0  0  0  0  0  0  0
  -22.6227   -8.3327   21.1933 C   0  0  0  0  0  0  0  0  0  0  0  0
  -23.4844  -10.3089   20.1028 C   0  0  0  0  0  0  0  0  0  0  0  0
  -28.5764  -14.2357   20.8602 C   0  0  0  0  0  0  0  0  0  0  0  0
  -30.6867  -14.5170   20.3100 C   0  0  0  0  0  0  0  0  0  0  0  0
  -29.5265  -12.7275   19.0061 C   0  0  0  0  0  0  0  0  0  0  0  0
  -24.8815  -31.7237   22.1150 C   0  0  0  0  0  0  0  0  0  0  0  0
  -21.9265  -30.4122   21.8504 C   0  0  0  0  0  0  0  0  0  0  0  0
  -20.0285  -27.6660   21.1412 C   0  0  0  0  0  0  0  0  0  0  0  0
  -31.3678  -19.9601   22.6793 C   0  0  0  0  0  0  0  0  0  0  0  0
  -25.0489  -36.6530   23.4308 C   0  0  0  0  0  0  0  0  0  0  0  0
  -24.9890  -30.7013   19.8131 C   0  0  0  0  0  0  0  0  0  0  0  0
  -23.8787  -28.8147   21.8013 C   0  0  0  0  0  0  0  0  0  0  0  0
  -24.1351  -35.4704   23.7419 C   0  0  0  0  0  0  0  0  0  0  0  0
  -32.6846  -16.9053   23.9485 C   0  0  0  0  0  0  0  0  0  0  0  0
  -24.9579  -34.2549   24.1570 C   0  0  0  0  0  0  0  0  0  0  0  0
  -31.8764  -15.8307   23.2177 C   0  0  0  0  0  0  0  0  0  0  0  0
  -31.8295  -18.1244   24.2893 C   0  0  0  0  0  0  0  0  0  0  0  0
  -30.2959  -17.6360   22.4242 C   0  0  0  0  0  0  0  0  0  0  0  0
  -25.8910  -33.8077   23.0253 C   0  0  1  0  0  0  0  0  0  0  0  0
  -24.0974  -31.1732   20.9575 C   0  0  1  0  0  0  0  0  0  0  0  0
  -31.1304  -16.4157   22.0024 C   0  0  2  0  0  0  0  0  0  0  0  0
  -17.6438  -26.8901   21.0485 C   0  0  0  0  0  0  0  0  0  0  0  0
  -21.8657  -30.2428   24.8963 C   0  0  0  0  0  0  0  0  0  0  0  0
  -19.9531  -28.6392   24.6994 C   0  0  0  0  0  0  0  0  0  0  0  0
  -19.7150  -30.9722   23.8490 C   0  0  0  0  0  0  0  0  0  0  0  0
  -20.2148  -27.0650   18.2493 C   0  0  0  0  0  0  0  0  0  0  0  0
  -28.7526  -25.4818   20.0654 C   0  0  0  0  0  0  0  0  0  1  0  0
  -21.1660  -29.3336   22.5834 C   0  0  1  0  0  0  0  0  0  0  0  0
  -18.8017  -27.4884   20.2649 C   0  0  2  0  0  0  0  0  0  0  0  0
  -20.6998  -29.7915   23.9942 C   0  0  0  0  0  0  0  0  0  0  0  0
  -29.0023  -15.2180   21.6588 N   0  0  0  0  0  0  0  0  0  0  0  0
  -30.2891  -15.3661   21.3005 N   0  0  0  0  0  0  0  0  0  0  0  0
  -23.2458  -30.1064   21.4875 N   0  0  0  0  0  0  0  0  0  0  0  0
  -31.1567  -18.6266   23.0893 N   0  0  0  0  0  0  0  0  0  0  0  0
  -31.9484  -14.5321   19.8303 N   0  0  0  0  0  0  0  0  0  0  0  0
  -28.3144  -12.0502   18.8153 N   0  0  0  0  0  0  0  0  0  0  0  0
  -30.7018  -20.3151   21.5067 N   0  0  0  0  0  0  0  0  0  0  0  0
  -25.1513  -33.0756   22.0197 N   0  0  0  0  0  0  0  0  0  0  0  0
  -20.0802  -28.9263   21.6982 N   0  0  0  0  0  0  0  0  0  0  0  0
  -19.1097  -26.5865   19.1192 N   0  3  0  0  0  0  0  0  0  0  0  0
  -30.5255  -12.4032   18.3203 O   0  0  0  0  0  0  0  0  0  0  0  0
  -25.2157  -30.9775   23.0278 O   0  0  0  0  0  0  0  0  0  0  0  0
  -21.3681  -31.4838   21.6025 O   0  0  0  0  0  0  0  0  0  0  0  0
  -20.8560  -26.7746   21.3172 O   0  0  0  0  0  0  0  0  0  0  0  0
  -32.1080  -20.7224   23.3063 O   0  0  0  0  0  0  0  0  0  0  0  0
  -23.2857  -12.4542   21.1784 O   0  0  0  0  0  0  0  0  0  0  0  0
  -27.5690  -25.7581   20.8132 O   0  0  0  0  0  0  0  0  0  1  0  0
  -22.4112   -7.0101   21.1995 F   0  0  0  0  0  0  0  0  0  0  0  0
  -24.1010  -10.8786   19.0582 F   0  0  0  0  0  0  0  0  0  0  0  0
  1  2  1  0  0  0  0
  1  5  2  0  0  0  0
  2  6  2  0  0  0  0
  3 12  2  0  0  0  0
  3 19  1  0  0  0  0
  4 13  1  0  0  0  0
  4 19  2  0  0  0  0
  5 21  1  0  0  0  0
  6 23  1  0  0  0  0
  7 14  2  0  0  0  0
  7 22  1  0  0  0  0
  8 10  2  0  0  0  0
  8 25  1  0  0  0  0
  9 11  1  0  0  0  0
  9 25  2  0  0  0  0
 10 26  1  0  0  0  0
 11 26  2  0  0  0  0
 12 27  1  0  0  0  0
 13 27  2  0  0  0  0
 14 28  1  0  0  0  0
 15 16  2  0  0  0  0
 15 29  1  0  0  0  0
 16 30  1  0  0  0  0
 17 24  1  0  0  0  0
 17 28  2  0  0  0  0
 18 30  2  0  0  0  0
 18 31  1  0  0  0  0
 19 32  1  0  0  0  0
 20 32  1  0  0  0  0
 20 33  2  0  0  0  0
 20 34  1  0  0  0  0
 21 23  2  0  0  0  0
 21 39  1  0  0  0  0
 22 24  2  0  0  0  0
 22 40  1  0  0  0  0
 23 48  1  0  0  0  0
 24 41  1  0  0  0  0
 25 56  1  0  0  0  0
 26 66  1  0  0  0  0
 27 75  1  0  0  0  0
 28 76  1  0  0  0  0
 29 31  2  0  0  0  0
 29 75  1  0  0  0  0
 30 77  1  0  0  0  0
 31 78  1  0  0  0  0
 32 60  2  0  0  0  0
 33 61  1  0  0  0  0
 33 64  1  0  0  0  0
 34 65  1  0  0  0  0
 34 70  2  0  0  0  0
 35 49  1  0  0  0  0
 35 67  1  0  0  0  0
 35 71  2  0  0  0  0
 36 57  1  0  0  0  0
 36 62  1  0  0  0  0
 36 72  2  0  0  0  0
 37 58  1  0  0  0  0
 37 68  1  0  0  0  0
 37 73  2  0  0  0  0
 38 63  1  0  0  0  0
 38 66  1  0  0  0  0
 38 74  2  0  0  0  0
 39 42  1  0  0  0  0
 40 49  1  0  0  0  0
 41 62  1  0  0  0  0
 42 44  1  0  0  0  0
 43 45  1  0  0  0  0
 43 46  1  0  0  0  0
 44 48  1  0  0  0  0
 45 50  1  0  0  0  0
 46 63  1  0  0  0  0
 47 50  1  0  0  0  0
 47 63  1  0  0  0  0
 48 67  1  0  0  0  0
 49 62  1  0  0  0  0
 50 61  1  0  0  0  0
 51 58  1  0  0  0  0
 52 59  1  0  0  0  0
 53 59  1  0  0  0  0
 54 59  1  0  0  0  0
 55 69  1  0  0  0  0
 56 76  1  0  0  0  0
 57 59  1  0  0  0  0
 57 68  1  0  0  0  0
 58 69  1  0  0  0  0
 60 61  1  0  0  0  0
M  CHG  1  69   1
M  ISO  4  38 100  56 101  66 100  76 101
M  END
> <Batch ID>
0026

> <Smiles>
CNC(C)C(=O)NC(C(=O)N1Cc2cc([101O:1][101CH2:1]c3ccc([100NH:0][100C:0](=O)N4CCCC(n5nc(-c6ccc(Oc7ccc(F)cc7F)cc6)c(C(N)=O)c5N)C4)cc3)ccc2CC1C(=O)NC1CCCc2ccccc21)C(C)(C)C

> <Shape>
0.340

> <Color>
0.078

> <Negative vol penalty>
0.000

$$$$

  -OEChem-04042321253D

 90100  0     1  0  0  0  0  0999 V2000
  -22.7788  -35.0648   15.5883 C   0  0  0  0  0  0  0  0  0  0  0  0
  -23.4967  -33.8740   15.6317 C   0  0  0  0  0  0  0  0  0  0  0  0
  -23.2934  -11.0710   22.1064 C   0  0  0  0  0  0  0  0  0  0  0  0
  -24.5215   -9.2160   21.1642 C   0  0  0  0  0  0  0  0  0  0  0  0
  -22.7935  -35.9267   16.6842 C   0  0  0  0  0  0  0  0  0  0  0  0
  -24.2307  -33.5447   16.7707 C   0  0  0  0  0  0  0  0  0  0  0  0
  -25.1337  -27.9437   19.0769 C   0  0  0  0  0  0  0  0  0  0  0  0
  -22.2042  -10.2314   22.3397 C   0  0  0  0  0  0  0  0  0  0  0  0
  -23.4324   -8.3764   21.3975 C   0  0  0  0  0  0  0  0  0  0  0  0
  -26.1964  -27.0471   18.9740 C   0  0  0  0  0  0  0  0  0  0  0  0
  -22.0765   -6.7282   24.0177 C   0  0  0  0  0  0  0  0  0  0  0  0
  -22.3332   -5.4765   24.5772 C   0  0  0  0  0  0  0  0  0  0  0  0
  -27.0724  -27.8540   21.0718 C   0  0  0  0  0  0  0  0  0  0  0  0
  -29.0028  -19.4886   20.9641 C   0  0  0  0  0  0  0  0  0  0  0  0
  -27.3663  -21.3648   19.7053 C   0  0  0  0  0  0  0  0  0  0  0  0
  -21.3666   -4.4107   22.6364 C   0  0  0  0  0  0  0  0  0  0  0  0
  -24.4520  -10.5633   21.5186 C   0  0  0  0  0  0  0  0  0  0  0  0
  -26.6489  -11.6959   22.1503 C   0  0  0  0  0  0  0  0  0  0  0  0
  -23.5203  -35.6033   17.8409 C   0  0  0  0  0  0  0  0  0  0  0  0
  -25.0381  -28.8112   20.1744 C   0  0  0  0  0  0  0  0  0  0  0  0
  -24.2562  -34.4037   17.8826 C   0  0  0  0  0  0  0  0  0  0  0  0
  -26.0062  -28.7589   21.1875 C   0  0  0  0  0  0  0  0  0  0  0  0
  -29.0856  -20.8353   21.3180 C   0  0  0  0  0  0  0  0  0  0  0  0
  -28.2673  -21.7733   20.6886 C   0  0  0  0  0  0  0  0  0  0  0  0
  -28.1017  -19.0800   19.9808 C   0  0  0  0  0  0  0  0  0  0  0  0
  -22.2737   -8.8841   21.9853 C   0  0  0  0  0  0  0  0  0  0  0  0
  -27.1675  -27.0041   19.9701 C   0  0  0  0  0  0  0  0  0  0  0  0
  -21.4647   -6.8211   22.7675 C   0  0  0  0  0  0  0  0  0  0  0  0
  -21.9783   -4.3178   23.8865 C   0  0  0  0  0  0  0  0  0  0  0  0
  -27.2835  -20.0181   19.3514 C   0  0  0  0  0  0  0  0  0  0  0  0
  -21.1099   -5.6624   22.0769 C   0  0  0  0  0  0  0  0  0  0  0  0
  -25.5772  -11.4302   21.2768 C   0  0  0  0  0  0  0  0  0  0  0  0
  -27.4463  -12.5743   21.4582 C   0  0  0  0  0  0  0  0  0  0  0  0
  -28.0658  -16.8652   22.9896 C   0  0  0  0  0  0  0  0  0  0  0  0
  -27.6621  -16.6069   21.7406 C   0  0  0  0  0  0  0  0  0  0  0  0
  -26.9010  -11.1934   23.4692 C   0  0  0  0  0  0  0  0  0  0  0  0
  -25.0481  -31.9681   20.5459 C   0  0  0  0  0  0  0  0  0  0  0  0
  -24.3886  -31.2161   23.6317 C   0  0  0  0  0  0  0  0  0  0  0  0
  -24.5472  -28.9202   26.1517 C   0  0  0  0  0  0  0  0  0  0  0  0
  -27.6546  -17.2902   18.3099 C   0  0  0  0  0  0  0  0  0  0  0  0
  -23.5442  -36.5888   18.9823 C   0  0  0  0  0  0  0  0  0  0  0  0
  -23.8712  -29.7540   20.2839 C   0  0  0  0  0  0  0  0  0  0  0  0
  -25.9384  -29.6550   22.3962 C   0  0  0  0  0  0  0  0  0  0  0  0
  -24.0444  -35.9894   20.2941 C   0  0  0  0  0  0  0  0  0  0  0  0
  -31.9533  -21.3264   23.6519 C   0  0  0  0  0  0  0  0  0  0  0  0
  -30.9743  -22.3736   24.1427 C   0  0  0  0  0  0  0  0  0  0  0  0
  -27.3535  -14.0234   16.6223 C   0  0  0  0  0  0  0  0  0  0  0  0
  -25.3118  -35.1737   20.0594 C   0  0  0  0  0  0  0  0  0  0  0  0
  -26.8886  -13.1005   17.7476 C   0  0  0  0  0  0  0  0  0  0  0  0
  -31.4564  -21.0364   22.2402 C   0  0  0  0  0  0  0  0  0  0  0  0
  -29.6465  -21.8849   23.5752 C   0  0  0  0  0  0  0  0  0  0  0  0
  -26.8792  -15.4582   16.8337 C   0  0  0  0  0  0  0  0  0  0  0  0
  -26.7980  -15.1054   19.2830 C   0  0  0  0  0  0  0  0  0  0  0  0
  -27.2762  -24.0689   20.9693 C   0  0  0  0  0  0  0  0  0  0  0  0
  -29.3592  -24.0401   20.6723 C   0  0  0  0  0  0  0  0  0  0  0  0
  -25.0444  -33.9998   19.1097 C   0  0  1  0  0  0  0  0  0  0  0  0
  -24.1514  -30.9489   21.1900 C   0  0  1  0  0  0  0  0  0  0  0  0
  -27.2963  -13.6614   19.1210 C   0  0  1  0  0  0  0  0  0  0  0  0
  -28.3465  -25.1682   20.9163 C   0  0  0  0  0  0  0  0  0  1  0  0
  -23.9597  -28.6072   28.5712 C   0  0  0  0  0  0  0  0  0  0  0  0
  -26.7710  -32.9465   24.4315 C   0  0  0  0  0  0  0  0  0  0  0  0
  -26.7181  -31.8557   26.6844 C   0  0  0  0  0  0  0  0  0  0  0  0
  -24.7628  -33.1924   25.9016 C   0  0  0  0  0  0  0  0  0  0  0  0
  -22.7322  -26.6642   25.5390 C   0  0  0  0  0  0  0  0  0  0  0  0
  -28.5528  -16.6853   20.5454 C   0  0  0  0  0  0  0  0  0  0  0  0
  -25.2147  -30.9321   24.8629 C   0  0  1  0  0  0  0  0  0  0  0  0
  -23.4990  -28.4277   27.1331 C   0  0  2  0  0  0  0  0  0  0  0  0
  -25.8693  -32.2160   25.4465 C   0  0  0  0  0  0  0  0  0  0  0  0
  -25.6813  -12.0869   20.1184 N   0  0  0  0  0  0  0  0  0  0  0  0
  -26.8277  -12.7739   20.2591 N   0  0  0  0  0  0  0  0  0  0  0  0
  -30.0024  -21.2264   22.3123 N   0  0  0  0  0  0  0  0  0  0  0  0
  -28.3340  -23.1207   21.0256 N   0  0  0  0  0  0  0  0  0  0  0  0
  -24.7817  -30.5639   22.4544 N   0  0  0  0  0  0  0  0  0  0  0  0
  -27.2399  -15.9512   18.1635 N   0  0  0  0  0  0  0  0  0  0  0  0
  -28.6092  -13.1877   21.7644 N   0  0  0  0  0  0  0  0  0  0  0  0
  -25.9796  -10.2990   24.0309 N   0  0  0  0  0  0  0  0  0  0  0  0
  -24.3751  -32.9250   19.8105 N   0  0  0  0  0  0  0  0  0  0  0  0
  -24.3339  -30.2345   25.7935 N   0  0  0  0  0  0  0  0  0  0  0  0
  -28.0186  -17.6856   19.6153 N   0  0  0  0  0  0  0  0  0  0  0  0
  -23.2165  -26.9820   26.9071 N   0  3  0  0  0  0  0  0  0  0  0  0
  -27.9049  -11.5404   24.1366 O   0  0  0  0  0  0  0  0  0  0  0  0
  -26.2608  -31.8928   20.7056 O   0  0  0  0  0  0  0  0  0  0  0  0
  -23.4256  -31.9826   23.7132 O   0  0  0  0  0  0  0  0  0  0  0  0
  -25.4657  -28.2111   25.7465 O   0  0  0  0  0  0  0  0  0  0  0  0
  -27.7226  -18.0613   17.3454 O   0  0  0  0  0  0  0  0  0  0  0  0
  -21.2112   -8.0645   22.2130 O   0  0  0  0  0  0  0  0  0  0  0  0
  -28.2061  -26.1304   19.8718 O   0  0  0  0  0  0  0  0  0  1  0  0
  -22.2263   -3.1159   24.4233 F   0  0  0  0  0  0  0  0  0  0  0  0
  -26.4154  -19.6370   18.4035 F   0  0  0  0  0  0  0  0  0  0  0  0
  -20.5230   -5.7453   20.8750 F   0  0  0  0  0  0  0  0  0  0  0  0
  1  2  1  0  0  0  0
  1  5  2  0  0  0  0
  2  6  2  0  0  0  0
  3  8  2  0  0  0  0
  3 17  1  0  0  0  0
  4  9  1  0  0  0  0
  4 17  2  0  0  0  0
  5 19  1  0  0  0  0
  6 21  1  0  0  0  0
  7 10  2  0  0  0  0
  7 20  1  0  0  0  0
  8 26  1  0  0  0  0
  9 26  2  0  0  0  0
 10 27  1  0  0  0  0
 11 12  2  0  0  0  0
 11 28  1  0  0  0  0
 12 29  1  0  0  0  0
 13 22  1  0  0  0  0
 13 27  2  0  0  0  0
 14 23  2  0  0  0  0
 14 25  1  0  0  0  0
 15 24  2  0  0  0  0
 15 30  1  0  0  0  0
 16 29  2  0  0  0  0
 16 31  1  0  0  0  0
 17 32  1  0  0  0  0
 18 32  1  0  0  0  0
 18 33  2  0  0  0  0
 18 36  1  0  0  0  0
 19 21  2  0  0  0  0
 19 41  1  0  0  0  0
 20 22  2  0  0  0  0
 20 42  1  0  0  0  0
 21 56  1  0  0  0  0
 22 43  1  0  0  0  0
 23 24  1  0  0  0  0
 23 71  1  0  0  0  0
 24 72  1  0  0  0  0
 25 30  2  0  0  0  0
 25 79  1  0  0  0  0
 26 86  1  0  0  0  0
 27 87  1  0  0  0  0
 28 31  2  0  0  0  0
 28 86  1  0  0  0  0
 29 88  1  0  0  0  0
 30 89  1  0  0  0  0
 31 90  1  0  0  0  0
 32 69  2  0  0  0  0
 33 70  1  0  0  0  0
 33 75  1  0  0  0  0
 34 35  2  0  0  0  0
 35 65  1  0  0  0  0
 36 76  1  0  0  0  0
 36 81  2  0  0  0  0
 37 57  1  0  0  0  0
 37 77  1  0  0  0  0
 37 82  2  0  0  0  0
 38 66  1  0  0  0  0
 38 73  1  0  0  0  0
 38 83  2  0  0  0  0
 39 67  1  0  0  0  0
 39 78  1  0  0  0  0
 39 84  2  0  0  0  0
 40 74  1  0  0  0  0
 40 79  1  0  0  0  0
 40 85  2  0  0  0  0
 41 44  1  0  0  0  0
 42 57  1  0  0  0  0
 43 73  1  0  0  0  0
 44 48  1  0  0  0  0
 45 46  1  0  0  0  0
 45 50  1  0  0  0  0
 46 51  1  0  0  0  0
 47 49  1  0  0  0  0
 47 52  1  0  0  0  0
 48 56  1  0  0  0  0
 49 58  1  0  0  0  0
 50 71  1  0  0  0  0
 51 71  1  0  0  0  0
 52 74  1  0  0  0  0
 53 58  1  0  0  0  0
 53 74  1  0  0  0  0
 54 59  1  0  0  0  0
 54 72  1  0  0  0  0
 55 59  1  0  0  0  0
 55 72  1  0  0  0  0
 56 77  1  0  0  0  0
 57 73  1  0  0  0  0
 58 70  1  0  0  0  0
 59 87  1  0  0  0  0
 60 67  1  0  0  0  0
 61 68  1  0  0  0  0
 62 68  1  0  0  0  0
 63 68  1  0  0  0  0
 64 80  1  0  0  0  0
 65 79  1  0  0  0  0
 66 68  1  0  0  0  0
 66 78  1  0  0  0  0
 67 80  1  0  0  0  0
 69 70  1  0  0  0  0
M  CHG  1  80   1
M  ISO  4  40 100  59 101  79 100  87 101
M  END
> <Batch ID>
0026

> <Smiles>
C=CC[100N:0](c1cc(N2CCCC2)c(N2C[101CH:1]([101O:1]c3ccc4c(c3)CN(C(=O)C(NC(=O)C(C)NC)C(C)(C)C)C(C(=O)NC3CCCc5ccccc53)C4)C2)cc1F)[100C:0](=O)N1CCCC(n2nc(-c3ccc(Oc4ccc(F)cc4F)cc3)c(C(N)=O)c2N)C1

> <Shape>
0.279

> <Color>
0.114

> <Negative vol penalty>
0.000

$$$$

  -OEChem-04042321253D

 97108  0     1  0  0  0  0  0999 V2000
  -16.8910  -29.8372   24.4261 C   0  0  0  0  0  0  0  0  0  0  0  0
  -17.7512  -28.7972   24.7634 C   0  0  0  0  0  0  0  0  0  0  0  0
  -23.9459  -12.3706   19.2784 C   0  0  0  0  0  0  0  0  0  0  0  0
  -24.8570  -11.6157   21.3848 C   0  0  0  0  0  0  0  0  0  0  0  0
  -17.0476  -30.5038   23.2116 C   0  0  0  0  0  0  0  0  0  0  0  0
  -18.7679  -28.4224   23.8858 C   0  0  0  0  0  0  0  0  0  0  0  0
  -24.3500  -26.3884   25.3720 C   0  0  0  0  0  0  0  0  0  0  0  0
  -25.1623  -23.0097   17.6657 C   0  0  0  0  0  0  0  0  0  0  0  0
  -23.8384  -23.3949   17.4549 C   0  0  0  0  0  0  0  0  0  0  0  0
  -23.6445  -11.0524   18.9363 C   0  0  0  0  0  0  0  0  0  0  0  0
  -24.5556  -10.2974   21.0428 C   0  0  0  0  0  0  0  0  0  0  0  0
  -24.8899  -25.1055   25.4538 C   0  0  0  0  0  0  0  0  0  0  0  0
  -23.6980   -6.7681   20.8790 C   0  0  0  0  0  0  0  0  0  0  0  0
  -23.1018   -5.9652   21.8513 C   0  0  0  0  0  0  0  0  0  0  0  0
  -25.7688  -25.3396   23.2195 C   0  0  0  0  0  0  0  0  0  0  0  0
  -21.2340   -7.4932   21.9678 C   0  0  0  0  0  0  0  0  0  0  0  0
  -24.5522  -12.6523   20.5027 C   0  0  0  0  0  0  0  0  0  0  0  0
  -24.0380  -14.9251   21.5407 C   0  0  0  0  0  0  0  0  0  0  0  0
  -18.0728  -30.1434   22.3229 C   0  0  0  0  0  0  0  0  0  0  0  0
  -24.5064  -27.1535   24.2073 C   0  0  0  0  0  0  0  0  0  0  0  0
  -18.9376  -29.0839   22.6576 C   0  0  0  0  0  0  0  0  0  0  0  0
  -25.2321  -26.6328   23.1265 C   0  0  0  0  0  0  0  0  0  0  0  0
  -25.5074  -22.2996   18.8157 C   0  0  0  0  0  0  0  0  0  0  0  0
  -24.5286  -21.9749   19.7549 C   0  0  0  0  0  0  0  0  0  0  0  0
  -23.2046  -22.3601   19.5441 C   0  0  0  0  0  0  0  0  0  0  0  0
  -22.8595  -23.0702   18.3941 C   0  0  0  0  0  0  0  0  0  0  0  0
  -23.9493  -10.0158   19.8185 C   0  0  0  0  0  0  0  0  0  0  0  0
  -25.5969  -24.5798   24.3764 C   0  0  0  0  0  0  0  0  0  0  0  0
  -23.0622   -7.9337   20.4511 C   0  0  0  0  0  0  0  0  0  0  0  0
  -21.8698   -6.3277   22.3957 C   0  0  0  0  0  0  0  0  0  0  0  0
  -21.8302   -8.2961   20.9955 C   0  0  0  0  0  0  0  0  0  0  0  0
  -24.8644  -14.0137   20.8563 C   0  0  0  0  0  0  0  0  0  0  0  0
  -24.7894  -16.0716   21.6275 C   0  0  0  0  0  0  0  0  0  0  0  0
  -22.7100  -14.7509   22.0522 C   0  0  0  0  0  0  0  0  0  0  0  0
  -22.5220  -28.4098   22.0655 C   0  0  0  0  0  0  0  0  0  0  0  0
  -25.2406  -29.7484   20.9081 C   0  0  0  0  0  0  0  0  0  0  0  0
  -28.6401  -29.6276   20.6336 C   0  0  0  0  0  0  0  0  0  0  0  0
  -28.2027  -19.8209   19.4131 C   0  0  0  0  0  0  0  0  0  0  0  0
  -18.1733  -30.8619   21.0007 C   0  0  0  0  0  0  0  0  0  0  0  0
  -23.9408  -28.5459   24.1450 C   0  0  0  0  0  0  0  0  0  0  0  0
  -25.4456  -27.4214   21.8612 C   0  0  0  0  0  0  0  0  0  0  0  0
  -19.5092  -30.6509   20.2928 C   0  0  0  0  0  0  0  0  0  0  0  0
  -19.5020  -23.9866   17.0527 C   0  0  0  0  0  0  0  0  0  0  0  0
  -19.3146  -24.2213   18.5379 C   0  0  0  0  0  0  0  0  0  0  0  0
  -29.6715  -16.9045   20.6623 C   0  0  0  0  0  0  0  0  0  0  0  0
  -19.4492  -19.4989   20.5222 C   0  0  0  0  0  0  0  0  0  0  0  0
  -20.7187  -18.7805   20.1112 C   0  0  0  0  0  0  0  0  0  0  0  0
  -19.8940  -29.1749   20.3076 C   0  0  0  0  0  0  0  0  0  0  0  0
  -28.4945  -15.9536   20.8703 C   0  0  0  0  0  0  0  0  0  0  0  0
  -26.8513  -20.3519   16.2014 C   0  0  0  0  0  0  0  0  0  0  0  0
  -27.1136  -18.9554   16.6806 C   0  0  0  0  0  0  0  0  0  0  0  0
  -20.7170  -23.0671   17.0079 C   0  0  0  0  0  0  0  0  0  0  0  0
  -20.7477  -24.3476   19.0419 C   0  0  0  0  0  0  0  0  0  0  0  0
  -29.4969  -17.7125   19.3826 C   0  0  0  0  0  0  0  0  0  0  0  0
  -27.0306  -17.5692   19.5544 C   0  0  0  0  0  0  0  0  0  0  0  0
  -19.9670  -20.8422   20.9895 C   0  0  0  0  0  0  0  0  0  0  0  0
  -21.5311  -19.8467   19.3974 C   0  0  0  0  0  0  0  0  0  0  0  0
  -20.0680  -28.6645   21.7431 C   0  0  1  0  0  0  0  0  0  0  0  0
  -23.7209  -29.0381   22.7179 C   0  0  1  0  0  0  0  0  0  0  0  0
  -27.1605  -16.7177   20.8342 C   0  0  1  0  0  0  0  0  0  0  0  0
  -26.4556  -19.9510   17.5961 C   0  0  0  0  0  0  0  0  0  0  0  0
  -30.5768  -30.8384   19.5939 C   0  0  0  0  0  0  0  0  0  0  0  0
  -25.5387  -21.5667   25.9918 C   0  0  0  0  0  0  0  0  0  0  0  0
  -24.5146  -28.5697   18.1890 C   0  0  0  0  0  0  0  0  0  0  0  0
  -26.8745  -28.9784   17.4596 C   0  0  0  0  0  0  0  0  0  0  0  0
  -25.4208  -30.8992   18.1078 C   0  0  0  0  0  0  0  0  0  0  0  0
  -29.8578  -30.1858   23.2727 C   0  0  0  0  0  0  0  0  0  0  0  0
  -26.9323  -21.8989   19.0161 C   0  0  0  0  0  0  0  0  0  0  0  0
  -22.1556  -22.0110   20.5530 C   0  0  0  0  0  0  0  0  0  0  0  0
  -24.9025  -21.2110   20.9908 C   0  0  0  0  0  0  0  0  0  0  0  0
  -25.2483  -21.3219   23.4621 C   0  0  0  0  0  0  0  0  0  0  0  0
  -26.2877  -29.3408   19.8999 C   0  0  1  0  0  0  0  0  0  0  0  0
  -29.7051  -30.6912   20.8314 C   0  0  2  0  0  0  0  0  0  0  0  0
  -25.2131  -22.2513   24.6708 C   0  0  2  0  0  0  0  0  0  1  0  0
  -25.7689  -29.4312   18.4370 C   0  0  0  0  0  0  0  0  0  0  0  0
  -26.0499  -14.5362   20.5314 N   0  0  0  0  0  0  0  0  0  0  0  0
  -25.9739  -15.7883   21.0135 N   0  0  0  0  0  0  0  0  0  0  0  0
  -21.5290  -23.4687   18.1632 N   0  0  0  0  0  0  0  0  0  0  0  0
  -24.8679  -28.7755   21.8463 N   0  0  0  0  0  0  0  0  0  0  0  0
  -28.2155  -18.4193   19.3670 N   0  0  0  0  0  0  0  0  0  0  0  0
  -24.5458  -17.2842   22.1683 N   0  0  0  0  0  0  0  0  0  0  0  0
  -22.0841  -13.5092   21.8770 N   0  0  0  0  0  0  0  0  0  0  0  0
  -21.3409  -29.0939   22.2813 N   0  0  0  0  0  0  0  0  0  0  0  0
  -27.4588  -30.1675   20.1708 N   0  0  0  0  0  0  0  0  0  0  0  0
  -27.1489  -20.4798   18.7568 N   0  0  0  0  0  0  0  0  0  0  0  0
  -21.0606  -21.1607   19.9938 N   0  3  0  0  0  0  0  0  0  0  0  0
  -30.5813  -30.3389   21.9843 N   0  3  0  0  0  0  0  0  0  0  0  0
  -24.9403  -22.0604   22.2121 N   0  3  0  0  0  0  0  0  0  0  0  0
  -22.0903  -15.6743   22.6325 O   0  0  0  0  0  0  0  0  0  0  0  0
  -22.6586  -27.3814   21.4133 O   0  0  0  0  0  0  0  0  0  0  0  0
  -24.7758  -30.8904   20.8691 O   0  0  0  0  0  0  0  0  0  0  0  0
  -28.8377  -28.4364   20.8630 O   0  0  0  0  0  0  0  0  0  0  0  0
  -29.0954  -20.4554   19.9903 O   0  0  0  0  0  0  0  0  0  0  0  0
  -23.6550   -8.7294   19.4852 O   0  0  0  0  0  0  0  0  0  0  0  0
  -26.1243  -23.3277   24.4533 O   0  0  0  0  0  0  0  0  0  1  0  0
  -21.2967   -5.5557   23.3283 F   0  0  0  0  0  0  0  0  0  0  0  0
  -21.2140   -9.4141   20.5876 F   0  0  0  0  0  0  0  0  0  0  0  0
  1  2  1  0  0  0  0
  1  5  2  0  0  0  0
  2  6  2  0  0  0  0
  3 10  2  0  0  0  0
  3 17  1  0  0  0  0
  4 11  1  0  0  0  0
  4 17  2  0  0  0  0
  5 19  1  0  0  0  0
  6 21  1  0  0  0  0
  7 12  2  0  0  0  0
  7 20  1  0  0  0  0
  8  9  1  0  0  0  0
  8 23  2  0  0  0  0
  9 26  2  0  0  0  0
 10 27  1  0  0  0  0
 11 27  2  0  0  0  0
 12 28  1  0  0  0  0
 13 14  2  0  0  0  0
 13 29  1  0  0  0  0
 14 30  1  0  0  0  0
 15 22  1  0  0  0  0
 15 28  2  0  0  0  0
 16 30  2  0  0  0  0
 16 31  1  0  0  0  0
 17 32  1  0  0  0  0
 18 32  1  0  0  0  0
 18 33  2  0  0  0  0
 18 34  1  0  0  0  0
 19 21  2  0  0  0  0
 19 39  1  0  0  0  0
 20 22  2  0  0  0  0
 20 40  1  0  0  0  0
 21 58  1  0  0  0  0
 22 41  1  0  0  0  0
 23 24  1  0  0  0  0
 23 68  1  0  0  0  0
 24 25  2  0  0  0  0
 24 70  1  0  0  0  0
 25 26  1  0  0  0  0
 25 69  1  0  0  0  0
 26 78  1  0  0  0  0
 27 94  1  0  0  0  0
 28 95  1  0  0  0  0
 29 31  2  0  0  0  0
 29 94  1  0  0  0  0
 30 96  1  0  0  0  0
 31 97  1  0  0  0  0
 32 76  2  0  0  0  0
 33 77  1  0  0  0  0
 33 81  1  0  0  0  0
 34 82  1  0  0  0  0
 34 89  2  0  0  0  0
 35 59  1  0  0  0  0
 35 83  1  0  0  0  0
 35 90  2  0  0  0  0
 36 72  1  0  0  0  0
 36 79  1  0  0  0  0
 36 91  2  0  0  0  0
 37 73  1  0  0  0  0
 37 84  1  0  0  0  0
 37 92  2  0  0  0  0
 38 80  1  0  0  0  0
 38 85  1  0  0  0  0
 38 93  2  0  0  0  0
 39 42  1  0  0  0  0
 40 59  1  0  0  0  0
 41 79  1  0  0  0  0
 42 48  1  0  0  0  0
 43 44  1  0  0  0  0
 43 52  1  0  0  0  0
 44 53  1  0  0  0  0
 45 49  1  0  0  0  0
 45 54  1  0  0  0  0
 46 47  1  0  0  0  0
 46 56  1  0  0  0  0
 47 57  1  0  0  0  0
 48 58  1  0  0  0  0
 49 60  1  0  0  0  0
 50 51  1  0  0  0  0
 50 61  1  0  0  0  0
 51 61  1  0  0  0  0
 52 78  1  0  0  0  0
 53 78  1  0  0  0  0
 54 80  1  0  0  0  0
 55 60  1  0  0  0  0
 55 80  1  0  0  0  0
 56 86  1  0  0  0  0
 57 86  1  0  0  0  0
 58 83  1  0  0  0  0
 59 79  1  0  0  0  0
 60 77  1  0  0  0  0
 61 85  1  0  0  0  0
 62 73  1  0  0  0  0
 63 74  1  0  0  0  0
 64 75  1  0  0  0  0
 65 75  1  0  0  0  0
 66 75  1  0  0  0  0
 67 87  1  0  0  0  0
 68 85  1  0  0  0  0
 69 86  1  0  0  0  0
 70 88  1  0  0  0  0
 71 74  1  0  0  0  0
 71 88  1  0  0  0  0
 72 75  1  0  0  0  0
 72 84  1  0  0  0  0
 73 87  1  0  0  0  0
 74 95  1  0  0  0  0
 76 77  1  0  0  0  0
M  CHG  3  86   1  87   1  88   1
M  ISO  4  38 100  74 101  85 100  95 101
M  END
> <Batch ID>
0026

> <Smiles>
CNC(C)C(=O)NC(C(=O)N1Cc2cc([101O:1][101CH:1](C)CNCc3c(C[100N:0](C4CC4)[100C:0](=O)N4CCCC(n5nc(-c6ccc(Oc7ccc(F)cc7F)cc6)c(C(N)=O)c5N)C4)ccc(N4CCCC4)c3CN3CCCC3)ccc2CC1C(=O)NC1CCCc2ccccc21)C(C)(C)C

> <Shape>
0.205

> <Color>
0.072

> <Negative vol penalty>
0.000

$$$$

  -OEChem-04042321253D

 82 91  0     1  0  0  0  0  0999 V2000
  -31.7879  -22.5436   20.4665 C   0  0  0  0  0  0  0  0  0  0  0  0
  -30.4760  -22.8470   20.8161 C   0  0  0  0  0  0  0  0  0  0  0  0
  -28.7786  -27.4910   21.4280 C   0  0  0  0  0  0  0  0  0  0  0  0
  -27.5445  -26.2959   19.7293 C   0  0  0  0  0  0  0  0  0  0  0  0
  -32.0449  -21.5440   19.5292 C   0  0  0  0  0  0  0  0  0  0  0  0
  -29.4202  -22.1516   20.2277 C   0  0  0  0  0  0  0  0  0  0  0  0
  -24.1092  -20.6077   22.8573 C   0  0  0  0  0  0  0  0  0  0  0  0
  -29.9742  -26.9947   20.9086 C   0  0  0  0  0  0  0  0  0  0  0  0
  -28.7401  -25.7996   19.2098 C   0  0  0  0  0  0  0  0  0  0  0  0
  -22.8412  -21.1862   22.8206 C   0  0  0  0  0  0  0  0  0  0  0  0
  -31.4912  -24.5066   17.2154 C   0  0  0  0  0  0  0  0  0  0  0  0
  -31.6589  -24.5349   15.8310 C   0  0  0  0  0  0  0  0  0  0  0  0
  -19.4779  -28.8455   22.6298 C   0  0  0  0  0  0  0  0  0  0  0  0
  -19.0514  -27.1919   20.9208 C   0  0  0  0  0  0  0  0  0  0  0  0
  -22.2040  -19.6636   21.0614 C   0  0  0  0  0  0  0  0  0  0  0  0
  -18.7494  -26.6272   23.2504 C   0  0  0  0  0  0  0  0  0  0  0  0
  -31.4183  -26.9388   15.8509 C   0  0  0  0  0  0  0  0  0  0  0  0
  -27.5637  -27.1416   20.8384 C   0  0  0  0  0  0  0  0  0  0  0  0
  -19.4364  -28.4825   21.2836 C   0  0  0  0  0  0  0  0  0  0  0  0
  -25.8219  -27.4622   22.6744 C   0  0  0  0  0  0  0  0  0  0  0  0
  -30.9922  -20.8294   18.9361 C   0  0  0  0  0  0  0  0  0  0  0  0
  -24.4381  -19.5582   21.9873 C   0  0  0  0  0  0  0  0  0  0  0  0
  -29.6634  -21.1425   19.2805 C   0  0  0  0  0  0  0  0  0  0  0  0
  -23.4760  -19.0717   21.0908 C   0  0  0  0  0  0  0  0  0  0  0  0
  -19.1344  -27.9178   23.6132 C   0  0  0  0  0  0  0  0  0  0  0  0
  -18.7079  -26.2642   21.9042 C   0  0  0  0  0  0  0  0  0  0  0  0
  -29.9550  -26.1491   19.7995 C   0  0  0  0  0  0  0  0  0  0  0  0
  -21.8893  -20.7161   21.9206 C   0  0  0  0  0  0  0  0  0  0  0  0
  -31.2870  -25.6945   17.9176 C   0  0  0  0  0  0  0  0  0  0  0  0
  -31.6225  -25.7510   15.1487 C   0  0  0  0  0  0  0  0  0  0  0  0
  -31.2506  -26.9105   17.2354 C   0  0  0  0  0  0  0  0  0  0  0  0
  -26.3283  -27.6534   21.3749 C   0  0  0  0  0  0  0  0  0  0  0  0
  -24.6304  -28.1453   22.6826 C   0  0  0  0  0  0  0  0  0  0  0  0
  -19.7975  -29.4594   20.2482 C   0  0  0  0  0  0  0  0  0  0  0  0
  -26.3789  -26.7325   23.7758 C   0  0  0  0  0  0  0  0  0  0  0  0
  -26.5742  -19.1526   19.6687 C   0  0  0  0  0  0  0  0  0  0  0  0
  -25.4554  -16.1080   19.7028 C   0  0  0  0  0  0  0  0  0  0  0  0
  -22.9048  -13.9669   20.4490 C   0  0  0  0  0  0  0  0  0  0  0  0
  -31.3174  -19.7899   17.8929 C   0  0  0  0  0  0  0  0  0  0  0  0
  -25.8016  -18.9271   22.0578 C   0  0  0  0  0  0  0  0  0  0  0  0
  -23.7725  -17.9338   20.1497 C   0  0  0  0  0  0  0  0  0  0  0  0
  -30.1577  -18.8435   17.5938 C   0  0  0  0  0  0  0  0  0  0  0  0
  -22.6585  -31.3937   19.3454 C   0  0  0  0  0  0  0  0  0  0  0  0
  -28.8630  -19.6281   17.4065 C   0  0  0  0  0  0  0  0  0  0  0  0
  -23.8305  -30.5695   19.8815 C   0  0  0  0  0  0  0  0  0  0  0  0
  -21.5321  -30.5020   18.8290 C   0  0  0  0  0  0  0  0  0  0  0  0
  -22.2203  -28.6730   20.3410 C   0  0  0  0  0  0  0  0  0  0  0  0
  -20.4841  -23.7907   21.6312 C   0  0  0  0  0  0  0  0  0  0  0  0
  -19.0116  -22.7181   20.6097 C   0  0  0  0  0  0  0  0  0  0  0  0
  -28.4922  -20.3934   18.6826 C   0  0  1  0  0  0  0  0  0  0  0  0
  -26.1935  -18.2061   20.7718 C   0  0  1  0  0  0  0  0  0  0  0  0
  -23.3561  -29.5338   20.9181 C   0  0  1  0  0  0  0  0  0  0  0  0
  -20.4659  -22.3912   20.9913 C   0  0  0  0  0  0  0  0  0  1  0  0
  -19.1778  -28.3061   25.0527 C   0  0  0  0  0  0  0  0  0  0  0  0
  -22.2694  -11.5422   20.3288 C   0  0  0  0  0  0  0  0  0  0  0  0
  -24.9620  -16.3885   16.7048 C   0  0  0  0  0  0  0  0  0  0  0  0
  -23.4914  -14.3661   16.8282 C   0  0  0  0  0  0  0  0  0  0  0  0
  -25.9117  -14.1831   17.4039 C   0  0  0  0  0  0  0  0  0  0  0  0
  -22.6101  -13.7787   23.3879 C   0  0  0  0  0  0  0  0  0  0  0  0
  -18.2941  -24.8758   21.5143 C   0  0  0  0  0  0  0  0  0  0  0  0
  -24.3454  -15.3690   18.9953 C   0  0  1  0  0  0  0  0  0  0  0  0
  -22.8872  -12.6382   21.1830 C   0  0  2  0  0  0  0  0  0  0  0  0
  -24.6724  -15.0994   17.4993 C   0  0  0  0  0  0  0  0  0  0  0  0
  -25.5241  -28.3994   20.6127 N   0  0  0  0  0  0  0  0  0  0  0  0
  -24.5003  -28.6828   21.4359 N   0  0  0  0  0  0  0  0  0  0  0  0
  -21.1336  -29.5302   19.8466 N   0  0  0  0  0  0  0  0  0  0  0  0
  -25.1219  -17.3540   20.2524 N   0  0  0  0  0  0  0  0  0  0  0  0
  -23.6916  -28.3324   23.6345 N   0  0  0  0  0  0  0  0  0  0  0  0
  -26.0534  -25.3760   23.9115 N   0  0  0  0  0  0  0  0  0  0  0  0
  -27.9125  -19.4966   19.6593 N   0  0  0  0  0  0  0  0  0  0  0  0
  -24.0933  -14.1641   19.7783 N   0  0  0  0  0  0  0  0  0  0  0  0
  -19.3427  -24.1464   20.7682 N   0  3  0  0  0  0  0  0  0  0  0  0
  -22.0992  -12.7527   22.4427 N   0  3  0  0  0  0  0  0  0  0  0  0
  -18.8815  -30.1584   19.8174 O   0  0  0  0  0  0  0  0  0  0  0  0
  -27.1296  -27.2715   24.6240 O   0  0  0  0  0  0  0  0  0  0  0  0
  -25.7175  -19.5408   18.8832 O   0  0  0  0  0  0  0  0  0  0  0  0
  -26.5753  -15.5954   19.7716 O   0  0  0  0  0  0  0  0  0  0  0  0
  -21.9575  -14.7497   20.4657 O   0  0  0  0  0  0  0  0  0  0  0  0
  -31.1215  -25.6648   19.2922 O   0  0  0  0  0  0  0  0  0  0  0  0
  -20.6512  -21.2795   21.8823 O   0  0  0  0  0  0  0  0  0  1  0  0
  -31.7851  -25.7781   13.8194 F   0  0  0  0  0  0  0  0  0  0  0  0
  -31.0560  -28.0551   17.9047 F   0  0  0  0  0  0  0  0  0  0  0  0
  1  2  1  0  0  0  0
  1  5  2  0  0  0  0
  2  6  2  0  0  0  0
  3  8  2  0  0  0  0
  3 18  1  0  0  0  0
  4  9  1  0  0  0  0
  4 18  2  0  0  0  0
  5 21  1  0  0  0  0
  6 23  1  0  0  0  0
  7 10  2  0  0  0  0
  7 22  1  0  0  0  0
  8 27  1  0  0  0  0
  9 27  2  0  0  0  0
 10 28  1  0  0  0  0
 11 12  2  0  0  0  0
 11 29  1  0  0  0  0
 12 30  1  0  0  0  0
 13 19  2  0  0  0  0
 13 25  1  0  0  0  0
 14 19  1  0  0  0  0
 14 26  2  0  0  0  0
 15 24  1  0  0  0  0
 15 28  2  0  0  0  0
 16 25  2  0  0  0  0
 16 26  1  0  0  0  0
 17 30  2  0  0  0  0
 17 31  1  0  0  0  0
 18 32  1  0  0  0  0
 19 34  1  0  0  0  0
 20 32  1  0  0  0  0
 20 33  2  0  0  0  0
 20 35  1  0  0  0  0
 21 23  2  0  0  0  0
 21 39  1  0  0  0  0
 22 24  2  0  0  0  0
 22 40  1  0  0  0  0
 23 50  1  0  0  0  0
 24 41  1  0  0  0  0
 25 54  1  0  0  0  0
 26 60  1  0  0  0  0
 27 79  1  0  0  0  0
 28 80  1  0  0  0  0
 29 31  2  0  0  0  0
 29 79  1  0  0  0  0
 30 81  1  0  0  0  0
 31 82  1  0  0  0  0
 32 64  2  0  0  0  0
 33 65  1  0  0  0  0
 33 68  1  0  0  0  0
 34 66  1  0  0  0  0
 34 74  2  0  0  0  0
 35 69  1  0  0  0  0
 35 75  2  0  0  0  0
 36 51  1  0  0  0  0
 36 70  1  0  0  0  0
 36 76  2  0  0  0  0
 37 61  1  0  0  0  0
 37 67  1  0  0  0  0
 37 77  2  0  0  0  0
 38 62  1  0  0  0  0
 38 71  1  0  0  0  0
 38 78  2  0  0  0  0
 39 42  1  0  0  0  0
 40 51  1  0  0  0  0
 41 67  1  0  0  0  0
 42 44  1  0  0  0  0
 43 45  1  0  0  0  0
 43 46  1  0  0  0  0
 44 50  1  0  0  0  0
 45 52  1  0  0  0  0
 46 66  1  0  0  0  0
 47 52  1  0  0  0  0
 47 66  1  0  0  0  0
 48 53  1  0  0  0  0
 48 72  1  0  0  0  0
 49 53  1  0  0  0  0
 49 72  1  0  0  0  0
 50 70  1  0  0  0  0
 51 67  1  0  0  0  0
 52 65  1  0  0  0  0
 53 80  1  0  0  0  0
 55 62  1  0  0  0  0
 56 63  1  0  0  0  0
 57 63  1  0  0  0  0
 58 63  1  0  0  0  0
 59 73  1  0  0  0  0
 60 72  1  0  0  0  0
 61 63  1  0  0  0  0
 61 71  1  0  0  0  0
 62 73  1  0  0  0  0
 64 65  1  0  0  0  0
M  CHG  2  72   1  73   1
M  ISO  4  19 100  34 100  53 101  80 101
M  END
> <Batch ID>
0026

> <Smiles>
CNC(C)C(=O)NC(C(=O)N1Cc2cc([101O:1][101CH:1]3CN(Cc4cc(C)c[100c:0]([100C:0](=O)N5CCCC(n6nc(-c7ccc(Oc8ccc(F)cc8F)cc7)c(C(N)=O)c6N)C5)c4)C3)ccc2CC1C(=O)NC1CCCc2ccccc21)C(C)(C)C

> <Shape>
0.193

> <Color>
0.079

> <Negative vol penalty>
0.000

$$$$

  -OEChem-04042321253D

 92101  0     1  0  0  0  0  0999 V2000
  -21.4986  -11.4011   20.0427 C   0  0  0  0  0  0  0  0  0  0  0  0
  -21.3905  -12.6030   20.7349 C   0  0  0  0  0  0  0  0  0  0  0  0
  -28.2342  -29.3140   23.9332 C   0  0  0  0  0  0  0  0  0  0  0  0
  -29.1288  -30.4942   22.0244 C   0  0  0  0  0  0  0  0  0  0  0  0
  -22.7572  -10.8769   19.7509 C   0  0  0  0  0  0  0  0  0  0  0  0
  -22.5410  -13.2809   21.1366 C   0  0  0  0  0  0  0  0  0  0  0  0
  -23.3220  -19.3474   21.4424 C   0  0  0  0  0  0  0  0  0  0  0  0
  -29.2042  -28.3241   23.7759 C   0  0  0  0  0  0  0  0  0  0  0  0
  -30.0989  -29.5044   21.8670 C   0  0  0  0  0  0  0  0  0  0  0  0
  -23.2527  -20.2498   22.5029 C   0  0  0  0  0  0  0  0  0  0  0  0
  -30.2857  -26.3799   20.5888 C   0  0  0  0  0  0  0  0  0  0  0  0
  -30.5207  -25.9020   19.2996 C   0  0  0  0  0  0  0  0  0  0  0  0
  -21.6906  -27.2905   15.0924 C   0  0  0  0  0  0  0  0  0  0  0  0
  -22.4745  -28.4330   15.2527 C   0  0  0  0  0  0  0  0  0  0  0  0
  -25.6462  -20.1111   22.7694 C   0  0  0  0  0  0  0  0  0  0  0  0
  -22.4088  -26.4941   17.2574 C   0  0  0  0  0  0  0  0  0  0  0  0
  -32.8211  -26.6250   19.4511 C   0  0  0  0  0  0  0  0  0  0  0  0
  -28.1964  -30.3990   23.0574 C   0  0  0  0  0  0  0  0  0  0  0  0
  -27.2936  -32.5948   23.9908 C   0  0  0  0  0  0  0  0  0  0  0  0
  -23.9237  -11.5535   20.1407 C   0  0  0  0  0  0  0  0  0  0  0  0
  -24.5547  -18.8108   21.0438 C   0  0  0  0  0  0  0  0  0  0  0  0
  -23.8163  -12.7645   20.8509 C   0  0  0  0  0  0  0  0  0  0  0  0
  -25.7287  -19.2040   21.7019 C   0  0  0  0  0  0  0  0  0  0  0  0
  -23.1928  -27.6366   17.4176 C   0  0  0  0  0  0  0  0  0  0  0  0
  -30.1366  -28.4193   22.7428 C   0  0  0  0  0  0  0  0  0  0  0  0
  -24.4145  -20.6295   23.1685 C   0  0  0  0  0  0  0  0  0  0  0  0
  -31.3182  -26.9804   21.3091 C   0  0  0  0  0  0  0  0  0  0  0  0
  -21.6577  -26.3210   16.0948 C   0  0  0  0  0  0  0  0  0  0  0  0
  -31.7885  -26.0245   18.7308 C   0  0  0  0  0  0  0  0  0  0  0  0
  -32.5860  -27.1029   20.7403 C   0  0  0  0  0  0  0  0  0  0  0  0
  -23.2256  -28.6061   16.4152 C   0  0  0  0  0  0  0  0  0  0  0  0
  -27.1942  -31.4216   23.2191 C   0  0  0  0  0  0  0  0  0  0  0  0
  -26.0863  -33.2254   23.8138 C   0  0  0  0  0  0  0  0  0  0  0  0
  -28.3800  -33.0719   24.7955 C   0  0  0  0  0  0  0  0  0  0  0  0
  -25.7926  -15.8858   20.9186 C   0  0  0  0  0  0  0  0  0  0  0  0
  -28.2535  -17.4118   19.4565 C   0  0  0  0  0  0  0  0  0  0  0  0
  -29.9708  -20.3175   18.9518 C   0  0  0  0  0  0  0  0  0  0  0  0
  -24.0431  -29.8881   20.0845 C   0  0  0  0  0  0  0  0  0  0  0  0
  -25.2617  -10.9238   19.8441 C   0  0  0  0  0  0  0  0  0  0  0  0
  -24.6157  -17.8590   19.8807 C   0  0  0  0  0  0  0  0  0  0  0  0
  -27.0793  -18.6725   21.2997 C   0  0  0  0  0  0  0  0  0  0  0  0
  -26.4337  -11.8928   19.9769 C   0  0  0  0  0  0  0  0  0  0  0  0
  -19.1382  -25.2929   21.8086 C   0  0  0  0  0  0  0  0  0  0  0  0
  -19.3545  -24.7815   23.2293 C   0  0  0  0  0  0  0  0  0  0  0  0
  -22.5779  -30.6885   23.3276 C   0  0  0  0  0  0  0  0  0  0  0  0
  -26.3195  -12.6950   21.2693 C   0  0  0  0  0  0  0  0  0  0  0  0
  -20.4353  -25.7880   21.1727 C   0  0  0  0  0  0  0  0  0  0  0  0
  -22.8765  -32.1785   23.4492 C   0  0  0  0  0  0  0  0  0  0  0  0
  -20.0444  -25.8260   24.1058 C   0  0  0  0  0  0  0  0  0  0  0  0
  -22.2839  -30.2794   21.8869 C   0  0  0  0  0  0  0  0  0  0  0  0
  -23.6934  -32.1440   21.0391 C   0  0  0  0  0  0  0  0  0  0  0  0
  -25.0411  -13.5418   21.2818 C   0  0  1  0  0  0  0  0  0  0  0  0
  -25.8631  -16.9808   19.8921 C   0  0  1  0  0  0  0  0  0  0  0  0
  -21.1292  -26.8459   22.0460 C   0  0  1  0  0  0  0  0  0  0  0  0
  -23.9532  -32.6619   22.4648 C   0  0  2  0  0  0  0  0  0  0  0  0
  -21.3426  -26.3584   23.4923 C   0  0  2  0  0  0  0  0  0  0  0  0
  -31.9601  -21.2441   17.7346 C   0  0  0  0  0  0  0  0  0  0  0  0
  -30.1064  -16.1306   21.5144 C   0  0  0  0  0  0  0  0  0  0  0  0
  -31.8624  -17.7929   20.8654 C   0  0  0  0  0  0  0  0  0  0  0  0
  -31.0046  -16.1655   19.1806 C   0  0  0  0  0  0  0  0  0  0  0  0
  -28.2910  -22.1920   17.3951 C   0  0  0  0  0  0  0  0  0  0  0  0
  -23.9869  -27.7843   18.6833 C   0  0  0  0  0  0  0  0  0  0  0  0
  -22.4193  -27.3296   21.3807 C   0  0  0  0  0  0  0  0  0  0  0  0
  -23.7818  -23.7433   24.8691 C   0  0  0  0  0  0  0  0  0  0  0  0
  -22.1571  -28.3129   20.2501 C   0  0  0  0  0  0  0  0  0  0  0  0
  -22.7390  -24.8499   24.9159 C   0  0  0  0  0  0  0  0  0  0  0  0
  -23.3016  -22.4776   24.1695 C   0  0  0  0  0  0  0  0  0  1  0  0
  -29.5260  -18.0778   19.9214 C   0  0  1  0  0  0  0  0  0  0  0  0
  -30.4616  -20.9901   17.6825 C   0  0  2  0  0  0  0  0  0  0  0  0
  -30.5994  -17.0504   20.3795 C   0  0  0  0  0  0  0  0  0  0  0  0
  -26.0168  -31.3109   22.5982 N   0  0  0  0  0  0  0  0  0  0  0  0
  -25.3652  -32.4227   22.9796 N   0  0  0  0  0  0  0  0  0  0  0  0
  -27.0863  -17.7398   20.1607 N   0  0  0  0  0  0  0  0  0  0  0  0
  -23.3355  -30.7250   20.9637 N   0  0  0  0  0  0  0  0  0  0  0  0
  -25.5818  -34.3827   24.2920 N   0  0  0  0  0  0  0  0  0  0  0  0
  -29.5479  -32.3003   24.8668 N   0  0  0  0  0  0  0  0  0  0  0  0
  -25.2080  -14.7210   20.4594 N   0  0  0  0  0  0  0  0  0  0  0  0
  -29.9559  -18.9442   18.8292 N   0  0  0  0  0  0  0  0  0  0  0  0
  -23.3832  -28.7507   19.5979 N   0  0  0  0  0  0  0  0  0  0  0  0
  -22.3740  -25.2813   23.5461 N   0  3  0  0  0  0  0  0  0  0  0  0
  -29.7701  -22.2957   17.4874 N   0  3  0  0  0  0  0  0  0  0  0  0
  -28.3109  -34.1425   25.4457 O   0  0  0  0  0  0  0  0  0  0  0  0
  -26.2372  -16.0826   22.0435 O   0  0  0  0  0  0  0  0  0  0  0  0
  -28.2925  -16.6350   18.4991 O   0  0  0  0  0  0  0  0  0  0  0  0
  -29.6377  -20.9473   19.9533 O   0  0  0  0  0  0  0  0  0  0  0  0
  -25.2094  -30.1380   19.7520 O   0  0  0  0  0  0  0  0  0  0  0  0
  -31.0835  -27.4537   22.5891 O   0  0  0  0  0  0  0  0  0  0  0  0
  -24.3496  -21.5097   24.2043 O   0  0  0  0  0  0  0  0  0  1  0  0
  -20.9054  -25.2236   15.9403 F   0  0  0  0  0  0  0  0  0  0  0  0
  -32.0145  -25.5641   17.4934 F   0  0  0  0  0  0  0  0  0  0  0  0
  -33.5822  -27.6778   21.4279 F   0  0  0  0  0  0  0  0  0  0  0  0
  -24.1838  -30.0324   16.5786 Cl  0  0  0  0  0  0  0  0  0  0  0  0
  1  2  1  0  0  0  0
  1  5  2  0  0  0  0
  2  6  2  0  0  0  0
  3  8  2  0  0  0  0
  3 18  1  0  0  0  0
  4  9  1  0  0  0  0
  4 18  2  0  0  0  0
  5 20  1  0  0  0  0
  6 22  1  0  0  0  0
  7 10  2  0  0  0  0
  7 21  1  0  0  0  0
  8 25  1  0  0  0  0
  9 25  2  0  0  0  0
 10 26  1  0  0  0  0
 11 12  2  0  0  0  0
 11 27  1  0  0  0  0
 12 29  1  0  0  0  0
 13 14  2  0  0  0  0
 13 28  1  0  0  0  0
 14 31  1  0  0  0  0
 15 23  1  0  0  0  0
 15 26  2  0  0  0  0
 16 24  1  0  0  0  0
 16 28  2  0  0  0  0
 17 29  2  0  0  0  0
 17 30  1  0  0  0  0
 18 32  1  0  0  0  0
 19 32  1  0  0  0  0
 19 33  2  0  0  0  0
 19 34  1  0  0  0  0
 20 22  2  0  0  0  0
 20 39  1  0  0  0  0
 21 23  2  0  0  0  0
 21 40  1  0  0  0  0
 22 52  1  0  0  0  0
 23 41  1  0  0  0  0
 24 31  2  0  0  0  0
 24 62  1  0  0  0  0
 25 87  1  0  0  0  0
 26 88  1  0  0  0  0
 27 30  2  0  0  0  0
 27 87  1  0  0  0  0
 28 89  1  0  0  0  0
 29 90  1  0  0  0  0
 30 91  1  0  0  0  0
 31 92  1  0  0  0  0
 32 71  2  0  0  0  0
 33 72  1  0  0  0  0
 33 75  1  0  0  0  0
 34 76  1  0  0  0  0
 34 82  2  0  0  0  0
 35 53  1  0  0  0  0
 35 77  1  0  0  0  0
 35 83  2  0  0  0  0
 36 68  1  0  0  0  0
 36 73  1  0  0  0  0
 36 84  2  0  0  0  0
 37 69  1  0  0  0  0
 37 78  1  0  0  0  0
 37 85  2  0  0  0  0
 38 74  1  0  0  0  0
 38 79  1  0  0  0  0
 38 86  2  0  0  0  0
 39 42  1  0  0  0  0
 40 53  1  0  0  0  0
 41 73  1  0  0  0  0
 42 46  1  0  0  0  0
 43 44  1  0  0  0  0
 43 47  1  0  0  0  0
 44 49  1  0  0  0  0
 45 48  1  0  0  0  0
 45 50  1  0  0  0  0
 46 52  1  0  0  0  0
 47 54  1  0  0  0  0
 48 55  1  0  0  0  0
 49 56  1  0  0  0  0
 50 74  1  0  0  0  0
 51 55  1  0  0  0  0
 51 74  1  0  0  0  0
 52 77  1  0  0  0  0
 53 73  1  0  0  0  0
 54 56  1  0  0  0  0
 54 63  1  0  0  0  0
 55 72  1  0  0  0  0
 56 80  1  0  0  0  0
 57 69  1  0  0  0  0
 58 70  1  0  0  0  0
 59 70  1  0  0  0  0
 60 70  1  0  0  0  0
 61 81  1  0  0  0  0
 62 79  1  0  0  0  0
 63 65  1  0  0  0  0
 64 66  1  0  0  0  0
 64 67  1  0  0  0  0
 65 79  1  0  0  0  0
 66 80  1  0  0  0  0
 67 88  1  0  0  0  0
 68 70  1  0  0  0  0
 68 78  1  0  0  0  0
 69 81  1  0  0  0  0
 71 72  1  0  0  0  0
M  CHG  2  80   1  81   1
M  ISO  4  38 100  67 101  79 100  88 101
M  END
> <Batch ID>
0026

> <Smiles>
CNC(C)C(=O)NC(C(=O)N1Cc2cc([101O:1][101CH2:1]CCNC3CCCCC3CC[100N:0](Cc3cc(F)ccc3Cl)[100C:0](=O)N3CCCC(n4nc(-c5ccc(Oc6ccc(F)cc6F)cc5)c(C(N)=O)c4N)C3)ccc2CC1C(=O)NC1CCCc2ccccc21)C(C)(C)C

> <Shape>
0.265

> <Color>
0.059

> <Negative vol penalty>
0.000

$$$$

  -OEChem-04042321253D

 86 95  0     1  0  0  0  0  0999 V2000
  -27.7197  -20.2148   28.9488 C   0  0  0  0  0  0  0  0  0  0  0  0
  -28.1056  -18.9710   28.4596 C   0  0  0  0  0  0  0  0  0  0  0  0
  -34.0215   -9.9836   23.6855 C   0  0  0  0  0  0  0  0  0  0  0  0
  -22.8401  -10.0651   20.0508 C   0  0  0  0  0  0  0  0  0  0  0  0
  -24.2810   -9.4472   21.8889 C   0  0  0  0  0  0  0  0  0  0  0  0
  -26.7563  -20.2994   29.9530 C   0  0  0  0  0  0  0  0  0  0  0  0
  -27.5289  -17.8108   28.9752 C   0  0  0  0  0  0  0  0  0  0  0  0
  -26.2645  -12.6563   25.9194 C   0  0  0  0  0  0  0  0  0  0  0  0
  -33.1420  -10.6683   22.8469 C   0  0  0  0  0  0  0  0  0  0  0  0
  -22.1310   -8.8740   20.2062 C   0  0  0  0  0  0  0  0  0  0  0  0
  -23.5719   -8.2561   22.0444 C   0  0  0  0  0  0  0  0  0  0  0  0
  -26.9421  -11.4432   25.8054 C   0  0  0  0  0  0  0  0  0  0  0  0
  -21.9150   -5.2178   23.1586 C   0  0  0  0  0  0  0  0  0  0  0  0
  -33.5306   -9.0502   24.5984 C   0  0  0  0  0  0  0  0  0  0  0  0
  -21.5644   -4.8352   24.4533 C   0  0  0  0  0  0  0  0  0  0  0  0
  -25.5737  -10.5206   27.5648 C   0  0  0  0  0  0  0  0  0  0  0  0
  -20.2969   -6.8756   24.7129 C   0  0  0  0  0  0  0  0  0  0  0  0
  -23.9151  -10.3516   20.8921 C   0  0  0  0  0  0  0  0  0  0  0  0
  -24.1430  -12.8917   20.8311 C   0  0  0  0  0  0  0  0  0  0  0  0
  -26.1605  -19.1402   30.4745 C   0  0  0  0  0  0  0  0  0  0  0  0
  -25.2421  -12.8143   26.8660 C   0  0  0  0  0  0  0  0  0  0  0  0
  -26.5576  -17.8799   29.9884 C   0  0  0  0  0  0  0  0  0  0  0  0
  -24.8830  -11.7359   27.6870 C   0  0  0  0  0  0  0  0  0  0  0  0
  -31.2805   -9.4863   23.8343 C   0  0  0  0  0  0  0  0  0  0  0  0
  -31.7715  -10.4197   22.9213 C   0  0  0  0  0  0  0  0  0  0  0  0
  -22.4968   -7.9695   21.2030 C   0  0  0  0  0  0  0  0  0  0  0  0
  -26.5987  -10.3760   26.6302 C   0  0  0  0  0  0  0  0  0  0  0  0
  -21.4566   -6.4293   22.6410 C   0  0  0  0  0  0  0  0  0  0  0  0
  -20.7553   -5.6640   25.2305 C   0  0  0  0  0  0  0  0  0  0  0  0
  -32.1601   -8.8016   24.6728 C   0  0  0  0  0  0  0  0  0  0  0  0
  -20.6475   -7.2582   23.4182 C   0  0  0  0  0  0  0  0  0  0  0  0
  -24.6484  -11.5815   20.7316 C   0  0  0  0  0  0  0  0  0  0  0  0
  -25.2305  -13.6978   20.5985 C   0  0  0  0  0  0  0  0  0  0  0  0
  -29.1819   -9.4339   25.1395 C   0  0  0  0  0  0  0  0  0  0  0  0
  -22.8098  -13.3400   21.1089 C   0  0  0  0  0  0  0  0  0  0  0  0
  -24.7984  -14.6847   29.3975 C   0  0  0  0  0  0  0  0  0  0  0  0
  -21.8540  -13.3235   29.3996 C   0  0  0  0  0  0  0  0  0  0  0  0
  -19.8821  -10.6833   28.5121 C   0  0  0  0  0  0  0  0  0  0  0  0
  -31.2370  -12.0864   21.1002 C   0  0  0  0  0  0  0  0  0  0  0  0
  -25.1579  -19.2793   31.5925 C   0  0  0  0  0  0  0  0  0  0  0  0
  -24.5028  -14.1210   26.9580 C   0  0  0  0  0  0  0  0  0  0  0  0
  -23.7790  -11.8478   28.7054 C   0  0  0  0  0  0  0  0  0  0  0  0
  -24.3235  -18.0218   31.8223 C   0  0  0  0  0  0  0  0  0  0  0  0
  -27.7204   -6.8081   23.7074 C   0  0  0  0  0  0  0  0  0  0  0  0
  -28.9296   -7.1757   22.8560 C   0  0  0  0  0  0  0  0  0  0  0  0
  -29.4159  -13.4144   18.1713 C   0  0  0  0  0  0  0  0  0  0  0  0
  -25.2167  -16.7854   31.8457 C   0  0  0  0  0  0  0  0  0  0  0  0
  -27.7740   -7.3255   25.1403 C   0  0  0  0  0  0  0  0  0  0  0  0
  -27.9404  -13.4541   18.5719 C   0  0  0  0  0  0  0  0  0  0  0  0
  -29.1705   -8.6804   22.7434 C   0  0  0  0  0  0  0  0  0  0  0  0
  -30.3558  -13.6141   19.3522 C   0  0  0  0  0  0  0  0  0  0  0  0
  -28.7267  -12.2349   20.6617 C   0  0  0  0  0  0  0  0  0  0  0  0
  -25.9371  -16.5999   30.5049 C   0  0  1  0  0  0  0  0  0  0  0  0
  -27.7726   -8.8495   25.2351 C   0  0  1  0  0  0  0  0  0  1  0  0
  -23.8253  -14.3303   28.3088 C   0  0  1  0  0  0  0  0  0  0  0  0
  -27.7178  -13.2362   20.0778 C   0  0  2  0  0  0  0  0  0  0  0  0
  -17.7813   -9.3448   28.2081 C   0  0  0  0  0  0  0  0  0  0  0  0
  -22.3375  -12.5793   32.3189 C   0  0  0  0  0  0  0  0  0  0  0  0
  -20.4332  -10.9627   32.1497 C   0  0  0  0  0  0  0  0  0  0  0  0
  -20.0290  -13.4022   31.8207 C   0  0  0  0  0  0  0  0  0  0  0  0
  -19.3578  -11.8914   25.8617 C   0  0  0  0  0  0  0  0  0  0  0  0
  -21.2447  -12.0948   30.0305 C   0  0  1  0  0  0  0  0  0  0  0  0
  -18.5204  -10.6230   27.8438 C   0  0  2  0  0  0  0  0  0  0  0  0
  -21.0333  -12.2579   31.5622 C   0  0  0  0  0  0  0  0  0  0  0  0
  -25.9552  -11.5524   20.4571 N   0  0  0  0  0  0  0  0  0  0  0  0
  -26.2802  -12.8543   20.3819 N   0  0  0  0  0  0  0  0  0  0  0  0
  -29.8649   -9.2136   23.9289 N   0  0  0  0  0  0  0  0  0  0  0  0
  -23.0901  -13.1477   28.7617 N   0  0  0  0  0  0  0  0  0  0  0  0
  -30.1257  -12.6124   20.3973 N   0  0  0  0  0  0  0  0  0  0  0  0
  -25.3817  -15.0387   20.5600 N   0  0  0  0  0  0  0  0  0  0  0  0
  -22.4419  -13.5551   22.4441 N   0  0  0  0  0  0  0  0  0  0  0  0
  -30.8982  -11.1284   22.0591 N   0  0  0  0  0  0  0  0  0  0  0  0
  -25.0361  -16.0404   29.5202 N   0  0  0  0  0  0  0  0  0  0  0  0
  -20.0220  -11.8168   29.2848 N   0  0  0  0  0  0  0  0  0  0  0  0
  -18.6681  -10.6744   26.3617 N   0  3  0  0  0  0  0  0  0  0  0  0
  -29.6369  -10.0813   26.0875 O   0  0  0  0  0  0  0  0  0  0  0  0
  -21.9646  -13.5280   20.2013 O   0  0  0  0  0  0  0  0  0  0  0  0
  -25.2956  -13.7942   30.0769 O   0  0  0  0  0  0  0  0  0  0  0  0
  -21.2519  -14.3982   29.4641 O   0  0  0  0  0  0  0  0  0  0  0  0
  -20.7348   -9.8103   28.3665 O   0  0  0  0  0  0  0  0  0  0  0  0
  -32.3893  -12.4497   20.8549 O   0  0  0  0  0  0  0  0  0  0  0  0
  -21.8050   -6.8073   21.3552 O   0  0  0  0  0  0  0  0  0  0  0  0
  -27.2589   -9.1910   26.5215 O   0  0  0  0  0  0  0  0  0  1  0  0
  -20.4174   -5.2958   26.4732 F   0  0  0  0  0  0  0  0  0  0  0  0
  -31.7012   -7.9026   25.5554 F   0  0  0  0  0  0  0  0  0  0  0  0
  -20.2032   -8.4227   22.9260 F   0  0  0  0  0  0  0  0  0  0  0  0
  1  2  1  0  0  0  0
  1  6  2  0  0  0  0
  2  7  2  0  0  0  0
  3  9  2  0  0  0  0
  3 14  1  0  0  0  0
  4 10  2  0  0  0  0
  4 18  1  0  0  0  0
  5 11  1  0  0  0  0
  5 18  2  0  0  0  0
  6 20  1  0  0  0  0
  7 22  1  0  0  0  0
  8 12  2  0  0  0  0
  8 21  1  0  0  0  0
  9 25  1  0  0  0  0
 10 26  1  0  0  0  0
 11 26  2  0  0  0  0
 12 27  1  0  0  0  0
 13 15  2  0  0  0  0
 13 28  1  0  0  0  0
 14 30  2  0  0  0  0
 15 29  1  0  0  0  0
 16 23  1  0  0  0  0
 16 27  2  0  0  0  0
 17 29  2  0  0  0  0
 17 31  1  0  0  0  0
 18 32  1  0  0  0  0
 19 32  1  0  0  0  0
 19 33  2  0  0  0  0
 19 35  1  0  0  0  0
 20 22  2  0  0  0  0
 20 40  1  0  0  0  0
 21 23  2  0  0  0  0
 21 41  1  0  0  0  0
 22 53  1  0  0  0  0
 23 42  1  0  0  0  0
 24 25  2  0  0  0  0
 24 30  1  0  0  0  0
 24 67  1  0  0  0  0
 25 72  1  0  0  0  0
 26 82  1  0  0  0  0
 27 83  1  0  0  0  0
 28 31  2  0  0  0  0
 28 82  1  0  0  0  0
 29 84  1  0  0  0  0
 30 85  1  0  0  0  0
 31 86  1  0  0  0  0
 32 65  2  0  0  0  0
 33 66  1  0  0  0  0
 33 70  1  0  0  0  0
 34 54  1  0  0  0  0
 34 67  1  0  0  0  0
 34 76  2  0  0  0  0
 35 71  1  0  0  0  0
 35 77  2  0  0  0  0
 36 55  1  0  0  0  0
 36 73  1  0  0  0  0
 36 78  2  0  0  0  0
 37 62  1  0  0  0  0
 37 68  1  0  0  0  0
 37 79  2  0  0  0  0
 38 63  1  0  0  0  0
 38 74  1  0  0  0  0
 38 80  2  0  0  0  0
 39 69  1  0  0  0  0
 39 72  1  0  0  0  0
 39 81  2  0  0  0  0
 40 43  1  0  0  0  0
 41 55  1  0  0  0  0
 42 68  1  0  0  0  0
 43 47  1  0  0  0  0
 44 45  1  0  0  0  0
 44 48  1  0  0  0  0
 45 50  1  0  0  0  0
 46 49  1  0  0  0  0
 46 51  1  0  0  0  0
 47 53  1  0  0  0  0
 48 54  1  0  0  0  0
 49 56  1  0  0  0  0
 50 67  1  0  0  0  0
 51 69  1  0  0  0  0
 52 56  1  0  0  0  0
 52 69  1  0  0  0  0
 53 73  1  0  0  0  0
 54 83  1  0  0  0  0
 55 68  1  0  0  0  0
 56 66  1  0  0  0  0
 57 63  1  0  0  0  0
 58 64  1  0  0  0  0
 59 64  1  0  0  0  0
 60 64  1  0  0  0  0
 61 75  1  0  0  0  0
 62 64  1  0  0  0  0
 62 74  1  0  0  0  0
 63 75  1  0  0  0  0
 65 66  1  0  0  0  0
M  CHG  1  75   1
M  ISO  4  39 100  54 101  72 100  83 101
M  END
> <Batch ID>
0026

> <Smiles>
CNC(C)C(=O)NC(C(=O)N1Cc2cc([101O:1][101CH:1]3CCCCN(c4c(F)cccc4[100NH:0][100C:0](=O)N4CCCC(n5nc(-c6ccc(Oc7ccc(F)cc7F)cc6)c(C(N)=O)c5N)C4)C3=O)ccc2CC1C(=O)NC1CCCc2ccccc21)C(C)(C)C

> <Shape>
0.144

> <Color>
0.158

> <Negative vol penalty>
0.000

$$$$

  -OEChem-04042321253D

 86 95  0     1  0  0  0  0  0999 V2000
  -18.2968  -26.9698   21.9350 C   0  0  0  0  0  0  0  0  0  0  0  0
  -18.4606  -26.1110   20.8528 C   0  0  0  0  0  0  0  0  0  0  0  0
  -31.0956  -22.2925   18.5301 C   0  0  0  0  0  0  0  0  0  0  0  0
  -28.9781  -22.6114   19.6488 C   0  0  0  0  0  0  0  0  0  0  0  0
  -19.3175  -27.1078   22.8747 C   0  0  0  0  0  0  0  0  0  0  0  0
  -19.6458  -25.3905   20.7092 C   0  0  0  0  0  0  0  0  0  0  0  0
  -20.7672  -17.6879   20.0460 C   0  0  0  0  0  0  0  0  0  0  0  0
  -26.1685  -11.5727   18.7388 C   0  0  0  0  0  0  0  0  0  0  0  0
  -31.3886  -23.6458   18.6988 C   0  0  0  0  0  0  0  0  0  0  0  0
  -29.2711  -23.9647   19.8176 C   0  0  0  0  0  0  0  0  0  0  0  0
  -21.1040  -16.3345   20.0791 C   0  0  0  0  0  0  0  0  0  0  0  0
  -32.5360  -27.0916   18.5166 C   0  0  0  0  0  0  0  0  0  0  0  0
  -27.2431  -11.2853   17.8973 C   0  0  0  0  0  0  0  0  0  0  0  0
  -33.0602  -27.7842   17.4252 C   0  0  0  0  0  0  0  0  0  0  0  0
  -23.2571  -16.8827   21.0340 C   0  0  0  0  0  0  0  0  0  0  0  0
  -27.4553  -13.3317   19.7814 C   0  0  0  0  0  0  0  0  0  0  0  0
  -31.0755  -27.2716   16.1465 C   0  0  0  0  0  0  0  0  0  0  0  0
  -29.8904  -21.7754   19.0051 C   0  0  0  0  0  0  0  0  0  0  0  0
  -29.4783  -19.6767   17.6146 C   0  0  0  0  0  0  0  0  0  0  0  0
  -20.5119  -26.3813   22.7477 C   0  0  0  0  0  0  0  0  0  0  0  0
  -21.6692  -18.6438   20.5215 C   0  0  0  0  0  0  0  0  0  0  0  0
  -20.6839  -25.5199   21.6474 C   0  0  0  0  0  0  0  0  0  0  0  0
  -22.9203  -18.2388   21.0148 C   0  0  0  0  0  0  0  0  0  0  0  0
  -28.5299  -13.0444   18.9398 C   0  0  0  0  0  0  0  0  0  0  0  0
  -26.2745  -12.5959   19.6809 C   0  0  0  0  0  0  0  0  0  0  0  0
  -30.4764  -24.4819   19.3425 C   0  0  0  0  0  0  0  0  0  0  0  0
  -22.3459  -15.9330   20.5717 C   0  0  0  0  0  0  0  0  0  0  0  0
  -31.2815  -26.4889   18.4229 C   0  0  0  0  0  0  0  0  0  0  0  0
  -32.3300  -27.8742   16.2402 C   0  0  0  0  0  0  0  0  0  0  0  0
  -28.4238  -12.0211   17.9978 C   0  0  0  0  0  0  0  0  0  0  0  0
  -30.5512  -26.5790   17.2379 C   0  0  0  0  0  0  0  0  0  0  0  0
  -29.5869  -20.3777   18.8306 C   0  0  0  0  0  0  0  0  0  0  0  0
  -29.1783  -18.3889   17.9862 C   0  0  0  0  0  0  0  0  0  0  0  0
  -24.2050  -11.9805   21.0025 C   0  0  0  0  0  0  0  0  0  0  0  0
  -29.6348  -20.1475   16.2694 C   0  0  0  0  0  0  0  0  0  0  0  0
  -22.3773  -22.2707   21.1699 C   0  0  0  0  0  0  0  0  0  0  0  0
  -23.4777  -20.7055   23.5677 C   0  0  0  0  0  0  0  0  0  0  0  0
  -23.6068  -18.8424   26.1006 C   0  0  0  0  0  0  0  0  0  0  0  0
  -30.4982  -14.0902   21.4642 C   0  0  0  0  0  0  0  0  0  0  0  0
  -21.6056  -26.5993   23.7631 C   0  0  0  0  0  0  0  0  0  0  0  0
  -21.3732  -20.1172   20.4481 C   0  0  0  0  0  0  0  0  0  0  0  0
  -23.8725  -19.3048   21.4838 C   0  0  0  0  0  0  0  0  0  0  0  0
  -23.3043  -12.7236   21.9642 C   0  0  0  0  0  0  0  0  0  0  0  0
  -22.6818  -25.5169   23.7410 C   0  0  0  0  0  0  0  0  0  0  0  0
  -27.8343  -16.4614   22.4554 C   0  0  0  0  0  0  0  0  0  0  0  0
  -23.1177  -25.2267   22.3083 C   0  0  0  0  0  0  0  0  0  0  0  0
  -28.0979  -17.6586   21.5437 C   0  0  0  0  0  0  0  0  0  0  0  0
  -29.1109  -15.6783   22.7466 C   0  0  0  0  0  0  0  0  0  0  0  0
  -30.1049  -16.4387   20.6140 C   0  0  0  0  0  0  0  0  0  0  0  0
  -24.9755  -14.2105   21.1144 C   0  0  0  0  0  0  0  0  0  0  0  0
  -21.9452  -24.7025   21.4705 C   0  0  1  0  0  0  0  0  0  0  0  0
  -21.9519  -20.9089   21.6345 C   0  0  1  0  0  0  0  0  0  0  0  0
  -28.8310  -17.2222   20.2633 C   0  0  2  0  0  0  0  0  0  0  0  0
  -23.5522  -14.1846   21.6360 C   0  0  1  0  0  0  0  0  0  1  0  0
  -23.9386  -17.6678   28.2932 C   0  0  0  0  0  0  0  0  0  0  0  0
  -26.2855  -20.9279   22.3971 C   0  0  0  0  0  0  0  0  0  0  0  0
  -27.1792  -20.0195   24.5522 C   0  0  0  0  0  0  0  0  0  0  0  0
  -25.9420  -22.1855   24.5313 C   0  0  0  0  0  0  0  0  0  0  0  0
  -31.2776  -12.1789   20.1155 C   0  0  0  0  0  0  0  0  0  0  0  0
  -21.3661  -20.3107   27.3585 C   0  0  0  0  0  0  0  0  0  0  0  0
  -29.7912  -13.8333   19.0482 C   0  0  0  0  0  0  0  0  0  0  0  0
  -24.6683  -20.0273   24.1969 C   0  0  1  0  0  0  0  0  0  0  0  0
  -23.4297  -18.9254   27.6059 C   0  0  2  0  0  0  0  0  0  0  0  0
  -25.9995  -20.7754   23.9044 C   0  0  0  0  0  0  0  0  0  0  0  0
  -29.3730  -19.5997   19.8951 N   0  0  0  0  0  0  0  0  0  0  0  0
  -29.1270  -18.3966   19.3491 N   0  0  0  0  0  0  0  0  0  0  0  0
  -25.1741  -12.8902   20.5414 N   0  0  0  0  0  0  0  0  0  0  0  0
  -23.1463  -20.3196   22.2632 N   0  0  0  0  0  0  0  0  0  0  0  0
  -29.8101  -15.3136   21.5140 N   0  0  0  0  0  0  0  0  0  0  0  0
  -28.9559  -17.2621   17.2769 N   0  0  0  0  0  0  0  0  0  0  0  0
  -30.9097  -20.1001   15.6890 N   0  0  0  0  0  0  0  0  0  0  0  0
  -21.6923  -23.3095   21.7707 N   0  0  0  0  0  0  0  0  0  0  0  0
  -24.3582  -19.8922   25.6161 N   0  0  0  0  0  0  0  0  0  0  0  0
  -30.5842  -13.4552   20.2159 N   0  0  0  0  0  0  0  0  0  0  0  0
  -21.9899  -19.0988   27.9493 N   0  3  0  0  0  0  0  0  0  0  0  0
  -24.0749  -10.7863   20.7743 O   0  0  0  0  0  0  0  0  0  0  0  0
  -28.6758  -20.6120   15.6076 O   0  0  0  0  0  0  0  0  0  0  0  0
  -23.2630  -22.3729   20.3291 O   0  0  0  0  0  0  0  0  0  0  0  0
  -22.8598  -21.5586   24.2109 O   0  0  0  0  0  0  0  0  0  0  0  0
  -23.1297  -17.9350   25.4227 O   0  0  0  0  0  0  0  0  0  0  0  0
  -30.9983  -13.5890   22.4794 O   0  0  0  0  0  0  0  0  0  0  0  0
  -30.7620  -25.8024   19.5075 O   0  0  0  0  0  0  0  0  0  0  0  0
  -22.6665  -14.6098   20.6054 O   0  0  0  0  0  0  0  0  0  1  0  0
  -32.8329  -28.5407   15.1928 F   0  0  0  0  0  0  0  0  0  0  0  0
  -29.4514  -11.7368   17.1856 F   0  0  0  0  0  0  0  0  0  0  0  0
  -29.3450  -26.0030   17.1423 F   0  0  0  0  0  0  0  0  0  0  0  0
  1  2  1  0  0  0  0
  1  5  2  0  0  0  0
  2  6  2  0  0  0  0
  3  9  2  0  0  0  0
  3 18  1  0  0  0  0
  4 10  1  0  0  0  0
  4 18  2  0  0  0  0
  5 20  1  0  0  0  0
  6 22  1  0  0  0  0
  7 11  2  0  0  0  0
  7 21  1  0  0  0  0
  8 13  2  0  0  0  0
  8 25  1  0  0  0  0
  9 26  1  0  0  0  0
 10 26  2  0  0  0  0
 11 27  1  0  0  0  0
 12 14  2  0  0  0  0
 12 28  1  0  0  0  0
 13 30  1  0  0  0  0
 14 29  1  0  0  0  0
 15 23  1  0  0  0  0
 15 27  2  0  0  0  0
 16 24  1  0  0  0  0
 16 25  2  0  0  0  0
 17 29  2  0  0  0  0
 17 31  1  0  0  0  0
 18 32  1  0  0  0  0
 19 32  1  0  0  0  0
 19 33  2  0  0  0  0
 19 35  1  0  0  0  0
 20 22  2  0  0  0  0
 20 40  1  0  0  0  0
 21 23  2  0  0  0  0
 21 41  1  0  0  0  0
 22 51  1  0  0  0  0
 23 42  1  0  0  0  0
 24 30  2  0  0  0  0
 24 61  1  0  0  0  0
 25 67  1  0  0  0  0
 26 82  1  0  0  0  0
 27 83  1  0  0  0  0
 28 31  2  0  0  0  0
 28 82  1  0  0  0  0
 29 84  1  0  0  0  0
 30 85  1  0  0  0  0
 31 86  1  0  0  0  0
 32 65  2  0  0  0  0
 33 66  1  0  0  0  0
 33 70  1  0  0  0  0
 34 43  1  0  0  0  0
 34 67  1  0  0  0  0
 34 76  2  0  0  0  0
 35 71  1  0  0  0  0
 35 77  2  0  0  0  0
 36 52  1  0  0  0  0
 36 72  1  0  0  0  0
 36 78  2  0  0  0  0
 37 62  1  0  0  0  0
 37 68  1  0  0  0  0
 37 79  2  0  0  0  0
 38 63  1  0  0  0  0
 38 73  1  0  0  0  0
 38 80  2  0  0  0  0
 39 69  1  0  0  0  0
 39 74  1  0  0  0  0
 39 81  2  0  0  0  0
 40 44  1  0  0  0  0
 41 52  1  0  0  0  0
 42 68  1  0  0  0  0
 43 54  1  0  0  0  0
 44 46  1  0  0  0  0
 45 47  1  0  0  0  0
 45 48  1  0  0  0  0
 46 51  1  0  0  0  0
 47 53  1  0  0  0  0
 48 69  1  0  0  0  0
 49 53  1  0  0  0  0
 49 69  1  0  0  0  0
 50 54  1  0  0  0  0
 50 67  1  0  0  0  0
 51 72  1  0  0  0  0
 52 68  1  0  0  0  0
 53 66  1  0  0  0  0
 54 83  1  0  0  0  0
 55 63  1  0  0  0  0
 56 64  1  0  0  0  0
 57 64  1  0  0  0  0
 58 64  1  0  0  0  0
 59 74  1  0  0  0  0
 60 75  1  0  0  0  0
 61 74  1  0  0  0  0
 62 64  1  0  0  0  0
 62 73  1  0  0  0  0
 63 75  1  0  0  0  0
 65 66  1  0  0  0  0
M  CHG  1  75   1
M  ISO  4  39 100  54 101  74 100  83 101
M  END
> <Batch ID>
0026

> <Smiles>
CNC(C)C(=O)NC(C(=O)N1Cc2cc([101O:1][101CH:1]3CC(=O)N(c4ccc(F)c(C[100N:0](C)[100C:0](=O)N5CCCC(n6nc(-c7ccc(Oc8ccc(F)cc8F)cc7)c(C(N)=O)c6N)C5)c4)C3)ccc2CC1C(=O)NC1CCCc2ccccc21)C(C)(C)C

> <Shape>
0.219

> <Color>
0.048

> <Negative vol penalty>
0.000

$$$$

  -OEChem-04042321253D

 87 97  0     1  0  0  0  0  0999 V2000
  -16.6327  -29.9945   23.6239 C   0  0  0  0  0  0  0  0  0  0  0  0
  -17.7404  -30.6775   24.1157 C   0  0  0  0  0  0  0  0  0  0  0  0
  -26.9030  -15.6439   22.4874 C   0  0  0  0  0  0  0  0  0  0  0  0
  -26.2819  -15.1091   20.2147 C   0  0  0  0  0  0  0  0  0  0  0  0
  -16.7990  -28.7644   22.9890 C   0  0  0  0  0  0  0  0  0  0  0  0
  -19.0151  -30.1303   23.9738 C   0  0  0  0  0  0  0  0  0  0  0  0
  -25.8459  -32.0639   23.0162 C   0  0  0  0  0  0  0  0  0  0  0  0
  -32.8880  -27.3390   20.8632 C   0  0  0  0  0  0  0  0  0  0  0  0
  -25.8778  -14.8249   22.9603 C   0  0  0  0  0  0  0  0  0  0  0  0
  -25.2566  -14.2901   20.6876 C   0  0  0  0  0  0  0  0  0  0  0  0
  -27.1101  -31.8613   23.5679 C   0  0  0  0  0  0  0  0  0  0  0  0
  -24.9482  -11.1816   21.9771 C   0  0  0  0  0  0  0  0  0  0  0  0
  -32.9365  -26.7251   19.6143 C   0  0  0  0  0  0  0  0  0  0  0  0
  -24.7971   -9.9277   21.3851 C   0  0  0  0  0  0  0  0  0  0  0  0
  -27.2849  -29.7672   22.3831 C   0  0  0  0  0  0  0  0  0  0  0  0
  -22.5547  -10.5181   20.7068 C   0  0  0  0  0  0  0  0  0  0  0  0
  -27.1051  -15.7861   21.1146 C   0  0  0  0  0  0  0  0  0  0  0  0
  -29.4926  -16.2583   20.3500 C   0  0  0  0  0  0  0  0  0  0  0  0
  -18.0773  -28.2064   22.8306 C   0  0  0  0  0  0  0  0  0  0  0  0
  -25.2861  -31.1129   22.1509 C   0  0  0  0  0  0  0  0  0  0  0  0
  -19.1985  -28.8909   23.3373 C   0  0  0  0  0  0  0  0  0  0  0  0
  -26.0145  -29.9614   21.8197 C   0  0  0  0  0  0  0  0  0  0  0  0
  -30.7288  -26.3155   21.2907 C   0  0  0  0  0  0  0  0  0  0  0  0
  -30.7867  -25.6775   20.0371 C   0  0  0  0  0  0  0  0  0  0  0  0
  -31.7910  -27.1337   21.6996 C   0  0  0  0  0  0  0  0  0  0  0  0
  -25.0546  -14.1480   22.0605 C   0  0  0  0  0  0  0  0  0  0  0  0
  -27.8286  -30.7114   23.2537 C   0  0  0  0  0  0  0  0  0  0  0  0
  -23.9024  -12.1038   21.9341 C   0  0  0  0  0  0  0  0  0  0  0  0
  -23.6004   -9.5960   20.7499 C   0  0  0  0  0  0  0  0  0  0  0  0
  -31.8910  -25.8994   19.2017 C   0  0  0  0  0  0  0  0  0  0  0  0
  -22.7057  -11.7720   21.2989 C   0  0  0  0  0  0  0  0  0  0  0  0
  -28.1636  -16.6324   20.6254 C   0  0  0  0  0  0  0  0  0  0  0  0
  -30.0913  -17.4148   19.9134 C   0  0  0  0  0  0  0  0  0  0  0  0
  -30.1289  -14.9798   20.4774 C   0  0  0  0  0  0  0  0  0  0  0  0
  -22.7000  -29.2661   22.2184 C   0  0  0  0  0  0  0  0  0  0  0  0
  -23.6268  -28.5261   19.1992 C   0  0  0  0  0  0  0  0  0  0  0  0
  -26.1502  -28.3256   16.9102 C   0  0  0  0  0  0  0  0  0  0  0  0
  -28.3863  -23.1394   21.0042 C   0  0  0  0  0  0  0  0  0  0  0  0
  -18.2025  -26.8518   22.1793 C   0  0  0  0  0  0  0  0  0  0  0  0
  -23.9325  -31.3591   21.5430 C   0  0  0  0  0  0  0  0  0  0  0  0
  -29.5639  -26.0882   22.2216 C   0  0  0  0  0  0  0  0  0  0  0  0
  -25.4667  -28.9196   20.8800 C   0  0  0  0  0  0  0  0  0  0  0  0
  -29.6645  -24.7863   19.5527 C   0  0  0  0  0  0  0  0  0  0  0  0
  -19.6248  -26.5178   21.7369 C   0  0  0  0  0  0  0  0  0  0  0  0
  -29.1310  -21.5401   17.7092 C   0  0  0  0  0  0  0  0  0  0  0  0
  -20.6196  -26.8453   22.8459 C   0  0  0  0  0  0  0  0  0  0  0  0
  -29.0097  -20.0600   18.0690 C   0  0  0  0  0  0  0  0  0  0  0  0
  -31.3129  -31.3397   24.0171 C   0  0  0  0  0  0  0  0  0  0  0  0
  -28.3371  -25.5667   21.4807 C   0  0  0  0  0  0  0  0  0  0  0  0
  -28.2349  -22.3980   18.5943 C   0  0  0  0  0  0  0  0  0  0  0  0
  -28.3572  -20.7393   20.4244 C   0  0  0  0  0  0  0  0  0  0  0  0
  -31.9255  -29.9815   24.2934 C   0  0  0  0  0  0  0  0  0  0  0  0
  -30.7397  -29.9323   22.1507 C   0  0  0  0  0  0  0  0  0  0  0  0
  -20.5999  -28.3416   23.1806 C   0  0  1  0  0  0  0  0  0  0  0  0
  -23.2445  -30.0793   21.0782 C   0  0  1  0  0  0  0  0  0  0  0  0
  -29.2618  -19.8357   19.5698 C   0  0  1  0  0  0  0  0  0  0  0  0
  -30.1793  -31.0153   23.0595 C   0  0  1  0  0  0  0  0  0  1  0  0
  -26.6084  -27.6487   14.5376 C   0  0  0  0  0  0  0  0  0  0  0  0
  -23.5093  -25.5888   20.0169 C   0  0  0  0  0  0  0  0  0  0  0  0
  -24.8564  -25.0397   17.9793 C   0  0  0  0  0  0  0  0  0  0  0  0
  -22.5994  -26.0746   17.7386 C   0  0  0  0  0  0  0  0  0  0  0  0
  -27.0308  -31.0549   16.1794 C   0  0  0  0  0  0  0  0  0  0  0  0
  -31.7937  -27.8039   23.0364 C   0  0  0  0  0  0  0  0  0  0  0  0
  -24.5240  -27.4804   18.5823 C   0  0  1  0  0  0  0  0  0  0  0  0
  -26.2425  -28.7938   15.4691 C   0  0  2  0  0  0  0  0  0  0  0  0
  -23.8821  -26.0644   18.5986 C   0  0  0  0  0  0  0  0  0  0  0  0
  -27.9314  -17.9254   20.3841 N   0  0  0  0  0  0  0  0  0  0  0  0
  -29.1225  -18.3739   19.9526 N   0  0  0  0  0  0  0  0  0  0  0  0
  -24.1364  -29.2028   20.3164 N   0  0  0  0  0  0  0  0  0  0  0  0
  -28.7072  -24.4491   20.6161 N   0  0  0  0  0  0  0  0  0  0  0  0
  -28.4767  -22.1418   20.0202 N   0  0  0  0  0  0  0  0  0  0  0  0
  -31.3468  -17.6946   19.5037 N   0  0  0  0  0  0  0  0  0  0  0  0
  -29.3678  -13.8980   20.9408 N   0  0  0  0  0  0  0  0  0  0  0  0
  -21.3296  -29.0926   22.1816 N   0  0  0  0  0  0  0  0  0  0  0  0
  -24.8625  -27.9678   17.2495 N   0  0  0  0  0  0  0  0  0  0  0  0
  -31.8671  -29.2870   22.9494 N   0  3  2  0  0  0  0  0  0  0  0  0
  -27.2776  -29.8575   15.3354 N   0  3  0  0  0  0  0  0  0  0  0  0
  -31.3408  -14.8057   20.2045 O   0  0  0  0  0  0  0  0  0  0  0  0
  -23.4665  -28.8273   23.0678 O   0  0  0  0  0  0  0  0  0  0  0  0
  -22.5176  -28.7398   18.7035 O   0  0  0  0  0  0  0  0  0  0  0  0
  -27.1237  -28.2782   17.6589 O   0  0  0  0  0  0  0  0  0  0  0  0
  -28.0512  -22.8725   22.1653 O   0  0  0  0  0  0  0  0  0  0  0  0
  -24.0542  -13.3485   22.5216 O   0  0  0  0  0  0  0  0  0  0  0  0
  -29.0706  -30.5095   23.7949 O   0  0  0  0  0  0  0  0  0  1  0  0
  -23.4561   -8.3923   20.1801 F   0  0  0  0  0  0  0  0  0  0  0  0
  -31.9529  -25.3155   17.9963 F   0  0  0  0  0  0  0  0  0  0  0  0
  -21.6980  -12.6542   21.2532 F   0  0  0  0  0  0  0  0  0  0  0  0
  1  2  1  0  0  0  0
  1  5  2  0  0  0  0
  2  6  2  0  0  0  0
  3  9  2  0  0  0  0
  3 17  1  0  0  0  0
  4 10  1  0  0  0  0
  4 17  2  0  0  0  0
  5 19  1  0  0  0  0
  6 21  1  0  0  0  0
  7 11  2  0  0  0  0
  7 20  1  0  0  0  0
  8 13  2  0  0  0  0
  8 25  1  0  0  0  0
  9 26  1  0  0  0  0
 10 26  2  0  0  0  0
 11 27  1  0  0  0  0
 12 14  2  0  0  0  0
 12 28  1  0  0  0  0
 13 30  1  0  0  0  0
 14 29  1  0  0  0  0
 15 22  1  0  0  0  0
 15 27  2  0  0  0  0
 16 29  2  0  0  0  0
 16 31  1  0  0  0  0
 17 32  1  0  0  0  0
 18 32  1  0  0  0  0
 18 33  2  0  0  0  0
 18 34  1  0  0  0  0
 19 21  2  0  0  0  0
 19 39  1  0  0  0  0
 20 22  2  0  0  0  0
 20 40  1  0  0  0  0
 21 54  1  0  0  0  0
 22 42  1  0  0  0  0
 23 24  1  0  0  0  0
 23 25  2  0  0  0  0
 23 41  1  0  0  0  0
 24 30  2  0  0  0  0
 24 43  1  0  0  0  0
 25 63  1  0  0  0  0
 26 83  1  0  0  0  0
 27 84  1  0  0  0  0
 28 31  2  0  0  0  0
 28 83  1  0  0  0  0
 29 85  1  0  0  0  0
 30 86  1  0  0  0  0
 31 87  1  0  0  0  0
 32 67  2  0  0  0  0
 33 68  1  0  0  0  0
 33 72  1  0  0  0  0
 34 73  1  0  0  0  0
 34 78  2  0  0  0  0
 35 55  1  0  0  0  0
 35 74  1  0  0  0  0
 35 79  2  0  0  0  0
 36 64  1  0  0  0  0
 36 69  1  0  0  0  0
 36 80  2  0  0  0  0
 37 65  1  0  0  0  0
 37 75  1  0  0  0  0
 37 81  2  0  0  0  0
 38 70  1  0  0  0  0
 38 71  1  0  0  0  0
 38 82  2  0  0  0  0
 39 44  1  0  0  0  0
 40 55  1  0  0  0  0
 41 49  1  0  0  0  0
 42 69  1  0  0  0  0
 43 70  1  0  0  0  0
 44 46  1  0  0  0  0
 45 47  1  0  0  0  0
 45 50  1  0  0  0  0
 46 54  1  0  0  0  0
 47 56  1  0  0  0  0
 48 52  1  0  0  0  0
 48 57  1  0  0  0  0
 49 70  1  0  0  0  0
 50 71  1  0  0  0  0
 51 56  1  0  0  0  0
 51 71  1  0  0  0  0
 52 76  1  0  0  0  0
 53 57  1  0  0  0  0
 53 76  1  0  0  0  0
 54 74  1  0  0  0  0
 55 69  1  0  0  0  0
 56 68  1  0  0  0  0
 57 84  1  0  0  0  0
 58 65  1  0  0  0  0
 59 66  1  0  0  0  0
 60 66  1  0  0  0  0
 61 66  1  0  0  0  0
 62 77  1  0  0  0  0
 63 76  1  0  0  0  0
 64 66  1  0  0  0  0
 64 75  1  0  0  0  0
 65 77  1  0  0  0  0
 67 68  1  0  0  0  0
M  CHG  2  76   1  77   1
M  ISO  4  38 100  57 101  70 100  84 101
M  END
> <Batch ID>
0026

> <Smiles>
CNC(C)C(=O)NC(C(=O)N1Cc2cc([101O:1][101CH:1]3CCN(Cc4ccc(F)c5c4CC[100N:0]([100C:0](=O)N4CCCC(n6nc(-c7ccc(Oc8ccc(F)cc8F)cc7)c(C(N)=O)c6N)C4)C5)C3)ccc2CC1C(=O)NC1CCCc2ccccc21)C(C)(C)C

> <Shape>
0.337

> <Color>
0.115

> <Negative vol penalty>
0.000

$$$$

  -OEChem-04042321253D

 87 96  0     1  0  0  0  0  0999 V2000
  -20.8461  -29.6310   14.5808 C   0  0  0  0  0  0  0  0  0  0  0  0
  -22.1386  -29.1812   14.8310 C   0  0  0  0  0  0  0  0  0  0  0  0
  -23.2737  -10.5636   22.5982 C   0  0  0  0  0  0  0  0  0  0  0  0
  -25.0120  -11.4616   24.0156 C   0  0  0  0  0  0  0  0  0  0  0  0
  -20.2248  -30.4979   15.4789 C   0  0  0  0  0  0  0  0  0  0  0  0
  -22.8109  -29.5990   15.9790 C   0  0  0  0  0  0  0  0  0  0  0  0
  -25.1727  -25.7925   18.3407 C   0  0  0  0  0  0  0  0  0  0  0  0
  -22.7857   -9.8163   23.6701 C   0  0  0  0  0  0  0  0  0  0  0  0
  -24.5240  -10.7143   25.0876 C   0  0  0  0  0  0  0  0  0  0  0  0
  -26.3820  -25.3595   17.7987 C   0  0  0  0  0  0  0  0  0  0  0  0
  -20.8914  -10.3481   26.4200 C   0  0  0  0  0  0  0  0  0  0  0  0
  -19.5125  -10.3401   26.6302 C   0  0  0  0  0  0  0  0  0  0  0  0
  -27.5771  -26.6399   19.4574 C   0  0  0  0  0  0  0  0  0  0  0  0
  -31.5505  -19.3200   19.1053 C   0  0  0  0  0  0  0  0  0  0  0  0
  -29.4757  -19.9896   18.0645 C   0  0  0  0  0  0  0  0  0  0  0  0
  -19.4820   -7.9420   26.3379 C   0  0  0  0  0  0  0  0  0  0  0  0
  -24.3869  -11.3862   22.7710 C   0  0  0  0  0  0  0  0  0  0  0  0
  -24.2031  -13.1418   20.9293 C   0  0  0  0  0  0  0  0  0  0  0  0
  -20.8863  -30.9188   16.6433 C   0  0  0  0  0  0  0  0  0  0  0  0
  -25.1565  -26.6626   19.4402 C   0  0  0  0  0  0  0  0  0  0  0  0
  -22.1984  -30.4734   16.8928 C   0  0  0  0  0  0  0  0  0  0  0  0
  -26.3662  -27.0805   20.0131 C   0  0  0  0  0  0  0  0  0  0  0  0
  -30.7313  -20.3172   18.5761 C   0  0  0  0  0  0  0  0  0  0  0  0
  -29.8586  -17.6676   18.6112 C   0  0  0  0  0  0  0  0  0  0  0  0
  -23.4108   -9.8916   24.9148 C   0  0  0  0  0  0  0  0  0  0  0  0
  -27.5845  -25.7855   18.3552 C   0  0  0  0  0  0  0  0  0  0  0  0
  -21.5656   -9.1531   26.1687 C   0  0  0  0  0  0  0  0  0  0  0  0
  -18.8078   -9.1370   26.5891 C   0  0  0  0  0  0  0  0  0  0  0  0
  -31.1142  -17.9952   19.1228 C   0  0  0  0  0  0  0  0  0  0  0  0
  -20.8609   -7.9501   26.1277 C   0  0  0  0  0  0  0  0  0  0  0  0
  -29.0393  -18.6648   18.0820 C   0  0  0  0  0  0  0  0  0  0  0  0
  -24.8918  -12.1580   21.6640 C   0  0  0  0  0  0  0  0  0  0  0  0
  -25.1127  -13.5715   19.9941 C   0  0  0  0  0  0  0  0  0  0  0  0
  -30.2612  -22.7527   18.6452 C   0  0  0  0  0  0  0  0  0  0  0  0
  -22.8613  -13.6242   21.0789 C   0  0  0  0  0  0  0  0  0  0  0  0
  -24.0782  -29.6083   19.9540 C   0  0  0  0  0  0  0  0  0  0  0  0
  -24.9375  -28.9698   23.0161 C   0  0  0  0  0  0  0  0  0  0  0  0
  -27.6995  -27.3685   24.6967 C   0  0  0  0  0  0  0  0  0  0  0  0
  -30.2518  -15.1796   18.5775 C   0  0  0  0  0  0  0  0  0  0  0  0
  -20.1916  -31.8939   17.5606 C   0  0  0  0  0  0  0  0  0  0  0  0
  -23.8435  -27.0993   20.0298 C   0  0  0  0  0  0  0  0  0  0  0  0
  -26.4031  -27.9983   21.2067 C   0  0  0  0  0  0  0  0  0  0  0  0
  -20.8326  -31.9925   18.9425 C   0  0  0  0  0  0  0  0  0  0  0  0
  -33.1067  -23.2768   18.1776 C   0  0  0  0  0  0  0  0  0  0  0  0
  -29.6147  -11.6776   18.6650 C   0  0  0  0  0  0  0  0  0  0  0  0
  -22.3478  -32.1188   18.8204 C   0  0  0  0  0  0  0  0  0  0  0  0
  -32.2146  -24.3746   18.7157 C   0  0  0  0  0  0  0  0  0  0  0  0
  -28.2726  -11.5713   19.3925 C   0  0  0  0  0  0  0  0  0  0  0  0
  -32.6322  -21.9278   18.6895 C   0  0  0  0  0  0  0  0  0  0  0  0
  -30.4838  -12.7954   19.2385 C   0  0  0  0  0  0  0  0  0  0  0  0
  -28.4926  -14.0043   20.0402 C   0  0  0  0  0  0  0  0  0  0  0  0
  -22.9512  -30.8844   18.1395 C   0  0  1  0  0  0  0  0  0  0  0  0
  -30.7925  -24.1299   18.2341 C   0  0  2  0  0  0  0  0  0  0  0  0
  -23.9488  -28.3941   20.8296 C   0  0  1  0  0  0  0  0  0  0  0  0
  -27.5560  -12.9345   19.4552 C   0  0  2  0  0  0  0  0  0  0  0  0
  -27.8058  -26.2089   26.9197 C   0  0  0  0  0  0  0  0  0  0  0  0
  -25.8411  -31.6888   24.0653 C   0  0  0  0  0  0  0  0  0  0  0  0
  -27.4388  -30.4957   25.5793 C   0  0  0  0  0  0  0  0  0  0  0  0
  -24.9835  -30.1261   25.8195 C   0  0  0  0  0  0  0  0  0  0  0  0
  -28.7764  -24.8927   23.4843 C   0  0  0  0  0  0  0  0  0  0  0  0
  -29.8722  -25.2492   18.7221 C   0  0  0  0  0  0  0  0  0  1  0  0
  -26.1963  -29.1422   23.8313 C   0  0  1  0  0  0  0  0  0  0  0  0
  -27.6743  -26.0314   25.4150 C   0  0  2  0  0  0  0  0  0  0  0  0
  -26.1159  -30.3591   24.7957 C   0  0  0  0  0  0  0  0  0  0  0  0
  -26.1423  -11.9733   21.2325 N   0  0  0  0  0  0  0  0  0  0  0  0
  -26.2466  -12.8469   20.2166 N   0  0  0  0  0  0  0  0  0  0  0  0
  -31.1845  -21.6914   18.5594 N   0  0  0  0  0  0  0  0  0  0  0  0
  -25.0931  -28.4027   21.7433 N   0  0  0  0  0  0  0  0  0  0  0  0
  -29.7408  -14.0572   19.2630 N   0  0  0  0  0  0  0  0  0  0  0  0
  -25.0452  -14.4946   19.0114 N   0  0  0  0  0  0  0  0  0  0  0  0
  -22.0624  -13.0742   22.0906 N   0  0  0  0  0  0  0  0  0  0  0  0
  -29.4429  -16.3135   18.6443 N   0  0  0  0  0  0  0  0  0  0  0  0
  -23.0286  -29.7802   19.0718 N   0  0  0  0  0  0  0  0  0  0  0  0
  -26.4288  -27.8656   24.4982 N   0  0  0  0  0  0  0  0  0  0  0  0
  -28.7947  -25.1691   24.9438 N   0  3  0  0  0  0  0  0  0  0  0  0
  -29.0739  -22.6253   18.9558 O   0  0  0  0  0  0  0  0  0  0  0  0
  -22.3794  -14.5049   20.3268 O   0  0  0  0  0  0  0  0  0  0  0  0
  -25.0571  -30.3361   20.0711 O   0  0  0  0  0  0  0  0  0  0  0  0
  -23.8551  -29.3187   23.4939 O   0  0  0  0  0  0  0  0  0  0  0  0
  -28.7423  -27.9188   24.3499 O   0  0  0  0  0  0  0  0  0  0  0  0
  -31.3145  -15.1300   17.9529 O   0  0  0  0  0  0  0  0  0  0  0  0
  -22.9347   -9.1627   25.9610 O   0  0  0  0  0  0  0  0  0  0  0  0
  -28.7663  -25.3648   17.8277 O   0  0  0  0  0  0  0  0  0  1  0  0
  -17.4839   -9.1292   26.7925 F   0  0  0  0  0  0  0  0  0  0  0  0
  -31.9118  -17.0466   19.6346 F   0  0  0  0  0  0  0  0  0  0  0  0
  -21.5033   -6.7987   25.8879 F   0  0  0  0  0  0  0  0  0  0  0  0
  -27.4771  -18.3031   17.4384 Cl  0  0  0  0  0  0  0  0  0  0  0  0
  1  2  1  0  0  0  0
  1  5  2  0  0  0  0
  2  6  2  0  0  0  0
  3  8  2  0  0  0  0
  3 17  1  0  0  0  0
  4  9  1  0  0  0  0
  4 17  2  0  0  0  0
  5 19  1  0  0  0  0
  6 21  1  0  0  0  0
  7 10  2  0  0  0  0
  7 20  1  0  0  0  0
  8 25  1  0  0  0  0
  9 25  2  0  0  0  0
 10 26  1  0  0  0  0
 11 12  2  0  0  0  0
 11 27  1  0  0  0  0
 12 28  1  0  0  0  0
 13 22  1  0  0  0  0
 13 26  2  0  0  0  0
 14 23  1  0  0  0  0
 14 29  2  0  0  0  0
 15 23  2  0  0  0  0
 15 31  1  0  0  0  0
 16 28  2  0  0  0  0
 16 30  1  0  0  0  0
 17 32  1  0  0  0  0
 18 32  1  0  0  0  0
 18 33  2  0  0  0  0
 18 35  1  0  0  0  0
 19 21  2  0  0  0  0
 19 40  1  0  0  0  0
 20 22  2  0  0  0  0
 20 41  1  0  0  0  0
 21 52  1  0  0  0  0
 22 42  1  0  0  0  0
 23 67  1  0  0  0  0
 24 29  1  0  0  0  0
 24 31  2  0  0  0  0
 24 72  1  0  0  0  0
 25 82  1  0  0  0  0
 26 83  1  0  0  0  0
 27 30  2  0  0  0  0
 27 82  1  0  0  0  0
 28 84  1  0  0  0  0
 29 85  1  0  0  0  0
 30 86  1  0  0  0  0
 31 87  1  0  0  0  0
 32 65  2  0  0  0  0
 33 66  1  0  0  0  0
 33 70  1  0  0  0  0
 34 53  1  0  0  0  0
 34 67  1  0  0  0  0
 34 76  2  0  0  0  0
 35 71  1  0  0  0  0
 35 77  2  0  0  0  0
 36 54  1  0  0  0  0
 36 73  1  0  0  0  0
 36 78  2  0  0  0  0
 37 62  1  0  0  0  0
 37 68  1  0  0  0  0
 37 79  2  0  0  0  0
 38 63  1  0  0  0  0
 38 74  1  0  0  0  0
 38 80  2  0  0  0  0
 39 69  1  0  0  0  0
 39 72  1  0  0  0  0
 39 81  2  0  0  0  0
 40 43  1  0  0  0  0
 41 54  1  0  0  0  0
 42 68  1  0  0  0  0
 43 46  1  0  0  0  0
 44 47  1  0  0  0  0
 44 49  1  0  0  0  0
 45 48  1  0  0  0  0
 45 50  1  0  0  0  0
 46 52  1  0  0  0  0
 47 53  1  0  0  0  0
 48 55  1  0  0  0  0
 49 67  1  0  0  0  0
 50 69  1  0  0  0  0
 51 55  1  0  0  0  0
 51 69  1  0  0  0  0
 52 73  1  0  0  0  0
 53 61  1  0  0  0  0
 54 68  1  0  0  0  0
 55 66  1  0  0  0  0
 56 63  1  0  0  0  0
 57 64  1  0  0  0  0
 58 64  1  0  0  0  0
 59 64  1  0  0  0  0
 60 75  1  0  0  0  0
 61 83  1  0  0  0  0
 62 64  1  0  0  0  0
 62 74  1  0  0  0  0
 63 75  1  0  0  0  0
 65 66  1  0  0  0  0
M  CHG  1  75   1
M  ISO  4  39 100  61 101  72 100  83 101
M  END
> <Batch ID>
0026

> <Smiles>
CNC(C)C(=O)NC(C(=O)N1Cc2cc([101O:1][101CH2:1]C3CCCN(c4cc(F)c([100NH:0][100C:0](=O)N5CCCC(n6nc(-c7ccc(Oc8ccc(F)cc8F)cc7)c(C(N)=O)c6N)C5)c(Cl)c4)C3=O)ccc2CC1C(=O)NC1CCCc2ccccc21)C(C)(C)C

> <Shape>
0.227

> <Color>
0.133

> <Negative vol penalty>
0.000

$$$$

  -OEChem-04042321253D

 86 95  0     1  0  0  0  0  0999 V2000
  -21.0751  -29.2356   25.7395 C   0  0  0  0  0  0  0  0  0  0  0  0
  -22.2047  -28.7076   25.1226 C   0  0  0  0  0  0  0  0  0  0  0  0
  -23.6447  -12.0818   19.8163 C   0  0  0  0  0  0  0  0  0  0  0  0
  -23.4446  -12.9490   22.0624 C   0  0  0  0  0  0  0  0  0  0  0  0
  -19.8170  -29.0425   25.1704 C   0  0  0  0  0  0  0  0  0  0  0  0
  -22.0767  -27.9853   23.9367 C   0  0  0  0  0  0  0  0  0  0  0  0
  -25.5420  -29.2918   20.4827 C   0  0  0  0  0  0  0  0  0  0  0  0
  -23.3171  -10.8074   20.2791 C   0  0  0  0  0  0  0  0  0  0  0  0
  -23.1169  -11.6745   22.5252 C   0  0  0  0  0  0  0  0  0  0  0  0
  -26.8287  -28.7807   20.6467 C   0  0  0  0  0  0  0  0  0  0  0  0
  -20.5235   -9.1203   21.1634 C   0  0  0  0  0  0  0  0  0  0  0  0
  -19.5962   -8.3821   20.4281 C   0  0  0  0  0  0  0  0  0  0  0  0
  -26.3596  -27.0863   18.9950 C   0  0  0  0  0  0  0  0  0  0  0  0
  -28.0376  -22.5413   21.8941 C   0  0  0  0  0  0  0  0  0  0  0  0
  -25.6435  -22.4249   21.5914 C   0  0  0  0  0  0  0  0  0  0  0  0
  -21.2499   -6.6566   20.0748 C   0  0  0  0  0  0  0  0  0  0  0  0
  -23.7085  -13.1526   20.7079 C   0  0  0  0  0  0  0  0  0  0  0  0
  -23.1606  -15.4604   19.7691 C   0  0  0  0  0  0  0  0  0  0  0  0
  -19.6746  -28.3258   23.9719 C   0  0  0  0  0  0  0  0  0  0  0  0
  -24.6493  -28.6963   19.5800 C   0  0  0  0  0  0  0  0  0  0  0  0
  -20.8154  -27.7814   23.3518 C   0  0  0  0  0  0  0  0  0  0  0  0
  -25.0630  -27.5933   18.8195 C   0  0  0  0  0  0  0  0  0  0  0  0
  -27.8973  -23.7744   22.5305 C   0  0  0  0  0  0  0  0  0  0  0  0
  -26.6300  -24.3328   22.6975 C   0  0  0  0  0  0  0  0  0  0  0  0
  -26.9108  -21.8665   21.4244 C   0  0  0  0  0  0  0  0  0  0  0  0
  -23.0532  -10.6038   21.6335 C   0  0  0  0  0  0  0  0  0  0  0  0
  -27.2367  -27.6760   19.9050 C   0  0  0  0  0  0  0  0  0  0  0  0
  -21.8141   -8.6267   21.3544 C   0  0  0  0  0  0  0  0  0  0  0  0
  -19.9594   -7.1502   19.8838 C   0  0  0  0  0  0  0  0  0  0  0  0
  -22.1773   -7.3948   20.8102 C   0  0  0  0  0  0  0  0  0  0  0  0
  -25.5031  -23.6581   22.2279 C   0  0  0  0  0  0  0  0  0  0  0  0
  -24.0473  -14.4692   20.2306 C   0  0  0  0  0  0  0  0  0  0  0  0
  -23.9714  -16.5173   19.4342 C   0  0  0  0  0  0  0  0  0  0  0  0
  -21.7319  -15.4287   19.6536 C   0  0  0  0  0  0  0  0  0  0  0  0
  -21.8250  -27.2604   19.8358 C   0  0  0  0  0  0  0  0  0  0  0  0
  -21.9698  -27.2580   16.5952 C   0  0  0  0  0  0  0  0  0  0  0  0
  -23.8979  -27.3588   13.7811 C   0  0  0  0  0  0  0  0  0  0  0  0
  -28.2391  -19.9212   20.5311 C   0  0  0  0  0  0  0  0  0  0  0  0
  -18.2889  -28.1027   23.4197 C   0  0  0  0  0  0  0  0  0  0  0  0
  -23.2737  -29.2761   19.3952 C   0  0  0  0  0  0  0  0  0  0  0  0
  -24.1496  -26.9301   17.8224 C   0  0  0  0  0  0  0  0  0  0  0  0
  -18.2800  -27.6454   21.9633 C   0  0  0  0  0  0  0  0  0  0  0  0
  -29.0069  -16.7986   19.0025 C   0  0  0  0  0  0  0  0  0  0  0  0
  -31.2771  -27.0517   21.4450 C   0  0  0  0  0  0  0  0  0  0  0  0
  -19.2970  -26.5291   21.7480 C   0  0  0  0  0  0  0  0  0  0  0  0
  -27.7121  -15.9957   19.1477 C   0  0  0  0  0  0  0  0  0  0  0  0
  -31.1435  -25.9565   20.4023 C   0  0  0  0  0  0  0  0  0  0  0  0
  -29.2675  -17.6802   20.2226 C   0  0  0  0  0  0  0  0  0  0  0  0
  -26.8612  -17.7599   20.7449 C   0  0  0  0  0  0  0  0  0  0  0  0
  -30.7170  -26.4011   22.6898 C   0  0  0  0  0  0  0  0  0  0  0  0
  -20.7201  -27.0133   22.0514 C   0  0  1  0  0  0  0  0  0  0  0  0
  -22.2752  -28.2748   18.8228 C   0  0  1  0  0  0  0  0  0  0  0  0
  -26.5227  -16.9057   19.5122 C   0  0  2  0  0  0  0  0  0  0  0  0
  -29.8107  -25.2758   20.7138 C   0  0  2  0  0  0  0  0  0  0  0  0
  -26.4967  -25.6579   23.3818 C   0  0  0  0  0  0  0  0  0  0  0  0
  -23.7338  -27.3019   11.2777 C   0  0  0  0  0  0  0  0  0  0  0  0
  -21.4599  -24.2515   16.6994 C   0  0  0  0  0  0  0  0  0  0  0  0
  -22.2415  -24.1071   14.3253 C   0  0  0  0  0  0  0  0  0  0  0  0
  -20.2220  -25.4574   14.8917 C   0  0  0  0  0  0  0  0  0  0  0  0
  -25.1188  -30.0425   13.5242 C   0  0  0  0  0  0  0  0  0  0  0  0
  -29.1261  -24.4791   23.0250 C   0  0  0  0  0  0  0  0  0  0  0  0
  -28.6646  -25.7750   19.8457 C   0  0  0  0  0  0  0  0  0  1  0  0
  -22.5088  -26.3116   15.5498 C   0  0  1  0  0  0  0  0  0  0  0  0
  -23.7874  -28.1866   12.5135 C   0  0  2  0  0  0  0  0  0  0  0  0
  -21.6249  -25.0430   15.3867 C   0  0  0  0  0  0  0  0  0  0  0  0
  -25.3236  -14.8613   20.1934 N   0  0  0  0  0  0  0  0  0  0  0  0
  -25.2448  -16.1106   19.7045 N   0  0  0  0  0  0  0  0  0  0  0  0
  -22.8124  -27.5299   17.6823 N   0  0  0  0  0  0  0  0  0  0  0  0
  -28.0995  -18.5174   20.5052 N   0  0  0  0  0  0  0  0  0  0  0  0
  -23.7121  -17.7456   18.9376 N   0  0  0  0  0  0  0  0  0  0  0  0
  -21.0559  -14.2641   20.0421 N   0  0  0  0  0  0  0  0  0  0  0  0
  -27.0542  -20.6139   20.7776 N   0  0  0  0  0  0  0  0  0  0  0  0
  -21.2277  -27.8092   20.9545 N   0  0  0  0  0  0  0  0  0  0  0  0
  -22.6602  -27.0955   14.3287 N   0  0  0  0  0  0  0  0  0  0  0  0
  -29.5210  -25.6396   22.1679 N   0  3  1  0  0  0  0  0  0  0  0  0
  -24.9584  -29.0998   12.3874 N   0  3  0  0  0  0  0  0  0  0  0  0
  -21.0756  -16.3982   19.2032 O   0  0  0  0  0  0  0  0  0  0  0  0
  -22.0049  -26.0680   19.6178 O   0  0  0  0  0  0  0  0  0  0  0  0
  -20.8454  -27.7438   16.4489 O   0  0  0  0  0  0  0  0  0  0  0  0
  -24.9744  -26.9802   14.2377 O   0  0  0  0  0  0  0  0  0  0  0  0
  -29.3241  -20.4695   20.3212 O   0  0  0  0  0  0  0  0  0  0  0  0
  -22.7333   -9.3604   22.0854 O   0  0  0  0  0  0  0  0  0  0  0  0
  -28.4919  -27.1747   20.0636 O   0  0  0  0  0  0  0  0  0  1  0  0
  -19.0683   -6.4407   19.1790 F   0  0  0  0  0  0  0  0  0  0  0  0
  -23.4153   -6.9149   20.9913 F   0  0  0  0  0  0  0  0  0  0  0  0
  -23.9171  -24.3139   22.4171 Cl  0  0  0  0  0  0  0  0  0  0  0  0
  1  2  1  0  0  0  0
  1  5  2  0  0  0  0
  2  6  2  0  0  0  0
  3  8  2  0  0  0  0
  3 17  1  0  0  0  0
  4  9  1  0  0  0  0
  4 17  2  0  0  0  0
  5 19  1  0  0  0  0
  6 21  1  0  0  0  0
  7 10  2  0  0  0  0
  7 20  1  0  0  0  0
  8 26  1  0  0  0  0
  9 26  2  0  0  0  0
 10 27  1  0  0  0  0
 11 12  2  0  0  0  0
 11 28  1  0  0  0  0
 12 29  1  0  0  0  0
 13 22  1  0  0  0  0
 13 27  2  0  0  0  0
 14 23  1  0  0  0  0
 14 25  2  0  0  0  0
 15 25  1  0  0  0  0
 15 31  2  0  0  0  0
 16 29  2  0  0  0  0
 16 30  1  0  0  0  0
 17 32  1  0  0  0  0
 18 32  1  0  0  0  0
 18 33  2  0  0  0  0
 18 34  1  0  0  0  0
 19 21  2  0  0  0  0
 19 39  1  0  0  0  0
 20 22  2  0  0  0  0
 20 40  1  0  0  0  0
 21 51  1  0  0  0  0
 22 41  1  0  0  0  0
 23 24  2  0  0  0  0
 23 61  1  0  0  0  0
 24 31  1  0  0  0  0
 24 55  1  0  0  0  0
 25 72  1  0  0  0  0
 26 82  1  0  0  0  0
 27 83  1  0  0  0  0
 28 30  2  0  0  0  0
 28 82  1  0  0  0  0
 29 84  1  0  0  0  0
 30 85  1  0  0  0  0
 31 86  1  0  0  0  0
 32 66  2  0  0  0  0
 33 67  1  0  0  0  0
 33 70  1  0  0  0  0
 34 71  1  0  0  0  0
 34 77  2  0  0  0  0
 35 52  1  0  0  0  0
 35 73  1  0  0  0  0
 35 78  2  0  0  0  0
 36 63  1  0  0  0  0
 36 68  1  0  0  0  0
 36 79  2  0  0  0  0
 37 64  1  0  0  0  0
 37 74  1  0  0  0  0
 37 80  2  0  0  0  0
 38 69  1  0  0  0  0
 38 72  1  0  0  0  0
 38 81  2  0  0  0  0
 39 42  1  0  0  0  0
 40 52  1  0  0  0  0
 41 68  1  0  0  0  0
 42 45  1  0  0  0  0
 43 46  1  0  0  0  0
 43 48  1  0  0  0  0
 44 47  1  0  0  0  0
 44 50  1  0  0  0  0
 45 51  1  0  0  0  0
 46 53  1  0  0  0  0
 47 54  1  0  0  0  0
 48 69  1  0  0  0  0
 49 53  1  0  0  0  0
 49 69  1  0  0  0  0
 50 75  1  0  0  0  0
 51 73  1  0  0  0  0
 52 68  1  0  0  0  0
 53 67  1  0  0  0  0
 54 62  1  0  0  0  0
 54 75  1  0  0  0  0
 56 64  1  0  0  0  0
 57 65  1  0  0  0  0
 58 65  1  0  0  0  0
 59 65  1  0  0  0  0
 60 76  1  0  0  0  0
 61 75  1  0  0  0  0
 62 83  1  0  0  0  0
 63 65  1  0  0  0  0
 63 74  1  0  0  0  0
 64 76  1  0  0  0  0
 66 67  1  0  0  0  0
M  CHG  2  75   1  76   1
M  ISO  4  38 100  62 101  72 100  83 101
M  END
> <Batch ID>
0026

> <Smiles>
CNC(C)C(=O)NC(C(=O)N1Cc2cc([101O:1][101CH2:1]C3CCCN3Cc3cc([100NH:0][100C:0](=O)N4CCCC(n5nc(-c6ccc(Oc7ccc(F)cc7F)cc6)c(C(N)=O)c5N)C4)cc(Cl)c3C)ccc2CC1C(=O)NC1CCCc2ccccc21)C(C)(C)C

> <Shape>
0.220

> <Color>
0.083

> <Negative vol penalty>
0.000

$$$$

  -OEChem-04042321253D

 97108  0     1  0  0  0  0  0999 V2000
  -39.5749  -25.5985   16.3563 C   0  0  0  0  0  0  0  0  0  0  0  0
  -39.0550  -26.1051   17.5431 C   0  0  0  0  0  0  0  0  0  0  0  0
  -22.6682  -10.2018   20.1639 C   0  0  0  0  0  0  0  0  0  0  0  0
  -24.3227   -9.4089   21.7358 C   0  0  0  0  0  0  0  0  0  0  0  0
  -38.7536  -25.4655   15.2375 C   0  0  0  0  0  0  0  0  0  0  0  0
  -37.7136  -26.4799   17.6114 C   0  0  0  0  0  0  0  0  0  0  0  0
  -33.2544  -23.4476   22.3876 C   0  0  0  0  0  0  0  0  0  0  0  0
  -21.9318   -9.0317   20.3487 C   0  0  0  0  0  0  0  0  0  0  0  0
  -23.5863   -8.2388   21.9207 C   0  0  0  0  0  0  0  0  0  0  0  0
  -32.3891  -23.0664   23.4133 C   0  0  0  0  0  0  0  0  0  0  0  0
  -20.8410   -7.2705   23.6370 C   0  0  0  0  0  0  0  0  0  0  0  0
  -20.6584   -6.8213   24.9448 C   0  0  0  0  0  0  0  0  0  0  0  0
  -30.6211  -24.3898   22.4281 C   0  0  0  0  0  0  0  0  0  0  0  0
  -31.6933  -19.1830   23.1166 C   0  0  0  0  0  0  0  0  0  0  0  0
  -31.5370  -17.5546   21.3388 C   0  0  0  0  0  0  0  0  0  0  0  0
  -21.7765   -4.7526   24.3904 C   0  0  0  0  0  0  0  0  0  0  0  0
  -23.8637  -10.3904   20.8573 C   0  0  0  0  0  0  0  0  0  0  0  0
  -24.2022  -12.9182   20.9150 C   0  0  0  0  0  0  0  0  0  0  0  0
  -37.3991  -25.8299   15.2950 C   0  0  0  0  0  0  0  0  0  0  0  0
  -32.8013  -24.2900   21.3686 C   0  0  0  0  0  0  0  0  0  0  0  0
  -36.8738  -26.3529   16.4920 C   0  0  0  0  0  0  0  0  0  0  0  0
  -31.4797  -24.7650   21.3913 C   0  0  0  0  0  0  0  0  0  0  0  0
  -32.0601  -18.7448   21.8442 C   0  0  0  0  0  0  0  0  0  0  0  0
  -30.2805  -17.2407   23.3784 C   0  0  0  0  0  0  0  0  0  0  0  0
  -30.8035  -18.4310   23.8837 C   0  0  0  0  0  0  0  0  0  0  0  0
  -30.6472  -16.8025   22.1059 C   0  0  0  0  0  0  0  0  0  0  0  0
  -22.3909   -8.0502   21.2271 C   0  0  0  0  0  0  0  0  0  0  0  0
  -31.0758  -23.5366   23.4336 C   0  0  0  0  0  0  0  0  0  0  0  0
  -21.4913   -6.4607   22.7058 C   0  0  0  0  0  0  0  0  0  0  0  0
  -21.1262   -5.5624   25.3216 C   0  0  0  0  0  0  0  0  0  0  0  0
  -21.9591   -5.2018   23.0825 C   0  0  0  0  0  0  0  0  0  0  0  0
  -24.6251  -11.5987   20.6664 C   0  0  0  0  0  0  0  0  0  0  0  0
  -25.2834  -13.6948   20.5768 C   0  0  0  0  0  0  0  0  0  0  0  0
  -30.6702  -18.1863   26.3785 C   0  0  0  0  0  0  0  0  0  0  0  0
  -32.8946  -19.6072   18.5044 C   0  0  0  0  0  0  0  0  0  0  0  0
  -22.9445  -13.3990   21.4078 C   0  0  0  0  0  0  0  0  0  0  0  0
  -33.5979  -26.1050   18.1831 C   0  0  0  0  0  0  0  0  0  0  0  0
  -30.7666  -24.9651   17.8751 C   0  0  0  0  0  0  0  0  0  0  0  0
  -27.4413  -23.5972   17.5970 C   0  0  0  0  0  0  0  0  0  0  0  0
  -30.7525  -14.7356   20.6695 C   0  0  0  0  0  0  0  0  0  0  0  0
  -36.5621  -25.7122   14.0459 C   0  0  0  0  0  0  0  0  0  0  0  0
  -33.7162  -24.7757   20.2774 C   0  0  0  0  0  0  0  0  0  0  0  0
  -31.0460  -25.6971   20.2931 C   0  0  0  0  0  0  0  0  0  0  0  0
  -30.3789  -19.1243   27.5252 C   0  0  0  0  0  0  0  0  0  0  0  0
  -31.9171  -20.1702   17.4995 C   0  0  0  0  0  0  0  0  0  0  0  0
  -35.0602  -25.7816   14.3103 C   0  0  0  0  0  0  0  0  0  0  0  0
  -29.4926  -20.1846   26.9037 C   0  0  0  0  0  0  0  0  0  0  0  0
  -31.1760  -21.2409   18.2912 C   0  0  0  0  0  0  0  0  0  0  0  0
  -29.5692  -12.5018   18.1621 C   0  0  0  0  0  0  0  0  0  0  0  0
  -26.4501  -20.4208   25.2076 C   0  0  0  0  0  0  0  0  0  0  0  0
  -34.7368  -26.9373   15.2519 C   0  0  0  0  0  0  0  0  0  0  0  0
  -28.1426  -12.1762   18.6106 C   0  0  0  0  0  0  0  0  0  0  0  0
  -26.7122  -21.8357   24.7314 C   0  0  0  0  0  0  0  0  0  0  0  0
  -31.2038  -20.7249   19.7159 C   0  0  0  0  0  0  0  0  0  0  0  0
  -30.5190  -12.6427   19.3503 C   0  0  0  0  0  0  0  0  0  0  0  0
  -28.6532  -13.2589   20.8364 C   0  0  0  0  0  0  0  0  0  0  0  0
  -27.6303  -19.6364   24.6673 C   0  0  0  0  0  0  0  0  0  0  0  0
  -35.4177  -26.7474   16.6127 C   0  0  1  0  0  0  0  0  0  0  0  0
  -33.0046  -24.9420   18.9227 C   0  0  1  0  0  0  0  0  0  0  0  0
  -27.6464  -13.1715   19.6777 C   0  0  2  0  0  0  0  0  0  0  0  0
  -28.2049  -22.0006   24.9755 C   0  0  2  0  0  0  0  0  0  0  0  0
  -29.9533  -20.2362   25.4548 C   0  0  1  0  0  0  0  0  0  0  0  0
  -29.3250  -16.4323   24.2007 C   0  0  0  0  0  0  0  0  0  0  0  0
  -26.0043  -23.1993   15.5786 C   0  0  0  0  0  0  0  0  0  0  0  0
  -29.6129  -27.7154   18.5144 C   0  0  0  0  0  0  0  0  0  0  0  0
  -27.3603  -26.8459   17.8526 C   0  0  0  0  0  0  0  0  0  0  0  0
  -29.2047  -26.9305   16.1752 C   0  0  0  0  0  0  0  0  0  0  0  0
  -27.0879  -20.7366   18.2687 C   0  0  0  0  0  0  0  0  0  0  0  0
  -33.0120  -19.5490   21.0249 C   0  0  0  0  0  0  0  0  0  0  0  0
  -28.8452  -23.0791   24.1212 C   0  0  0  0  0  0  0  0  0  1  0  0
  -29.2847  -25.2028   18.0193 C   0  0  1  0  0  0  0  0  0  0  0  0
  -26.9607  -22.5751   16.5827 C   0  0  2  0  0  0  0  0  0  0  0  0
  -28.8807  -26.6608   17.6608 C   0  0  0  0  0  0  0  0  0  0  0  0
  -25.8772  -11.5367   20.2055 N   0  0  0  0  0  0  0  0  0  0  0  0
  -26.2504  -12.8270   20.1619 N   0  0  0  0  0  0  0  0  0  0  0  0
  -30.4422  -18.8978   25.1826 N   0  0  0  0  0  0  0  0  0  0  0  0
  -32.4345  -19.9718   19.7676 N   0  0  0  0  0  0  0  0  0  0  0  0
  -31.5609  -25.2227   18.9991 N   0  0  0  0  0  0  0  0  0  0  0  0
  -29.9859  -13.6045   20.3176 N   0  0  0  0  0  0  0  0  0  0  0  0
  -25.4917  -15.0284   20.5966 N   0  0  0  0  0  0  0  0  0  0  0  0
  -22.7794  -13.5402   22.7924 N   0  0  0  0  0  0  0  0  0  0  0  0
  -30.1294  -15.5961   21.5727 N   0  0  0  0  0  0  0  0  0  0  0  0
  -34.6949  -25.7787   17.4088 N   0  0  0  0  0  0  0  0  0  0  0  0
  -28.6270  -24.1839   17.2083 N   0  0  0  0  0  0  0  0  0  0  0  0
  -28.7750  -20.6344   24.6192 N   0  3  1  0  0  0  0  0  0  0  0  0
  -26.2564  -21.4555   17.2694 N   0  3  0  0  0  0  0  0  0  0  0  0
  -31.1143  -17.0590   26.5461 O   0  0  0  0  0  0  0  0  0  0  0  0
  -33.8678  -18.9248   18.2212 O   0  0  0  0  0  0  0  0  0  0  0  0
  -21.9897  -13.6789   20.6440 O   0  0  0  0  0  0  0  0  0  0  0  0
  -33.0972  -27.2169   18.3041 O   0  0  0  0  0  0  0  0  0  0  0  0
  -31.2113  -24.5672   16.7947 O   0  0  0  0  0  0  0  0  0  0  0  0
  -26.8245  -23.8524   18.6290 O   0  0  0  0  0  0  0  0  0  0  0  0
  -31.8675  -14.9409   20.1830 O   0  0  0  0  0  0  0  0  0  0  0  0
  -21.6725   -6.9084   21.4079 O   0  0  0  0  0  0  0  0  0  0  0  0
  -30.2350  -23.1569   24.4355 O   0  0  0  0  0  0  0  0  0  1  0  0
  -20.9521   -5.1318   26.5779 F   0  0  0  0  0  0  0  0  0  0  0  0
  -22.5856   -4.4198   22.1927 F   0  0  0  0  0  0  0  0  0  0  0  0
  1  2  1  0  0  0  0
  1  5  2  0  0  0  0
  2  6  2  0  0  0  0
  3  8  2  0  0  0  0
  3 17  1  0  0  0  0
  4  9  1  0  0  0  0
  4 17  2  0  0  0  0
  5 19  1  0  0  0  0
  6 21  1  0  0  0  0
  7 10  2  0  0  0  0
  7 20  1  0  0  0  0
  8 27  1  0  0  0  0
  9 27  2  0  0  0  0
 10 28  1  0  0  0  0
 11 12  2  0  0  0  0
 11 29  1  0  0  0  0
 12 30  1  0  0  0  0
 13 22  1  0  0  0  0
 13 28  2  0  0  0  0
 14 23  2  0  0  0  0
 14 25  1  0  0  0  0
 15 23  1  0  0  0  0
 15 26  2  0  0  0  0
 16 30  2  0  0  0  0
 16 31  1  0  0  0  0
 17 32  1  0  0  0  0
 18 32  1  0  0  0  0
 18 33  2  0  0  0  0
 18 36  1  0  0  0  0
 19 21  2  0  0  0  0
 19 41  1  0  0  0  0
 20 22  2  0  0  0  0
 20 42  1  0  0  0  0
 21 58  1  0  0  0  0
 22 43  1  0  0  0  0
 23 69  1  0  0  0  0
 24 25  2  0  0  0  0
 24 26  1  0  0  0  0
 24 63  1  0  0  0  0
 25 76  1  0  0  0  0
 26 82  1  0  0  0  0
 27 94  1  0  0  0  0
 28 95  1  0  0  0  0
 29 31  2  0  0  0  0
 29 94  1  0  0  0  0
 30 96  1  0  0  0  0
 31 97  1  0  0  0  0
 32 74  2  0  0  0  0
 33 75  1  0  0  0  0
 33 80  1  0  0  0  0
 34 44  1  0  0  0  0
 34 76  1  0  0  0  0
 34 87  2  0  0  0  0
 35 45  1  0  0  0  0
 35 77  1  0  0  0  0
 35 88  2  0  0  0  0
 36 81  1  0  0  0  0
 36 89  2  0  0  0  0
 37 59  1  0  0  0  0
 37 83  1  0  0  0  0
 37 90  2  0  0  0  0
 38 71  1  0  0  0  0
 38 78  1  0  0  0  0
 38 91  2  0  0  0  0
 39 72  1  0  0  0  0
 39 84  1  0  0  0  0
 39 92  2  0  0  0  0
 40 79  1  0  0  0  0
 40 82  1  0  0  0  0
 40 93  2  0  0  0  0
 41 46  1  0  0  0  0
 42 59  1  0  0  0  0
 43 78  1  0  0  0  0
 44 47  1  0  0  0  0
 45 48  1  0  0  0  0
 46 51  1  0  0  0  0
 47 62  1  0  0  0  0
 48 54  1  0  0  0  0
 49 52  1  0  0  0  0
 49 55  1  0  0  0  0
 50 53  1  0  0  0  0
 50 57  1  0  0  0  0
 51 58  1  0  0  0  0
 52 60  1  0  0  0  0
 53 61  1  0  0  0  0
 54 77  1  0  0  0  0
 55 79  1  0  0  0  0
 56 60  1  0  0  0  0
 56 79  1  0  0  0  0
 57 85  1  0  0  0  0
 58 83  1  0  0  0  0
 59 78  1  0  0  0  0
 60 75  1  0  0  0  0
 61 70  1  0  0  0  0
 61 85  1  0  0  0  0
 62 76  1  0  0  0  0
 62 85  1  0  0  0  0
 64 72  1  0  0  0  0
 65 73  1  0  0  0  0
 66 73  1  0  0  0  0
 67 73  1  0  0  0  0
 68 86  1  0  0  0  0
 69 77  1  0  0  0  0
 70 95  1  0  0  0  0
 71 73  1  0  0  0  0
 71 84  1  0  0  0  0
 72 86  1  0  0  0  0
 74 75  1  0  0  0  0
M  CHG  2  85   1  86   1
M  ISO  4  40 100  70 101  82 100  95 101
M  END
> <Batch ID>
0026

> <Smiles>
CNC(C)C(=O)NC(C(=O)N1Cc2cc([101O:1][101CH2:1]C3CCCN3C3CCC(=O)N3c3cc(CN4CCCC4=O)cc([100NH:0][100C:0](=O)N4CCCC(n5nc(-c6ccc(Oc7ccc(F)cc7F)cc6)c(C(N)=O)c5N)C4)c3C)ccc2CC1C(=O)NC1CCCc2ccccc21)C(C)(C)C

> <Shape>
0.223

> <Color>
0.162

> <Negative vol penalty>
0.000

$$$$

  -OEChem-04042321253D

 90100  0     1  0  0  0  0  0999 V2000
  -27.5824  -24.1273   19.6236 C   0  0  0  0  0  0  0  0  0  0  0  0
  -26.5298  -24.7948   20.2416 C   0  0  0  0  0  0  0  0  0  0  0  0
  -27.5741  -16.8006   21.2449 C   0  0  0  0  0  0  0  0  0  0  0  0
  -25.3162  -16.0862   21.7230 C   0  0  0  0  0  0  0  0  0  0  0  0
  -28.8859  -24.3050   20.0854 C   0  0  0  0  0  0  0  0  0  0  0  0
  -26.7800  -25.6395   21.3225 C   0  0  0  0  0  0  0  0  0  0  0  0
  -24.2731  -30.0263   20.9806 C   0  0  0  0  0  0  0  0  0  0  0  0
  -27.9976  -15.4717   21.2588 C   0  0  0  0  0  0  0  0  0  0  0  0
  -25.7397  -14.7573   21.7369 C   0  0  0  0  0  0  0  0  0  0  0  0
  -22.9193  -30.0135   21.3133 C   0  0  0  0  0  0  0  0  0  0  0  0
  -27.9188  -12.8103   19.1746 C   0  0  0  0  0  0  0  0  0  0  0  0
  -28.7680  -12.3898   18.1511 C   0  0  0  0  0  0  0  0  0  0  0  0
  -23.4513  -30.9123   23.4877 C   0  0  0  0  0  0  0  0  0  0  0  0
  -18.9011  -23.7530   21.8513 C   0  0  0  0  0  0  0  0  0  0  0  0
  -30.4547  -11.8203   19.7844 C   0  0  0  0  0  0  0  0  0  0  0  0
  -26.2335  -17.1079   21.4770 C   0  0  0  0  0  0  0  0  0  0  0  0
  -25.3290  -19.2130   20.3554 C   0  0  0  0  0  0  0  0  0  0  0  0
  -29.1534  -25.1598   21.1662 C   0  0  0  0  0  0  0  0  0  0  0  0
  -25.2289  -30.4727   21.9045 C   0  0  0  0  0  0  0  0  0  0  0  0
  -28.0882  -25.8278   21.7999 C   0  0  0  0  0  0  0  0  0  0  0  0
  -24.8164  -30.9322   23.1634 C   0  0  0  0  0  0  0  0  0  0  0  0
  -19.9650  -23.8766   24.0169 C   0  0  0  0  0  0  0  0  0  0  0  0
  -18.9531  -25.1429   21.7464 C   0  0  0  0  0  0  0  0  0  0  0  0
  -19.5112  -25.8997   22.7767 C   0  0  0  0  0  0  0  0  0  0  0  0
  -27.0803  -14.4500   21.5048 C   0  0  0  0  0  0  0  0  0  0  0  0
  -22.5084  -30.4539   22.5680 C   0  0  0  0  0  0  0  0  0  0  0  0
  -28.3376  -12.7359   20.5031 C   0  0  0  0  0  0  0  0  0  0  0  0
  -30.0359  -11.8947   18.4559 C   0  0  0  0  0  0  0  0  0  0  0  0
  -19.4069  -23.1198   22.9867 C   0  0  0  0  0  0  0  0  0  0  0  0
  -29.6055  -12.2409   20.8080 C   0  0  0  0  0  0  0  0  0  0  0  0
  -20.0171  -25.2666   23.9120 C   0  0  0  0  0  0  0  0  0  0  0  0
  -25.7956  -18.4806   21.4633 C   0  0  0  0  0  0  0  0  0  0  0  0
  -25.0419  -20.4568   20.8622 C   0  0  0  0  0  0  0  0  0  0  0  0
  -25.1693  -18.8055   18.9900 C   0  0  0  0  0  0  0  0  0  0  0  0
  -27.7144  -29.1479   23.3779 C   0  0  0  0  0  0  0  0  0  0  0  0
  -28.2011  -32.1739   24.4402 C   0  0  0  0  0  0  0  0  0  0  0  0
  -26.8892  -35.2471   25.1339 C   0  0  0  0  0  0  0  0  0  0  0  0
  -22.9416  -22.9598   25.6412 C   0  0  0  0  0  0  0  0  0  0  0  0
  -30.5732  -25.2834   21.6600 C   0  0  0  0  0  0  0  0  0  0  0  0
  -26.6829  -30.5052   21.5206 C   0  0  0  0  0  0  0  0  0  0  0  0
  -25.8008  -31.4402   24.1838 C   0  0  0  0  0  0  0  0  0  0  0  0
  -30.7983  -26.4866   22.5721 C   0  0  0  0  0  0  0  0  0  0  0  0
  -17.0662  -26.2239   18.7160 C   0  0  0  0  0  0  0  0  0  0  0  0
  -18.1604  -27.2698   18.7865 C   0  0  0  0  0  0  0  0  0  0  0  0
  -26.4200  -22.9843   24.8816 C   0  0  0  0  0  0  0  0  0  0  0  0
  -29.6928  -26.5769   23.6193 C   0  0  0  0  0  0  0  0  0  0  0  0
  -26.5702  -21.8935   23.8197 C   0  0  0  0  0  0  0  0  0  0  0  0
  -18.9510  -29.5403   22.7934 C   0  0  0  0  0  0  0  0  0  0  0  0
  -17.0454  -25.6623   20.1330 C   0  0  0  0  0  0  0  0  0  0  0  0
  -19.2090  -26.6005   19.6676 C   0  0  0  0  0  0  0  0  0  0  0  0
  -25.3766  -22.6096   25.9319 C   0  0  0  0  0  0  0  0  0  0  0  0
  -18.4012  -28.1383   22.5538 C   0  0  0  0  0  0  0  0  0  0  0  0
  -24.2058  -21.1512   24.3269 C   0  0  0  0  0  0  0  0  0  0  0  0
  -20.8137  -28.0411   22.7065 C   0  0  0  0  0  0  0  0  0  0  0  0
  -28.3224  -26.7717   22.9593 C   0  0  1  0  0  0  0  0  0  0  0  0
  -27.6192  -30.4978   22.7251 C   0  0  1  0  0  0  0  0  0  0  0  0
  -25.2067  -21.5083   23.2148 C   0  0  2  0  0  0  0  0  0  0  0  0
  -20.3840  -29.4475   22.2919 C   0  0  2  0  0  0  0  0  0  1  0  0
  -27.5250  -37.5046   26.0266 C   0  0  0  0  0  0  0  0  0  0  0  0
  -28.2445  -31.0392   27.2722 C   0  0  0  0  0  0  0  0  0  0  0  0
  -27.9250  -33.3675   28.1353 C   0  0  0  0  0  0  0  0  0  0  0  0
  -29.9689  -32.7944   26.8251 C   0  0  0  0  0  0  0  0  0  0  0  0
  -26.1390  -36.5872   22.6041 C   0  0  0  0  0  0  0  0  0  0  0  0
  -20.5057  -23.1990   25.2307 C   0  0  0  0  0  0  0  0  0  0  0  0
  -27.7446  -32.9734   25.6366 C   0  0  1  0  0  0  0  0  0  0  0  0
  -27.3607  -36.6464   24.7818 C   0  0  2  0  0  0  0  0  0  0  0  0
  -28.4522  -32.5323   26.9490 C   0  0  0  0  0  0  0  0  0  0  0  0
  -25.8061  -19.1992   22.5891 N   0  0  0  0  0  0  0  0  0  0  0  0
  -25.3426  -20.3963   22.1912 N   0  0  0  0  0  0  0  0  0  0  0  0
  -18.4366  -25.7612   20.5917 N   0  0  0  0  0  0  0  0  0  0  0  0
  -19.5711  -27.2745   22.6902 N   0  0  3  0  0  0  0  0  0  0  0  0
  -27.2118  -31.4465   23.7635 N   0  0  0  0  0  0  0  0  0  0  0  0
  -24.1066  -22.2566   25.2928 N   0  0  0  0  0  0  0  0  0  0  0  0
  -24.5642  -21.5856   20.2964 N   0  0  0  0  0  0  0  0  0  0  0  0
  -25.5116  -17.4921   18.6404 N   0  0  0  0  0  0  0  0  0  0  0  0
  -28.1562  -28.1455   22.5355 N   0  0  0  0  0  0  0  0  0  0  0  0
  -27.9467  -34.3763   25.2913 N   0  0  0  0  0  0  0  0  0  0  0  0
  -21.7823  -22.5662   24.9840 N   0  0  0  0  0  0  0  0  0  0  0  0
  -26.3796  -37.3117   23.8786 N   0  3  0  0  0  0  0  0  0  0  0  0
  -24.7514  -19.5878   18.1030 O   0  0  0  0  0  0  0  0  0  0  0  0
  -27.4111  -29.0251   24.5588 O   0  0  0  0  0  0  0  0  0  0  0  0
  -29.3904  -32.1998   24.1136 O   0  0  0  0  0  0  0  0  0  0  0  0
  -25.7017  -34.9564   25.2606 O   0  0  0  0  0  0  0  0  0  0  0  0
  -22.9361  -23.8744   26.4721 O   0  0  0  0  0  0  0  0  0  0  0  0
  -27.4931  -13.1531   21.5182 O   0  0  0  0  0  0  0  0  0  0  0  0
  -21.1876  -30.4419   22.8955 O   0  0  0  0  0  0  0  0  0  1  0  0
  -30.8506  -11.4894   17.4730 F   0  0  0  0  0  0  0  0  0  0  0  0
  -19.3524  -21.7837   23.0784 F   0  0  0  0  0  0  0  0  0  0  0  0
  -30.0130  -12.1659   22.0824 F   0  0  0  0  0  0  0  0  0  0  0  0
  -20.5543  -25.9924   24.9043 F   0  0  0  0  0  0  0  0  0  0  0  0
  1  2  1  0  0  0  0
  1  5  2  0  0  0  0
  2  6  2  0  0  0  0
  3  8  2  0  0  0  0
  3 16  1  0  0  0  0
  4  9  1  0  0  0  0
  4 16  2  0  0  0  0
  5 18  1  0  0  0  0
  6 20  1  0  0  0  0
  7 10  2  0  0  0  0
  7 19  1  0  0  0  0
  8 25  1  0  0  0  0
  9 25  2  0  0  0  0
 10 26  1  0  0  0  0
 11 12  2  0  0  0  0
 11 27  1  0  0  0  0
 12 28  1  0  0  0  0
 13 21  1  0  0  0  0
 13 26  2  0  0  0  0
 14 23  2  0  0  0  0
 14 29  1  0  0  0  0
 15 28  2  0  0  0  0
 15 30  1  0  0  0  0
 16 32  1  0  0  0  0
 17 32  1  0  0  0  0
 17 33  2  0  0  0  0
 17 34  1  0  0  0  0
 18 20  2  0  0  0  0
 18 39  1  0  0  0  0
 19 21  2  0  0  0  0
 19 40  1  0  0  0  0
 20 55  1  0  0  0  0
 21 41  1  0  0  0  0
 22 29  2  0  0  0  0
 22 31  1  0  0  0  0
 22 64  1  0  0  0  0
 23 24  1  0  0  0  0
 23 70  1  0  0  0  0
 24 31  2  0  0  0  0
 24 71  1  0  0  0  0
 25 85  1  0  0  0  0
 26 86  1  0  0  0  0
 27 30  2  0  0  0  0
 27 85  1  0  0  0  0
 28 87  1  0  0  0  0
 29 88  1  0  0  0  0
 30 89  1  0  0  0  0
 31 90  1  0  0  0  0
 32 68  2  0  0  0  0
 33 69  1  0  0  0  0
 33 74  1  0  0  0  0
 34 75  1  0  0  0  0
 34 80  2  0  0  0  0
 35 56  1  0  0  0  0
 35 76  1  0  0  0  0
 35 81  2  0  0  0  0
 36 65  1  0  0  0  0
 36 72  1  0  0  0  0
 36 82  2  0  0  0  0
 37 66  1  0  0  0  0
 37 77  1  0  0  0  0
 37 83  2  0  0  0  0
 38 73  1  0  0  0  0
 38 78  1  0  0  0  0
 38 84  2  0  0  0  0
 39 42  1  0  0  0  0
 40 56  1  0  0  0  0
 41 72  1  0  0  0  0
 42 46  1  0  0  0  0
 43 44  1  0  0  0  0
 43 49  1  0  0  0  0
 44 50  1  0  0  0  0
 45 47  1  0  0  0  0
 45 51  1  0  0  0  0
 46 55  1  0  0  0  0
 47 57  1  0  0  0  0
 48 52  1  0  0  0  0
 48 58  1  0  0  0  0
 49 70  1  0  0  0  0
 50 70  1  0  0  0  0
 51 73  1  0  0  0  0
 52 71  1  0  0  0  0
 53 57  1  0  0  0  0
 53 73  1  0  0  0  0
 54 58  1  0  0  0  0
 54 71  1  0  0  0  0
 55 76  1  0  0  0  0
 56 72  1  0  0  0  0
 57 69  1  0  0  0  0
 58 86  1  0  0  0  0
 59 66  1  0  0  0  0
 60 67  1  0  0  0  0
 61 67  1  0  0  0  0
 62 67  1  0  0  0  0
 63 79  1  0  0  0  0
 64 78  1  0  0  0  0
 65 67  1  0  0  0  0
 65 77  1  0  0  0  0
 66 79  1  0  0  0  0
 68 69  1  0  0  0  0
M  CHG  1  79   1
M  ISO  4  38 100  58 101  78 100  86 101
M  END
> <Batch ID>
0026

> <Smiles>
CNC(C)C(=O)NC(C(=O)N1Cc2cc([101O:1][101CH:1]3CCN(c4c(N5CCCC5)cc(F)c(C[100NH:0][100C:0](=O)N5CCCC(n6nc(-c7ccc(Oc8ccc(F)cc8F)cc7)c(C(N)=O)c6N)C5)c4F)C3)ccc2CC1C(=O)NC1CCCc2ccccc21)C(C)(C)C

> <Shape>
0.247

> <Color>
0.063

> <Negative vol penalty>
0.000

$$$$

  -OEChem-04042321253D

 86 95  0     1  0  0  0  0  0999 V2000
  -26.2228  -33.9318   25.5165 C   0  0  0  0  0  0  0  0  0  0  0  0
  -26.7445  -32.8140   24.8733 C   0  0  0  0  0  0  0  0  0  0  0  0
  -27.1030  -12.6442   21.6579 C   0  0  0  0  0  0  0  0  0  0  0  0
  -26.5004  -14.0848   19.8144 C   0  0  0  0  0  0  0  0  0  0  0  0
  -24.9429  -33.8836   26.0674 C   0  0  0  0  0  0  0  0  0  0  0  0
  -25.9869  -31.6469   24.7815 C   0  0  0  0  0  0  0  0  0  0  0  0
  -26.1415  -29.5892   20.1569 C   0  0  0  0  0  0  0  0  0  0  0  0
  -26.2959  -11.6349   21.1330 C   0  0  0  0  0  0  0  0  0  0  0  0
  -25.6933  -13.0755   19.2895 C   0  0  0  0  0  0  0  0  0  0  0  0
  -27.2844  -28.8652   19.8200 C   0  0  0  0  0  0  0  0  0  0  0  0
  -23.0032  -10.8784   21.0329 C   0  0  0  0  0  0  0  0  0  0  0  0
  -22.1674  -10.1934   21.9149 C   0  0  0  0  0  0  0  0  0  0  0  0
  -26.1139  -26.8094   20.2921 C   0  0  0  0  0  0  0  0  0  0  0  0
  -27.4141  -24.2111   23.0035 C   0  0  0  0  0  0  0  0  0  0  0  0
  -28.9746  -23.8225   20.7239 C   0  0  0  0  0  0  0  0  0  0  0  0
  -23.2735   -8.1202   21.3530 C   0  0  0  0  0  0  0  0  0  0  0  0
  -27.2052  -13.8692   20.9986 C   0  0  0  0  0  0  0  0  0  0  0  0
  -29.4015  -15.1380   21.2711 C   0  0  0  0  0  0  0  0  0  0  0  0
  -24.1655  -32.7185   25.9738 C   0  0  0  0  0  0  0  0  0  0  0  0
  -24.9777  -28.9281   20.5751 C   0  0  0  0  0  0  0  0  0  0  0  0
  -24.6959  -31.5827   25.3327 C   0  0  0  0  0  0  0  0  0  0  0  0
  -24.9568  -27.5272   20.6313 C   0  0  0  0  0  0  0  0  0  0  0  0
  -27.0856  -23.2032   22.0970 C   0  0  0  0  0  0  0  0  0  0  0  0
  -29.3031  -24.8304   21.6304 C   0  0  0  0  0  0  0  0  0  0  0  0
  -25.5911  -11.8505   19.9488 C   0  0  0  0  0  0  0  0  0  0  0  0
  -27.2716  -27.4753   19.8904 C   0  0  0  0  0  0  0  0  0  0  0  0
  -23.9741  -10.1842   20.3109 C   0  0  0  0  0  0  0  0  0  0  0  0
  -22.3025   -8.8144   22.0750 C   0  0  0  0  0  0  0  0  0  0  0  0
  -24.1092   -8.8052   20.4710 C   0  0  0  0  0  0  0  0  0  0  0  0
  -28.5229  -25.0247   22.7702 C   0  0  0  0  0  0  0  0  0  0  0  0
  -27.8658  -23.0089   20.9572 C   0  0  0  0  0  0  0  0  0  0  0  0
  -28.0383  -14.9124   21.5406 C   0  0  0  0  0  0  0  0  0  0  0  0
  -29.7230  -16.2396   22.0257 C   0  0  0  0  0  0  0  0  0  0  0  0
  -30.2970  -14.4163   20.4149 C   0  0  0  0  0  0  0  0  0  0  0  0
  -23.2471  -28.9033   23.2412 C   0  0  0  0  0  0  0  0  0  0  0  0
  -21.2543  -27.0580   21.4675 C   0  0  0  0  0  0  0  0  0  0  0  0
  -20.8545  -24.9401   18.8215 C   0  0  0  0  0  0  0  0  0  0  0  0
  -26.4801  -20.7761   24.2062 C   0  0  0  0  0  0  0  0  0  0  0  0
  -22.8057  -32.6988   26.6260 C   0  0  0  0  0  0  0  0  0  0  0  0
  -23.7449  -29.7223   20.9094 C   0  0  0  0  0  0  0  0  0  0  0  0
  -23.7264  -26.7688   21.0547 C   0  0  0  0  0  0  0  0  0  0  0  0
  -21.9224  -31.5452   26.1579 C   0  0  0  0  0  0  0  0  0  0  0  0
  -28.4981  -18.5023   26.0594 C   0  0  0  0  0  0  0  0  0  0  0  0
  -32.7072  -26.0868   21.3962 C   0  0  0  0  0  0  0  0  0  0  0  0
  -22.7075  -30.2373   26.1586 C   0  0  0  0  0  0  0  0  0  0  0  0
  -28.7321  -17.3448   25.0871 C   0  0  0  0  0  0  0  0  0  0  0  0
  -32.0561  -26.9775   20.3530 C   0  0  0  0  0  0  0  0  0  0  0  0
  -31.5398  -25.6911   22.2921 C   0  0  0  0  0  0  0  0  0  0  0  0
  -27.0957  -19.0885   25.9120 C   0  0  0  0  0  0  0  0  0  0  0  0
  -26.9691  -18.3367   23.5683 C   0  0  0  0  0  0  0  0  0  0  0  0
  -23.8952  -30.3064   25.1911 C   0  0  1  0  0  0  0  0  0  0  0  0
  -22.7763  -28.9689   21.8158 C   0  0  1  0  0  0  0  0  0  0  0  0
  -28.3890  -17.7493   23.6408 C   0  0  2  0  0  0  0  0  0  0  0  0
  -30.6844  -26.3235   20.1121 C   0  0  2  0  0  0  0  0  0  0  0  0
  -19.1171  -23.5634   17.6452 C   0  0  0  0  0  0  0  0  0  0  0  0
  -21.3862  -24.9858   23.7032 C   0  0  0  0  0  0  0  0  0  0  0  0
  -20.4518  -23.3021   22.1030 C   0  0  0  0  0  0  0  0  0  0  0  0
  -19.1111  -25.3139   22.7178 C   0  0  0  0  0  0  0  0  0  0  0  0
  -21.2023  -26.4466   16.2979 C   0  0  0  0  0  0  0  0  0  0  0  0
  -25.8900  -22.3531   22.3831 C   0  0  0  0  0  0  0  0  0  0  0  0
  -29.6465  -27.3945   19.7926 C   0  0  0  0  0  0  0  0  0  1  0  0
  -21.1190  -25.5777   21.2043 C   0  0  1  0  0  0  0  0  0  0  0  0
  -19.8274  -24.9068   17.7041 C   0  0  2  0  0  0  0  0  0  0  0  0
  -20.5410  -24.8089   22.4259 C   0  0  0  0  0  0  0  0  0  0  0  0
  -27.5289  -15.7994   22.3996 N   0  0  0  0  0  0  0  0  0  0  0  0
  -28.5776  -16.5929   22.6764 N   0  0  0  0  0  0  0  0  0  0  0  0
  -30.4054  -25.6208   21.3724 N   0  0  3  0  0  0  0  0  0  0  0  0
  -22.5482  -27.5905   21.3776 N   0  0  0  0  0  0  0  0  0  0  0  0
  -26.8341  -19.4529   24.5175 N   0  0  0  0  0  0  0  0  0  0  0  0
  -30.8710  -16.9308   22.1897 N   0  0  0  0  0  0  0  0  0  0  0  0
  -29.8026  -13.3090   19.7122 N   0  0  0  0  0  0  0  0  0  0  0  0
  -23.4452  -30.1396   23.8257 N   0  0  0  0  0  0  0  0  0  0  0  0
  -20.3242  -25.4503   19.9876 N   0  0  0  0  0  0  0  0  0  0  0  0
  -26.2556  -21.0380   22.8602 N   0  0  0  0  0  0  0  0  0  0  0  0
  -20.4849  -25.1489   16.3888 N   0  3  0  0  0  0  0  0  0  0  0  0
  -31.5041  -14.7338   20.2898 O   0  0  0  0  0  0  0  0  0  0  0  0
  -23.4166  -27.8118   23.7718 O   0  0  0  0  0  0  0  0  0  0  0  0
  -20.2479  -27.7190   21.7357 O   0  0  0  0  0  0  0  0  0  0  0  0
  -22.0104  -24.5489   18.6756 O   0  0  0  0  0  0  0  0  0  0  0  0
  -26.3772  -21.6599   25.0637 O   0  0  0  0  0  0  0  0  0  0  0  0
  -24.8036  -10.8658   19.4362 O   0  0  0  0  0  0  0  0  0  0  0  0
  -28.3860  -26.7662   19.5627 O   0  0  0  0  0  0  0  0  0  1  0  0
  -21.5009   -8.1570   22.9231 F   0  0  0  0  0  0  0  0  0  0  0  0
  -25.0409   -8.1331   19.7810 F   0  0  0  0  0  0  0  0  0  0  0  0
  -28.8943  -26.2614   23.9180 Cl  0  0  0  0  0  0  0  0  0  0  0  0
  -27.4902  -21.7712   19.8141 Cl  0  0  0  0  0  0  0  0  0  0  0  0
  1  2  1  0  0  0  0
  1  5  2  0  0  0  0
  2  6  2  0  0  0  0
  3  8  2  0  0  0  0
  3 17  1  0  0  0  0
  4  9  1  0  0  0  0
  4 17  2  0  0  0  0
  5 19  1  0  0  0  0
  6 21  1  0  0  0  0
  7 10  2  0  0  0  0
  7 20  1  0  0  0  0
  8 25  1  0  0  0  0
  9 25  2  0  0  0  0
 10 26  1  0  0  0  0
 11 12  2  0  0  0  0
 11 27  1  0  0  0  0
 12 28  1  0  0  0  0
 13 22  1  0  0  0  0
 13 26  2  0  0  0  0
 14 23  2  0  0  0  0
 14 30  1  0  0  0  0
 15 24  1  0  0  0  0
 15 31  2  0  0  0  0
 16 28  2  0  0  0  0
 16 29  1  0  0  0  0
 17 32  1  0  0  0  0
 18 32  1  0  0  0  0
 18 33  2  0  0  0  0
 18 34  1  0  0  0  0
 19 21  2  0  0  0  0
 19 39  1  0  0  0  0
 20 22  2  0  0  0  0
 20 40  1  0  0  0  0
 21 51  1  0  0  0  0
 22 41  1  0  0  0  0
 23 31  1  0  0  0  0
 23 60  1  0  0  0  0
 24 30  2  0  0  0  0
 24 67  1  0  0  0  0
 25 81  1  0  0  0  0
 26 82  1  0  0  0  0
 27 29  2  0  0  0  0
 27 81  1  0  0  0  0
 28 83  1  0  0  0  0
 29 84  1  0  0  0  0
 30 85  1  0  0  0  0
 31 86  1  0  0  0  0
 32 65  2  0  0  0  0
 33 66  1  0  0  0  0
 33 70  1  0  0  0  0
 34 71  1  0  0  0  0
 34 76  2  0  0  0  0
 35 52  1  0  0  0  0
 35 72  1  0  0  0  0
 35 77  2  0  0  0  0
 36 62  1  0  0  0  0
 36 68  1  0  0  0  0
 36 78  2  0  0  0  0
 37 63  1  0  0  0  0
 37 73  1  0  0  0  0
 37 79  2  0  0  0  0
 38 69  1  0  0  0  0
 38 74  1  0  0  0  0
 38 80  2  0  0  0  0
 39 42  1  0  0  0  0
 40 52  1  0  0  0  0
 41 68  1  0  0  0  0
 42 45  1  0  0  0  0
 43 46  1  0  0  0  0
 43 49  1  0  0  0  0
 44 47  1  0  0  0  0
 44 48  1  0  0  0  0
 45 51  1  0  0  0  0
 46 53  1  0  0  0  0
 47 54  1  0  0  0  0
 48 67  1  0  0  0  0
 49 69  1  0  0  0  0
 50 53  1  0  0  0  0
 50 69  1  0  0  0  0
 51 72  1  0  0  0  0
 52 68  1  0  0  0  0
 53 66  1  0  0  0  0
 54 61  1  0  0  0  0
 54 67  1  0  0  0  0
 55 63  1  0  0  0  0
 56 64  1  0  0  0  0
 57 64  1  0  0  0  0
 58 64  1  0  0  0  0
 59 75  1  0  0  0  0
 60 74  1  0  0  0  0
 61 82  1  0  0  0  0
 62 64  1  0  0  0  0
 62 73  1  0  0  0  0
 63 75  1  0  0  0  0
 65 66  1  0  0  0  0
M  CHG  1  75   1
M  ISO  4  38 100  61 101  74 100  82 101
M  END
> <Batch ID>
0026

> <Smiles>
CNC(C)C(=O)NC(C(=O)N1Cc2cc([101O:1][101CH2:1]C3CCCN3c3cc(Cl)c(C[100NH:0][100C:0](=O)N4CCCC(n5nc(-c6ccc(Oc7ccc(F)cc7F)cc6)c(C(N)=O)c5N)C4)cc3Cl)ccc2CC1C(=O)NC1CCCc2ccccc21)C(C)(C)C

> <Shape>
0.250

> <Color>
0.083

> <Negative vol penalty>
0.000

$$$$

  -OEChem-04042321253D

 83 92  0     1  0  0  0  0  0999 V2000
  -20.5520  -17.4503   19.4858 C   0  0  0  0  0  0  0  0  0  0  0  0
  -21.5734  -17.6226   20.4145 C   0  0  0  0  0  0  0  0  0  0  0  0
  -23.2583   -9.7255   20.0667 C   0  0  0  0  0  0  0  0  0  0  0  0
  -23.9290   -9.9664   22.3752 C   0  0  0  0  0  0  0  0  0  0  0  0
  -20.6787  -17.9855   18.2046 C   0  0  0  0  0  0  0  0  0  0  0  0
  -22.7227  -18.3292   20.0621 C   0  0  0  0  0  0  0  0  0  0  0  0
  -26.0769  -21.9477   23.6901 C   0  0  0  0  0  0  0  0  0  0  0  0
  -30.3916  -17.7227   24.3609 C   0  0  0  0  0  0  0  0  0  0  0  0
  -30.0834  -16.4684   23.8248 C   0  0  0  0  0  0  0  0  0  0  0  0
  -22.5926   -8.5415   20.3836 C   0  0  0  0  0  0  0  0  0  0  0  0
  -23.2632   -8.7824   22.6922 C   0  0  0  0  0  0  0  0  0  0  0  0
  -27.2597  -21.7313   24.3957 C   0  0  0  0  0  0  0  0  0  0  0  0
  -20.0823   -7.7888   23.2535 C   0  0  0  0  0  0  0  0  0  0  0  0
  -19.2869   -7.7811   24.3992 C   0  0  0  0  0  0  0  0  0  0  0  0
  -31.5609  -16.8967   21.9822 C   0  0  0  0  0  0  0  0  0  0  0  0
  -28.5146  -22.6985   22.5766 C   0  0  0  0  0  0  0  0  0  0  0  0
  -20.6392   -6.0064   25.3260 C   0  0  0  0  0  0  0  0  0  0  0  0
  -23.9266  -10.4380   21.0625 C   0  0  0  0  0  0  0  0  0  0  0  0
  -24.0856  -12.9652   20.7535 C   0  0  0  0  0  0  0  0  0  0  0  0
  -21.8260  -18.7073   17.8394 C   0  0  0  0  0  0  0  0  0  0  0  0
  -26.1050  -22.5321   22.4157 C   0  0  0  0  0  0  0  0  0  0  0  0
  -22.8655  -18.8733   18.7744 C   0  0  0  0  0  0  0  0  0  0  0  0
  -31.8654  -18.1642   22.5085 C   0  0  0  0  0  0  0  0  0  0  0  0
  -27.3305  -22.9235   21.8580 C   0  0  0  0  0  0  0  0  0  0  0  0
  -31.2949  -18.6002   23.7294 C   0  0  0  0  0  0  0  0  0  0  0  0
  -30.6704  -16.0539   22.6372 C   0  0  0  0  0  0  0  0  0  0  0  0
  -22.5950   -8.0699   21.6963 C   0  0  0  0  0  0  0  0  0  0  0  0
  -28.4791  -22.1041   23.8378 C   0  0  0  0  0  0  0  0  0  0  0  0
  -21.1561   -6.9053   23.1439 C   0  0  0  0  0  0  0  0  0  0  0  0
  -19.5653   -6.8899   25.4355 C   0  0  0  0  0  0  0  0  0  0  0  0
  -21.4346   -6.0141   24.1802 C   0  0  0  0  0  0  0  0  0  0  0  0
  -24.6149  -11.6609   20.7356 C   0  0  0  0  0  0  0  0  0  0  0  0
  -25.1324  -13.7659   20.3667 C   0  0  0  0  0  0  0  0  0  0  0  0
  -22.7657  -13.4131   21.0897 C   0  0  0  0  0  0  0  0  0  0  0  0
  -25.2572  -21.5950   19.4990 C   0  0  0  0  0  0  0  0  0  0  0  0
  -25.9884  -24.6592   18.7252 C   0  0  0  0  0  0  0  0  0  0  0  0
  -27.7269  -27.4997   19.4708 C   0  0  0  0  0  0  0  0  0  0  0  0
  -30.8636  -14.2186   20.9224 C   0  0  0  0  0  0  0  0  0  0  0  0
  -21.9382  -19.2265   16.4279 C   0  0  0  0  0  0  0  0  0  0  0  0
  -24.8180  -22.7831   21.6788 C   0  0  0  0  0  0  0  0  0  0  0  0
  -32.8518  -19.0288   21.7613 C   0  0  0  0  0  0  0  0  0  0  0  0
  -27.4132  -23.5731   20.5017 C   0  0  0  0  0  0  0  0  0  0  0  0
  -23.0259  -20.2831   16.2522 C   0  0  0  0  0  0  0  0  0  0  0  0
  -32.7123  -20.4913   22.1584 C   0  0  0  0  0  0  0  0  0  0  0  0
  -29.3687  -13.0235   17.9200 C   0  0  0  0  0  0  0  0  0  0  0  0
  -24.3182  -19.8365   16.9284 C   0  0  0  0  0  0  0  0  0  0  0  0
  -27.9384  -12.6774   18.3401 C   0  0  0  0  0  0  0  0  0  0  0  0
  -32.7140  -20.6141   23.6748 C   0  0  0  0  0  0  0  0  0  0  0  0
  -30.3776  -12.6962   19.0195 C   0  0  0  0  0  0  0  0  0  0  0  0
  -28.6436  -12.9307   20.7537 C   0  0  0  0  0  0  0  0  0  0  0  0
  -24.1169  -19.6549   18.4377 C   0  0  1  0  0  0  0  0  0  0  0  0
  -25.0088  -22.9158   20.1711 C   0  0  1  0  0  0  0  0  0  0  0  0
  -27.5843  -13.3031   19.7034 C   0  0  2  0  0  0  0  0  0  0  0  0
  -28.1516  -29.8265   18.6324 C   0  0  0  0  0  0  0  0  0  0  0  0
  -27.8314  -23.5420   16.5654 C   0  0  0  0  0  0  0  0  0  0  0  0
  -28.9131  -25.7953   16.4210 C   0  0  0  0  0  0  0  0  0  0  0  0
  -26.4948  -25.5368   15.8666 C   0  0  0  0  0  0  0  0  0  0  0  0
  -26.6146  -28.7135   21.9301 C   0  0  0  0  0  0  0  0  0  0  0  0
  -31.0963  -20.2805   25.5505 C   0  0  0  0  0  0  0  0  0  0  0  0
  -29.6675  -20.7797   25.4156 C   0  0  0  0  0  0  0  0  0  1  0  0
  -27.2372  -25.3801   18.2783 C   0  0  1  0  0  0  0  0  0  0  0  0
  -27.2980  -28.9543   19.5398 C   0  0  2  0  0  0  0  0  0  0  0  0
  -27.6181  -25.0495   16.8076 C   0  0  0  0  0  0  0  0  0  0  0  0
  -25.8982  -11.6302   20.3666 N   0  0  0  0  0  0  0  0  0  0  0  0
  -26.1841  -12.9252   20.1488 N   0  0  0  0  0  0  0  0  0  0  0  0
  -31.6075  -19.8549   24.2555 N   0  0  3  0  0  0  0  0  0  0  0  0
  -26.1278  -23.7917   19.8179 N   0  0  0  0  0  0  0  0  0  0  0  0
  -29.9795  -13.3258   20.2804 N   0  0  0  0  0  0  0  0  0  0  0  0
  -25.2467  -15.1000   20.1950 N   0  0  0  0  0  0  0  0  0  0  0  0
  -21.8116  -12.4578   21.4658 N   0  0  0  0  0  0  0  0  0  0  0  0
  -30.3637  -14.7805   22.0966 N   0  0  0  0  0  0  0  0  0  0  0  0
  -24.1066  -20.9394   19.1044 N   0  0  0  0  0  0  0  0  0  0  0  0
  -27.0025  -26.7977   18.5306 N   0  0  0  0  0  0  0  0  0  0  0  0
  -27.4212  -29.4650   20.9344 N   0  3  0  0  0  0  0  0  0  0  0  0
  -22.4374  -14.6228   21.0417 O   0  0  0  0  0  0  0  0  0  0  0  0
  -26.4076  -21.2007   19.3483 O   0  0  0  0  0  0  0  0  0  0  0  0
  -24.9267  -24.8638   18.1314 O   0  0  0  0  0  0  0  0  0  0  0  0
  -28.6180  -27.0338   20.1773 O   0  0  0  0  0  0  0  0  0  0  0  0
  -31.9711  -14.4872   20.4499 O   0  0  0  0  0  0  0  0  0  0  0  0
  -21.9453   -6.9147   22.0060 O   0  0  0  0  0  0  0  0  0  0  0  0
  -29.6351  -21.8934   24.5240 O   0  0  0  0  0  0  0  0  0  1  0  0
  -18.8024   -6.8837   26.5365 F   0  0  0  0  0  0  0  0  0  0  0  0
  -22.4655   -5.1637   24.0811 F   0  0  0  0  0  0  0  0  0  0  0  0
  1  2  1  0  0  0  0
  1  5  2  0  0  0  0
  2  6  2  0  0  0  0
  3 10  2  0  0  0  0
  3 18  1  0  0  0  0
  4 11  1  0  0  0  0
  4 18  2  0  0  0  0
  5 20  1  0  0  0  0
  6 22  1  0  0  0  0
  7 12  2  0  0  0  0
  7 21  1  0  0  0  0
  8  9  2  0  0  0  0
  8 25  1  0  0  0  0
  9 26  1  0  0  0  0
 10 27  1  0  0  0  0
 11 27  2  0  0  0  0
 12 28  1  0  0  0  0
 13 14  2  0  0  0  0
 13 29  1  0  0  0  0
 14 30  1  0  0  0  0
 15 23  1  0  0  0  0
 15 26  2  0  0  0  0
 16 24  1  0  0  0  0
 16 28  2  0  0  0  0
 17 30  2  0  0  0  0
 17 31  1  0  0  0  0
 18 32  1  0  0  0  0
 19 32  1  0  0  0  0
 19 33  2  0  0  0  0
 19 34  1  0  0  0  0
 20 22  2  0  0  0  0
 20 39  1  0  0  0  0
 21 24  2  0  0  0  0
 21 40  1  0  0  0  0
 22 51  1  0  0  0  0
 23 25  2  0  0  0  0
 23 41  1  0  0  0  0
 24 42  1  0  0  0  0
 25 66  1  0  0  0  0
 26 71  1  0  0  0  0
 27 80  1  0  0  0  0
 28 81  1  0  0  0  0
 29 31  2  0  0  0  0
 29 80  1  0  0  0  0
 30 82  1  0  0  0  0
 31 83  1  0  0  0  0
 32 64  2  0  0  0  0
 33 65  1  0  0  0  0
 33 69  1  0  0  0  0
 34 70  1  0  0  0  0
 34 75  2  0  0  0  0
 35 52  1  0  0  0  0
 35 72  1  0  0  0  0
 35 76  2  0  0  0  0
 36 61  1  0  0  0  0
 36 67  1  0  0  0  0
 36 77  2  0  0  0  0
 37 62  1  0  0  0  0
 37 73  1  0  0  0  0
 37 78  2  0  0  0  0
 38 68  1  0  0  0  0
 38 71  1  0  0  0  0
 38 79  2  0  0  0  0
 39 43  1  0  0  0  0
 40 52  1  0  0  0  0
 41 44  1  0  0  0  0
 42 67  1  0  0  0  0
 43 46  1  0  0  0  0
 44 48  1  0  0  0  0
 45 47  1  0  0  0  0
 45 49  1  0  0  0  0
 46 51  1  0  0  0  0
 47 53  1  0  0  0  0
 48 66  1  0  0  0  0
 49 68  1  0  0  0  0
 50 53  1  0  0  0  0
 50 68  1  0  0  0  0
 51 72  1  0  0  0  0
 52 67  1  0  0  0  0
 53 65  1  0  0  0  0
 54 62  1  0  0  0  0
 55 63  1  0  0  0  0
 56 63  1  0  0  0  0
 57 63  1  0  0  0  0
 58 74  1  0  0  0  0
 59 60  1  0  0  0  0
 59 66  1  0  0  0  0
 60 81  1  0  0  0  0
 61 63  1  0  0  0  0
 61 73  1  0  0  0  0
 62 74  1  0  0  0  0
 64 65  1  0  0  0  0
M  CHG  1  74   1
M  ISO  4  38 100  60 101  71 100  81 101
M  END
> <Batch ID>
0026

> <Smiles>
CNC(C)C(=O)NC(C(=O)N1Cc2cc([101O:1][101CH2:1]CN3CCCc4cc([100NH:0][100C:0](=O)N5CCCC(n6nc(-c7ccc(Oc8ccc(F)cc8F)cc7)c(C(N)=O)c6N)C5)ccc43)ccc2CC1C(=O)NC1CCCc2ccccc21)C(C)(C)C

> <Shape>
0.212

> <Color>
0.206

> <Negative vol penalty>
0.000

$$$$

  -OEChem-04042321253D

 88 97  0     1  0  0  0  0  0999 V2000
  -28.7697  -22.7117   17.0643 C   0  0  0  0  0  0  0  0  0  0  0  0
  -27.6582  -23.2714   17.6861 C   0  0  0  0  0  0  0  0  0  0  0  0
  -26.6024  -12.9026   20.2159 C   0  0  0  0  0  0  0  0  0  0  0  0
  -24.2314  -13.2937   20.4655 C   0  0  0  0  0  0  0  0  0  0  0  0
  -30.0122  -22.7477   17.6957 C   0  0  0  0  0  0  0  0  0  0  0  0
  -27.7884  -23.8665   18.9404 C   0  0  0  0  0  0  0  0  0  0  0  0
  -25.3762  -28.3089   19.2427 C   0  0  0  0  0  0  0  0  0  0  0  0
  -26.4729  -11.6878   20.8889 C   0  0  0  0  0  0  0  0  0  0  0  0
  -24.1018  -12.0788   21.1385 C   0  0  0  0  0  0  0  0  0  0  0  0
  -23.9928  -28.2721   19.4118 C   0  0  0  0  0  0  0  0  0  0  0  0
  -23.9312   -8.7987   20.3434 C   0  0  0  0  0  0  0  0  0  0  0  0
  -22.8671   -7.9712   19.9849 C   0  0  0  0  0  0  0  0  0  0  0  0
  -22.0732  -23.0594   20.6508 C   0  0  0  0  0  0  0  0  0  0  0  0
  -19.7697  -23.3196   19.9705 C   0  0  0  0  0  0  0  0  0  0  0  0
  -24.2763  -28.6854   21.7715 C   0  0  0  0  0  0  0  0  0  0  0  0
  -21.1073  -21.5318   19.0476 C   0  0  0  0  0  0  0  0  0  0  0  0
  -22.0189   -8.0829   22.2444 C   0  0  0  0  0  0  0  0  0  0  0  0
  -25.4816  -13.7057   20.0042 C   0  0  0  0  0  0  0  0  0  0  0  0
  -20.8595  -23.7421   20.7317 C   0  0  0  0  0  0  0  0  0  0  0  0
  -25.5051  -15.1814   17.9235 C   0  0  0  0  0  0  0  0  0  0  0  0
  -30.1597  -23.3522   18.9541 C   0  0  0  0  0  0  0  0  0  0  0  0
  -26.2220  -28.5238   20.3404 C   0  0  0  0  0  0  0  0  0  0  0  0
  -29.0338  -23.9095   19.5899 C   0  0  0  0  0  0  0  0  0  0  0  0
  -25.6700  -28.7271   21.6132 C   0  0  0  0  0  0  0  0  0  0  0  0
  -22.1971  -21.9543   19.8087 C   0  0  0  0  0  0  0  0  0  0  0  0
  -25.2226  -11.2759   21.3502 C   0  0  0  0  0  0  0  0  0  0  0  0
  -23.4428  -28.4574   20.6768 C   0  0  0  0  0  0  0  0  0  0  0  0
  -24.0392   -9.2683   21.6525 C   0  0  0  0  0  0  0  0  0  0  0  0
  -21.9110   -7.6133   20.9353 C   0  0  0  0  0  0  0  0  0  0  0  0
  -19.8935  -22.2145   19.1284 C   0  0  0  0  0  0  0  0  0  0  0  0
  -23.0831   -8.9104   22.6029 C   0  0  0  0  0  0  0  0  0  0  0  0
  -25.6149  -14.9610   19.3096 C   0  0  0  0  0  0  0  0  0  0  0  0
  -25.7111  -16.5310   17.7731 C   0  0  0  0  0  0  0  0  0  0  0  0
  -20.7290  -24.9095   21.6179 C   0  0  0  0  0  0  0  0  0  0  0  0
  -25.2406  -14.2495   16.8665 C   0  0  0  0  0  0  0  0  0  0  0  0
  -28.5079  -26.8434   21.7737 C   0  0  0  0  0  0  0  0  0  0  0  0
  -28.8940  -29.5679   23.4913 C   0  0  0  0  0  0  0  0  0  0  0  0
  -27.5369  -32.4732   24.6595 C   0  0  0  0  0  0  0  0  0  0  0  0
  -24.6086  -21.5482   20.4137 C   0  0  0  0  0  0  0  0  0  0  0  0
  -31.5134  -23.3249   19.6184 C   0  0  0  0  0  0  0  0  0  0  0  0
  -27.7109  -28.5874   20.1369 C   0  0  0  0  0  0  0  0  0  0  0  0
  -26.5335  -28.9816   22.8207 C   0  0  0  0  0  0  0  0  0  0  0  0
  -31.6414  -24.3062   20.7807 C   0  0  0  0  0  0  0  0  0  0  0  0
  -18.7276  -29.1024   22.5257 C   0  0  0  0  0  0  0  0  0  0  0  0
  -18.9663  -28.2276   23.7565 C   0  0  0  0  0  0  0  0  0  0  0  0
  -27.8407  -20.0580   20.5133 C   0  0  0  0  0  0  0  0  0  0  0  0
  -30.4225  -24.2147   21.6933 C   0  0  0  0  0  0  0  0  0  0  0  0
  -27.5873  -18.6130   20.0776 C   0  0  0  0  0  0  0  0  0  0  0  0
  -19.2141  -28.2905   21.3268 C   0  0  0  0  0  0  0  0  0  0  0  0
  -19.5866  -26.9301   23.2417 C   0  0  0  0  0  0  0  0  0  0  0  0
  -26.6979  -20.6010   21.3692 C   0  0  0  0  0  0  0  0  0  0  0  0
  -25.1078  -19.0261   20.3394 C   0  0  0  0  0  0  0  0  0  0  0  0
  -29.1398  -24.5860   20.9394 C   0  0  1  0  0  0  0  0  0  0  0  0
  -28.5008  -28.3013   21.4103 C   0  0  1  0  0  0  0  0  0  0  0  0
  -26.2016  -18.4571   19.4210 C   0  0  2  0  0  0  0  0  0  0  0  0
  -20.2370  -27.3067   21.9057 C   0  0  0  0  0  0  0  0  0  0  0  0
  -28.0842  -34.4762   26.0687 C   0  0  0  0  0  0  0  0  0  0  0  0
  -28.5982  -27.8729   26.0111 C   0  0  0  0  0  0  0  0  0  0  0  0
  -28.2007  -29.9825   27.2994 C   0  0  0  0  0  0  0  0  0  0  0  0
  -30.3780  -29.6254   26.1357 C   0  0  0  0  0  0  0  0  0  0  0  0
  -20.1680  -26.3710   19.6219 C   0  0  0  0  0  0  0  0  0  0  0  0
  -27.0974  -34.3298   22.3971 C   0  0  0  0  0  0  0  0  0  0  0  0
  -21.6073  -27.9643   22.1065 C   0  0  0  0  0  0  0  0  0  1  0  0
  -28.3085  -30.1180   24.7694 C   0  0  1  0  0  0  0  0  0  0  0  0
  -28.0582  -33.8989   24.6620 C   0  0  2  0  0  0  0  0  0  0  0  0
  -28.8549  -29.3930   26.0317 C   0  0  0  0  0  0  0  0  0  0  0  0
  -25.8709  -16.0808   19.9911 N   0  0  0  0  0  0  0  0  0  0  0  0
  -25.9237  -17.0179   19.0293 N   0  0  0  0  0  0  0  0  0  0  0  0
  -27.9838  -29.0283   22.5715 N   0  0  0  0  0  0  0  0  0  0  0  0
  -25.4171  -20.4233   20.6816 N   0  0  0  0  0  0  0  0  0  0  0  0
  -25.7293  -17.3369   16.6902 N   0  0  0  0  0  0  0  0  0  0  0  0
  -25.0536  -12.9003   17.1965 N   0  0  0  0  0  0  0  0  0  0  0  0
  -23.4298  -21.2605   19.7265 N   0  0  0  0  0  0  0  0  0  0  0  0
  -29.0359  -26.0223   20.7956 N   0  0  0  0  0  0  0  0  0  0  0  0
  -28.5614  -31.5546   24.7491 N   0  0  0  0  0  0  0  0  0  0  0  0
  -20.3884  -26.1493   21.0540 N   0  0  0  0  0  0  0  0  0  0  0  0
  -27.1945  -34.7677   23.8133 N   0  3  0  0  0  0  0  0  0  0  0  0
  -20.9184  -24.7069   22.8167 O   0  0  0  0  0  0  0  0  0  0  0  0
  -25.1884  -14.6002   15.6632 O   0  0  0  0  0  0  0  0  0  0  0  0
  -28.0684  -26.4897   22.8615 O   0  0  0  0  0  0  0  0  0  0  0  0
  -30.1133  -29.6218   23.3124 O   0  0  0  0  0  0  0  0  0  0  0  0
  -26.3403  -32.2016   24.5891 O   0  0  0  0  0  0  0  0  0  0  0  0
  -24.9507  -22.6866   20.7439 O   0  0  0  0  0  0  0  0  0  0  0  0
  -25.0958  -10.0903   22.0067 O   0  0  0  0  0  0  0  0  0  0  0  0
  -22.0928  -28.4213   20.8448 O   0  0  0  0  0  0  0  0  0  1  0  0
  -20.8883   -6.8199   20.5905 F   0  0  0  0  0  0  0  0  0  0  0  0
  -18.8479  -21.8105   18.3952 F   0  0  0  0  0  0  0  0  0  0  0  0
  -23.1809   -9.3593   23.8618 F   0  0  0  0  0  0  0  0  0  0  0  0
  1  2  1  0  0  0  0
  1  5  2  0  0  0  0
  2  6  2  0  0  0  0
  3  8  2  0  0  0  0
  3 18  1  0  0  0  0
  4  9  1  0  0  0  0
  4 18  2  0  0  0  0
  5 21  1  0  0  0  0
  6 23  1  0  0  0  0
  7 10  2  0  0  0  0
  7 22  1  0  0  0  0
  8 26  1  0  0  0  0
  9 26  2  0  0  0  0
 10 27  1  0  0  0  0
 11 12  2  0  0  0  0
 11 28  1  0  0  0  0
 12 29  1  0  0  0  0
 13 19  2  0  0  0  0
 13 25  1  0  0  0  0
 14 19  1  0  0  0  0
 14 30  2  0  0  0  0
 15 24  1  0  0  0  0
 15 27  2  0  0  0  0
 16 25  2  0  0  0  0
 16 30  1  0  0  0  0
 17 29  2  0  0  0  0
 17 31  1  0  0  0  0
 18 32  1  0  0  0  0
 19 34  1  0  0  0  0
 20 32  1  0  0  0  0
 20 33  2  0  0  0  0
 20 35  1  0  0  0  0
 21 23  2  0  0  0  0
 21 40  1  0  0  0  0
 22 24  2  0  0  0  0
 22 41  1  0  0  0  0
 23 53  1  0  0  0  0
 24 42  1  0  0  0  0
 25 73  1  0  0  0  0
 26 84  1  0  0  0  0
 27 85  1  0  0  0  0
 28 31  2  0  0  0  0
 28 84  1  0  0  0  0
 29 86  1  0  0  0  0
 30 87  1  0  0  0  0
 31 88  1  0  0  0  0
 32 67  2  0  0  0  0
 33 68  1  0  0  0  0
 33 71  1  0  0  0  0
 34 76  1  0  0  0  0
 34 78  2  0  0  0  0
 35 72  1  0  0  0  0
 35 79  2  0  0  0  0
 36 54  1  0  0  0  0
 36 74  1  0  0  0  0
 36 80  2  0  0  0  0
 37 64  1  0  0  0  0
 37 69  1  0  0  0  0
 37 81  2  0  0  0  0
 38 65  1  0  0  0  0
 38 75  1  0  0  0  0
 38 82  2  0  0  0  0
 39 70  1  0  0  0  0
 39 73  1  0  0  0  0
 39 83  2  0  0  0  0
 40 43  1  0  0  0  0
 41 54  1  0  0  0  0
 42 69  1  0  0  0  0
 43 47  1  0  0  0  0
 44 45  1  0  0  0  0
 44 49  1  0  0  0  0
 45 50  1  0  0  0  0
 46 48  1  0  0  0  0
 46 51  1  0  0  0  0
 47 53  1  0  0  0  0
 48 55  1  0  0  0  0
 49 56  1  0  0  0  0
 50 56  1  0  0  0  0
 51 70  1  0  0  0  0
 52 55  1  0  0  0  0
 52 70  1  0  0  0  0
 53 74  1  0  0  0  0
 54 69  1  0  0  0  0
 55 68  1  0  0  0  0
 56 63  1  0  0  0  0
 56 76  1  0  0  0  0
 57 65  1  0  0  0  0
 58 66  1  0  0  0  0
 59 66  1  0  0  0  0
 60 66  1  0  0  0  0
 61 76  1  0  0  0  0
 62 77  1  0  0  0  0
 63 85  1  0  0  0  0
 64 66  1  0  0  0  0
 64 75  1  0  0  0  0
 65 77  1  0  0  0  0
 67 68  1  0  0  0  0
M  CHG  1  77   1
M  ISO  4  39 100  63 101  73 100  85 101
M  END
> <Batch ID>
0026

> <Smiles>
CNC(C)C(=O)NC(C(=O)N1Cc2cc([101O:1][101CH2:1]C3(N(C)C(=O)c4cc(F)cc([100NH:0][100C:0](=O)N5CCCC(n6nc(-c7ccc(Oc8ccc(F)cc8F)cc7)c(C(N)=O)c6N)C5)c4)CCCC3)ccc2CC1C(=O)NC1CCCc2ccccc21)C(C)(C)C

> <Shape>
0.250

> <Color>
0.057

> <Negative vol penalty>
0.000

$$$$

  -OEChem-04042321253D

 89 99  0     1  0  0  0  0  0999 V2000
  -21.8506  -27.4571   21.9983 C   0  0  0  0  0  0  0  0  0  0  0  0
  -22.7606  -26.6079   21.3768 C   0  0  0  0  0  0  0  0  0  0  0  0
  -23.2430   -9.7878   20.0803 C   0  0  0  0  0  0  0  0  0  0  0  0
  -23.7226  -10.1093   22.4262 C   0  0  0  0  0  0  0  0  0  0  0  0
  -22.1553  -28.8085   22.1558 C   0  0  0  0  0  0  0  0  0  0  0  0
  -23.9754  -27.1099   20.9114 C   0  0  0  0  0  0  0  0  0  0  0  0
  -27.8929  -24.1298   22.1019 C   0  0  0  0  0  0  0  0  0  0  0  0
  -22.5019   -8.6469   20.3881 C   0  0  0  0  0  0  0  0  0  0  0  0
  -22.9815   -8.9684   22.7341 C   0  0  0  0  0  0  0  0  0  0  0  0
  -28.0789  -22.9839   21.3298 C   0  0  0  0  0  0  0  0  0  0  0  0
  -19.4207   -7.9243   21.5786 C   0  0  0  0  0  0  0  0  0  0  0  0
  -18.1827   -7.7678   20.9553 C   0  0  0  0  0  0  0  0  0  0  0  0
  -29.7988  -24.1168   20.0736 C   0  0  0  0  0  0  0  0  0  0  0  0
  -31.1004  -18.0373   16.2527 C   0  0  0  0  0  0  0  0  0  0  0  0
  -18.9421   -5.6982   19.9666 C   0  0  0  0  0  0  0  0  0  0  0  0
  -23.8534  -10.5189   21.0993 C   0  0  0  0  0  0  0  0  0  0  0  0
  -24.1477  -13.0208   20.6971 C   0  0  0  0  0  0  0  0  0  0  0  0
  -23.3786  -29.3254   21.7007 C   0  0  0  0  0  0  0  0  0  0  0  0
  -28.6521  -25.2833   21.8581 C   0  0  0  0  0  0  0  0  0  0  0  0
  -24.2962  -28.4698   21.0617 C   0  0  0  0  0  0  0  0  0  0  0  0
  -29.6223  -25.2752   20.8457 C   0  0  0  0  0  0  0  0  0  0  0  0
  -28.6525  -16.7207   16.4919 C   0  0  0  0  0  0  0  0  0  0  0  0
  -29.7092  -16.1110   15.8156 C   0  0  0  0  0  0  0  0  0  0  0  0
  -30.0437  -18.6470   16.9289 C   0  0  0  0  0  0  0  0  0  0  0  0
  -22.3711   -8.2373   21.7151 C   0  0  0  0  0  0  0  0  0  0  0  0
  -29.0299  -22.9783   20.3136 C   0  0  0  0  0  0  0  0  0  0  0  0
  -20.4195   -6.9678   21.3958 C   0  0  0  0  0  0  0  0  0  0  0  0
  -17.9434   -6.6547   20.1494 C   0  0  0  0  0  0  0  0  0  0  0  0
  -20.1801   -5.8548   20.5898 C   0  0  0  0  0  0  0  0  0  0  0  0
  -30.9331  -16.7693   15.6960 C   0  0  0  0  0  0  0  0  0  0  0  0
  -28.8198  -17.9887   17.0485 C   0  0  0  0  0  0  0  0  0  0  0  0
  -24.6196  -11.6972   20.7819 C   0  0  0  0  0  0  0  0  0  0  0  0
  -25.2576  -13.7607   20.3697 C   0  0  0  0  0  0  0  0  0  0  0  0
  -22.8245  -13.5355   20.8967 C   0  0  0  0  0  0  0  0  0  0  0  0
  -27.9844  -28.2633   20.9763 C   0  0  0  0  0  0  0  0  0  0  0  0
  -31.1515  -28.7171   21.5114 C   0  0  0  0  0  0  0  0  0  0  0  0
  -34.2768  -27.3632   21.7251 C   0  0  0  0  0  0  0  0  0  0  0  0
  -30.0688  -13.4734   17.2611 C   0  0  0  0  0  0  0  0  0  0  0  0
  -23.6434  -30.8025   21.8511 C   0  0  0  0  0  0  0  0  0  0  0  0
  -28.4580  -26.5025   22.7173 C   0  0  0  0  0  0  0  0  0  0  0  0
  -30.4773  -26.4811   20.5570 C   0  0  0  0  0  0  0  0  0  0  0  0
  -25.1108  -31.1803   21.6655 C   0  0  0  0  0  0  0  0  0  0  0  0
  -30.1308  -13.1065   20.7374 C   0  0  0  0  0  0  0  0  0  0  0  0
  -25.6852  -30.4983   20.4279 C   0  0  0  0  0  0  0  0  0  0  0  0
  -28.6773  -12.8193   21.1082 C   0  0  0  0  0  0  0  0  0  0  0  0
  -27.8209  -12.4082   14.4887 C   0  0  0  0  0  0  0  0  0  0  0  0
  -28.2011  -11.4546   15.5818 C   0  0  0  0  0  0  0  0  0  0  0  0
  -30.6278  -22.2196   17.6327 C   0  0  0  0  0  0  0  0  0  0  0  0
  -30.5115  -12.3967   19.4443 C   0  0  0  0  0  0  0  0  0  0  0  0
  -29.9890  -21.1470   16.7506 C   0  0  0  0  0  0  0  0  0  0  0  0
  -28.1726  -12.4829   18.6349 C   0  0  0  0  0  0  0  0  0  0  0  0
  -30.7286  -20.1407   18.8268 C   0  0  0  0  0  0  0  0  0  0  0  0
  -25.6349  -28.9718   20.5658 C   0  0  1  0  0  0  0  0  0  0  0  0
  -28.9282  -27.7886   22.0447 C   0  0  1  0  0  0  0  0  0  0  0  0
  -27.7356  -13.1714   19.9444 C   0  0  1  0  0  0  0  0  0  0  0  0
  -28.0242  -12.9162   15.8899 C   0  0  0  0  0  0  0  0  0  0  0  0
  -30.5179  -21.6398   19.0354 C   0  0  2  0  0  0  0  0  0  1  0  0
  -27.3453  -15.9988   16.6104 C   0  0  0  0  0  0  0  0  0  0  0  0
  -36.6712  -27.9902   22.1389 C   0  0  0  0  0  0  0  0  0  0  0  0
  -31.3361  -29.8645   18.6901 C   0  0  0  0  0  0  0  0  0  0  0  0
  -33.8208  -29.5827   18.8132 C   0  0  0  0  0  0  0  0  0  0  0  0
  -32.6596  -31.1070   20.4103 C   0  0  0  0  0  0  0  0  0  0  0  0
  -34.4358  -25.6361   24.1232 C   0  0  0  0  0  0  0  0  0  0  0  0
  -29.5178  -14.7495   15.2221 C   0  0  0  0  0  0  0  0  0  0  0  0
  -32.4036  -28.6058   20.6756 C   0  0  1  0  0  0  0  0  0  0  0  0
  -35.3707  -27.5136   22.7669 C   0  0  2  0  0  0  0  0  0  0  0  0
  -32.5377  -29.7678   19.6512 C   0  0  0  0  0  0  0  0  0  0  0  0
  -25.9273  -11.5988   20.5285 N   0  0  0  0  0  0  0  0  0  0  0  0
  -26.2866  -12.8699   20.2812 N   0  0  0  0  0  0  0  0  0  0  0  0
  -30.2430  -19.9009   17.4673 N   0  0  3  0  0  0  0  0  0  0  0  0
  -30.2456  -27.6509   21.4203 N   0  0  0  0  0  0  0  0  0  0  0  0
  -29.5936  -12.7380   18.3566 N   0  0  0  0  0  0  0  0  0  0  0  0
  -25.4439  -15.0798   20.1515 N   0  0  0  0  0  0  0  0  0  0  0  0
  -21.8011  -12.6371   21.2283 N   0  0  0  0  0  0  0  0  0  0  0  0
  -26.7010  -28.5067   21.4269 N   0  0  0  0  0  0  0  0  0  0  0  0
  -33.5147  -28.5070   21.6159 N   0  0  0  0  0  0  0  0  0  0  0  0
  -29.1581  -13.7571   16.2288 N   0  0  0  0  0  0  0  0  0  0  0  0
  -35.6251  -26.2100   23.4428 N   0  3  0  0  0  0  0  0  0  0  0  0
  -22.5542  -14.7536   20.7682 O   0  0  0  0  0  0  0  0  0  0  0  0
  -28.3909  -28.4001   19.8283 O   0  0  0  0  0  0  0  0  0  0  0  0
  -30.9866  -29.7101   22.2244 O   0  0  0  0  0  0  0  0  0  0  0  0
  -34.1170  -26.3351   21.0708 O   0  0  0  0  0  0  0  0  0  0  0  0
  -31.2492  -13.8407   17.1939 O   0  0  0  0  0  0  0  0  0  0  0  0
  -21.6477   -7.1242   22.0159 O   0  0  0  0  0  0  0  0  0  0  0  0
  -29.2131  -21.8613   19.5581 O   0  0  0  0  0  0  0  0  0  1  0  0
  -16.7539   -6.5038   19.5522 F   0  0  0  0  0  0  0  0  0  0  0  0
  -21.1353   -4.9320   20.4115 F   0  0  0  0  0  0  0  0  0  0  0  0
  -32.2658  -16.0495   14.8668 Cl  0  0  0  0  0  0  0  0  0  0  0  0
  -27.5052  -18.7456   17.8890 Cl  0  0  0  0  0  0  0  0  0  0  0  0
  1  2  1  0  0  0  0
  1  5  2  0  0  0  0
  2  6  2  0  0  0  0
  3  8  2  0  0  0  0
  3 16  1  0  0  0  0
  4  9  1  0  0  0  0
  4 16  2  0  0  0  0
  5 18  1  0  0  0  0
  6 20  1  0  0  0  0
  7 10  2  0  0  0  0
  7 19  1  0  0  0  0
  8 25  1  0  0  0  0
  9 25  2  0  0  0  0
 10 26  1  0  0  0  0
 11 12  2  0  0  0  0
 11 27  1  0  0  0  0
 12 28  1  0  0  0  0
 13 21  1  0  0  0  0
 13 26  2  0  0  0  0
 14 24  1  0  0  0  0
 14 30  2  0  0  0  0
 15 28  2  0  0  0  0
 15 29  1  0  0  0  0
 16 32  1  0  0  0  0
 17 32  1  0  0  0  0
 17 33  2  0  0  0  0
 17 34  1  0  0  0  0
 18 20  2  0  0  0  0
 18 39  1  0  0  0  0
 19 21  2  0  0  0  0
 19 40  1  0  0  0  0
 20 53  1  0  0  0  0
 21 41  1  0  0  0  0
 22 23  2  0  0  0  0
 22 31  1  0  0  0  0
 22 58  1  0  0  0  0
 23 30  1  0  0  0  0
 23 64  1  0  0  0  0
 24 31  2  0  0  0  0
 24 70  1  0  0  0  0
 25 84  1  0  0  0  0
 26 85  1  0  0  0  0
 27 29  2  0  0  0  0
 27 84  1  0  0  0  0
 28 86  1  0  0  0  0
 29 87  1  0  0  0  0
 30 88  1  0  0  0  0
 31 89  1  0  0  0  0
 32 68  2  0  0  0  0
 33 69  1  0  0  0  0
 33 73  1  0  0  0  0
 34 74  1  0  0  0  0
 34 79  2  0  0  0  0
 35 54  1  0  0  0  0
 35 75  1  0  0  0  0
 35 80  2  0  0  0  0
 36 65  1  0  0  0  0
 36 71  1  0  0  0  0
 36 81  2  0  0  0  0
 37 66  1  0  0  0  0
 37 76  1  0  0  0  0
 37 82  2  0  0  0  0
 38 72  1  0  0  0  0
 38 77  1  0  0  0  0
 38 83  2  0  0  0  0
 39 42  1  0  0  0  0
 40 54  1  0  0  0  0
 41 71  1  0  0  0  0
 42 44  1  0  0  0  0
 43 45  1  0  0  0  0
 43 49  1  0  0  0  0
 44 53  1  0  0  0  0
 45 55  1  0  0  0  0
 46 47  1  0  0  0  0
 46 56  1  0  0  0  0
 47 56  1  0  0  0  0
 48 50  1  0  0  0  0
 48 57  1  0  0  0  0
 49 72  1  0  0  0  0
 50 70  1  0  0  0  0
 51 55  1  0  0  0  0
 51 72  1  0  0  0  0
 52 57  1  0  0  0  0
 52 70  1  0  0  0  0
 53 75  1  0  0  0  0
 54 71  1  0  0  0  0
 55 69  1  0  0  0  0
 56 77  1  0  0  0  0
 57 85  1  0  0  0  0
 59 66  1  0  0  0  0
 60 67  1  0  0  0  0
 61 67  1  0  0  0  0
 62 67  1  0  0  0  0
 63 78  1  0  0  0  0
 64 77  1  0  0  0  0
 65 67  1  0  0  0  0
 65 76  1  0  0  0  0
 66 78  1  0  0  0  0
 68 69  1  0  0  0  0
M  CHG  1  78   1
M  ISO  4  38 100  57 101  77 100  85 101
M  END
> <Batch ID>
0026

> <Smiles>
CNC(C)C(=O)NC(C(=O)N1Cc2cc([101O:1][101CH:1]3CCN(c4cc(Cl)c(C[100N:0](C5CC5)[100C:0](=O)N5CCCC(n6nc(-c7ccc(Oc8ccc(F)cc8F)cc7)c(C(N)=O)c6N)C5)c(C)c4Cl)C3)ccc2CC1C(=O)NC1CCCc2ccccc21)C(C)(C)C

> <Shape>
0.256

> <Color>
0.202

> <Negative vol penalty>
0.000

$$$$

  -OEChem-04042321253D

 86 95  0     1  0  0  0  0  0999 V2000
  -20.5735  -31.6838   24.0346 C   0  0  0  0  0  0  0  0  0  0  0  0
  -21.2839  -30.4879   24.0522 C   0  0  0  0  0  0  0  0  0  0  0  0
  -29.1624  -19.5996   18.3211 C   0  0  0  0  0  0  0  0  0  0  0  0
  -22.7074  -10.0810   20.2680 C   0  0  0  0  0  0  0  0  0  0  0  0
  -24.6420   -9.3639   21.5251 C   0  0  0  0  0  0  0  0  0  0  0  0
  -20.9362  -32.6958   23.1468 C   0  0  0  0  0  0  0  0  0  0  0  0
  -22.3569  -30.3027   23.1812 C   0  0  0  0  0  0  0  0  0  0  0  0
  -27.5024  -27.1727   24.2917 C   0  0  0  0  0  0  0  0  0  0  0  0
  -29.1201  -18.3070   18.8435 C   0  0  0  0  0  0  0  0  0  0  0  0
  -28.8498  -20.6904   19.1324 C   0  0  0  0  0  0  0  0  0  0  0  0
  -22.1170   -8.8327   20.4645 C   0  0  0  0  0  0  0  0  0  0  0  0
  -24.0515   -8.1155   21.7216 C   0  0  0  0  0  0  0  0  0  0  0  0
  -27.9033  -25.8791   23.9607 C   0  0  0  0  0  0  0  0  0  0  0  0
  -22.8995   -4.8610   22.8613 C   0  0  0  0  0  0  0  0  0  0  0  0
  -22.9547   -4.3110   24.1420 C   0  0  0  0  0  0  0  0  0  0  0  0
  -29.0594  -26.7388   22.0259 C   0  0  0  0  0  0  0  0  0  0  0  0
  -21.7461   -6.2139   25.0112 C   0  0  0  0  0  0  0  0  0  0  0  0
  -23.9700  -10.3466   20.7983 C   0  0  0  0  0  0  0  0  0  0  0  0
  -24.0800  -12.8871   21.0016 C   0  0  0  0  0  0  0  0  0  0  0  0
  -22.0203  -32.5267   22.2711 C   0  0  0  0  0  0  0  0  0  0  0  0
  -27.8685  -28.2597   23.4848 C   0  0  0  0  0  0  0  0  0  0  0  0
  -22.7337  -31.3128   22.2799 C   0  0  0  0  0  0  0  0  0  0  0  0
  -28.6640  -28.0456   22.3502 C   0  0  0  0  0  0  0  0  0  0  0  0
  -28.7650  -18.1051   20.1772 C   0  0  0  0  0  0  0  0  0  0  0  0
  -28.4948  -20.4885   20.4661 C   0  0  0  0  0  0  0  0  0  0  0  0
  -22.7890   -7.8499   21.1913 C   0  0  0  0  0  0  0  0  0  0  0  0
  -28.6795  -25.6616   22.8261 C   0  0  0  0  0  0  0  0  0  0  0  0
  -22.2677   -6.0875   22.6556 C   0  0  0  0  0  0  0  0  0  0  0  0
  -22.3780   -4.9875   25.2169 C   0  0  0  0  0  0  0  0  0  0  0  0
  -21.6910   -6.7639   23.7305 C   0  0  0  0  0  0  0  0  0  0  0  0
  -28.4524  -19.1959   20.9886 C   0  0  0  0  0  0  0  0  0  0  0  0
  -24.5807  -11.6358   20.5951 C   0  0  0  0  0  0  0  0  0  0  0  0
  -25.0234  -13.7895   20.5748 C   0  0  0  0  0  0  0  0  0  0  0  0
  -28.8420  -22.0368   22.4388 C   0  0  0  0  0  0  0  0  0  0  0  0
  -22.8704  -13.2054   21.7024 C   0  0  0  0  0  0  0  0  0  0  0  0
  -26.2818  -30.4157   21.7709 C   0  0  0  0  0  0  0  0  0  0  0  0
  -29.2343  -31.6988   21.3718 C   0  0  0  0  0  0  0  0  0  0  0  0
  -32.6150  -31.2338   21.3387 C   0  0  0  0  0  0  0  0  0  0  0  0
  -30.5721  -15.0021   20.3327 C   0  0  0  0  0  0  0  0  0  0  0  0
  -22.3454  -33.6308   21.2965 C   0  0  0  0  0  0  0  0  0  0  0  0
  -27.4504  -29.6522   23.8703 C   0  0  0  0  0  0  0  0  0  0  0  0
  -29.1008  -29.1809   21.4622 C   0  0  0  0  0  0  0  0  0  0  0  0
  -23.7295  -33.4990   20.6662 C   0  0  0  0  0  0  0  0  0  0  0  0
  -28.9866  -13.2284   17.4969 C   0  0  0  0  0  0  0  0  0  0  0  0
  -23.9665  -32.0684   20.1930 C   0  0  0  0  0  0  0  0  0  0  0  0
  -27.6923  -12.7023   18.1149 C   0  0  0  0  0  0  0  0  0  0  0  0
  -26.8913  -23.3905   22.1354 C   0  0  0  0  0  0  0  0  0  0  0  0
  -30.0922  -13.3777   18.5375 C   0  0  0  0  0  0  0  0  0  0  0  0
  -27.1514  -22.5766   20.8813 C   0  0  0  0  0  0  0  0  0  0  0  0
  -28.4138  -13.6850   20.3271 C   0  0  0  0  0  0  0  0  0  0  0  0
  -23.9192  -31.0838   21.3676 C   0  0  1  0  0  0  0  0  0  0  0  0
  -28.2142  -23.3419   22.8788 C   0  0  2  0  0  0  0  0  0  1  0  0
  -27.4495  -30.6230   22.6935 C   0  0  1  0  0  0  0  0  0  0  0  0
  -27.2655  -13.5672   19.3137 C   0  0  2  0  0  0  0  0  0  0  0  0
  -34.7684  -32.4603   20.9437 C   0  0  0  0  0  0  0  0  0  0  0  0
  -28.7264  -31.6168   18.3642 C   0  0  0  0  0  0  0  0  0  0  0  0
  -31.1844  -31.9355   18.0109 C   0  0  0  0  0  0  0  0  0  0  0  0
  -29.8549  -33.6959   19.1753 C   0  0  0  0  0  0  0  0  0  0  0  0
  -30.9958  -17.0728   21.6025 C   0  0  0  0  0  0  0  0  0  0  0  0
  -33.5588  -30.7003   24.0926 C   0  0  0  0  0  0  0  0  0  0  0  0
  -28.7329  -16.7021   20.6929 C   0  0  0  0  0  0  0  0  0  0  0  0
  -30.3497  -31.5232   20.3698 C   0  0  1  0  0  0  0  0  0  0  0  0
  -33.7460  -32.0182   21.9790 C   0  0  2  0  0  0  0  0  0  0  0  0
  -30.0192  -32.1710   18.9955 C   0  0  0  0  0  0  0  0  0  0  0  0
  -25.7512  -11.7307   19.9588 N   0  0  0  0  0  0  0  0  0  0  0  0
  -25.9938  -13.0525   19.9622 N   0  0  0  0  0  0  0  0  0  0  0  0
  -28.1812  -21.6293   21.2644 N   0  0  0  0  0  0  0  0  0  0  0  0
  -28.6613  -30.5233   21.8776 N   0  0  0  0  0  0  0  0  0  0  0  0
  -29.6460  -14.1676   19.6856 N   0  0  0  0  0  0  0  0  0  0  0  0
  -25.1092  -15.1335   20.6674 N   0  0  0  0  0  0  0  0  0  0  0  0
  -22.8996  -13.2420   23.1032 N   0  0  0  0  0  0  0  0  0  0  0  0
  -25.1546  -31.1347   22.1198 N   0  0  0  0  0  0  0  0  0  0  0  0
  -31.5542  -32.0484   21.0036 N   0  0  0  0  0  0  0  0  0  0  0  0
  -30.0730  -16.1698   20.9295 N   0  0  0  0  0  0  0  0  0  0  0  0
  -34.4414  -31.1846   23.0001 N   0  3  0  0  0  0  0  0  0  0  0  0
  -29.7918  -21.5339   23.0219 O   0  0  0  0  0  0  0  0  0  0  0  0
  -21.7915  -13.4339   21.1047 O   0  0  0  0  0  0  0  0  0  0  0  0
  -26.3957  -29.6606   20.8125 O   0  0  0  0  0  0  0  0  0  0  0  0
  -28.8890  -32.8368   21.6992 O   0  0  0  0  0  0  0  0  0  0  0  0
  -32.6689  -30.0203   21.1509 O   0  0  0  0  0  0  0  0  0  0  0  0
  -31.7778  -14.7244   20.3663 O   0  0  0  0  0  0  0  0  0  0  0  0
  -22.2130   -6.6318   21.3834 O   0  0  0  0  0  0  0  0  0  0  0  0
  -29.0716  -24.3998   22.5004 O   0  0  0  0  0  0  0  0  0  1  0  0
  -22.4297   -4.4585   26.4464 F   0  0  0  0  0  0  0  0  0  0  0  0
  -21.0816   -7.9419   23.5389 F   0  0  0  0  0  0  0  0  0  0  0  0
  -28.0117  -18.9389   22.6456 Cl  0  0  0  0  0  0  0  0  0  0  0  0
  1  2  1  0  0  0  0
  1  6  2  0  0  0  0
  2  7  2  0  0  0  0
  3  9  1  0  0  0  0
  3 10  2  0  0  0  0
  4 11  2  0  0  0  0
  4 18  1  0  0  0  0
  5 12  1  0  0  0  0
  5 18  2  0  0  0  0
  6 20  1  0  0  0  0
  7 22  1  0  0  0  0
  8 13  2  0  0  0  0
  8 21  1  0  0  0  0
  9 24  2  0  0  0  0
 10 25  1  0  0  0  0
 11 26  1  0  0  0  0
 12 26  2  0  0  0  0
 13 27  1  0  0  0  0
 14 15  2  0  0  0  0
 14 28  1  0  0  0  0
 15 29  1  0  0  0  0
 16 23  1  0  0  0  0
 16 27  2  0  0  0  0
 17 29  2  0  0  0  0
 17 30  1  0  0  0  0
 18 32  1  0  0  0  0
 19 32  1  0  0  0  0
 19 33  2  0  0  0  0
 19 35  1  0  0  0  0
 20 22  2  0  0  0  0
 20 40  1  0  0  0  0
 21 23  2  0  0  0  0
 21 41  1  0  0  0  0
 22 51  1  0  0  0  0
 23 42  1  0  0  0  0
 24 31  1  0  0  0  0
 24 61  1  0  0  0  0
 25 31  2  0  0  0  0
 25 67  1  0  0  0  0
 26 82  1  0  0  0  0
 27 83  1  0  0  0  0
 28 30  2  0  0  0  0
 28 82  1  0  0  0  0
 29 84  1  0  0  0  0
 30 85  1  0  0  0  0
 31 86  1  0  0  0  0
 32 65  2  0  0  0  0
 33 66  1  0  0  0  0
 33 70  1  0  0  0  0
 34 52  1  0  0  0  0
 34 67  1  0  0  0  0
 34 76  2  0  0  0  0
 35 71  1  0  0  0  0
 35 77  2  0  0  0  0
 36 53  1  0  0  0  0
 36 72  1  0  0  0  0
 36 78  2  0  0  0  0
 37 62  1  0  0  0  0
 37 68  1  0  0  0  0
 37 79  2  0  0  0  0
 38 63  1  0  0  0  0
 38 73  1  0  0  0  0
 38 80  2  0  0  0  0
 39 69  1  0  0  0  0
 39 74  1  0  0  0  0
 39 81  2  0  0  0  0
 40 43  1  0  0  0  0
 41 53  1  0  0  0  0
 42 68  1  0  0  0  0
 43 45  1  0  0  0  0
 44 46  1  0  0  0  0
 44 48  1  0  0  0  0
 45 51  1  0  0  0  0
 46 54  1  0  0  0  0
 47 49  1  0  0  0  0
 47 52  1  0  0  0  0
 48 69  1  0  0  0  0
 49 67  1  0  0  0  0
 50 54  1  0  0  0  0
 50 69  1  0  0  0  0
 51 72  1  0  0  0  0
 52 83  1  0  0  0  0
 53 68  1  0  0  0  0
 54 66  1  0  0  0  0
 55 63  1  0  0  0  0
 56 64  1  0  0  0  0
 57 64  1  0  0  0  0
 58 64  1  0  0  0  0
 59 74  1  0  0  0  0
 60 75  1  0  0  0  0
 61 74  1  0  0  0  0
 62 64  1  0  0  0  0
 62 73  1  0  0  0  0
 63 75  1  0  0  0  0
 65 66  1  0  0  0  0
M  CHG  1  75   1
M  ISO  4  39 100  52 101  74 100  83 101
M  END
> <Batch ID>
0026

> <Smiles>
CNC(C)C(=O)NC(C(=O)N1Cc2cc([101O:1][101CH:1]3CCN(c4cccc(C[100N:0](C)[100C:0](=O)N5CCCC(n6nc(-c7ccc(Oc8ccc(F)cc8F)cc7)c(C(N)=O)c6N)C5)c4Cl)C3=O)ccc2CC1C(=O)NC1CCCc2ccccc21)C(C)(C)C

> <Shape>
0.293

> <Color>
0.143

> <Negative vol penalty>
0.000

$$$$

  -OEChem-04042321253D

 84 93  0     1  0  0  0  0  0999 V2000
  -28.6414  -24.0914   17.0289 C   0  0  0  0  0  0  0  0  0  0  0  0
  -27.4649  -24.2254   17.7591 C   0  0  0  0  0  0  0  0  0  0  0  0
  -26.4580  -14.0749   21.0268 C   0  0  0  0  0  0  0  0  0  0  0  0
  -27.6457  -13.1776   19.1238 C   0  0  0  0  0  0  0  0  0  0  0  0
  -29.8007  -24.7404   17.4518 C   0  0  0  0  0  0  0  0  0  0  0  0
  -27.4472  -25.0078   18.9132 C   0  0  0  0  0  0  0  0  0  0  0  0
  -23.3877  -28.0258   19.1523 C   0  0  0  0  0  0  0  0  0  0  0  0
  -22.6346  -22.1316   19.2258 C   0  0  0  0  0  0  0  0  0  0  0  0
  -21.7020  -22.6898   20.1053 C   0  0  0  0  0  0  0  0  0  0  0  0
  -25.8386  -12.8405   21.2223 C   0  0  0  0  0  0  0  0  0  0  0  0
  -27.0263  -11.9431   19.3193 C   0  0  0  0  0  0  0  0  0  0  0  0
  -22.1820  -27.4418   19.5384 C   0  0  0  0  0  0  0  0  0  0  0  0
  -23.6725  -10.0261   22.0038 C   0  0  0  0  0  0  0  0  0  0  0  0
  -22.3014  -10.0201   22.2598 C   0  0  0  0  0  0  0  0  0  0  0  0
  -23.4339  -23.1308   21.7358 C   0  0  0  0  0  0  0  0  0  0  0  0
  -22.4901  -28.2974   21.7727 C   0  0  0  0  0  0  0  0  0  0  0  0
  -21.8996  -11.0926   20.1325 C   0  0  0  0  0  0  0  0  0  0  0  0
  -26.2073  -21.7940   19.7870 C   0  0  0  0  0  0  0  0  0  0  0  0
  -24.3925  -22.5720   20.8653 C   0  0  0  0  0  0  0  0  0  0  0  0
  -27.3615  -14.2434   19.9775 C   0  0  0  0  0  0  0  0  0  0  0  0
  -29.2193  -15.9561   20.3283 C   0  0  0  0  0  0  0  0  0  0  0  0
  -29.7948  -25.5389   18.6063 C   0  0  0  0  0  0  0  0  0  0  0  0
  -24.1603  -28.7420   20.0779 C   0  0  0  0  0  0  0  0  0  0  0  0
  -28.6078  -25.6671   19.3526 C   0  0  0  0  0  0  0  0  0  0  0  0
  -23.7039  -28.8917   21.3952 C   0  0  0  0  0  0  0  0  0  0  0  0
  -23.9861  -22.0873   19.6161 C   0  0  0  0  0  0  0  0  0  0  0  0
  -22.0943  -23.1851   21.3432 C   0  0  0  0  0  0  0  0  0  0  0  0
  -26.1227  -11.7746   20.3686 C   0  0  0  0  0  0  0  0  0  0  0  0
  -21.7344  -27.5752   20.8495 C   0  0  0  0  0  0  0  0  0  0  0  0
  -24.1572  -10.5654   20.8122 C   0  0  0  0  0  0  0  0  0  0  0  0
  -25.7906  -22.3750   20.9587 C   0  0  0  0  0  0  0  0  0  0  0  0
  -21.4149  -10.5533   21.3241 C   0  0  0  0  0  0  0  0  0  0  0  0
  -23.2708  -11.0986   19.8765 C   0  0  0  0  0  0  0  0  0  0  0  0
  -28.0012  -15.5185   19.7747 C   0  0  0  0  0  0  0  0  0  0  0  0
  -29.3855  -17.2260   19.8322 C   0  0  0  0  0  0  0  0  0  0  0  0
  -30.1201  -15.2754   21.2121 C   0  0  0  0  0  0  0  0  0  0  0  0
  -27.0788  -28.4143   21.2937 C   0  0  0  0  0  0  0  0  0  0  0  0
  -26.4110  -31.2821   22.6546 C   0  0  0  0  0  0  0  0  0  0  0  0
  -24.0497  -33.4988   23.7303 C   0  0  0  0  0  0  0  0  0  0  0  0
  -25.1434  -21.0752   17.6502 C   0  0  0  0  0  0  0  0  0  0  0  0
  -31.0844  -26.1828   19.0502 C   0  0  0  0  0  0  0  0  0  0  0  0
  -25.4454  -29.3885   19.6388 C   0  0  0  0  0  0  0  0  0  0  0  0
  -24.4861  -29.6678   22.4220 C   0  0  0  0  0  0  0  0  0  0  0  0
  -30.8879  -27.2957   20.0764 C   0  0  0  0  0  0  0  0  0  0  0  0
  -28.2809  -19.9655   16.0755 C   0  0  0  0  0  0  0  0  0  0  0  0
  -29.9269  -26.8471   21.1729 C   0  0  0  0  0  0  0  0  0  0  0  0
  -28.6251  -18.6965   16.8536 C   0  0  0  0  0  0  0  0  0  0  0  0
  -26.7767  -20.2170   16.0393 C   0  0  0  0  0  0  0  0  0  0  0  0
  -26.4817  -18.9822   18.1602 C   0  0  0  0  0  0  0  0  0  0  0  0
  -28.5425  -26.5270   20.5961 C   0  0  1  0  0  0  0  0  0  0  0  0
  -26.4031  -29.6602   20.7949 C   0  0  1  0  0  0  0  0  0  0  0  0
  -27.9930  -18.7238   18.2560 C   0  0  1  0  0  0  0  0  0  0  0  0
  -23.8091  -35.7399   24.8336 C   0  0  0  0  0  0  0  0  0  0  0  0
  -27.1324  -30.0332   25.3434 C   0  0  0  0  0  0  0  0  0  0  0  0
  -25.9876  -31.9566   26.4652 C   0  0  0  0  0  0  0  0  0  0  0  0
  -27.9766  -32.3643   25.0160 C   0  0  0  0  0  0  0  0  0  0  0  0
  -22.6253  -34.6257   21.3936 C   0  0  0  0  0  0  0  0  0  0  0  0
  -19.3943  -25.3961   22.6035 C   0  0  0  0  0  0  0  0  0  0  0  0
  -19.8598  -24.2123   21.7643 C   0  0  0  0  0  0  0  0  0  0  0  0
  -20.3737  -26.5638   22.5800 C   0  0  0  0  0  0  0  0  0  1  0  0
  -25.7746  -31.7292   23.9485 C   0  0  1  0  0  0  0  0  0  0  0  0
  -23.8972  -34.9933   23.5116 C   0  0  2  0  0  0  0  0  0  0  0  0
  -26.7038  -31.5045   25.1746 C   0  0  0  0  0  0  0  0  0  0  0  0
  -27.4336  -16.4360   18.9872 N   0  0  0  0  0  0  0  0  0  0  0  0
  -25.1141  -21.5776   18.9657 N   0  0  0  0  0  0  0  0  0  0  0  0
  -28.2989  -17.4628   19.0425 N   0  0  0  0  0  0  0  0  0  0  0  0
  -25.7394  -30.2760   21.9458 N   0  0  0  0  0  0  0  0  0  0  0  0
  -26.1980  -20.2006   17.3820 N   0  0  0  0  0  0  0  0  0  0  0  0
  -30.3535  -18.1521   19.9987 N   0  0  0  0  0  0  0  0  0  0  0  0
  -29.7969  -13.9755   21.6243 N   0  0  0  0  0  0  0  0  0  0  0  0
  -21.1333  -23.7434   22.2135 N   0  0  0  0  0  0  0  0  0  0  0  0
  -27.8113  -27.7473   20.3303 N   0  0  0  0  0  0  0  0  0  0  0  0
  -25.3748  -33.1179   23.7482 N   0  0  0  0  0  0  0  0  0  0  0  0
  -22.6624  -35.2787   22.7275 N   0  3  0  0  0  0  0  0  0  0  0  0
  -31.1721  -15.8106   21.6370 O   0  0  0  0  0  0  0  0  0  0  0  0
  -26.9468  -28.0835   22.4662 O   0  0  0  0  0  0  0  0  0  0  0  0
  -27.4615  -31.8113   22.2829 O   0  0  0  0  0  0  0  0  0  0  0  0
  -23.0895  -32.7454   23.8748 O   0  0  0  0  0  0  0  0  0  0  0  0
  -24.3067  -21.4880   16.8571 O   0  0  0  0  0  0  0  0  0  0  0  0
  -26.6056  -22.7069   21.9704 O   0  0  0  0  0  0  0  0  0  0  0  0
  -25.5187  -10.5699   20.5592 O   0  0  0  0  0  0  0  0  0  0  0  0
  -20.5382  -26.9959   21.2357 O   0  0  0  0  0  0  0  0  0  1  0  0
  -20.0981  -10.5460   21.5694 F   0  0  0  0  0  0  0  0  0  0  0  0
  -23.7304  -11.6170   18.7295 F   0  0  0  0  0  0  0  0  0  0  0  0
  1  2  1  0  0  0  0
  1  5  2  0  0  0  0
  2  6  2  0  0  0  0
  3 10  2  0  0  0  0
  3 20  1  0  0  0  0
  4 11  1  0  0  0  0
  4 20  2  0  0  0  0
  5 22  1  0  0  0  0
  6 24  1  0  0  0  0
  7 12  2  0  0  0  0
  7 23  1  0  0  0  0
  8  9  2  0  0  0  0
  8 26  1  0  0  0  0
  9 27  1  0  0  0  0
 10 28  1  0  0  0  0
 11 28  2  0  0  0  0
 12 29  1  0  0  0  0
 13 14  2  0  0  0  0
 13 30  1  0  0  0  0
 14 32  1  0  0  0  0
 15 19  1  0  0  0  0
 15 27  2  0  0  0  0
 16 25  1  0  0  0  0
 16 29  2  0  0  0  0
 17 32  2  0  0  0  0
 17 33  1  0  0  0  0
 18 31  2  0  0  0  0
 18 65  1  0  0  0  0
 19 26  2  0  0  0  0
 19 31  1  0  0  0  0
 20 34  1  0  0  0  0
 21 34  1  0  0  0  0
 21 35  2  0  0  0  0
 21 36  1  0  0  0  0
 22 24  2  0  0  0  0
 22 41  1  0  0  0  0
 23 25  2  0  0  0  0
 23 42  1  0  0  0  0
 24 50  1  0  0  0  0
 25 43  1  0  0  0  0
 26 65  1  0  0  0  0
 27 71  1  0  0  0  0
 28 81  1  0  0  0  0
 29 82  1  0  0  0  0
 30 33  2  0  0  0  0
 30 81  1  0  0  0  0
 31 80  1  0  0  0  0
 32 83  1  0  0  0  0
 33 84  1  0  0  0  0
 34 64  2  0  0  0  0
 35 66  1  0  0  0  0
 35 69  1  0  0  0  0
 36 70  1  0  0  0  0
 36 75  2  0  0  0  0
 37 51  1  0  0  0  0
 37 72  1  0  0  0  0
 37 76  2  0  0  0  0
 38 61  1  0  0  0  0
 38 67  1  0  0  0  0
 38 77  2  0  0  0  0
 39 62  1  0  0  0  0
 39 73  1  0  0  0  0
 39 78  2  0  0  0  0
 40 65  1  0  0  0  0
 40 68  1  0  0  0  0
 40 79  2  0  0  0  0
 41 44  1  0  0  0  0
 42 51  1  0  0  0  0
 43 67  1  0  0  0  0
 44 46  1  0  0  0  0
 45 47  1  0  0  0  0
 45 48  1  0  0  0  0
 46 50  1  0  0  0  0
 47 52  1  0  0  0  0
 48 68  1  0  0  0  0
 49 52  1  0  0  0  0
 49 68  1  0  0  0  0
 50 72  1  0  0  0  0
 51 67  1  0  0  0  0
 52 66  1  0  0  0  0
 53 62  1  0  0  0  0
 54 63  1  0  0  0  0
 55 63  1  0  0  0  0
 56 63  1  0  0  0  0
 57 74  1  0  0  0  0
 58 59  1  0  0  0  0
 58 60  1  0  0  0  0
 59 71  1  0  0  0  0
 60 82  1  0  0  0  0
 61 63  1  0  0  0  0
 61 73  1  0  0  0  0
 62 74  1  0  0  0  0
 64 66  1  0  0  0  0
M  CHG  1  74   1
M  ISO  4  40 100  60 101  65 100  82 101
M  END
> <Batch ID>
0026

> <Smiles>
CNC(C)C(=O)NC(C(=O)N1Cc2cc([101O:1][101CH2:1]CCNc3ccc4c(c3)C(=O)C[100N:0]4[100C:0](=O)N3CCCC(n4nc(-c5ccc(Oc6ccc(F)cc6F)cc5)c(C(N)=O)c4N)C3)ccc2CC1C(=O)NC1CCCc2ccccc21)C(C)(C)C

> <Shape>
0.304

> <Color>
0.071

> <Negative vol penalty>
0.000

$$$$

  -OEChem-04042321253D

 88 98  0     1  0  0  0  0  0999 V2000
  -16.7306  -30.2903   23.8349 C   0  0  0  0  0  0  0  0  0  0  0  0
  -17.9026  -30.8337   24.3512 C   0  0  0  0  0  0  0  0  0  0  0  0
  -34.9837  -25.1508   24.5939 C   0  0  0  0  0  0  0  0  0  0  0  0
  -26.0443  -19.9358   19.8612 C   0  0  0  0  0  0  0  0  0  0  0  0
  -27.1003  -19.5357   21.9970 C   0  0  0  0  0  0  0  0  0  0  0  0
  -16.7782  -29.1109   23.0928 C   0  0  0  0  0  0  0  0  0  0  0  0
  -19.1228  -30.1974   24.1266 C   0  0  0  0  0  0  0  0  0  0  0  0
  -26.0711  -31.6358   23.1421 C   0  0  0  0  0  0  0  0  0  0  0  0
  -34.0551  -25.3586   23.5741 C   0  0  0  0  0  0  0  0  0  0  0  0
  -25.9303  -18.5603   19.6598 C   0  0  0  0  0  0  0  0  0  0  0  0
  -26.9863  -18.1601   21.7957 C   0  0  0  0  0  0  0  0  0  0  0  0
  -27.3251  -31.2818   23.6380 C   0  0  0  0  0  0  0  0  0  0  0  0
  -26.6472  -14.5465   22.0063 C   0  0  0  0  0  0  0  0  0  0  0  0
  -26.1949  -13.7694   23.0728 C   0  0  0  0  0  0  0  0  0  0  0  0
  -34.5580  -25.0758   25.9201 C   0  0  0  0  0  0  0  0  0  0  0  0
  -27.2960  -29.2921   22.2743 C   0  0  0  0  0  0  0  0  0  0  0  0
  -24.1279  -15.0197   23.1070 C   0  0  0  0  0  0  0  0  0  0  0  0
  -26.6293  -20.4235   21.0298 C   0  0  0  0  0  0  0  0  0  0  0  0
  -25.8127  -22.6933   21.8598 C   0  0  0  0  0  0  0  0  0  0  0  0
  -18.0009  -28.4651   22.8508 C   0  0  0  0  0  0  0  0  0  0  0  0
  -25.4142  -30.8137   22.2152 C   0  0  0  0  0  0  0  0  0  0  0  0
  -19.1867  -29.0076   23.3817 C   0  0  0  0  0  0  0  0  0  0  0  0
  -26.0349  -29.6392   21.7662 C   0  0  0  0  0  0  0  0  0  0  0  0
  -32.2751  -25.4166   25.2067 C   0  0  0  0  0  0  0  0  0  0  0  0
  -32.7008  -25.4916   23.8804 C   0  0  0  0  0  0  0  0  0  0  0  0
  -26.4013  -17.6725   20.6270 C   0  0  0  0  0  0  0  0  0  0  0  0
  -27.9365  -30.1084   23.2063 C   0  0  0  0  0  0  0  0  0  0  0  0
  -25.8398  -15.5602   21.4903 C   0  0  0  0  0  0  0  0  0  0  0  0
  -24.9353  -14.0060   23.6231 C   0  0  0  0  0  0  0  0  0  0  0  0
  -24.5802  -15.7967   22.0406 C   0  0  0  0  0  0  0  0  0  0  0  0
  -33.2038  -25.2087   26.2265 C   0  0  0  0  0  0  0  0  0  0  0  0
  -26.7479  -21.8443   21.2381 C   0  0  0  0  0  0  0  0  0  0  0  0
  -26.3913  -23.9379   21.8079 C   0  0  0  0  0  0  0  0  0  0  0  0
  -24.5353  -22.3845   22.4330 C   0  0  0  0  0  0  0  0  0  0  0  0
  -22.6826  -29.1883   22.1990 C   0  0  0  0  0  0  0  0  0  0  0  0
  -23.4785  -28.6410   19.1023 C   0  0  0  0  0  0  0  0  0  0  0  0
  -25.9261  -28.4334   16.7331 C   0  0  0  0  0  0  0  0  0  0  0  0
  -32.0609  -25.7930   21.4626 C   0  0  0  0  0  0  0  0  0  0  0  0
  -17.9967  -27.1670   22.0829 C   0  0  0  0  0  0  0  0  0  0  0  0
  -24.0737  -31.2232   21.6696 C   0  0  0  0  0  0  0  0  0  0  0  0
  -25.3807  -28.7325   20.7571 C   0  0  0  0  0  0  0  0  0  0  0  0
  -19.3757  -26.7564   21.5730 C   0  0  0  0  0  0  0  0  0  0  0  0
  -30.0421  -28.9067   27.2447 C   0  0  0  0  0  0  0  0  0  0  0  0
  -29.4308  -26.5481   19.1845 C   0  0  0  0  0  0  0  0  0  0  0  0
  -28.6470  -24.8943   25.6006 C   0  0  0  0  0  0  0  0  0  0  0  0
  -20.4182  -26.9022   22.6769 C   0  0  0  0  0  0  0  0  0  0  0  0
  -28.3568  -25.5087   19.5133 C   0  0  0  0  0  0  0  0  0  0  0  0
  -29.8850  -29.7370   25.9766 C   0  0  0  0  0  0  0  0  0  0  0  0
  -30.8048  -27.6092   26.9673 C   0  0  0  0  0  0  0  0  0  0  0  0
  -28.8152  -26.1898   26.3691 C   0  0  0  0  0  0  0  0  0  0  0  0
  -29.8943  -27.6278   24.5700 C   0  0  0  0  0  0  0  0  0  0  0  0
  -30.0661  -24.3570   25.5391 C   0  0  0  0  0  0  0  0  0  0  0  0
  -30.8385  -25.9671   19.3061 C   0  0  0  0  0  0  0  0  0  0  0  0
  -30.0578  -24.2745   20.9170 C   0  0  0  0  0  0  0  0  0  0  0  0
  -20.5327  -28.3601   23.1385 C   0  0  1  0  0  0  0  0  0  0  0  0
  -23.2697  -30.0502   21.1172 C   0  0  1  0  0  0  0  0  0  0  0  0
  -28.6254  -24.8310   20.8713 C   0  0  2  0  0  0  0  0  0  0  0  0
  -29.1850  -28.9546   24.8695 C   0  0  2  0  0  0  0  0  0  1  0  0
  -30.1572  -26.7797   25.8369 C   0  0  1  0  0  0  0  0  0  0  0  0
  -26.2743  -27.9311   14.2992 C   0  0  0  0  0  0  0  0  0  0  0  0
  -23.1296  -25.6633   19.6694 C   0  0  0  0  0  0  0  0  0  0  0  0
  -24.3813  -25.1850   17.5546 C   0  0  0  0  0  0  0  0  0  0  0  0
  -22.2157  -26.4201   17.4679 C   0  0  0  0  0  0  0  0  0  0  0  0
  -27.0194  -31.1340   16.2130 C   0  0  0  0  0  0  0  0  0  0  0  0
  -24.2703  -27.5827   18.3729 C   0  0  1  0  0  0  0  0  0  0  0  0
  -26.0269  -29.0166   15.3352 C   0  0  2  0  0  0  0  0  0  0  0  0
  -23.5109  -26.2287   18.2867 C   0  0  0  0  0  0  0  0  0  0  0  0
  -27.8377  -22.4947   20.8217 N   0  0  0  0  0  0  0  0  0  0  0  0
  -27.5909  -23.7656   21.1823 N   0  0  0  0  0  0  0  0  0  0  0  0
  -30.9269  -25.5489   25.5025 N   0  0  3  0  0  0  0  0  0  0  0  0
  -24.0675  -29.1729   20.2581 N   0  0  0  0  0  0  0  0  0  0  0  0
  -31.0216  -25.3457   20.6196 N   0  0  0  0  0  0  0  0  0  0  0  0
  -25.9857  -25.1521   22.2367 N   0  0  0  0  0  0  0  0  0  0  0  0
  -24.0929  -21.0550   22.4019 N   0  0  0  0  0  0  0  0  0  0  0  0
  -31.7786  -25.6998   22.8250 N   0  0  0  0  0  0  0  0  0  0  0  0
  -21.3020  -29.1326   22.1868 N   0  0  0  0  0  0  0  0  0  0  0  0
  -24.6203  -28.1551   17.0774 N   0  0  0  0  0  0  0  0  0  0  0  0
  -27.1455  -29.9987   15.2631 N   0  3  0  0  0  0  0  0  0  0  0  0
  -23.8006  -23.2643   22.9426 O   0  0  0  0  0  0  0  0  0  0  0  0
  -23.4272  -28.6150   22.9855 O   0  0  0  0  0  0  0  0  0  0  0  0
  -22.3811  -28.9883   18.6587 O   0  0  0  0  0  0  0  0  0  0  0  0
  -26.9079  -28.2404   17.4468 O   0  0  0  0  0  0  0  0  0  0  0  0
  -33.1123  -26.2520   21.0090 O   0  0  0  0  0  0  0  0  0  0  0  0
  -26.2900  -16.3302   20.4310 O   0  0  0  0  0  0  0  0  0  0  0  0
  -29.1673  -29.7581   23.6921 O   0  0  0  0  0  0  0  0  0  1  0  0
  -24.5005  -13.2588   24.6462 F   0  0  0  0  0  0  0  0  0  0  0  0
  -23.7996  -16.7684   21.5483 F   0  0  0  0  0  0  0  0  0  0  0  0
  -32.7237  -25.1100   27.8836 Cl  0  0  0  0  0  0  0  0  0  0  0  0
  1  2  1  0  0  0  0
  1  6  2  0  0  0  0
  2  7  2  0  0  0  0
  3  9  2  0  0  0  0
  3 15  1  0  0  0  0
  4 10  2  0  0  0  0
  4 18  1  0  0  0  0
  5 11  1  0  0  0  0
  5 18  2  0  0  0  0
  6 20  1  0  0  0  0
  7 22  1  0  0  0  0
  8 12  2  0  0  0  0
  8 21  1  0  0  0  0
  9 25  1  0  0  0  0
 10 26  1  0  0  0  0
 11 26  2  0  0  0  0
 12 27  1  0  0  0  0
 13 14  2  0  0  0  0
 13 28  1  0  0  0  0
 14 29  1  0  0  0  0
 15 31  2  0  0  0  0
 16 23  1  0  0  0  0
 16 27  2  0  0  0  0
 17 29  2  0  0  0  0
 17 30  1  0  0  0  0
 18 32  1  0  0  0  0
 19 32  1  0  0  0  0
 19 33  2  0  0  0  0
 19 34  1  0  0  0  0
 20 22  2  0  0  0  0
 20 39  1  0  0  0  0
 21 23  2  0  0  0  0
 21 40  1  0  0  0  0
 22 55  1  0  0  0  0
 23 41  1  0  0  0  0
 24 25  2  0  0  0  0
 24 31  1  0  0  0  0
 24 70  1  0  0  0  0
 25 75  1  0  0  0  0
 26 84  1  0  0  0  0
 27 85  1  0  0  0  0
 28 30  2  0  0  0  0
 28 84  1  0  0  0  0
 29 86  1  0  0  0  0
 30 87  1  0  0  0  0
 31 88  1  0  0  0  0
 32 68  2  0  0  0  0
 33 69  1  0  0  0  0
 33 73  1  0  0  0  0
 34 74  1  0  0  0  0
 34 79  2  0  0  0  0
 35 56  1  0  0  0  0
 35 76  1  0  0  0  0
 35 80  2  0  0  0  0
 36 65  1  0  0  0  0
 36 71  1  0  0  0  0
 36 81  2  0  0  0  0
 37 66  1  0  0  0  0
 37 77  1  0  0  0  0
 37 82  2  0  0  0  0
 38 72  1  0  0  0  0
 38 75  1  0  0  0  0
 38 83  2  0  0  0  0
 39 42  1  0  0  0  0
 40 56  1  0  0  0  0
 41 71  1  0  0  0  0
 42 46  1  0  0  0  0
 43 48  1  0  0  0  0
 43 49  1  0  0  0  0
 44 47  1  0  0  0  0
 44 53  1  0  0  0  0
 45 50  1  0  0  0  0
 45 52  1  0  0  0  0
 46 55  1  0  0  0  0
 47 57  1  0  0  0  0
 48 58  1  0  0  0  0
 49 59  1  0  0  0  0
 50 59  1  0  0  0  0
 51 58  1  0  0  0  0
 51 59  1  0  0  0  0
 52 70  1  0  0  0  0
 53 72  1  0  0  0  0
 54 57  1  0  0  0  0
 54 72  1  0  0  0  0
 55 76  1  0  0  0  0
 56 71  1  0  0  0  0
 57 69  1  0  0  0  0
 58 85  1  0  0  0  0
 59 70  1  0  0  0  0
 60 66  1  0  0  0  0
 61 67  1  0  0  0  0
 62 67  1  0  0  0  0
 63 67  1  0  0  0  0
 64 78  1  0  0  0  0
 65 67  1  0  0  0  0
 65 77  1  0  0  0  0
 66 78  1  0  0  0  0
 68 69  1  0  0  0  0
M  CHG  1  78   1
M  ISO  4  38 100  58 101  75 100  85 101
M  END
> <Batch ID>
0026

> <Smiles>
CNC(C)C(=O)NC(C(=O)N1Cc2cc([101O:1][101CH:1]3CCCC4(CCCN4c4c(Cl)cccc4[100NH:0][100C:0](=O)N4CCCC(n5nc(-c6ccc(Oc7ccc(F)cc7F)cc6)c(C(N)=O)c5N)C4)C3)ccc2CC1C(=O)NC1CCCc2ccccc21)C(C)(C)C

> <Shape>
0.192

> <Color>
0.091

> <Negative vol penalty>
0.000

$$$$

  -OEChem-04042321253D

 91101  0     1  0  0  0  0  0999 V2000
  -16.4989  -28.6913   23.3405 C   0  0  0  0  0  0  0  0  0  0  0  0
  -17.4459  -28.2070   22.4438 C   0  0  0  0  0  0  0  0  0  0  0  0
  -30.2613  -15.6038   19.7258 C   0  0  0  0  0  0  0  0  0  0  0  0
  -22.9067  -13.9060   22.3817 C   0  0  0  0  0  0  0  0  0  0  0  0
  -23.8948  -16.0160   23.0206 C   0  0  0  0  0  0  0  0  0  0  0  0
  -16.8712  -29.6187   24.3126 C   0  0  0  0  0  0  0  0  0  0  0  0
  -18.7657  -28.6507   22.5181 C   0  0  0  0  0  0  0  0  0  0  0  0
  -23.8165  -25.3946   21.3376 C   0  0  0  0  0  0  0  0  0  0  0  0
  -29.7972  -16.6654   18.9492 C   0  0  0  0  0  0  0  0  0  0  0  0
  -21.8106  -14.1706   23.2028 C   0  0  0  0  0  0  0  0  0  0  0  0
  -22.7987  -16.2807   23.8417 C   0  0  0  0  0  0  0  0  0  0  0  0
  -24.6348  -25.3078   20.2122 C   0  0  0  0  0  0  0  0  0  0  0  0
  -18.9963  -16.0404   23.0747 C   0  0  0  0  0  0  0  0  0  0  0  0
  -17.7245  -15.7944   22.5574 C   0  0  0  0  0  0  0  0  0  0  0  0
  -30.6185  -15.8176   21.0572 C   0  0  0  0  0  0  0  0  0  0  0  0
  -26.1296  -26.9344   21.1812 C   0  0  0  0  0  0  0  0  0  0  0  0
  -30.0475  -18.1546   20.8351 C   0  0  0  0  0  0  0  0  0  0  0  0
  -17.3089  -14.2094   24.3329 C   0  0  0  0  0  0  0  0  0  0  0  0
  -23.9488  -14.8286   22.2907 C   0  0  0  0  0  0  0  0  0  0  0  0
  -25.9713  -13.4686   21.5373 C   0  0  0  0  0  0  0  0  0  0  0  0
  -18.1984  -30.0667   24.4051 C   0  0  0  0  0  0  0  0  0  0  0  0
  -24.1433  -26.2615   22.3902 C   0  0  0  0  0  0  0  0  0  0  0  0
  -19.1559  -29.5860   23.4916 C   0  0  0  0  0  0  0  0  0  0  0  0
  -25.3151  -27.0285   22.3200 C   0  0  0  0  0  0  0  0  0  0  0  0
  -29.6903  -17.9408   19.5038 C   0  0  0  0  0  0  0  0  0  0  0  0
  -21.7566  -15.3580   23.9327 C   0  0  0  0  0  0  0  0  0  0  0  0
  -25.7901  -26.0799   20.1326 C   0  0  0  0  0  0  0  0  0  0  0  0
  -19.4244  -15.3708   24.2211 C   0  0  0  0  0  0  0  0  0  0  0  0
  -16.8807  -14.8790   23.1865 C   0  0  0  0  0  0  0  0  0  0  0  0
  -18.5807  -14.4554   24.8501 C   0  0  0  0  0  0  0  0  0  0  0  0
  -30.5116  -17.0930   21.6118 C   0  0  0  0  0  0  0  0  0  0  0  0
  -25.0816  -14.5556   21.4431 C   0  0  0  0  0  0  0  0  0  0  0  0
  -26.8632  -13.6651   20.5114 C   0  0  0  0  0  0  0  0  0  0  0  0
  -25.9899  -12.3788   22.4687 C   0  0  0  0  0  0  0  0  0  0  0  0
  -22.7566  -28.7904   23.7264 C   0  0  0  0  0  0  0  0  0  0  0  0
  -25.2083  -28.5328   25.8348 C   0  0  0  0  0  0  0  0  0  0  0  0
  -28.1245  -27.9206   27.4983 C   0  0  0  0  0  0  0  0  0  0  0  0
  -28.2978  -18.8776   17.6398 C   0  0  0  0  0  0  0  0  0  0  0  0
  -18.5433  -31.1056   25.4426 C   0  0  0  0  0  0  0  0  0  0  0  0
  -23.2642  -26.3237   23.6091 C   0  0  0  0  0  0  0  0  0  0  0  0
  -25.7213  -27.9596   23.4320 C   0  0  0  0  0  0  0  0  0  0  0  0
  -20.0429  -31.2423   25.6927 C   0  0  0  0  0  0  0  0  0  0  0  0
  -27.2451  -15.6454   16.1777 C   0  0  0  0  0  0  0  0  0  0  0  0
  -28.5618  -27.2406   16.9713 C   0  0  0  0  0  0  0  0  0  0  0  0
  -20.8008  -31.3087   24.3705 C   0  0  0  0  0  0  0  0  0  0  0  0
  -31.1887  -22.0819   17.5736 C   0  0  0  0  0  0  0  0  0  0  0  0
  -29.6050  -22.7446   19.4284 C   0  0  0  0  0  0  0  0  0  0  0  0
  -26.5708  -14.9439   17.3553 C   0  0  0  0  0  0  0  0  0  0  0  0
  -30.5114  -20.7141   17.4811 C   0  0  0  0  0  0  0  0  0  0  0  0
  -28.9255  -21.3777   19.3397 C   0  0  0  0  0  0  0  0  0  0  0  0
  -27.3772  -26.6105   16.2613 C   0  0  0  0  0  0  0  0  0  0  0  0
  -27.1370  -17.1634   16.2854 C   0  0  0  0  0  0  0  0  0  0  0  0
  -26.9881  -17.0057   18.7541 C   0  0  0  0  0  0  0  0  0  0  0  0
  -29.5352  -26.0894   17.0880 C   0  0  0  0  0  0  0  0  0  0  0  0
  -20.6029  -30.0246   23.5561 C   0  0  1  0  0  0  0  0  0  0  0  0
  -23.4233  -27.6216   24.3950 C   0  0  1  0  0  0  0  0  0  0  0  0
  -30.2586  -23.1799   18.1090 C   0  0  0  0  0  0  0  0  0  0  0  0
  -27.1184  -15.4765   18.6897 C   0  0  1  0  0  0  0  0  0  0  0  0
  -29.8860  -20.3079   18.8172 C   0  0  0  0  0  0  0  0  0  0  0  0
  -27.2646  -25.2055   16.8528 C   0  0  2  0  0  0  0  0  0  0  0  0
  -29.5198  -28.7665   29.4049 C   0  0  0  0  0  0  0  0  0  0  0  0
  -26.1407  -30.8718   24.1115 C   0  0  0  0  0  0  0  0  0  0  0  0
  -28.1346  -31.0903   25.6098 C   0  0  0  0  0  0  0  0  0  0  0  0
  -25.8405  -31.4154   26.5340 C   0  0  0  0  0  0  0  0  0  0  0  0
  -27.9043  -25.3517   28.9514 C   0  0  0  0  0  0  0  0  0  0  0  0
  -29.2132  -23.5926   17.0692 C   0  0  0  0  0  0  0  0  0  0  0  0
  -26.2248  -25.1017   17.9594 C   0  0  0  0  0  0  0  0  0  1  0  0
  -26.6099  -29.0873   25.9175 C   0  0  1  0  0  0  0  0  0  0  0  0
  -28.4316  -27.7930   28.9795 C   0  0  2  0  0  0  0  0  0  0  0  0
  -26.6759  -30.5916   25.5300 C   0  0  0  0  0  0  0  0  0  0  0  0
  -25.3811  -15.3814   20.4370 N   0  0  0  0  0  0  0  0  0  0  0  0
  -26.4690  -14.8132   19.8896 N   0  0  0  0  0  0  0  0  0  0  0  0
  -24.8256  -27.9899   24.6000 N   0  0  0  0  0  0  0  0  0  0  0  0
  -27.6059  -17.6503   17.5837 N   0  0  0  0  0  0  0  0  0  0  0  0
  -27.9383  -12.9661   20.0896 N   0  0  0  0  0  0  0  0  0  0  0  0
  -26.7201  -12.5268   23.6558 N   0  0  0  0  0  0  0  0  0  0  0  0
  -21.4318  -28.9606   24.0806 N   0  0  0  0  0  0  0  0  0  0  0  0
  -27.0851  -28.7963   27.2658 N   0  0  0  0  0  0  0  0  0  0  0  0
  -29.2111  -19.0380   18.6992 N   0  0  0  0  0  0  0  0  0  0  0  0
  -28.6432  -24.9235   17.4451 N   0  3  1  0  0  0  0  0  0  0  0  0
  -28.8879  -26.4102   29.2967 N   0  3  0  0  0  0  0  0  0  0  0  0
  -25.3905  -11.2994   22.2471 O   0  0  0  0  0  0  0  0  0  0  0  0
  -23.3971  -29.4872   22.9480 O   0  0  0  0  0  0  0  0  0  0  0  0
  -24.4821  -28.5732   26.8312 O   0  0  0  0  0  0  0  0  0  0  0  0
  -28.7471  -27.3077   26.6338 O   0  0  0  0  0  0  0  0  0  0  0  0
  -28.0771  -19.7905   16.8344 O   0  0  0  0  0  0  0  0  0  0  0  0
  -20.6871  -15.6167   24.7338 O   0  0  0  0  0  0  0  0  0  0  0  0
  -26.5903  -25.9976   19.0350 O   0  0  0  0  0  0  0  0  0  1  0  0
  -15.6589  -14.6440   22.6905 F   0  0  0  0  0  0  0  0  0  0  0  0
  -18.9860  -13.8100   25.9524 F   0  0  0  0  0  0  0  0  0  0  0  0
  -30.9523  -17.3570   23.2544 Cl  0  0  0  0  0  0  0  0  0  0  0  0
  1  2  1  0  0  0  0
  1  6  2  0  0  0  0
  2  7  2  0  0  0  0
  3  9  2  0  0  0  0
  3 15  1  0  0  0  0
  4 10  2  0  0  0  0
  4 19  1  0  0  0  0
  5 11  1  0  0  0  0
  5 19  2  0  0  0  0
  6 21  1  0  0  0  0
  7 23  1  0  0  0  0
  8 12  2  0  0  0  0
  8 22  1  0  0  0  0
  9 25  1  0  0  0  0
 10 26  1  0  0  0  0
 11 26  2  0  0  0  0
 12 27  1  0  0  0  0
 13 14  2  0  0  0  0
 13 28  1  0  0  0  0
 14 29  1  0  0  0  0
 15 31  2  0  0  0  0
 16 24  1  0  0  0  0
 16 27  2  0  0  0  0
 17 25  2  0  0  0  0
 17 31  1  0  0  0  0
 18 29  2  0  0  0  0
 18 30  1  0  0  0  0
 19 32  1  0  0  0  0
 20 32  1  0  0  0  0
 20 33  2  0  0  0  0
 20 34  1  0  0  0  0
 21 23  2  0  0  0  0
 21 39  1  0  0  0  0
 22 24  2  0  0  0  0
 22 40  1  0  0  0  0
 23 55  1  0  0  0  0
 24 41  1  0  0  0  0
 25 79  1  0  0  0  0
 26 87  1  0  0  0  0
 27 88  1  0  0  0  0
 28 30  2  0  0  0  0
 28 87  1  0  0  0  0
 29 89  1  0  0  0  0
 30 90  1  0  0  0  0
 31 91  1  0  0  0  0
 32 71  2  0  0  0  0
 33 72  1  0  0  0  0
 33 75  1  0  0  0  0
 34 76  1  0  0  0  0
 34 82  2  0  0  0  0
 35 56  1  0  0  0  0
 35 77  1  0  0  0  0
 35 83  2  0  0  0  0
 36 68  1  0  0  0  0
 36 73  1  0  0  0  0
 36 84  2  0  0  0  0
 37 69  1  0  0  0  0
 37 78  1  0  0  0  0
 37 85  2  0  0  0  0
 38 74  1  0  0  0  0
 38 79  1  0  0  0  0
 38 86  2  0  0  0  0
 39 42  1  0  0  0  0
 40 56  1  0  0  0  0
 41 73  1  0  0  0  0
 42 45  1  0  0  0  0
 43 48  1  0  0  0  0
 43 52  1  0  0  0  0
 44 51  1  0  0  0  0
 44 54  1  0  0  0  0
 45 55  1  0  0  0  0
 46 49  1  0  0  0  0
 46 57  1  0  0  0  0
 47 50  1  0  0  0  0
 47 57  1  0  0  0  0
 48 58  1  0  0  0  0
 49 59  1  0  0  0  0
 50 59  1  0  0  0  0
 51 60  1  0  0  0  0
 52 74  1  0  0  0  0
 53 58  1  0  0  0  0
 53 74  1  0  0  0  0
 54 80  1  0  0  0  0
 55 77  1  0  0  0  0
 56 73  1  0  0  0  0
 57 66  1  0  0  0  0
 58 72  1  0  0  0  0
 59 79  1  0  0  0  0
 60 67  1  0  0  0  0
 60 80  1  0  0  0  0
 61 69  1  0  0  0  0
 62 70  1  0  0  0  0
 63 70  1  0  0  0  0
 64 70  1  0  0  0  0
 65 81  1  0  0  0  0
 66 80  1  0  0  0  0
 67 88  1  0  0  0  0
 68 70  1  0  0  0  0
 68 78  1  0  0  0  0
 69 81  1  0  0  0  0
 71 72  1  0  0  0  0
M  CHG  2  80   1  81   1
M  ISO  4  38 100  67 101  79 100  88 101
M  END
> <Batch ID>
0026

> <Smiles>
CNC(C)C(=O)NC(C(=O)N1Cc2cc([101O:1][101CH2:1]C3CCCN3CC3CCC([100N:0](c4cccc(Cl)c4)[100C:0](=O)N4CCCC(n5nc(-c6ccc(Oc7ccc(F)cc7F)cc6)c(C(N)=O)c5N)C4)CC3)ccc2CC1C(=O)NC1CCCc2ccccc21)C(C)(C)C

> <Shape>
0.217

> <Color>
0.064

> <Negative vol penalty>
0.000

$$$$

  -OEChem-04042321253D

 90 99  0     1  0  0  0  0  0999 V2000
  -22.3043  -22.5588   15.1860 C   0  0  0  0  0  0  0  0  0  0  0  0
  -22.5741  -21.3576   15.8340 C   0  0  0  0  0  0  0  0  0  0  0  0
  -26.2765  -28.5927   19.0056 C   0  0  0  0  0  0  0  0  0  0  0  0
  -25.9703  -27.6255   21.1982 C   0  0  0  0  0  0  0  0  0  0  0  0
  -22.4172  -23.7637   15.8783 C   0  0  0  0  0  0  0  0  0  0  0  0
  -22.9581  -21.3609   17.1745 C   0  0  0  0  0  0  0  0  0  0  0  0
  -20.5540  -17.8285   19.8925 C   0  0  0  0  0  0  0  0  0  0  0  0
  -25.3104  -29.5561   19.2956 C   0  0  0  0  0  0  0  0  0  0  0  0
  -25.0042  -28.5889   21.4883 C   0  0  0  0  0  0  0  0  0  0  0  0
  -21.0074  -16.5154   19.7733 C   0  0  0  0  0  0  0  0  0  0  0  0
  -21.7437  -29.1388   20.7829 C   0  0  0  0  0  0  0  0  0  0  0  0
  -20.5633  -28.7106   21.3901 C   0  0  0  0  0  0  0  0  0  0  0  0
  -22.2223  -16.7534   21.8437 C   0  0  0  0  0  0  0  0  0  0  0  0
  -28.6620  -15.9977   19.8122 C   0  0  0  0  0  0  0  0  0  0  0  0
  -29.9366  -16.2674   22.2791 C   0  0  0  0  0  0  0  0  0  0  0  0
  -21.0162  -30.1440   23.2815 C   0  0  0  0  0  0  0  0  0  0  0  0
  -26.6064  -27.6273   19.9568 C   0  0  0  0  0  0  0  0  0  0  0  0
  -28.9894  -26.7195   19.8901 C   0  0  0  0  0  0  0  0  0  0  0  0
  -22.7934  -23.7811   17.2306 C   0  0  0  0  0  0  0  0  0  0  0  0
  -20.9409  -18.6187   20.9844 C   0  0  0  0  0  0  0  0  0  0  0  0
  -23.0774  -22.5673   17.8852 C   0  0  0  0  0  0  0  0  0  0  0  0
  -21.7705  -18.0753   21.9757 C   0  0  0  0  0  0  0  0  0  0  0  0
  -29.6978  -16.9192   19.9649 C   0  0  0  0  0  0  0  0  0  0  0  0
  -28.9006  -15.3459   22.1263 C   0  0  0  0  0  0  0  0  0  0  0  0
  -28.2633  -15.2111   20.8929 C   0  0  0  0  0  0  0  0  0  0  0  0
  -24.6743  -29.5543   20.5370 C   0  0  0  0  0  0  0  0  0  0  0  0
  -21.8440  -15.9786   20.7475 C   0  0  0  0  0  0  0  0  0  0  0  0
  -22.5605  -30.0696   21.4250 C   0  0  0  0  0  0  0  0  0  0  0  0
  -20.1995  -29.2132   22.6394 C   0  0  0  0  0  0  0  0  0  0  0  0
  -30.3352  -17.0540   21.1983 C   0  0  0  0  0  0  0  0  0  0  0  0
  -22.1967  -30.5722   22.6743 C   0  0  0  0  0  0  0  0  0  0  0  0
  -27.6038  -26.6315   19.6576 C   0  0  0  0  0  0  0  0  0  0  0  0
  -29.4907  -25.5248   19.4340 C   0  0  0  0  0  0  0  0  0  0  0  0
  -24.1550  -13.2437   20.4559 C   0  0  0  0  0  0  0  0  0  0  0  0
  -29.7550  -27.7858   20.4669 C   0  0  0  0  0  0  0  0  0  0  0  0
  -25.3100  -13.2185   19.7627 C   0  0  0  0  0  0  0  0  0  0  0  0
  -22.5697  -21.3265   21.3284 C   0  0  0  0  0  0  0  0  0  0  0  0
  -21.6926  -21.0038   24.4346 C   0  0  0  0  0  0  0  0  0  0  0  0
  -20.7172  -18.9382   26.9701 C   0  0  0  0  0  0  0  0  0  0  0  0
  -29.2704  -20.0631   19.1737 C   0  0  0  0  0  0  0  0  0  0  0  0
  -22.9478  -25.1114   17.9241 C   0  0  0  0  0  0  0  0  0  0  0  0
  -20.4217  -20.0246   21.1121 C   0  0  0  0  0  0  0  0  0  0  0  0
  -22.1984  -18.8754   23.1779 C   0  0  0  0  0  0  0  0  0  0  0  0
  -22.9969  -25.0029   19.4460 C   0  0  0  0  0  0  0  0  0  0  0  0
  -28.4512  -12.8161   24.8301 C   0  0  0  0  0  0  0  0  0  0  0  0
  -27.3503  -13.8069   25.1497 C   0  0  0  0  0  0  0  0  0  0  0  0
  -27.3066  -21.8570   16.7196 C   0  0  0  0  0  0  0  0  0  0  0  0
  -23.9472  -23.8881   19.8713 C   0  0  0  0  0  0  0  0  0  0  0  0
  -27.3262  -23.2754   17.2922 C   0  0  0  0  0  0  0  0  0  0  0  0
  -29.3928  -13.6311   23.9509 C   0  0  0  0  0  0  0  0  0  0  0  0
  -27.1760  -14.5527   23.8316 C   0  0  0  0  0  0  0  0  0  0  0  0
  -27.2157  -20.8140   17.8295 C   0  0  0  0  0  0  0  0  0  0  0  0
  -28.3087  -22.3325   19.4336 C   0  0  0  0  0  0  0  0  0  0  0  0
  -23.4726  -22.5281   19.3455 C   0  0  1  0  0  0  0  0  0  0  0  0
  -21.2940  -20.9053   22.0013 C   0  0  1  0  0  0  0  0  0  0  0  0
  -28.4225  -23.4325   18.3625 C   0  0  2  0  0  0  0  0  0  0  0  0
  -25.7434  -11.9597   19.0560 C   0  0  0  0  0  0  0  0  0  0  0  0
  -20.1101  -18.9589   29.4049 C   0  0  0  0  0  0  0  0  0  0  0  0
  -24.6428  -21.2723   25.1654 C   0  0  0  0  0  0  0  0  0  0  0  0
  -24.0943  -20.3519   27.4282 C   0  0  0  0  0  0  0  0  0  0  0  0
  -23.0772  -22.5027   26.6784 C   0  0  0  0  0  0  0  0  0  0  0  0
  -17.9909  -17.9274   26.4181 C   0  0  0  0  0  0  0  0  0  0  0  0
  -30.1199  -17.7606   18.8079 C   0  0  0  0  0  0  0  0  0  0  0  0
  -23.5642  -14.3998   21.1990 C   0  0  0  0  0  0  0  0  0  1  0  0
  -26.2665  -14.3770   19.6508 C   0  0  0  0  0  0  0  0  0  0  0  0
  -22.2872  -20.3328   25.6492 C   0  0  1  0  0  0  0  0  0  0  0  0
  -19.5882  -19.0457   27.9792 C   0  0  2  0  0  0  0  0  0  0  0  0
  -23.5190  -21.1002   26.2068 C   0  0  0  0  0  0  0  0  0  0  0  0
  -27.2476  -25.4726   19.0971 N   0  0  0  0  0  0  0  0  0  0  0  0
  -28.4167  -24.8215   18.9736 N   0  0  0  0  0  0  0  0  0  0  0  0
  -28.5152  -14.5616   23.2303 N   0  0  0  0  0  0  0  0  0  0  0  0
  -21.6695  -20.2472   23.2544 N   0  0  0  0  0  0  0  0  0  0  0  0
  -28.2980  -21.0074   18.8048 N   0  0  0  0  0  0  0  0  0  0  0  0
  -30.7409  -25.0180   19.3858 N   0  0  0  0  0  0  0  0  0  0  0  0
  -29.0819  -28.9427   20.8825 N   0  0  0  0  0  0  0  0  0  0  0  0
  -27.2319  -14.3006   20.7194 N   0  0  0  0  0  0  0  0  0  0  0  0
  -22.3807  -22.0272   20.1525 N   0  0  0  0  0  0  0  0  0  0  0  0
  -21.1962  -20.1787   26.6055 N   0  0  0  0  0  0  0  0  0  0  0  0
  -29.1861  -18.8309   18.5370 N   0  0  0  0  0  0  0  0  0  0  0  0
  -18.6020  -17.9477   27.7720 N   0  3  0  0  0  0  0  0  0  0  0  0
  -31.0012  -27.7213   20.5945 O   0  0  0  0  0  0  0  0  0  0  0  0
  -23.6458  -21.0385   21.8390 O   0  0  0  0  0  0  0  0  0  0  0  0
  -21.2580  -22.1542   24.5313 O   0  0  0  0  0  0  0  0  0  0  0  0
  -21.1351  -17.8613   26.5503 O   0  0  0  0  0  0  0  0  0  0  0  0
  -30.1525  -20.3022   20.0055 O   0  0  0  0  0  0  0  0  0  0  0  0
  -23.7317  -30.4944   20.8205 O   0  0  0  0  0  0  0  0  0  0  0  0
  -22.2885  -14.6975   20.6332 O   0  0  0  0  0  0  0  0  0  1  0  0
  -19.0651  -28.8030   23.2217 F   0  0  0  0  0  0  0  0  0  0  0  0
  -31.3305  -17.9380   21.3551 F   0  0  0  0  0  0  0  0  0  0  0  0
  -22.9767  -31.4674   23.2955 F   0  0  0  0  0  0  0  0  0  0  0  0
  1  2  1  0  0  0  0
  1  5  2  0  0  0  0
  2  6  2  0  0  0  0
  3  8  2  0  0  0  0
  3 17  1  0  0  0  0
  4  9  1  0  0  0  0
  4 17  2  0  0  0  0
  5 19  1  0  0  0  0
  6 21  1  0  0  0  0
  7 10  2  0  0  0  0
  7 20  1  0  0  0  0
  8 26  1  0  0  0  0
  9 26  2  0  0  0  0
 10 27  1  0  0  0  0
 11 12  2  0  0  0  0
 11 28  1  0  0  0  0
 12 29  1  0  0  0  0
 13 22  1  0  0  0  0
 13 27  2  0  0  0  0
 14 23  2  0  0  0  0
 14 25  1  0  0  0  0
 15 24  1  0  0  0  0
 15 30  2  0  0  0  0
 16 29  2  0  0  0  0
 16 31  1  0  0  0  0
 17 32  1  0  0  0  0
 18 32  1  0  0  0  0
 18 33  2  0  0  0  0
 18 35  1  0  0  0  0
 19 21  2  0  0  0  0
 19 41  1  0  0  0  0
 20 22  2  0  0  0  0
 20 42  1  0  0  0  0
 21 54  1  0  0  0  0
 22 43  1  0  0  0  0
 23 30  1  0  0  0  0
 23 63  1  0  0  0  0
 24 25  2  0  0  0  0
 24 71  1  0  0  0  0
 25 76  1  0  0  0  0
 26 86  1  0  0  0  0
 27 87  1  0  0  0  0
 28 31  2  0  0  0  0
 28 86  1  0  0  0  0
 29 88  1  0  0  0  0
 30 89  1  0  0  0  0
 31 90  1  0  0  0  0
 32 69  2  0  0  0  0
 33 70  1  0  0  0  0
 33 74  1  0  0  0  0
 34 36  2  0  0  0  0
 34 64  1  0  0  0  0
 35 75  1  0  0  0  0
 35 81  2  0  0  0  0
 36 57  1  0  0  0  0
 36 65  1  0  0  0  0
 37 55  1  0  0  0  0
 37 77  1  0  0  0  0
 37 82  2  0  0  0  0
 38 66  1  0  0  0  0
 38 72  1  0  0  0  0
 38 83  2  0  0  0  0
 39 67  1  0  0  0  0
 39 78  1  0  0  0  0
 39 84  2  0  0  0  0
 40 73  1  0  0  0  0
 40 79  1  0  0  0  0
 40 85  2  0  0  0  0
 41 44  1  0  0  0  0
 42 55  1  0  0  0  0
 43 72  1  0  0  0  0
 44 48  1  0  0  0  0
 45 46  1  0  0  0  0
 45 50  1  0  0  0  0
 46 51  1  0  0  0  0
 47 49  1  0  0  0  0
 47 52  1  0  0  0  0
 48 54  1  0  0  0  0
 49 56  1  0  0  0  0
 50 71  1  0  0  0  0
 51 71  1  0  0  0  0
 52 73  1  0  0  0  0
 53 56  1  0  0  0  0
 53 73  1  0  0  0  0
 54 77  1  0  0  0  0
 55 72  1  0  0  0  0
 56 70  1  0  0  0  0
 58 67  1  0  0  0  0
 59 68  1  0  0  0  0
 60 68  1  0  0  0  0
 61 68  1  0  0  0  0
 62 80  1  0  0  0  0
 63 79  1  0  0  0  0
 64 87  1  0  0  0  0
 65 76  1  0  0  0  0
 66 68  1  0  0  0  0
 66 78  1  0  0  0  0
 67 80  1  0  0  0  0
 69 70  1  0  0  0  0
M  CHG  1  80   1
M  ISO  4  40 100  64 101  79 100  87 101
M  END
> <Batch ID>
0026

> <Smiles>
CNC(C)C(=O)NC(C(=O)N1Cc2cc([101O:1][101CH2:1]C=C(C)CNc3cc(C[100NH:0][100C:0](=O)N4CCCC(n5nc(-c6ccc(Oc7ccc(F)cc7F)cc6)c(C(N)=O)c5N)C4)c(F)cc3N3CCCC3)ccc2CC1C(=O)NC1CCCc2ccccc21)C(C)(C)C

> <Shape>
0.198

> <Color>
0.060

> <Negative vol penalty>
0.000

$$$$

  -OEChem-04042321253D

 88 97  0     1  0  0  0  0  0999 V2000
  -19.2151  -12.2469   33.0820 C   0  0  0  0  0  0  0  0  0  0  0  0
  -20.2547  -11.4667   32.5860 C   0  0  0  0  0  0  0  0  0  0  0  0
  -23.1450  -10.1818   22.1052 C   0  0  0  0  0  0  0  0  0  0  0  0
  -23.7655   -9.4691   19.8816 C   0  0  0  0  0  0  0  0  0  0  0  0
  -19.2561  -13.6332   32.9393 C   0  0  0  0  0  0  0  0  0  0  0  0
  -21.3354  -12.0724   31.9460 C   0  0  0  0  0  0  0  0  0  0  0  0
  -27.1851  -10.2652   32.0925 C   0  0  0  0  0  0  0  0  0  0  0  0
  -22.4007   -9.0140   22.2718 C   0  0  0  0  0  0  0  0  0  0  0  0
  -23.0213   -8.3012   20.0483 C   0  0  0  0  0  0  0  0  0  0  0  0
  -27.9601   -9.5232   31.2023 C   0  0  0  0  0  0  0  0  0  0  0  0
  -22.9933   -5.7640   22.9922 C   0  0  0  0  0  0  0  0  0  0  0  0
  -23.1285   -5.0756   24.1978 C   0  0  0  0  0  0  0  0  0  0  0  0
  -28.8057  -11.5687   30.2431 C   0  0  0  0  0  0  0  0  0  0  0  0
  -33.4999  -10.6269   28.9042 C   0  0  0  0  0  0  0  0  0  0  0  0
  -31.6975   -9.8565   30.3164 C   0  0  0  0  0  0  0  0  0  0  0  0
  -20.7680   -5.3620   24.6258 C   0  0  0  0  0  0  0  0  0  0  0  0
  -23.8274  -10.4094   20.9100 C   0  0  0  0  0  0  0  0  0  0  0  0
  -24.1221  -12.9405   20.7893 C   0  0  0  0  0  0  0  0  0  0  0  0
  -20.3425  -14.2569   32.3058 C   0  0  0  0  0  0  0  0  0  0  0  0
  -27.2063  -11.6669   32.0574 C   0  0  0  0  0  0  0  0  0  0  0  0
  -21.3903  -13.4683   31.7935 C   0  0  0  0  0  0  0  0  0  0  0  0
  -28.0320  -12.3261   31.1356 C   0  0  0  0  0  0  0  0  0  0  0  0
  -32.6426  -10.6159   27.8040 C   0  0  0  0  0  0  0  0  0  0  0  0
  -22.3388   -8.0737   21.2434 C   0  0  0  0  0  0  0  0  0  0  0  0
  -28.7684  -10.1749   30.2754 C   0  0  0  0  0  0  0  0  0  0  0  0
  -21.7455   -6.2514   22.6034 C   0  0  0  0  0  0  0  0  0  0  0  0
  -30.8401   -9.8455   29.2162 C   0  0  0  0  0  0  0  0  0  1  0  0
  -22.0158   -4.8746   25.0146 C   0  0  0  0  0  0  0  0  0  0  0  0
  -33.0274  -10.2472   30.1604 C   0  0  0  0  0  0  0  0  0  0  0  0
  -20.6329   -6.0504   23.4202 C   0  0  0  0  0  0  0  0  0  0  0  0
  -31.3127  -10.2252   27.9600 C   0  0  0  0  0  0  0  0  0  0  0  0
  -24.5959  -11.6159   20.7371 C   0  0  0  0  0  0  0  0  0  0  0  0
  -25.2356  -13.7125   20.5645 C   0  0  0  0  0  0  0  0  0  0  0  0
  -33.9981  -10.3083   24.2993 C   0  0  0  0  0  0  0  0  0  0  0  0
  -33.2470  -10.9421   23.3917 C   0  0  0  0  0  0  0  0  0  0  0  0
  -22.7942  -13.4293   21.0203 C   0  0  0  0  0  0  0  0  0  0  0  0
  -25.0446  -13.9297   31.4999 C   0  0  0  0  0  0  0  0  0  0  0  0
  -27.4700  -15.9100   32.3475 C   0  0  0  0  0  0  0  0  0  0  0  0
  -30.8326  -16.4081   32.6495 C   0  0  0  0  0  0  0  0  0  0  0  0
  -31.0837  -12.4797   21.5650 C   0  0  0  0  0  0  0  0  0  0  0  0
  -20.3197  -15.7551   32.1332 C   0  0  0  0  0  0  0  0  0  0  0  0
  -26.3847  -12.4527   33.0422 C   0  0  0  0  0  0  0  0  0  0  0  0
  -28.1060  -13.8291   31.0705 C   0  0  0  0  0  0  0  0  0  0  0  0
  -35.4270   -9.9000   24.1195 C   0  0  0  0  0  0  0  0  0  0  0  0
  -21.6801  -16.3476   31.7746 C   0  0  0  0  0  0  0  0  0  0  0  0
  -35.7773   -9.3853   25.5071 C   0  0  0  0  0  0  0  0  0  0  0  0
  -29.4419  -13.0870   18.2294 C   0  0  0  0  0  0  0  0  0  0  0  0
  -22.3409  -15.5348   30.6658 C   0  0  0  0  0  0  0  0  0  0  0  0
  -27.9857  -13.3514   18.6143 C   0  0  0  0  0  0  0  0  0  0  0  0
  -30.4005  -13.3698   19.3762 C   0  0  0  0  0  0  0  0  0  0  0  0
  -28.6943  -12.1603   20.7482 C   0  0  0  0  0  0  0  0  0  0  0  0
  -34.4562   -8.8840   26.0687 C   0  0  0  0  0  0  0  0  0  0  0  0
  -22.5917  -14.0902   31.1152 C   0  0  1  0  0  0  0  0  0  0  0  0
  -26.0923  -13.8754   32.5756 C   0  0  1  0  0  0  0  0  0  0  0  0
  -27.7222  -13.1749   20.1216 C   0  0  2  0  0  0  0  0  0  0  0  0
  -32.5136  -18.1408   33.3347 C   0  0  0  0  0  0  0  0  0  0  0  0
  -27.0180  -17.3858   29.7154 C   0  0  0  0  0  0  0  0  0  0  0  0
  -29.2645  -18.4517   30.0078 C   0  0  0  0  0  0  0  0  0  0  0  0
  -27.4611  -18.8685   31.6801 C   0  0  0  0  0  0  0  0  0  0  0  0
  -30.7170   -9.9919   21.8641 C   0  0  0  0  0  0  0  0  0  0  0  0
  -31.8871  -14.6943   34.8196 C   0  0  0  0  0  0  0  0  0  0  0  0
  -33.1911  -11.0302   26.4766 C   0  0  0  0  0  0  0  0  0  0  0  0
  -31.8233  -11.3304   23.6152 C   0  0  0  0  0  0  0  0  0  0  0  0
  -28.5885  -16.6066   31.6108 C   0  0  1  0  0  0  0  0  0  0  0  0
  -31.6710  -16.9591   33.7888 C   0  0  2  0  0  0  0  0  0  0  0  0
  -28.0804  -17.7998   30.7532 C   0  0  0  0  0  0  0  0  0  0  0  0
  -25.9082  -11.5467   20.4978 N   0  0  0  0  0  0  0  0  0  0  0  0
  -26.2684  -12.8375   20.3975 N   0  0  0  0  0  0  0  0  0  0  0  0
  -27.2792  -14.5531   32.0502 N   0  0  0  0  0  0  0  0  0  0  0  0
  -30.0984  -12.5702   20.5667 N   0  0  0  0  0  0  0  0  0  0  0  0
  -25.4223  -15.0477   20.4953 N   0  0  0  0  0  0  0  0  0  0  0  0
  -21.7676  -12.4993   21.2334 N   0  0  0  0  0  0  0  0  0  0  0  0
  -23.7516  -14.0235   31.9781 N   0  0  0  0  0  0  0  0  0  0  0  0
  -29.5755  -16.9739   32.6204 N   0  0  0  0  0  0  0  0  0  0  0  0
  -31.1201  -11.3122   22.3400 N   0  0  0  0  0  0  0  0  0  0  0  0
  -33.4305   -9.8750   25.5467 N   0  3  1  0  0  0  0  0  0  0  0  0
  -32.5839  -15.9060   34.3165 N   0  3  0  0  0  0  0  0  0  0  0  0
  -22.5230  -14.6540   21.0210 O   0  0  0  0  0  0  0  0  0  0  0  0
  -25.3844  -13.8908   30.3231 O   0  0  0  0  0  0  0  0  0  0  0  0
  -26.7951  -16.5445   33.1621 O   0  0  0  0  0  0  0  0  0  0  0  0
  -31.2523  -15.5633   31.8617 O   0  0  0  0  0  0  0  0  0  0  0  0
  -31.8856  -13.4037   21.7575 O   0  0  0  0  0  0  0  0  0  0  0  0
  -21.6129   -6.9339   21.4058 O   0  0  0  0  0  0  0  0  0  0  0  0
  -29.5255   -9.4531   29.4049 O   0  0  0  0  0  0  0  0  0  1  0  0
  -22.1454   -4.2123   26.1716 F   0  0  0  0  0  0  0  0  0  0  0  0
  -33.8507  -10.2572   31.2169 F   0  0  0  0  0  0  0  0  0  0  0  0
  -19.4313   -6.5153   23.0515 F   0  0  0  0  0  0  0  0  0  0  0  0
  -30.2420  -10.2103   26.6007 Cl  0  0  0  0  0  0  0  0  0  0  0  0
  1  2  1  0  0  0  0
  1  5  2  0  0  0  0
  2  6  2  0  0  0  0
  3  8  2  0  0  0  0
  3 17  1  0  0  0  0
  4  9  1  0  0  0  0
  4 17  2  0  0  0  0
  5 19  1  0  0  0  0
  6 21  1  0  0  0  0
  7 10  2  0  0  0  0
  7 20  1  0  0  0  0
  8 24  1  0  0  0  0
  9 24  2  0  0  0  0
 10 25  1  0  0  0  0
 11 12  2  0  0  0  0
 11 26  1  0  0  0  0
 12 28  1  0  0  0  0
 13 22  1  0  0  0  0
 13 25  2  0  0  0  0
 14 23  2  0  0  0  0
 14 29  1  0  0  0  0
 15 27  1  0  0  0  0
 15 29  2  0  0  0  0
 16 28  2  0  0  0  0
 16 30  1  0  0  0  0
 17 32  1  0  0  0  0
 18 32  1  0  0  0  0
 18 33  2  0  0  0  0
 18 36  1  0  0  0  0
 19 21  2  0  0  0  0
 19 41  1  0  0  0  0
 20 22  2  0  0  0  0
 20 42  1  0  0  0  0
 21 53  1  0  0  0  0
 22 43  1  0  0  0  0
 23 31  1  0  0  0  0
 23 62  1  0  0  0  0
 24 83  1  0  0  0  0
 25 84  1  0  0  0  0
 26 30  2  0  0  0  0
 26 83  1  0  0  0  0
 27 31  2  0  0  0  0
 27 84  1  0  0  0  0
 28 85  1  0  0  0  0
 29 86  1  0  0  0  0
 30 87  1  0  0  0  0
 31 88  1  0  0  0  0
 32 67  2  0  0  0  0
 33 68  1  0  0  0  0
 33 71  1  0  0  0  0
 34 35  2  0  0  0  0
 34 44  1  0  0  0  0
 34 76  1  0  0  0  0
 35 63  1  0  0  0  0
 36 72  1  0  0  0  0
 36 78  2  0  0  0  0
 37 54  1  0  0  0  0
 37 73  1  0  0  0  0
 37 79  2  0  0  0  0
 38 64  1  0  0  0  0
 38 69  1  0  0  0  0
 38 80  2  0  0  0  0
 39 65  1  0  0  0  0
 39 74  1  0  0  0  0
 39 81  2  0  0  0  0
 40 70  1  0  0  0  0
 40 75  1  0  0  0  0
 40 82  2  0  0  0  0
 41 45  1  0  0  0  0
 42 54  1  0  0  0  0
 43 69  1  0  0  0  0
 44 46  1  0  0  0  0
 45 48  1  0  0  0  0
 46 52  1  0  0  0  0
 47 49  1  0  0  0  0
 47 50  1  0  0  0  0
 48 53  1  0  0  0  0
 49 55  1  0  0  0  0
 50 70  1  0  0  0  0
 51 55  1  0  0  0  0
 51 70  1  0  0  0  0
 52 76  1  0  0  0  0
 53 73  1  0  0  0  0
 54 69  1  0  0  0  0
 55 68  1  0  0  0  0
 56 65  1  0  0  0  0
 57 66  1  0  0  0  0
 58 66  1  0  0  0  0
 59 66  1  0  0  0  0
 60 75  1  0  0  0  0
 61 77  1  0  0  0  0
 62 76  1  0  0  0  0
 63 75  1  0  0  0  0
 64 66  1  0  0  0  0
 64 74  1  0  0  0  0
 65 77  1  0  0  0  0
 67 68  1  0  0  0  0
M  CHG  2  76   1  77   1
M  ISO  4  27 101  40 100  75 100  84 101
M  END
> <Batch ID>
0026

> <Smiles>
CNC(C)C(=O)NC(C(=O)N1Cc2cc([101O:1][101c:1]3cc(F)cc(CN4CCCC4=CC[100N:0](C)[100C:0](=O)N4CCCC(n5nc(-c6ccc(Oc7ccc(F)cc7F)cc6)c(C(N)=O)c5N)C4)c3Cl)ccc2CC1C(=O)NC1CCCc2ccccc21)C(C)(C)C

> <Shape>
0.134

> <Color>
0.191

> <Negative vol penalty>
0.000

$$$$

  -OEChem-04042321253D

 85 93  0     1  0  0  0  0  0999 V2000
  -17.5915  -25.9959   20.1021 C   0  0  0  0  0  0  0  0  0  0  0  0
  -18.9238  -26.0138   19.7019 C   0  0  0  0  0  0  0  0  0  0  0  0
  -23.1147   -9.9991   21.3941 C   0  0  0  0  0  0  0  0  0  0  0  0
  -24.2310  -10.5928   23.4528 C   0  0  0  0  0  0  0  0  0  0  0  0
  -17.1907  -26.7267   21.2198 C   0  0  0  0  0  0  0  0  0  0  0  0
  -19.8558  -26.7635   20.4186 C   0  0  0  0  0  0  0  0  0  0  0  0
  -24.1601  -24.2289   21.2519 C   0  0  0  0  0  0  0  0  0  0  0  0
  -29.4561  -19.4490   16.6571 C   0  0  0  0  0  0  0  0  0  0  0  0
  -22.4540   -8.9614   22.0516 C   0  0  0  0  0  0  0  0  0  0  0  0
  -23.5702   -9.5552   24.1104 C   0  0  0  0  0  0  0  0  0  0  0  0
  -25.0603  -24.1369   20.1913 C   0  0  0  0  0  0  0  0  0  0  0  0
  -23.1610   -5.8258   23.0966 C   0  0  0  0  0  0  0  0  0  0  0  0
  -23.1065   -4.5863   22.4591 C   0  0  0  0  0  0  0  0  0  0  0  0
  -29.7261  -18.1210   16.3270 C   0  0  0  0  0  0  0  0  0  0  0  0
  -26.3626  -25.9273   21.1493 C   0  0  0  0  0  0  0  0  0  0  0  0
  -20.6927   -4.6881   22.4672 C   0  0  0  0  0  0  0  0  0  0  0  0
  -24.0033  -10.8147   22.0947 C   0  0  0  0  0  0  0  0  0  0  0  0
  -24.2486  -13.2163   21.2702 C   0  0  0  0  0  0  0  0  0  0  0  0
  -18.1201  -27.4780   21.9562 C   0  0  0  0  0  0  0  0  0  0  0  0
  -24.3487  -25.1797   22.2652 C   0  0  0  0  0  0  0  0  0  0  0  0
  -19.4668  -27.5061   21.5464 C   0  0  0  0  0  0  0  0  0  0  0  0
  -25.4647  -26.0276   22.2230 C   0  0  0  0  0  0  0  0  0  0  0  0
  -29.2279  -17.4559   18.5957 C   0  0  0  0  0  0  0  0  0  0  0  0
  -29.0721  -19.7806   17.9564 C   0  0  0  0  0  0  0  0  0  0  0  0
  -22.6817   -8.7395   23.4097 C   0  0  0  0  0  0  0  0  0  0  0  0
  -26.1602  -24.9881   20.1384 C   0  0  0  0  0  0  0  0  0  0  0  0
  -21.9812   -6.4964   23.4195 C   0  0  0  0  0  0  0  0  0  0  0  0
  -21.8724   -4.0175   22.1444 C   0  0  0  0  0  0  0  0  0  0  0  0
  -20.7471   -5.9276   23.1048 C   0  0  0  0  0  0  0  0  0  0  0  0
  -29.6119  -17.1244   17.2963 C   0  0  0  0  0  0  0  0  0  0  0  0
  -28.9580  -18.7841   18.9257 C   0  0  0  0  0  0  0  0  0  0  0  0
  -24.6866  -11.8864   21.4160 C   0  0  0  0  0  0  0  0  0  0  0  0
  -25.2465  -13.8299   20.5531 C   0  0  0  0  0  0  0  0  0  0  0  0
  -23.0471  -13.8412   21.7409 C   0  0  0  0  0  0  0  0  0  0  0  0
  -22.6937  -27.6721   23.3389 C   0  0  0  0  0  0  0  0  0  0  0  0
  -25.0017  -27.7279   25.6175 C   0  0  0  0  0  0  0  0  0  0  0  0
  -28.1865  -26.9154   26.5360 C   0  0  0  0  0  0  0  0  0  0  0  0
  -30.8562  -14.6006   20.0492 C   0  0  0  0  0  0  0  0  0  0  0  0
  -17.6308  -28.2897   23.1294 C   0  0  0  0  0  0  0  0  0  0  0  0
  -23.3831  -25.2483   23.4164 C   0  0  0  0  0  0  0  0  0  0  0  0
  -25.7235  -27.0519   23.2965 C   0  0  0  0  0  0  0  0  0  0  0  0
  -18.7506  -28.7588   24.0549 C   0  0  0  0  0  0  0  0  0  0  0  0
  -29.2217  -11.9100   18.1023 C   0  0  0  0  0  0  0  0  0  0  0  0
  -19.9037  -29.3422   23.2445 C   0  0  0  0  0  0  0  0  0  0  0  0
  -27.8909  -11.7326   18.8313 C   0  0  0  0  0  0  0  0  0  0  0  0
  -30.3171  -12.4155   19.0362 C   0  0  0  0  0  0  0  0  0  0  0  0
  -28.6297  -13.4872   20.4916 C   0  0  0  0  0  0  0  0  0  0  0  0
  -20.5122  -28.2874   22.3125 C   0  0  1  0  0  0  0  0  0  0  0  0
  -23.3930  -26.5993   24.1249 C   0  0  1  0  0  0  0  0  0  0  0  0
  -27.4929  -13.0232   19.5685 C   0  0  2  0  0  0  0  0  0  0  0  0
  -29.8002  -27.1259   28.4462 C   0  0  0  0  0  0  0  0  0  0  0  0
  -25.4591  -30.6593   24.9049 C   0  0  0  0  0  0  0  0  0  0  0  0
  -27.6450  -30.5413   26.1199 C   0  0  0  0  0  0  0  0  0  0  0  0
  -25.5113  -30.1609   27.3551 C   0  0  0  0  0  0  0  0  0  0  0  0
  -31.3720  -16.9859   20.4007 C   0  0  0  0  0  0  0  0  0  0  0  0
  -28.4042  -23.9783   26.8276 C   0  0  0  0  0  0  0  0  0  0  0  0
  -29.1070  -16.3809   19.6331 C   0  0  0  0  0  0  0  0  0  0  0  0
  -28.6227  -23.5243   17.9378 C   0  0  0  0  0  0  0  0  0  0  0  0
  -28.9144  -22.1785   17.2851 C   0  0  0  0  0  0  0  0  0  0  0  0
  -27.2100  -23.6181   18.5022 C   0  0  0  0  0  0  0  0  0  1  0  0
  -26.3507  -28.3910   25.7567 C   0  0  1  0  0  0  0  0  0  0  0  0
  -28.7370  -26.2593   27.7893 C   0  0  2  0  0  0  0  0  0  0  0  0
  -26.2359  -29.9202   26.0128 C   0  0  0  0  0  0  0  0  0  0  0  0
  -25.8705  -11.6672   20.8378 N   0  0  0  0  0  0  0  0  0  0  0  0
  -26.1849  -12.8676   20.3217 N   0  0  0  0  0  0  0  0  0  0  0  0
  -24.7474  -27.0844   24.3981 N   0  0  0  0  0  0  0  0  0  0  0  0
  -29.8964  -13.6179   19.7561 N   0  0  0  0  0  0  0  0  0  0  0  0
  -25.4040  -15.0933   20.1042 N   0  0  0  0  0  0  0  0  0  0  0  0
  -22.1287  -13.0656   22.4616 N   0  0  0  0  0  0  0  0  0  0  0  0
  -28.8116  -21.1101   18.2495 N   0  0  0  0  0  0  0  0  0  0  0  0
  -21.3706  -27.3906   23.0564 N   0  0  0  0  0  0  0  0  0  0  0  0
  -27.0581  -27.6613   26.8035 N   0  0  0  0  0  0  0  0  0  0  0  0
  -30.4121  -15.9301   20.1113 N   0  0  0  0  0  0  0  0  0  0  0  0
  -29.3449  -24.9394   27.4588 N   0  3  0  0  0  0  0  0  0  0  0  0
  -22.7876  -15.0475   21.5146 O   0  0  0  0  0  0  0  0  0  0  0  0
  -23.3085  -28.6811   23.0140 O   0  0  0  0  0  0  0  0  0  0  0  0
  -24.2057  -27.7730   26.5588 O   0  0  0  0  0  0  0  0  0  0  0  0
  -28.7076  -26.7827   25.4308 O   0  0  0  0  0  0  0  0  0  0  0  0
  -32.0443  -14.3073   20.2349 O   0  0  0  0  0  0  0  0  0  0  0  0
  -22.0369   -7.7272   24.0516 O   0  0  0  0  0  0  0  0  0  0  0  0
  -27.0401  -24.9008   19.1039 O   0  0  0  0  0  0  0  0  0  1  0  0
  -21.8204   -2.8279   21.5309 F   0  0  0  0  0  0  0  0  0  0  0  0
  -19.6104   -6.5676   23.4114 F   0  0  0  0  0  0  0  0  0  0  0  0
  -29.9557  -15.4939   16.8431 Cl  0  0  0  0  0  0  0  0  0  0  0  0
  -28.4801  -19.1974   20.5412 Cl  0  0  0  0  0  0  0  0  0  0  0  0
  1  2  1  0  0  0  0
  1  5  2  0  0  0  0
  2  6  2  0  0  0  0
  3  9  2  0  0  0  0
  3 17  1  0  0  0  0
  4 10  1  0  0  0  0
  4 17  2  0  0  0  0
  5 19  1  0  0  0  0
  6 21  1  0  0  0  0
  7 11  2  0  0  0  0
  7 20  1  0  0  0  0
  8 14  2  0  0  0  0
  8 24  1  0  0  0  0
  9 25  1  0  0  0  0
 10 25  2  0  0  0  0
 11 26  1  0  0  0  0
 12 13  2  0  0  0  0
 12 27  1  0  0  0  0
 13 28  1  0  0  0  0
 14 30  1  0  0  0  0
 15 22  1  0  0  0  0
 15 26  2  0  0  0  0
 16 28  2  0  0  0  0
 16 29  1  0  0  0  0
 17 32  1  0  0  0  0
 18 32  1  0  0  0  0
 18 33  2  0  0  0  0
 18 34  1  0  0  0  0
 19 21  2  0  0  0  0
 19 39  1  0  0  0  0
 20 22  2  0  0  0  0
 20 40  1  0  0  0  0
 21 48  1  0  0  0  0
 22 41  1  0  0  0  0
 23 30  2  0  0  0  0
 23 31  1  0  0  0  0
 23 57  1  0  0  0  0
 24 31  2  0  0  0  0
 24 70  1  0  0  0  0
 25 80  1  0  0  0  0
 26 81  1  0  0  0  0
 27 29  2  0  0  0  0
 27 80  1  0  0  0  0
 28 82  1  0  0  0  0
 29 83  1  0  0  0  0
 30 84  1  0  0  0  0
 31 85  1  0  0  0  0
 32 64  2  0  0  0  0
 33 65  1  0  0  0  0
 33 68  1  0  0  0  0
 34 69  1  0  0  0  0
 34 75  2  0  0  0  0
 35 49  1  0  0  0  0
 35 71  1  0  0  0  0
 35 76  2  0  0  0  0
 36 61  1  0  0  0  0
 36 66  1  0  0  0  0
 36 77  2  0  0  0  0
 37 62  1  0  0  0  0
 37 72  1  0  0  0  0
 37 78  2  0  0  0  0
 38 67  1  0  0  0  0
 38 73  1  0  0  0  0
 38 79  2  0  0  0  0
 39 42  1  0  0  0  0
 40 49  1  0  0  0  0
 41 66  1  0  0  0  0
 42 44  1  0  0  0  0
 43 45  1  0  0  0  0
 43 46  1  0  0  0  0
 44 48  1  0  0  0  0
 45 50  1  0  0  0  0
 46 67  1  0  0  0  0
 47 50  1  0  0  0  0
 47 67  1  0  0  0  0
 48 71  1  0  0  0  0
 49 66  1  0  0  0  0
 50 65  1  0  0  0  0
 51 62  1  0  0  0  0
 52 63  1  0  0  0  0
 53 63  1  0  0  0  0
 54 63  1  0  0  0  0
 55 73  1  0  0  0  0
 56 74  1  0  0  0  0
 57 73  1  0  0  0  0
 58 59  1  0  0  0  0
 58 60  1  0  0  0  0
 59 70  1  0  0  0  0
 60 81  1  0  0  0  0
 61 63  1  0  0  0  0
 61 72  1  0  0  0  0
 62 74  1  0  0  0  0
 64 65  1  0  0  0  0
M  CHG  1  74   1
M  ISO  4  38 100  60 101  73 100  81 101
M  END
> <Batch ID>
0026

> <Smiles>
CNC(C)C(=O)NC(C(=O)N1Cc2cc([101O:1][101CH2:1]CCNc3ccc(Cl)c(C[100N:0](C)[100C:0](=O)N4CCCC(n5nc(-c6ccc(Oc7ccc(F)cc7F)cc6)c(C(N)=O)c5N)C4)c3Cl)ccc2CC1C(=O)NC1CCCc2ccccc21)C(C)(C)C

> <Shape>
0.280

> <Color>
0.191

> <Negative vol penalty>
0.000

$$$$

  -OEChem-04042321253D

 85 94  0     1  0  0  0  0  0999 V2000
  -25.6714  -31.6859   24.1048 C   0  0  0  0  0  0  0  0  0  0  0  0
  -26.3945  -30.5162   24.3158 C   0  0  0  0  0  0  0  0  0  0  0  0
  -23.2665   -9.8873   21.0099 C   0  0  0  0  0  0  0  0  0  0  0  0
  -23.8983  -10.5855   23.2349 C   0  0  0  0  0  0  0  0  0  0  0  0
  -24.8731  -31.8152   22.9690 C   0  0  0  0  0  0  0  0  0  0  0  0
  -26.3188  -29.4748   23.3916 C   0  0  0  0  0  0  0  0  0  0  0  0
  -30.8095  -25.6229   21.8097 C   0  0  0  0  0  0  0  0  0  0  0  0
  -30.9754  -16.0904   24.0181 C   0  0  0  0  0  0  0  0  0  0  0  0
  -31.0096  -17.4846   24.0399 C   0  0  0  0  0  0  0  0  0  0  0  0
  -22.5569   -8.8139   21.5483 C   0  0  0  0  0  0  0  0  0  0  0  0
  -23.1886   -9.5121   23.7732 C   0  0  0  0  0  0  0  0  0  0  0  0
  -31.1161  -24.3238   22.2120 C   0  0  0  0  0  0  0  0  0  0  0  0
  -23.2449   -5.7502   22.7992 C   0  0  0  0  0  0  0  0  0  0  0  0
  -23.4045   -4.5019   22.1978 C   0  0  0  0  0  0  0  0  0  0  0  0
  -29.9436  -23.4582   20.2898 C   0  0  0  0  0  0  0  0  0  0  0  0
  -32.9815  -16.0622   22.6721 C   0  0  0  0  0  0  0  0  0  0  0  0
  -21.0382   -4.4319   21.7153 C   0  0  0  0  0  0  0  0  0  0  0  0
  -23.9373  -10.7731   21.8532 C   0  0  0  0  0  0  0  0  0  0  0  0
  -24.1837  -13.1752   21.0304 C   0  0  0  0  0  0  0  0  0  0  0  0
  -24.7952  -30.7787   22.0256 C   0  0  0  0  0  0  0  0  0  0  0  0
  -30.0571  -25.8495   20.6482 C   0  0  0  0  0  0  0  0  0  0  0  0
  -25.5177  -29.5899   22.2428 C   0  0  0  0  0  0  0  0  0  0  0  0
  -29.6310  -24.7613   19.8734 C   0  0  0  0  0  0  0  0  0  0  0  0
  -31.9614  -15.3792   23.3343 C   0  0  0  0  0  0  0  0  0  0  0  0
  -32.0297  -18.1677   23.3778 C   0  0  0  0  0  0  0  0  0  0  0  0
  -22.5179   -8.6263   22.9299 C   0  0  0  0  0  0  0  0  0  0  0  0
  -30.6806  -23.2410   21.4536 C   0  0  0  0  0  0  0  0  0  0  0  0
  -21.9820   -6.3394   22.8588 C   0  0  0  0  0  0  0  0  0  0  0  0
  -22.3012   -3.8427   21.6558 C   0  0  0  0  0  0  0  0  0  0  0  0
  -33.0156  -17.4565   22.6938 C   0  0  0  0  0  0  0  0  0  0  0  0
  -20.8786   -5.6802   22.3168 C   0  0  0  0  0  0  0  0  0  0  0  0
  -24.6710  -11.8818   21.2977 C   0  0  0  0  0  0  0  0  0  0  0  0
  -25.2632  -13.8488   20.5134 C   0  0  0  0  0  0  0  0  0  0  0  0
  -31.5822  -20.4264   24.4298 C   0  0  0  0  0  0  0  0  0  0  0  0
  -22.8724  -13.7191   21.2316 C   0  0  0  0  0  0  0  0  0  0  0  0
  -27.2445  -27.1924   20.0241 C   0  0  0  0  0  0  0  0  0  0  0  0
  -28.1386  -26.7139   16.9428 C   0  0  0  0  0  0  0  0  0  0  0  0
  -30.0377  -24.9579   14.7165 C   0  0  0  0  0  0  0  0  0  0  0  0
  -31.1788  -13.1123   21.0737 C   0  0  0  0  0  0  0  0  0  0  0  0
  -23.8819  -30.9460   20.8371 C   0  0  0  0  0  0  0  0  0  0  0  0
  -29.7576  -27.2579   20.2133 C   0  0  0  0  0  0  0  0  0  0  0  0
  -28.8376  -24.9515   18.6074 C   0  0  0  0  0  0  0  0  0  0  0  0
  -31.9238  -21.8526   24.0585 C   0  0  0  0  0  0  0  0  0  0  0  0
  -24.1494  -29.9434   19.7174 C   0  0  0  0  0  0  0  0  0  0  0  0
  -29.2998  -13.1234   18.0495 C   0  0  0  0  0  0  0  0  0  0  0  0
  -24.2929  -28.5349   20.2851 C   0  0  0  0  0  0  0  0  0  0  0  0
  -27.8564  -12.9232   18.5149 C   0  0  0  0  0  0  0  0  0  0  0  0
  -30.2836  -12.3253   18.9021 C   0  0  0  0  0  0  0  0  0  0  0  0
  -28.7356  -12.3622   20.8195 C   0  0  0  0  0  0  0  0  0  0  0  0
  -32.6899  -20.3689   22.3445 C   0  0  0  0  0  0  0  0  0  0  0  0
  -25.4809  -28.4477   21.2508 C   0  0  1  0  0  0  0  0  0  0  0  0
  -28.5462  -27.3536   19.2911 C   0  0  1  0  0  0  0  0  0  0  0  0
  -27.7120  -13.1912   20.0250 C   0  0  2  0  0  0  0  0  0  0  0  0
  -32.1909  -21.7833   22.5660 C   0  0  1  0  0  0  0  0  0  1  0  0
  -30.5261  -24.7692   12.2623 C   0  0  0  0  0  0  0  0  0  0  0  0
  -25.4839  -25.2680   16.5282 C   0  0  0  0  0  0  0  0  0  0  0  0
  -26.4191  -24.3033   14.4157 C   0  0  0  0  0  0  0  0  0  0  0  0
  -26.1569  -26.7731   14.6477 C   0  0  0  0  0  0  0  0  0  0  0  0
  -32.8915  -25.6336   15.1143 C   0  0  0  0  0  0  0  0  0  0  0  0
  -31.9244  -13.8885   23.3099 C   0  0  0  0  0  0  0  0  0  0  0  0
  -27.9780  -25.5927   15.9448 C   0  0  1  0  0  0  0  0  0  0  0  0
  -30.9341  -25.4122   13.5787 C   0  0  2  0  0  0  0  0  0  0  0  0
  -26.5227  -25.4803   15.4090 C   0  0  0  0  0  0  0  0  0  0  0  0
  -25.9598  -11.7398   20.9768 N   0  0  0  0  0  0  0  0  0  0  0  0
  -26.2914  -12.9527   20.5025 N   0  0  0  0  0  0  0  0  0  0  0  0
  -32.0619  -19.5948   23.4013 N   0  0  0  0  0  0  0  0  0  0  0  0
  -28.5647  -26.3475   18.2274 N   0  0  0  0  0  0  0  0  0  0  0  0
  -30.0953  -12.6264   20.3233 N   0  0  0  0  0  0  0  0  0  0  0  0
  -25.4237  -15.1142   20.0714 N   0  0  0  0  0  0  0  0  0  0  0  0
  -21.8808  -12.8895   21.7727 N   0  0  0  0  0  0  0  0  0  0  0  0
  -26.7255  -28.3749   20.5158 N   0  0  0  0  0  0  0  0  0  0  0  0
  -28.9800  -25.8212   14.9094 N   0  0  0  0  0  0  0  0  0  0  0  0
  -30.9130  -13.3782   22.4113 N   0  0  0  0  0  0  0  0  0  0  0  0
  -32.3519  -25.0492   13.8596 N   0  3  0  0  0  0  0  0  0  0  0  0
  -31.0386  -20.1377   25.4863 O   0  0  0  0  0  0  0  0  0  0  0  0
  -22.5842  -14.9008   20.9248 O   0  0  0  0  0  0  0  0  0  0  0  0
  -26.7471  -26.0779   20.1340 O   0  0  0  0  0  0  0  0  0  0  0  0
  -27.9019  -27.8730   16.5935 O   0  0  0  0  0  0  0  0  0  0  0  0
  -30.2522  -23.9371   15.3666 O   0  0  0  0  0  0  0  0  0  0  0  0
  -32.2986  -13.3005   20.5862 O   0  0  0  0  0  0  0  0  0  0  0  0
  -21.8253   -7.5792   23.4556 O   0  0  0  0  0  0  0  0  0  0  0  0
  -30.9779  -21.9719   21.8445 O   0  0  0  0  0  0  0  0  0  1  0  0
  -22.4548   -2.6446   21.0769 F   0  0  0  0  0  0  0  0  0  0  0  0
  -34.0000  -18.1027   22.0527 F   0  0  0  0  0  0  0  0  0  0  0  0
  -19.6630   -6.2417   22.3700 F   0  0  0  0  0  0  0  0  0  0  0  0
  1  2  1  0  0  0  0
  1  5  2  0  0  0  0
  2  6  2  0  0  0  0
  3 10  2  0  0  0  0
  3 18  1  0  0  0  0
  4 11  1  0  0  0  0
  4 18  2  0  0  0  0
  5 20  1  0  0  0  0
  6 22  1  0  0  0  0
  7 12  2  0  0  0  0
  7 21  1  0  0  0  0
  8  9  2  0  0  0  0
  8 24  1  0  0  0  0
  9 25  1  0  0  0  0
 10 26  1  0  0  0  0
 11 26  2  0  0  0  0
 12 27  1  0  0  0  0
 13 14  2  0  0  0  0
 13 28  1  0  0  0  0
 14 29  1  0  0  0  0
 15 23  1  0  0  0  0
 15 27  2  0  0  0  0
 16 24  2  0  0  0  0
 16 30  1  0  0  0  0
 17 29  2  0  0  0  0
 17 31  1  0  0  0  0
 18 32  1  0  0  0  0
 19 32  1  0  0  0  0
 19 33  2  0  0  0  0
 19 35  1  0  0  0  0
 20 22  2  0  0  0  0
 20 40  1  0  0  0  0
 21 23  2  0  0  0  0
 21 41  1  0  0  0  0
 22 51  1  0  0  0  0
 23 42  1  0  0  0  0
 24 60  1  0  0  0  0
 25 30  2  0  0  0  0
 25 66  1  0  0  0  0
 26 81  1  0  0  0  0
 27 82  1  0  0  0  0
 28 31  2  0  0  0  0
 28 81  1  0  0  0  0
 29 83  1  0  0  0  0
 30 84  1  0  0  0  0
 31 85  1  0  0  0  0
 32 64  2  0  0  0  0
 33 65  1  0  0  0  0
 33 69  1  0  0  0  0
 34 43  1  0  0  0  0
 34 66  1  0  0  0  0
 34 75  2  0  0  0  0
 35 70  1  0  0  0  0
 35 76  2  0  0  0  0
 36 52  1  0  0  0  0
 36 71  1  0  0  0  0
 36 77  2  0  0  0  0
 37 61  1  0  0  0  0
 37 67  1  0  0  0  0
 37 78  2  0  0  0  0
 38 62  1  0  0  0  0
 38 72  1  0  0  0  0
 38 79  2  0  0  0  0
 39 68  1  0  0  0  0
 39 73  1  0  0  0  0
 39 80  2  0  0  0  0
 40 44  1  0  0  0  0
 41 52  1  0  0  0  0
 42 67  1  0  0  0  0
 43 54  1  0  0  0  0
 44 46  1  0  0  0  0
 45 47  1  0  0  0  0
 45 48  1  0  0  0  0
 46 51  1  0  0  0  0
 47 53  1  0  0  0  0
 48 68  1  0  0  0  0
 49 53  1  0  0  0  0
 49 68  1  0  0  0  0
 50 54  1  0  0  0  0
 50 66  1  0  0  0  0
 51 71  1  0  0  0  0
 52 67  1  0  0  0  0
 53 65  1  0  0  0  0
 54 82  1  0  0  0  0
 55 62  1  0  0  0  0
 56 63  1  0  0  0  0
 57 63  1  0  0  0  0
 58 63  1  0  0  0  0
 59 74  1  0  0  0  0
 60 73  1  0  0  0  0
 61 63  1  0  0  0  0
 61 72  1  0  0  0  0
 62 74  1  0  0  0  0
 64 65  1  0  0  0  0
M  CHG  1  74   1
M  ISO  4  39 100  54 101  73 100  82 101
M  END
> <Batch ID>
0026

> <Smiles>
CNC(C)C(=O)NC(C(=O)N1Cc2cc([101O:1][101CH:1]3CC(=O)N(c4ccc(C[100NH:0][100C:0](=O)N5CCCC(n6nc(-c7ccc(Oc8ccc(F)cc8F)cc7)c(C(N)=O)c6N)C5)cc4F)C3)ccc2CC1C(=O)NC1CCCc2ccccc21)C(C)(C)C

> <Shape>
0.270

> <Color>
0.156

> <Negative vol penalty>
0.000

$$$$
