
  -OEChem-04042321283D

 86 95  0     1  0  0  0  0  0999 V2000
  -23.9164   -6.3628   24.2361 C   0  0  0  0  0  0  0  0  0  0  0  0
  -24.9643   -7.2643   24.3936 C   0  0  0  0  0  0  0  0  0  0  0  0
  -24.1175  -30.6615   21.0182 C   0  0  0  0  0  0  0  0  0  0  0  0
  -25.7406  -30.1487   22.7328 C   0  0  0  0  0  0  0  0  0  0  0  0
  -23.0900   -6.4451   23.1163 C   0  0  0  0  0  0  0  0  0  0  0  0
  -25.1870   -8.2479   23.4306 C   0  0  0  0  0  0  0  0  0  0  0  0
  -27.2227  -13.9439   24.3884 C   0  0  0  0  0  0  0  0  0  0  0  0
  -23.5433  -31.6232   21.8494 C   0  0  0  0  0  0  0  0  0  0  0  0
  -25.1664  -31.1105   23.5640 C   0  0  0  0  0  0  0  0  0  0  0  0
  -28.4873  -14.5196   24.2741 C   0  0  0  0  0  0  0  0  0  0  0  0
  -25.2227  -34.4738   23.8885 C   0  0  0  0  0  0  0  0  0  0  0  0
  -26.0818  -35.3400   24.5648 C   0  0  0  0  0  0  0  0  0  0  0  0
  -27.9311  -15.2862   22.0555 C   0  0  0  0  0  0  0  0  0  0  0  0
  -31.3861  -22.1934   21.0286 C   0  0  0  0  0  0  0  0  0  0  0  0
  -32.0734  -20.2218   22.2442 C   0  0  0  0  0  0  0  0  0  0  0  0
  -25.2145  -34.5507   26.6772 C   0  0  0  0  0  0  0  0  0  0  0  0
  -25.2162  -29.9242   21.4599 C   0  0  0  0  0  0  0  0  0  0  0  0
  -26.8505  -29.1206   19.6736 C   0  0  0  0  0  0  0  0  0  0  0  0
  -23.2967   -7.4362   22.1439 C   0  0  0  0  0  0  0  0  0  0  0  0
  -26.3052  -14.0257   23.3311 C   0  0  0  0  0  0  0  0  0  0  0  0
  -24.3633   -8.3426   22.2960 C   0  0  0  0  0  0  0  0  0  0  0  0
  -26.6546  -14.7129   22.1599 C   0  0  0  0  0  0  0  0  0  0  0  0
  -30.6992  -21.3918   20.1169 C   0  0  0  0  0  0  0  0  0  0  0  0
  -31.3865  -19.4202   21.3326 C   0  0  0  0  0  0  0  0  0  0  0  0
  -24.0677  -31.8477   23.1223 C   0  0  0  0  0  0  0  0  0  0  0  0
  -28.8427  -15.1885   23.1064 C   0  0  0  0  0  0  0  0  0  0  0  0
  -24.3595  -33.6462   24.6065 C   0  0  0  0  0  0  0  0  0  0  0  0
  -26.0777  -35.3784   25.9591 C   0  0  0  0  0  0  0  0  0  0  0  0
  -32.0732  -21.6084   22.0923 C   0  0  0  0  0  0  0  0  0  0  0  0
  -24.3554  -33.6846   26.0008 C   0  0  0  0  0  0  0  0  0  0  0  0
  -30.6993  -20.0052   20.2689 C   0  0  0  0  0  0  0  0  0  0  0  0
  -25.8095  -28.9302   20.6020 C   0  0  0  0  0  0  0  0  0  0  0  0
  -27.0465  -27.8798   19.1182 C   0  0  0  0  0  0  0  0  0  0  0  0
  -27.5757  -30.3125   19.3430 C   0  0  0  0  0  0  0  0  0  0  0  0
  -24.8391  -11.9113   21.4646 C   0  0  0  0  0  0  0  0  0  0  0  0
  -23.2734  -14.5374   20.3807 C   0  0  0  0  0  0  0  0  0  0  0  0
  -23.2491  -17.9222   19.9460 C   0  0  0  0  0  0  0  0  0  0  0  0
  -27.5956  -22.3498   19.6312 C   0  0  0  0  0  0  0  0  0  0  0  0
  -22.4062   -7.4560   20.9268 C   0  0  0  0  0  0  0  0  0  0  0  0
  -24.9354  -13.4224   23.4804 C   0  0  0  0  0  0  0  0  0  0  0  0
  -25.6987  -14.8464   21.0036 C   0  0  0  0  0  0  0  0  0  0  0  0
  -22.4790   -8.7622   20.1400 C   0  0  0  0  0  0  0  0  0  0  0  0
  -24.2873  -23.6530   19.4462 C   0  0  0  0  0  0  0  0  0  0  0  0
  -23.9310   -9.1848   19.9402 C   0  0  0  0  0  0  0  0  0  0  0  0
  -24.4739  -25.1561   19.6600 C   0  0  0  0  0  0  0  0  0  0  0  0
  -32.1559  -15.8396   21.7650 C   0  0  0  0  0  0  0  0  0  0  0  0
  -25.2595  -22.8372   20.2957 C   0  0  0  0  0  0  0  0  0  0  0  0
  -32.4830  -17.2969   22.0903 C   0  0  0  0  0  0  0  0  0  0  0  0
  -26.8658  -24.7055   20.3485 C   0  0  0  0  0  0  0  0  0  0  0  0
  -30.2907  -17.1774   21.0656 C   0  0  0  0  0  0  0  0  0  0  0  0
  -24.6216   -9.4392   21.2855 C   0  0  1  0  0  0  0  0  0  0  0  0
  -24.2654  -13.1231   22.1429 C   0  0  1  0  0  0  0  0  0  0  0  0
  -25.9454  -25.5710   19.4711 C   0  0  2  0  0  0  0  0  0  0  0  0
  -30.6363  -15.8243   21.6857 C   0  0  2  0  0  0  0  0  0  1  0  0
  -30.8882  -22.8259   18.0507 C   0  0  0  0  0  0  0  0  0  0  0  0
  -21.8505  -19.7762   18.9953 C   0  0  0  0  0  0  0  0  0  0  0  0
  -24.1032  -13.7147   17.5621 C   0  0  0  0  0  0  0  0  0  0  0  0
  -23.5268  -16.0265   16.7928 C   0  0  0  0  0  0  0  0  0  0  0  0
  -21.7561  -14.5562   17.7548 C   0  0  0  0  0  0  0  0  0  0  0  0
  -23.0079  -19.2479   22.5811 C   0  0  0  0  0  0  0  0  0  0  0  0
  -29.9676  -22.0212   18.9797 C   0  0  2  0  0  0  0  0  0  0  0  0
  -23.5104  -15.5460   19.2828 C   0  0  1  0  0  0  0  0  0  0  0  0
  -22.1881  -18.9677   20.2384 C   0  0  2  0  0  0  0  0  0  0  0  0
  -23.2430  -14.9569   17.8690 C   0  0  0  0  0  0  0  0  0  0  0  0
  -25.3744  -27.6679   20.6371 N   0  0  0  0  0  0  0  0  0  0  0  0
  -26.1457  -27.0539   19.7238 N   0  0  0  0  0  0  0  0  0  0  0  0
  -31.3882  -18.0496   21.4853 N   0  0  3  0  0  0  0  0  0  0  0  0
  -24.3736  -14.2342   21.1953 N   0  0  0  0  0  0  0  0  0  0  0  0
  -26.6375  -23.2792   20.0686 N   0  0  0  0  0  0  0  0  0  0  0  0
  -27.8996  -27.4255   18.1758 N   0  0  0  0  0  0  0  0  0  0  0  0
  -27.2467  -31.5011   20.0088 N   0  0  0  0  0  0  0  0  0  0  0  0
  -24.2274  -10.7246   21.8210 N   0  0  0  0  0  0  0  0  0  0  0  0
  -22.6902  -16.7070   19.6112 N   0  0  0  0  0  0  0  0  0  0  0  0
  -28.8757  -22.8529   19.4343 N   0  0  0  0  0  0  0  0  0  0  0  0
  -22.6624  -19.9059   21.2947 N   0  3  0  0  0  0  0  0  0  0  0  0
  -28.4771  -30.3266   18.4708 O   0  0  0  0  0  0  0  0  0  0  0  0
  -25.7670  -12.0434   20.6752 O   0  0  0  0  0  0  0  0  0  0  0  0
  -22.1517  -14.0422   20.5153 O   0  0  0  0  0  0  0  0  0  0  0  0
  -24.4534  -18.1607   20.0050 O   0  0  0  0  0  0  0  0  0  0  0  0
  -27.3285  -21.1609   19.4258 O   0  0  0  0  0  0  0  0  0  0  0  0
  -23.5077  -32.7863   23.9336 O   0  0  0  0  0  0  0  0  0  0  0  0
  -30.0766  -15.7508   22.9920 O   0  0  0  0  0  0  0  0  0  1  0  0
  -26.9038  -36.2091   26.6085 F   0  0  0  0  0  0  0  0  0  0  0  0
  -32.7317  -22.3782   22.9686 F   0  0  0  0  0  0  0  0  0  0  0  0
  -23.5292  -32.8910   26.6960 F   0  0  0  0  0  0  0  0  0  0  0  0
  -30.0381  -19.2356   19.3912 F   0  0  0  0  0  0  0  0  0  0  0  0
  1  2  1  0  0  0  0
  1  5  2  0  0  0  0
  2  6  2  0  0  0  0
  3  8  2  0  0  0  0
  3 17  1  0  0  0  0
  4  9  1  0  0  0  0
  4 17  2  0  0  0  0
  5 19  1  0  0  0  0
  6 21  1  0  0  0  0
  7 10  2  0  0  0  0
  7 20  1  0  0  0  0
  8 25  1  0  0  0  0
  9 25  2  0  0  0  0
 10 26  1  0  0  0  0
 11 12  2  0  0  0  0
 11 27  1  0  0  0  0
 12 28  1  0  0  0  0
 13 22  1  0  0  0  0
 13 26  2  0  0  0  0
 14 23  2  0  0  0  0
 14 29  1  0  0  0  0
 15 24  1  0  0  0  0
 15 29  2  0  0  0  0
 16 28  2  0  0  0  0
 16 30  1  0  0  0  0
 17 32  1  0  0  0  0
 18 32  1  0  0  0  0
 18 33  2  0  0  0  0
 18 34  1  0  0  0  0
 19 21  2  0  0  0  0
 19 39  1  0  0  0  0
 20 22  2  0  0  0  0
 20 40  1  0  0  0  0
 21 51  1  0  0  0  0
 22 41  1  0  0  0  0
 23 31  1  0  0  0  0
 23 61  1  0  0  0  0
 24 31  2  0  0  0  0
 24 67  1  0  0  0  0
 25 81  1  0  0  0  0
 26 82  1  0  0  0  0
 27 30  2  0  0  0  0
 27 81  1  0  0  0  0
 28 83  1  0  0  0  0
 29 84  1  0  0  0  0
 30 85  1  0  0  0  0
 31 86  1  0  0  0  0
 32 65  2  0  0  0  0
 33 66  1  0  0  0  0
 33 70  1  0  0  0  0
 34 71  1  0  0  0  0
 34 76  2  0  0  0  0
 35 52  1  0  0  0  0
 35 72  1  0  0  0  0
 35 77  2  0  0  0  0
 36 62  1  0  0  0  0
 36 68  1  0  0  0  0
 36 78  2  0  0  0  0
 37 63  1  0  0  0  0
 37 73  1  0  0  0  0
 37 79  2  0  0  0  0
 38 69  1  0  0  0  0
 38 74  1  0  0  0  0
 38 80  2  0  0  0  0
 39 42  1  0  0  0  0
 40 52  1  0  0  0  0
 41 68  1  0  0  0  0
 42 44  1  0  0  0  0
 43 45  1  0  0  0  0
 43 47  1  0  0  0  0
 44 51  1  0  0  0  0
 45 53  1  0  0  0  0
 46 48  1  0  0  0  0
 46 54  1  0  0  0  0
 47 69  1  0  0  0  0
 48 67  1  0  0  0  0
 49 53  1  0  0  0  0
 49 69  1  0  0  0  0
 50 54  1  0  0  0  0
 50 67  1  0  0  0  0
 51 72  1  0  0  0  0
 52 68  1  0  0  0  0
 53 66  1  0  0  0  0
 54 82  1  0  0  0  0
 55 61  1  0  0  0  0
 56 63  1  0  0  0  0
 57 64  1  0  0  0  0
 58 64  1  0  0  0  0
 59 64  1  0  0  0  0
 60 75  1  0  0  0  0
 61 74  1  0  0  0  0
 62 64  1  0  0  0  0
 62 73  1  0  0  0  0
 63 75  1  0  0  0  0
 65 66  1  0  0  0  0
M  CHG  1  75   1
M  ISO  4  38 100  54 101  74 100  82 101
M  END
> <Batch ID>
0027

> <Smiles>
CNC(C)C(=O)NC(C(=O)N1Cc2cc([101O:1][101CH:1]3CCN(c4cc(F)cc(C(C)[100NH:0][100C:0](=O)N5CCCC(n6nc(-c7ccc(Oc8ccc(F)cc8F)cc7)c(C(N)=O)c6N)C5)c4F)C3)ccc2CC1C(=O)NC1CCCc2ccccc21)C(C)(C)C

> <Shape>
0.233

> <Color>
0.073

> <Negative vol penalty>
0.000

$$$$

  -OEChem-04042321283D

 89 99  0     1  0  0  0  0  0999 V2000
  -16.5023  -29.4604   23.4528 C   0  0  0  0  0  0  0  0  0  0  0  0
  -17.0965  -29.9193   22.2815 C   0  0  0  0  0  0  0  0  0  0  0  0
  -27.1074  -10.1411   20.4847 C   0  0  0  0  0  0  0  0  0  0  0  0
  -25.8191  -11.7500   19.2244 C   0  0  0  0  0  0  0  0  0  0  0  0
  -17.2871  -29.1987   24.5750 C   0  0  0  0  0  0  0  0  0  0  0  0
  -18.4759  -30.1178   22.2323 C   0  0  0  0  0  0  0  0  0  0  0  0
  -23.7866  -27.1358   17.3405 C   0  0  0  0  0  0  0  0  0  0  0  0
  -25.9802   -9.3275   20.5984 C   0  0  0  0  0  0  0  0  0  0  0  0
  -24.6918  -10.9364   19.3380 C   0  0  0  0  0  0  0  0  0  0  0  0
  -24.8386  -26.5501   16.6359 C   0  0  0  0  0  0  0  0  0  0  0  0
  -23.4784   -8.1451   17.8695 C   0  0  0  0  0  0  0  0  0  0  0  0
  -22.7088   -7.9428   16.7239 C   0  0  0  0  0  0  0  0  0  0  0  0
  -26.3166  -26.9203   18.5138 C   0  0  0  0  0  0  0  0  0  0  0  0
  -29.6400  -20.6028   20.6544 C   0  0  0  0  0  0  0  0  0  0  0  0
  -27.6975  -20.9437   18.6814 C   0  0  0  0  0  0  0  0  0  0  0  0
  -20.7961   -8.9113   17.8377 C   0  0  0  0  0  0  0  0  0  0  0  0
  -27.0269  -11.3524   19.7977 C   0  0  0  0  0  0  0  0  0  0  0  0
  -29.1586  -12.1681   18.6584 C   0  0  0  0  0  0  0  0  0  0  0  0
  -18.6780  -29.3848   24.5365 C   0  0  0  0  0  0  0  0  0  0  0  0
  -23.9920  -27.6025   18.6417 C   0  0  0  0  0  0  0  0  0  0  0  0
  -19.2798  -29.8596   23.3555 C   0  0  0  0  0  0  0  0  0  0  0  0
  -25.2635  -27.4965   19.2291 C   0  0  0  0  0  0  0  0  0  0  0  0
  -29.6403  -21.7541   19.8670 C   0  0  0  0  0  0  0  0  0  0  0  0
  -28.6690  -21.9246   18.8805 C   0  0  0  0  0  0  0  0  0  0  0  0
  -28.6685  -19.6218   20.4553 C   0  0  0  0  0  0  0  0  0  0  0  0
  -24.7724   -9.7251   20.0251 C   0  0  0  0  0  0  0  0  0  0  0  0
  -26.1005  -26.4429   17.2210 C   0  0  0  0  0  0  0  0  0  0  0  0
  -22.9068   -8.7304   18.9993 C   0  0  0  0  0  0  0  0  0  0  0  0
  -21.3677   -8.3259   16.7079 C   0  0  0  0  0  0  0  0  0  0  0  0
  -27.6972  -19.7923   19.4688 C   0  0  0  0  0  0  0  0  0  0  0  0
  -21.5656   -9.1135   18.9833 C   0  0  0  0  0  0  0  0  0  0  0  0
  -28.1908  -12.1936   19.6804 C   0  0  0  0  0  0  0  0  0  0  0  0
  -30.0497  -13.1542   19.0046 C   0  0  0  0  0  0  0  0  0  0  0  0
  -29.2442  -11.3283   17.4995 C   0  0  0  0  0  0  0  0  0  0  0  0
  -22.5140  -29.2224   21.6860 C   0  0  0  0  0  0  0  0  0  0  0  0
  -24.3825  -27.0006   22.6773 C   0  0  0  0  0  0  0  0  0  0  0  0
  -25.6300  -24.1503   23.1494 C   0  0  0  0  0  0  0  0  0  0  0  0
  -29.5636  -18.1301   22.2773 C   0  0  0  0  0  0  0  0  0  0  0  0
  -19.4790  -29.1336   25.7895 C   0  0  0  0  0  0  0  0  0  0  0  0
  -22.9035  -28.2960   19.4151 C   0  0  0  0  0  0  0  0  0  0  0  0
  -25.4468  -28.0438   20.6183 C   0  0  0  0  0  0  0  0  0  0  0  0
  -20.9799  -29.0124   25.5388 C   0  0  0  0  0  0  0  0  0  0  0  0
  -31.8171  -15.4295   22.8301 C   0  0  0  0  0  0  0  0  0  0  0  0
  -30.6947  -26.2929   21.2661 C   0  0  0  0  0  0  0  0  0  0  0  0
  -30.4374  -25.4268   22.4828 C   0  0  0  0  0  0  0  0  0  0  0  0
  -21.4610  -30.1353   24.6254 C   0  0  0  0  0  0  0  0  0  0  0  0
  -31.2344  -14.2927   21.9873 C   0  0  0  0  0  0  0  0  0  0  0  0
  -29.1547  -24.5745   16.3685 C   0  0  0  0  0  0  0  0  0  0  0  0
  -30.7215  -16.2817   23.4680 C   0  0  0  0  0  0  0  0  0  0  0  0
  -29.7545  -23.4623   17.2222 C   0  0  0  0  0  0  0  0  0  0  0  0
  -29.1320  -15.6633   21.6903 C   0  0  0  0  0  0  0  0  0  0  0  0
  -27.5434  -24.0023   18.0421 C   0  0  0  0  0  0  0  0  0  0  0  0
  -31.0771  -25.2759   20.2124 C   0  0  0  0  0  0  0  0  0  0  0  0
  -29.6909  -24.2257   21.9294 C   0  0  0  0  0  0  0  0  0  0  0  0
  -20.7760  -30.0636   23.2553 C   0  0  1  0  0  0  0  0  0  0  0  0
  -22.9592  -28.0076   20.9261 C   0  0  1  0  0  0  0  0  0  0  0  0
  -30.1971  -14.8164   20.9748 C   0  0  2  0  0  0  0  0  0  0  0  0
  -28.1144  -25.2003   17.2848 C   0  0  2  0  0  0  0  0  0  1  0  0
  -26.8373  -22.4130   24.4989 C   0  0  0  0  0  0  0  0  0  0  0  0
  -26.5208  -29.0932   23.2709 C   0  0  0  0  0  0  0  0  0  0  0  0
  -27.8367  -27.3137   24.4413 C   0  0  0  0  0  0  0  0  0  0  0  0
  -25.5820  -27.9581   25.2919 C   0  0  0  0  0  0  0  0  0  0  0  0
  -23.3487  -22.2719   22.9870 C   0  0  0  0  0  0  0  0  0  0  0  0
  -30.6927  -22.7886   20.1015 C   0  0  0  0  0  0  0  0  0  0  0  0
  -25.7648  -26.6275   23.1499 C   0  0  1  0  0  0  0  0  0  0  0  0
  -25.4817  -22.9651   24.0863 C   0  0  2  0  0  0  0  0  0  0  0  0
  -26.4182  -27.7448   24.0113 C   0  0  0  0  0  0  0  0  0  0  0  0
  -28.4434  -13.1222   20.6067 N   0  0  0  0  0  0  0  0  0  0  0  0
  -29.5801  -13.6893   20.1680 N   0  0  0  0  0  0  0  0  0  0  0  0
  -28.6543  -23.0562   18.0929 N   0  0  3  0  0  0  0  0  0  0  0  0
  -24.2936  -27.6816   21.4571 N   0  0  0  0  0  0  0  0  0  0  0  0
  -29.7783  -16.7461   22.4484 N   0  0  0  0  0  0  0  0  0  0  0  0
  -31.1814  -13.6071   18.4245 N   0  0  0  0  0  0  0  0  0  0  0  0
  -28.2448  -10.3671   17.2955 N   0  0  0  0  0  0  0  0  0  0  0  0
  -28.6703  -18.4530   21.2563 N   0  0  0  0  0  0  0  0  0  0  0  0
  -21.3755  -29.0258   22.4442 N   0  0  0  0  0  0  0  0  0  0  0  0
  -25.6300  -25.3466   23.8352 N   0  0  0  0  0  0  0  0  0  0  0  0
  -30.1356  -24.1227   20.4818 N   0  3  0  0  0  0  0  0  0  0  0  0
  -24.7118  -21.8745   23.4240 N   0  3  0  0  0  0  0  0  0  0  0  0
  -30.1882  -11.4162   16.6781 O   0  0  0  0  0  0  0  0  0  0  0  0
  -23.1562  -30.2619   21.5934 O   0  0  0  0  0  0  0  0  0  0  0  0
  -23.4067  -26.7026   23.3717 O   0  0  0  0  0  0  0  0  0  0  0  0
  -25.7389  -24.0271   21.9314 O   0  0  0  0  0  0  0  0  0  0  0  0
  -30.1511  -18.9680   22.9662 O   0  0  0  0  0  0  0  0  0  0  0  0
  -23.6723   -8.9313   20.1356 O   0  0  0  0  0  0  0  0  0  0  0  0
  -27.1219  -25.8659   16.5292 O   0  0  0  0  0  0  0  0  0  1  0  0
  -20.6292   -8.1330   15.6072 F   0  0  0  0  0  0  0  0  0  0  0  0
  -26.7586  -18.8562   19.2685 F   0  0  0  0  0  0  0  0  0  0  0  0
  -21.0113   -9.6774   20.0652 F   0  0  0  0  0  0  0  0  0  0  0  0
  1  2  1  0  0  0  0
  1  5  2  0  0  0  0
  2  6  2  0  0  0  0
  3  8  2  0  0  0  0
  3 17  1  0  0  0  0
  4  9  1  0  0  0  0
  4 17  2  0  0  0  0
  5 19  1  0  0  0  0
  6 21  1  0  0  0  0
  7 10  2  0  0  0  0
  7 20  1  0  0  0  0
  8 26  1  0  0  0  0
  9 26  2  0  0  0  0
 10 27  1  0  0  0  0
 11 12  2  0  0  0  0
 11 28  1  0  0  0  0
 12 29  1  0  0  0  0
 13 22  1  0  0  0  0
 13 27  2  0  0  0  0
 14 23  1  0  0  0  0
 14 25  2  0  0  0  0
 15 24  1  0  0  0  0
 15 30  2  0  0  0  0
 16 29  2  0  0  0  0
 16 31  1  0  0  0  0
 17 32  1  0  0  0  0
 18 32  1  0  0  0  0
 18 33  2  0  0  0  0
 18 34  1  0  0  0  0
 19 21  2  0  0  0  0
 19 39  1  0  0  0  0
 20 22  2  0  0  0  0
 20 40  1  0  0  0  0
 21 55  1  0  0  0  0
 22 41  1  0  0  0  0
 23 24  2  0  0  0  0
 23 64  1  0  0  0  0
 24 70  1  0  0  0  0
 25 30  1  0  0  0  0
 25 75  1  0  0  0  0
 26 85  1  0  0  0  0
 27 86  1  0  0  0  0
 28 31  2  0  0  0  0
 28 85  1  0  0  0  0
 29 87  1  0  0  0  0
 30 88  1  0  0  0  0
 31 89  1  0  0  0  0
 32 68  2  0  0  0  0
 33 69  1  0  0  0  0
 33 73  1  0  0  0  0
 34 74  1  0  0  0  0
 34 80  2  0  0  0  0
 35 56  1  0  0  0  0
 35 76  1  0  0  0  0
 35 81  2  0  0  0  0
 36 65  1  0  0  0  0
 36 71  1  0  0  0  0
 36 82  2  0  0  0  0
 37 66  1  0  0  0  0
 37 77  1  0  0  0  0
 37 83  2  0  0  0  0
 38 72  1  0  0  0  0
 38 75  1  0  0  0  0
 38 84  2  0  0  0  0
 39 42  1  0  0  0  0
 40 56  1  0  0  0  0
 41 71  1  0  0  0  0
 42 46  1  0  0  0  0
 43 47  1  0  0  0  0
 43 49  1  0  0  0  0
 44 45  1  0  0  0  0
 44 53  1  0  0  0  0
 45 54  1  0  0  0  0
 46 55  1  0  0  0  0
 47 57  1  0  0  0  0
 48 50  1  0  0  0  0
 48 58  1  0  0  0  0
 49 72  1  0  0  0  0
 50 70  1  0  0  0  0
 51 57  1  0  0  0  0
 51 72  1  0  0  0  0
 52 58  1  0  0  0  0
 52 70  1  0  0  0  0
 53 78  1  0  0  0  0
 54 78  1  0  0  0  0
 55 76  1  0  0  0  0
 56 71  1  0  0  0  0
 57 69  1  0  0  0  0
 58 86  1  0  0  0  0
 59 66  1  0  0  0  0
 60 67  1  0  0  0  0
 61 67  1  0  0  0  0
 62 67  1  0  0  0  0
 63 79  1  0  0  0  0
 64 78  1  0  0  0  0
 65 67  1  0  0  0  0
 65 77  1  0  0  0  0
 66 79  1  0  0  0  0
 68 69  1  0  0  0  0
M  CHG  2  78   1  79   1
M  ISO  4  38 100  58 101  75 100  86 101
M  END
> <Batch ID>
0027

> <Smiles>
CNC(C)C(=O)NC(C(=O)N1Cc2cc([101O:1][101CH:1]3CCN(c4cc(F)c([100NH:0][100C:0](=O)N5CCCC(n6nc(-c7ccc(Oc8ccc(F)cc8F)cc7)c(C(N)=O)c6N)C5)cc4CN4CCCC4)C3)ccc2CC1C(=O)NC1CCCc2ccccc21)C(C)(C)C

> <Shape>
0.253

> <Color>
0.052

> <Negative vol penalty>
0.000

$$$$

  -OEChem-04042321283D

 89 98  0     1  0  0  0  0  0999 V2000
  -16.3841  -26.1081   25.2113 C   0  0  0  0  0  0  0  0  0  0  0  0
  -17.6712  -25.5893   25.1139 C   0  0  0  0  0  0  0  0  0  0  0  0
  -23.4999  -10.2287   22.3233 C   0  0  0  0  0  0  0  0  0  0  0  0
  -22.3285  -10.4279   20.2197 C   0  0  0  0  0  0  0  0  0  0  0  0
  -16.0849  -27.3407   24.6324 C   0  0  0  0  0  0  0  0  0  0  0  0
  -18.6598  -26.3024   24.4366 C   0  0  0  0  0  0  0  0  0  0  0  0
  -23.0521  -26.4044   26.9549 C   0  0  0  0  0  0  0  0  0  0  0  0
  -26.0644  -20.0423   18.6167 C   0  0  0  0  0  0  0  0  0  0  0  0
  -27.0135  -21.0556   18.7507 C   0  0  0  0  0  0  0  0  0  0  0  0
  -23.0331   -8.9214   22.4595 C   0  0  0  0  0  0  0  0  0  0  0  0
  -21.8616   -9.1205   20.3559 C   0  0  0  0  0  0  0  0  0  0  0  0
  -23.8468  -25.2604   26.8955 C   0  0  0  0  0  0  0  0  0  0  0  0
  -20.1721   -7.3833   23.3942 C   0  0  0  0  0  0  0  0  0  0  0  0
  -19.6722   -7.0009   24.6389 C   0  0  0  0  0  0  0  0  0  0  0  0
  -25.2155  -26.3062   25.2068 C   0  0  0  0  0  0  0  0  0  0  0  0
  -21.3538   -5.2721   24.7831 C   0  0  0  0  0  0  0  0  0  0  0  0
  -23.1476  -10.9820   21.2034 C   0  0  0  0  0  0  0  0  0  0  0  0
  -24.8200  -12.7499   20.4384 C   0  0  0  0  0  0  0  0  0  0  0  0
  -17.0727  -28.0738   23.9560 C   0  0  0  0  0  0  0  0  0  0  0  0
  -23.3271  -27.5056   26.1314 C   0  0  0  0  0  0  0  0  0  0  0  0
  -18.3732  -27.5454   23.8470 C   0  0  0  0  0  0  0  0  0  0  0  0
  -24.4244  -27.4639   25.2594 C   0  0  0  0  0  0  0  0  0  0  0  0
  -25.1936  -19.7587   19.6689 C   0  0  0  0  0  0  0  0  0  0  0  0
  -27.0919  -21.7853   19.9370 C   0  0  0  0  0  0  0  0  0  0  0  0
  -26.2212  -21.5017   20.9891 C   0  0  0  0  0  0  0  0  0  0  0  0
  -22.2140   -8.3673   21.4758 C   0  0  0  0  0  0  0  0  0  0  0  0
  -24.9269  -25.2100   26.0193 C   0  0  0  0  0  0  0  0  0  0  0  0
  -21.2628   -6.7101   22.8438 C   0  0  0  0  0  0  0  0  0  0  0  0
  -20.2631   -5.9453   25.3334 C   0  0  0  0  0  0  0  0  0  0  0  0
  -21.8537   -5.6545   23.5383 C   0  0  0  0  0  0  0  0  0  0  0  0
  -25.2720  -20.4884   20.8551 C   0  0  0  0  0  0  0  0  0  0  0  0
  -23.6291  -12.3327   21.0624 C   0  0  0  0  0  0  0  0  0  0  0  0
  -24.8156  -14.1171   20.5694 C   0  0  0  0  0  0  0  0  0  0  0  0
  -25.8392  -11.9711   19.7976 C   0  0  0  0  0  0  0  0  0  0  0  0
  -21.7558  -29.0320   23.8281 C   0  0  0  0  0  0  0  0  0  0  0  0
  -24.2722  -31.0719   23.9992 C   0  0  0  0  0  0  0  0  0  0  0  0
  -27.5395  -31.5776   24.8451 C   0  0  0  0  0  0  0  0  0  0  0  0
  -21.7321  -18.8629   20.0347 C   0  0  0  0  0  0  0  0  0  0  0  0
  -16.6899  -29.3796   23.3057 C   0  0  0  0  0  0  0  0  0  0  0  0
  -22.4763  -28.7423   26.2267 C   0  0  0  0  0  0  0  0  0  0  0  0
  -24.7741  -28.6271   24.3689 C   0  0  0  0  0  0  0  0  0  0  0  0
  -17.8884  -30.2464   22.9281 C   0  0  0  0  0  0  0  0  0  0  0  0
  -30.1174  -23.9100   20.4314 C   0  0  0  0  0  0  0  0  0  0  0  0
  -29.0836  -24.9379   20.0183 C   0  0  0  0  0  0  0  0  0  0  0  0
  -21.8830  -17.1691   23.3225 C   0  0  0  0  0  0  0  0  0  0  0  0
  -18.9515  -29.4096   22.2234 C   0  0  0  0  0  0  0  0  0  0  0  0
  -22.3819  -15.7726   22.9552 C   0  0  0  0  0  0  0  0  0  0  0  0
  -29.5092  -22.6030   19.9357 C   0  0  0  0  0  0  0  0  0  0  0  0
  -27.7671  -24.2202   20.2931 C   0  0  0  0  0  0  0  0  0  0  0  0
  -21.1054  -17.8127   22.1785 C   0  0  0  0  0  0  0  0  0  0  0  0
  -22.3518  -16.4612   20.5250 C   0  0  0  0  0  0  0  0  0  0  0  0
  -19.4789  -28.3005   23.1418 C   0  0  1  0  0  0  0  0  0  0  0  0
  -22.5396  -29.6091   24.9729 C   0  0  1  0  0  0  0  0  0  0  0  0
  -23.1791  -15.8033   21.6396 C   0  0  2  0  0  0  0  0  0  0  0  0
  -29.3276  -33.3383   24.8334 C   0  0  0  0  0  0  0  0  0  0  0  0
  -24.6262  -30.6890   20.9929 C   0  0  0  0  0  0  0  0  0  0  0  0
  -26.9203  -31.6682   21.2089 C   0  0  0  0  0  0  0  0  0  0  0  0
  -24.9202  -33.0424   21.7866 C   0  0  0  0  0  0  0  0  0  0  0  0
  -22.7572  -20.2942   18.3084 C   0  0  0  0  0  0  0  0  0  0  0  0
  -27.8169  -31.4801   27.7900 C   0  0  0  0  0  0  0  0  0  0  0  0
  -24.1926  -18.6646   19.4787 C   0  0  0  0  0  0  0  0  0  0  0  0
  -26.5073  -22.2907   24.5950 C   0  0  0  0  0  0  0  0  0  0  0  0
  -27.1455  -21.8659   23.2780 C   0  0  0  0  0  0  0  0  0  0  0  0
  -26.3202  -23.7993   24.7062 C   0  0  0  0  0  0  0  0  0  1  0  0
  -25.6210  -31.1644   23.3276 C   0  0  1  0  0  0  0  0  0  0  0  0
  -28.2157  -32.6821   25.6371 C   0  0  2  0  0  0  0  0  0  0  0  0
  -25.5144  -31.6182   21.8442 C   0  0  0  0  0  0  0  0  0  0  0  0
  -22.9197  -13.3523   21.5534 N   0  0  0  0  0  0  0  0  0  0  0  0
  -23.6671  -14.4238   21.2381 N   0  0  0  0  0  0  0  0  0  0  0  0
  -28.0590  -22.8025   20.0480 N   0  0  0  0  0  0  0  0  0  0  0  0
  -23.9085  -29.8114   24.4941 N   0  0  0  0  0  0  0  0  0  0  0  0
  -21.8689  -17.7897   20.9304 N   0  0  0  0  0  0  0  0  0  0  0  0
  -25.6821  -15.0749   20.1767 N   0  0  0  0  0  0  0  0  0  0  0  0
  -25.6863  -10.5787   19.7517 N   0  0  0  0  0  0  0  0  0  0  0  0
  -26.3082  -22.2350   22.1622 N   0  0  0  0  0  0  0  0  0  0  0  0
  -20.4149  -28.8428   24.1031 N   0  0  0  0  0  0  0  0  0  0  0  0
  -26.4340  -32.0410   24.1636 N   0  0  0  0  0  0  0  0  0  0  0  0
  -22.8463  -19.1822   19.2440 N   0  0  0  0  0  0  0  0  0  0  0  0
  -28.8034  -32.1342   26.8922 N   0  3  0  0  0  0  0  0  0  0  0  0
  -26.8633  -12.4932   19.2955 O   0  0  0  0  0  0  0  0  0  0  0  0
  -22.3252  -28.7785   22.7731 O   0  0  0  0  0  0  0  0  0  0  0  0
  -23.5703  -32.0823   24.0882 O   0  0  0  0  0  0  0  0  0  0  0  0
  -27.9531  -30.4203   24.8293 O   0  0  0  0  0  0  0  0  0  0  0  0
  -20.6773  -19.5055   19.9535 O   0  0  0  0  0  0  0  0  0  0  0  0
  -21.7584   -7.0915   21.6083 O   0  0  0  0  0  0  0  0  0  0  0  0
  -25.7038  -24.0944   25.9589 O   0  0  0  0  0  0  0  0  0  1  0  0
  -19.7839   -5.5791   26.5294 F   0  0  0  0  0  0  0  0  0  0  0  0
  -22.9025   -5.0048   23.0152 F   0  0  0  0  0  0  0  0  0  0  0  0
  -24.1837  -20.1297   22.1565 Cl  0  0  0  0  0  0  0  0  0  0  0  0
  1  2  1  0  0  0  0
  1  5  2  0  0  0  0
  2  6  2  0  0  0  0
  3 10  2  0  0  0  0
  3 17  1  0  0  0  0
  4 11  1  0  0  0  0
  4 17  2  0  0  0  0
  5 19  1  0  0  0  0
  6 21  1  0  0  0  0
  7 12  2  0  0  0  0
  7 20  1  0  0  0  0
  8  9  1  0  0  0  0
  8 23  2  0  0  0  0
  9 24  2  0  0  0  0
 10 26  1  0  0  0  0
 11 26  2  0  0  0  0
 12 27  1  0  0  0  0
 13 14  2  0  0  0  0
 13 28  1  0  0  0  0
 14 29  1  0  0  0  0
 15 22  1  0  0  0  0
 15 27  2  0  0  0  0
 16 29  2  0  0  0  0
 16 30  1  0  0  0  0
 17 32  1  0  0  0  0
 18 32  1  0  0  0  0
 18 33  2  0  0  0  0
 18 34  1  0  0  0  0
 19 21  2  0  0  0  0
 19 39  1  0  0  0  0
 20 22  2  0  0  0  0
 20 40  1  0  0  0  0
 21 52  1  0  0  0  0
 22 41  1  0  0  0  0
 23 31  1  0  0  0  0
 23 61  1  0  0  0  0
 24 25  1  0  0  0  0
 24 70  1  0  0  0  0
 25 31  2  0  0  0  0
 25 75  1  0  0  0  0
 26 85  1  0  0  0  0
 27 86  1  0  0  0  0
 28 30  2  0  0  0  0
 28 85  1  0  0  0  0
 29 87  1  0  0  0  0
 30 88  1  0  0  0  0
 31 89  1  0  0  0  0
 32 68  2  0  0  0  0
 33 69  1  0  0  0  0
 33 73  1  0  0  0  0
 34 74  1  0  0  0  0
 34 80  2  0  0  0  0
 35 53  1  0  0  0  0
 35 76  1  0  0  0  0
 35 81  2  0  0  0  0
 36 65  1  0  0  0  0
 36 71  1  0  0  0  0
 36 82  2  0  0  0  0
 37 66  1  0  0  0  0
 37 77  1  0  0  0  0
 37 83  2  0  0  0  0
 38 72  1  0  0  0  0
 38 78  1  0  0  0  0
 38 84  2  0  0  0  0
 39 42  1  0  0  0  0
 40 53  1  0  0  0  0
 41 71  1  0  0  0  0
 42 46  1  0  0  0  0
 43 44  1  0  0  0  0
 43 48  1  0  0  0  0
 44 49  1  0  0  0  0
 45 47  1  0  0  0  0
 45 50  1  0  0  0  0
 46 52  1  0  0  0  0
 47 54  1  0  0  0  0
 48 70  1  0  0  0  0
 49 70  1  0  0  0  0
 50 72  1  0  0  0  0
 51 54  1  0  0  0  0
 51 72  1  0  0  0  0
 52 76  1  0  0  0  0
 53 71  1  0  0  0  0
 54 69  1  0  0  0  0
 55 66  1  0  0  0  0
 56 67  1  0  0  0  0
 57 67  1  0  0  0  0
 58 67  1  0  0  0  0
 59 78  1  0  0  0  0
 60 79  1  0  0  0  0
 61 78  1  0  0  0  0
 62 63  1  0  0  0  0
 62 64  1  0  0  0  0
 63 75  1  0  0  0  0
 64 86  1  0  0  0  0
 65 67  1  0  0  0  0
 65 77  1  0  0  0  0
 66 79  1  0  0  0  0
 68 69  1  0  0  0  0
M  CHG  1  79   1
M  ISO  4  38 100  64 101  78 100  86 101
M  END
> <Batch ID>
0027

> <Smiles>
CNC(C)C(=O)NC(C(=O)N1Cc2cc([101O:1][101CH2:1]CCNc3c(N4CCCC4)ccc(C[100N:0](C)[100C:0](=O)N4CCCC(n5nc(-c6ccc(Oc7ccc(F)cc7F)cc6)c(C(N)=O)c5N)C4)c3Cl)ccc2CC1C(=O)NC1CCCc2ccccc21)C(C)(C)C

> <Shape>
0.255

> <Color>
0.110

> <Negative vol penalty>
0.000

$$$$

  -OEChem-04042321283D

 84 93  0     1  0  0  0  0  0999 V2000
  -32.2341  -13.3755   21.5049 C   0  0  0  0  0  0  0  0  0  0  0  0
  -31.3680  -14.2054   22.2077 C   0  0  0  0  0  0  0  0  0  0  0  0
  -29.0081  -26.0546   21.2838 C   0  0  0  0  0  0  0  0  0  0  0  0
  -27.1537  -24.5127   21.4281 C   0  0  0  0  0  0  0  0  0  0  0  0
  -31.7755  -12.6835   20.3859 C   0  0  0  0  0  0  0  0  0  0  0  0
  -30.0401  -14.3344   21.7990 C   0  0  0  0  0  0  0  0  0  0  0  0
  -21.8917  -24.7144   23.4219 C   0  0  0  0  0  0  0  0  0  0  0  0
  -25.5706  -17.8917   23.9195 C   0  0  0  0  0  0  0  0  0  0  0  0
  -22.5574  -23.5355   23.7577 C   0  0  0  0  0  0  0  0  0  0  0  0
  -29.8267  -25.1310   21.9336 C   0  0  0  0  0  0  0  0  0  0  0  0
  -27.9723  -23.5890   22.0779 C   0  0  0  0  0  0  0  0  0  0  0  0
  -25.0507  -19.1582   23.6561 C   0  0  0  0  0  0  0  0  0  0  0  0
  -29.6675  -20.6816   23.4531 C   0  0  0  0  0  0  0  0  0  0  0  0
  -29.6027  -19.3516   23.0378 C   0  0  0  0  0  0  0  0  0  0  0  0
  -23.3525  -18.1644   22.2606 C   0  0  0  0  0  0  0  0  0  0  0  0
  -23.5192  -23.4479   21.5431 C   0  0  0  0  0  0  0  0  0  0  0  0
  -30.2886  -20.0115   20.8172 C   0  0  0  0  0  0  0  0  0  0  0  0
  -27.6715  -25.7456   21.0311 C   0  0  0  0  0  0  0  0  0  0  0  0
  -26.6151  -26.8222   18.9738 C   0  0  0  0  0  0  0  0  0  0  0  0
  -30.4445  -12.8143   19.9566 C   0  0  0  0  0  0  0  0  0  0  0  0
  -24.9909  -16.7510   23.3457 C   0  0  0  0  0  0  0  0  0  0  0  0
  -29.5521  -13.6256   20.6864 C   0  0  0  0  0  0  0  0  0  0  0  0
  -22.0397  -25.2600   22.1467 C   0  0  0  0  0  0  0  0  0  0  0  0
  -23.8653  -16.8843   22.5203 C   0  0  0  0  0  0  0  0  0  0  0  0
  -23.3712  -22.9023   22.8183 C   0  0  0  0  0  0  0  0  0  0  0  0
  -29.3089  -23.8982   22.3306 C   0  0  0  0  0  0  0  0  0  0  0  0
  -23.9433  -19.2950   22.8243 C   0  0  0  0  0  0  0  0  0  0  0  0
  -30.0428  -21.6766   22.5504 C   0  0  0  0  0  0  0  0  0  0  0  0
  -29.9133  -19.0165   21.7199 C   0  0  0  0  0  0  0  0  0  0  0  0
  -22.8535  -24.6267   21.2073 C   0  0  0  0  0  0  0  0  0  0  0  0
  -30.3534  -21.3416   21.2325 C   0  0  0  0  0  0  0  0  0  0  0  0
  -26.8252  -26.6995   20.3604 C   0  0  0  0  0  0  0  0  0  0  0  0
  -25.7341  -27.8689   18.8513 C   0  0  0  0  0  0  0  0  0  0  0  0
  -27.1667  -26.0583   17.8931 C   0  0  0  0  0  0  0  0  0  0  0  0
  -25.9914  -14.4897   21.3483 C   0  0  0  0  0  0  0  0  0  0  0  0
  -23.1032  -13.1708   22.0126 C   0  0  0  0  0  0  0  0  0  0  0  0
  -19.8835  -13.6191   23.0514 C   0  0  0  0  0  0  0  0  0  0  0  0
  -21.6496  -30.2251   22.3621 C   0  0  0  0  0  0  0  0  0  0  0  0
  -29.9992  -12.0362   18.7436 C   0  0  0  0  0  0  0  0  0  0  0  0
  -25.5472  -15.3895   23.6611 C   0  0  0  0  0  0  0  0  0  0  0  0
  -23.1937  -15.6895   21.8959 C   0  0  0  0  0  0  0  0  0  0  0  0
  -28.7114  -12.5767   18.1304 C   0  0  0  0  0  0  0  0  0  0  0  0
  -19.0860  -27.6957   21.4999 C   0  0  0  0  0  0  0  0  0  0  0  0
  -24.3716  -31.9041   21.0208 C   0  0  0  0  0  0  0  0  0  0  0  0
  -19.7844  -26.3831   21.8522 C   0  0  0  0  0  0  0  0  0  0  0  0
  -27.6584  -12.7624   19.2127 C   0  0  0  0  0  0  0  0  0  0  0  0
  -25.3014  -30.7816   20.5603 C   0  0  0  0  0  0  0  0  0  0  0  0
  -19.5948  -28.8558   22.3505 C   0  0  0  0  0  0  0  0  0  0  0  0
  -23.7312  -31.5672   22.3626 C   0  0  0  0  0  0  0  0  0  0  0  0
  -21.7692  -27.7184   22.6608 C   0  0  0  0  0  0  0  0  0  0  0  0
  -23.8975  -29.1424   21.9044 C   0  0  0  0  0  0  0  0  0  0  0  0
  -21.3132  -26.5417   21.7850 C   0  0  1  0  0  0  0  0  0  0  0  0
  -28.1116  -13.8052   20.2423 C   0  0  1  0  0  0  0  0  0  0  0  0
  -25.1916  -14.3410   22.6116 C   0  0  1  0  0  0  0  0  0  0  0  0
  -24.5677  -29.4293   20.5462 C   0  0  2  0  0  0  0  0  0  0  0  0
  -17.7508  -12.3601   23.4561 C   0  0  0  0  0  0  0  0  0  0  0  0
  -22.6065  -13.0503   19.0045 C   0  0  0  0  0  0  0  0  0  0  0  0
  -20.1757  -12.6986   19.4904 C   0  0  0  0  0  0  0  0  0  0  0  0
  -21.8559  -11.0266   20.2677 C   0  0  0  0  0  0  0  0  0  0  0  0
  -19.8699  -14.3347   25.9231 C   0  0  0  0  0  0  0  0  0  0  0  0
  -24.0838  -21.6426   23.1781 C   0  0  0  0  0  0  0  0  0  1  0  0
  -21.7191  -13.2735   21.4188 C   0  0  1  0  0  0  0  0  0  0  0  0
  -19.0418  -12.8755   24.0727 C   0  0  2  0  0  0  0  0  0  0  0  0
  -21.6029  -12.5351   20.0554 C   0  0  0  0  0  0  0  0  0  0  0  0
  -26.1337  -27.5967   21.0681 N   0  0  0  0  0  0  0  0  0  0  0  0
  -25.4804  -28.2932   20.1225 N   0  0  0  0  0  0  0  0  0  0  0  0
  -23.7786  -14.3802   22.2295 N   0  0  0  0  0  0  0  0  0  0  0  0
  -21.0539  -28.9542   22.3073 N   0  0  0  0  0  0  0  0  0  0  0  0
  -23.0510  -30.2730   22.3138 N   0  0  0  0  0  0  0  0  0  0  0  0
  -25.1597  -28.4585   17.7814 N   0  0  0  0  0  0  0  0  0  0  0  0
  -28.0561  -25.0183   18.1959 N   0  0  0  0  0  0  0  0  0  0  0  0
  -27.1891  -13.8006   21.3563 N   0  0  0  0  0  0  0  0  0  0  0  0
  -20.7991  -12.7878   22.4416 N   0  0  0  0  0  0  0  0  0  0  0  0
  -18.6937  -13.7738   25.2098 N   0  3  0  0  0  0  0  0  0  0  0  0
  -26.8922  -26.3017   16.6936 O   0  0  0  0  0  0  0  0  0  0  0  0
  -25.5536  -15.1776   20.4335 O   0  0  0  0  0  0  0  0  0  0  0  0
  -23.5653  -12.0590   22.2809 O   0  0  0  0  0  0  0  0  0  0  0  0
  -19.7404  -14.8167   22.8153 O   0  0  0  0  0  0  0  0  0  0  0  0
  -20.9685  -31.2549   22.4455 O   0  0  0  0  0  0  0  0  0  0  0  0
  -30.1074  -22.9965   22.9645 O   0  0  0  0  0  0  0  0  0  0  0  0
  -23.4308  -20.5387   22.5633 O   0  0  0  0  0  0  0  0  0  1  0  0
  -29.8525  -17.7391   21.3217 F   0  0  0  0  0  0  0  0  0  0  0  0
  -23.0006  -25.1426   19.9789 F   0  0  0  0  0  0  0  0  0  0  0  0
  -30.7157  -22.2929   20.3611 F   0  0  0  0  0  0  0  0  0  0  0  0
  1  2  1  0  0  0  0
  1  5  2  0  0  0  0
  2  6  2  0  0  0  0
  3 10  2  0  0  0  0
  3 18  1  0  0  0  0
  4 11  1  0  0  0  0
  4 18  2  0  0  0  0
  5 20  1  0  0  0  0
  6 22  1  0  0  0  0
  7  9  2  0  0  0  0
  7 23  1  0  0  0  0
  8 12  2  0  0  0  0
  8 21  1  0  0  0  0
  9 25  1  0  0  0  0
 10 26  1  0  0  0  0
 11 26  2  0  0  0  0
 12 27  1  0  0  0  0
 13 14  2  0  0  0  0
 13 28  1  0  0  0  0
 14 29  1  0  0  0  0
 15 24  1  0  0  0  0
 15 27  2  0  0  0  0
 16 25  2  0  0  0  0
 16 30  1  0  0  0  0
 17 29  2  0  0  0  0
 17 31  1  0  0  0  0
 18 32  1  0  0  0  0
 19 32  1  0  0  0  0
 19 33  2  0  0  0  0
 19 34  1  0  0  0  0
 20 22  2  0  0  0  0
 20 39  1  0  0  0  0
 21 24  2  0  0  0  0
 21 40  1  0  0  0  0
 22 53  1  0  0  0  0
 23 30  2  0  0  0  0
 23 52  1  0  0  0  0
 24 41  1  0  0  0  0
 25 61  1  0  0  0  0
 26 80  1  0  0  0  0
 27 81  1  0  0  0  0
 28 31  2  0  0  0  0
 28 80  1  0  0  0  0
 29 82  1  0  0  0  0
 30 83  1  0  0  0  0
 31 84  1  0  0  0  0
 32 65  2  0  0  0  0
 33 66  1  0  0  0  0
 33 70  1  0  0  0  0
 34 71  1  0  0  0  0
 34 75  2  0  0  0  0
 35 54  1  0  0  0  0
 35 72  1  0  0  0  0
 35 76  2  0  0  0  0
 36 62  1  0  0  0  0
 36 67  1  0  0  0  0
 36 77  2  0  0  0  0
 37 63  1  0  0  0  0
 37 73  1  0  0  0  0
 37 78  2  0  0  0  0
 38 68  1  0  0  0  0
 38 69  1  0  0  0  0
 38 79  2  0  0  0  0
 39 42  1  0  0  0  0
 40 54  1  0  0  0  0
 41 67  1  0  0  0  0
 42 46  1  0  0  0  0
 43 45  1  0  0  0  0
 43 48  1  0  0  0  0
 44 47  1  0  0  0  0
 44 49  1  0  0  0  0
 45 52  1  0  0  0  0
 46 53  1  0  0  0  0
 47 55  1  0  0  0  0
 48 68  1  0  0  0  0
 49 69  1  0  0  0  0
 50 52  1  0  0  0  0
 50 68  1  0  0  0  0
 51 55  1  0  0  0  0
 51 69  1  0  0  0  0
 53 72  1  0  0  0  0
 54 67  1  0  0  0  0
 55 66  1  0  0  0  0
 56 63  1  0  0  0  0
 57 64  1  0  0  0  0
 58 64  1  0  0  0  0
 59 64  1  0  0  0  0
 60 74  1  0  0  0  0
 61 81  1  0  0  0  0
 62 64  1  0  0  0  0
 62 73  1  0  0  0  0
 63 74  1  0  0  0  0
 65 66  1  0  0  0  0
M  CHG  1  74   1
M  ISO  4  38 100  61 101  68 100  81 101
M  END
> <Batch ID>
0027

> <Smiles>
CNC(C)C(=O)NC(C(=O)N1Cc2cc([101O:1][101CH2:1]c3ccc(C4CCC[100N:0]([100C:0](=O)N5CCCC(n6nc(-c7ccc(Oc8ccc(F)cc8F)cc7)c(C(N)=O)c6N)C5)C4)c(F)c3)ccc2CC1C(=O)NC1CCCc2ccccc21)C(C)(C)C

> <Shape>
0.235

> <Color>
0.066

> <Negative vol penalty>
0.000

$$$$

  -OEChem-04042321283D

 83 92  0     1  0  0  0  0  0999 V2000
  -29.8088  -34.7236   24.1944 C   0  0  0  0  0  0  0  0  0  0  0  0
  -30.1546  -33.4159   23.8693 C   0  0  0  0  0  0  0  0  0  0  0  0
  -23.1965   -9.6647   20.0951 C   0  0  0  0  0  0  0  0  0  0  0  0
  -23.8311   -9.9589   22.4076 C   0  0  0  0  0  0  0  0  0  0  0  0
  -28.4764  -35.0495   24.4445 C   0  0  0  0  0  0  0  0  0  0  0  0
  -29.1683  -32.4330   23.7952 C   0  0  0  0  0  0  0  0  0  0  0  0
  -28.9977  -27.6715   19.9474 C   0  0  0  0  0  0  0  0  0  0  0  0
  -30.4669  -19.2705   19.7759 C   0  0  0  0  0  0  0  0  0  0  0  0
  -30.3513  -17.8895   19.9342 C   0  0  0  0  0  0  0  0  0  0  0  0
  -22.4899   -8.5113   20.4357 C   0  0  0  0  0  0  0  0  0  0  0  0
  -23.1244   -8.8055   22.7482 C   0  0  0  0  0  0  0  0  0  0  0  0
  -29.3509  -26.3312   20.0974 C   0  0  0  0  0  0  0  0  0  0  0  0
  -19.9053   -7.9239   23.2781 C   0  0  0  0  0  0  0  0  0  0  0  0
  -19.0889   -7.9758   24.4078 C   0  0  0  0  0  0  0  0  0  0  0  0
  -27.0521  -25.7863   20.5853 C   0  0  0  0  0  0  0  0  0  0  0  0
  -29.8104  -19.5895   22.0791 C   0  0  0  0  0  0  0  0  0  0  0  0
  -20.3701   -6.1925   25.4156 C   0  0  0  0  0  0  0  0  0  0  0  0
  -23.8671  -10.3885   21.0810 C   0  0  0  0  0  0  0  0  0  0  0  0
  -24.1074  -12.8989   20.6966 C   0  0  0  0  0  0  0  0  0  0  0  0
  -27.4720  -34.0721   24.3639 C   0  0  0  0  0  0  0  0  0  0  0  0
  -27.6687  -28.0817   20.1262 C   0  0  0  0  0  0  0  0  0  0  0  0
  -27.8214  -32.7458   24.0457 C   0  0  0  0  0  0  0  0  0  0  0  0
  -26.6842  -27.1321   20.4344 C   0  0  0  0  0  0  0  0  0  0  0  0
  -29.6948  -18.2085   22.2374 C   0  0  0  0  0  0  0  0  0  0  0  0
  -30.1965  -20.1205   20.8484 C   0  0  0  0  0  0  0  0  0  0  0  0
  -29.9652  -17.3585   21.1649 C   0  0  0  0  0  0  0  0  0  0  0  0
  -22.4538   -8.0817   21.7622 C   0  0  0  0  0  0  0  0  0  0  0  0
  -28.3786  -25.3888   20.4193 C   0  0  0  0  0  0  0  0  0  0  0  0
  -20.9541   -7.0062   23.2170 C   0  0  0  0  0  0  0  0  0  0  0  0
  -19.3213   -7.1101   25.4766 C   0  0  0  0  0  0  0  0  0  0  0  0
  -21.1865   -6.1406   24.2858 C   0  0  0  0  0  0  0  0  0  0  0  0
  -24.5977  -11.5797   20.7297 C   0  0  0  0  0  0  0  0  0  0  0  0
  -25.1847  -13.6559   20.3056 C   0  0  0  0  0  0  0  0  0  0  0  0
  -22.7955  -13.3956   20.9930 C   0  0  0  0  0  0  0  0  0  0  0  0
  -26.1779  -30.0458   22.1321 C   0  0  0  0  0  0  0  0  0  0  0  0
  -23.6236  -29.4170   20.2342 C   0  0  0  0  0  0  0  0  0  0  0  0
  -22.1030  -27.3014   18.0299 C   0  0  0  0  0  0  0  0  0  0  0  0
  -30.5843  -14.9762   20.6286 C   0  0  0  0  0  0  0  0  0  0  0  0
  -26.0518  -34.4621   24.6890 C   0  0  0  0  0  0  0  0  0  0  0  0
  -27.2994  -29.5271   19.9345 C   0  0  0  0  0  0  0  0  0  0  0  0
  -25.2398  -27.5178   20.6169 C   0  0  0  0  0  0  0  0  0  0  0  0
  -25.0177  -33.4406   24.2228 C   0  0  0  0  0  0  0  0  0  0  0  0
  -29.7023  -12.2671   18.4932 C   0  0  0  0  0  0  0  0  0  0  0  0
  -25.4511  -32.0292   24.6060 C   0  0  0  0  0  0  0  0  0  0  0  0
  -28.2553  -11.9553   18.8819 C   0  0  0  0  0  0  0  0  0  0  0  0
  -30.9739  -23.5844   19.8497 C   0  0  0  0  0  0  0  0  0  0  0  0
  -30.5409  -12.6697   19.7049 C   0  0  0  0  0  0  0  0  0  0  0  0
  -30.7084  -22.1343   19.4456 C   0  0  0  0  0  0  0  0  0  0  0  0
  -28.5335  -13.4482   20.9021 C   0  0  0  0  0  0  0  0  0  0  0  0
  -30.0442  -22.4573   21.7532 C   0  0  0  0  0  0  0  0  0  0  0  0
  -26.7768  -31.6568   23.9312 C   0  0  1  0  0  0  0  0  0  0  0  0
  -26.0058  -29.9126   20.6454 C   0  0  1  0  0  0  0  0  0  0  0  0
  -27.6336  -13.1006   19.7050 C   0  0  2  0  0  0  0  0  0  0  0  0
  -30.0377  -23.8030   21.0293 C   0  0  2  0  0  0  0  0  0  1  0  0
  -29.2809  -17.6672   23.5673 C   0  0  0  0  0  0  0  0  0  0  0  0
  -20.0043  -27.0394   16.6793 C   0  0  0  0  0  0  0  0  0  0  0  0
  -22.1008  -28.6284   22.7579 C   0  0  0  0  0  0  0  0  0  0  0  0
  -20.4051  -27.5034   21.2994 C   0  0  0  0  0  0  0  0  0  0  0  0
  -20.7726  -29.9637   21.1125 C   0  0  0  0  0  0  0  0  0  0  0  0
  -23.6062  -27.2950   15.4805 C   0  0  0  0  0  0  0  0  0  0  0  0
  -22.5293  -28.3771   20.2243 C   0  0  1  0  0  0  0  0  0  0  0  0
  -21.4359  -27.5525   16.6896 C   0  0  2  0  0  0  0  0  0  0  0  0
  -21.4794  -28.6109   21.3471 C   0  0  0  0  0  0  0  0  0  0  0  0
  -25.8862  -11.4997   20.3869 N   0  0  0  0  0  0  0  0  0  0  0  0
  -26.2146  -12.7782   20.1346 N   0  0  0  0  0  0  0  0  0  0  0  0
  -30.3114  -21.4859   20.6918 N   0  0  3  0  0  0  0  0  0  0  0  0
  -24.9297  -28.9442   20.4253 N   0  0  0  0  0  0  0  0  0  0  0  0
  -29.8924  -13.7621   20.4334 N   0  0  0  0  0  0  0  0  0  0  0  0
  -25.3420  -14.9799   20.0948 N   0  0  0  0  0  0  0  0  0  0  0  0
  -21.8064  -12.4811   21.3799 N   0  0  0  0  0  0  0  0  0  0  0  0
  -29.8552  -15.9529   21.3061 N   0  0  0  0  0  0  0  0  0  0  0  0
  -26.5575  -31.3091   22.5436 N   0  0  0  0  0  0  0  0  0  0  0  0
  -21.9731  -28.3826   18.8756 N   0  0  0  0  0  0  0  0  0  0  0  0
  -22.1883  -26.8684   15.6002 N   0  3  0  0  0  0  0  0  0  0  0  0
  -22.5045  -14.6123   20.9010 O   0  0  0  0  0  0  0  0  0  0  0  0
  -25.9796  -29.0746   22.8527 O   0  0  0  0  0  0  0  0  0  0  0  0
  -23.3311  -30.6042   20.0710 O   0  0  0  0  0  0  0  0  0  0  0  0
  -22.6785  -26.2497   18.3008 O   0  0  0  0  0  0  0  0  0  0  0  0
  -31.7287  -15.1469   20.2006 O   0  0  0  0  0  0  0  0  0  0  0  0
  -21.7642   -6.9565   22.0950 O   0  0  0  0  0  0  0  0  0  0  0  0
  -28.7207  -24.0800   20.5669 O   0  0  0  0  0  0  0  0  0  1  0  0
  -18.5382   -7.1612   26.5621 F   0  0  0  0  0  0  0  0  0  0  0  0
  -22.1932   -5.2576   24.2334 F   0  0  0  0  0  0  0  0  0  0  0  0
  1  2  1  0  0  0  0
  1  5  2  0  0  0  0
  2  6  2  0  0  0  0
  3 10  2  0  0  0  0
  3 18  1  0  0  0  0
  4 11  1  0  0  0  0
  4 18  2  0  0  0  0
  5 20  1  0  0  0  0
  6 22  1  0  0  0  0
  7 12  2  0  0  0  0
  7 21  1  0  0  0  0
  8  9  2  0  0  0  0
  8 25  1  0  0  0  0
  9 26  1  0  0  0  0
 10 27  1  0  0  0  0
 11 27  2  0  0  0  0
 12 28  1  0  0  0  0
 13 14  2  0  0  0  0
 13 29  1  0  0  0  0
 14 30  1  0  0  0  0
 15 23  1  0  0  0  0
 15 28  2  0  0  0  0
 16 24  1  0  0  0  0
 16 25  2  0  0  0  0
 17 30  2  0  0  0  0
 17 31  1  0  0  0  0
 18 32  1  0  0  0  0
 19 32  1  0  0  0  0
 19 33  2  0  0  0  0
 19 34  1  0  0  0  0
 20 22  2  0  0  0  0
 20 39  1  0  0  0  0
 21 23  2  0  0  0  0
 21 40  1  0  0  0  0
 22 51  1  0  0  0  0
 23 41  1  0  0  0  0
 24 26  2  0  0  0  0
 24 55  1  0  0  0  0
 25 66  1  0  0  0  0
 26 71  1  0  0  0  0
 27 80  1  0  0  0  0
 28 81  1  0  0  0  0
 29 31  2  0  0  0  0
 29 80  1  0  0  0  0
 30 82  1  0  0  0  0
 31 83  1  0  0  0  0
 32 64  2  0  0  0  0
 33 65  1  0  0  0  0
 33 69  1  0  0  0  0
 34 70  1  0  0  0  0
 34 75  2  0  0  0  0
 35 52  1  0  0  0  0
 35 72  1  0  0  0  0
 35 76  2  0  0  0  0
 36 61  1  0  0  0  0
 36 67  1  0  0  0  0
 36 77  2  0  0  0  0
 37 62  1  0  0  0  0
 37 73  1  0  0  0  0
 37 78  2  0  0  0  0
 38 68  1  0  0  0  0
 38 71  1  0  0  0  0
 38 79  2  0  0  0  0
 39 42  1  0  0  0  0
 40 52  1  0  0  0  0
 41 67  1  0  0  0  0
 42 44  1  0  0  0  0
 43 45  1  0  0  0  0
 43 47  1  0  0  0  0
 44 51  1  0  0  0  0
 45 53  1  0  0  0  0
 46 48  1  0  0  0  0
 46 54  1  0  0  0  0
 47 68  1  0  0  0  0
 48 66  1  0  0  0  0
 49 53  1  0  0  0  0
 49 68  1  0  0  0  0
 50 54  1  0  0  0  0
 50 66  1  0  0  0  0
 51 72  1  0  0  0  0
 52 67  1  0  0  0  0
 53 65  1  0  0  0  0
 54 81  1  0  0  0  0
 56 62  1  0  0  0  0
 57 63  1  0  0  0  0
 58 63  1  0  0  0  0
 59 63  1  0  0  0  0
 60 74  1  0  0  0  0
 61 63  1  0  0  0  0
 61 73  1  0  0  0  0
 62 74  1  0  0  0  0
 64 65  1  0  0  0  0
M  CHG  1  74   1
M  ISO  4  38 100  54 101  71 100  81 101
M  END
> <Batch ID>
0027

> <Smiles>
CNC(C)C(=O)NC(C(=O)N1Cc2cc([101O:1][101CH:1]3CCN(c4ccc([100NH:0][100C:0](=O)N5CCCC(n6nc(-c7ccc(Oc8ccc(F)cc8F)cc7)c(C(N)=O)c6N)C5)c(C)c4)C3)ccc2CC1C(=O)NC1CCCc2ccccc21)C(C)(C)C

> <Shape>
0.380

> <Color>
0.203

> <Negative vol penalty>
0.000

$$$$

  -OEChem-04042321283D

 84 93  0     1  0  0  0  0  0999 V2000
  -28.5221  -38.0779   24.1605 C   0  0  0  0  0  0  0  0  0  0  0  0
  -29.0371  -36.8779   23.6805 C   0  0  0  0  0  0  0  0  0  0  0  0
  -24.2029   -9.4402   21.7981 C   0  0  0  0  0  0  0  0  0  0  0  0
  -24.6146  -10.9386   23.6480 C   0  0  0  0  0  0  0  0  0  0  0  0
  -27.3874  -38.0737   24.9706 C   0  0  0  0  0  0  0  0  0  0  0  0
  -28.4183  -35.6730   24.0114 C   0  0  0  0  0  0  0  0  0  0  0  0
  -27.9302  -30.6937   20.4794 C   0  0  0  0  0  0  0  0  0  0  0  0
  -30.2912  -20.4463   19.8314 C   0  0  0  0  0  0  0  0  0  0  0  0
  -30.1229  -19.0801   19.6065 C   0  0  0  0  0  0  0  0  0  0  0  0
  -23.8449   -8.4327   22.6938 C   0  0  0  0  0  0  0  0  0  0  0  0
  -24.2566   -9.9311   24.5438 C   0  0  0  0  0  0  0  0  0  0  0  0
  -28.6613  -29.5079   20.4237 C   0  0  0  0  0  0  0  0  0  0  0  0
  -21.1488   -7.5973   24.5556 C   0  0  0  0  0  0  0  0  0  0  0  0
  -20.0016   -6.8561   24.2727 C   0  0  0  0  0  0  0  0  0  0  0  0
  -27.0265  -28.4404   21.8404 C   0  0  0  0  0  0  0  0  0  0  0  0
  -27.8973  -20.7096   20.0237 C   0  0  0  0  0  0  0  0  0  0  0  0
  -21.3252   -4.8363   24.1975 C   0  0  0  0  0  0  0  0  0  0  0  0
  -24.5878  -10.6932   22.2752 C   0  0  0  0  0  0  0  0  0  0  0  0
  -24.1094  -12.6919   20.7639 C   0  0  0  0  0  0  0  0  0  0  0  0
  -26.7487  -36.8688   25.3036 C   0  0  0  0  0  0  0  0  0  0  0  0
  -26.7454  -30.7650   21.2262 C   0  0  0  0  0  0  0  0  0  0  0  0
  -27.2747  -35.6526   24.8278 C   0  0  0  0  0  0  0  0  0  0  0  0
  -26.2809  -29.6276   21.9019 C   0  0  0  0  0  0  0  0  0  0  0  0
  -27.7290  -19.3434   19.7987 C   0  0  0  0  0  0  0  0  0  0  0  0
  -29.1784  -21.2611   20.0401 C   0  0  0  0  0  0  0  0  0  0  0  0
  -28.8418  -18.5286   19.5902 C   0  0  0  0  0  0  0  0  0  0  0  0
  -23.8717   -8.6781   24.0666 C   0  0  0  0  0  0  0  0  0  0  0  0
  -28.2110  -28.3819   21.1066 C   0  0  0  0  0  0  0  0  0  0  0  0
  -22.3843   -6.9581   24.6593 C   0  0  0  0  0  0  0  0  0  0  0  0
  -20.0897   -5.4756   24.0937 C   0  0  0  0  0  0  0  0  0  0  0  0
  -22.4724   -5.5776   24.4803 C   0  0  0  0  0  0  0  0  0  0  0  0
  -24.9583  -11.7342   21.3504 C   0  0  0  0  0  0  0  0  0  0  0  0
  -24.9388  -13.4456   19.9699 C   0  0  0  0  0  0  0  0  0  0  0  0
  -22.6973  -12.8832   20.9227 C   0  0  0  0  0  0  0  0  0  0  0  0
  -25.7736  -32.4581   23.7347 C   0  0  0  0  0  0  0  0  0  0  0  0
  -22.9314  -31.0253   23.1086 C   0  0  0  0  0  0  0  0  0  0  0  0
  -21.2557  -28.3980   21.7172 C   0  0  0  0  0  0  0  0  0  0  0  0
  -29.7037  -16.2045   19.1407 C   0  0  0  0  0  0  0  0  0  0  0  0
  -25.5524  -36.9108   26.2211 C   0  0  0  0  0  0  0  0  0  0  0  0
  -25.9543  -32.0440   21.2545 C   0  0  0  0  0  0  0  0  0  0  0  0
  -25.0045  -29.6462   22.7012 C   0  0  0  0  0  0  0  0  0  0  0  0
  -24.7367  -35.6204   26.2180 C   0  0  0  0  0  0  0  0  0  0  0  0
  -29.7457  -12.6893   18.5757 C   0  0  0  0  0  0  0  0  0  0  0  0
  -25.6551  -34.4081   26.3358 C   0  0  0  0  0  0  0  0  0  0  0  0
  -28.4341  -12.2063   19.1990 C   0  0  0  0  0  0  0  0  0  0  0  0
  -30.3290  -24.6665   20.8580 C   0  0  0  0  0  0  0  0  0  0  0  0
  -30.3735  -13.8238   19.3835 C   0  0  0  0  0  0  0  0  0  0  0  0
  -30.6431  -23.2804   20.2990 C   0  0  0  0  0  0  0  0  0  0  0  0
  -28.2458  -23.5448   20.4997 C   0  0  0  0  0  0  0  0  0  0  0  0
  -28.1722  -14.4777   20.2756 C   0  0  0  0  0  0  0  0  0  0  0  0
  -26.6170  -34.3269   25.1443 C   0  0  1  0  0  0  0  0  0  0  0  0
  -25.0319  -32.1493   22.4650 C   0  0  1  0  0  0  0  0  0  0  0  0
  -28.9047  -24.9231   20.3742 C   0  0  1  0  0  0  0  0  0  0  0  0
  -27.4693  -13.3792   19.4614 C   0  0  2  0  0  0  0  0  0  0  0  0
  -26.3452  -18.7794   19.7881 C   0  0  0  0  0  0  0  0  0  0  0  0
  -18.9401  -27.4851   21.3983 C   0  0  0  0  0  0  0  0  0  0  0  0
  -22.8947  -30.1087   26.0187 C   0  0  0  0  0  0  0  0  0  0  0  0
  -21.1152  -28.4585   25.4037 C   0  0  0  0  0  0  0  0  0  0  0  0
  -20.6892  -30.9030   25.1472 C   0  0  0  0  0  0  0  0  0  0  0  0
  -21.4795  -28.5422   18.7696 C   0  0  0  0  0  0  0  0  0  0  0  0
  -28.1893  -26.0045   21.1648 C   0  0  0  0  0  0  0  0  0  1  0  0
  -22.2617  -29.7438   23.5424 C   0  0  1  0  0  0  0  0  0  0  0  0
  -20.0440  -28.3460   20.8042 C   0  0  2  0  0  0  0  0  0  0  0  0
  -21.7653  -29.8034   25.0146 C   0  0  0  0  0  0  0  0  0  0  0  0
  -26.2295  -11.8652   20.9621 N   0  0  0  0  0  0  0  0  0  0  0  0
  -26.1855  -12.9140   20.1229 N   0  0  0  0  0  0  0  0  0  0  0  0
  -29.3450  -22.6115   20.2629 N   0  0  3  0  0  0  0  0  0  0  0  0
  -24.2697  -30.9220   22.7034 N   0  0  0  0  0  0  0  0  0  0  0  0
  -29.4027  -14.9010   19.5891 N   0  0  0  0  0  0  0  0  0  0  0  0
  -24.7161  -14.5045   19.1628 N   0  0  0  0  0  0  0  0  0  0  0  0
  -21.9980  -12.0196   21.7768 N   0  0  0  0  0  0  0  0  0  0  0  0
  -28.6919  -17.1382   19.3617 N   0  0  0  0  0  0  0  0  0  0  0  0
  -25.9345  -33.8088   23.9781 N   0  0  0  0  0  0  0  0  0  0  0  0
  -21.2088  -29.4830   22.5668 N   0  0  0  0  0  0  0  0  0  0  0  0
  -20.4190  -27.7799   19.4776 N   0  3  0  0  0  0  0  0  0  0  0  0
  -22.0714  -13.7826   20.3121 O   0  0  0  0  0  0  0  0  0  0  0  0
  -26.1692  -31.5389   24.4421 O   0  0  0  0  0  0  0  0  0  0  0  0
  -22.2887  -32.0781   23.1219 O   0  0  0  0  0  0  0  0  0  0  0  0
  -22.1522  -27.5580   21.6828 O   0  0  0  0  0  0  0  0  0  0  0  0
  -30.7687  -16.4667   18.5759 O   0  0  0  0  0  0  0  0  0  0  0  0
  -23.5222   -7.6953   24.9409 O   0  0  0  0  0  0  0  0  0  0  0  0
  -28.9231  -27.2234   21.0544 O   0  0  0  0  0  0  0  0  0  1  0  0
  -18.9877   -4.7636   23.8236 F   0  0  0  0  0  0  0  0  0  0  0  0
  -23.6563   -4.9577   24.5799 F   0  0  0  0  0  0  0  0  0  0  0  0
  1  2  1  0  0  0  0
  1  5  2  0  0  0  0
  2  6  2  0  0  0  0
  3 10  2  0  0  0  0
  3 18  1  0  0  0  0
  4 11  1  0  0  0  0
  4 18  2  0  0  0  0
  5 20  1  0  0  0  0
  6 22  1  0  0  0  0
  7 12  2  0  0  0  0
  7 21  1  0  0  0  0
  8  9  2  0  0  0  0
  8 25  1  0  0  0  0
  9 26  1  0  0  0  0
 10 27  1  0  0  0  0
 11 27  2  0  0  0  0
 12 28  1  0  0  0  0
 13 14  2  0  0  0  0
 13 29  1  0  0  0  0
 14 30  1  0  0  0  0
 15 23  1  0  0  0  0
 15 28  2  0  0  0  0
 16 24  1  0  0  0  0
 16 25  2  0  0  0  0
 17 30  2  0  0  0  0
 17 31  1  0  0  0  0
 18 32  1  0  0  0  0
 19 32  1  0  0  0  0
 19 33  2  0  0  0  0
 19 34  1  0  0  0  0
 20 22  2  0  0  0  0
 20 39  1  0  0  0  0
 21 23  2  0  0  0  0
 21 40  1  0  0  0  0
 22 51  1  0  0  0  0
 23 41  1  0  0  0  0
 24 26  2  0  0  0  0
 24 55  1  0  0  0  0
 25 67  1  0  0  0  0
 26 72  1  0  0  0  0
 27 81  1  0  0  0  0
 28 82  1  0  0  0  0
 29 31  2  0  0  0  0
 29 81  1  0  0  0  0
 30 83  1  0  0  0  0
 31 84  1  0  0  0  0
 32 65  2  0  0  0  0
 33 66  1  0  0  0  0
 33 70  1  0  0  0  0
 34 71  1  0  0  0  0
 34 76  2  0  0  0  0
 35 52  1  0  0  0  0
 35 73  1  0  0  0  0
 35 77  2  0  0  0  0
 36 62  1  0  0  0  0
 36 68  1  0  0  0  0
 36 78  2  0  0  0  0
 37 63  1  0  0  0  0
 37 74  1  0  0  0  0
 37 79  2  0  0  0  0
 38 69  1  0  0  0  0
 38 72  1  0  0  0  0
 38 80  2  0  0  0  0
 39 42  1  0  0  0  0
 40 52  1  0  0  0  0
 41 68  1  0  0  0  0
 42 44  1  0  0  0  0
 43 45  1  0  0  0  0
 43 47  1  0  0  0  0
 44 51  1  0  0  0  0
 45 54  1  0  0  0  0
 46 48  1  0  0  0  0
 46 53  1  0  0  0  0
 47 69  1  0  0  0  0
 48 67  1  0  0  0  0
 49 53  1  0  0  0  0
 49 67  1  0  0  0  0
 50 54  1  0  0  0  0
 50 69  1  0  0  0  0
 51 73  1  0  0  0  0
 52 68  1  0  0  0  0
 53 61  1  0  0  0  0
 54 66  1  0  0  0  0
 56 63  1  0  0  0  0
 57 64  1  0  0  0  0
 58 64  1  0  0  0  0
 59 64  1  0  0  0  0
 60 75  1  0  0  0  0
 61 82  1  0  0  0  0
 62 64  1  0  0  0  0
 62 74  1  0  0  0  0
 63 75  1  0  0  0  0
 65 66  1  0  0  0  0
M  CHG  1  75   1
M  ISO  4  38 100  61 101  72 100  82 101
M  END
> <Batch ID>
0027

> <Smiles>
CNC(C)C(=O)NC(C(=O)N1Cc2cc([101O:1][101CH2:1]C3CCN(c4ccc([100NH:0][100C:0](=O)N5CCCC(n6nc(-c7ccc(Oc8ccc(F)cc8F)cc7)c(C(N)=O)c6N)C5)c(C)c4)C3)ccc2CC1C(=O)NC1CCCc2ccccc21)C(C)(C)C

> <Shape>
0.358

> <Color>
0.117

> <Negative vol penalty>
0.000

$$$$

  -OEChem-04042321283D

 91101  0     1  0  0  0  0  0999 V2000
  -17.3694  -10.7370   21.4179 C   0  0  0  0  0  0  0  0  0  0  0  0
  -17.6980  -12.0810   21.5634 C   0  0  0  0  0  0  0  0  0  0  0  0
  -26.5293  -22.0148   19.7560 C   0  0  0  0  0  0  0  0  0  0  0  0
  -23.8261  -29.0901   21.8902 C   0  0  0  0  0  0  0  0  0  0  0  0
  -25.7922  -30.3447   21.2594 C   0  0  0  0  0  0  0  0  0  0  0  0
  -18.2867   -9.7527   21.7836 C   0  0  0  0  0  0  0  0  0  0  0  0
  -18.9438  -12.4414   22.0758 C   0  0  0  0  0  0  0  0  0  0  0  0
  -22.3056  -17.3104   20.4955 C   0  0  0  0  0  0  0  0  0  0  0  0
  -25.3102  -22.3631   20.3374 C   0  0  0  0  0  0  0  0  0  0  0  0
  -27.7115  -22.1421   20.4854 C   0  0  0  0  0  0  0  0  0  0  0  0
  -23.3864  -30.1665   22.6606 C   0  0  0  0  0  0  0  0  0  0  0  0
  -25.3524  -31.4211   22.0299 C   0  0  0  0  0  0  0  0  0  0  0  0
  -22.4711  -18.5655   21.0796 C   0  0  0  0  0  0  0  0  0  0  0  0
  -25.2977  -32.2884   25.2972 C   0  0  0  0  0  0  0  0  0  0  0  0
  -26.2302  -32.9203   26.1199 C   0  0  0  0  0  0  0  0  0  0  0  0
  -24.4626  -17.7790   22.1907 C   0  0  0  0  0  0  0  0  0  0  0  0
  -25.8607  -34.9978   24.9431 C   0  0  0  0  0  0  0  0  0  0  0  0
  -25.0291  -29.1792   21.1896 C   0  0  0  0  0  0  0  0  0  0  0  0
  -24.8216  -27.4763   19.3015 C   0  0  0  0  0  0  0  0  0  0  0  0
  -19.5480  -10.1014   22.2917 C   0  0  0  0  0  0  0  0  0  0  0  0
  -23.2127  -16.2753   20.7637 C   0  0  0  0  0  0  0  0  0  0  0  0
  -19.8783  -11.4609   22.4499 C   0  0  0  0  0  0  0  0  0  0  0  0
  -24.3077  -16.5125   21.6068 C   0  0  0  0  0  0  0  0  0  0  0  0
  -26.4553  -22.9662   22.3775 C   0  0  0  0  0  0  0  0  0  0  0  0
  -25.2731  -22.8389   21.6481 C   0  0  0  0  0  0  0  0  0  0  0  0
  -27.6745  -22.6179   21.7961 C   0  0  0  0  0  0  0  0  0  0  0  0
  -24.1495  -31.3320   22.7305 C   0  0  0  0  0  0  0  0  0  0  0  0
  -23.5481  -18.7991   21.9296 C   0  0  0  0  0  0  0  0  0  0  0  0
  -24.6467  -33.0112   24.2974 C   0  0  0  0  0  0  0  0  0  0  0  0
  -26.5117  -34.2750   25.9429 C   0  0  0  0  0  0  0  0  0  0  0  0
  -24.9282  -34.3658   24.1204 C   0  0  0  0  0  0  0  0  0  0  0  0
  -25.4841  -28.0674   20.3940 C   0  0  0  0  0  0  0  0  0  0  0  0
  -25.6611  -26.4679   18.8956 C   0  0  0  0  0  0  0  0  0  0  0  0
  -23.5602  -27.8091   18.7068 C   0  0  0  0  0  0  0  0  0  0  0  0
  -23.0039  -13.4012   22.1053 C   0  0  0  0  0  0  0  0  0  0  0  0
  -26.0959  -13.1619   21.1540 C   0  0  0  0  0  0  0  0  0  0  0  0
  -28.9019  -13.5058   19.7690 C   0  0  0  0  0  0  0  0  0  0  0  0
  -29.9773  -23.5585   22.1174 C   0  0  0  0  0  0  0  0  0  0  0  0
  -20.4884   -9.0018   22.7176 C   0  0  0  0  0  0  0  0  0  0  0  0
  -23.0350  -14.9350   20.1046 C   0  0  0  0  0  0  0  0  0  0  0  0
  -25.3212  -15.4406   21.9109 C   0  0  0  0  0  0  0  0  0  0  0  0
  -21.9295   -9.4702   22.9018 C   0  0  0  0  0  0  0  0  0  0  0  0
  -30.9807  -20.1968   25.2803 C   0  0  0  0  0  0  0  0  0  0  0  0
  -30.2955  -21.4471   25.8243 C   0  0  0  0  0  0  0  0  0  0  0  0
  -30.1667  -19.5507   24.1629 C   0  0  0  0  0  0  0  0  0  0  0  0
  -30.2705  -25.2048   18.8163 C   0  0  0  0  0  0  0  0  0  0  0  0
  -22.3458  -24.6105   23.0275 C   0  0  0  0  0  0  0  0  0  0  0  0
  -21.9713  -10.7649   23.7071 C   0  0  0  0  0  0  0  0  0  0  0  0
  -29.0615  -26.1382   18.7942 C   0  0  0  0  0  0  0  0  0  0  0  0
  -29.9802  -22.4459   24.7123 C   0  0  0  0  0  0  0  0  0  0  0  0
  -29.8502  -20.5457   23.0478 C   0  0  0  0  0  0  0  0  0  0  0  0
  -21.8150  -23.1907   22.9920 C   0  0  0  0  0  0  0  0  0  0  0  0
  -23.5333  -24.5482   22.0796 C   0  0  0  0  0  0  0  0  0  0  0  0
  -30.7691  -24.9574   20.2369 C   0  0  0  0  0  0  0  0  0  0  0  0
  -28.4990  -25.3791   21.1370 C   0  0  0  0  0  0  0  0  0  0  0  0
  -21.2291  -11.8919   22.9787 C   0  0  1  0  0  0  0  0  0  0  0  0
  -23.7320  -13.8035   20.8540 C   0  0  1  0  0  0  0  0  0  0  0  0
  -27.9528  -25.6118   19.7204 C   0  0  1  0  0  0  0  0  0  0  0  0
  -29.1591  -21.7971   23.5947 C   0  0  0  0  0  0  0  0  0  0  0  0
  -23.0931  -22.3114   22.9364 C   0  0  1  0  0  0  0  0  0  0  0  0
  -26.4151  -23.4762   23.7848 C   0  0  0  0  0  0  0  0  0  0  0  0
  -23.5728  -22.0285   24.3675 C   0  0  0  0  0  0  0  0  0  0  0  0
  -31.2502  -13.4379   18.8868 C   0  0  0  0  0  0  0  0  0  0  0  0
  -26.4258  -13.7225   24.1350 C   0  0  0  0  0  0  0  0  0  0  0  0
  -28.8994  -13.4767   23.8365 C   0  0  0  0  0  0  0  0  0  0  0  0
  -27.3906  -11.5458   23.3699 C   0  0  0  0  0  0  0  0  0  0  0  0
  -28.2015  -11.4761   17.7321 C   0  0  0  0  0  0  0  0  0  0  0  0
  -22.7423  -21.0218   22.1870 C   0  0  0  0  0  0  0  0  0  1  0  0
  -27.4326  -13.5013   21.7679 C   0  0  1  0  0  0  0  0  0  0  0  0
  -29.9500  -12.6680   19.0590 C   0  0  2  0  0  0  0  0  0  0  0  0
  -27.5225  -13.0806   23.2620 C   0  0  0  0  0  0  0  0  0  0  0  0
  -26.6542  -27.4831   20.6650 N   0  0  0  0  0  0  0  0  0  0  0  0
  -26.7335  -26.5142   19.7370 N   0  0  0  0  0  0  0  0  0  0  0  0
  -24.0524  -23.1782   22.2076 N   0  0  3  0  0  0  0  0  0  0  0  0
  -25.1005  -14.1450   21.2474 N   0  0  0  0  0  0  0  0  0  0  0  0
  -29.6902  -24.5144   21.1214 N   0  0  0  0  0  0  0  0  0  0  0  0
  -25.5792  -25.5548   17.9046 N   0  0  0  0  0  0  0  0  0  0  0  0
  -22.4052  -27.1836   19.1959 N   0  0  0  0  0  0  0  0  0  0  0  0
  -22.0450  -12.4257   21.9093 N   0  0  0  0  0  0  0  0  0  0  0  0
  -28.4424  -12.8872   20.9125 N   0  0  0  0  0  0  0  0  0  0  0  0
  -28.9089  -22.7408   22.5322 N   0  0  0  0  0  0  0  0  0  0  0  0
  -29.4622  -12.2617   17.7108 N   0  3  0  0  0  0  0  0  0  0  0  0
  -23.4621  -28.6242   17.7584 O   0  0  0  0  0  0  0  0  0  0  0  0
  -23.2919  -13.9352   23.1700 O   0  0  0  0  0  0  0  0  0  0  0  0
  -25.9427  -12.0678   20.6053 O   0  0  0  0  0  0  0  0  0  0  0  0
  -28.5309  -14.6011   19.3530 O   0  0  0  0  0  0  0  0  0  0  0  0
  -31.0947  -23.4755   22.6420 O   0  0  0  0  0  0  0  0  0  0  0  0
  -23.7207  -32.3826   23.4820 O   0  0  0  0  0  0  0  0  0  0  0  0
  -23.7117  -20.0230   22.5016 O   0  0  0  0  0  0  0  0  0  1  0  0
  -27.4060  -34.8820   26.7340 F   0  0  0  0  0  0  0  0  0  0  0  0
  -24.3051  -35.0657   23.1624 F   0  0  0  0  0  0  0  0  0  0  0  0
  1  2  1  0  0  0  0
  1  6  2  0  0  0  0
  2  7  2  0  0  0  0
  3  9  2  0  0  0  0
  3 10  1  0  0  0  0
  4 11  2  0  0  0  0
  4 18  1  0  0  0  0
  5 12  1  0  0  0  0
  5 18  2  0  0  0  0
  6 20  1  0  0  0  0
  7 22  1  0  0  0  0
  8 13  2  0  0  0  0
  8 21  1  0  0  0  0
  9 25  1  0  0  0  0
 10 26  2  0  0  0  0
 11 27  1  0  0  0  0
 12 27  2  0  0  0  0
 13 28  1  0  0  0  0
 14 15  2  0  0  0  0
 14 29  1  0  0  0  0
 15 30  1  0  0  0  0
 16 23  1  0  0  0  0
 16 28  2  0  0  0  0
 17 30  2  0  0  0  0
 17 31  1  0  0  0  0
 18 32  1  0  0  0  0
 19 32  1  0  0  0  0
 19 33  2  0  0  0  0
 19 34  1  0  0  0  0
 20 22  2  0  0  0  0
 20 39  1  0  0  0  0
 21 23  2  0  0  0  0
 21 40  1  0  0  0  0
 22 56  1  0  0  0  0
 23 41  1  0  0  0  0
 24 25  2  0  0  0  0
 24 26  1  0  0  0  0
 24 61  1  0  0  0  0
 25 74  1  0  0  0  0
 26 81  1  0  0  0  0
 27 88  1  0  0  0  0
 28 89  1  0  0  0  0
 29 31  2  0  0  0  0
 29 88  1  0  0  0  0
 30 90  1  0  0  0  0
 31 91  1  0  0  0  0
 32 72  2  0  0  0  0
 33 73  1  0  0  0  0
 33 77  1  0  0  0  0
 34 78  1  0  0  0  0
 34 83  2  0  0  0  0
 35 57  1  0  0  0  0
 35 79  1  0  0  0  0
 35 84  2  0  0  0  0
 36 69  1  0  0  0  0
 36 75  1  0  0  0  0
 36 85  2  0  0  0  0
 37 70  1  0  0  0  0
 37 80  1  0  0  0  0
 37 86  2  0  0  0  0
 38 76  1  0  0  0  0
 38 81  1  0  0  0  0
 38 87  2  0  0  0  0
 39 42  1  0  0  0  0
 40 57  1  0  0  0  0
 41 75  1  0  0  0  0
 42 48  1  0  0  0  0
 43 44  1  0  0  0  0
 43 45  1  0  0  0  0
 44 50  1  0  0  0  0
 45 51  1  0  0  0  0
 46 49  1  0  0  0  0
 46 54  1  0  0  0  0
 47 52  1  0  0  0  0
 47 53  1  0  0  0  0
 48 56  1  0  0  0  0
 49 58  1  0  0  0  0
 50 59  1  0  0  0  0
 51 59  1  0  0  0  0
 52 60  1  0  0  0  0
 53 74  1  0  0  0  0
 54 76  1  0  0  0  0
 55 58  1  0  0  0  0
 55 76  1  0  0  0  0
 56 79  1  0  0  0  0
 57 75  1  0  0  0  0
 58 73  1  0  0  0  0
 59 81  1  0  0  0  0
 60 62  1  0  0  0  0
 60 68  1  0  0  0  0
 60 74  1  0  0  0  0
 63 70  1  0  0  0  0
 64 71  1  0  0  0  0
 65 71  1  0  0  0  0
 66 71  1  0  0  0  0
 67 82  1  0  0  0  0
 68 89  1  0  0  0  0
 69 71  1  0  0  0  0
 69 80  1  0  0  0  0
 70 82  1  0  0  0  0
 72 73  1  0  0  0  0
M  CHG  1  82   1
M  ISO  4  38 100  68 101  81 100  89 101
M  END
> <Batch ID>
0027

> <Smiles>
CNC(C)C(=O)NC(C(=O)N1Cc2cc([101O:1][101CH2:1]C3(C)CCCN3c3cccc([100N:0](C4CCCCC4)[100C:0](=O)N4CCCC(n5nc(-c6ccc(Oc7ccc(F)cc7F)cc6)c(C(N)=O)c5N)C4)c3C)ccc2CC1C(=O)NC1CCCc2ccccc21)C(C)(C)C

> <Shape>
0.228

> <Color>
0.063

> <Negative vol penalty>
0.000

$$$$

  -OEChem-04042321283D

 85 94  0     1  0  0  0  0  0999 V2000
  -31.6718  -10.7752   20.2933 C   0  0  0  0  0  0  0  0  0  0  0  0
  -32.1181  -12.0777   20.4927 C   0  0  0  0  0  0  0  0  0  0  0  0
  -23.8160  -22.8194   26.1854 C   0  0  0  0  0  0  0  0  0  0  0  0
  -25.5083  -24.5086   26.5319 C   0  0  0  0  0  0  0  0  0  0  0  0
  -30.5522  -10.5374   19.4972 C   0  0  0  0  0  0  0  0  0  0  0  0
  -31.4455  -13.1431   19.8953 C   0  0  0  0  0  0  0  0  0  0  0  0
  -29.7534  -20.0125   21.0202 C   0  0  0  0  0  0  0  0  0  0  0  0
  -24.1272  -22.2541   27.4220 C   0  0  0  0  0  0  0  0  0  0  0  0
  -25.8194  -23.9433   27.7686 C   0  0  0  0  0  0  0  0  0  0  0  0
  -29.8340  -21.2574   20.3978 C   0  0  0  0  0  0  0  0  0  0  0  0
  -24.5424  -23.9433   30.8974 C   0  0  0  0  0  0  0  0  0  0  0  0
  -24.7053  -24.8070   31.9805 C   0  0  0  0  0  0  0  0  0  0  0  0
  -27.8644  -20.7330   19.1075 C   0  0  0  0  0  0  0  0  0  0  0  0
  -25.6136  -28.3375   19.8412 C   0  0  0  0  0  0  0  0  0  0  0  0
  -27.2357  -27.8734   21.5704 C   0  0  0  0  0  0  0  0  0  0  0  0
  -26.9744  -24.0264   32.2616 C   0  0  0  0  0  0  0  0  0  0  0  0
  -24.5066  -23.9467   25.7403 C   0  0  0  0  0  0  0  0  0  0  0  0
  -24.2631  -23.9108   23.2012 C   0  0  0  0  0  0  0  0  0  0  0  0
  -29.8598  -11.6012   18.8976 C   0  0  0  0  0  0  0  0  0  0  0  0
  -28.7324  -19.1126   20.6825 C   0  0  0  0  0  0  0  0  0  0  0  0
  -30.3163  -12.9192   19.0894 C   0  0  0  0  0  0  0  0  0  0  0  0
  -27.7716  -19.4783   19.7289 C   0  0  0  0  0  0  0  0  0  0  0  0
  -26.6614  -27.5623   20.3379 C   0  0  0  0  0  0  0  0  0  0  0  0
  -25.7145  -29.7351   21.8094 C   0  0  0  0  0  0  0  0  0  0  0  0
  -25.1288  -22.8160   28.2136 C   0  0  0  0  0  0  0  0  0  0  0  0
  -28.8911  -21.6167   19.4392 C   0  0  0  0  0  0  0  0  0  0  0  0
  -25.5955  -23.1211   30.4964 C   0  0  0  0  0  0  0  0  0  0  0  0
  -25.9213  -24.8486   32.6626 C   0  0  0  0  0  0  0  0  0  0  0  0
  -25.1402  -29.4240   20.5769 C   0  0  0  0  0  0  0  0  0  0  0  0
  -26.7623  -28.9598   22.3062 C   0  0  0  0  0  0  0  0  0  0  0  0
  -26.8115  -23.1627   31.1785 C   0  0  0  0  0  0  0  0  0  0  0  0
  -24.1861  -24.5308   24.4627 C   0  0  0  0  0  0  0  0  0  0  0  0
  -23.8555  -24.8796   22.3170 C   0  0  0  0  0  0  0  0  0  0  0  0
  -24.6669  -22.5783   22.8592 C   0  0  0  0  0  0  0  0  0  0  0  0
  -28.6393  -16.1945   19.4255 C   0  0  0  0  0  0  0  0  0  0  0  0
  -25.4689  -16.4430   20.0651 C   0  0  0  0  0  0  0  0  0  0  0  0
  -22.7699  -18.4633   20.5951 C   0  0  0  0  0  0  0  0  0  0  0  0
  -23.8940  -30.9601   23.0246 C   0  0  0  0  0  0  0  0  0  0  0  0
  -28.6828  -11.2911   18.0070 C   0  0  0  0  0  0  0  0  0  0  0  0
  -28.6438  -17.7841   21.3823 C   0  0  0  0  0  0  0  0  0  0  0  0
  -26.6440  -18.5564   19.3454 C   0  0  0  0  0  0  0  0  0  0  0  0
  -27.8038  -12.5044   17.7146 C   0  0  0  0  0  0  0  0  0  0  0  0
  -21.0948  -28.7686   21.9974 C   0  0  0  0  0  0  0  0  0  0  0  0
  -28.6623  -13.7056   17.3311 C   0  0  0  0  0  0  0  0  0  0  0  0
  -21.5449  -27.3925   22.4845 C   0  0  0  0  0  0  0  0  0  0  0  0
  -21.6699  -29.8898   22.8576 C   0  0  0  0  0  0  0  0  0  0  0  0
  -28.1741  -25.5298   19.8608 C   0  0  0  0  0  0  0  0  0  0  0  0
  -26.5708  -25.7402   18.5162 C   0  0  0  0  0  0  0  0  0  0  0  0
  -23.6112  -28.4714   23.4581 C   0  0  0  0  0  0  0  0  0  0  0  0
  -29.5988  -14.1033   18.4784 C   0  0  1  0  0  0  0  0  0  0  0  0
  -27.8618  -16.7418   20.5889 C   0  0  1  0  0  0  0  0  0  0  0  0
  -27.8789  -24.9290   18.4743 C   0  0  0  0  0  0  0  0  0  0  0  0
  -23.0779  -27.3269   22.5835 C   0  0  1  0  0  0  0  0  0  0  0  0
  -20.4100  -19.0927   21.1712 C   0  0  0  0  0  0  0  0  0  0  0  0
  -24.9514  -15.7365   17.1423 C   0  0  0  0  0  0  0  0  0  0  0  0
  -22.6122  -16.5831   17.4243 C   0  0  0  0  0  0  0  0  0  0  0  0
  -23.4036  -14.6381   18.7709 C   0  0  0  0  0  0  0  0  0  0  0  0
  -26.0637  -32.0493   22.6537 C   0  0  0  0  0  0  0  0  0  0  0  0
  -23.4000  -18.6453   23.4810 C   0  0  0  0  0  0  0  0  0  0  0  0
  -27.7411  -23.4220   18.4027 C   0  0  0  0  0  0  0  0  0  1  0  0
  -24.2633  -16.9531   19.3132 C   0  0  1  0  0  0  0  0  0  0  0  0
  -21.6948  -18.4474   21.6667 C   0  0  2  0  0  0  0  0  0  0  0  0
  -23.8299  -15.9945   18.1683 C   0  0  0  0  0  0  0  0  0  0  0  0
  -23.7630  -25.7956   24.3907 N   0  0  0  0  0  0  0  0  0  0  0  0
  -23.5706  -25.9783   23.0732 N   0  0  0  0  0  0  0  0  0  0  0  0
  -27.1383  -26.4711   19.5985 N   0  0  0  0  0  0  0  0  0  0  0  0
  -26.6039  -17.2661   20.0531 N   0  0  0  0  0  0  0  0  0  0  0  0
  -23.1233  -29.7798   22.9922 N   0  0  0  0  0  0  0  0  0  0  0  0
  -23.7167  -24.8904   20.9743 N   0  0  0  0  0  0  0  0  0  0  0  0
  -26.0201  -22.3404   22.5826 N   0  0  0  0  0  0  0  0  0  0  0  0
  -28.8716  -14.8341   19.4941 N   0  0  0  0  0  0  0  0  0  0  0  0
  -23.2298  -17.1941   20.3142 N   0  0  0  0  0  0  0  0  0  0  0  0
  -25.2230  -30.8570   22.5713 N   0  0  0  0  0  0  0  0  0  0  0  0
  -22.1568  -19.1875   22.8749 N   0  3  0  0  0  0  0  0  0  0  0  0
  -23.8491  -21.6300   22.7845 O   0  0  0  0  0  0  0  0  0  0  0  0
  -29.0004  -16.9503   18.5310 O   0  0  0  0  0  0  0  0  0  0  0  0
  -25.4036  -15.3578   20.6479 O   0  0  0  0  0  0  0  0  0  0  0  0
  -23.1599  -19.4977   20.0581 O   0  0  0  0  0  0  0  0  0  0  0  0
  -23.4475  -32.0210   23.4781 O   0  0  0  0  0  0  0  0  0  0  0  0
  -25.4325  -22.2648   29.4204 O   0  0  0  0  0  0  0  0  0  0  0  0
  -28.9678  -22.8310   18.8297 O   0  0  0  0  0  0  0  0  0  1  0  0
  -26.0781  -25.6791   33.7018 F   0  0  0  0  0  0  0  0  0  0  0  0
  -24.1318  -30.1616   20.0904 F   0  0  0  0  0  0  0  0  0  0  0  0
  -27.3205  -29.2484   23.4904 F   0  0  0  0  0  0  0  0  0  0  0  0
  -27.8272  -22.3761   30.7972 F   0  0  0  0  0  0  0  0  0  0  0  0
  1  2  1  0  0  0  0
  1  5  2  0  0  0  0
  2  6  2  0  0  0  0
  3  8  2  0  0  0  0
  3 17  1  0  0  0  0
  4  9  1  0  0  0  0
  4 17  2  0  0  0  0
  5 19  1  0  0  0  0
  6 21  1  0  0  0  0
  7 10  2  0  0  0  0
  7 20  1  0  0  0  0
  8 25  1  0  0  0  0
  9 25  2  0  0  0  0
 10 26  1  0  0  0  0
 11 12  2  0  0  0  0
 11 27  1  0  0  0  0
 12 28  1  0  0  0  0
 13 22  1  0  0  0  0
 13 26  2  0  0  0  0
 14 23  1  0  0  0  0
 14 29  2  0  0  0  0
 15 23  2  0  0  0  0
 15 30  1  0  0  0  0
 16 28  2  0  0  0  0
 16 31  1  0  0  0  0
 17 32  1  0  0  0  0
 18 32  1  0  0  0  0
 18 33  2  0  0  0  0
 18 34  1  0  0  0  0
 19 21  2  0  0  0  0
 19 39  1  0  0  0  0
 20 22  2  0  0  0  0
 20 40  1  0  0  0  0
 21 50  1  0  0  0  0
 22 41  1  0  0  0  0
 23 66  1  0  0  0  0
 24 29  1  0  0  0  0
 24 30  2  0  0  0  0
 24 73  1  0  0  0  0
 25 80  1  0  0  0  0
 26 81  1  0  0  0  0
 27 31  2  0  0  0  0
 27 80  1  0  0  0  0
 28 82  1  0  0  0  0
 29 83  1  0  0  0  0
 30 84  1  0  0  0  0
 31 85  1  0  0  0  0
 32 64  2  0  0  0  0
 33 65  1  0  0  0  0
 33 69  1  0  0  0  0
 34 70  1  0  0  0  0
 34 75  2  0  0  0  0
 35 51  1  0  0  0  0
 35 71  1  0  0  0  0
 35 76  2  0  0  0  0
 36 61  1  0  0  0  0
 36 67  1  0  0  0  0
 36 77  2  0  0  0  0
 37 62  1  0  0  0  0
 37 72  1  0  0  0  0
 37 78  2  0  0  0  0
 38 68  1  0  0  0  0
 38 73  1  0  0  0  0
 38 79  2  0  0  0  0
 39 42  1  0  0  0  0
 40 51  1  0  0  0  0
 41 67  1  0  0  0  0
 42 44  1  0  0  0  0
 43 45  1  0  0  0  0
 43 46  1  0  0  0  0
 44 50  1  0  0  0  0
 45 53  1  0  0  0  0
 46 68  1  0  0  0  0
 47 52  1  0  0  0  0
 47 66  1  0  0  0  0
 48 52  1  0  0  0  0
 48 66  1  0  0  0  0
 49 53  1  0  0  0  0
 49 68  1  0  0  0  0
 50 71  1  0  0  0  0
 51 67  1  0  0  0  0
 52 60  1  0  0  0  0
 53 65  1  0  0  0  0
 54 62  1  0  0  0  0
 55 63  1  0  0  0  0
 56 63  1  0  0  0  0
 57 63  1  0  0  0  0
 58 73  1  0  0  0  0
 59 74  1  0  0  0  0
 60 81  1  0  0  0  0
 61 63  1  0  0  0  0
 61 72  1  0  0  0  0
 62 74  1  0  0  0  0
 64 65  1  0  0  0  0
M  CHG  1  74   1
M  ISO  4  38 100  60 101  73 100  81 101
M  END
> <Batch ID>
0027

> <Smiles>
CNC(C)C(=O)NC(C(=O)N1Cc2cc([101O:1][101CH2:1]C3CN(c4cc(F)c([100N:0](C)[100C:0](=O)N5CCCC(n6nc(-c7ccc(Oc8ccc(F)cc8F)cc7)c(C(N)=O)c6N)C5)c(F)c4)C3)ccc2CC1C(=O)NC1CCCc2ccccc21)C(C)(C)C

> <Shape>
0.202

> <Color>
0.066

> <Negative vol penalty>
0.000

$$$$

  -OEChem-04042321283D

 87 95  0     1  0  0  0  0  0999 V2000
  -21.8434   -7.7623   24.3935 C   0  0  0  0  0  0  0  0  0  0  0  0
  -22.7611   -8.7149   24.8242 C   0  0  0  0  0  0  0  0  0  0  0  0
  -26.0522  -29.2036   19.4783 C   0  0  0  0  0  0  0  0  0  0  0  0
  -26.1989  -28.5704   21.8052 C   0  0  0  0  0  0  0  0  0  0  0  0
  -21.6506   -7.5485   23.0293 C   0  0  0  0  0  0  0  0  0  0  0  0
  -23.4875   -9.4536   23.8909 C   0  0  0  0  0  0  0  0  0  0  0  0
  -23.6693  -14.3841   25.0322 C   0  0  0  0  0  0  0  0  0  0  0  0
  -28.6826  -18.6602   23.5552 C   0  0  0  0  0  0  0  0  0  0  0  0
  -28.9641  -19.5343   22.5054 C   0  0  0  0  0  0  0  0  0  0  0  0
  -24.8441  -29.8532   19.7312 C   0  0  0  0  0  0  0  0  0  0  0  0
  -24.9907  -29.2200   22.0581 C   0  0  0  0  0  0  0  0  0  0  0  0
  -24.5644  -14.7747   26.0272 C   0  0  0  0  0  0  0  0  0  0  0  0
  -21.6937  -28.6028   21.6336 C   0  0  0  0  0  0  0  0  0  0  0  0
  -20.7515  -27.9368   22.4173 C   0  0  0  0  0  0  0  0  0  0  0  0
  -26.1269  -15.4876   24.3333 C   0  0  0  0  0  0  0  0  0  0  0  0
  -29.1854  -21.3537   24.0796 C   0  0  0  0  0  0  0  0  0  0  0  0
  -20.8209  -29.7352   24.0292 C   0  0  0  0  0  0  0  0  0  0  0  0
  -26.7296  -28.5621   20.5153 C   0  0  0  0  0  0  0  0  0  0  0  0
  -29.2706  -28.4425   20.3235 C   0  0  0  0  0  0  0  0  0  0  0  0
  -22.3679   -8.2917   22.0787 C   0  0  0  0  0  0  0  0  0  0  0  0
  -24.0014  -14.5325   23.6779 C   0  0  0  0  0  0  0  0  0  0  0  0
  -23.3051   -9.2486   22.5127 C   0  0  0  0  0  0  0  0  0  0  0  0
  -25.2333  -15.1005   23.3231 C   0  0  0  0  0  0  0  0  0  0  0  0
  -28.6525  -19.1327   24.8673 C   0  0  0  0  0  0  0  0  0  0  0  0
  -28.9039  -20.4794   25.1295 C   0  0  0  0  0  0  0  0  0  0  0  0
  -29.2155  -20.8811   22.7676 C   0  0  0  0  0  0  0  0  0  0  0  0
  -24.3133  -29.8614   21.0211 C   0  0  0  0  0  0  0  0  0  0  0  0
  -25.7946  -15.3239   25.6778 C   0  0  0  0  0  0  0  0  0  0  0  0
  -22.1996  -29.8350   22.0478 C   0  0  0  0  0  0  0  0  0  0  0  0
  -20.3150  -28.5030   23.6150 C   0  0  0  0  0  0  0  0  0  0  0  0
  -21.7632  -30.4012   23.2455 C   0  0  0  0  0  0  0  0  0  0  0  0
  -27.9774  -27.8905   20.2546 C   0  0  0  0  0  0  0  0  0  0  0  0
  -30.1054  -27.4043   19.9893 C   0  0  0  0  0  0  0  0  0  0  0  0
  -29.6806  -29.7746   20.6598 C   0  0  0  0  0  0  0  0  0  0  0  0
  -24.3955  -12.5392   21.2335 C   0  0  0  0  0  0  0  0  0  0  0  0
  -24.6906  -15.2912   19.5419 C   0  0  0  0  0  0  0  0  0  0  0  0
  -25.8530  -18.6760   19.0847 C   0  0  0  0  0  0  0  0  0  0  0  0
  -29.5745  -21.4631   20.3429 C   0  0  0  0  0  0  0  0  0  0  0  0
  -22.1597   -7.9920   20.6153 C   0  0  0  0  0  0  0  0  0  0  0  0
  -23.0139  -14.1309   22.6168 C   0  0  0  0  0  0  0  0  0  0  0  0
  -25.6293  -15.2999   21.8837 C   0  0  0  0  0  0  0  0  0  0  0  0
  -22.6968   -9.0796   19.6885 C   0  0  0  0  0  0  0  0  0  0  0  0
  -30.2185  -23.3724   17.4075 C   0  0  0  0  0  0  0  0  0  0  0  0
  -24.1001   -9.4990   20.1146 C   0  0  0  0  0  0  0  0  0  0  0  0
  -29.8403  -24.7989   17.8127 C   0  0  0  0  0  0  0  0  0  0  0  0
  -29.2855  -22.3384   18.0353 C   0  0  0  0  0  0  0  0  0  0  0  0
  -28.7631  -23.8630   19.8985 C   0  0  0  0  0  0  0  0  0  0  0  0
  -24.0940  -10.0873   21.5307 C   0  0  1  0  0  0  0  0  0  0  0  0
  -23.6675  -13.8532   21.2666 C   0  0  1  0  0  0  0  0  0  0  0  0
  -29.7142  -24.9355   19.3427 C   0  0  2  0  0  0  0  0  0  0  0  0
  -28.8790  -21.0074   26.5263 C   0  0  0  0  0  0  0  0  0  0  0  0
  -25.4835  -20.2869   17.1964 C   0  0  0  0  0  0  0  0  0  0  0  0
  -31.6021  -16.0840   24.2943 C   0  0  0  0  0  0  0  0  0  0  0  0
  -33.2223  -16.9815   25.9909 C   0  0  0  0  0  0  0  0  0  0  0  0
  -27.8751  -13.7927   27.4847 C   0  0  0  0  0  0  0  0  0  0  0  0
  -27.3408  -14.2102   18.4845 C   0  0  0  0  0  0  0  0  0  0  0  0
  -27.9152  -16.5334   17.7493 C   0  0  0  0  0  0  0  0  0  0  0  0
  -25.9327  -15.3735   16.7762 C   0  0  0  0  0  0  0  0  0  0  0  0
  -24.7695  -20.7421   20.9057 C   0  0  0  0  0  0  0  0  0  0  0  0
  -28.3466  -18.1736   25.9797 C   0  0  0  0  0  0  0  0  0  0  0  0
  -30.7498  -17.5559   26.1892 C   0  0  0  0  0  0  0  0  0  0  0  0
  -28.9944  -16.0668   27.1389 C   0  0  0  0  0  0  0  0  0  0  0  0
  -25.8383  -16.1965   19.1649 C   0  0  1  0  0  0  0  0  0  0  0  0
  -25.0396  -19.8567   18.5858 C   0  0  2  0  0  0  0  0  0  0  0  0
  -31.7856  -16.5147   25.7505 C   0  0  0  0  0  0  0  0  0  0  0  0
  -27.9473  -15.0685   26.6558 C   0  0  2  0  0  0  0  0  0  1  0  0
  -26.7504  -15.5730   18.0709 C   0  0  0  0  0  0  0  0  0  0  0  0
  -27.9849  -26.6017   19.9039 N   0  0  0  0  0  0  0  0  0  0  0  0
  -29.2931  -26.3353   19.7494 N   0  0  0  0  0  0  0  0  0  0  0  0
  -24.6323  -14.8856   20.8827 N   0  0  0  0  0  0  0  0  0  0  0  0
  -29.2190  -22.5262   19.4862 N   0  0  0  0  0  0  0  0  0  0  0  0
  -31.4477  -27.3107   19.8800 N   0  0  0  0  0  0  0  0  0  0  0  0
  -28.6934  -30.7173   20.9778 N   0  0  0  0  0  0  0  0  0  0  0  0
  -29.5035  -21.7691   21.7016 N   0  0  0  0  0  0  0  0  0  0  0  0
  -23.5968  -11.4463   21.5112 N   0  0  0  0  0  0  0  0  0  0  0  0
  -25.2436  -17.4748   18.7897 N   0  0  0  0  0  0  0  0  0  0  0  0
  -25.1918  -21.0173   19.5082 N   0  3  0  0  0  0  0  0  0  0  0  0
  -29.3371  -17.0390   26.0711 N   0  3  1  0  0  0  0  0  0  0  0  0
  -30.8856  -30.1231   20.6617 O   0  0  0  0  0  0  0  0  0  0  0  0
  -25.5929  -12.5183   20.9738 O   0  0  0  0  0  0  0  0  0  0  0  0
  -23.8718  -14.9619   18.6800 O   0  0  0  0  0  0  0  0  0  0  0  0
  -26.9239  -18.8062   19.6735 O   0  0  0  0  0  0  0  0  0  0  0  0
  -29.9428  -20.3708   19.9034 O   0  0  0  0  0  0  0  0  0  0  0  0
  -23.1345  -30.4954   21.2683 O   0  0  0  0  0  0  0  0  0  0  0  0
  -26.6704  -15.7054   26.6470 O   0  0  0  0  0  0  0  0  0  1  0  0
  -19.4090  -27.8640   24.3667 F   0  0  0  0  0  0  0  0  0  0  0  0
  -22.2447  -31.5852   23.6480 F   0  0  0  0  0  0  0  0  0  0  0  0
  1  2  1  0  0  0  0
  1  5  2  0  0  0  0
  2  6  2  0  0  0  0
  3 10  2  0  0  0  0
  3 18  1  0  0  0  0
  4 11  1  0  0  0  0
  4 18  2  0  0  0  0
  5 20  1  0  0  0  0
  6 22  1  0  0  0  0
  7 12  2  0  0  0  0
  7 21  1  0  0  0  0
  8  9  2  0  0  0  0
  8 24  1  0  0  0  0
  9 26  1  0  0  0  0
 10 27  1  0  0  0  0
 11 27  2  0  0  0  0
 12 28  1  0  0  0  0
 13 14  2  0  0  0  0
 13 29  1  0  0  0  0
 14 30  1  0  0  0  0
 15 23  1  0  0  0  0
 15 28  2  0  0  0  0
 16 25  1  0  0  0  0
 16 26  2  0  0  0  0
 17 30  2  0  0  0  0
 17 31  1  0  0  0  0
 18 32  1  0  0  0  0
 19 32  1  0  0  0  0
 19 33  2  0  0  0  0
 19 34  1  0  0  0  0
 20 22  2  0  0  0  0
 20 39  1  0  0  0  0
 21 23  2  0  0  0  0
 21 40  1  0  0  0  0
 22 48  1  0  0  0  0
 23 41  1  0  0  0  0
 24 25  2  0  0  0  0
 24 60  1  0  0  0  0
 25 51  1  0  0  0  0
 26 74  1  0  0  0  0
 27 84  1  0  0  0  0
 28 85  1  0  0  0  0
 29 31  2  0  0  0  0
 29 84  1  0  0  0  0
 30 86  1  0  0  0  0
 31 87  1  0  0  0  0
 32 68  2  0  0  0  0
 33 69  1  0  0  0  0
 33 72  1  0  0  0  0
 34 73  1  0  0  0  0
 34 79  2  0  0  0  0
 35 49  1  0  0  0  0
 35 75  1  0  0  0  0
 35 80  2  0  0  0  0
 36 63  1  0  0  0  0
 36 70  1  0  0  0  0
 36 81  2  0  0  0  0
 37 64  1  0  0  0  0
 37 76  1  0  0  0  0
 37 82  2  0  0  0  0
 38 71  1  0  0  0  0
 38 74  1  0  0  0  0
 38 83  2  0  0  0  0
 39 42  1  0  0  0  0
 40 49  1  0  0  0  0
 41 70  1  0  0  0  0
 42 44  1  0  0  0  0
 43 45  1  0  0  0  0
 43 46  1  0  0  0  0
 44 48  1  0  0  0  0
 45 50  1  0  0  0  0
 46 71  1  0  0  0  0
 47 50  1  0  0  0  0
 47 71  1  0  0  0  0
 48 75  1  0  0  0  0
 49 70  1  0  0  0  0
 50 69  1  0  0  0  0
 52 64  1  0  0  0  0
 53 65  1  0  0  0  0
 54 65  1  0  0  0  0
 55 66  1  0  0  0  0
 56 67  1  0  0  0  0
 57 67  1  0  0  0  0
 58 67  1  0  0  0  0
 59 77  1  0  0  0  0
 60 78  1  0  0  0  0
 61 65  1  0  0  0  0
 61 78  1  0  0  0  0
 62 66  1  0  0  0  0
 62 78  1  0  0  0  0
 63 67  1  0  0  0  0
 63 76  1  0  0  0  0
 64 77  1  0  0  0  0
 66 85  1  0  0  0  0
 68 69  1  0  0  0  0
M  CHG  2  77   1  78   1
M  ISO  4  38 100  66 101  74 100  85 101
M  END
> <Batch ID>
0027

> <Smiles>
CNC(C)C(=O)NC(C(=O)N1Cc2cc([101O:1][101CH:1](C)CN(Cc3ccc([100NH:0][100C:0](=O)N4CCCC(n5nc(-c6ccc(Oc7ccc(F)cc7F)cc6)c(C(N)=O)c5N)C4)cc3C)CC(C)C)ccc2CC1C(=O)NC1CCCc2ccccc21)C(C)(C)C

> <Shape>
0.243

> <Color>
0.062

> <Negative vol penalty>
0.000

$$$$

  -OEChem-04042321283D

 84 93  0     1  0  0  0  0  0999 V2000
  -23.7811  -33.2142   15.1222 C   0  0  0  0  0  0  0  0  0  0  0  0
  -24.7310  -32.4596   15.8032 C   0  0  0  0  0  0  0  0  0  0  0  0
  -23.9371   -9.7476   21.3893 C   0  0  0  0  0  0  0  0  0  0  0  0
  -24.5697  -10.7840   23.4780 C   0  0  0  0  0  0  0  0  0  0  0  0
  -22.7922  -33.8935   15.8326 C   0  0  0  0  0  0  0  0  0  0  0  0
  -24.6933  -32.3848   17.1951 C   0  0  0  0  0  0  0  0  0  0  0  0
  -25.3555  -27.6646   18.9057 C   0  0  0  0  0  0  0  0  0  0  0  0
  -30.4155  -20.5278   19.1472 C   0  0  0  0  0  0  0  0  0  0  0  0
  -30.2292  -19.1475   19.2232 C   0  0  0  0  0  0  0  0  0  0  0  0
  -23.4756   -8.6295   22.0838 C   0  0  0  0  0  0  0  0  0  0  0  0
  -24.1082   -9.6658   24.1726 C   0  0  0  0  0  0  0  0  0  0  0  0
  -26.6590  -27.1702   18.9216 C   0  0  0  0  0  0  0  0  0  0  0  0
  -20.7359   -7.7586   23.8639 C   0  0  0  0  0  0  0  0  0  0  0  0
  -19.5000   -7.2293   23.4924 C   0  0  0  0  0  0  0  0  0  0  0  0
  -26.8059  -27.6506   21.2811 C   0  0  0  0  0  0  0  0  0  0  0  0
  -29.0849  -20.8173   21.1429 C   0  0  0  0  0  0  0  0  0  0  0  0
  -20.5611   -5.1249   22.9605 C   0  0  0  0  0  0  0  0  0  0  0  0
  -24.4842  -10.8248   22.0864 C   0  0  0  0  0  0  0  0  0  0  0  0
  -24.2261  -13.1289   21.0223 C   0  0  0  0  0  0  0  0  0  0  0  0
  -22.7366  -33.8192   17.2333 C   0  0  0  0  0  0  0  0  0  0  0  0
  -24.7703  -28.1667   20.0770 C   0  0  0  0  0  0  0  0  0  0  0  0
  -23.7036  -33.0649   17.9250 C   0  0  0  0  0  0  0  0  0  0  0  0
  -25.4939  -28.1484   21.2779 C   0  0  0  0  0  0  0  0  0  0  0  0
  -28.8985  -19.4370   21.2189 C   0  0  0  0  0  0  0  0  0  0  0  0
  -29.8434  -21.3627   20.1071 C   0  0  0  0  0  0  0  0  0  0  0  0
  -29.4707  -18.6021   20.2590 C   0  0  0  0  0  0  0  0  0  0  0  0
  -23.5611   -8.5886   23.4754 C   0  0  0  0  0  0  0  0  0  0  0  0
  -27.3854  -27.1658   20.1088 C   0  0  0  0  0  0  0  0  0  0  0  0
  -21.8845   -6.9711   23.7836 C   0  0  0  0  0  0  0  0  0  0  0  0
  -19.4126   -5.9125   23.0407 C   0  0  0  0  0  0  0  0  0  0  0  0
  -21.7971   -5.6543   23.3319 C   0  0  0  0  0  0  0  0  0  0  0  0
  -24.9617  -11.9799   21.3694 C   0  0  0  0  0  0  0  0  0  0  0  0
  -25.1260  -13.9244   20.3561 C   0  0  0  0  0  0  0  0  0  0  0  0
  -29.5916  -23.7384   20.8230 C   0  0  0  0  0  0  0  0  0  0  0  0
  -22.8522  -13.4487   21.2792 C   0  0  0  0  0  0  0  0  0  0  0  0
  -23.6394  -30.9951   20.9851 C   0  0  0  0  0  0  0  0  0  0  0  0
  -22.7168  -29.3437   23.6203 C   0  0  0  0  0  0  0  0  0  0  0  0
  -23.1772  -26.6434   25.6557 C   0  0  0  0  0  0  0  0  0  0  0  0
  -30.1779  -16.2152   19.8733 C   0  0  0  0  0  0  0  0  0  0  0  0
  -21.6775  -34.6091   17.9607 C   0  0  0  0  0  0  0  0  0  0  0  0
  -23.3538  -28.6718   20.0488 C   0  0  0  0  0  0  0  0  0  0  0  0
  -24.9041  -28.6574   22.5669 C   0  0  0  0  0  0  0  0  0  0  0  0
  -21.4822  -34.1747   19.4110 C   0  0  0  0  0  0  0  0  0  0  0  0
  -29.7720  -12.9057   18.6246 C   0  0  0  0  0  0  0  0  0  0  0  0
  -22.8301  -34.0214   20.1085 C   0  0  0  0  0  0  0  0  0  0  0  0
  -28.4239  -12.4643   19.1988 C   0  0  0  0  0  0  0  0  0  0  0  0
  -30.5523  -13.7726   19.6112 C   0  0  0  0  0  0  0  0  0  0  0  0
  -30.5161  -23.5607   18.9437 C   0  0  0  0  0  0  0  0  0  0  0  0
  -28.4680  -14.4871   20.7132 C   0  0  0  0  0  0  0  0  0  0  0  0
  -23.6809  -32.9392   19.4329 C   0  0  1  0  0  0  0  0  0  0  0  0
  -30.0653  -24.7809   19.7865 C   0  0  1  0  0  0  0  0  0  0  0  0
  -23.0394  -29.6330   21.1910 C   0  0  1  0  0  0  0  0  0  0  0  0
  -27.6175  -13.6653   19.7308 C   0  0  2  0  0  0  0  0  0  0  0  0
  -28.0832  -18.8798   22.3403 C   0  0  0  0  0  0  0  0  0  0  0  0
  -22.2949  -25.5837   27.7524 C   0  0  0  0  0  0  0  0  0  0  0  0
  -24.1791  -31.4370   25.2906 C   0  0  0  0  0  0  0  0  0  0  0  0
  -24.0847  -29.8551   27.2289 C   0  0  0  0  0  0  0  0  0  0  0  0
  -21.9721  -30.7164   26.2202 C   0  0  0  0  0  0  0  0  0  0  0  0
  -22.3820  -24.1829   24.2160 C   0  0  0  0  0  0  0  0  0  0  0  0
  -28.9758  -25.6531   19.1933 C   0  0  0  0  0  0  0  0  0  1  0  0
  -23.3479  -29.0161   24.9520 C   0  0  1  0  0  0  0  0  0  0  0  0
  -22.1964  -25.6404   26.2359 C   0  0  2  0  0  0  0  0  0  0  0  0
  -23.4080  -30.2483   25.8984 C   0  0  0  0  0  0  0  0  0  0  0  0
  -26.2310  -12.0363   20.9576 N   0  0  0  0  0  0  0  0  0  0  0  0
  -26.3000  -13.2304   20.3447 N   0  0  0  0  0  0  0  0  0  0  0  0
  -30.0295  -22.7242   20.0334 N   0  0  0  0  0  0  0  0  0  0  0  0
  -23.5180  -29.1469   22.4867 N   0  0  0  0  0  0  0  0  0  0  0  0
  -29.7270  -14.8926   20.0688 N   0  0  0  0  0  0  0  0  0  0  0  0
  -25.0196  -15.1428   19.7846 N   0  0  0  0  0  0  0  0  0  0  0  0
  -22.0691  -12.5190   21.9769 N   0  0  0  0  0  0  0  0  0  0  0  0
  -29.2945  -17.1975   20.3197 N   0  0  0  0  0  0  0  0  0  0  0  0
  -23.2274  -31.6219   19.8246 N   0  0  0  0  0  0  0  0  0  0  0  0
  -22.6005  -27.8849   25.4906 N   0  0  0  0  0  0  0  0  0  0  0  0
  -22.4682  -24.2782   25.6960 N   0  3  0  0  0  0  0  0  0  0  0  0
  -29.0228  -23.7671   21.8906 O   0  0  0  0  0  0  0  0  0  0  0  0
  -22.3302  -14.5197   20.8871 O   0  0  0  0  0  0  0  0  0  0  0  0
  -24.4175  -31.4447   21.8183 O   0  0  0  0  0  0  0  0  0  0  0  0
  -21.5533  -29.7522   23.5866 O   0  0  0  0  0  0  0  0  0  0  0  0
  -24.3398  -26.3553   25.3802 O   0  0  0  0  0  0  0  0  0  0  0  0
  -31.2553  -16.4590   19.3240 O   0  0  0  0  0  0  0  0  0  0  0  0
  -23.1106   -7.4978   24.1535 O   0  0  0  0  0  0  0  0  0  0  0  0
  -28.6581  -26.6843   20.1270 O   0  0  0  0  0  0  0  0  0  1  0  0
  -18.2255   -5.4039   22.6855 F   0  0  0  0  0  0  0  0  0  0  0  0
  -22.8968   -4.8925   23.2538 F   0  0  0  0  0  0  0  0  0  0  0  0
  1  2  1  0  0  0  0
  1  5  2  0  0  0  0
  2  6  2  0  0  0  0
  3 10  2  0  0  0  0
  3 18  1  0  0  0  0
  4 11  1  0  0  0  0
  4 18  2  0  0  0  0
  5 20  1  0  0  0  0
  6 22  1  0  0  0  0
  7 12  2  0  0  0  0
  7 21  1  0  0  0  0
  8  9  2  0  0  0  0
  8 25  1  0  0  0  0
  9 26  1  0  0  0  0
 10 27  1  0  0  0  0
 11 27  2  0  0  0  0
 12 28  1  0  0  0  0
 13 14  2  0  0  0  0
 13 29  1  0  0  0  0
 14 30  1  0  0  0  0
 15 23  1  0  0  0  0
 15 28  2  0  0  0  0
 16 24  1  0  0  0  0
 16 25  2  0  0  0  0
 17 30  2  0  0  0  0
 17 31  1  0  0  0  0
 18 32  1  0  0  0  0
 19 32  1  0  0  0  0
 19 33  2  0  0  0  0
 19 35  1  0  0  0  0
 20 22  2  0  0  0  0
 20 40  1  0  0  0  0
 21 23  2  0  0  0  0
 21 41  1  0  0  0  0
 22 50  1  0  0  0  0
 23 42  1  0  0  0  0
 24 26  2  0  0  0  0
 24 54  1  0  0  0  0
 25 66  1  0  0  0  0
 26 71  1  0  0  0  0
 27 81  1  0  0  0  0
 28 82  1  0  0  0  0
 29 31  2  0  0  0  0
 29 81  1  0  0  0  0
 30 83  1  0  0  0  0
 31 84  1  0  0  0  0
 32 64  2  0  0  0  0
 33 65  1  0  0  0  0
 33 69  1  0  0  0  0
 34 51  1  0  0  0  0
 34 66  1  0  0  0  0
 34 75  2  0  0  0  0
 35 70  1  0  0  0  0
 35 76  2  0  0  0  0
 36 52  1  0  0  0  0
 36 72  1  0  0  0  0
 36 77  2  0  0  0  0
 37 61  1  0  0  0  0
 37 67  1  0  0  0  0
 37 78  2  0  0  0  0
 38 62  1  0  0  0  0
 38 73  1  0  0  0  0
 38 79  2  0  0  0  0
 39 68  1  0  0  0  0
 39 71  1  0  0  0  0
 39 80  2  0  0  0  0
 40 43  1  0  0  0  0
 41 52  1  0  0  0  0
 42 67  1  0  0  0  0
 43 45  1  0  0  0  0
 44 46  1  0  0  0  0
 44 47  1  0  0  0  0
 45 50  1  0  0  0  0
 46 53  1  0  0  0  0
 47 68  1  0  0  0  0
 48 51  1  0  0  0  0
 48 66  1  0  0  0  0
 49 53  1  0  0  0  0
 49 68  1  0  0  0  0
 50 72  1  0  0  0  0
 51 60  1  0  0  0  0
 52 67  1  0  0  0  0
 53 65  1  0  0  0  0
 55 62  1  0  0  0  0
 56 63  1  0  0  0  0
 57 63  1  0  0  0  0
 58 63  1  0  0  0  0
 59 74  1  0  0  0  0
 60 82  1  0  0  0  0
 61 63  1  0  0  0  0
 61 73  1  0  0  0  0
 62 74  1  0  0  0  0
 64 65  1  0  0  0  0
M  CHG  1  74   1
M  ISO  4  39 100  60 101  71 100  82 101
M  END
> <Batch ID>
0027

> <Smiles>
CNC(C)C(=O)NC(C(=O)N1Cc2cc([101O:1][101CH2:1]C3CN(c4ccc([100NH:0][100C:0](=O)N5CCCC(n6nc(-c7ccc(Oc8ccc(F)cc8F)cc7)c(C(N)=O)c6N)C5)c(C)c4)C3=O)ccc2CC1C(=O)NC1CCCc2ccccc21)C(C)(C)C

> <Shape>
0.292

> <Color>
0.143

> <Negative vol penalty>
0.000

$$$$

  -OEChem-04042321283D

 93103  0     1  0  0  0  0  0999 V2000
  -29.4758  -30.9439   27.7833 C   0  0  0  0  0  0  0  0  0  0  0  0
  -29.6753  -30.9708   26.4068 C   0  0  0  0  0  0  0  0  0  0  0  0
  -23.0014   -9.8947   19.9750 C   0  0  0  0  0  0  0  0  0  0  0  0
  -23.7283   -9.9353   22.2787 C   0  0  0  0  0  0  0  0  0  0  0  0
  -29.3037  -29.7250   28.4379 C   0  0  0  0  0  0  0  0  0  0  0  0
  -29.7039  -29.7786   25.6842 C   0  0  0  0  0  0  0  0  0  0  0  0
  -27.9836  -27.0964   19.2683 C   0  0  0  0  0  0  0  0  0  0  0  0
  -29.9691  -20.5650   18.7301 C   0  0  0  0  0  0  0  0  0  0  0  0
  -30.5235  -21.3700   17.7350 C   0  0  0  0  0  0  0  0  0  0  0  0
  -22.2358   -8.7585   20.2366 C   0  0  0  0  0  0  0  0  0  0  0  0
  -22.9627   -8.7991   22.5403 C   0  0  0  0  0  0  0  0  0  0  0  0
  -28.5432  -26.3655   18.2212 C   0  0  0  0  0  0  0  0  0  0  0  0
  -23.2088   -5.4626   22.0525 C   0  0  0  0  0  0  0  0  0  0  0  0
  -23.7976   -4.4422   22.7994 C   0  0  0  0  0  0  0  0  0  0  0  0
  -28.1554  -24.3243   19.4468 C   0  0  0  0  0  0  0  0  0  0  0  0
  -22.0749   -4.6761   24.4771 C   0  0  0  0  0  0  0  0  0  0  0  0
  -23.7477  -10.4831   20.9961 C   0  0  0  0  0  0  0  0  0  0  0  0
  -24.1312  -12.9998   20.8316 C   0  0  0  0  0  0  0  0  0  0  0  0
  -29.3206  -28.5179   27.7216 C   0  0  0  0  0  0  0  0  0  0  0  0
  -27.5148  -26.4466   20.4191 C   0  0  0  0  0  0  0  0  0  0  0  0
  -29.5332  -28.5423   26.3300 C   0  0  0  0  0  0  0  0  0  0  0  0
  -27.5879  -25.0490   20.5060 C   0  0  0  0  0  0  0  0  0  0  0  0
  -30.2680  -20.8078   20.0708 C   0  0  0  0  0  0  0  0  0  0  0  0
  -31.1213  -21.8557   20.4164 C   0  0  0  0  0  0  0  0  0  0  0  0
  -31.6757  -22.6608   19.4213 C   0  0  0  0  0  0  0  0  0  0  0  0
  -31.3768  -22.4179   18.0806 C   0  0  0  0  0  0  0  0  0  0  0  0
  -22.2164   -8.2107   21.5193 C   0  0  0  0  0  0  0  0  0  0  0  0
  -28.6318  -24.9795   18.3116 C   0  0  0  0  0  0  0  0  0  0  0  0
  -22.0531   -6.0898   22.5180 C   0  0  0  0  0  0  0  0  0  0  0  0
  -23.2307   -4.0490   24.0117 C   0  0  0  0  0  0  0  0  0  0  0  0
  -21.4861   -5.6965   23.7302 C   0  0  0  0  0  0  0  0  0  0  0  0
  -24.5392  -11.6565   20.7263 C   0  0  0  0  0  0  0  0  0  0  0  0
  -25.2402  -13.7248   20.4697 C   0  0  0  0  0  0  0  0  0  0  0  0
  -22.8632  -13.5435   21.2216 C   0  0  0  0  0  0  0  0  0  0  0  0
  -28.2764  -26.5202   23.5043 C   0  0  0  0  0  0  0  0  0  0  0  0
  -25.6820  -24.5943   23.7907 C   0  0  0  0  0  0  0  0  0  0  0  0
  -23.5496  -22.3691   22.3249 C   0  0  0  0  0  0  0  0  0  0  0  0
  -30.7294  -14.6719   20.7005 C   0  0  0  0  0  0  0  0  0  0  0  0
  -29.1773  -27.2219   28.4796 C   0  0  0  0  0  0  0  0  0  0  0  0
  -26.8895  -27.2471   21.5284 C   0  0  0  0  0  0  0  0  0  0  0  0
  -27.0806  -24.3018   21.7113 C   0  0  0  0  0  0  0  0  0  0  0  0
  -28.8469  -26.0279   27.5876 C   0  0  0  0  0  0  0  0  0  0  0  0
  -29.5974  -12.2479   18.3649 C   0  0  0  0  0  0  0  0  0  0  0  0
  -33.4915  -23.6819   15.4064 C   0  0  0  0  0  0  0  0  0  0  0  0
  -29.7510  -26.0130   26.3591 C   0  0  0  0  0  0  0  0  0  0  0  0
  -28.1484  -11.9863   18.7796 C   0  0  0  0  0  0  0  0  0  0  0  0
  -32.2564  -24.5263   15.1476 C   0  0  0  0  0  0  0  0  0  0  0  0
  -33.3598  -23.3164   16.8798 C   0  0  0  0  0  0  0  0  0  0  0  0
  -30.4980  -12.4788   19.5764 C   0  0  0  0  0  0  0  0  0  0  0  0
  -28.5878  -13.2666   20.9169 C   0  0  0  0  0  0  0  0  0  0  0  0
  -29.9374  -17.9540   22.5353 C   0  0  0  0  0  0  0  0  0  0  0  0
  -30.9797  -17.9044   20.7279 C   0  0  0  0  0  0  0  0  0  0  0  0
  -29.5459  -27.2718   25.5079 C   0  0  1  0  0  0  0  0  0  0  0  0
  -26.9132  -26.5258   22.8725 C   0  0  1  0  0  0  0  0  0  0  0  0
  -27.6290  -13.0840   19.7278 C   0  0  2  0  0  0  0  0  0  0  0  0
  -30.8317  -16.8894   21.8754 C   0  0  0  0  0  0  0  0  0  0  0  0
  -31.1646  -23.8558   15.9997 C   0  0  2  0  0  0  0  0  0  0  0  0
  -31.4401  -22.1141   21.8551 C   0  0  0  0  0  0  0  0  0  0  0  0
  -21.5499  -20.9368   22.8219 C   0  0  0  0  0  0  0  0  0  0  0  0
  -27.4708  -22.6147   25.2711 C   0  0  0  0  0  0  0  0  0  0  0  0
  -25.7211  -20.8629   24.8997 C   0  0  0  0  0  0  0  0  0  0  0  0
  -25.1863  -22.8907   26.2505 C   0  0  0  0  0  0  0  0  0  0  0  0
  -21.8976  -23.7743   20.3111 C   0  0  0  0  0  0  0  0  0  0  0  0
  -29.6601  -19.9310   21.1162 C   0  0  0  0  0  0  0  0  0  0  0  0
  -30.1867  -24.9075   16.5135 C   0  0  0  0  0  0  0  0  0  1  0  0
  -25.4467  -23.1038   23.7447 C   0  0  1  0  0  0  0  0  0  0  0  0
  -22.0340  -22.2853   22.3119 C   0  0  2  0  0  0  0  0  0  0  0  0
  -32.5914  -23.7846   19.7939 C   0  0  0  0  0  0  0  0  0  0  0  0
  -25.9676  -22.3820   25.0195 C   0  0  0  0  0  0  0  0  0  0  0  0
  -25.8082  -11.5327   20.3285 N   0  0  0  0  0  0  0  0  0  0  0  0
  -26.2072  -12.8075   20.1806 N   0  0  0  0  0  0  0  0  0  0  0  0
  -31.9160  -23.2030   17.0811 N   0  0  3  0  0  0  0  0  0  0  0  0
  -26.4833  -25.1295   22.7723 N   0  0  0  0  0  0  0  0  0  0  0  0
  -29.9500  -13.5360   20.4301 N   0  0  0  0  0  0  0  0  0  0  0  0
  -25.4727  -15.0511   20.3737 N   0  0  0  0  0  0  0  0  0  0  0  0
  -21.8323  -12.6571   21.5618 N   0  0  0  0  0  0  0  0  0  0  0  0
  -28.3324  -27.1617   24.7269 N   0  0  0  0  0  0  0  0  0  0  0  0
  -24.0204  -22.9232   23.4965 N   0  0  0  0  0  0  0  0  0  0  0  0
  -30.1392  -15.6364   21.5106 N   0  0  0  0  0  0  0  0  0  0  0  0
  -30.6211  -18.9547   21.6972 N   0  3  0  0  0  0  0  0  0  0  0  0
  -21.5164  -22.4775   20.9276 N   0  3  0  0  0  0  0  0  0  0  0  0
  -22.6457  -14.7786   21.2514 O   0  0  0  0  0  0  0  0  0  0  0  0
  -29.2081  -25.9732   22.9260 O   0  0  0  0  0  0  0  0  0  0  0  0
  -25.1677  -25.2601   24.6928 O   0  0  0  0  0  0  0  0  0  0  0  0
  -24.2464  -21.9785   21.3909 O   0  0  0  0  0  0  0  0  0  0  0  0
  -31.8692  -14.8263   20.2485 O   0  0  0  0  0  0  0  0  0  0  0  0
  -21.4693   -7.1021   21.7750 O   0  0  0  0  0  0  0  0  0  0  0  0
  -29.1782  -24.2637   17.2913 O   0  0  0  0  0  0  0  0  0  1  0  0
  -23.7953   -3.0681   24.7280 F   0  0  0  0  0  0  0  0  0  0  0  0
  -20.3752   -6.2946   24.1820 F   0  0  0  0  0  0  0  0  0  0  0  0
  -32.7898  -23.8993   21.1383 F   0  0  0  0  0  0  0  0  0  0  0  0
  -33.8382  -23.6688   19.2537 F   0  0  0  0  0  0  0  0  0  0  0  0
  -32.1207  -24.9962   19.3840 F   0  0  0  0  0  0  0  0  0  0  0  0
  1  2  1  0  0  0  0
  1  5  2  0  0  0  0
  2  6  2  0  0  0  0
  3 10  2  0  0  0  0
  3 17  1  0  0  0  0
  4 11  1  0  0  0  0
  4 17  2  0  0  0  0
  5 19  1  0  0  0  0
  6 21  1  0  0  0  0
  7 12  2  0  0  0  0
  7 20  1  0  0  0  0
  8  9  2  0  0  0  0
  8 23  1  0  0  0  0
  9 26  1  0  0  0  0
 10 27  1  0  0  0  0
 11 27  2  0  0  0  0
 12 28  1  0  0  0  0
 13 14  2  0  0  0  0
 13 29  1  0  0  0  0
 14 30  1  0  0  0  0
 15 22  1  0  0  0  0
 15 28  2  0  0  0  0
 16 30  2  0  0  0  0
 16 31  1  0  0  0  0
 17 32  1  0  0  0  0
 18 32  1  0  0  0  0
 18 33  2  0  0  0  0
 18 34  1  0  0  0  0
 19 21  2  0  0  0  0
 19 39  1  0  0  0  0
 20 22  2  0  0  0  0
 20 40  1  0  0  0  0
 21 53  1  0  0  0  0
 22 41  1  0  0  0  0
 23 24  2  0  0  0  0
 23 64  1  0  0  0  0
 24 25  1  0  0  0  0
 24 58  1  0  0  0  0
 25 26  2  0  0  0  0
 25 68  1  0  0  0  0
 26 72  1  0  0  0  0
 27 87  1  0  0  0  0
 28 88  1  0  0  0  0
 29 31  2  0  0  0  0
 29 87  1  0  0  0  0
 30 89  1  0  0  0  0
 31 90  1  0  0  0  0
 32 70  2  0  0  0  0
 33 71  1  0  0  0  0
 33 75  1  0  0  0  0
 34 76  1  0  0  0  0
 34 82  2  0  0  0  0
 35 54  1  0  0  0  0
 35 77  1  0  0  0  0
 35 83  2  0  0  0  0
 36 66  1  0  0  0  0
 36 73  1  0  0  0  0
 36 84  2  0  0  0  0
 37 67  1  0  0  0  0
 37 78  1  0  0  0  0
 37 85  2  0  0  0  0
 38 74  1  0  0  0  0
 38 79  1  0  0  0  0
 38 86  2  0  0  0  0
 39 42  1  0  0  0  0
 40 54  1  0  0  0  0
 41 73  1  0  0  0  0
 42 45  1  0  0  0  0
 43 46  1  0  0  0  0
 43 49  1  0  0  0  0
 44 47  1  0  0  0  0
 44 48  1  0  0  0  0
 45 53  1  0  0  0  0
 46 55  1  0  0  0  0
 47 57  1  0  0  0  0
 48 72  1  0  0  0  0
 49 74  1  0  0  0  0
 50 55  1  0  0  0  0
 50 74  1  0  0  0  0
 51 56  1  0  0  0  0
 51 80  1  0  0  0  0
 52 56  1  0  0  0  0
 52 80  1  0  0  0  0
 53 77  1  0  0  0  0
 54 73  1  0  0  0  0
 55 71  1  0  0  0  0
 56 79  1  0  0  0  0
 57 65  1  0  0  0  0
 57 72  1  0  0  0  0
 59 67  1  0  0  0  0
 60 69  1  0  0  0  0
 61 69  1  0  0  0  0
 62 69  1  0  0  0  0
 63 81  1  0  0  0  0
 64 80  1  0  0  0  0
 65 88  1  0  0  0  0
 66 69  1  0  0  0  0
 66 78  1  0  0  0  0
 67 81  1  0  0  0  0
 68 91  1  0  0  0  0
 68 92  1  0  0  0  0
 68 93  1  0  0  0  0
 70 71  1  0  0  0  0
M  CHG  2  80   1  81   1
M  ISO  4  38 100  65 101  79 100  88 101
M  END
> <Batch ID>
0027

> <Smiles>
CNC(C)C(=O)NC(C(=O)N1Cc2cc([101O:1][101CH2:1]C3CCCN3c3ccc(CN4CC([100NH:0][100C:0](=O)N5CCCC(n6nc(-c7ccc(Oc8ccc(F)cc8F)cc7)c(C(N)=O)c6N)C5)C4)c(C)c3C(F)(F)F)ccc2CC1C(=O)NC1CCCc2ccccc21)C(C)(C)C

> <Shape>
0.236

> <Color>
0.190

> <Negative vol penalty>
0.000

$$$$

  -OEChem-04042321283D

 84 93  0     1  0  0  0  0  0999 V2000
  -27.7531  -36.5605   19.5041 C   0  0  0  0  0  0  0  0  0  0  0  0
  -28.0093  -35.6248   20.5012 C   0  0  0  0  0  0  0  0  0  0  0  0
  -23.1869   -9.6885   20.0546 C   0  0  0  0  0  0  0  0  0  0  0  0
  -23.8353   -9.9368   22.3687 C   0  0  0  0  0  0  0  0  0  0  0  0
  -26.5804  -36.4758   18.7549 C   0  0  0  0  0  0  0  0  0  0  0  0
  -27.0922  -34.6043   20.7503 C   0  0  0  0  0  0  0  0  0  0  0  0
  -29.0152  -27.6818   20.2291 C   0  0  0  0  0  0  0  0  0  0  0  0
  -22.4793   -8.5305   20.3772 C   0  0  0  0  0  0  0  0  0  0  0  0
  -23.1278   -8.7788   22.6913 C   0  0  0  0  0  0  0  0  0  0  0  0
  -29.3608  -26.3362   20.3560 C   0  0  0  0  0  0  0  0  0  0  0  0
  -19.9095   -7.8950   23.2226 C   0  0  0  0  0  0  0  0  0  0  0  0
  -19.0997   -7.9272   24.3578 C   0  0  0  0  0  0  0  0  0  0  0  0
  -27.0591  -25.7804   20.8472 C   0  0  0  0  0  0  0  0  0  0  0  0
  -29.8307  -19.5556   22.1935 C   0  0  0  0  0  0  0  0  0  0  0  0
  -30.4738  -19.2848   19.8805 C   0  0  0  0  0  0  0  0  0  0  0  0
  -20.3821   -6.1218   25.3239 C   0  0  0  0  0  0  0  0  0  0  0  0
  -23.8649  -10.3917   21.0504 C   0  0  0  0  0  0  0  0  0  0  0  0
  -24.1093  -12.9084   20.7128 C   0  0  0  0  0  0  0  0  0  0  0  0
  -25.6531  -35.4481   18.9884 C   0  0  0  0  0  0  0  0  0  0  0  0
  -27.6860  -28.0801   20.3959 C   0  0  0  0  0  0  0  0  0  0  0  0
  -25.9053  -34.5065   20.0044 C   0  0  0  0  0  0  0  0  0  0  0  0
  -26.7049  -27.1251   20.7091 C   0  0  0  0  0  0  0  0  0  0  0  0
  -29.7164  -18.1716   22.3239 C   0  0  0  0  0  0  0  0  0  0  0  0
  -30.2093  -20.1122   20.9718 C   0  0  0  0  0  0  0  0  0  0  0  0
  -29.9809  -17.3441   21.2326 C   0  0  0  0  0  0  0  0  0  0  0  0
  -22.4497   -8.0757   21.6955 C   0  0  0  0  0  0  0  0  0  0  0  0
  -28.3851  -25.3879   20.6645 C   0  0  0  0  0  0  0  0  0  0  0  0
  -20.9556   -6.9761   23.1380 C   0  0  0  0  0  0  0  0  0  0  0  0
  -19.3360   -7.0407   25.4085 C   0  0  0  0  0  0  0  0  0  0  0  0
  -30.3596  -17.9007   20.0108 C   0  0  0  0  0  0  0  0  0  0  0  0
  -21.1919   -6.0896   24.1886 C   0  0  0  0  0  0  0  0  0  0  0  0
  -24.5965  -11.5876   20.7178 C   0  0  0  0  0  0  0  0  0  0  0  0
  -25.1863  -13.6701   20.3301 C   0  0  0  0  0  0  0  0  0  0  0  0
  -22.8004  -13.4025   21.0261 C   0  0  0  0  0  0  0  0  0  0  0  0
  -25.2095  -30.8984   20.3921 C   0  0  0  0  0  0  0  0  0  0  0  0
  -23.8446  -28.5111   19.0328 C   0  0  0  0  0  0  0  0  0  0  0  0
  -22.8562  -25.7903   17.2279 C   0  0  0  0  0  0  0  0  0  0  0  0
  -30.5909  -14.9710   20.6472 C   0  0  0  0  0  0  0  0  0  0  0  0
  -24.3771  -35.4252   18.1847 C   0  0  0  0  0  0  0  0  0  0  0  0
  -27.2788  -29.5270   20.3292 C   0  0  0  0  0  0  0  0  0  0  0  0
  -25.2937  -27.6043   20.9139 C   0  0  0  0  0  0  0  0  0  0  0  0
  -23.6341  -34.0938   18.2591 C   0  0  0  0  0  0  0  0  0  0  0  0
  -29.6899  -12.3055   18.4654 C   0  0  0  0  0  0  0  0  0  0  0  0
  -23.5493  -33.6098   19.7032 C   0  0  0  0  0  0  0  0  0  0  0  0
  -28.2444  -11.9898   18.8565 C   0  0  0  0  0  0  0  0  0  0  0  0
  -30.9777  -23.5970   20.0413 C   0  0  0  0  0  0  0  0  0  0  0  0
  -30.5365  -12.6828   19.6798 C   0  0  0  0  0  0  0  0  0  0  0  0
  -30.7110  -22.1554   19.6084 C   0  0  0  0  0  0  0  0  0  0  0  0
  -28.5378  -13.4430   20.9032 C   0  0  0  0  0  0  0  0  0  0  0  0
  -30.0606  -22.4294   21.9263 C   0  0  0  0  0  0  0  0  0  0  0  0
  -24.9466  -33.3705   20.2878 C   0  0  1  0  0  0  0  0  0  0  0  0
  -25.8781  -29.7326   19.7250 C   0  0  1  0  0  0  0  0  0  0  0  0
  -27.6303  -13.1206   19.7049 C   0  0  2  0  0  0  0  0  0  0  0  0
  -30.0485  -23.7899   21.2309 C   0  0  2  0  0  0  0  0  0  1  0  0
  -29.3068  -17.6034   23.6439 C   0  0  0  0  0  0  0  0  0  0  0  0
  -20.9189  -24.9043   15.9015 C   0  0  0  0  0  0  0  0  0  0  0  0
  -22.3461  -27.9204   21.6231 C   0  0  0  0  0  0  0  0  0  0  0  0
  -20.9650  -26.2564   20.3615 C   0  0  0  0  0  0  0  0  0  0  0  0
  -20.8973  -28.6678   19.7266 C   0  0  0  0  0  0  0  0  0  0  0  0
  -24.4799  -25.6063   14.7604 C   0  0  0  0  0  0  0  0  0  0  0  0
  -22.9570  -27.3026   19.1918 C   0  0  1  0  0  0  0  0  0  0  0  0
  -22.2328  -25.6682   15.8491 C   0  0  2  0  0  0  0  0  0  0  0  0
  -21.8197  -27.5346   20.2263 C   0  0  0  0  0  0  0  0  0  0  0  0
  -25.8827  -11.5111   20.3661 N   0  0  0  0  0  0  0  0  0  0  0  0
  -26.2129  -12.7934   20.1364 N   0  0  0  0  0  0  0  0  0  0  0  0
  -30.3221  -21.4807   20.8432 N   0  0  3  0  0  0  0  0  0  0  0  0
  -24.9484  -28.6022   19.8894 N   0  0  0  0  0  0  0  0  0  0  0  0
  -29.8948  -13.7626   20.4328 N   0  0  0  0  0  0  0  0  0  0  0  0
  -25.3457  -14.9976   20.1437 N   0  0  0  0  0  0  0  0  0  0  0  0
  -21.8112  -12.4832   21.4012 N   0  0  0  0  0  0  0  0  0  0  0  0
  -29.8681  -15.9364   21.3475 N   0  0  0  0  0  0  0  0  0  0  0  0
  -25.4885  -32.1181   19.8056 N   0  0  0  0  0  0  0  0  0  0  0  0
  -22.4870  -26.9624   17.8533 N   0  0  0  0  0  0  0  0  0  0  0  0
  -23.1564  -24.9518   14.9246 N   0  3  0  0  0  0  0  0  0  0  0  0
  -22.5119  -14.6215   20.9591 O   0  0  0  0  0  0  0  0  0  0  0  0
  -24.4916  -30.7067   21.3666 O   0  0  0  0  0  0  0  0  0  0  0  0
  -23.5659  -29.3557   18.1771 O   0  0  0  0  0  0  0  0  0  0  0  0
  -23.5937  -24.9302   17.7040 O   0  0  0  0  0  0  0  0  0  0  0  0
  -31.7333  -15.1472   20.2160 O   0  0  0  0  0  0  0  0  0  0  0  0
  -21.7592   -6.9459   22.0106 O   0  0  0  0  0  0  0  0  0  0  0  0
  -28.7285  -24.0753   20.7824 O   0  0  0  0  0  0  0  0  0  1  0  0
  -18.5592   -7.0728   26.4992 F   0  0  0  0  0  0  0  0  0  0  0  0
  -30.6154  -17.1159   18.9543 F   0  0  0  0  0  0  0  0  0  0  0  0
  -22.1961   -5.2054   24.1136 F   0  0  0  0  0  0  0  0  0  0  0  0
  1  2  1  0  0  0  0
  1  5  2  0  0  0  0
  2  6  2  0  0  0  0
  3  8  2  0  0  0  0
  3 17  1  0  0  0  0
  4  9  1  0  0  0  0
  4 17  2  0  0  0  0
  5 19  1  0  0  0  0
  6 21  1  0  0  0  0
  7 10  2  0  0  0  0
  7 20  1  0  0  0  0
  8 26  1  0  0  0  0
  9 26  2  0  0  0  0
 10 27  1  0  0  0  0
 11 12  2  0  0  0  0
 11 28  1  0  0  0  0
 12 29  1  0  0  0  0
 13 22  1  0  0  0  0
 13 27  2  0  0  0  0
 14 23  2  0  0  0  0
 14 24  1  0  0  0  0
 15 24  2  0  0  0  0
 15 30  1  0  0  0  0
 16 29  2  0  0  0  0
 16 31  1  0  0  0  0
 17 32  1  0  0  0  0
 18 32  1  0  0  0  0
 18 33  2  0  0  0  0
 18 34  1  0  0  0  0
 19 21  2  0  0  0  0
 19 39  1  0  0  0  0
 20 22  2  0  0  0  0
 20 40  1  0  0  0  0
 21 51  1  0  0  0  0
 22 41  1  0  0  0  0
 23 25  1  0  0  0  0
 23 55  1  0  0  0  0
 24 66  1  0  0  0  0
 25 30  2  0  0  0  0
 25 71  1  0  0  0  0
 26 80  1  0  0  0  0
 27 81  1  0  0  0  0
 28 31  2  0  0  0  0
 28 80  1  0  0  0  0
 29 82  1  0  0  0  0
 30 83  1  0  0  0  0
 31 84  1  0  0  0  0
 32 64  2  0  0  0  0
 33 65  1  0  0  0  0
 33 69  1  0  0  0  0
 34 70  1  0  0  0  0
 34 75  2  0  0  0  0
 35 52  1  0  0  0  0
 35 72  1  0  0  0  0
 35 76  2  0  0  0  0
 36 61  1  0  0  0  0
 36 67  1  0  0  0  0
 36 77  2  0  0  0  0
 37 62  1  0  0  0  0
 37 73  1  0  0  0  0
 37 78  2  0  0  0  0
 38 68  1  0  0  0  0
 38 71  1  0  0  0  0
 38 79  2  0  0  0  0
 39 42  1  0  0  0  0
 40 52  1  0  0  0  0
 41 67  1  0  0  0  0
 42 44  1  0  0  0  0
 43 45  1  0  0  0  0
 43 47  1  0  0  0  0
 44 51  1  0  0  0  0
 45 53  1  0  0  0  0
 46 48  1  0  0  0  0
 46 54  1  0  0  0  0
 47 68  1  0  0  0  0
 48 66  1  0  0  0  0
 49 53  1  0  0  0  0
 49 68  1  0  0  0  0
 50 54  1  0  0  0  0
 50 66  1  0  0  0  0
 51 72  1  0  0  0  0
 52 67  1  0  0  0  0
 53 65  1  0  0  0  0
 54 81  1  0  0  0  0
 56 62  1  0  0  0  0
 57 63  1  0  0  0  0
 58 63  1  0  0  0  0
 59 63  1  0  0  0  0
 60 74  1  0  0  0  0
 61 63  1  0  0  0  0
 61 73  1  0  0  0  0
 62 74  1  0  0  0  0
 64 65  1  0  0  0  0
M  CHG  1  74   1
M  ISO  4  38 100  54 101  71 100  81 101
M  END
> <Batch ID>
0027

> <Smiles>
CNC(C)C(=O)NC(C(=O)N1Cc2cc([101O:1][101CH:1]3CCN(c4cc(C)c([100NH:0][100C:0](=O)N5CCCC(n6nc(-c7ccc(Oc8ccc(F)cc8F)cc7)c(C(N)=O)c6N)C5)c(F)c4)C3)ccc2CC1C(=O)NC1CCCc2ccccc21)C(C)(C)C

> <Shape>
0.302

> <Color>
0.208

> <Negative vol penalty>
0.000

$$$$

  -OEChem-04042321283D

 87 96  0     1  0  0  0  0  0999 V2000
  -37.7392  -16.5713   31.2817 C   0  0  0  0  0  0  0  0  0  0  0  0
  -36.4470  -16.2583   30.8722 C   0  0  0  0  0  0  0  0  0  0  0  0
  -23.4146  -10.2216   22.2591 C   0  0  0  0  0  0  0  0  0  0  0  0
  -23.6064   -9.5604   19.9433 C   0  0  0  0  0  0  0  0  0  0  0  0
  -37.9382  -17.4308   32.3613 C   0  0  0  0  0  0  0  0  0  0  0  0
  -35.3529  -16.8039   31.5429 C   0  0  0  0  0  0  0  0  0  0  0  0
  -31.7946  -18.5250   28.3774 C   0  0  0  0  0  0  0  0  0  0  0  0
  -27.7149  -16.4468   23.9437 C   0  0  0  0  0  0  0  0  0  0  0  0
  -27.1919  -16.1031   25.1902 C   0  0  0  0  0  0  0  0  0  0  0  0
  -22.7065   -9.0518   22.5345 C   0  0  0  0  0  0  0  0  0  0  0  0
  -22.8984   -8.3906   20.2186 C   0  0  0  0  0  0  0  0  0  0  0  0
  -30.9542  -17.5804   27.7899 C   0  0  0  0  0  0  0  0  0  0  0  0
  -19.6752   -7.4790   20.6784 C   0  0  0  0  0  0  0  0  0  0  0  0
  -18.6652   -7.1086   19.7906 C   0  0  0  0  0  0  0  0  0  0  0  0
  -29.2437  -18.1045   29.4081 C   0  0  0  0  0  0  0  0  0  0  0  0
  -28.3562  -14.1463   23.5785 C   0  0  0  0  0  0  0  0  0  0  0  0
  -19.8169   -5.0317   19.3468 C   0  0  0  0  0  0  0  0  0  0  0  0
  -23.8645  -10.4760   20.9635 C   0  0  0  0  0  0  0  0  0  0  0  0
  -24.1483  -13.0085   20.8479 C   0  0  0  0  0  0  0  0  0  0  0  0
  -36.8461  -17.9948   33.0394 C   0  0  0  0  0  0  0  0  0  0  0  0
  -31.3691  -19.2600   29.4933 C   0  0  0  0  0  0  0  0  0  0  0  0
  -35.5375  -17.6707   32.6334 C   0  0  0  0  0  0  0  0  0  0  0  0
  -30.0796  -19.0597   30.0064 C   0  0  0  0  0  0  0  0  0  0  0  0
  -28.2971  -15.4684   23.1378 C   0  0  0  0  0  0  0  0  0  0  0  0
  -27.2510  -14.7810   25.6309 C   0  0  0  0  0  0  0  0  0  0  0  0
  -22.4484   -8.1363   21.5143 C   0  0  0  0  0  0  0  0  0  0  0  0
  -29.6796  -17.3679   28.3070 C   0  0  0  0  0  0  0  0  0  0  0  0
  -20.7562   -6.6258   20.9004 C   0  0  0  0  0  0  0  0  0  0  0  0
  -18.7360   -5.8850   19.1248 C   0  0  0  0  0  0  0  0  0  0  0  0
  -20.8270   -5.4021   20.2346 C   0  0  0  0  0  0  0  0  0  0  0  0
  -27.8332  -13.8026   24.8251 C   0  0  0  0  0  0  0  0  0  0  0  0
  -24.5954  -11.6844   20.6783 C   0  0  0  0  0  0  0  0  0  0  0  0
  -25.2057  -13.7832   20.4378 C   0  0  0  0  0  0  0  0  0  0  0  0
  -22.8897  -13.4946   21.3330 C   0  0  0  0  0  0  0  0  0  0  0  0
  -32.3522  -19.5389   32.5032 C   0  0  0  0  0  0  0  0  0  0  0  0
  -30.0802  -21.8511   32.6210 C   0  0  0  0  0  0  0  0  0  0  0  0
  -26.7106  -22.2960   31.4106 C   0  0  0  0  0  0  0  0  0  0  0  0
  -30.8195  -14.6081   20.7860 C   0  0  0  0  0  0  0  0  0  0  0  0
  -37.1105  -18.8813   34.2306 C   0  0  0  0  0  0  0  0  0  0  0  0
  -32.2778  -20.2943   30.0991 C   0  0  0  0  0  0  0  0  0  0  0  0
  -29.5676  -19.8372   31.1904 C   0  0  0  0  0  0  0  0  0  0  0  0
  -35.9015  -19.7129   34.6513 C   0  0  0  0  0  0  0  0  0  0  0  0
  -25.6063  -13.7811   29.4691 C   0  0  0  0  0  0  0  0  0  0  0  0
  -24.7517  -13.7737   28.2111 C   0  0  0  0  0  0  0  0  0  0  0  0
  -29.4645  -12.5577   18.0180 C   0  0  0  0  0  0  0  0  0  0  0  0
  -34.6479  -18.8452   34.7011 C   0  0  0  0  0  0  0  0  0  0  0  0
  -28.0659  -12.2030   18.5200 C   0  0  0  0  0  0  0  0  0  0  0  0
  -27.0561  -13.4654   29.1242 C   0  0  0  0  0  0  0  0  0  0  0  0
  -25.2950  -14.7201   27.1441 C   0  0  0  0  0  0  0  0  0  0  0  0
  -30.4403  -12.7823   19.1691 C   0  0  0  0  0  0  0  0  0  0  0  0
  -28.5816  -13.4378   20.6624 C   0  0  0  0  0  0  0  0  0  0  0  0
  -34.3254  -18.2621   33.3200 C   0  0  1  0  0  0  0  0  0  0  0  0
  -31.9303  -20.6196   31.5485 C   0  0  1  0  0  0  0  0  0  0  0  0
  -27.5628  -13.2507   19.5282 C   0  0  2  0  0  0  0  0  0  0  0  0
  -27.6333  -14.3927   28.0442 C   0  0  2  0  0  0  0  0  0  0  0  0
  -25.4459  -24.3861   30.8366 C   0  0  0  0  0  0  0  0  0  0  0  0
  -29.0545  -21.6715   35.4890 C   0  0  0  0  0  0  0  0  0  0  0  0
  -26.8212  -22.4472   34.6650 C   0  0  0  0  0  0  0  0  0  0  0  0
  -28.8162  -23.9270   34.4352 C   0  0  0  0  0  0  0  0  0  0  0  0
  -31.1737  -16.4486   22.3880 C   0  0  0  0  0  0  0  0  0  0  0  0
  -26.1073  -21.3205   28.6824 C   0  0  0  0  0  0  0  0  0  0  0  0
  -28.8561  -15.8364   21.8052 C   0  0  0  0  0  0  0  0  0  0  0  0
  -27.9173  -15.7963   28.5903 C   0  0  0  0  0  0  0  0  0  1  0  0
  -28.6085  -21.8878   32.9552 C   0  0  1  0  0  0  0  0  0  0  0  0
  -26.2606  -23.2218   30.2949 C   0  0  2  0  0  0  0  0  0  0  0  0
  -28.3373  -22.4601   34.3752 C   0  0  0  0  0  0  0  0  0  0  0  0
  -25.8398  -11.6181   20.1977 N   0  0  0  0  0  0  0  0  0  0  0  0
  -26.1836  -12.9101   20.0617 N   0  0  0  0  0  0  0  0  0  0  0  0
  -26.7179  -14.4669   26.8875 N   0  0  2  0  0  0  0  0  0  0  0  0
  -30.4958  -20.8327   31.7516 N   0  0  0  0  0  0  0  0  0  0  0  0
  -29.9183  -13.7500   20.1346 N   0  0  0  0  0  0  0  0  0  0  0  0
  -25.3849  -15.1193   20.3657 N   0  0  0  0  0  0  0  0  0  0  0  0
  -21.9144  -12.5621   21.7119 N   0  0  0  0  0  0  0  0  0  0  0  0
  -33.7064  -19.2649   32.4799 N   0  0  0  0  0  0  0  0  0  0  0  0
  -27.9638  -22.6312   31.8781 N   0  0  0  0  0  0  0  0  0  0  0  0
  -30.2807  -15.5299   21.6963 N   0  0  0  0  0  0  0  0  0  0  0  0
  -25.4225  -22.4789   29.3117 N   0  3  0  0  0  0  0  0  0  0  0  0
  -22.6314  -14.7196   21.4121 O   0  0  0  0  0  0  0  0  0  0  0  0
  -31.5117  -18.9949   33.2098 O   0  0  0  0  0  0  0  0  0  0  0  0
  -30.8322  -22.6993   33.1076 O   0  0  0  0  0  0  0  0  0  0  0  0
  -26.0181  -21.3706   31.8283 O   0  0  0  0  0  0  0  0  0  0  0  0
  -32.0353  -14.5597   20.5593 O   0  0  0  0  0  0  0  0  0  0  0  0
  -21.7578   -6.9946   21.7827 O   0  0  0  0  0  0  0  0  0  0  0  0
  -28.8576  -16.4460   27.7358 O   0  0  0  0  0  0  0  0  0  1  0  0
  -17.7652   -5.5288   18.2735 F   0  0  0  0  0  0  0  0  0  0  0  0
  -21.8624   -4.5777   20.4446 F   0  0  0  0  0  0  0  0  0  0  0  0
  -27.9270  -12.1538   25.3324 Cl  0  0  0  0  0  0  0  0  0  0  0  0
  1  2  1  0  0  0  0
  1  5  2  0  0  0  0
  2  6  2  0  0  0  0
  3 10  2  0  0  0  0
  3 18  1  0  0  0  0
  4 11  1  0  0  0  0
  4 18  2  0  0  0  0
  5 20  1  0  0  0  0
  6 22  1  0  0  0  0
  7 12  2  0  0  0  0
  7 21  1  0  0  0  0
  8  9  2  0  0  0  0
  8 24  1  0  0  0  0
  9 25  1  0  0  0  0
 10 26  1  0  0  0  0
 11 26  2  0  0  0  0
 12 27  1  0  0  0  0
 13 14  2  0  0  0  0
 13 28  1  0  0  0  0
 14 29  1  0  0  0  0
 15 23  1  0  0  0  0
 15 27  2  0  0  0  0
 16 24  2  0  0  0  0
 16 31  1  0  0  0  0
 17 29  2  0  0  0  0
 17 30  1  0  0  0  0
 18 32  1  0  0  0  0
 19 32  1  0  0  0  0
 19 33  2  0  0  0  0
 19 34  1  0  0  0  0
 20 22  2  0  0  0  0
 20 39  1  0  0  0  0
 21 23  2  0  0  0  0
 21 40  1  0  0  0  0
 22 52  1  0  0  0  0
 23 41  1  0  0  0  0
 24 62  1  0  0  0  0
 25 31  2  0  0  0  0
 25 69  1  0  0  0  0
 26 83  1  0  0  0  0
 27 84  1  0  0  0  0
 28 30  2  0  0  0  0
 28 83  1  0  0  0  0
 29 85  1  0  0  0  0
 30 86  1  0  0  0  0
 31 87  1  0  0  0  0
 32 67  2  0  0  0  0
 33 68  1  0  0  0  0
 33 72  1  0  0  0  0
 34 73  1  0  0  0  0
 34 78  2  0  0  0  0
 35 53  1  0  0  0  0
 35 74  1  0  0  0  0
 35 79  2  0  0  0  0
 36 64  1  0  0  0  0
 36 70  1  0  0  0  0
 36 80  2  0  0  0  0
 37 65  1  0  0  0  0
 37 75  1  0  0  0  0
 37 81  2  0  0  0  0
 38 71  1  0  0  0  0
 38 76  1  0  0  0  0
 38 82  2  0  0  0  0
 39 42  1  0  0  0  0
 40 53  1  0  0  0  0
 41 70  1  0  0  0  0
 42 46  1  0  0  0  0
 43 44  1  0  0  0  0
 43 48  1  0  0  0  0
 44 49  1  0  0  0  0
 45 47  1  0  0  0  0
 45 50  1  0  0  0  0
 46 52  1  0  0  0  0
 47 54  1  0  0  0  0
 48 55  1  0  0  0  0
 49 69  1  0  0  0  0
 50 71  1  0  0  0  0
 51 54  1  0  0  0  0
 51 71  1  0  0  0  0
 52 74  1  0  0  0  0
 53 70  1  0  0  0  0
 54 68  1  0  0  0  0
 55 63  1  0  0  0  0
 55 69  1  0  0  0  0
 56 65  1  0  0  0  0
 57 66  1  0  0  0  0
 58 66  1  0  0  0  0
 59 66  1  0  0  0  0
 60 76  1  0  0  0  0
 61 77  1  0  0  0  0
 62 76  1  0  0  0  0
 63 84  1  0  0  0  0
 64 66  1  0  0  0  0
 64 75  1  0  0  0  0
 65 77  1  0  0  0  0
 67 68  1  0  0  0  0
M  CHG  1  77   1
M  ISO  4  38 100  63 101  76 100  84 101
M  END
> <Batch ID>
0027

> <Smiles>
CNC(C)C(=O)NC(C(=O)N1Cc2cc([101O:1][101CH2:1]C3CCCCN3c3ccc(C[100N:0](C)[100C:0](=O)N4CCCC(n5nc(-c6ccc(Oc7ccc(F)cc7F)cc6)c(C(N)=O)c5N)C4)cc3Cl)ccc2CC1C(=O)NC1CCCc2ccccc21)C(C)(C)C

> <Shape>
0.138

> <Color>
0.190

> <Negative vol penalty>
0.000

$$$$

  -OEChem-04042321283D

 83 92  0     1  0  0  0  0  0999 V2000
  -29.4222  -35.8796   24.5370 C   0  0  0  0  0  0  0  0  0  0  0  0
  -29.2200  -34.5034   24.5616 C   0  0  0  0  0  0  0  0  0  0  0  0
  -28.4931  -21.8844   18.7981 C   0  0  0  0  0  0  0  0  0  0  0  0
  -24.2480   -9.3107   22.0841 C   0  0  0  0  0  0  0  0  0  0  0  0
  -24.1307   -8.5810   19.7839 C   0  0  0  0  0  0  0  0  0  0  0  0
  -28.2350  -20.5656   19.1719 C   0  0  0  0  0  0  0  0  0  0  0  0
  -28.3307  -36.7417   24.4403 C   0  0  0  0  0  0  0  0  0  0  0  0
  -27.9260  -33.9885   24.4907 C   0  0  0  0  0  0  0  0  0  0  0  0
  -27.5586  -30.0933   21.2755 C   0  0  0  0  0  0  0  0  0  0  0  0
  -28.0247  -22.9368   19.5849 C   0  0  0  0  0  0  0  0  0  0  0  0
  -23.1381   -8.5234   22.3905 C   0  0  0  0  0  0  0  0  0  0  0  0
  -23.0209   -7.7936   20.0903 C   0  0  0  0  0  0  0  0  0  0  0  0
  -28.0192  -28.8549   21.7204 C   0  0  0  0  0  0  0  0  0  0  0  0
  -22.4881   -5.2595   22.9884 C   0  0  0  0  0  0  0  0  0  0  0  0
  -22.5428   -4.4849   24.1471 C   0  0  0  0  0  0  0  0  0  0  0  0
  -25.7507  -28.1914   22.2031 C   0  0  0  0  0  0  0  0  0  0  0  0
  -20.6116   -5.6480   25.0159 C   0  0  0  0  0  0  0  0  0  0  0  0
  -24.7443   -9.3396   20.7808 C   0  0  0  0  0  0  0  0  0  0  0  0
  -27.5084  -20.2991   20.3324 C   0  0  0  0  0  0  0  0  0  0  0  0
  -27.2444   -9.7715   20.5154 C   0  0  0  0  0  0  0  0  0  0  0  0
  -27.0234  -36.2369   24.3583 C   0  0  0  0  0  0  0  0  0  0  0  0
  -26.1893  -30.3946   21.3013 C   0  0  0  0  0  0  0  0  0  0  0  0
  -26.8160  -34.8448   24.3941 C   0  0  0  0  0  0  0  0  0  0  0  0
  -25.2751  -29.4334   21.7556 C   0  0  0  0  0  0  0  0  0  0  0  0
  -27.0400  -21.3514   21.1192 C   0  0  0  0  0  0  0  0  0  0  0  0
  -27.2982  -22.6703   20.7454 C   0  0  0  0  0  0  0  0  0  0  0  0
  -22.5246   -7.7648   21.3936 C   0  0  0  0  0  0  0  0  0  0  0  0
  -27.1155  -27.9048   22.1870 C   0  0  0  0  0  0  0  0  0  0  0  0
  -21.4952   -6.2285   22.8435 C   0  0  0  0  0  0  0  0  0  0  0  0
  -21.6045   -4.6791   25.1608 C   0  0  0  0  0  0  0  0  0  0  0  0
  -20.5569   -6.4227   23.8572 C   0  0  0  0  0  0  0  0  0  0  0  0
  -25.8904  -10.1532   20.4635 C   0  0  0  0  0  0  0  0  0  0  0  0
  -27.9327  -10.8936   20.1235 C   0  0  0  0  0  0  0  0  0  0  0  0
  -27.2566  -18.9093   20.6919 C   0  0  0  0  0  0  0  0  0  0  0  0
  -26.6058  -18.0108   19.9255 C   0  0  0  0  0  0  0  0  0  0  0  0
  -27.8278   -8.5150   20.8848 C   0  0  0  0  0  0  0  0  0  0  0  0
  -26.4386  -16.6319   20.4271 C   0  0  0  0  0  0  0  0  0  0  0  0
  -24.3979  -32.5663   22.7772 C   0  0  0  0  0  0  0  0  0  0  0  0
  -22.0430  -31.3069   20.9358 C   0  0  0  0  0  0  0  0  0  0  0  0
  -20.8688  -28.6420   19.1564 C   0  0  0  0  0  0  0  0  0  0  0  0
  -25.8719  -37.2094   24.3026 C   0  0  0  0  0  0  0  0  0  0  0  0
  -25.7060  -31.7252   20.7930 C   0  0  0  0  0  0  0  0  0  0  0  0
  -23.7930  -29.7000   21.7848 C   0  0  0  0  0  0  0  0  0  0  0  0
  -24.5587  -36.5733   23.8542 C   0  0  0  0  0  0  0  0  0  0  0  0
  -27.5085  -14.8096   17.4327 C   0  0  0  0  0  0  0  0  0  0  0  0
  -24.3198  -35.2621   24.5962 C   0  0  0  0  0  0  0  0  0  0  0  0
  -27.2881  -13.3650   17.8737 C   0  0  0  0  0  0  0  0  0  0  0  0
  -26.4673  -15.7549   18.0299 C   0  0  0  0  0  0  0  0  0  0  0  0
  -26.1521  -14.2298   19.9574 C   0  0  0  0  0  0  0  0  0  0  0  0
  -26.4816  -25.0301   21.0536 C   0  0  0  0  0  0  0  0  0  0  0  0
  -27.3608  -24.1729   22.7624 C   0  0  0  0  0  0  0  0  0  0  0  0
  -25.4291  -34.2474   24.2942 C   0  0  1  0  0  0  0  0  0  0  0  0
  -24.3384  -32.1149   21.3453 C   0  0  1  0  0  0  0  0  0  0  0  0
  -27.2166  -13.2685   19.4059 C   0  0  1  0  0  0  0  0  0  0  0  0
  -26.7090  -25.5353   22.4854 C   0  0  0  0  0  0  0  0  0  1  0  0
  -26.2576  -21.0727   22.3659 C   0  0  0  0  0  0  0  0  0  0  0  0
  -18.8973  -27.8978   17.7938 C   0  0  0  0  0  0  0  0  0  0  0  0
  -20.4308  -30.9014   23.4944 C   0  0  0  0  0  0  0  0  0  0  0  0
  -18.9441  -29.3359   22.2268 C   0  0  0  0  0  0  0  0  0  0  0  0
  -19.1021  -31.7301   21.5445 C   0  0  0  0  0  0  0  0  0  0  0  0
  -22.5342  -28.2662   16.7389 C   0  0  0  0  0  0  0  0  0  0  0  0
  -21.0491  -30.1816   21.0933 C   0  0  1  0  0  0  0  0  0  0  0  0
  -20.2733  -28.5445   17.7634 C   0  0  2  0  0  0  0  0  0  0  0  0
  -19.9096  -30.5326   22.0911 C   0  0  0  0  0  0  0  0  0  0  0  0
  -25.7261  -11.4189   20.0699 N   0  0  0  0  0  0  0  0  0  0  0  0
  -26.9860  -11.8424   19.8709 N   0  0  0  0  0  0  0  0  0  0  0  0
  -26.8397  -23.7338   21.5148 N   0  0  0  0  0  0  0  0  0  0  0  0
  -26.3762  -15.6023   19.4898 N   0  0  0  0  0  0  0  0  0  0  0  0
  -23.3703  -31.0180   21.2832 N   0  0  0  0  0  0  0  0  0  0  0  0
  -29.2493  -11.1515   19.9738 N   0  0  0  0  0  0  0  0  0  0  0  0
  -26.9759   -7.4677   21.2612 N   0  0  0  0  0  0  0  0  0  0  0  0
  -25.2273  -33.6506   22.9913 N   0  0  0  0  0  0  0  0  0  0  0  0
  -20.5863  -29.8546   19.7489 N   0  0  0  0  0  0  0  0  0  0  0  0
  -21.1552  -27.7317   16.8788 N   0  3  0  0  0  0  0  0  0  0  0  0
  -29.0687   -8.3315   20.8969 O   0  0  0  0  0  0  0  0  0  0  0  0
  -26.3595  -16.4763   21.6470 O   0  0  0  0  0  0  0  0  0  0  0  0
  -23.7388  -31.9756   23.6248 O   0  0  0  0  0  0  0  0  0  0  0  0
  -21.6573  -32.3997   20.5132 O   0  0  0  0  0  0  0  0  0  0  0  0
  -21.5164  -27.7319   19.6691 O   0  0  0  0  0  0  0  0  0  0  0  0
  -21.4417   -6.9962   21.6922 O   0  0  0  0  0  0  0  0  0  0  0  0
  -27.5625  -26.6954   22.6224 O   0  0  0  0  0  0  0  0  0  1  0  0
  -21.6563   -3.9340   26.2727 F   0  0  0  0  0  0  0  0  0  0  0  0
  -19.6000   -7.3512   23.7232 F   0  0  0  0  0  0  0  0  0  0  0  0
  1  2  1  0  0  0  0
  1  7  2  0  0  0  0
  2  8  2  0  0  0  0
  3  6  1  0  0  0  0
  3 10  2  0  0  0  0
  4 11  2  0  0  0  0
  4 18  1  0  0  0  0
  5 12  1  0  0  0  0
  5 18  2  0  0  0  0
  6 19  2  0  0  0  0
  7 21  1  0  0  0  0
  8 23  1  0  0  0  0
  9 13  2  0  0  0  0
  9 22  1  0  0  0  0
 10 26  1  0  0  0  0
 11 27  1  0  0  0  0
 12 27  2  0  0  0  0
 13 28  1  0  0  0  0
 14 15  2  0  0  0  0
 14 29  1  0  0  0  0
 15 30  1  0  0  0  0
 16 24  1  0  0  0  0
 16 28  2  0  0  0  0
 17 30  2  0  0  0  0
 17 31  1  0  0  0  0
 18 32  1  0  0  0  0
 19 25  1  0  0  0  0
 19 34  1  0  0  0  0
 20 32  1  0  0  0  0
 20 33  2  0  0  0  0
 20 36  1  0  0  0  0
 21 23  2  0  0  0  0
 21 41  1  0  0  0  0
 22 24  2  0  0  0  0
 22 42  1  0  0  0  0
 23 52  1  0  0  0  0
 24 43  1  0  0  0  0
 25 26  2  0  0  0  0
 25 56  1  0  0  0  0
 26 67  1  0  0  0  0
 27 80  1  0  0  0  0
 28 81  1  0  0  0  0
 29 31  2  0  0  0  0
 29 80  1  0  0  0  0
 30 82  1  0  0  0  0
 31 83  1  0  0  0  0
 32 65  2  0  0  0  0
 33 66  1  0  0  0  0
 33 70  1  0  0  0  0
 34 35  2  0  0  0  0
 35 37  1  0  0  0  0
 36 71  1  0  0  0  0
 36 75  2  0  0  0  0
 37 68  1  0  0  0  0
 37 76  2  0  0  0  0
 38 53  1  0  0  0  0
 38 72  1  0  0  0  0
 38 77  2  0  0  0  0
 39 62  1  0  0  0  0
 39 69  1  0  0  0  0
 39 78  2  0  0  0  0
 40 63  1  0  0  0  0
 40 73  1  0  0  0  0
 40 79  2  0  0  0  0
 41 44  1  0  0  0  0
 42 53  1  0  0  0  0
 43 69  1  0  0  0  0
 44 46  1  0  0  0  0
 45 47  1  0  0  0  0
 45 48  1  0  0  0  0
 46 52  1  0  0  0  0
 47 54  1  0  0  0  0
 48 68  1  0  0  0  0
 49 54  1  0  0  0  0
 49 68  1  0  0  0  0
 50 55  1  0  0  0  0
 50 67  1  0  0  0  0
 51 55  1  0  0  0  0
 51 67  1  0  0  0  0
 52 72  1  0  0  0  0
 53 69  1  0  0  0  0
 54 66  1  0  0  0  0
 55 81  1  0  0  0  0
 57 63  1  0  0  0  0
 58 64  1  0  0  0  0
 59 64  1  0  0  0  0
 60 64  1  0  0  0  0
 61 74  1  0  0  0  0
 62 64  1  0  0  0  0
 62 73  1  0  0  0  0
 63 74  1  0  0  0  0
 65 66  1  0  0  0  0
M  CHG  1  74   1
M  ISO  4  35 100  37 100  55 101  81 101
M  END
> <Batch ID>
0027

> <Smiles>
CNC(C)C(=O)NC(C(=O)N1Cc2cc([101O:1][101CH:1]3CN(c4cccc(C=[100CH:0][100C:0](=O)N5CCCC(n6nc(-c7ccc(Oc8ccc(F)cc8F)cc7)c(C(N)=O)c6N)C5)c4C)C3)ccc2CC1C(=O)NC1CCCc2ccccc21)C(C)(C)C

> <Shape>
0.262

> <Color>
0.094

> <Negative vol penalty>
0.000

$$$$

  -OEChem-04042321283D

 84 93  0     1  0  0  0  0  0999 V2000
  -23.7346   -7.9610   21.3694 C   0  0  0  0  0  0  0  0  0  0  0  0
  -24.0342   -8.8769   20.3661 C   0  0  0  0  0  0  0  0  0  0  0  0
  -24.0501  -28.7181   22.5862 C   0  0  0  0  0  0  0  0  0  0  0  0
  -25.3887  -30.1316   21.1554 C   0  0  0  0  0  0  0  0  0  0  0  0
  -22.8317   -8.3017   22.3757 C   0  0  0  0  0  0  0  0  0  0  0  0
  -23.4303  -10.1337   20.3678 C   0  0  0  0  0  0  0  0  0  0  0  0
  -26.7157  -13.8693   19.4213 C   0  0  0  0  0  0  0  0  0  0  0  0
  -28.8032  -22.1010   15.4566 C   0  0  0  0  0  0  0  0  0  0  0  0
  -28.1490  -20.8971   15.1953 C   0  0  0  0  0  0  0  0  0  0  0  0
  -23.6001  -29.8432   23.2769 C   0  0  0  0  0  0  0  0  0  0  0  0
  -24.9386  -31.2569   21.8461 C   0  0  0  0  0  0  0  0  0  0  0  0
  -27.0958  -14.0618   18.0938 C   0  0  0  0  0  0  0  0  0  0  0  0
  -24.4223  -34.4712   23.4620 C   0  0  0  0  0  0  0  0  0  0  0  0
  -25.3668  -35.4334   23.8193 C   0  0  0  0  0  0  0  0  0  0  0  0
  -25.5331  -15.8911   17.9179 C   0  0  0  0  0  0  0  0  0  0  0  0
  -30.6893  -20.8826   16.3483 C   0  0  0  0  0  0  0  0  0  0  0  0
  -26.5535  -33.7834   25.1257 C   0  0  0  0  0  0  0  0  0  0  0  0
  -24.9445  -28.8622   21.5255 C   0  0  0  0  0  0  0  0  0  0  0  0
  -24.8238  -27.1077   19.6776 C   0  0  0  0  0  0  0  0  0  0  0  0
  -22.2237   -9.5668   22.3952 C   0  0  0  0  0  0  0  0  0  0  0  0
  -25.7320  -14.6806   20.0048 C   0  0  0  0  0  0  0  0  0  0  0  0
  -22.5174  -10.4912   21.3746 C   0  0  0  0  0  0  0  0  0  0  0  0
  -25.1442  -15.7085   19.2537 C   0  0  0  0  0  0  0  0  0  0  0  0
  -30.0734  -22.0938   16.0331 C   0  0  0  0  0  0  0  0  0  0  0  0
  -30.0351  -19.6787   16.0871 C   0  0  0  0  0  0  0  0  0  0  0  0
  -28.7649  -19.6860   15.5106 C   0  0  0  0  0  0  0  0  0  0  0  0
  -24.0443  -31.1126   22.9068 C   0  0  0  0  0  0  0  0  0  0  0  0
  -26.5024  -15.0709   17.3410 C   0  0  0  0  0  0  0  0  0  0  0  0
  -24.5433  -33.1651   23.9366 C   0  0  0  0  0  0  0  0  0  0  0  0
  -26.4324  -35.0895   24.6511 C   0  0  0  0  0  0  0  0  0  0  0  0
  -25.6089  -32.8212   24.7684 C   0  0  0  0  0  0  0  0  0  0  0  0
  -25.4102  -27.7003   20.8120 C   0  0  0  0  0  0  0  0  0  0  0  0
  -25.6397  -26.0419   19.3865 C   0  0  0  0  0  0  0  0  0  0  0  0
  -23.6468  -27.4868   18.9519 C   0  0  0  0  0  0  0  0  0  0  0  0
  -22.8570  -14.1687   21.2603 C   0  0  0  0  0  0  0  0  0  0  0  0
  -23.0649  -17.3119   22.0348 C   0  0  0  0  0  0  0  0  0  0  0  0
  -24.4324  -20.3709   21.3876 C   0  0  0  0  0  0  0  0  0  0  0  0
  -30.7279  -23.8391   18.7509 C   0  0  0  0  0  0  0  0  0  0  0  0
  -21.2183   -9.8724   23.4771 C   0  0  0  0  0  0  0  0  0  0  0  0
  -25.3523  -14.4774   21.4459 C   0  0  0  0  0  0  0  0  0  0  0  0
  -24.0978  -16.6198   19.8394 C   0  0  0  0  0  0  0  0  0  0  0  0
  -20.9064  -11.3603   23.6161 C   0  0  0  0  0  0  0  0  0  0  0  0
  -29.3943  -23.9460   22.0505 C   0  0  0  0  0  0  0  0  0  0  0  0
  -20.6579  -11.9839   22.2463 C   0  0  0  0  0  0  0  0  0  0  0  0
  -28.1950  -24.8878   21.9299 C   0  0  0  0  0  0  0  0  0  0  0  0
  -27.2727  -16.6291   14.0976 C   0  0  0  0  0  0  0  0  0  0  0  0
  -30.5525  -24.3902   21.1597 C   0  0  0  0  0  0  0  0  0  0  0  0
  -27.6753  -18.0882   13.9129 C   0  0  0  0  0  0  0  0  0  0  0  0
  -29.0022  -25.5310   19.6205 C   0  0  0  0  0  0  0  0  0  0  0  0
  -27.7318  -17.5298   16.2661 C   0  0  0  0  0  0  0  0  0  0  0  0
  -21.9015  -11.8734   21.3560 C   0  0  1  0  0  0  0  0  0  0  0  0
  -23.9712  -15.0304   21.7837 C   0  0  1  0  0  0  0  0  0  0  0  0
  -27.7887  -25.0928   20.4581 C   0  0  2  0  0  0  0  0  0  0  0  0
  -26.7850  -16.5774   15.5374 C   0  0  2  0  0  0  0  0  0  1  0  0
  -30.7180  -18.3960   16.4349 C   0  0  0  0  0  0  0  0  0  0  0  0
  -24.3803  -22.7564   22.1650 C   0  0  0  0  0  0  0  0  0  0  0  0
  -20.3767  -17.7033   20.6455 C   0  0  0  0  0  0  0  0  0  0  0  0
  -20.8309  -20.1652   20.6127 C   0  0  0  0  0  0  0  0  0  0  0  0
  -20.6360  -18.9636   22.7901 C   0  0  0  0  0  0  0  0  0  0  0  0
  -27.3080  -20.3276   22.0864 C   0  0  0  0  0  0  0  0  0  0  0  0
  -30.7725  -23.3812   16.3122 C   0  0  0  0  0  0  0  0  0  0  0  0
  -22.6881  -18.6071   21.3571 C   0  0  1  0  0  0  0  0  0  0  0  0
  -25.0649  -21.4052   22.3012 C   0  0  2  0  0  0  0  0  0  0  0  0
  -21.1512  -18.8416   21.3394 C   0  0  0  0  0  0  0  0  0  0  0  0
  -26.5133  -27.0637   21.2142 N   0  0  0  0  0  0  0  0  0  0  0  0
  -26.6266  -26.0599   20.3277 N   0  0  0  0  0  0  0  0  0  0  0  0
  -28.1036  -18.5055   15.2455 N   0  0  3  0  0  0  0  0  0  0  0  0
  -23.7558  -16.3772   21.2507 N   0  0  0  0  0  0  0  0  0  0  0  0
  -30.1008  -24.5649   19.7771 N   0  0  0  0  0  0  0  0  0  0  0  0
  -25.6021  -25.1003   18.4198 N   0  0  0  0  0  0  0  0  0  0  0  0
  -22.9261  -28.6076   19.3862 N   0  0  0  0  0  0  0  0  0  0  0  0
  -22.8818  -12.8698   21.7311 N   0  0  0  0  0  0  0  0  0  0  0  0
  -23.4449  -19.6561   22.0319 N   0  0  0  0  0  0  0  0  0  0  0  0
  -30.2346  -24.0590   17.4707 N   0  0  0  0  0  0  0  0  0  0  0  0
  -26.5083  -21.5743   21.9711 N   0  3  0  0  0  0  0  0  0  0  0  0
  -23.2369  -26.8408   17.9578 O   0  0  0  0  0  0  0  0  0  0  0  0
  -22.0349  -14.6473   20.4879 O   0  0  0  0  0  0  0  0  0  0  0  0
  -22.7638  -17.1388   23.2185 O   0  0  0  0  0  0  0  0  0  0  0  0
  -24.7772  -20.2154   20.2182 O   0  0  0  0  0  0  0  0  0  0  0  0
  -31.6548  -23.0494   18.9608 O   0  0  0  0  0  0  0  0  0  0  0  0
  -23.6052  -32.2108   23.5804 O   0  0  0  0  0  0  0  0  0  0  0  0
  -26.8711  -15.2605   16.0449 O   0  0  0  0  0  0  0  0  0  1  0  0
  -27.3402  -36.0132   24.9928 F   0  0  0  0  0  0  0  0  0  0  0  0
  -25.7311  -31.5678   25.2265 F   0  0  0  0  0  0  0  0  0  0  0  0
  1  2  1  0  0  0  0
  1  5  2  0  0  0  0
  2  6  2  0  0  0  0
  3 10  2  0  0  0  0
  3 18  1  0  0  0  0
  4 11  1  0  0  0  0
  4 18  2  0  0  0  0
  5 20  1  0  0  0  0
  6 22  1  0  0  0  0
  7 12  2  0  0  0  0
  7 21  1  0  0  0  0
  8  9  2  0  0  0  0
  8 24  1  0  0  0  0
  9 26  1  0  0  0  0
 10 27  1  0  0  0  0
 11 27  2  0  0  0  0
 12 28  1  0  0  0  0
 13 14  2  0  0  0  0
 13 29  1  0  0  0  0
 14 30  1  0  0  0  0
 15 23  1  0  0  0  0
 15 28  2  0  0  0  0
 16 24  2  0  0  0  0
 16 25  1  0  0  0  0
 17 30  2  0  0  0  0
 17 31  1  0  0  0  0
 18 32  1  0  0  0  0
 19 32  1  0  0  0  0
 19 33  2  0  0  0  0
 19 34  1  0  0  0  0
 20 22  2  0  0  0  0
 20 39  1  0  0  0  0
 21 23  2  0  0  0  0
 21 40  1  0  0  0  0
 22 51  1  0  0  0  0
 23 41  1  0  0  0  0
 24 61  1  0  0  0  0
 25 26  2  0  0  0  0
 25 55  1  0  0  0  0
 26 67  1  0  0  0  0
 27 81  1  0  0  0  0
 28 82  1  0  0  0  0
 29 31  2  0  0  0  0
 29 81  1  0  0  0  0
 30 83  1  0  0  0  0
 31 84  1  0  0  0  0
 32 65  2  0  0  0  0
 33 66  1  0  0  0  0
 33 70  1  0  0  0  0
 34 71  1  0  0  0  0
 34 76  2  0  0  0  0
 35 52  1  0  0  0  0
 35 72  1  0  0  0  0
 35 77  2  0  0  0  0
 36 62  1  0  0  0  0
 36 68  1  0  0  0  0
 36 78  2  0  0  0  0
 37 63  1  0  0  0  0
 37 73  1  0  0  0  0
 37 79  2  0  0  0  0
 38 69  1  0  0  0  0
 38 74  1  0  0  0  0
 38 80  2  0  0  0  0
 39 42  1  0  0  0  0
 40 52  1  0  0  0  0
 41 68  1  0  0  0  0
 42 44  1  0  0  0  0
 43 45  1  0  0  0  0
 43 47  1  0  0  0  0
 44 51  1  0  0  0  0
 45 53  1  0  0  0  0
 46 48  1  0  0  0  0
 46 54  1  0  0  0  0
 47 69  1  0  0  0  0
 48 67  1  0  0  0  0
 49 53  1  0  0  0  0
 49 69  1  0  0  0  0
 50 54  1  0  0  0  0
 50 67  1  0  0  0  0
 51 72  1  0  0  0  0
 52 68  1  0  0  0  0
 53 66  1  0  0  0  0
 54 82  1  0  0  0  0
 56 63  1  0  0  0  0
 57 64  1  0  0  0  0
 58 64  1  0  0  0  0
 59 64  1  0  0  0  0
 60 75  1  0  0  0  0
 61 74  1  0  0  0  0
 62 64  1  0  0  0  0
 62 73  1  0  0  0  0
 63 75  1  0  0  0  0
 65 66  1  0  0  0  0
M  CHG  1  75   1
M  ISO  4  38 100  54 101  74 100  82 101
M  END
> <Batch ID>
0027

> <Smiles>
CNC(C)C(=O)NC(C(=O)N1Cc2cc([101O:1][101CH:1]3CCN(c4ccc(C[100NH:0][100C:0](=O)N5CCCC(n6nc(-c7ccc(Oc8ccc(F)cc8F)cc7)c(C(N)=O)c6N)C5)cc4C)C3)ccc2CC1C(=O)NC1CCCc2ccccc21)C(C)(C)C

> <Shape>
0.213

> <Color>
0.070

> <Negative vol penalty>
0.000

$$$$

  -OEChem-04042321283D

 86 95  0     1  0  0  0  0  0999 V2000
  -20.0937   -8.5052   23.0805 C   0  0  0  0  0  0  0  0  0  0  0  0
  -20.6716   -9.6921   23.5194 C   0  0  0  0  0  0  0  0  0  0  0  0
  -26.8676  -31.5878   23.6662 C   0  0  0  0  0  0  0  0  0  0  0  0
  -26.2914  -31.6883   21.3221 C   0  0  0  0  0  0  0  0  0  0  0  0
  -20.7481   -7.7222   22.1305 C   0  0  0  0  0  0  0  0  0  0  0  0
  -21.9049  -10.0962   23.0093 C   0  0  0  0  0  0  0  0  0  0  0  0
  -21.9906  -15.0133   21.8012 C   0  0  0  0  0  0  0  0  0  0  0  0
  -27.1043  -22.8263   21.7549 C   0  0  0  0  0  0  0  0  0  0  0  0
  -26.9964  -32.9764   23.6941 C   0  0  0  0  0  0  0  0  0  0  0  0
  -26.4201  -33.0769   21.3499 C   0  0  0  0  0  0  0  0  0  0  0  0
  -22.1333  -15.9236   22.8474 C   0  0  0  0  0  0  0  0  0  0  0  0
  -24.9518  -35.6650   23.8501 C   0  0  0  0  0  0  0  0  0  0  0  0
  -24.3738  -36.3482   24.9200 C   0  0  0  0  0  0  0  0  0  0  0  0
  -26.4275  -22.4611   22.9205 C   0  0  0  0  0  0  0  0  0  0  0  0
  -24.4809  -16.1361   22.3344 C   0  0  0  0  0  0  0  0  0  0  0  0
  -24.4320  -22.0650   21.6367 C   0  0  0  0  0  0  0  0  0  0  0  0
  -26.5435  -37.2103   25.5416 C   0  0  0  0  0  0  0  0  0  0  0  0
  -26.5152  -30.9437   22.4802 C   0  0  0  0  0  0  0  0  0  0  0  0
  -25.2196  -28.7577   22.7041 C   0  0  0  0  0  0  0  0  0  0  0  0
  -21.9854   -8.1217   21.6013 C   0  0  0  0  0  0  0  0  0  0  0  0
  -23.0961  -14.6486   21.0192 C   0  0  0  0  0  0  0  0  0  0  0  0
  -22.5771   -9.3171   22.0522 C   0  0  0  0  0  0  0  0  0  0  0  0
  -24.3490  -15.2229   21.2772 C   0  0  0  0  0  0  0  0  0  0  0  0
  -25.0979  -22.4384   20.4572 C   0  0  0  0  0  0  0  0  0  0  0  0
  -26.4486  -22.8432   20.5128 C   0  0  0  0  0  0  0  0  0  0  0  0
  -26.7726  -33.7210   22.5360 C   0  0  0  0  0  0  0  0  0  0  0  0
  -23.3791  -16.4830   23.1161 C   0  0  0  0  0  0  0  0  0  0  0  0
  -26.3256  -35.7543   23.6260 C   0  0  0  0  0  0  0  0  0  0  0  0
  -25.1696  -37.1209   25.7657 C   0  0  0  0  0  0  0  0  0  0  0  0
  -27.1215  -36.5270   24.4717 C   0  0  0  0  0  0  0  0  0  0  0  0
  -25.0905  -22.0870   22.8631 C   0  0  0  0  0  0  0  0  0  0  0  0
  -26.3826  -29.5093   22.4506 C   0  0  0  0  0  0  0  0  0  0  0  0
  -25.6147  -27.4513   22.5501 C   0  0  0  0  0  0  0  0  0  0  0  0
  -23.9001  -29.2007   23.0479 C   0  0  0  0  0  0  0  0  0  0  0  0
  -24.6373  -11.9288   20.4438 C   0  0  0  0  0  0  0  0  0  0  0  0
  -26.2580  -13.7532   18.3066 C   0  0  0  0  0  0  0  0  0  0  0  0
  -27.2881  -16.8608   17.3431 C   0  0  0  0  0  0  0  0  0  0  0  0
  -28.4265  -23.7621   19.2641 C   0  0  0  0  0  0  0  0  0  0  0  0
  -22.6772   -7.2185   20.6111 C   0  0  0  0  0  0  0  0  0  0  0  0
  -22.9201  -13.6856   19.8773 C   0  0  0  0  0  0  0  0  0  0  0  0
  -24.3475  -22.3332   19.1533 C   0  0  0  0  0  0  0  0  0  0  0  0
  -25.5630  -14.8800   20.4544 C   0  0  0  0  0  0  0  0  0  0  0  0
  -23.8039   -7.9055   19.8438 C   0  0  0  0  0  0  0  0  0  0  0  0
  -25.0420  -23.0749   18.0212 C   0  0  0  0  0  0  0  0  0  0  0  0
  -30.1960  -25.3920   22.0807 C   0  0  0  0  0  0  0  0  0  0  0  0
  -24.6947   -8.6956   20.7972 C   0  0  0  0  0  0  0  0  0  0  0  0
  -29.3065  -26.5951   22.3870 C   0  0  0  0  0  0  0  0  0  0  0  0
  -26.5323  -22.7841   18.0435 C   0  0  0  0  0  0  0  0  0  0  0  0
  -30.1021  -24.9778   20.6156 C   0  0  0  0  0  0  0  0  0  0  0  0
  -27.8084  -25.9079   20.4715 C   0  0  0  0  0  0  0  0  0  0  0  0
  -23.9019   -9.8015   21.5042 C   0  0  1  0  0  0  0  0  0  0  0  0
  -24.2190  -12.9957   19.4719 C   0  0  1  0  0  0  0  0  0  0  0  0
  -27.8580  -26.3232   21.9496 C   0  0  2  0  0  0  0  0  0  0  0  0
  -28.6312  -18.0309   15.5755 C   0  0  0  0  0  0  0  0  0  0  0  0
  -28.8337  -12.8043   19.6391 C   0  0  0  0  0  0  0  0  0  0  0  0
  -30.0332  -14.6836   18.4999 C   0  0  0  0  0  0  0  0  0  0  0  0
  -28.9275  -12.9070   17.1421 C   0  0  0  0  0  0  0  0  0  0  0  0
  -24.9488  -18.4344   16.4431 C   0  0  0  0  0  0  0  0  0  0  0  0
  -22.8957  -22.7740   24.4803 C   0  0  0  0  0  0  0  0  0  0  0  0
  -22.8475  -19.5129   25.0229 C   0  0  0  0  0  0  0  0  0  0  0  0
  -22.3894  -18.1780   24.4590 C   0  0  0  0  0  0  0  0  0  1  0  0
  -27.5025  -14.6063   18.3560 C   0  0  1  0  0  0  0  0  0  0  0  0
  -27.2471  -17.5636   15.9982 C   0  0  2  0  0  0  0  0  0  0  0  0
  -28.8019  -13.7555   18.4262 C   0  0  0  0  0  0  0  0  0  0  0  0
  -27.4375  -28.7441   22.1579 N   0  0  0  0  0  0  0  0  0  0  0  0
  -23.6335  -20.2267   24.0249 N   0  0  0  0  0  0  0  0  0  0  0  0
  -26.9389  -27.4980   22.2267 N   0  0  0  0  0  0  0  0  0  0  0  0
  -27.1317  -23.2209   19.3048 N   0  0  0  0  0  0  0  0  0  0  0  0
  -25.3413  -13.9287   19.3529 N   0  0  0  0  0  0  0  0  0  0  0  0
  -28.7147  -24.7817   20.1930 N   0  0  0  0  0  0  0  0  0  0  0  0
  -24.9552  -26.2786   22.6612 N   0  0  0  0  0  0  0  0  0  0  0  0
  -23.6670  -30.5778   23.1650 N   0  0  0  0  0  0  0  0  0  0  0  0
  -23.7018  -10.9266   20.6161 N   0  0  0  0  0  0  0  0  0  0  0  0
  -27.4329  -15.4968   17.2024 N   0  0  0  0  0  0  0  0  0  0  0  0
  -26.3491  -18.7512   16.0615 N   0  3  0  0  0  0  0  0  0  0  0  0
  -22.9596  -28.3986   23.2615 O   0  0  0  0  0  0  0  0  0  0  0  0
  -25.7287  -12.0083   20.9953 O   0  0  0  0  0  0  0  0  0  0  0  0
  -26.1017  -12.9654   17.3704 O   0  0  0  0  0  0  0  0  0  0  0  0
  -27.2041  -17.4621   18.4117 O   0  0  0  0  0  0  0  0  0  0  0  0
  -29.2437  -23.4028   18.4075 O   0  0  0  0  0  0  0  0  0  0  0  0
  -25.1274  -21.9220   25.4466 O   0  0  0  0  0  0  0  0  0  0  0  0
  -26.8978  -35.0760   22.5629 O   0  0  0  0  0  0  0  0  0  0  0  0
  -23.5223  -17.3773   24.1441 O   0  0  0  0  0  0  0  0  0  1  0  0
  -24.6142  -37.7782   26.7922 F   0  0  0  0  0  0  0  0  0  0  0  0
  -28.4417  -36.6177   24.2607 F   0  0  0  0  0  0  0  0  0  0  0  0
  -24.2475  -21.6224   24.3190 S   0  0  1  0  0  0  0  0  0  0  0  0
  1  2  1  0  0  0  0
  1  5  2  0  0  0  0
  2  6  2  0  0  0  0
  3  9  2  0  0  0  0
  3 18  1  0  0  0  0
  4 10  1  0  0  0  0
  4 18  2  0  0  0  0
  5 20  1  0  0  0  0
  6 22  1  0  0  0  0
  7 11  2  0  0  0  0
  7 21  1  0  0  0  0
  8 14  2  0  0  0  0
  8 25  1  0  0  0  0
  9 26  1  0  0  0  0
 10 26  2  0  0  0  0
 11 27  1  0  0  0  0
 12 13  2  0  0  0  0
 12 28  1  0  0  0  0
 13 29  1  0  0  0  0
 14 31  1  0  0  0  0
 15 23  1  0  0  0  0
 15 27  2  0  0  0  0
 16 24  1  0  0  0  0
 16 31  2  0  0  0  0
 17 29  2  0  0  0  0
 17 30  1  0  0  0  0
 18 32  1  0  0  0  0
 19 32  1  0  0  0  0
 19 33  2  0  0  0  0
 19 34  1  0  0  0  0
 20 22  2  0  0  0  0
 20 39  1  0  0  0  0
 21 23  2  0  0  0  0
 21 40  1  0  0  0  0
 22 51  1  0  0  0  0
 23 42  1  0  0  0  0
 24 25  2  0  0  0  0
 24 41  1  0  0  0  0
 25 68  1  0  0  0  0
 26 82  1  0  0  0  0
 27 83  1  0  0  0  0
 28 30  2  0  0  0  0
 28 82  1  0  0  0  0
 29 84  1  0  0  0  0
 30 85  1  0  0  0  0
 31 86  1  0  0  0  0
 32 65  2  0  0  0  0
 33 67  1  0  0  0  0
 33 71  1  0  0  0  0
 34 72  1  0  0  0  0
 34 76  2  0  0  0  0
 35 52  1  0  0  0  0
 35 73  1  0  0  0  0
 35 77  2  0  0  0  0
 36 62  1  0  0  0  0
 36 69  1  0  0  0  0
 36 78  2  0  0  0  0
 37 63  1  0  0  0  0
 37 74  1  0  0  0  0
 37 79  2  0  0  0  0
 38 68  1  0  0  0  0
 38 70  1  0  0  0  0
 38 80  2  0  0  0  0
 39 43  1  0  0  0  0
 40 52  1  0  0  0  0
 41 44  1  0  0  0  0
 42 69  1  0  0  0  0
 43 46  1  0  0  0  0
 44 48  1  0  0  0  0
 45 47  1  0  0  0  0
 45 49  1  0  0  0  0
 46 51  1  0  0  0  0
 47 53  1  0  0  0  0
 48 68  1  0  0  0  0
 49 70  1  0  0  0  0
 50 53  1  0  0  0  0
 50 70  1  0  0  0  0
 51 73  1  0  0  0  0
 52 69  1  0  0  0  0
 53 67  1  0  0  0  0
 54 63  1  0  0  0  0
 55 64  1  0  0  0  0
 56 64  1  0  0  0  0
 57 64  1  0  0  0  0
 58 75  1  0  0  0  0
 59 86  1  0  0  0  0
 60 61  1  0  0  0  0
 60 66  1  0  0  0  0
 61 83  1  0  0  0  0
 62 64  1  0  0  0  0
 62 74  1  0  0  0  0
 63 75  1  0  0  0  0
 65 67  1  0  0  0  0
 66 86  2  0  0  0  0
 81 86  2  0  0  0  0
M  CHG  1  75   1
M  ISO  4  38 100  61 101  68 100  83 101
M  END
> <Batch ID>
0027

> <Smiles>
CNC(C)C(=O)NC(C(=O)N1Cc2cc([101O:1][101CH2:1]CN=S(C)(=O)c3ccc4c(c3)CCC[100N:0]4[100C:0](=O)N3CCCC(n4nc(-c5ccc(Oc6ccc(F)cc6F)cc5)c(C(N)=O)c4N)C3)ccc2CC1C(=O)NC1CCCc2ccccc21)C(C)(C)C

> <Shape>
0.213

> <Color>
0.069

> <Negative vol penalty>
0.000

$$$$

  -OEChem-04042321283D

 85 94  0     1  0  0  0  0  0999 V2000
  -24.5587  -11.4704   20.0143 C   0  0  0  0  0  0  0  0  0  0  0  0
  -24.0360  -12.7499   19.8554 C   0  0  0  0  0  0  0  0  0  0  0  0
  -26.1323  -29.6345   20.1962 C   0  0  0  0  0  0  0  0  0  0  0  0
  -23.9212  -29.1172   21.0213 C   0  0  0  0  0  0  0  0  0  0  0  0
  -25.7381  -11.2850   20.7345 C   0  0  0  0  0  0  0  0  0  0  0  0
  -24.6918  -13.8445   20.4176 C   0  0  0  0  0  0  0  0  0  0  0  0
  -25.0121  -17.7652   17.2284 C   0  0  0  0  0  0  0  0  0  0  0  0
  -18.5560  -20.7954   12.5730 C   0  0  0  0  0  0  0  0  0  0  0  0
  -26.1574  -30.7848   20.9846 C   0  0  0  0  0  0  0  0  0  0  0  0
  -23.9464  -30.2675   21.8098 C   0  0  0  0  0  0  0  0  0  0  0  0
  -23.8686  -18.5451   17.0614 C   0  0  0  0  0  0  0  0  0  0  0  0
  -26.6952  -31.5694   24.2294 C   0  0  0  0  0  0  0  0  0  0  0  0
  -27.8570  -31.8327   24.9549 C   0  0  0  0  0  0  0  0  0  0  0  0
  -17.5482  -21.1371   11.6712 C   0  0  0  0  0  0  0  0  0  0  0  0
  -24.7721  -20.1848   18.5827 C   0  0  0  0  0  0  0  0  0  0  0  0
  -16.9758  -23.0476   13.0348 C   0  0  0  0  0  0  0  0  0  0  0  0
  -28.1141  -33.9294   23.7824 C   0  0  0  0  0  0  0  0  0  0  0  0
  -25.0141  -28.8007   20.2145 C   0  0  0  0  0  0  0  0  0  0  0  0
  -25.8764  -26.5226   19.4566 C   0  0  0  0  0  0  0  0  0  0  0  0
  -26.4138  -12.3790   21.2976 C   0  0  0  0  0  0  0  0  0  0  0  0
  -26.0411  -18.1847   18.0837 C   0  0  0  0  0  0  0  0  0  0  0  0
  -25.8806  -13.6734   21.1471 C   0  0  0  0  0  0  0  0  0  0  0  0
  -25.9287  -19.4095   18.7569 C   0  0  0  0  0  0  0  0  0  0  0  0
  -17.9835  -22.7058   13.9367 C   0  0  0  0  0  0  0  0  0  0  0  0
  -18.7736  -21.5797   13.7058 C   0  0  0  0  0  0  0  0  0  0  0  0
  -25.0645  -31.1013   21.7915 C   0  0  0  0  0  0  0  0  0  0  0  0
  -23.7472  -19.7537   17.7408 C   0  0  0  0  0  0  0  0  0  0  0  0
  -26.2428  -32.4861   23.2802 C   0  0  0  0  0  0  0  0  0  0  0  0
  -28.5664  -33.0127   24.7315 C   0  0  0  0  0  0  0  0  0  0  0  0
  -26.9523  -33.6661   23.0568 C   0  0  0  0  0  0  0  0  0  0  0  0
  -16.7581  -22.2632   11.9021 C   0  0  0  0  0  0  0  0  0  0  0  0
  -24.9873  -27.6126   19.3997 C   0  0  0  0  0  0  0  0  0  0  0  0
  -25.4258  -25.6610   18.4865 C   0  0  0  0  0  0  0  0  0  0  0  0
  -27.0083  -26.3080   20.3101 C   0  0  0  0  0  0  0  0  0  0  0  0
  -27.3667  -17.0308   20.7323 C   0  0  0  0  0  0  0  0  0  0  0  0
  -29.4184  -19.5092   20.3191 C   0  0  0  0  0  0  0  0  0  0  0  0
  -29.9991  -22.5993   18.9923 C   0  0  0  0  0  0  0  0  0  0  0  0
  -20.0769  -24.8488   16.1233 C   0  0  0  0  0  0  0  0  0  0  0  0
  -27.6601  -12.1237   22.1078 C   0  0  0  0  0  0  0  0  0  0  0  0
  -27.2799  -17.3446   18.2323 C   0  0  0  0  0  0  0  0  0  0  0  0
  -27.0140  -19.9145   19.6709 C   0  0  0  0  0  0  0  0  0  0  0  0
  -28.4944  -13.3782   22.3535 C   0  0  0  0  0  0  0  0  0  0  0  0
  -23.1069  -25.6180   14.2999 C   0  0  0  0  0  0  0  0  0  0  0  0
  -27.6037  -14.5324   22.8020 C   0  0  0  0  0  0  0  0  0  0  0  0
  -24.0192  -26.1160   15.4223 C   0  0  0  0  0  0  0  0  0  0  0  0
  -20.5499  -19.9246   16.5524 C   0  0  0  0  0  0  0  0  0  0  0  0
  -21.9317  -21.8107   15.6690 C   0  0  0  0  0  0  0  0  0  0  0  0
  -21.6657  -26.0694   14.5175 C   0  0  0  0  0  0  0  0  0  0  0  0
  -19.7364  -19.9123   15.2611 C   0  0  0  0  0  0  0  0  0  0  0  0
  -21.1233  -21.7973   14.3753 C   0  0  0  0  0  0  0  0  0  0  0  0
  -21.9991  -26.1725   16.9572 C   0  0  0  0  0  0  0  0  0  0  0  0
  -26.5762  -14.8887   21.7209 C   0  0  1  0  0  0  0  0  0  0  0  0
  -28.0389  -17.6230   19.5260 C   0  0  1  0  0  0  0  0  0  0  0  0
  -23.4660  -25.7301   16.8069 C   0  0  2  0  0  0  0  0  0  0  0  0
  -21.9670  -20.4352   16.3252 C   0  0  0  0  0  0  0  0  0  1  0  0
  -31.7560  -24.3859   18.8553 C   0  0  0  0  0  0  0  0  0  0  0  0
  -28.7863  -20.3470   23.1842 C   0  0  0  0  0  0  0  0  0  0  0  0
  -29.7843  -22.5861   22.6757 C   0  0  0  0  0  0  0  0  0  0  0  0
  -31.1982  -20.5348   22.5504 C   0  0  0  0  0  0  0  0  0  0  0  0
  -30.1486  -22.3886   16.0440 C   0  0  0  0  0  0  0  0  0  0  0  0
  -18.1950  -23.5635   15.1418 C   0  0  0  0  0  0  0  0  0  0  0  0
  -29.4570  -20.9509   20.7652 C   0  0  1  0  0  0  0  0  0  0  0  0
  -31.1672  -23.1495   18.1940 C   0  0  2  0  0  0  0  0  0  0  0  0
  -29.7850  -21.0945   22.2782 C   0  0  0  0  0  0  0  0  0  0  0  0
  -24.0434  -27.4599   18.4671 N   0  0  0  0  0  0  0  0  0  0  0  0
  -24.3369  -26.2639   17.9290 N   0  0  0  0  0  0  0  0  0  0  0  0
  -19.7900  -21.2214   14.6005 N   0  0  0  0  0  0  0  0  0  0  0  0
  -28.2030  -19.0543   19.7882 N   0  0  0  0  0  0  0  0  0  0  0  0
  -21.1937  -25.6547   15.8462 N   0  0  0  0  0  0  0  0  0  0  0  0
  -25.8589  -24.4540   18.0644 N   0  0  0  0  0  0  0  0  0  0  0  0
  -26.8076  -25.6572   21.5351 N   0  0  0  0  0  0  0  0  0  0  0  0
  -27.1987  -15.6608   20.6669 N   0  0  0  0  0  0  0  0  0  0  0  0
  -30.4019  -21.6262   19.8822 N   0  0  0  0  0  0  0  0  0  0  0  0
  -19.3640  -24.4053   15.0162 N   0  0  0  0  0  0  0  0  0  0  0  0
  -30.7272  -23.5168   16.8183 N   0  3  0  0  0  0  0  0  0  0  0  0
  -28.1607  -26.6969   20.0032 O   0  0  0  0  0  0  0  0  0  0  0  0
  -27.0269  -17.7625   21.6547 O   0  0  0  0  0  0  0  0  0  0  0  0
  -30.4314  -18.8143   20.4308 O   0  0  0  0  0  0  0  0  0  0  0  0
  -28.8453  -22.9960   18.8440 O   0  0  0  0  0  0  0  0  0  0  0  0
  -19.7426  -24.5423   17.2729 O   0  0  0  0  0  0  0  0  0  0  0  0
  -25.0888  -32.2236   22.5612 O   0  0  0  0  0  0  0  0  0  0  0  0
  -22.6318  -20.5167   17.5801 O   0  0  0  0  0  0  0  0  0  1  0  0
  -29.6812  -33.2661   25.4294 F   0  0  0  0  0  0  0  0  0  0  0  0
  -26.5220  -34.5510   22.1471 F   0  0  0  0  0  0  0  0  0  0  0  0
  -15.5150  -22.6842   10.7890 Cl  0  0  0  0  0  0  0  0  0  0  0  0
  1  2  1  0  0  0  0
  1  5  2  0  0  0  0
  2  6  2  0  0  0  0
  3  9  2  0  0  0  0
  3 18  1  0  0  0  0
  4 10  1  0  0  0  0
  4 18  2  0  0  0  0
  5 20  1  0  0  0  0
  6 22  1  0  0  0  0
  7 11  2  0  0  0  0
  7 21  1  0  0  0  0
  8 14  2  0  0  0  0
  8 25  1  0  0  0  0
  9 26  1  0  0  0  0
 10 26  2  0  0  0  0
 11 27  1  0  0  0  0
 12 13  2  0  0  0  0
 12 28  1  0  0  0  0
 13 29  1  0  0  0  0
 14 31  1  0  0  0  0
 15 23  1  0  0  0  0
 15 27  2  0  0  0  0
 16 24  1  0  0  0  0
 16 31  2  0  0  0  0
 17 29  2  0  0  0  0
 17 30  1  0  0  0  0
 18 32  1  0  0  0  0
 19 32  1  0  0  0  0
 19 33  2  0  0  0  0
 19 34  1  0  0  0  0
 20 22  2  0  0  0  0
 20 39  1  0  0  0  0
 21 23  2  0  0  0  0
 21 40  1  0  0  0  0
 22 52  1  0  0  0  0
 23 41  1  0  0  0  0
 24 25  2  0  0  0  0
 24 61  1  0  0  0  0
 25 67  1  0  0  0  0
 26 81  1  0  0  0  0
 27 82  1  0  0  0  0
 28 30  2  0  0  0  0
 28 81  1  0  0  0  0
 29 83  1  0  0  0  0
 30 84  1  0  0  0  0
 31 85  1  0  0  0  0
 32 65  2  0  0  0  0
 33 66  1  0  0  0  0
 33 70  1  0  0  0  0
 34 71  1  0  0  0  0
 34 76  2  0  0  0  0
 35 53  1  0  0  0  0
 35 72  1  0  0  0  0
 35 77  2  0  0  0  0
 36 62  1  0  0  0  0
 36 68  1  0  0  0  0
 36 78  2  0  0  0  0
 37 63  1  0  0  0  0
 37 73  1  0  0  0  0
 37 79  2  0  0  0  0
 38 69  1  0  0  0  0
 38 74  1  0  0  0  0
 38 80  2  0  0  0  0
 39 42  1  0  0  0  0
 40 53  1  0  0  0  0
 41 68  1  0  0  0  0
 42 44  1  0  0  0  0
 43 45  1  0  0  0  0
 43 48  1  0  0  0  0
 44 52  1  0  0  0  0
 45 54  1  0  0  0  0
 46 49  1  0  0  0  0
 46 55  1  0  0  0  0
 47 50  1  0  0  0  0
 47 55  1  0  0  0  0
 48 69  1  0  0  0  0
 49 67  1  0  0  0  0
 50 67  1  0  0  0  0
 51 54  1  0  0  0  0
 51 69  1  0  0  0  0
 52 72  1  0  0  0  0
 53 68  1  0  0  0  0
 54 66  1  0  0  0  0
 55 82  1  0  0  0  0
 56 63  1  0  0  0  0
 57 64  1  0  0  0  0
 58 64  1  0  0  0  0
 59 64  1  0  0  0  0
 60 75  1  0  0  0  0
 61 74  1  0  0  0  0
 62 64  1  0  0  0  0
 62 73  1  0  0  0  0
 63 75  1  0  0  0  0
 65 66  1  0  0  0  0
M  CHG  1  75   1
M  ISO  4  38 100  55 101  74 100  82 101
M  END
> <Batch ID>
0027

> <Smiles>
CNC(C)C(=O)NC(C(=O)N1Cc2cc([101O:1][101CH:1]3CCN(c4ccc(Cl)cc4C[100NH:0][100C:0](=O)N4CCCC(n5nc(-c6ccc(Oc7ccc(F)cc7F)cc6)c(C(N)=O)c5N)C4)CC3)ccc2CC1C(=O)NC1CCCc2ccccc21)C(C)(C)C

> <Shape>
0.205

> <Color>
0.081

> <Negative vol penalty>
0.000

$$$$

  -OEChem-04042321283D

 76 84  0     1  0  0  0  0  0999 V2000
  -30.2800  -34.7039   21.2444 C   0  0  0  0  0  0  0  0  0  0  0  0
  -30.4889  -33.5019   20.5759 C   0  0  0  0  0  0  0  0  0  0  0  0
  -23.6285  -10.1841   22.0667 C   0  0  0  0  0  0  0  0  0  0  0  0
  -23.9711   -9.3682   19.8186 C   0  0  0  0  0  0  0  0  0  0  0  0
  -29.4846  -34.7345   22.3891 C   0  0  0  0  0  0  0  0  0  0  0  0
  -29.9035  -32.3295   21.0524 C   0  0  0  0  0  0  0  0  0  0  0  0
  -27.1516  -26.1286   18.7517 C   0  0  0  0  0  0  0  0  0  0  0  0
  -22.6876   -9.1786   22.2883 C   0  0  0  0  0  0  0  0  0  0  0  0
  -23.0302   -8.3626   20.0402 C   0  0  0  0  0  0  0  0  0  0  0  0
  -27.2658  -24.7553   18.9631 C   0  0  0  0  0  0  0  0  0  0  0  0
  -22.6950   -5.8746   23.0071 C   0  0  0  0  0  0  0  0  0  0  0  0
  -22.7679   -5.1723   24.2100 C   0  0  0  0  0  0  0  0  0  0  0  0
  -25.8465  -24.9423   20.9047 C   0  0  0  0  0  0  0  0  0  0  0  0
  -20.5337   -5.9011   24.7708 C   0  0  0  0  0  0  0  0  0  0  0  0
  -24.2703  -10.2789   20.8318 C   0  0  0  0  0  0  0  0  0  0  0  0
  -26.6284  -11.2520   20.8371 C   0  0  0  0  0  0  0  0  0  0  0  0
  -28.8813  -33.5635   22.8744 C   0  0  0  0  0  0  0  0  0  0  0  0
  -26.3917  -26.9222   19.6231 C   0  0  0  0  0  0  0  0  0  0  0  0
  -29.1004  -32.3442   22.2055 C   0  0  0  0  0  0  0  0  0  0  0  0
  -25.7223  -26.3250   20.7008 C   0  0  0  0  0  0  0  0  0  0  0  0
  -22.3884   -8.2678   21.2751 C   0  0  0  0  0  0  0  0  0  0  0  0
  -26.6155  -24.1624   20.0414 C   0  0  0  0  0  0  0  0  0  0  0  0
  -21.5415   -6.5903   22.6860 C   0  0  0  0  0  0  0  0  0  0  0  0
  -21.6872   -5.1855   25.0919 C   0  0  0  0  0  0  0  0  0  0  0  0
  -20.4609   -6.6034   23.5679 C   0  0  0  0  0  0  0  0  0  0  0  0
  -25.2420  -11.3178   20.6021 C   0  0  0  0  0  0  0  0  0  0  0  0
  -27.0995  -12.4858   20.4601 C   0  0  0  0  0  0  0  0  0  0  0  0
  -27.4198  -10.1720   21.3501 C   0  0  0  0  0  0  0  0  0  0  0  0
  -27.0237  -29.3552   21.5685 C   0  0  0  0  0  0  0  0  0  0  0  0
  -23.8006  -29.3939   21.9327 C   0  0  0  0  0  0  0  0  0  0  0  0
  -20.8467  -27.6917   21.7776 C   0  0  0  0  0  0  0  0  0  0  0  0
  -26.8934  -17.8482   20.3357 C   0  0  0  0  0  0  0  0  0  0  0  0
  -28.0684  -33.6377   24.1426 C   0  0  0  0  0  0  0  0  0  0  0  0
  -26.2568  -28.3980   19.3659 C   0  0  0  0  0  0  0  0  0  0  0  0
  -24.8776  -27.1295   21.6536 C   0  0  0  0  0  0  0  0  0  0  0  0
  -27.1790  -32.4177   24.3683 C   0  0  0  0  0  0  0  0  0  0  0  0
  -24.8518  -16.2584   17.9637 C   0  0  0  0  0  0  0  0  0  0  0  0
  -27.9641  -31.1326   24.1256 C   0  0  0  0  0  0  0  0  0  0  0  0
  -24.8806  -14.8126   18.4589 C   0  0  0  0  0  0  0  0  0  0  0  0
  -27.4191  -21.1171   18.6668 C   0  0  0  0  0  0  0  0  0  0  0  0
  -25.1138  -21.0869   19.7129 C   0  0  0  0  0  0  0  0  0  0  0  0
  -24.7517  -17.2575   19.1176 C   0  0  0  0  0  0  0  0  0  0  0  0
  -27.8450  -20.0126   19.6328 C   0  0  0  0  0  0  0  0  0  0  0  0
  -25.5933  -19.9865   20.6568 C   0  0  0  0  0  0  0  0  0  0  0  0
  -25.8207  -15.6377   20.6505 C   0  0  0  0  0  0  0  0  0  0  0  0
  -28.4623  -31.0556   22.6773 C   0  0  1  0  0  0  0  0  0  0  0  0
  -25.8758  -29.1895   20.6132 C   0  0  1  0  0  0  0  0  0  0  0  0
  -25.9803  -14.6127   19.5169 C   0  0  1  0  0  0  0  0  0  0  0  0
  -26.2634  -21.9601   19.2071 C   0  0  0  0  0  0  0  0  0  1  0  0
  -18.3847  -27.9789   22.1693 C   0  0  0  0  0  0  0  0  0  0  0  0
  -24.2645  -29.2422   24.9446 C   0  0  0  0  0  0  0  0  0  0  0  0
  -21.8644  -28.5812   25.2107 C   0  0  0  0  0  0  0  0  0  0  0  0
  -22.4435  -30.8081   24.2472 C   0  0  0  0  0  0  0  0  0  0  0  0
  -20.2090  -27.0894   18.9510 C   0  0  0  0  0  0  0  0  0  0  0  0
  -22.8221  -28.7240   22.8669 C   0  0  1  0  0  0  0  0  0  0  0  0
  -19.5111  -28.0472   21.1497 C   0  0  2  0  0  0  0  0  0  0  0  0
  -22.8661  -29.3237   24.3007 C   0  0  0  0  0  0  0  0  0  0  0  0
  -24.8573  -12.5000   20.1139 N   0  0  0  0  0  0  0  0  0  0  0  0
  -26.0090  -13.1885   20.0390 N   0  0  0  0  0  0  0  0  0  0  0  0
  -24.7818  -28.5697   21.3636 N   0  0  0  0  0  0  0  0  0  0  0  0
  -25.7954  -17.0020   20.1192 N   0  0  0  0  0  0  0  0  0  0  0  0
  -26.7017  -19.2160   20.0771 N   0  0  0  0  0  0  0  0  0  0  0  0
  -28.3360  -13.0275   20.4512 N   0  0  0  0  0  0  0  0  0  0  0  0
  -26.7761   -8.9737   21.6877 N   0  0  0  0  0  0  0  0  0  0  0  0
  -27.3845  -30.6702   21.7919 N   0  0  0  0  0  0  0  0  0  0  0  0
  -21.5164  -28.8120   22.2221 N   0  0  0  0  0  0  0  0  0  0  0  0
  -19.1954  -27.1075   20.0370 N   0  3  0  0  0  0  0  0  0  0  0  0
  -28.6585  -10.2725   21.5200 O   0  0  0  0  0  0  0  0  0  0  0  0
  -27.5426  -28.3634   22.0673 O   0  0  0  0  0  0  0  0  0  0  0  0
  -23.6938  -30.6025   21.7103 O   0  0  0  0  0  0  0  0  0  0  0  0
  -21.2535  -26.5355   21.8682 O   0  0  0  0  0  0  0  0  0  0  0  0
  -27.9807  -17.4106   20.7323 O   0  0  0  0  0  0  0  0  0  0  0  0
  -21.4704   -7.2864   21.4910 O   0  0  0  0  0  0  0  0  0  0  0  0
  -26.7265  -22.8130   20.2517 O   0  0  0  0  0  0  0  0  0  1  0  0
  -21.7567   -4.5098   26.2463 F   0  0  0  0  0  0  0  0  0  0  0  0
  -19.3496   -7.2881   23.2644 F   0  0  0  0  0  0  0  0  0  0  0  0
  1  2  1  0  0  0  0
  1  5  2  0  0  0  0
  2  6  2  0  0  0  0
  3  8  2  0  0  0  0
  3 15  1  0  0  0  0
  4  9  1  0  0  0  0
  4 15  2  0  0  0  0
  5 17  1  0  0  0  0
  6 19  1  0  0  0  0
  7 10  2  0  0  0  0
  7 18  1  0  0  0  0
  8 21  1  0  0  0  0
  9 21  2  0  0  0  0
 10 22  1  0  0  0  0
 11 12  2  0  0  0  0
 11 23  1  0  0  0  0
 12 24  1  0  0  0  0
 13 20  1  0  0  0  0
 13 22  2  0  0  0  0
 14 24  2  0  0  0  0
 14 25  1  0  0  0  0
 15 26  1  0  0  0  0
 16 26  1  0  0  0  0
 16 27  2  0  0  0  0
 16 28  1  0  0  0  0
 17 19  2  0  0  0  0
 17 33  1  0  0  0  0
 18 20  2  0  0  0  0
 18 34  1  0  0  0  0
 19 46  1  0  0  0  0
 20 35  1  0  0  0  0
 21 73  1  0  0  0  0
 22 74  1  0  0  0  0
 23 25  2  0  0  0  0
 23 73  1  0  0  0  0
 24 75  1  0  0  0  0
 25 76  1  0  0  0  0
 26 58  2  0  0  0  0
 27 59  1  0  0  0  0
 27 63  1  0  0  0  0
 28 64  1  0  0  0  0
 28 68  2  0  0  0  0
 29 47  1  0  0  0  0
 29 65  1  0  0  0  0
 29 69  2  0  0  0  0
 30 55  1  0  0  0  0
 30 60  1  0  0  0  0
 30 70  2  0  0  0  0
 31 56  1  0  0  0  0
 31 66  1  0  0  0  0
 31 71  2  0  0  0  0
 32 61  1  0  0  0  0
 32 62  1  0  0  0  0
 32 72  2  0  0  0  0
 33 36  1  0  0  0  0
 34 47  1  0  0  0  0
 35 60  1  0  0  0  0
 36 38  1  0  0  0  0
 37 39  1  0  0  0  0
 37 42  1  0  0  0  0
 38 46  1  0  0  0  0
 39 48  1  0  0  0  0
 40 43  1  0  0  0  0
 40 49  1  0  0  0  0
 41 44  1  0  0  0  0
 41 49  1  0  0  0  0
 42 61  1  0  0  0  0
 43 62  1  0  0  0  0
 44 62  1  0  0  0  0
 45 48  1  0  0  0  0
 45 61  1  0  0  0  0
 46 65  1  0  0  0  0
 47 60  1  0  0  0  0
 48 59  1  0  0  0  0
 49 74  1  0  0  0  0
 50 56  1  0  0  0  0
 51 57  1  0  0  0  0
 52 57  1  0  0  0  0
 53 57  1  0  0  0  0
 54 67  1  0  0  0  0
 55 57  1  0  0  0  0
 55 66  1  0  0  0  0
 56 67  1  0  0  0  0
 58 59  1  0  0  0  0
M  CHG  1  67   1
M  ISO  4  32 100  49 101  62 100  74 101
M  END
> <Batch ID>
0027

> <Smiles>
CNC(C)C(=O)NC(C(=O)N1Cc2cc([101O:1][101CH:1]3CC[100N:0]([100C:0](=O)N4CCCC(n5nc(-c6ccc(Oc7ccc(F)cc7F)cc6)c(C(N)=O)c5N)C4)CC3)ccc2CC1C(=O)NC1CCCc2ccccc21)C(C)(C)C

> <Shape>
0.250

> <Color>
0.087

> <Negative vol penalty>
0.000

$$$$

  -OEChem-04042321283D

 87 96  0     1  0  0  0  0  0999 V2000
  -34.1580  -33.5916   19.9569 C   0  0  0  0  0  0  0  0  0  0  0  0
  -34.5490  -32.4174   20.5923 C   0  0  0  0  0  0  0  0  0  0  0  0
  -23.0308   -9.8973   19.9547 C   0  0  0  0  0  0  0  0  0  0  0  0
  -23.7990   -9.8878   22.2452 C   0  0  0  0  0  0  0  0  0  0  0  0
  -32.8208  -33.9853   19.9835 C   0  0  0  0  0  0  0  0  0  0  0  0
  -33.6030  -31.6367   21.2557 C   0  0  0  0  0  0  0  0  0  0  0  0
  -33.5232  -25.5286   21.6924 C   0  0  0  0  0  0  0  0  0  0  0  0
  -32.8212  -17.2677   23.4035 C   0  0  0  0  0  0  0  0  0  0  0  0
  -32.1881  -16.4058   22.5082 C   0  0  0  0  0  0  0  0  0  0  0  0
  -22.2604   -8.7625   20.2083 C   0  0  0  0  0  0  0  0  0  0  0  0
  -23.0286   -8.7531   22.4990 C   0  0  0  0  0  0  0  0  0  0  0  0
  -33.9364  -24.6546   22.6969 C   0  0  0  0  0  0  0  0  0  0  0  0
  -19.7844   -8.0335   23.1140 C   0  0  0  0  0  0  0  0  0  0  0  0
  -19.0310   -8.0126   24.2876 C   0  0  0  0  0  0  0  0  0  0  0  0
  -30.6788  -18.1948   24.0261 C   0  0  0  0  0  0  0  0  0  0  0  0
  -31.6772  -24.5625   23.5376 C   0  0  0  0  0  0  0  0  0  0  0  0
  -20.2283   -6.0465   25.0212 C   0  0  0  0  0  0  0  0  0  0  0  0
  -23.8002  -10.4599   20.9731 C   0  0  0  0  0  0  0  0  0  0  0  0
  -30.0456  -17.3329   23.1307 C   0  0  0  0  0  0  0  0  0  0  0  0
  -24.2021  -12.9760   20.8496 C   0  0  0  0  0  0  0  0  0  0  0  0
  -31.8563  -33.2041   20.6393 C   0  0  0  0  0  0  0  0  0  0  0  0
  -32.1838  -25.9354   21.6093 C   0  0  0  0  0  0  0  0  0  0  0  0
  -32.2518  -32.0210   21.2923 C   0  0  0  0  0  0  0  0  0  0  0  0
  -31.2491  -25.4398   22.5295 C   0  0  0  0  0  0  0  0  0  0  0  0
  -32.0666  -18.1622   24.1626 C   0  0  0  0  0  0  0  0  0  0  0  0
  -30.8003  -16.4384   22.3717 C   0  0  0  0  0  0  0  0  0  0  0  0
  -22.2592   -8.1904   21.4805 C   0  0  0  0  0  0  0  0  0  0  0  0
  -33.0139  -24.1737   23.6215 C   0  0  0  0  0  0  0  0  0  0  0  0
  -20.7597   -7.0608   22.8938 C   0  0  0  0  0  0  0  0  0  0  0  0
  -19.2530   -7.0192   25.2413 C   0  0  0  0  0  0  0  0  0  0  0  0
  -20.9816   -6.0673   23.8475 C   0  0  0  0  0  0  0  0  0  0  0  0
  -24.5967  -11.6318   20.7115 C   0  0  0  0  0  0  0  0  0  0  0  0
  -25.3106  -13.6988   20.4817 C   0  0  0  0  0  0  0  0  0  0  0  0
  -28.5937  -17.3919   23.0120 C   0  0  0  0  0  0  0  0  0  0  0  0
  -22.9459  -13.5225   21.2727 C   0  0  0  0  0  0  0  0  0  0  0  0
  -30.6694  -28.7227   21.8122 C   0  0  0  0  0  0  0  0  0  0  0  0
  -28.0910  -26.9397   20.9788 C   0  0  0  0  0  0  0  0  0  0  0  0
  -26.5986  -23.8721   20.8824 C   0  0  0  0  0  0  0  0  0  0  0  0
  -30.8009  -14.6130   20.6355 C   0  0  0  0  0  0  0  0  0  0  0  0
  -30.4308  -33.6949   20.6815 C   0  0  0  0  0  0  0  0  0  0  0  0
  -31.7489  -26.8578   20.5036 C   0  0  0  0  0  0  0  0  0  0  0  0
  -29.7955  -25.8300   22.4716 C   0  0  0  0  0  0  0  0  0  0  0  0
  -29.4276  -32.6181   21.0869 C   0  0  0  0  0  0  0  0  0  0  0  0
  -29.6201  -12.2248   18.2734 C   0  0  0  0  0  0  0  0  0  0  0  0
  -29.9304  -31.8519   22.3063 C   0  0  0  0  0  0  0  0  0  0  0  0
  -28.1755  -11.9682   18.7085 C   0  0  0  0  0  0  0  0  0  0  0  0
  -30.5449  -12.4325   19.4715 C   0  0  0  0  0  0  0  0  0  0  0  0
  -28.6610  -13.2036   20.8591 C   0  0  0  0  0  0  0  0  0  0  0  0
  -33.0448  -21.0114   23.6407 C   0  0  0  0  0  0  0  0  0  0  0  0
  -34.1904  -21.0490   25.3868 C   0  0  0  0  0  0  0  0  0  0  0  0
  -31.2510  -31.1346   22.0012 C   0  0  1  0  0  0  0  0  0  0  0  0
  -30.4609  -27.6097   20.8246 C   0  0  1  0  0  0  0  0  0  0  0  0
  -27.6799  -13.0528   19.6850 C   0  0  2  0  0  0  0  0  0  0  0  0
  -33.9986  -22.0591   24.2420 C   0  0  0  0  0  0  0  0  0  1  0  0
  -24.4753  -22.7357   20.1770 C   0  0  0  0  0  0  0  0  0  0  0  0
  -26.6746  -28.0664   23.4353 C   0  0  0  0  0  0  0  0  0  0  0  0
  -24.9870  -26.2299   23.2184 C   0  0  0  0  0  0  0  0  0  0  0  0
  -25.2456  -27.9061   21.3892 C   0  0  0  0  0  0  0  0  0  0  0  0
  -26.5866  -18.3699   21.8769 C   0  0  0  0  0  0  0  0  0  0  0  0
  -28.8427  -19.1243   21.2139 C   0  0  0  0  0  0  0  0  0  0  0  0
  -28.0280  -22.1462   18.9492 C   0  0  0  0  0  0  0  0  0  0  0  0
  -32.7485  -19.0891   25.1254 C   0  0  0  0  0  0  0  0  0  0  0  0
  -27.0413  -26.1600   21.7333 C   0  0  1  0  0  0  0  0  0  0  0  0
  -25.8838  -23.1343   19.7647 C   0  0  2  0  0  0  0  0  0  0  0  0
  -26.0148  -27.0846   22.4466 C   0  0  0  0  0  0  0  0  0  0  0  0
  -25.8573  -11.5053   20.2887 N   0  0  0  0  0  0  0  0  0  0  0  0
  -26.2644  -12.7793   20.1579 N   0  0  0  0  0  0  0  0  0  0  0  0
  -29.4206  -26.7391   21.3759 N   0  0  0  0  0  0  0  0  0  0  0  0
  -30.0141  -13.4771   20.3501 N   0  0  0  0  0  0  0  0  0  0  0  0
  -25.5526  -15.0248   20.4068 N   0  0  0  0  0  0  0  0  0  0  0  0
  -21.9137  -12.6382   21.6145 N   0  0  0  0  0  0  0  0  0  0  0  0
  -30.1789  -15.5540   21.4555 N   0  0  0  0  0  0  0  0  0  0  0  0
  -31.0072  -29.9317   21.2344 N   0  0  0  0  0  0  0  0  0  0  0  0
  -26.4474  -25.2381   20.7711 N   0  0  0  0  0  0  0  0  0  0  0  0
  -28.0263  -18.2643   22.0678 N   0  0  0  0  0  0  0  0  0  0  0  0
  -33.7175  -19.9948   24.4704 N   0  3  0  0  0  0  0  0  0  0  0  0
  -26.6331  -21.8997   19.3970 N   0  3  0  0  0  0  0  0  0  0  0  0
  -27.9425  -16.6475   23.7542 O   0  0  0  0  0  0  0  0  0  0  0  0
  -22.7395  -14.7585   21.3299 O   0  0  0  0  0  0  0  0  0  0  0  0
  -30.5324  -28.5015   23.0097 O   0  0  0  0  0  0  0  0  0  0  0  0
  -27.7445  -27.6935   20.0659 O   0  0  0  0  0  0  0  0  0  0  0  0
  -27.2251  -23.2942   21.7679 O   0  0  0  0  0  0  0  0  0  0  0  0
  -31.9320  -14.7542   20.1636 O   0  0  0  0  0  0  0  0  0  0  0  0
  -21.5074   -7.0833   21.7284 O   0  0  0  0  0  0  0  0  0  0  0  0
  -33.4146  -23.3209   24.6034 O   0  0  0  0  0  0  0  0  0  1  0  0
  -18.5305   -7.0002   26.3691 F   0  0  0  0  0  0  0  0  0  0  0  0
  -21.9180   -5.1309   23.6422 F   0  0  0  0  0  0  0  0  0  0  0  0
  1  2  1  0  0  0  0
  1  5  2  0  0  0  0
  2  6  2  0  0  0  0
  3 10  2  0  0  0  0
  3 18  1  0  0  0  0
  4 11  1  0  0  0  0
  4 18  2  0  0  0  0
  5 21  1  0  0  0  0
  6 23  1  0  0  0  0
  7 12  2  0  0  0  0
  7 22  1  0  0  0  0
  8  9  2  0  0  0  0
  8 25  1  0  0  0  0
  9 26  1  0  0  0  0
 10 27  1  0  0  0  0
 11 27  2  0  0  0  0
 12 28  1  0  0  0  0
 13 14  2  0  0  0  0
 13 29  1  0  0  0  0
 14 30  1  0  0  0  0
 15 19  1  0  0  0  0
 15 25  2  0  0  0  0
 16 24  1  0  0  0  0
 16 28  2  0  0  0  0
 17 30  2  0  0  0  0
 17 31  1  0  0  0  0
 18 32  1  0  0  0  0
 19 26  2  0  0  0  0
 19 34  1  0  0  0  0
 20 32  1  0  0  0  0
 20 33  2  0  0  0  0
 20 35  1  0  0  0  0
 21 23  2  0  0  0  0
 21 40  1  0  0  0  0
 22 24  2  0  0  0  0
 22 41  1  0  0  0  0
 23 51  1  0  0  0  0
 24 42  1  0  0  0  0
 25 62  1  0  0  0  0
 26 72  1  0  0  0  0
 27 84  1  0  0  0  0
 28 85  1  0  0  0  0
 29 31  2  0  0  0  0
 29 84  1  0  0  0  0
 30 86  1  0  0  0  0
 31 87  1  0  0  0  0
 32 66  2  0  0  0  0
 33 67  1  0  0  0  0
 33 70  1  0  0  0  0
 34 75  1  0  0  0  0
 34 78  2  0  0  0  0
 35 71  1  0  0  0  0
 35 79  2  0  0  0  0
 36 52  1  0  0  0  0
 36 73  1  0  0  0  0
 36 80  2  0  0  0  0
 37 63  1  0  0  0  0
 37 68  1  0  0  0  0
 37 81  2  0  0  0  0
 38 64  1  0  0  0  0
 38 74  1  0  0  0  0
 38 82  2  0  0  0  0
 39 69  1  0  0  0  0
 39 72  1  0  0  0  0
 39 83  2  0  0  0  0
 40 43  1  0  0  0  0
 41 52  1  0  0  0  0
 42 68  1  0  0  0  0
 43 45  1  0  0  0  0
 44 46  1  0  0  0  0
 44 47  1  0  0  0  0
 45 51  1  0  0  0  0
 46 53  1  0  0  0  0
 47 69  1  0  0  0  0
 48 53  1  0  0  0  0
 48 69  1  0  0  0  0
 49 54  1  0  0  0  0
 49 76  1  0  0  0  0
 50 54  1  0  0  0  0
 50 76  1  0  0  0  0
 51 73  1  0  0  0  0
 52 68  1  0  0  0  0
 53 67  1  0  0  0  0
 54 85  1  0  0  0  0
 55 64  1  0  0  0  0
 56 65  1  0  0  0  0
 57 65  1  0  0  0  0
 58 65  1  0  0  0  0
 59 75  1  0  0  0  0
 60 75  1  0  0  0  0
 61 77  1  0  0  0  0
 62 76  1  0  0  0  0
 63 65  1  0  0  0  0
 63 74  1  0  0  0  0
 64 77  1  0  0  0  0
 66 67  1  0  0  0  0
M  CHG  2  76   1  77   1
M  ISO  4  39 100  54 101  72 100  85 101
M  END
> <Batch ID>
0027

> <Smiles>
CNC(C)C(=O)NC(C(=O)N1Cc2cc([101O:1][101CH:1]3CN(Cc4ccc([100NH:0][100C:0](=O)N5CCCC(n6nc(-c7ccc(Oc8ccc(F)cc8F)cc7)c(C(N)=O)c6N)C5)c(C(=O)N(C)C)c4)C3)ccc2CC1C(=O)NC1CCCc2ccccc21)C(C)(C)C

> <Shape>
0.223

> <Color>
0.188

> <Negative vol penalty>
0.000

$$$$

  -OEChem-04042321282D

  0  0  0     0  0  0  0  0  0999 V2000
M  END
$$$$

  -OEChem-04042321283D

 92102  0     1  0  0  0  0  0999 V2000
  -28.8216  -37.3765   19.3519 C   0  0  0  0  0  0  0  0  0  0  0  0
  -29.1521  -36.0252   19.3562 C   0  0  0  0  0  0  0  0  0  0  0  0
  -24.2098   -9.2795   20.1059 C   0  0  0  0  0  0  0  0  0  0  0  0
  -24.7866   -9.7351   22.4074 C   0  0  0  0  0  0  0  0  0  0  0  0
  -27.8451  -37.8569   20.2235 C   0  0  0  0  0  0  0  0  0  0  0  0
  -28.5070  -35.1536   20.2329 C   0  0  0  0  0  0  0  0  0  0  0  0
  -27.0366  -29.3010   19.1880 C   0  0  0  0  0  0  0  0  0  0  0  0
  -23.9145   -7.9582   20.4415 C   0  0  0  0  0  0  0  0  0  0  0  0
  -24.4913   -8.4138   22.7430 C   0  0  0  0  0  0  0  0  0  0  0  0
  -27.6530  -28.1015   19.5417 C   0  0  0  0  0  0  0  0  0  0  0  0
  -21.7332   -6.5528   23.3347 C   0  0  0  0  0  0  0  0  0  0  0  0
  -20.9760   -6.3316   24.4850 C   0  0  0  0  0  0  0  0  0  0  0  0
  -26.2062  -27.9321   21.4646 C   0  0  0  0  0  0  0  0  0  0  0  0
  -28.9149  -19.5029   20.2397 C   0  0  0  0  0  0  0  0  0  0  0  0
  -26.8935  -20.6161   21.8073 C   0  0  0  0  0  0  0  0  0  0  0  0
  -22.7844   -5.0352   25.4263 C   0  0  0  0  0  0  0  0  0  0  0  0
  -24.6459  -10.1680   21.0889 C   0  0  0  0  0  0  0  0  0  0  0  0
  -24.0685  -12.6292   20.7472 C   0  0  0  0  0  0  0  0  0  0  0  0
  -27.1809  -36.9891   21.1046 C   0  0  0  0  0  0  0  0  0  0  0  0
  -26.0061  -29.8315   19.9773 C   0  0  0  0  0  0  0  0  0  0  0  0
  -27.5216  -35.6231   21.1180 C   0  0  0  0  0  0  0  0  0  0  0  0
  -25.5767  -29.1372   21.1173 C   0  0  0  0  0  0  0  0  0  0  0  0
  -28.5924  -20.8533   20.1060 C   0  0  0  0  0  0  0  0  0  0  0  0
  -27.5818  -21.4100   20.8898 C   0  0  0  0  0  0  0  0  0  0  0  0
  -27.2159  -19.2656   21.9410 C   0  0  0  0  0  0  0  0  0  0  0  0
  -28.2266  -18.7090   21.1572 C   0  0  0  0  0  0  0  0  0  0  0  0
  -24.0552   -7.5254   21.7600 C   0  0  0  0  0  0  0  0  0  0  0  0
  -27.2398  -27.4183   20.6817 C   0  0  0  0  0  0  0  0  0  0  0  0
  -23.0161   -6.0151   23.2302 C   0  0  0  0  0  0  0  0  0  0  0  0
  -21.5015   -5.5729   25.5309 C   0  0  0  0  0  0  0  0  0  0  0  0
  -23.5417   -5.2564   24.2760 C   0  0  0  0  0  0  0  0  0  0  0  0
  -24.9516  -11.5328   20.7428 C   0  0  0  0  0  0  0  0  0  0  0  0
  -24.8392  -13.6924   20.3445 C   0  0  0  0  0  0  0  0  0  0  0  0
  -27.7986  -23.8625   21.4928 C   0  0  0  0  0  0  0  0  0  0  0  0
  -22.6762  -12.6818   21.0852 C   0  0  0  0  0  0  0  0  0  0  0  0
  -25.6119  -32.5051   21.6508 C   0  0  0  0  0  0  0  0  0  0  0  0
  -22.6018  -31.3588   22.0355 C   0  0  0  0  0  0  0  0  0  0  0  0
  -20.5137  -28.6598   22.0847 C   0  0  0  0  0  0  0  0  0  0  0  0
  -29.5512  -16.6510   20.5599 C   0  0  0  0  0  0  0  0  0  0  0  0
  -26.1659  -37.5630   22.0612 C   0  0  0  0  0  0  0  0  0  0  0  0
  -25.3334  -31.1129   19.5674 C   0  0  0  0  0  0  0  0  0  0  0  0
  -24.4611  -29.6540   21.9872 C   0  0  0  0  0  0  0  0  0  0  0  0
  -25.2639  -36.5083   22.6971 C   0  0  0  0  0  0  0  0  0  0  0  0
  -24.7453  -17.6230   24.2015 C   0  0  0  0  0  0  0  0  0  0  0  0
  -26.0074  -16.8416   24.5053 C   0  0  0  0  0  0  0  0  0  0  0  0
  -29.5086  -13.8247   18.3949 C   0  0  0  0  0  0  0  0  0  0  0  0
  -26.0916  -35.3278   23.1949 C   0  0  0  0  0  0  0  0  0  0  0  0
  -28.2466  -13.0667   18.8131 C   0  0  0  0  0  0  0  0  0  0  0  0
  -26.4205  -24.7405   19.7580 C   0  0  0  0  0  0  0  0  0  0  0  0
  -25.0567  -18.2528   22.8486 C   0  0  0  0  0  0  0  0  0  0  0  0
  -27.1073  -17.7720   24.0071 C   0  0  0  0  0  0  0  0  0  0  0  0
  -30.2122  -14.4593   19.5932 C   0  0  0  0  0  0  0  0  0  0  0  0
  -26.1859  -23.2487   19.8801 C   0  0  0  0  0  0  0  0  0  0  0  0
  -28.0978  -14.5495   20.8542 C   0  0  0  0  0  0  0  0  0  0  0  0
  -26.8266  -34.6419   22.0369 C   0  0  1  0  0  0  0  0  0  0  0  0
  -27.0230  -25.1066   21.1018 C   0  0  2  0  0  0  0  0  0  1  0  0
  -24.6424  -31.8226   20.7277 C   0  0  1  0  0  0  0  0  0  0  0  0
  -27.3191  -13.9474   19.6731 C   0  0  2  0  0  0  0  0  0  0  0  0
  -18.1137  -28.0327   22.4644 C   0  0  0  0  0  0  0  0  0  0  0  0
  -22.9916  -31.6973   25.0427 C   0  0  0  0  0  0  0  0  0  0  0  0
  -21.0103  -30.2083   25.3968 C   0  0  0  0  0  0  0  0  0  0  0  0
  -20.7383  -32.3798   24.1995 C   0  0  0  0  0  0  0  0  0  0  0  0
  -20.2411  -27.5804   19.3426 C   0  0  0  0  0  0  0  0  0  0  0  0
  -21.9184  -30.4662   23.0431 C   0  0  1  0  0  0  0  0  0  0  0  0
  -19.1635  -28.4189   21.4341 C   0  0  2  0  0  0  0  0  0  0  0  0
  -29.3452  -21.6799   19.1144 C   0  0  0  0  0  0  0  0  0  0  0  0
  -21.6870  -31.1789   24.4054 C   0  0  0  0  0  0  0  0  0  0  0  0
  -26.1885  -11.8685   20.3668 N   0  0  0  0  0  0  0  0  0  0  0  0
  -26.0882  -13.1878   20.1312 N   0  0  0  0  0  0  0  0  0  0  0  0
  -27.2390  -22.7901   20.7688 N   0  0  0  0  0  0  0  0  0  0  0  0
  -26.5067  -18.4818   22.8710 N   0  0  0  0  0  0  0  0  0  0  0  0
  -23.8390  -30.9140   21.5482 N   0  0  0  0  0  0  0  0  0  0  0  0
  -29.2732  -15.2825   20.3584 N   0  0  0  0  0  0  0  0  0  0  0  0
  -24.5634  -15.0003   20.1554 N   0  0  0  0  0  0  0  0  0  0  0  0
  -22.0389  -11.4972   21.4787 N   0  0  0  0  0  0  0  0  0  0  0  0
  -28.5709  -17.3395   21.2739 N   0  0  0  0  0  0  0  0  0  0  0  0
  -25.9166  -33.8029   21.2870 N   0  0  0  0  0  0  0  0  0  0  0  0
  -20.6972  -29.9888   22.4034 N   0  0  0  0  0  0  0  0  0  0  0  0
  -19.2611  -27.3229   20.4290 N   0  3  0  0  0  0  0  0  0  0  0  0
  -28.7048  -23.8733   22.3127 O   0  0  0  0  0  0  0  0  0  0  0  0
  -22.0128  -13.7447   21.0239 O   0  0  0  0  0  0  0  0  0  0  0  0
  -26.0498  -31.8996   22.6220 O   0  0  0  0  0  0  0  0  0  0  0  0
  -22.0547  -32.4083   21.6881 O   0  0  0  0  0  0  0  0  0  0  0  0
  -21.3231  -27.7587   22.2931 O   0  0  0  0  0  0  0  0  0  0  0  0
  -30.5697  -17.1799   20.1073 O   0  0  0  0  0  0  0  0  0  0  0  0
  -23.7670   -6.2362   22.0878 O   0  0  0  0  0  0  0  0  0  0  0  0
  -27.8401  -26.2477   21.0296 O   0  0  0  0  0  0  0  0  0  1  0  0
  -20.7748   -5.3619   26.6361 F   0  0  0  0  0  0  0  0  0  0  0  0
  -24.7739   -4.7382   24.1818 F   0  0  0  0  0  0  0  0  0  0  0  0
  -28.6039  -22.7046   18.5943 F   0  0  0  0  0  0  0  0  0  0  0  0
  -29.7643  -20.9660   18.0260 F   0  0  0  0  0  0  0  0  0  0  0  0
  -30.7889  -22.3898   19.8912 Cl  0  0  0  0  0  0  0  0  0  0  0  0
  1  2  1  0  0  0  0
  1  5  2  0  0  0  0
  2  6  2  0  0  0  0
  3  8  2  0  0  0  0
  3 17  1  0  0  0  0
  4  9  1  0  0  0  0
  4 17  2  0  0  0  0
  5 19  1  0  0  0  0
  6 21  1  0  0  0  0
  7 10  2  0  0  0  0
  7 20  1  0  0  0  0
  8 27  1  0  0  0  0
  9 27  2  0  0  0  0
 10 28  1  0  0  0  0
 11 12  2  0  0  0  0
 11 29  1  0  0  0  0
 12 30  1  0  0  0  0
 13 22  1  0  0  0  0
 13 28  2  0  0  0  0
 14 23  1  0  0  0  0
 14 26  2  0  0  0  0
 15 24  1  0  0  0  0
 15 25  2  0  0  0  0
 16 30  2  0  0  0  0
 16 31  1  0  0  0  0
 17 32  1  0  0  0  0
 18 32  1  0  0  0  0
 18 33  2  0  0  0  0
 18 35  1  0  0  0  0
 19 21  2  0  0  0  0
 19 40  1  0  0  0  0
 20 22  2  0  0  0  0
 20 41  1  0  0  0  0
 21 55  1  0  0  0  0
 22 42  1  0  0  0  0
 23 24  2  0  0  0  0
 23 66  1  0  0  0  0
 24 70  1  0  0  0  0
 25 26  1  0  0  0  0
 25 71  1  0  0  0  0
 26 76  1  0  0  0  0
 27 86  1  0  0  0  0
 28 87  1  0  0  0  0
 29 31  2  0  0  0  0
 29 86  1  0  0  0  0
 30 88  1  0  0  0  0
 31 89  1  0  0  0  0
 32 68  2  0  0  0  0
 33 69  1  0  0  0  0
 33 74  1  0  0  0  0
 34 56  1  0  0  0  0
 34 70  1  0  0  0  0
 34 80  2  0  0  0  0
 35 75  1  0  0  0  0
 35 81  2  0  0  0  0
 36 57  1  0  0  0  0
 36 77  1  0  0  0  0
 36 82  2  0  0  0  0
 37 64  1  0  0  0  0
 37 72  1  0  0  0  0
 37 83  2  0  0  0  0
 38 65  1  0  0  0  0
 38 78  1  0  0  0  0
 38 84  2  0  0  0  0
 39 73  1  0  0  0  0
 39 76  1  0  0  0  0
 39 85  2  0  0  0  0
 40 43  1  0  0  0  0
 41 57  1  0  0  0  0
 42 72  1  0  0  0  0
 43 47  1  0  0  0  0
 44 45  1  0  0  0  0
 44 50  1  0  0  0  0
 45 51  1  0  0  0  0
 46 48  1  0  0  0  0
 46 52  1  0  0  0  0
 47 55  1  0  0  0  0
 48 58  1  0  0  0  0
 49 53  1  0  0  0  0
 49 56  1  0  0  0  0
 50 71  1  0  0  0  0
 51 71  1  0  0  0  0
 52 73  1  0  0  0  0
 53 70  1  0  0  0  0
 54 58  1  0  0  0  0
 54 73  1  0  0  0  0
 55 77  1  0  0  0  0
 56 87  1  0  0  0  0
 57 72  1  0  0  0  0
 58 69  1  0  0  0  0
 59 65  1  0  0  0  0
 60 67  1  0  0  0  0
 61 67  1  0  0  0  0
 62 67  1  0  0  0  0
 63 79  1  0  0  0  0
 64 67  1  0  0  0  0
 64 78  1  0  0  0  0
 65 79  1  0  0  0  0
 66 90  1  0  0  0  0
 66 91  1  0  0  0  0
 66 92  1  0  0  0  0
 68 69  1  0  0  0  0
M  CHG  1  79   1
M  ISO  4  39 100  56 101  76 100  87 101
M  END
> <Batch ID>
0027

> <Smiles>
CNC(C)C(=O)NC(C(=O)N1Cc2cc([101O:1][101CH:1]3CCN(c4cc(N5CCCC5)c([100NH:0][100C:0](=O)N5CCCC(n6nc(-c7ccc(Oc8ccc(F)cc8F)cc7)c(C(N)=O)c6N)C5)cc4C(F)(F)Cl)C3=O)ccc2CC1C(=O)NC1CCCc2ccccc21)C(C)(C)C

> <Shape>
0.320

> <Color>
0.131

> <Negative vol penalty>
0.000

$$$$

  -OEChem-04042321283D

 84 93  0     1  0  0  0  0  0999 V2000
  -29.1103  -32.0026   26.1938 C   0  0  0  0  0  0  0  0  0  0  0  0
  -29.0390  -30.9627   25.2725 C   0  0  0  0  0  0  0  0  0  0  0  0
  -23.5953   -9.7216   21.4810 C   0  0  0  0  0  0  0  0  0  0  0  0
  -22.8204  -11.9831   21.8303 C   0  0  0  0  0  0  0  0  0  0  0  0
  -27.9642  -32.4064   26.8776 C   0  0  0  0  0  0  0  0  0  0  0  0
  -27.8218  -30.3252   25.0352 C   0  0  0  0  0  0  0  0  0  0  0  0
  -26.9342  -29.6071   20.1014 C   0  0  0  0  0  0  0  0  0  0  0  0
  -30.3047  -19.6935   20.3430 C   0  0  0  0  0  0  0  0  0  0  0  0
  -30.1598  -18.3102   20.2376 C   0  0  0  0  0  0  0  0  0  0  0  0
  -22.7111   -9.2675   22.4596 C   0  0  0  0  0  0  0  0  0  0  0  0
  -21.9362  -11.5291   22.8089 C   0  0  0  0  0  0  0  0  0  0  0  0
  -27.6002  -28.5505   19.4819 C   0  0  0  0  0  0  0  0  0  0  0  0
  -19.4104   -8.5770   22.7074 C   0  0  0  0  0  0  0  0  0  0  0  0
  -18.6634   -7.4333   22.4257 C   0  0  0  0  0  0  0  0  0  0  0  0
  -25.6091  -27.2000   19.6584 C   0  0  0  0  0  0  0  0  0  0  0  0
  -28.3040  -19.8002   21.6931 C   0  0  0  0  0  0  0  0  0  0  0  0
  -19.6516   -6.3192   24.3282 C   0  0  0  0  0  0  0  0  0  0  0  0
  -23.6500  -11.0794   21.1664 C   0  0  0  0  0  0  0  0  0  0  0  0
  -24.3131  -11.6766   18.7766 C   0  0  0  0  0  0  0  0  0  0  0  0
  -26.7304  -31.7799   26.6414 C   0  0  0  0  0  0  0  0  0  0  0  0
  -25.6018  -29.4642   20.5147 C   0  0  0  0  0  0  0  0  0  0  0  0
  -26.6584  -30.7201   25.7174 C   0  0  0  0  0  0  0  0  0  0  0  0
  -24.9277  -28.2572   20.2807 C   0  0  0  0  0  0  0  0  0  0  0  0
  -29.3768  -20.4385   21.0708 C   0  0  0  0  0  0  0  0  0  0  0  0
  -28.1590  -18.4169   21.5877 C   0  0  0  0  0  0  0  0  0  0  0  0
  -29.0870  -17.6719   20.8599 C   0  0  0  0  0  0  0  0  0  0  0  0
  -21.8815  -10.1712   23.1235 C   0  0  0  0  0  0  0  0  0  0  0  0
  -26.9385  -27.3458   19.2629 C   0  0  0  0  0  0  0  0  0  0  0  0
  -20.2781   -8.5919   23.7995 C   0  0  0  0  0  0  0  0  0  0  0  0
  -18.7839   -6.3044   23.2361 C   0  0  0  0  0  0  0  0  0  0  0  0
  -20.3987   -7.4630   24.6099 C   0  0  0  0  0  0  0  0  0  0  0  0
  -24.5635  -11.5492   20.1560 C   0  0  0  0  0  0  0  0  0  0  0  0
  -25.4891  -12.1606   18.2575 C   0  0  0  0  0  0  0  0  0  0  0  0
  -23.1239  -11.3838   18.0312 C   0  0  0  0  0  0  0  0  0  0  0  0
  -24.0961  -29.5801   23.3116 C   0  0  0  0  0  0  0  0  0  0  0  0
  -21.4481  -29.3252   21.4554 C   0  0  0  0  0  0  0  0  0  0  0  0
  -20.0683  -28.3274   18.4978 C   0  0  0  0  0  0  0  0  0  0  0  0
  -29.9826  -15.3325   20.5925 C   0  0  0  0  0  0  0  0  0  0  0  0
  -25.5285  -32.2197   27.4393 C   0  0  0  0  0  0  0  0  0  0  0  0
  -24.8893  -30.6224   21.1575 C   0  0  0  0  0  0  0  0  0  0  0  0
  -23.4910  -28.0596   20.6870 C   0  0  0  0  0  0  0  0  0  0  0  0
  -24.2016  -31.7416   26.8554 C   0  0  0  0  0  0  0  0  0  0  0  0
  -30.2146  -12.1395   19.0342 C   0  0  0  0  0  0  0  0  0  0  0  0
  -24.2823  -30.2637   26.4865 C   0  0  0  0  0  0  0  0  0  0  0  0
  -28.7681  -11.6400   19.0140 C   0  0  0  0  0  0  0  0  0  0  0  0
  -30.5258  -12.9245   20.3073 C   0  0  0  0  0  0  0  0  0  0  0  0
  -28.1523  -13.5254   20.5802 C   0  0  0  0  0  0  0  0  0  0  0  0
  -29.4107  -24.0786   20.0186 C   0  0  0  0  0  0  0  0  0  0  0  0
  -28.1569  -22.5870   19.2655 C   0  0  0  0  0  0  0  0  0  0  0  0
  -25.3513  -30.0203   25.4144 C   0  0  1  0  0  0  0  0  0  0  0  0
  -23.6924  -30.1940   22.0009 C   0  0  1  0  0  0  0  0  0  0  0  0
  -28.3733  -24.0648   18.8759 C   0  0  0  0  0  0  0  0  0  0  0  0
  -27.7728  -12.7846   19.2876 C   0  0  2  0  0  0  0  0  0  0  0  0
  -26.9984  -17.7600   22.2621 C   0  0  0  0  0  0  0  0  0  0  0  0
  -17.8733  -28.2150   17.2867 C   0  0  0  0  0  0  0  0  0  0  0  0
  -20.6226  -26.9455   23.1774 C   0  0  0  0  0  0  0  0  0  0  0  0
  -18.9876  -26.3092   21.3914 C   0  0  0  0  0  0  0  0  0  0  0  0
  -18.7540  -28.4937   22.5728 C   0  0  0  0  0  0  0  0  0  0  0  0
  -21.0487  -30.0742   16.3192 C   0  0  0  0  0  0  0  0  0  0  0  0
  -29.5314  -21.9267   21.1821 C   0  0  0  0  0  0  0  0  0  0  0  0
  -27.1826  -24.9926   19.0205 C   0  0  0  0  0  0  0  0  0  1  0  0
  -20.6316  -28.1789   20.9092 C   0  0  1  0  0  0  0  0  0  0  0  0
  -19.1309  -29.0332   17.5347 C   0  0  2  0  0  0  0  0  0  0  0  0
  -19.7766  -27.4846   22.0067 C   0  0  0  0  0  0  0  0  0  0  0  0
  -25.8014  -11.9219   20.4920 N   0  0  0  0  0  0  0  0  0  0  0  0
  -26.3393  -12.2882   19.3162 N   0  0  0  0  0  0  0  0  0  0  0  0
  -22.8394  -29.2195   21.3177 N   0  0  0  0  0  0  0  0  0  0  0  0
  -29.5445  -13.9946   20.4990 N   0  0  0  0  0  0  0  0  0  0  0  0
  -25.8684  -12.4850   17.0032 N   0  0  0  0  0  0  0  0  0  0  0  0
  -22.0067  -10.8937   18.7210 N   0  0  0  0  0  0  0  0  0  0  0  0
  -28.9572  -16.2659   20.7410 N   0  0  0  0  0  0  0  0  0  0  0  0
  -24.8579  -30.4107   24.1110 N   0  0  0  0  0  0  0  0  0  0  0  0
  -19.8541  -28.7230   19.8012 N   0  0  0  0  0  0  0  0  0  0  0  0
  -29.5037  -22.6118   19.8715 N   0  3  0  0  0  0  0  0  0  0  0  0
  -19.8081  -29.2621   16.2270 N   0  3  0  0  0  0  0  0  0  0  0  0
  -23.0594  -11.5363   16.7877 O   0  0  0  0  0  0  0  0  0  0  0  0
  -23.7412  -28.4379   23.5786 O   0  0  0  0  0  0  0  0  0  0  0  0
  -20.8723  -30.2826   21.9783 O   0  0  0  0  0  0  0  0  0  0  0  0
  -20.9042  -27.5044   18.1311 O   0  0  0  0  0  0  0  0  0  0  0  0
  -31.1772  -15.6309   20.5170 O   0  0  0  0  0  0  0  0  0  0  0  0
  -21.0185   -9.7285   24.0783 O   0  0  0  0  0  0  0  0  0  0  0  0
  -27.5864  -26.3126   18.6589 O   0  0  0  0  0  0  0  0  0  1  0  0
  -18.0654   -5.2066   22.9664 F   0  0  0  0  0  0  0  0  0  0  0  0
  -21.2297   -7.4718   25.6611 F   0  0  0  0  0  0  0  0  0  0  0  0
  1  2  1  0  0  0  0
  1  5  2  0  0  0  0
  2  6  2  0  0  0  0
  3 10  2  0  0  0  0
  3 18  1  0  0  0  0
  4 11  1  0  0  0  0
  4 18  2  0  0  0  0
  5 20  1  0  0  0  0
  6 22  1  0  0  0  0
  7 12  2  0  0  0  0
  7 21  1  0  0  0  0
  8  9  2  0  0  0  0
  8 24  1  0  0  0  0
  9 26  1  0  0  0  0
 10 27  1  0  0  0  0
 11 27  2  0  0  0  0
 12 28  1  0  0  0  0
 13 14  2  0  0  0  0
 13 29  1  0  0  0  0
 14 30  1  0  0  0  0
 15 23  1  0  0  0  0
 15 28  2  0  0  0  0
 16 24  2  0  0  0  0
 16 25  1  0  0  0  0
 17 30  2  0  0  0  0
 17 31  1  0  0  0  0
 18 32  1  0  0  0  0
 19 32  1  0  0  0  0
 19 33  2  0  0  0  0
 19 34  1  0  0  0  0
 20 22  2  0  0  0  0
 20 39  1  0  0  0  0
 21 23  2  0  0  0  0
 21 40  1  0  0  0  0
 22 50  1  0  0  0  0
 23 41  1  0  0  0  0
 24 60  1  0  0  0  0
 25 26  2  0  0  0  0
 25 54  1  0  0  0  0
 26 71  1  0  0  0  0
 27 81  1  0  0  0  0
 28 82  1  0  0  0  0
 29 31  2  0  0  0  0
 29 81  1  0  0  0  0
 30 83  1  0  0  0  0
 31 84  1  0  0  0  0
 32 65  2  0  0  0  0
 33 66  1  0  0  0  0
 33 69  1  0  0  0  0
 34 70  1  0  0  0  0
 34 76  2  0  0  0  0
 35 51  1  0  0  0  0
 35 72  1  0  0  0  0
 35 77  2  0  0  0  0
 36 62  1  0  0  0  0
 36 67  1  0  0  0  0
 36 78  2  0  0  0  0
 37 63  1  0  0  0  0
 37 73  1  0  0  0  0
 37 79  2  0  0  0  0
 38 68  1  0  0  0  0
 38 71  1  0  0  0  0
 38 80  2  0  0  0  0
 39 42  1  0  0  0  0
 40 51  1  0  0  0  0
 41 67  1  0  0  0  0
 42 44  1  0  0  0  0
 43 45  1  0  0  0  0
 43 46  1  0  0  0  0
 44 50  1  0  0  0  0
 45 53  1  0  0  0  0
 46 68  1  0  0  0  0
 47 53  1  0  0  0  0
 47 68  1  0  0  0  0
 48 52  1  0  0  0  0
 48 74  1  0  0  0  0
 49 52  1  0  0  0  0
 49 74  1  0  0  0  0
 50 72  1  0  0  0  0
 51 67  1  0  0  0  0
 52 61  1  0  0  0  0
 53 66  1  0  0  0  0
 55 63  1  0  0  0  0
 56 64  1  0  0  0  0
 57 64  1  0  0  0  0
 58 64  1  0  0  0  0
 59 75  1  0  0  0  0
 60 74  1  0  0  0  0
 61 82  1  0  0  0  0
 62 64  1  0  0  0  0
 62 73  1  0  0  0  0
 63 75  1  0  0  0  0
 65 66  1  0  0  0  0
M  CHG  2  74   1  75   1
M  ISO  4  38 100  61 101  71 100  82 101
M  END
> <Batch ID>
0027

> <Smiles>
CNC(C)C(=O)NC(C(=O)N1Cc2cc([101O:1][101CH2:1]C3CN(Cc4ccc([100NH:0][100C:0](=O)N5CCCC(n6nc(-c7ccc(Oc8ccc(F)cc8F)cc7)c(C(N)=O)c6N)C5)c(C)c4)C3)ccc2CC1C(=O)NC1CCCc2ccccc21)C(C)(C)C

> <Shape>
0.326

> <Color>
0.082

> <Negative vol penalty>
0.000

$$$$

  -OEChem-04042321283D

 90100  0     1  0  0  0  0  0999 V2000
  -16.7027  -30.7707   18.2546 C   0  0  0  0  0  0  0  0  0  0  0  0
  -17.9402  -31.1105   17.7174 C   0  0  0  0  0  0  0  0  0  0  0  0
  -23.2247   -9.9187   20.5771 C   0  0  0  0  0  0  0  0  0  0  0  0
  -24.8059   -8.2479   21.3156 C   0  0  0  0  0  0  0  0  0  0  0  0
  -16.4559  -30.9674   19.6127 C   0  0  0  0  0  0  0  0  0  0  0  0
  -18.9312  -31.6483   18.5378 C   0  0  0  0  0  0  0  0  0  0  0  0
  -25.3316  -28.4157   19.2283 C   0  0  0  0  0  0  0  0  0  0  0  0
  -30.8914  -18.1785   20.0624 C   0  0  0  0  0  0  0  0  0  0  0  0
  -30.8090  -16.7865   20.0304 C   0  0  0  0  0  0  0  0  0  0  0  0
  -22.3105   -9.4761   21.5330 C   0  0  0  0  0  0  0  0  0  0  0  0
  -23.8917   -7.8053   22.2716 C   0  0  0  0  0  0  0  0  0  0  0  0
  -26.6538  -27.9711   19.2486 C   0  0  0  0  0  0  0  0  0  0  0  0
  -21.1212   -5.8694   22.3607 C   0  0  0  0  0  0  0  0  0  0  0  0
  -20.9376   -4.4931   22.4934 C   0  0  0  0  0  0  0  0  0  0  0  0
  -27.2182  -29.6897   20.8535 C   0  0  0  0  0  0  0  0  0  0  0  0
  -28.4797  -18.3208   20.0873 C   0  0  0  0  0  0  0  0  0  0  0  0
  -21.6535   -4.6196   24.7974 C   0  0  0  0  0  0  0  0  0  0  0  0
  -24.4725   -9.3046   20.4683 C   0  0  0  0  0  0  0  0  0  0  0  0
  -25.2409   -9.7876   18.0842 C   0  0  0  0  0  0  0  0  0  0  0  0
  -17.4477  -31.4989   20.4520 C   0  0  0  0  0  0  0  0  0  0  0  0
  -24.9438  -29.4905   20.0331 C   0  0  0  0  0  0  0  0  0  0  0  0
  -18.6970  -31.8536   19.9081 C   0  0  0  0  0  0  0  0  0  0  0  0
  -25.8925  -30.1315   20.8468 C   0  0  0  0  0  0  0  0  0  0  0  0
  -29.7268  -18.9457   20.0909 C   0  0  0  0  0  0  0  0  0  0  0  0
  -29.5619  -16.1616   20.0268 C   0  0  0  0  0  0  0  0  0  0  0  0
  -22.6440   -8.4194   22.3803 C   0  0  0  0  0  0  0  0  0  0  0  0
  -27.5947  -28.6068   20.0590 C   0  0  0  0  0  0  0  0  0  0  0  0
  -21.5711   -6.6209   23.4464 C   0  0  0  0  0  0  0  0  0  0  0  0
  -21.2037   -3.8682   23.7117 C   0  0  0  0  0  0  0  0  0  0  0  0
  -21.8372   -5.9960   24.6647 C   0  0  0  0  0  0  0  0  0  0  0  0
  -28.3973  -16.9287   20.0553 C   0  0  0  0  0  0  0  0  0  0  0  0
  -25.4171   -9.7611   19.4807 C   0  0  0  0  0  0  0  0  0  0  0  0
  -26.4177  -10.3037   17.5994 C   0  0  0  0  0  0  0  0  0  0  0  0
  -24.1141   -9.3820   17.2958 C   0  0  0  0  0  0  0  0  0  0  0  0
  -22.1694  -31.7473   21.1667 C   0  0  0  0  0  0  0  0  0  0  0  0
  -23.8532  -31.0910   23.6455 C   0  0  0  0  0  0  0  0  0  0  0  0
  -25.7142  -29.7900   26.1914 C   0  0  0  0  0  0  0  0  0  0  0  0
  -30.5940  -13.8644   19.9629 C   0  0  0  0  0  0  0  0  0  0  0  0
  -17.1183  -31.7374   21.9044 C   0  0  0  0  0  0  0  0  0  0  0  0
  -23.5445  -30.0422   19.9970 C   0  0  0  0  0  0  0  0  0  0  0  0
  -25.4378  -31.3058   21.6698 C   0  0  0  0  0  0  0  0  0  0  0  0
  -18.3489  -31.9633   22.7789 C   0  0  0  0  0  0  0  0  0  0  0  0
  -31.0846  -10.5983   18.6327 C   0  0  0  0  0  0  0  0  0  0  0  0
  -19.3009  -32.9533   22.1153 C   0  0  0  0  0  0  0  0  0  0  0  0
  -29.6702  -10.0176   18.5664 C   0  0  0  0  0  0  0  0  0  0  0  0
  -30.9725  -22.4201   19.4920 C   0  0  0  0  0  0  0  0  0  0  0  0
  -29.2217  -22.4367   21.2788 C   0  0  0  0  0  0  0  0  0  0  0  0
  -30.8847  -27.7640   18.8077 C   0  0  0  0  0  0  0  0  0  0  0  0
  -31.2794  -11.4778   19.8666 C   0  0  0  0  0  0  0  0  0  0  0  0
  -30.4799  -21.0502   19.0256 C   0  0  0  0  0  0  0  0  0  0  0  0
  -28.7310  -21.0701   20.8038 C   0  0  0  0  0  0  0  0  0  0  0  0
  -28.8656  -11.9596   19.9694 C   0  0  0  0  0  0  0  0  0  0  0  0
  -31.4152  -26.6937   19.7402 C   0  0  0  0  0  0  0  0  0  0  0  0
  -29.1909  -26.0588   18.9344 C   0  0  0  0  0  0  0  0  0  0  0  0
  -19.8058  -32.4164   20.7706 C   0  0  1  0  0  0  0  0  0  0  0  0
  -23.0642  -30.5593   21.3649 C   0  0  1  0  0  0  0  0  0  0  0  0
  -29.8462  -23.2378   20.1317 C   0  0  0  0  0  0  0  0  0  0  0  0
  -28.6016  -11.1190   18.7095 C   0  0  2  0  0  0  0  0  0  0  0  0
  -29.3804  -27.5668   18.8812 C   0  0  1  0  0  0  0  0  0  1  0  0
  -25.9735  -29.8773   28.6858 C   0  0  0  0  0  0  0  0  0  0  0  0
  -25.2271  -33.8036   23.4040 C   0  0  0  0  0  0  0  0  0  0  0  0
  -26.2674  -33.3967   25.6447 C   0  0  0  0  0  0  0  0  0  0  0  0
  -23.7862  -33.5403   25.4311 C   0  0  0  0  0  0  0  0  0  0  0  0
  -25.1149  -26.9052   26.4709 C   0  0  0  0  0  0  0  0  0  0  0  0
  -30.3660  -24.5845   20.6288 C   0  0  0  0  0  0  0  0  0  0  0  0
  -24.9903  -31.5006   24.5470 C   0  0  1  0  0  0  0  0  0  0  0  0
  -25.3129  -29.1654   27.5155 C   0  0  2  0  0  0  0  0  0  0  0  0
  -25.0715  -33.0418   24.7354 C   0  0  0  0  0  0  0  0  0  0  0  0
  -26.6118  -10.2234   19.8585 N   0  0  0  0  0  0  0  0  0  0  0  0
  -27.1971  -10.5453   18.6923 N   0  0  0  0  0  0  0  0  0  0  0  0
  -29.8102  -20.3428   20.1220 N   0  0  0  0  0  0  0  0  0  0  0  0
  -24.1277  -31.0182   22.2744 N   0  0  0  0  0  0  0  0  0  0  0  0
  -30.2334  -12.5006   19.9338 N   0  0  0  0  0  0  0  0  0  0  0  0
  -26.8517  -10.5699   16.3491 N   0  0  0  0  0  0  0  0  0  0  0  0
  -22.9861   -8.8737   17.9543 N   0  0  0  0  0  0  0  0  0  0  0  0
  -29.5138  -14.7458   19.9936 N   0  0  0  0  0  0  0  0  0  0  0  0
  -20.8391  -31.4245   20.9782 N   0  0  0  0  0  0  0  0  0  0  0  0
  -24.8156  -30.7552   25.7888 N   0  0  0  0  0  0  0  0  0  0  0  0
  -30.5086  -25.5160   19.4682 N   0  3  2  0  0  0  0  0  0  0  0  0
  -25.7115  -27.7299   27.5530 N   0  3  0  0  0  0  0  0  0  0  0  0
  -24.1140   -9.4525   16.0434 O   0  0  0  0  0  0  0  0  0  0  0  0
  -22.6492  -32.8748   21.1849 O   0  0  0  0  0  0  0  0  0  0  0  0
  -22.7491  -30.8471   24.1402 O   0  0  0  0  0  0  0  0  0  0  0  0
  -26.7257  -29.4576   25.5775 O   0  0  0  0  0  0  0  0  0  0  0  0
  -31.7735  -14.2245   19.9333 O   0  0  0  0  0  0  0  0  0  0  0  0
  -21.7522   -7.9873   23.3134 O   0  0  0  0  0  0  0  0  0  0  0  0
  -28.8828  -28.1648   20.0775 O   0  0  0  0  0  0  0  0  0  1  0  0
  -21.0258   -2.5467   23.8394 F   0  0  0  0  0  0  0  0  0  0  0  0
  -22.2684   -6.7128   25.7116 F   0  0  0  0  0  0  0  0  0  0  0  0
  -26.8327  -16.1955   20.0515 Cl  0  0  0  0  0  0  0  0  0  0  0  0
  1  2  1  0  0  0  0
  1  5  2  0  0  0  0
  2  6  2  0  0  0  0
  3 10  2  0  0  0  0
  3 18  1  0  0  0  0
  4 11  1  0  0  0  0
  4 18  2  0  0  0  0
  5 20  1  0  0  0  0
  6 22  1  0  0  0  0
  7 12  2  0  0  0  0
  7 21  1  0  0  0  0
  8  9  2  0  0  0  0
  8 24  1  0  0  0  0
  9 25  1  0  0  0  0
 10 26  1  0  0  0  0
 11 26  2  0  0  0  0
 12 27  1  0  0  0  0
 13 14  2  0  0  0  0
 13 28  1  0  0  0  0
 14 29  1  0  0  0  0
 15 23  1  0  0  0  0
 15 27  2  0  0  0  0
 16 24  2  0  0  0  0
 16 31  1  0  0  0  0
 17 29  2  0  0  0  0
 17 30  1  0  0  0  0
 18 32  1  0  0  0  0
 19 32  1  0  0  0  0
 19 33  2  0  0  0  0
 19 34  1  0  0  0  0
 20 22  2  0  0  0  0
 20 39  1  0  0  0  0
 21 23  2  0  0  0  0
 21 40  1  0  0  0  0
 22 55  1  0  0  0  0
 23 41  1  0  0  0  0
 24 71  1  0  0  0  0
 25 31  2  0  0  0  0
 25 76  1  0  0  0  0
 26 86  1  0  0  0  0
 27 87  1  0  0  0  0
 28 30  2  0  0  0  0
 28 86  1  0  0  0  0
 29 88  1  0  0  0  0
 30 89  1  0  0  0  0
 31 90  1  0  0  0  0
 32 69  2  0  0  0  0
 33 70  1  0  0  0  0
 33 74  1  0  0  0  0
 34 75  1  0  0  0  0
 34 81  2  0  0  0  0
 35 56  1  0  0  0  0
 35 77  1  0  0  0  0
 35 82  2  0  0  0  0
 36 66  1  0  0  0  0
 36 72  1  0  0  0  0
 36 83  2  0  0  0  0
 37 67  1  0  0  0  0
 37 78  1  0  0  0  0
 37 84  2  0  0  0  0
 38 73  1  0  0  0  0
 38 76  1  0  0  0  0
 38 85  2  0  0  0  0
 39 42  1  0  0  0  0
 40 56  1  0  0  0  0
 41 72  1  0  0  0  0
 42 44  1  0  0  0  0
 43 45  1  0  0  0  0
 43 49  1  0  0  0  0
 44 55  1  0  0  0  0
 45 58  1  0  0  0  0
 46 50  1  0  0  0  0
 46 57  1  0  0  0  0
 47 51  1  0  0  0  0
 47 57  1  0  0  0  0
 48 53  1  0  0  0  0
 48 59  1  0  0  0  0
 49 73  1  0  0  0  0
 50 71  1  0  0  0  0
 51 71  1  0  0  0  0
 52 58  1  0  0  0  0
 52 73  1  0  0  0  0
 53 79  1  0  0  0  0
 54 59  1  0  0  0  0
 54 79  1  0  0  0  0
 55 77  1  0  0  0  0
 56 72  1  0  0  0  0
 57 65  1  0  0  0  0
 58 70  1  0  0  0  0
 59 87  1  0  0  0  0
 60 67  1  0  0  0  0
 61 68  1  0  0  0  0
 62 68  1  0  0  0  0
 63 68  1  0  0  0  0
 64 80  1  0  0  0  0
 65 79  1  0  0  0  0
 66 68  1  0  0  0  0
 66 78  1  0  0  0  0
 67 80  1  0  0  0  0
 69 70  1  0  0  0  0
M  CHG  2  79   1  80   1
M  ISO  4  38 100  59 101  76 100  87 101
M  END
> <Batch ID>
0027

> <Smiles>
CNC(C)C(=O)NC(C(=O)N1Cc2cc([101O:1][101CH:1]3CCN(CC4CCN(c5ccc([100NH:0][100C:0](=O)N6CCCC(n7nc(-c8ccc(Oc9ccc(F)cc9F)cc8)c(C(N)=O)c7N)C6)c(Cl)c5)CC4)C3)ccc2CC1C(=O)NC1CCCc2ccccc21)C(C)(C)C

> <Shape>
0.323

> <Color>
0.077

> <Negative vol penalty>
0.000

$$$$

  -OEChem-04042321283D

 86 95  0     1  0  0  0  0  0999 V2000
  -27.1901  -33.1303   27.1209 C   0  0  0  0  0  0  0  0  0  0  0  0
  -27.5539  -32.0595   26.3108 C   0  0  0  0  0  0  0  0  0  0  0  0
  -23.7654   -9.6062   20.2957 C   0  0  0  0  0  0  0  0  0  0  0  0
  -24.2715  -10.1032   22.6052 C   0  0  0  0  0  0  0  0  0  0  0  0
  -25.8439  -33.3733   27.3902 C   0  0  0  0  0  0  0  0  0  0  0  0
  -26.5717  -31.2302   25.7704 C   0  0  0  0  0  0  0  0  0  0  0  0
  -27.3729  -30.2033   20.8767 C   0  0  0  0  0  0  0  0  0  0  0  0
  -29.6330  -20.5015   20.0480 C   0  0  0  0  0  0  0  0  0  0  0  0
  -29.7680  -19.1291   20.2575 C   0  0  0  0  0  0  0  0  0  0  0  0
  -23.2798   -8.3538   20.6716 C   0  0  0  0  0  0  0  0  0  0  0  0
  -23.7859   -8.8508   22.9812 C   0  0  0  0  0  0  0  0  0  0  0  0
  -28.3381  -29.2428   20.5774 C   0  0  0  0  0  0  0  0  0  0  0  0
  -20.7774   -7.3969   23.4871 C   0  0  0  0  0  0  0  0  0  0  0  0
  -19.9361   -7.3365   24.5980 C   0  0  0  0  0  0  0  0  0  0  0  0
  -26.5982  -27.6033   20.2554 C   0  0  0  0  0  0  0  0  0  0  0  0
  -27.8294  -20.5693   21.6541 C   0  0  0  0  0  0  0  0  0  0  0  0
  -21.5029   -5.8676   25.7046 C   0  0  0  0  0  0  0  0  0  0  0  0
  -24.2613  -10.4809   21.2625 C   0  0  0  0  0  0  0  0  0  0  0  0
  -24.0348  -12.9749   20.7764 C   0  0  0  0  0  0  0  0  0  0  0  0
  -24.8441  -32.5524   26.8450 C   0  0  0  0  0  0  0  0  0  0  0  0
  -26.0113  -29.8676   20.8782 C   0  0  0  0  0  0  0  0  0  0  0  0
  -25.2109  -31.4617   26.0338 C   0  0  0  0  0  0  0  0  0  0  0  0
  -25.6175  -28.5619   20.5525 C   0  0  0  0  0  0  0  0  0  0  0  0
  -28.6637  -21.2216   20.7464 C   0  0  0  0  0  0  0  0  0  0  0  0
  -27.9644  -19.1968   21.8636 C   0  0  0  0  0  0  0  0  0  0  0  0
  -28.9337  -18.4768   21.1652 C   0  0  0  0  0  0  0  0  0  0  0  0
  -23.2900   -7.9761   22.0143 C   0  0  0  0  0  0  0  0  0  0  0  0
  -27.9511  -27.9419   20.2695 C   0  0  0  0  0  0  0  0  0  0  0  0
  -21.9815   -6.6926   23.4849 C   0  0  0  0  0  0  0  0  0  0  0  0
  -20.2989   -6.5719   25.7068 C   0  0  0  0  0  0  0  0  0  0  0  0
  -22.3442   -5.9280   24.5937 C   0  0  0  0  0  0  0  0  0  0  0  0
  -24.7636  -11.7745   20.8748 C   0  0  0  0  0  0  0  0  0  0  0  0
  -24.9603  -13.9065   20.3740 C   0  0  0  0  0  0  0  0  0  0  0  0
  -22.6454  -13.2254   21.0265 C   0  0  0  0  0  0  0  0  0  0  0  0
  -23.7088  -29.8464   23.0694 C   0  0  0  0  0  0  0  0  0  0  0  0
  -21.8325  -29.1111   20.5275 C   0  0  0  0  0  0  0  0  0  0  0  0
  -21.5943  -27.8022   17.3848 C   0  0  0  0  0  0  0  0  0  0  0  0
  -30.0043  -16.2359   20.7424 C   0  0  0  0  0  0  0  0  0  0  0  0
  -23.4048  -32.8263   27.2029 C   0  0  0  0  0  0  0  0  0  0  0  0
  -24.9810  -30.9219   21.1771 C   0  0  0  0  0  0  0  0  0  0  0  0
  -24.1676  -28.1556   20.5205 C   0  0  0  0  0  0  0  0  0  0  0  0
  -22.4053  -32.1245   26.2870 C   0  0  0  0  0  0  0  0  0  0  0  0
  -29.7050  -13.3294   18.7077 C   0  0  0  0  0  0  0  0  0  0  0  0
  -29.9232  -25.0295   23.0173 C   0  0  0  0  0  0  0  0  0  0  0  0
  -22.8007  -30.6653   26.0839 C   0  0  0  0  0  0  0  0  0  0  0  0
  -28.3328  -12.7645   19.0820 C   0  0  0  0  0  0  0  0  0  0  0  0
  -30.6487  -25.5308   21.7801 C   0  0  0  0  0  0  0  0  0  0  0  0
  -30.4204  -13.9293   19.9169 C   0  0  0  0  0  0  0  0  0  0  0  0
  -28.2712  -14.3590   21.0418 C   0  0  0  0  0  0  0  0  0  0  0  0
  -29.4618  -23.6224   22.6728 C   0  0  0  0  0  0  0  0  0  0  0  0
  -24.1732  -30.5545   25.4090 C   0  0  1  0  0  0  0  0  0  0  0  0
  -23.6524  -30.3413   21.6518 C   0  0  1  0  0  0  0  0  0  0  0  0
  -27.4850  -13.8021   19.8438 C   0  0  2  0  0  0  0  0  0  0  0  0
  -29.8844  -24.8989   20.6131 C   0  0  2  0  0  0  0  0  0  0  0  0
  -27.0550  -18.5235   22.8398 C   0  0  0  0  0  0  0  0  0  0  0  0
  -30.7570  -24.7891   19.3628 C   0  0  0  0  0  0  0  0  0  0  0  0
  -19.9233  -27.3021   15.5806 C   0  0  0  0  0  0  0  0  0  0  0  0
  -20.8497  -26.6951   22.1108 C   0  0  0  0  0  0  0  0  0  0  0  0
  -19.9567  -25.7453   19.9734 C   0  0  0  0  0  0  0  0  0  0  0  0
  -19.0668  -27.9072   20.8433 C   0  0  0  0  0  0  0  0  0  0  0  0
  -22.9526  -29.6014   15.4672 C   0  0  0  0  0  0  0  0  0  0  0  0
  -28.5171  -22.6974   20.5191 C   0  0  0  0  0  0  0  0  0  0  0  0
  -28.5817  -25.6491   20.3085 C   0  0  0  0  0  0  0  0  0  1  0  0
  -21.3936  -27.8316   19.8573 C   0  0  1  0  0  0  0  0  0  0  0  0
  -20.9153  -28.3164   16.1282 C   0  0  2  0  0  0  0  0  0  0  0  0
  -20.3442  -27.0517   20.6986 C   0  0  0  0  0  0  0  0  0  0  0  0
  -26.0527  -11.9267   20.5600 N   0  0  0  0  0  0  0  0  0  0  0  0
  -26.1412  -13.2337   20.2598 N   0  0  0  0  0  0  0  0  0  0  0  0
  -23.1981  -29.2206   20.8261 N   0  0  0  0  0  0  0  0  0  0  0  0
  -29.5587  -14.9063   20.5860 N   0  0  0  0  0  0  0  0  0  0  0  0
  -24.8711  -15.2274   20.1100 N   0  0  0  0  0  0  0  0  0  0  0  0
  -21.8363  -12.1557   21.4333 N   0  0  0  0  0  0  0  0  0  0  0  0
  -29.0866  -17.0822   21.3639 N   0  0  0  0  0  0  0  0  0  0  0  0
  -24.0611  -30.8149   23.9899 N   0  0  0  0  0  0  0  0  0  0  0  0
  -20.9323  -28.2062   18.5249 N   0  0  0  0  0  0  0  0  0  0  0  0
  -29.6028  -23.5014   21.1656 N   0  3  2  0  0  0  0  0  0  0  0  0
  -21.9274  -28.6015   15.0721 N   0  3  0  0  0  0  0  0  0  0  0  0
  -22.1331  -14.3607   20.8775 O   0  0  0  0  0  0  0  0  0  0  0  0
  -23.4501  -28.6731   23.3105 O   0  0  0  0  0  0  0  0  0  0  0  0
  -20.9958  -29.9844   20.7705 O   0  0  0  0  0  0  0  0  0  0  0  0
  -22.6083  -27.1082   17.3575 O   0  0  0  0  0  0  0  0  0  0  0  0
  -31.1070  -16.6036   20.3293 O   0  0  0  0  0  0  0  0  0  0  0  0
  -22.8160   -6.7542   22.3815 O   0  0  0  0  0  0  0  0  0  0  0  0
  -28.8912  -27.0023   19.9776 O   0  0  0  0  0  0  0  0  0  1  0  0
  -19.4916   -6.5152   26.7742 F   0  0  0  0  0  0  0  0  0  0  0  0
  -23.5002   -5.2501   24.5978 F   0  0  0  0  0  0  0  0  0  0  0  0
  1  2  1  0  0  0  0
  1  5  2  0  0  0  0
  2  6  2  0  0  0  0
  3 10  2  0  0  0  0
  3 18  1  0  0  0  0
  4 11  1  0  0  0  0
  4 18  2  0  0  0  0
  5 20  1  0  0  0  0
  6 22  1  0  0  0  0
  7 12  2  0  0  0  0
  7 21  1  0  0  0  0
  8  9  2  0  0  0  0
  8 24  1  0  0  0  0
  9 26  1  0  0  0  0
 10 27  1  0  0  0  0
 11 27  2  0  0  0  0
 12 28  1  0  0  0  0
 13 14  2  0  0  0  0
 13 29  1  0  0  0  0
 14 30  1  0  0  0  0
 15 23  1  0  0  0  0
 15 28  2  0  0  0  0
 16 24  2  0  0  0  0
 16 25  1  0  0  0  0
 17 30  2  0  0  0  0
 17 31  1  0  0  0  0
 18 32  1  0  0  0  0
 19 32  1  0  0  0  0
 19 33  2  0  0  0  0
 19 34  1  0  0  0  0
 20 22  2  0  0  0  0
 20 39  1  0  0  0  0
 21 23  2  0  0  0  0
 21 40  1  0  0  0  0
 22 51  1  0  0  0  0
 23 41  1  0  0  0  0
 24 62  1  0  0  0  0
 25 26  2  0  0  0  0
 25 55  1  0  0  0  0
 26 73  1  0  0  0  0
 27 83  1  0  0  0  0
 28 84  1  0  0  0  0
 29 31  2  0  0  0  0
 29 83  1  0  0  0  0
 30 85  1  0  0  0  0
 31 86  1  0  0  0  0
 32 67  2  0  0  0  0
 33 68  1  0  0  0  0
 33 71  1  0  0  0  0
 34 72  1  0  0  0  0
 34 78  2  0  0  0  0
 35 52  1  0  0  0  0
 35 74  1  0  0  0  0
 35 79  2  0  0  0  0
 36 64  1  0  0  0  0
 36 69  1  0  0  0  0
 36 80  2  0  0  0  0
 37 65  1  0  0  0  0
 37 75  1  0  0  0  0
 37 81  2  0  0  0  0
 38 70  1  0  0  0  0
 38 73  1  0  0  0  0
 38 82  2  0  0  0  0
 39 42  1  0  0  0  0
 40 52  1  0  0  0  0
 41 69  1  0  0  0  0
 42 45  1  0  0  0  0
 43 46  1  0  0  0  0
 43 48  1  0  0  0  0
 44 47  1  0  0  0  0
 44 50  1  0  0  0  0
 45 51  1  0  0  0  0
 46 53  1  0  0  0  0
 47 54  1  0  0  0  0
 48 70  1  0  0  0  0
 49 53  1  0  0  0  0
 49 70  1  0  0  0  0
 50 76  1  0  0  0  0
 51 74  1  0  0  0  0
 52 69  1  0  0  0  0
 53 68  1  0  0  0  0
 54 56  1  0  0  0  0
 54 63  1  0  0  0  0
 54 76  1  0  0  0  0
 57 65  1  0  0  0  0
 58 66  1  0  0  0  0
 59 66  1  0  0  0  0
 60 66  1  0  0  0  0
 61 77  1  0  0  0  0
 62 76  1  0  0  0  0
 63 84  1  0  0  0  0
 64 66  1  0  0  0  0
 64 75  1  0  0  0  0
 65 77  1  0  0  0  0
 67 68  1  0  0  0  0
M  CHG  2  76   1  77   1
M  ISO  4  38 100  63 101  73 100  84 101
M  END
> <Batch ID>
0027

> <Smiles>
CNC(C)C(=O)NC(C(=O)N1Cc2cc([101O:1][101CH2:1]C3(C)CCCN3Cc3ccc([100NH:0][100C:0](=O)N4CCCC(n5nc(-c6ccc(Oc7ccc(F)cc7F)cc6)c(C(N)=O)c5N)C4)c(C)c3)ccc2CC1C(=O)NC1CCCc2ccccc21)C(C)(C)C

> <Shape>
0.374

> <Color>
0.172

> <Negative vol penalty>
0.000

$$$$

  -OEChem-04042321283D

 82 91  0     1  0  0  0  0  0999 V2000
  -27.8680  -36.7912   21.3240 C   0  0  0  0  0  0  0  0  0  0  0  0
  -28.1625  -35.5541   20.7599 C   0  0  0  0  0  0  0  0  0  0  0  0
  -23.9306   -9.3906   20.0868 C   0  0  0  0  0  0  0  0  0  0  0  0
  -23.1774  -10.9614   21.7608 C   0  0  0  0  0  0  0  0  0  0  0  0
  -27.2565  -36.8577   22.5753 C   0  0  0  0  0  0  0  0  0  0  0  0
  -27.8466  -34.3826   21.4473 C   0  0  0  0  0  0  0  0  0  0  0  0
  -26.0320  -29.0628   19.0158 C   0  0  0  0  0  0  0  0  0  0  0  0
  -27.3656  -20.8538   19.8867 C   0  0  0  0  0  0  0  0  0  0  0  0
  -27.4389  -19.4728   19.7050 C   0  0  0  0  0  0  0  0  0  0  0  0
  -23.1928   -8.3799   20.7031 C   0  0  0  0  0  0  0  0  0  0  0  0
  -22.4395   -9.9507   22.3772 C   0  0  0  0  0  0  0  0  0  0  0  0
  -26.7169  -27.8855   18.7179 C   0  0  0  0  0  0  0  0  0  0  0  0
  -19.9658   -7.3792   20.8367 C   0  0  0  0  0  0  0  0  0  0  0  0
  -19.2042   -6.5429   20.0206 C   0  0  0  0  0  0  0  0  0  0  0  0
  -26.0166  -26.9511   20.8288 C   0  0  0  0  0  0  0  0  0  0  0  0
  -29.5512  -19.4308   20.8771 C   0  0  0  0  0  0  0  0  0  0  0  0
  -20.4555   -4.6329   20.8103 C   0  0  0  0  0  0  0  0  0  0  0  0
  -23.9229  -10.6813   20.6157 C   0  0  0  0  0  0  0  0  0  0  0  0
  -24.2497  -12.5986   18.9649 C   0  0  0  0  0  0  0  0  0  0  0  0
  -26.9243  -35.6864   23.2740 C   0  0  0  0  0  0  0  0  0  0  0  0
  -25.3422  -29.1973   20.2293 C   0  0  0  0  0  0  0  0  0  0  0  0
  -27.2314  -34.4336   22.7096 C   0  0  0  0  0  0  0  0  0  0  0  0
  -25.3217  -28.1301   21.1386 C   0  0  0  0  0  0  0  0  0  0  0  0
  -29.4779  -20.8119   21.0587 C   0  0  0  0  0  0  0  0  0  0  0  0
  -28.3851  -21.5234   20.5634 C   0  0  0  0  0  0  0  0  0  0  0  0
  -28.5317  -18.7613   20.2002 C   0  0  0  0  0  0  0  0  0  0  0  0
  -22.4473   -8.6600   21.8483 C   0  0  0  0  0  0  0  0  0  0  0  0
  -26.7117  -26.8305   19.6257 C   0  0  0  0  0  0  0  0  0  0  0  0
  -20.9723   -6.8425   21.6396 C   0  0  0  0  0  0  0  0  0  0  0  0
  -19.4491   -5.1697   20.0074 C   0  0  0  0  0  0  0  0  0  0  0  0
  -21.2172   -5.4694   21.6264 C   0  0  0  0  0  0  0  0  0  0  0  0
  -24.6853  -11.7256   19.9798 C   0  0  0  0  0  0  0  0  0  0  0  0
  -25.3379  -13.3960   18.7075 C   0  0  0  0  0  0  0  0  0  0  0  0
  -22.9753  -12.6813   18.3132 C   0  0  0  0  0  0  0  0  0  0  0  0
  -25.5810  -31.1278   22.7432 C   0  0  0  0  0  0  0  0  0  0  0  0
  -22.8719  -29.6077   23.6771 C   0  0  0  0  0  0  0  0  0  0  0  0
  -20.8933  -26.8336   23.4853 C   0  0  0  0  0  0  0  0  0  0  0  0
  -29.6200  -16.5024   20.4444 C   0  0  0  0  0  0  0  0  0  0  0  0
  -26.3071  -35.8091   24.6447 C   0  0  0  0  0  0  0  0  0  0  0  0
  -24.5861  -30.4638   20.5240 C   0  0  0  0  0  0  0  0  0  0  0  0
  -24.5794  -28.2166   22.4463 C   0  0  0  0  0  0  0  0  0  0  0  0
  -25.6649  -34.5164   25.1415 C   0  0  0  0  0  0  0  0  0  0  0  0
  -30.1513  -12.9890   20.2199 C   0  0  0  0  0  0  0  0  0  0  0  0
  -26.5982  -33.3327   24.9080 C   0  0  0  0  0  0  0  0  0  0  0  0
  -28.7408  -12.4189   20.0539 C   0  0  0  0  0  0  0  0  0  0  0  0
  -30.1705  -14.1889   21.1652 C   0  0  0  0  0  0  0  0  0  0  0  0
  -27.8105  -14.6879   20.6647 C   0  0  0  0  0  0  0  0  0  0  0  0
  -27.1075  -23.6717   20.8519 C   0  0  0  0  0  0  0  0  0  0  0  0
  -29.0369  -23.8971   20.0428 C   0  0  0  0  0  0  0  0  0  0  0  0
  -26.8818  -33.1402   23.4133 C   0  0  1  0  0  0  0  0  0  0  0  0
  -24.3448  -30.6826   22.0144 C   0  0  1  0  0  0  0  0  0  0  0  0
  -27.7303  -13.5178   19.6707 C   0  0  2  0  0  0  0  0  0  0  0  0
  -27.9307  -24.8932   20.4194 C   0  0  0  0  0  0  0  0  0  1  0  0
  -30.5842  -21.5042   21.7860 C   0  0  0  0  0  0  0  0  0  0  0  0
  -18.7620  -25.8677   24.3917 C   0  0  0  0  0  0  0  0  0  0  0  0
  -24.2752  -28.9937   26.3159 C   0  0  0  0  0  0  0  0  0  0  0  0
  -22.5171  -27.2699   26.7696 C   0  0  0  0  0  0  0  0  0  0  0  0
  -21.8783  -29.6705   26.5419 C   0  0  0  0  0  0  0  0  0  0  0  0
  -19.6816  -26.6775   20.7897 C   0  0  0  0  0  0  0  0  0  0  0  0
  -22.5648  -28.3701   24.4852 C   0  0  1  0  0  0  0  0  0  0  0  0
  -19.3988  -26.6751   23.2713 C   0  0  2  0  0  0  0  0  0  0  0  0
  -22.8246  -28.5748   26.0044 C   0  0  0  0  0  0  0  0  0  0  0  0
  -25.9516  -11.9473   20.3423 N   0  0  0  0  0  0  0  0  0  0  0  0
  -26.3210  -12.9687   19.5508 N   0  0  0  0  0  0  0  0  0  0  0  0
  -28.2960  -22.9004   20.7347 N   0  0  0  0  0  0  0  0  0  0  0  0
  -23.8606  -29.4779   22.6914 N   0  0  0  0  0  0  0  0  0  0  0  0
  -29.1914  -15.1905   20.7373 N   0  0  0  0  0  0  0  0  0  0  0  0
  -25.5402  -14.4141   17.8443 N   0  0  0  0  0  0  0  0  0  0  0  0
  -21.9682  -11.7861   18.6990 N   0  0  0  0  0  0  0  0  0  0  0  0
  -28.6057  -17.3583   20.0162 N   0  0  0  0  0  0  0  0  0  0  0  0
  -25.7589  -32.4980   22.7644 N   0  0  0  0  0  0  0  0  0  0  0  0
  -21.1922  -27.9993   24.1583 N   0  0  0  0  0  0  0  0  0  0  0  0
  -19.1311  -25.9803   21.9804 N   0  3  0  0  0  0  0  0  0  0  0  0
  -22.7418  -13.5133   17.4040 O   0  0  0  0  0  0  0  0  0  0  0  0
  -26.3181  -30.2903   23.2502 O   0  0  0  0  0  0  0  0  0  0  0  0
  -22.2522  -30.6492   23.9069 O   0  0  0  0  0  0  0  0  0  0  0  0
  -21.7134  -26.0043   23.0976 O   0  0  0  0  0  0  0  0  0  0  0  0
  -30.8045  -16.8344   20.5385 O   0  0  0  0  0  0  0  0  0  0  0  0
  -21.7271   -7.6741   22.4498 O   0  0  0  0  0  0  0  0  0  0  0  0
  -27.3799  -25.6806   19.3377 O   0  0  0  0  0  0  0  0  0  1  0  0
  -18.7166   -4.3665   19.2248 F   0  0  0  0  0  0  0  0  0  0  0  0
  -22.1819   -4.9478   22.3964 F   0  0  0  0  0  0  0  0  0  0  0  0
  1  2  1  0  0  0  0
  1  5  2  0  0  0  0
  2  6  2  0  0  0  0
  3 10  2  0  0  0  0
  3 18  1  0  0  0  0
  4 11  1  0  0  0  0
  4 18  2  0  0  0  0
  5 20  1  0  0  0  0
  6 22  1  0  0  0  0
  7 12  2  0  0  0  0
  7 21  1  0  0  0  0
  8  9  2  0  0  0  0
  8 25  1  0  0  0  0
  9 26  1  0  0  0  0
 10 27  1  0  0  0  0
 11 27  2  0  0  0  0
 12 28  1  0  0  0  0
 13 14  2  0  0  0  0
 13 29  1  0  0  0  0
 14 30  1  0  0  0  0
 15 23  1  0  0  0  0
 15 28  2  0  0  0  0
 16 24  1  0  0  0  0
 16 26  2  0  0  0  0
 17 30  2  0  0  0  0
 17 31  1  0  0  0  0
 18 32  1  0  0  0  0
 19 32  1  0  0  0  0
 19 33  2  0  0  0  0
 19 34  1  0  0  0  0
 20 22  2  0  0  0  0
 20 39  1  0  0  0  0
 21 23  2  0  0  0  0
 21 40  1  0  0  0  0
 22 50  1  0  0  0  0
 23 41  1  0  0  0  0
 24 25  2  0  0  0  0
 24 54  1  0  0  0  0
 25 65  1  0  0  0  0
 26 70  1  0  0  0  0
 27 79  1  0  0  0  0
 28 80  1  0  0  0  0
 29 31  2  0  0  0  0
 29 79  1  0  0  0  0
 30 81  1  0  0  0  0
 31 82  1  0  0  0  0
 32 63  2  0  0  0  0
 33 64  1  0  0  0  0
 33 68  1  0  0  0  0
 34 69  1  0  0  0  0
 34 74  2  0  0  0  0
 35 51  1  0  0  0  0
 35 71  1  0  0  0  0
 35 75  2  0  0  0  0
 36 60  1  0  0  0  0
 36 66  1  0  0  0  0
 36 76  2  0  0  0  0
 37 61  1  0  0  0  0
 37 72  1  0  0  0  0
 37 77  2  0  0  0  0
 38 67  1  0  0  0  0
 38 70  1  0  0  0  0
 38 78  2  0  0  0  0
 39 42  1  0  0  0  0
 40 51  1  0  0  0  0
 41 66  1  0  0  0  0
 42 44  1  0  0  0  0
 43 45  1  0  0  0  0
 43 46  1  0  0  0  0
 44 50  1  0  0  0  0
 45 52  1  0  0  0  0
 46 67  1  0  0  0  0
 47 52  1  0  0  0  0
 47 67  1  0  0  0  0
 48 53  1  0  0  0  0
 48 65  1  0  0  0  0
 49 53  1  0  0  0  0
 49 65  1  0  0  0  0
 50 71  1  0  0  0  0
 51 66  1  0  0  0  0
 52 64  1  0  0  0  0
 53 80  1  0  0  0  0
 55 61  1  0  0  0  0
 56 62  1  0  0  0  0
 57 62  1  0  0  0  0
 58 62  1  0  0  0  0
 59 73  1  0  0  0  0
 60 62  1  0  0  0  0
 60 72  1  0  0  0  0
 61 73  1  0  0  0  0
 63 64  1  0  0  0  0
M  CHG  1  73   1
M  ISO  4  38 100  53 101  70 100  80 101
M  END
> <Batch ID>
0027

> <Smiles>
CNC(C)C(=O)NC(C(=O)N1Cc2cc([101O:1][101CH:1]3CN(c4ccc([100NH:0][100C:0](=O)N5CCCC(n6nc(-c7ccc(Oc8ccc(F)cc8F)cc7)c(C(N)=O)c6N)C5)cc4C)C3)ccc2CC1C(=O)NC1CCCc2ccccc21)C(C)(C)C

> <Shape>
0.320

> <Color>
0.080

> <Negative vol penalty>
0.000

$$$$

  -OEChem-04042321283D

 91100  0     1  0  0  0  0  0999 V2000
  -19.5590  -10.2159   21.8229 C   0  0  0  0  0  0  0  0  0  0  0  0
  -20.1765  -11.4595   21.9105 C   0  0  0  0  0  0  0  0  0  0  0  0
  -21.7108  -31.8491   22.4355 C   0  0  0  0  0  0  0  0  0  0  0  0
  -21.7061  -33.1331   24.4820 C   0  0  0  0  0  0  0  0  0  0  0  0
  -20.3193   -9.0789   21.5522 C   0  0  0  0  0  0  0  0  0  0  0  0
  -21.5548  -11.5666   21.7286 C   0  0  0  0  0  0  0  0  0  0  0  0
  -22.8238  -15.4537   18.7410 C   0  0  0  0  0  0  0  0  0  0  0  0
  -30.2399  -24.0258   21.4132 C   0  0  0  0  0  0  0  0  0  0  0  0
  -30.3095  -22.8088   20.7354 C   0  0  0  0  0  0  0  0  0  0  0  0
  -20.3580  -31.5598   22.6139 C   0  0  0  0  0  0  0  0  0  0  0  0
  -20.3533  -32.8438   24.6605 C   0  0  0  0  0  0  0  0  0  0  0  0
  -22.8073  -16.7262   19.3103 C   0  0  0  0  0  0  0  0  0  0  0  0
  -18.4881  -29.4398   24.4669 C   0  0  0  0  0  0  0  0  0  0  0  0
  -18.0751  -28.1235   24.2613 C   0  0  0  0  0  0  0  0  0  0  0  0
  -25.2027  -16.6305   19.5788 C   0  0  0  0  0  0  0  0  0  0  0  0
  -16.5809  -28.8653   22.5136 C   0  0  0  0  0  0  0  0  0  0  0  0
  -22.3849  -32.6358   23.3696 C   0  0  0  0  0  0  0  0  0  0  0  0
  -24.3339  -34.0324   22.4988 C   0  0  0  0  0  0  0  0  0  0  0  0
  -21.7062   -9.1736   21.3574 C   0  0  0  0  0  0  0  0  0  0  0  0
  -24.0306  -14.7544   18.5960 C   0  0  0  0  0  0  0  0  0  0  0  0
  -22.3345  -10.4297   21.4564 C   0  0  0  0  0  0  0  0  0  0  0  0
  -25.2321  -15.3503   19.0050 C   0  0  0  0  0  0  0  0  0  0  0  0
  -29.0270  -24.4562   21.9512 C   0  0  0  0  0  0  0  0  0  0  0  0
  -27.8837  -23.6694   21.8112 C   0  0  0  0  0  0  0  0  0  0  0  0
  -29.1662  -22.0221   20.5954 C   0  0  0  0  0  0  0  0  0  0  0  0
  -27.9532  -22.4524   21.1333 C   0  0  0  0  0  0  0  0  0  0  0  0
  -19.6792  -32.0571   23.7264 C   0  0  0  0  0  0  0  0  0  0  0  0
  -23.9965  -17.3136   19.7320 C   0  0  0  0  0  0  0  0  0  0  0  0
  -17.9475  -30.4689   23.6959 C   0  0  0  0  0  0  0  0  0  0  0  0
  -17.1215  -27.8362   23.2847 C   0  0  0  0  0  0  0  0  0  0  0  0
  -16.9940  -30.1816   22.7192 C   0  0  0  0  0  0  0  0  0  0  0  0
  -23.7824  -32.9345   23.1861 C   0  0  0  0  0  0  0  0  0  0  0  0
  -25.6920  -33.8605   22.6107 C   0  0  0  0  0  0  0  0  0  0  0  0
  -23.6773  -35.1111   21.8200 C   0  0  0  0  0  0  0  0  0  0  0  0
  -25.1871  -12.0177   19.7261 C   0  0  0  0  0  0  0  0  0  0  0  0
  -27.6465  -12.6783   17.7168 C   0  0  0  0  0  0  0  0  0  0  0  0
  -29.4254  -15.0216   15.9873 C   0  0  0  0  0  0  0  0  0  0  0  0
  -28.9919  -28.8548   23.6015 C   0  0  0  0  0  0  0  0  0  0  0  0
  -22.4930   -7.9100   21.1139 C   0  0  0  0  0  0  0  0  0  0  0  0
  -24.0347  -13.3935   17.9554 C   0  0  0  0  0  0  0  0  0  0  0  0
  -26.5568  -14.6498   18.8529 C   0  0  0  0  0  0  0  0  0  0  0  0
  -23.8942   -8.1616   20.5630 C   0  0  0  0  0  0  0  0  0  0  0  0
  -29.3220  -19.2068   18.1536 C   0  0  0  0  0  0  0  0  0  0  0  0
  -29.5032  -18.4815   19.4716 C   0  0  0  0  0  0  0  0  0  0  0  0
  -29.0158  -31.9705   25.4569 C   0  0  0  0  0  0  0  0  0  0  0  0
  -24.5885   -9.2657   21.3540 C   0  0  0  0  0  0  0  0  0  0  0  0
  -27.7021  -32.6404   25.0652 C   0  0  0  0  0  0  0  0  0  0  0  0
  -29.6798  -20.6454   18.5091 C   0  0  0  0  0  0  0  0  0  0  0  0
  -28.9563  -19.4814   20.4838 C   0  0  0  0  0  0  0  0  0  0  0  0
  -28.8737  -30.4536   25.4909 C   0  0  0  0  0  0  0  0  0  0  0  0
  -27.0770  -30.5380   23.7834 C   0  0  0  0  0  0  0  0  0  0  0  0
  -23.8238  -10.5900   21.2407 C   0  0  1  0  0  0  0  0  0  0  0  0
  -25.2584  -12.5617   18.3273 C   0  0  1  0  0  0  0  0  0  0  0  0
  -27.1800  -32.0743   23.7356 C   0  0  1  0  0  0  0  0  0  0  0  0
  -26.5854  -24.1378   22.3906 C   0  0  0  0  0  0  0  0  0  0  0  0
  -31.4044  -15.2634   14.4634 C   0  0  0  0  0  0  0  0  0  0  0  0
  -29.5205  -12.3413   20.1010 C   0  0  0  0  0  0  0  0  0  0  0  0
  -31.3013  -13.4995   18.7761 C   0  0  0  0  0  0  0  0  0  0  0  0
  -30.3553  -11.3375   17.9680 C   0  0  0  0  0  0  0  0  0  0  0  0
  -27.7537  -16.1030   13.7975 C   0  0  0  0  0  0  0  0  0  0  0  0
  -28.9798  -25.7642   22.6709 C   0  0  0  0  0  0  0  0  0  0  0  0
  -24.7240  -20.8267   20.0624 C   0  0  0  0  0  0  0  0  0  0  0  0
  -25.9002  -21.7794   19.8853 C   0  0  0  0  0  0  0  0  0  0  0  0
  -25.1453  -19.3625   20.1039 C   0  0  0  0  0  0  0  0  0  1  0  0
  -28.9484  -13.4337   17.8327 C   0  0  1  0  0  0  0  0  0  0  0  0
  -29.8989  -15.0651   14.5456 C   0  0  2  0  0  0  0  0  0  0  0  0
  -30.0063  -12.6657   18.6742 C   0  0  0  0  0  0  0  0  0  0  0  0
  -24.7141  -32.1250   23.6967 N   0  0  0  0  0  0  0  0  0  0  0  0
  -25.8647  -32.7146   23.3300 N   0  0  0  0  0  0  0  0  0  0  0  0
  -29.2612  -20.7970   19.9080 N   0  0  0  0  0  0  0  0  0  0  0  0
  -26.5080  -13.3184   18.2266 N   0  0  0  0  0  0  0  0  0  0  0  0
  -28.3383  -29.9289   24.2313 N   0  0  0  0  0  0  0  0  0  0  0  0
  -26.7434  -34.5792   22.1630 N   0  0  0  0  0  0  0  0  0  0  0  0
  -22.2761  -35.1345   21.8012 N   0  0  0  0  0  0  0  0  0  0  0  0
  -26.8161  -21.6718   20.9951 N   0  0  0  0  0  0  0  0  0  0  0  0
  -24.0859  -11.2173   19.9631 N   0  0  0  0  0  0  0  0  0  0  0  0
  -29.3710  -13.7305   16.4682 N   0  0  0  0  0  0  0  0  0  0  0  0
  -28.4304  -28.3540   22.3757 N   0  0  0  0  0  0  0  0  0  0  0  0
  -29.2370  -16.1837   13.8165 N   0  3  0  0  0  0  0  0  0  0  0  0
  -24.3143  -36.0184   21.2329 O   0  0  0  0  0  0  0  0  0  0  0  0
  -26.0668  -12.3020   20.5305 O   0  0  0  0  0  0  0  0  0  0  0  0
  -27.6388  -11.5644   17.1868 O   0  0  0  0  0  0  0  0  0  0  0  0
  -29.1365  -16.0322   16.6243 O   0  0  0  0  0  0  0  0  0  0  0  0
  -30.0043  -28.3356   24.0729 O   0  0  0  0  0  0  0  0  0  0  0  0
  -28.1322  -26.7301   20.4013 O   0  0  0  0  0  0  0  0  0  0  0  0
  -30.4704  -27.2964   21.1613 O   0  0  0  0  0  0  0  0  0  0  0  0
  -18.3591  -31.7752   23.9007 O   0  0  0  0  0  0  0  0  0  0  0  0
  -23.9831  -18.5553   20.2887 O   0  0  0  0  0  0  0  0  0  1  0  0
  -16.7261  -26.5719   23.0863 F   0  0  0  0  0  0  0  0  0  0  0  0
  -16.4719  -31.1659   21.9746 F   0  0  0  0  0  0  0  0  0  0  0  0
  -29.0715  -27.0575   21.4565 S   0  0  0  0  0  0  0  0  0  0  0  0
  1  2  1  0  0  0  0
  1  5  2  0  0  0  0
  2  6  2  0  0  0  0
  3 10  2  0  0  0  0
  3 17  1  0  0  0  0
  4 11  1  0  0  0  0
  4 17  2  0  0  0  0
  5 19  1  0  0  0  0
  6 21  1  0  0  0  0
  7 12  2  0  0  0  0
  7 20  1  0  0  0  0
  8  9  1  0  0  0  0
  8 23  2  0  0  0  0
  9 25  2  0  0  0  0
 10 27  1  0  0  0  0
 11 27  2  0  0  0  0
 12 28  1  0  0  0  0
 13 14  2  0  0  0  0
 13 29  1  0  0  0  0
 14 30  1  0  0  0  0
 15 22  1  0  0  0  0
 15 28  2  0  0  0  0
 16 30  2  0  0  0  0
 16 31  1  0  0  0  0
 17 32  1  0  0  0  0
 18 32  1  0  0  0  0
 18 33  2  0  0  0  0
 18 34  1  0  0  0  0
 19 21  2  0  0  0  0
 19 39  1  0  0  0  0
 20 22  2  0  0  0  0
 20 40  1  0  0  0  0
 21 52  1  0  0  0  0
 22 41  1  0  0  0  0
 23 24  1  0  0  0  0
 23 61  1  0  0  0  0
 24 26  2  0  0  0  0
 24 55  1  0  0  0  0
 25 26  1  0  0  0  0
 25 70  1  0  0  0  0
 26 75  1  0  0  0  0
 27 87  1  0  0  0  0
 28 88  1  0  0  0  0
 29 31  2  0  0  0  0
 29 87  1  0  0  0  0
 30 89  1  0  0  0  0
 31 90  1  0  0  0  0
 32 68  2  0  0  0  0
 33 69  1  0  0  0  0
 33 73  1  0  0  0  0
 34 74  1  0  0  0  0
 34 80  2  0  0  0  0
 35 53  1  0  0  0  0
 35 76  1  0  0  0  0
 35 81  2  0  0  0  0
 36 65  1  0  0  0  0
 36 71  1  0  0  0  0
 36 82  2  0  0  0  0
 37 66  1  0  0  0  0
 37 77  1  0  0  0  0
 37 83  2  0  0  0  0
 38 72  1  0  0  0  0
 38 78  1  0  0  0  0
 38 84  2  0  0  0  0
 39 42  1  0  0  0  0
 40 53  1  0  0  0  0
 41 71  1  0  0  0  0
 42 46  1  0  0  0  0
 43 44  1  0  0  0  0
 43 48  1  0  0  0  0
 44 49  1  0  0  0  0
 45 47  1  0  0  0  0
 45 50  1  0  0  0  0
 46 52  1  0  0  0  0
 47 54  1  0  0  0  0
 48 70  1  0  0  0  0
 49 70  1  0  0  0  0
 50 72  1  0  0  0  0
 51 54  1  0  0  0  0
 51 72  1  0  0  0  0
 52 76  1  0  0  0  0
 53 71  1  0  0  0  0
 54 69  1  0  0  0  0
 56 66  1  0  0  0  0
 57 67  1  0  0  0  0
 58 67  1  0  0  0  0
 59 67  1  0  0  0  0
 60 79  1  0  0  0  0
 61 91  1  0  0  0  0
 62 63  1  0  0  0  0
 62 64  1  0  0  0  0
 63 75  1  0  0  0  0
 64 88  1  0  0  0  0
 65 67  1  0  0  0  0
 65 77  1  0  0  0  0
 66 79  1  0  0  0  0
 68 69  1  0  0  0  0
 78 91  1  0  0  0  0
 85 91  2  0  0  0  0
 86 91  2  0  0  0  0
M  CHG  1  79   1
M  ISO  4  38 100  64 101  78 100  88 101
M  END
> <Batch ID>
0027

> <Smiles>
CNC(C)C(=O)NC(C(=O)N1Cc2cc([101O:1][101CH2:1]CCNc3c(N4CCCC4)ccc(CS(=O)(=O)[100NH:0][100C:0](=O)N4CCCC(n5nc(-c6ccc(Oc7ccc(F)cc7F)cc6)c(C(N)=O)c5N)C4)c3C)ccc2CC1C(=O)NC1CCCc2ccccc21)C(C)(C)C

> <Shape>
0.267

> <Color>
0.082

> <Negative vol penalty>
0.000

$$$$

  -OEChem-04042321283D

 89 98  0     1  0  0  0  0  0999 V2000
  -28.2612  -33.8586   25.6042 C   0  0  0  0  0  0  0  0  0  0  0  0
  -27.8523  -32.5332   25.7108 C   0  0  0  0  0  0  0  0  0  0  0  0
  -23.0793   -9.8609   19.9418 C   0  0  0  0  0  0  0  0  0  0  0  0
  -23.8394   -9.8735   22.2351 C   0  0  0  0  0  0  0  0  0  0  0  0
  -28.9458  -34.2865   24.4675 C   0  0  0  0  0  0  0  0  0  0  0  0
  -28.1268  -31.6350   24.6801 C   0  0  0  0  0  0  0  0  0  0  0  0
  -29.4371  -25.6788   25.2390 C   0  0  0  0  0  0  0  0  0  0  0  0
  -31.4916  -18.4404   20.0443 C   0  0  0  0  0  0  0  0  0  0  0  0
  -31.2308  -19.4904   19.1639 C   0  0  0  0  0  0  0  0  0  0  0  0
  -22.3389   -8.7060   20.1935 C   0  0  0  0  0  0  0  0  0  0  0  0
  -23.0989   -8.7186   22.4869 C   0  0  0  0  0  0  0  0  0  0  0  0
  -28.6585  -24.5303   25.1030 C   0  0  0  0  0  0  0  0  0  0  0  0
  -19.8731   -7.9122   23.0908 C   0  0  0  0  0  0  0  0  0  0  0  0
  -19.1164   -7.8718   24.2619 C   0  0  0  0  0  0  0  0  0  0  0  0
  -29.4128  -24.2961   22.8237 C   0  0  0  0  0  0  0  0  0  0  0  0
  -29.2777  -18.6768   20.9822 C   0  0  0  0  0  0  0  0  0  0  0  0
  -20.3636   -5.9391   25.0011 C   0  0  0  0  0  0  0  0  0  0  0  0
  -23.8297  -10.4447   20.9626 C   0  0  0  0  0  0  0  0  0  0  0  0
  -24.1640  -12.9707   20.8388 C   0  0  0  0  0  0  0  0  0  0  0  0
  -29.2373  -33.3908   23.4266 C   0  0  0  0  0  0  0  0  0  0  0  0
  -30.2023  -26.1515   24.1632 C   0  0  0  0  0  0  0  0  0  0  0  0
  -28.8148  -32.0515   23.5278 C   0  0  0  0  0  0  0  0  0  0  0  0
  -30.2023  -25.4494   22.9494 C   0  0  0  0  0  0  0  0  0  0  0  0
  -30.5150  -18.0336   20.9534 C   0  0  0  0  0  0  0  0  0  0  0  0
  -29.0168  -19.7269   20.1018 C   0  0  0  0  0  0  0  0  0  0  0  0
  -29.9934  -20.1337   19.1927 C   0  0  0  0  0  0  0  0  0  0  0  0
  -22.3486   -8.1348   21.4661 C   0  0  0  0  0  0  0  0  0  0  0  0
  -28.6440  -23.8404   23.8944 C   0  0  0  0  0  0  0  0  0  0  0  0
  -20.8751   -6.9660   22.8749 C   0  0  0  0  0  0  0  0  0  0  0  0
  -19.3616   -6.8852   25.2170 C   0  0  0  0  0  0  0  0  0  0  0  0
  -21.1203   -5.9795   23.8300 C   0  0  0  0  0  0  0  0  0  0  0  0
  -24.5952  -11.6375   20.7030 C   0  0  0  0  0  0  0  0  0  0  0  0
  -25.2540  -13.7228   20.4743 C   0  0  0  0  0  0  0  0  0  0  0  0
  -22.8921  -13.4834   21.2571 C   0  0  0  0  0  0  0  0  0  0  0  0
  -30.2375  -28.8205   22.4373 C   0  0  0  0  0  0  0  0  0  0  0  0
  -32.8865  -27.4788   21.1315 C   0  0  0  0  0  0  0  0  0  0  0  0
  -27.0224  -20.8410   22.5303 C   0  0  0  0  0  0  0  0  0  0  0  0
  -34.6591  -24.6453   20.4418 C   0  0  0  0  0  0  0  0  0  0  0  0
  -30.7347  -14.7583   20.6607 C   0  0  0  0  0  0  0  0  0  0  0  0
  -29.9382  -33.9107   22.1965 C   0  0  0  0  0  0  0  0  0  0  0  0
  -31.0576  -27.3768   24.3344 C   0  0  0  0  0  0  0  0  0  0  0  0
  -31.0218  -25.9039   21.7704 C   0  0  0  0  0  0  0  0  0  0  0  0
  -30.5189  -32.8083   21.3146 C   0  0  0  0  0  0  0  0  0  0  0  0
  -29.6905  -23.3608   17.3470 C   0  0  0  0  0  0  0  0  0  0  0  0
  -29.0219  -22.3949   16.3899 C   0  0  0  0  0  0  0  0  0  0  0  0
  -29.6039  -12.3669   18.2776 C   0  0  0  0  0  0  0  0  0  0  0  0
  -29.4961  -31.6956   21.1081 C   0  0  0  0  0  0  0  0  0  0  0  0
  -28.1674  -12.0696   18.7111 C   0  0  0  0  0  0  0  0  0  0  0  0
  -30.5214  -22.4377   18.2311 C   0  0  0  0  0  0  0  0  0  0  0  0
  -28.6801  -21.2125   17.2893 C   0  0  0  0  0  0  0  0  0  0  0  0
  -30.5205  -12.5922   19.4781 C   0  0  0  0  0  0  0  0  0  0  0  0
  -28.6167  -13.3197   20.8637 C   0  0  0  0  0  0  0  0  0  0  0  0
  -29.1157  -31.0414   22.4419 C   0  0  1  0  0  0  0  0  0  0  0  0
  -31.3974  -28.0578   23.0122 C   0  0  1  0  0  0  0  0  0  0  0  0
  -27.6430  -13.1405   19.6864 C   0  0  2  0  0  0  0  0  0  0  0  0
  -36.7685  -23.8629   19.3301 C   0  0  0  0  0  0  0  0  0  0  0  0
  -31.5970  -27.8950   18.3976 C   0  0  0  0  0  0  0  0  0  0  0  0
  -33.2577  -26.2810   17.4461 C   0  0  0  0  0  0  0  0  0  0  0  0
  -34.0432  -28.4079   18.4863 C   0  0  0  0  0  0  0  0  0  0  0  0
  -26.1234  -18.8639   21.2913 C   0  0  0  0  0  0  0  0  0  0  0  0
  -35.7025  -23.5025   22.9646 C   0  0  0  0  0  0  0  0  0  0  0  0
  -30.7943  -16.9108   21.8944 C   0  0  0  0  0  0  0  0  0  0  0  0
  -27.6765  -20.4014   20.1545 C   0  0  0  0  0  0  0  0  0  0  0  0
  -27.9168  -22.0622   22.4925 C   0  0  0  0  0  0  0  0  0  1  0  0
  -33.1547  -26.5593   19.9647 C   0  0  1  0  0  0  0  0  0  0  0  0
  -36.1250  -24.3018   20.6362 C   0  0  2  0  0  0  0  0  0  0  0  0
  -32.9961  -27.2781   18.5951 C   0  0  0  0  0  0  0  0  0  0  0  0
  -25.8603  -11.5447   20.2848 N   0  0  0  0  0  0  0  0  0  0  0  0
  -26.2334  -12.8292   20.1545 N   0  0  0  0  0  0  0  0  0  0  0  0
  -29.7478  -21.1916   18.2967 N   0  0  0  0  0  0  0  0  0  0  0  0
  -31.8369  -27.1110   21.9853 N   0  0  0  0  0  0  0  0  0  0  0  0
  -29.9670  -13.6204   20.3626 N   0  0  0  0  0  0  0  0  0  0  0  0
  -25.4604  -15.0548   20.3993 N   0  0  0  0  0  0  0  0  0  0  0  0
  -21.8829  -12.5717   21.5958 N   0  0  0  0  0  0  0  0  0  0  0  0
  -30.1540  -30.1296   22.8719 N   0  0  0  0  0  0  0  0  0  0  0  0
  -34.4784  -25.9889   20.1903 N   0  0  0  0  0  0  0  0  0  0  0  0
  -30.1329  -15.6866   21.5014 N   0  0  0  0  0  0  0  0  0  0  0  0
  -26.9435  -20.0663   21.3726 N   0  0  0  0  0  0  0  0  0  0  0  0
  -36.2714  -23.1978   21.6265 N   0  3  0  0  0  0  0  0  0  0  0  0
  -22.6522  -14.7134   21.3126 O   0  0  0  0  0  0  0  0  0  0  0  0
  -29.4755  -28.2631   21.6560 O   0  0  0  0  0  0  0  0  0  0  0  0
  -33.5871  -28.4826   21.2840 O   0  0  0  0  0  0  0  0  0  0  0  0
  -26.4149  -20.5828   23.5739 O   0  0  0  0  0  0  0  0  0  0  0  0
  -33.7643  -23.8050   20.5030 O   0  0  0  0  0  0  0  0  0  0  0  0
  -31.8701  -14.9364   20.2068 O   0  0  0  0  0  0  0  0  0  0  0  0
  -21.6260   -7.0079   21.7121 O   0  0  0  0  0  0  0  0  0  0  0  0
  -27.8844  -22.7194   23.7587 O   0  0  0  0  0  0  0  0  0  1  0  0
  -18.6359   -6.8475   26.3422 F   0  0  0  0  0  0  0  0  0  0  0  0
  -22.0823   -5.0685   23.6286 F   0  0  0  0  0  0  0  0  0  0  0  0
  1  2  1  0  0  0  0
  1  5  2  0  0  0  0
  2  6  2  0  0  0  0
  3 10  2  0  0  0  0
  3 18  1  0  0  0  0
  4 11  1  0  0  0  0
  4 18  2  0  0  0  0
  5 20  1  0  0  0  0
  6 22  1  0  0  0  0
  7 12  2  0  0  0  0
  7 21  1  0  0  0  0
  8  9  2  0  0  0  0
  8 24  1  0  0  0  0
  9 26  1  0  0  0  0
 10 27  1  0  0  0  0
 11 27  2  0  0  0  0
 12 28  1  0  0  0  0
 13 14  2  0  0  0  0
 13 29  1  0  0  0  0
 14 30  1  0  0  0  0
 15 23  1  0  0  0  0
 15 28  2  0  0  0  0
 16 24  2  0  0  0  0
 16 25  1  0  0  0  0
 17 30  2  0  0  0  0
 17 31  1  0  0  0  0
 18 32  1  0  0  0  0
 19 32  1  0  0  0  0
 19 33  2  0  0  0  0
 19 34  1  0  0  0  0
 20 22  2  0  0  0  0
 20 40  1  0  0  0  0
 21 23  2  0  0  0  0
 21 41  1  0  0  0  0
 22 53  1  0  0  0  0
 23 42  1  0  0  0  0
 24 62  1  0  0  0  0
 25 26  2  0  0  0  0
 25 63  1  0  0  0  0
 26 70  1  0  0  0  0
 27 86  1  0  0  0  0
 28 87  1  0  0  0  0
 29 31  2  0  0  0  0
 29 86  1  0  0  0  0
 30 88  1  0  0  0  0
 31 89  1  0  0  0  0
 32 68  2  0  0  0  0
 33 69  1  0  0  0  0
 33 73  1  0  0  0  0
 34 74  1  0  0  0  0
 34 80  2  0  0  0  0
 35 54  1  0  0  0  0
 35 75  1  0  0  0  0
 35 81  2  0  0  0  0
 36 65  1  0  0  0  0
 36 71  1  0  0  0  0
 36 82  2  0  0  0  0
 37 64  1  0  0  0  0
 37 78  1  0  0  0  0
 37 83  2  0  0  0  0
 38 66  1  0  0  0  0
 38 76  1  0  0  0  0
 38 84  2  0  0  0  0
 39 72  1  0  0  0  0
 39 77  1  0  0  0  0
 39 85  2  0  0  0  0
 40 43  1  0  0  0  0
 41 54  1  0  0  0  0
 42 71  1  0  0  0  0
 43 47  1  0  0  0  0
 44 45  1  0  0  0  0
 44 49  1  0  0  0  0
 45 50  1  0  0  0  0
 46 48  1  0  0  0  0
 46 51  1  0  0  0  0
 47 53  1  0  0  0  0
 48 55  1  0  0  0  0
 49 70  1  0  0  0  0
 50 70  1  0  0  0  0
 51 72  1  0  0  0  0
 52 55  1  0  0  0  0
 52 72  1  0  0  0  0
 53 75  1  0  0  0  0
 54 71  1  0  0  0  0
 55 69  1  0  0  0  0
 56 66  1  0  0  0  0
 57 67  1  0  0  0  0
 58 67  1  0  0  0  0
 59 67  1  0  0  0  0
 60 78  1  0  0  0  0
 61 79  1  0  0  0  0
 62 77  1  0  0  0  0
 63 78  1  0  0  0  0
 64 87  1  0  0  0  0
 65 67  1  0  0  0  0
 65 76  1  0  0  0  0
 66 79  1  0  0  0  0
 68 69  1  0  0  0  0
M  CHG  1  79   1
M  ISO  4  39 100  64 101  77 100  87 101
M  END
> <Batch ID>
0027

> <Smiles>
CNC(C)C(=O)NC(C(=O)N1Cc2cc([101O:1][101CH2:1]C(=O)N(C)Cc3cc(C[100NH:0][100C:0](=O)N4CCCC(n5nc(-c6ccc(Oc7ccc(F)cc7F)cc6)c(C(N)=O)c5N)C4)ccc3N3CCCC3)ccc2CC1C(=O)NC1CCCc2ccccc21)C(C)(C)C

> <Shape>
0.251

> <Color>
0.191

> <Negative vol penalty>
0.000

$$$$

  -OEChem-04042321283D

 85 94  0     1  0  0  0  0  0999 V2000
  -18.5142  -26.3547   19.5438 C   0  0  0  0  0  0  0  0  0  0  0  0
  -19.8819  -26.1083   19.4809 C   0  0  0  0  0  0  0  0  0  0  0  0
  -24.3962   -8.7220   21.4848 C   0  0  0  0  0  0  0  0  0  0  0  0
  -24.3011  -10.2994   23.3124 C   0  0  0  0  0  0  0  0  0  0  0  0
  -18.0381  -27.4631   20.2430 C   0  0  0  0  0  0  0  0  0  0  0  0
  -20.7746  -26.9709   20.1162 C   0  0  0  0  0  0  0  0  0  0  0  0
  -24.3634  -24.4980   22.6950 C   0  0  0  0  0  0  0  0  0  0  0  0
  -28.6533  -18.1711   22.1708 C   0  0  0  0  0  0  0  0  0  0  0  0
  -28.2178  -19.3810   21.6306 C   0  0  0  0  0  0  0  0  0  0  0  0
  -24.0395   -7.6921   22.3551 C   0  0  0  0  0  0  0  0  0  0  0  0
  -23.9443   -9.2694   24.1827 C   0  0  0  0  0  0  0  0  0  0  0  0
  -25.4185  -23.9590   21.9602 C   0  0  0  0  0  0  0  0  0  0  0  0
  -21.2190   -6.5239   23.8089 C   0  0  0  0  0  0  0  0  0  0  0  0
  -20.2425   -5.6239   23.3824 C   0  0  0  0  0  0  0  0  0  0  0  0
  -26.7974  -25.8420   22.5703 C   0  0  0  0  0  0  0  0  0  0  0  0
  -30.3599  -19.6701   20.5512 C   0  0  0  0  0  0  0  0  0  0  0  0
  -21.8220   -3.8084   23.5976 C   0  0  0  0  0  0  0  0  0  0  0  0
  -24.5270  -10.0257   21.9634 C   0  0  0  0  0  0  0  0  0  0  0  0
  -24.0300  -11.9076   20.3145 C   0  0  0  0  0  0  0  0  0  0  0  0
  -18.9248  -28.3342   20.8953 C   0  0  0  0  0  0  0  0  0  0  0  0
  -24.5142  -25.7206   23.3652 C   0  0  0  0  0  0  0  0  0  0  0  0
  -20.3100  -28.0927   20.8236 C   0  0  0  0  0  0  0  0  0  0  0  0
  -25.7435  -26.3931   23.3151 C   0  0  0  0  0  0  0  0  0  0  0  0
  -29.9422  -17.7106   21.9013 C   0  0  0  0  0  0  0  0  0  0  0  0
  -29.0711  -20.1306   20.8208 C   0  0  0  0  0  0  0  0  0  0  0  0
  -23.8135   -7.9658   23.7041 C   0  0  0  0  0  0  0  0  0  0  0  0
  -26.6348  -24.6324   21.8954 C   0  0  0  0  0  0  0  0  0  0  0  0
  -22.4970   -6.0663   24.1296 C   0  0  0  0  0  0  0  0  0  0  0  0
  -20.5439   -4.2661   23.2767 C   0  0  0  0  0  0  0  0  0  0  0  0
  -30.7955  -18.4601   21.0915 C   0  0  0  0  0  0  0  0  0  0  0  0
  -22.7985   -4.7085   24.0240 C   0  0  0  0  0  0  0  0  0  0  0  0
  -24.8960  -11.0900   21.0649 C   0  0  0  0  0  0  0  0  0  0  0  0
  -24.8658  -12.7543   19.6283 C   0  0  0  0  0  0  0  0  0  0  0  0
  -29.3671  -22.2318   19.4402 C   0  0  0  0  0  0  0  0  0  0  0  0
  -22.5980  -11.9023   20.2440 C   0  0  0  0  0  0  0  0  0  0  0  0
  -23.1252  -28.5729   23.1682 C   0  0  0  0  0  0  0  0  0  0  0  0
  -24.9415  -29.2051   25.7804 C   0  0  0  0  0  0  0  0  0  0  0  0
  -27.7171  -28.4719   27.6257 C   0  0  0  0  0  0  0  0  0  0  0  0
  -30.4252  -14.7212   20.6659 C   0  0  0  0  0  0  0  0  0  0  0  0
  -18.3661  -29.5456   21.5990 C   0  0  0  0  0  0  0  0  0  0  0  0
  -23.3749  -26.2753   24.1756 C   0  0  0  0  0  0  0  0  0  0  0  0
  -25.9631  -27.6986   24.0334 C   0  0  0  0  0  0  0  0  0  0  0  0
  -28.4518  -23.3624   19.0251 C   0  0  0  0  0  0  0  0  0  0  0  0
  -19.3546  -30.2018   22.5595 C   0  0  0  0  0  0  0  0  0  0  0  0
  -29.2737  -12.9802   17.7814 C   0  0  0  0  0  0  0  0  0  0  0  0
  -20.7199  -30.3565   21.8972 C   0  0  0  0  0  0  0  0  0  0  0  0
  -27.9430  -12.3722   18.2282 C   0  0  0  0  0  0  0  0  0  0  0  0
  -30.3024  -12.9780   18.9101 C   0  0  0  0  0  0  0  0  0  0  0  0
  -28.5178  -13.0021   20.6097 C   0  0  0  0  0  0  0  0  0  0  0  0
  -27.2701  -21.8555   20.4600 C   0  0  0  0  0  0  0  0  0  0  0  0
  -21.3083  -28.9914   21.5206 C   0  0  1  0  0  0  0  0  0  0  0  0
  -23.4763  -27.7815   24.3962 C   0  0  1  0  0  0  0  0  0  0  0  0
  -27.4306  -13.0333   19.5219 C   0  0  2  0  0  0  0  0  0  0  0  0
  -27.3302  -23.3129   20.0465 C   0  0  1  0  0  0  0  0  0  1  0  0
  -28.9561  -29.1844   29.6884 C   0  0  0  0  0  0  0  0  0  0  0  0
  -26.0056  -31.6483   24.2945 C   0  0  0  0  0  0  0  0  0  0  0  0
  -27.8742  -31.7590   25.9571 C   0  0  0  0  0  0  0  0  0  0  0  0
  -25.5138  -32.0327   26.7162 C   0  0  0  0  0  0  0  0  0  0  0  0
  -27.3846  -25.8140   28.8841 C   0  0  0  0  0  0  0  0  0  0  0  0
  -30.4033  -16.4152   22.4794 C   0  0  0  0  0  0  0  0  0  0  0  0
  -26.3317  -29.7469   26.0103 C   0  0  1  0  0  0  0  0  0  0  0  0
  -27.9059  -28.2458   29.1149 C   0  0  2  0  0  0  0  0  0  0  0  0
  -26.4269  -31.2731   25.7293 C   0  0  0  0  0  0  0  0  0  0  0  0
  -26.1834  -11.3901   20.8735 N   0  0  0  0  0  0  0  0  0  0  0  0
  -26.1324  -12.4058   19.9949 N   0  0  0  0  0  0  0  0  0  0  0  0
  -28.6261  -21.3700   20.2694 N   0  0  0  0  0  0  0  0  0  0  0  0
  -24.8169  -28.2034   24.8073 N   0  0  0  0  0  0  0  0  0  0  0  0
  -29.7546  -13.6207   20.1071 N   0  0  0  0  0  0  0  0  0  0  0  0
  -24.6336  -13.7555   18.7530 N   0  0  0  0  0  0  0  0  0  0  0  0
  -21.8946  -10.9662   21.0143 N   0  0  0  0  0  0  0  0  0  0  0  0
  -21.8506  -28.3346   22.6907 N   0  0  0  0  0  0  0  0  0  0  0  0
  -26.6987  -29.3656   27.3698 N   0  0  0  0  0  0  0  0  0  0  0  0
  -29.8352  -15.2749   21.7955 N   0  0  0  0  0  0  0  0  0  0  0  0
  -28.3367  -26.8431   29.3753 N   0  3  0  0  0  0  0  0  0  0  0  0
  -30.5145  -22.1344   19.0291 O   0  0  0  0  0  0  0  0  0  0  0  0
  -21.9616  -12.6930   19.5068 O   0  0  0  0  0  0  0  0  0  0  0  0
  -23.9492  -29.3438   22.6901 O   0  0  0  0  0  0  0  0  0  0  0  0
  -24.0019  -29.6491   26.4450 O   0  0  0  0  0  0  0  0  0  0  0  0
  -28.4068  -27.9146   26.7746 O   0  0  0  0  0  0  0  0  0  0  0  0
  -31.4692  -15.1799   20.1899 O   0  0  0  0  0  0  0  0  0  0  0  0
  -23.4652   -6.9610   24.5536 O   0  0  0  0  0  0  0  0  0  0  0  0
  -27.6661  -24.1089   21.1783 O   0  0  0  0  0  0  0  0  0  1  0  0
  -19.6057   -3.4016   22.8687 F   0  0  0  0  0  0  0  0  0  0  0  0
  -32.0355  -18.0260   20.8268 F   0  0  0  0  0  0  0  0  0  0  0  0
  -24.0242   -4.2627   24.3319 F   0  0  0  0  0  0  0  0  0  0  0  0
  1  2  1  0  0  0  0
  1  5  2  0  0  0  0
  2  6  2  0  0  0  0
  3 10  2  0  0  0  0
  3 18  1  0  0  0  0
  4 11  1  0  0  0  0
  4 18  2  0  0  0  0
  5 20  1  0  0  0  0
  6 22  1  0  0  0  0
  7 12  2  0  0  0  0
  7 21  1  0  0  0  0
  8  9  2  0  0  0  0
  8 24  1  0  0  0  0
  9 25  1  0  0  0  0
 10 26  1  0  0  0  0
 11 26  2  0  0  0  0
 12 27  1  0  0  0  0
 13 14  2  0  0  0  0
 13 28  1  0  0  0  0
 14 29  1  0  0  0  0
 15 23  1  0  0  0  0
 15 27  2  0  0  0  0
 16 25  2  0  0  0  0
 16 30  1  0  0  0  0
 17 29  2  0  0  0  0
 17 31  1  0  0  0  0
 18 32  1  0  0  0  0
 19 32  1  0  0  0  0
 19 33  2  0  0  0  0
 19 35  1  0  0  0  0
 20 22  2  0  0  0  0
 20 40  1  0  0  0  0
 21 23  2  0  0  0  0
 21 41  1  0  0  0  0
 22 51  1  0  0  0  0
 23 42  1  0  0  0  0
 24 30  2  0  0  0  0
 24 60  1  0  0  0  0
 25 66  1  0  0  0  0
 26 81  1  0  0  0  0
 27 82  1  0  0  0  0
 28 31  2  0  0  0  0
 28 81  1  0  0  0  0
 29 83  1  0  0  0  0
 30 84  1  0  0  0  0
 31 85  1  0  0  0  0
 32 64  2  0  0  0  0
 33 65  1  0  0  0  0
 33 69  1  0  0  0  0
 34 43  1  0  0  0  0
 34 66  1  0  0  0  0
 34 75  2  0  0  0  0
 35 70  1  0  0  0  0
 35 76  2  0  0  0  0
 36 52  1  0  0  0  0
 36 71  1  0  0  0  0
 36 77  2  0  0  0  0
 37 61  1  0  0  0  0
 37 67  1  0  0  0  0
 37 78  2  0  0  0  0
 38 62  1  0  0  0  0
 38 72  1  0  0  0  0
 38 79  2  0  0  0  0
 39 68  1  0  0  0  0
 39 73  1  0  0  0  0
 39 80  2  0  0  0  0
 40 44  1  0  0  0  0
 41 52  1  0  0  0  0
 42 67  1  0  0  0  0
 43 54  1  0  0  0  0
 44 46  1  0  0  0  0
 45 47  1  0  0  0  0
 45 48  1  0  0  0  0
 46 51  1  0  0  0  0
 47 53  1  0  0  0  0
 48 68  1  0  0  0  0
 49 53  1  0  0  0  0
 49 68  1  0  0  0  0
 50 54  1  0  0  0  0
 50 66  1  0  0  0  0
 51 71  1  0  0  0  0
 52 67  1  0  0  0  0
 53 65  1  0  0  0  0
 54 82  1  0  0  0  0
 55 62  1  0  0  0  0
 56 63  1  0  0  0  0
 57 63  1  0  0  0  0
 58 63  1  0  0  0  0
 59 74  1  0  0  0  0
 60 73  1  0  0  0  0
 61 63  1  0  0  0  0
 61 72  1  0  0  0  0
 62 74  1  0  0  0  0
 64 65  1  0  0  0  0
M  CHG  1  74   1
M  ISO  4  39 100  54 101  73 100  82 101
M  END
> <Batch ID>
0027

> <Smiles>
CNC(C)C(=O)NC(C(=O)N1Cc2cc([101O:1][101CH:1]3CC(=O)N(c4ccc(C[100NH:0][100C:0](=O)N5CCCC(n6nc(-c7ccc(Oc8ccc(F)cc8F)cc7)c(C(N)=O)c6N)C5)c(F)c4)C3)ccc2CC1C(=O)NC1CCCc2ccccc21)C(C)(C)C

> <Shape>
0.286

> <Color>
0.107

> <Negative vol penalty>
0.000

$$$$

  -OEChem-04042321283D

 87 96  0     1  0  0  0  0  0999 V2000
  -16.6297  -30.4369   24.0542 C   0  0  0  0  0  0  0  0  0  0  0  0
  -16.8864  -29.0800   23.8854 C   0  0  0  0  0  0  0  0  0  0  0  0
  -25.9684  -13.7434   20.0111 C   0  0  0  0  0  0  0  0  0  0  0  0
  -27.4511  -12.7469   18.3845 C   0  0  0  0  0  0  0  0  0  0  0  0
  -17.5070  -31.3823   23.5248 C   0  0  0  0  0  0  0  0  0  0  0  0
  -18.0202  -28.6679   23.1862 C   0  0  0  0  0  0  0  0  0  0  0  0
  -22.9725  -24.4635   26.2991 C   0  0  0  0  0  0  0  0  0  0  0  0
  -26.6526  -19.2431   22.0923 C   0  0  0  0  0  0  0  0  0  0  0  0
  -27.2347  -20.2009   21.2621 C   0  0  0  0  0  0  0  0  0  0  0  0
  -25.0795  -12.6804   19.8521 C   0  0  0  0  0  0  0  0  0  0  0  0
  -26.5621  -11.6838   18.2256 C   0  0  0  0  0  0  0  0  0  0  0  0
  -23.8590  -23.4880   26.7559 C   0  0  0  0  0  0  0  0  0  0  0  0
  -24.8119   -9.4783   20.9047 C   0  0  0  0  0  0  0  0  0  0  0  0
  -24.2715   -8.9074   22.0569 C   0  0  0  0  0  0  0  0  0  0  0  0
  -25.1346  -23.6742   24.7098 C   0  0  0  0  0  0  0  0  0  0  0  0
  -28.6973  -19.1100   23.3725 C   0  0  0  0  0  0  0  0  0  0  0  0
  -22.0497   -9.4740   21.2956 C   0  0  0  0  0  0  0  0  0  0  0  0
  -27.1542  -13.7767   19.2772 C   0  0  0  0  0  0  0  0  0  0  0  0
  -29.1376  -14.9632   20.3570 C   0  0  0  0  0  0  0  0  0  0  0  0
  -18.6573  -30.9815   22.8270 C   0  0  0  0  0  0  0  0  0  0  0  0
  -23.1727  -25.0598   25.0510 C   0  0  0  0  0  0  0  0  0  0  0  0
  -18.9131  -29.6088   22.6458 C   0  0  0  0  0  0  0  0  0  0  0  0
  -24.2570  -24.6608   24.2524 C   0  0  0  0  0  0  0  0  0  0  0  0
  -27.3839  -18.6977   23.1476 C   0  0  0  0  0  0  0  0  0  0  0  0
  -28.5482  -20.6133   21.4870 C   0  0  0  0  0  0  0  0  0  0  0  0
  -25.3763  -11.6506   18.9594 C   0  0  0  0  0  0  0  0  0  0  0  0
  -24.9372  -23.0942   25.9630 C   0  0  0  0  0  0  0  0  0  0  0  0
  -23.9712  -10.0472   19.9479 C   0  0  0  0  0  0  0  0  0  0  0  0
  -22.8904   -8.9052   22.2523 C   0  0  0  0  0  0  0  0  0  0  0  0
  -29.2795  -20.0678   22.5422 C   0  0  0  0  0  0  0  0  0  0  0  0
  -22.5901  -10.0450   20.1434 C   0  0  0  0  0  0  0  0  0  0  0  0
  -28.0726  -14.8749   19.4406 C   0  0  0  0  0  0  0  0  0  0  0  0
  -29.6988  -16.1931   20.1137 C   0  0  0  0  0  0  0  0  0  0  0  0
  -29.5802  -14.0181   21.3401 C   0  0  0  0  0  0  0  0  0  0  0  0
  -21.9884  -27.5644   22.5211 C   0  0  0  0  0  0  0  0  0  0  0  0
  -25.0500  -27.7454   22.5887 C   0  0  0  0  0  0  0  0  0  0  0  0
  -28.3878  -27.9291   23.2688 C   0  0  0  0  0  0  0  0  0  0  0  0
  -28.7678  -21.7265   19.2717 C   0  0  0  0  0  0  0  0  0  0  0  0
  -19.5514  -32.0404   22.2321 C   0  0  0  0  0  0  0  0  0  0  0  0
  -22.2081  -26.0705   24.4926 C   0  0  0  0  0  0  0  0  0  0  0  0
  -24.4132  -25.3048   22.9019 C   0  0  0  0  0  0  0  0  0  0  0  0
  -20.9276  -31.5185   21.8273 C   0  0  0  0  0  0  0  0  0  0  0  0
  -28.9648  -19.4801   16.3520 C   0  0  0  0  0  0  0  0  0  0  0  0
  -26.2178  -17.4346   27.8169 C   0  0  0  0  0  0  0  0  0  0  0  0
  -20.7961  -30.2110   21.0528 C   0  0  0  0  0  0  0  0  0  0  0  0
  -25.5117  -18.7664   28.0487 C   0  0  0  0  0  0  0  0  0  0  0  0
  -28.7706  -18.0976   16.9724 C   0  0  0  0  0  0  0  0  0  0  0  0
  -28.2443  -20.5646   17.1474 C   0  0  0  0  0  0  0  0  0  0  0  0
  -28.4182  -19.2109   19.2132 C   0  0  0  0  0  0  0  0  0  0  0  0
  -26.1408  -17.0004   26.3611 C   0  0  0  0  0  0  0  0  0  0  0  0
  -25.9621  -19.4000   25.6468 C   0  0  0  0  0  0  0  0  0  0  0  0
  -20.1456  -29.1222   21.9147 C   0  0  1  0  0  0  0  0  0  0  0  0
  -22.8950  -27.1561   23.6448 C   0  0  1  0  0  0  0  0  0  0  0  0
  -26.0431  -19.8518   27.1060 C   0  0  1  0  0  0  0  0  0  0  0  0
  -29.1678  -18.1025   18.4587 C   0  0  1  0  0  0  0  0  0  0  0  0
  -30.4750  -29.1392   22.5786 C   0  0  0  0  0  0  0  0  0  0  0  0
  -25.1843  -26.0586   20.0509 C   0  0  0  0  0  0  0  0  0  0  0  0
  -27.6300  -26.5779   19.9201 C   0  0  0  0  0  0  0  0  0  0  0  0
  -25.9558  -28.4215   19.7754 C   0  0  0  0  0  0  0  0  0  0  0  0
  -29.9830  -22.6463   21.2331 C   0  0  0  0  0  0  0  0  0  0  0  0
  -28.7771  -29.0450   25.9821 C   0  0  0  0  0  0  0  0  0  0  0  0
  -26.7583  -17.6666   24.0400 C   0  0  0  0  0  0  0  0  0  0  0  0
  -25.2737  -21.1569   27.3014 C   0  0  0  0  0  0  0  0  0  1  0  0
  -26.3578  -27.2838   21.9971 C   0  0  1  0  0  0  0  0  0  0  0  0
  -29.2970  -29.1141   23.5401 C   0  0  2  0  0  0  0  0  0  0  0  0
  -26.2710  -27.0732   20.4591 C   0  0  0  0  0  0  0  0  0  0  0  0
  -27.9617  -15.9620   18.6726 N   0  0  0  0  0  0  0  0  0  0  0  0
  -28.9642  -16.7452   19.1059 N   0  0  0  0  0  0  0  0  0  0  0  0
  -24.1562  -26.7500   23.0018 N   0  0  0  0  0  0  0  0  0  0  0  0
  -28.6049  -20.5181   18.5650 N   0  0  0  0  0  0  0  0  0  0  0  0
  -30.7439  -16.8453   20.6657 N   0  0  0  0  0  0  0  0  0  0  0  0
  -28.8909  -12.8035   21.4571 N   0  0  0  0  0  0  0  0  0  0  0  0
  -21.1063  -28.5761   22.8492 N   0  0  0  0  0  0  0  0  0  0  0  0
  -27.3601  -28.2597   22.4110 N   0  0  0  0  0  0  0  0  0  0  0  0
  -29.1484  -21.6046   20.6257 N   0  0  0  0  0  0  0  0  0  0  0  0
  -26.7003  -18.0920   25.4816 N   0  3  2  0  0  0  0  0  0  0  0  0
  -29.8273  -29.0522   24.9314 N   0  3  0  0  0  0  0  0  0  0  0  0
  -30.5478  -14.2510   22.1038 O   0  0  0  0  0  0  0  0  0  0  0  0
  -22.0824  -27.0045   21.4351 O   0  0  0  0  0  0  0  0  0  0  0  0
  -24.8220  -28.9551   22.6780 O   0  0  0  0  0  0  0  0  0  0  0  0
  -28.5730  -26.8201   23.7650 O   0  0  0  0  0  0  0  0  0  0  0  0
  -28.6145  -22.8265   18.7274 O   0  0  0  0  0  0  0  0  0  0  0  0
  -24.5092  -10.6130   18.8042 O   0  0  0  0  0  0  0  0  0  0  0  0
  -25.8015  -22.1446   26.4169 O   0  0  0  0  0  0  0  0  0  1  0  0
  -22.3715   -8.3555   23.3581 F   0  0  0  0  0  0  0  0  0  0  0  0
  -30.5430  -20.4556   22.7667 F   0  0  0  0  0  0  0  0  0  0  0  0
  -21.7773  -10.5889   19.2272 F   0  0  0  0  0  0  0  0  0  0  0  0
  1  2  1  0  0  0  0
  1  5  2  0  0  0  0
  2  6  2  0  0  0  0
  3 10  2  0  0  0  0
  3 18  1  0  0  0  0
  4 11  1  0  0  0  0
  4 18  2  0  0  0  0
  5 20  1  0  0  0  0
  6 22  1  0  0  0  0
  7 12  2  0  0  0  0
  7 21  1  0  0  0  0
  8  9  2  0  0  0  0
  8 24  1  0  0  0  0
  9 25  1  0  0  0  0
 10 26  1  0  0  0  0
 11 26  2  0  0  0  0
 12 27  1  0  0  0  0
 13 14  2  0  0  0  0
 13 28  1  0  0  0  0
 14 29  1  0  0  0  0
 15 23  1  0  0  0  0
 15 27  2  0  0  0  0
 16 24  2  0  0  0  0
 16 30  1  0  0  0  0
 17 29  2  0  0  0  0
 17 31  1  0  0  0  0
 18 32  1  0  0  0  0
 19 32  1  0  0  0  0
 19 33  2  0  0  0  0
 19 34  1  0  0  0  0
 20 22  2  0  0  0  0
 20 39  1  0  0  0  0
 21 23  2  0  0  0  0
 21 40  1  0  0  0  0
 22 52  1  0  0  0  0
 23 41  1  0  0  0  0
 24 62  1  0  0  0  0
 25 30  2  0  0  0  0
 25 75  1  0  0  0  0
 26 83  1  0  0  0  0
 27 84  1  0  0  0  0
 28 31  2  0  0  0  0
 28 83  1  0  0  0  0
 29 85  1  0  0  0  0
 30 86  1  0  0  0  0
 31 87  1  0  0  0  0
 32 67  2  0  0  0  0
 33 68  1  0  0  0  0
 33 71  1  0  0  0  0
 34 72  1  0  0  0  0
 34 78  2  0  0  0  0
 35 53  1  0  0  0  0
 35 73  1  0  0  0  0
 35 79  2  0  0  0  0
 36 64  1  0  0  0  0
 36 69  1  0  0  0  0
 36 80  2  0  0  0  0
 37 65  1  0  0  0  0
 37 74  1  0  0  0  0
 37 81  2  0  0  0  0
 38 70  1  0  0  0  0
 38 75  1  0  0  0  0
 38 82  2  0  0  0  0
 39 42  1  0  0  0  0
 40 53  1  0  0  0  0
 41 69  1  0  0  0  0
 42 45  1  0  0  0  0
 43 47  1  0  0  0  0
 43 48  1  0  0  0  0
 44 46  1  0  0  0  0
 44 50  1  0  0  0  0
 45 52  1  0  0  0  0
 46 54  1  0  0  0  0
 47 55  1  0  0  0  0
 48 70  1  0  0  0  0
 49 55  1  0  0  0  0
 49 70  1  0  0  0  0
 50 76  1  0  0  0  0
 51 54  1  0  0  0  0
 51 76  1  0  0  0  0
 52 73  1  0  0  0  0
 53 69  1  0  0  0  0
 54 63  1  0  0  0  0
 55 68  1  0  0  0  0
 56 65  1  0  0  0  0
 57 66  1  0  0  0  0
 58 66  1  0  0  0  0
 59 66  1  0  0  0  0
 60 75  1  0  0  0  0
 61 77  1  0  0  0  0
 62 76  1  0  0  0  0
 63 84  1  0  0  0  0
 64 66  1  0  0  0  0
 64 74  1  0  0  0  0
 65 77  1  0  0  0  0
 67 68  1  0  0  0  0
M  CHG  2  76   1  77   1
M  ISO  4  38 100  63 101  75 100  84 101
M  END
> <Batch ID>
0027

> <Smiles>
CNC(C)C(=O)NC(C(=O)N1Cc2cc([101O:1][101CH2:1]C3CCCN(Cc4ccc([100N:0](C)[100C:0](=O)N5CCCC(n6nc(-c7ccc(Oc8ccc(F)cc8F)cc7)c(C(N)=O)c6N)C5)c(F)c4)C3)ccc2CC1C(=O)NC1CCCc2ccccc21)C(C)(C)C

> <Shape>
0.228

> <Color>
0.060

> <Negative vol penalty>
0.000

$$$$

  -OEChem-04042321283D

 82 91  0     1  0  0  0  0  0999 V2000
  -29.1270  -37.2134   24.3536 C   0  0  0  0  0  0  0  0  0  0  0  0
  -29.5223  -36.0025   23.7941 C   0  0  0  0  0  0  0  0  0  0  0  0
  -24.6682   -9.8146   21.8888 C   0  0  0  0  0  0  0  0  0  0  0  0
  -24.7863  -11.1915   23.8705 C   0  0  0  0  0  0  0  0  0  0  0  0
  -27.9945  -37.2683   25.1650 C   0  0  0  0  0  0  0  0  0  0  0  0
  -28.7859  -34.8457   24.0466 C   0  0  0  0  0  0  0  0  0  0  0  0
  -27.8196  -30.1828   20.1957 C   0  0  0  0  0  0  0  0  0  0  0  0
  -29.4947  -21.5737   21.1816 C   0  0  0  0  0  0  0  0  0  0  0  0
  -29.5055  -20.2206   20.8431 C   0  0  0  0  0  0  0  0  0  0  0  0
  -24.3815   -8.7017   22.6792 C   0  0  0  0  0  0  0  0  0  0  0  0
  -24.4996  -10.0786   24.6609 C   0  0  0  0  0  0  0  0  0  0  0  0
  -28.4298  -28.9366   20.0598 C   0  0  0  0  0  0  0  0  0  0  0  0
  -21.6998   -7.4096   24.2830 C   0  0  0  0  0  0  0  0  0  0  0  0
  -20.6689   -6.5673   23.8669 C   0  0  0  0  0  0  0  0  0  0  0  0
  -26.6922  -27.9455   21.4079 C   0  0  0  0  0  0  0  0  0  0  0  0
  -27.0793  -21.5427   21.2283 C   0  0  0  0  0  0  0  0  0  0  0  0
  -22.2278   -4.7266   23.7305 C   0  0  0  0  0  0  0  0  0  0  0  0
  -24.8707  -11.0596   22.4845 C   0  0  0  0  0  0  0  0  0  0  0  0
  -24.2458  -13.1085   21.0991 C   0  0  0  0  0  0  0  0  0  0  0  0
  -27.2383  -36.1134   25.4197 C   0  0  0  0  0  0  0  0  0  0  0  0
  -26.6450  -30.3218   20.9490 C   0  0  0  0  0  0  0  0  0  0  0  0
  -27.6430  -34.8850   24.8633 C   0  0  0  0  0  0  0  0  0  0  0  0
  -26.0676  -29.1940   21.5497 C   0  0  0  0  0  0  0  0  0  0  0  0
  -27.0901  -20.1895   20.8898 C   0  0  0  0  0  0  0  0  0  0  0  0
  -28.2816  -22.2347   21.3742 C   0  0  0  0  0  0  0  0  0  0  0  0
  -28.3033  -19.5285   20.6972 C   0  0  0  0  0  0  0  0  0  0  0  0
  -24.2971   -8.8336   24.0652 C   0  0  0  0  0  0  0  0  0  0  0  0
  -27.8677  -27.8182   20.6683 C   0  0  0  0  0  0  0  0  0  0  0  0
  -22.9948   -6.9105   24.4228 C   0  0  0  0  0  0  0  0  0  0  0  0
  -20.9328   -5.2258   23.5906 C   0  0  0  0  0  0  0  0  0  0  0  0
  -23.2588   -5.5690   24.1465 C   0  0  0  0  0  0  0  0  0  0  0  0
  -25.1674  -12.2095   21.6686 C   0  0  0  0  0  0  0  0  0  0  0  0
  -25.0242  -14.0160   20.4232 C   0  0  0  0  0  0  0  0  0  0  0  0
  -22.8141  -13.1221   21.1745 C   0  0  0  0  0  0  0  0  0  0  0  0
  -25.8366  -31.9340   23.5665 C   0  0  0  0  0  0  0  0  0  0  0  0
  -22.8688  -30.8344   22.8557 C   0  0  0  0  0  0  0  0  0  0  0  0
  -20.9461  -28.4835   21.2991 C   0  0  0  0  0  0  0  0  0  0  0  0
  -29.4635  -17.3645   20.1338 C   0  0  0  0  0  0  0  0  0  0  0  0
  -26.0488  -36.2132   26.3415 C   0  0  0  0  0  0  0  0  0  0  0  0
  -25.9844  -31.6682   21.0638 C   0  0  0  0  0  0  0  0  0  0  0  0
  -24.7964  -29.2864   22.3522 C   0  0  0  0  0  0  0  0  0  0  0  0
  -25.1094  -35.0131   26.2557 C   0  0  0  0  0  0  0  0  0  0  0  0
  -29.9613  -13.9368   19.3092 C   0  0  0  0  0  0  0  0  0  0  0  0
  -25.9026  -33.7106   26.2907 C   0  0  0  0  0  0  0  0  0  0  0  0
  -28.6827  -13.2558   19.8027 C   0  0  0  0  0  0  0  0  0  0  0  0
  -30.3991  -15.0649   20.2416 C   0  0  0  0  0  0  0  0  0  0  0  0
  -28.0861  -15.3845   21.0272 C   0  0  0  0  0  0  0  0  0  0  0  0
  -27.2684  -24.5378   21.3878 C   0  0  0  0  0  0  0  0  0  0  0  0
  -29.3588  -24.4946   21.6252 C   0  0  0  0  0  0  0  0  0  0  0  0
  -26.8561  -33.6131   25.0937 C   0  0  1  0  0  0  0  0  0  0  0  0
  -25.0726  -31.7846   22.2813 C   0  0  1  0  0  0  0  0  0  0  0  0
  -27.5699  -14.2839   20.0860 C   0  0  2  0  0  0  0  0  0  0  0  0
  -28.3255  -25.6302   21.6020 C   0  0  0  0  0  0  0  0  0  1  0  0
  -25.7873  -19.4728   20.7416 C   0  0  0  0  0  0  0  0  0  0  0  0
  -18.5525  -27.8275   20.9275 C   0  0  0  0  0  0  0  0  0  0  0  0
  -22.7309  -29.7363   25.6991 C   0  0  0  0  0  0  0  0  0  0  0  0
  -20.7989  -28.3146   24.9819 C   0  0  0  0  0  0  0  0  0  0  0  0
  -20.6182  -30.8009   24.8884 C   0  0  0  0  0  0  0  0  0  0  0  0
  -21.1937  -28.7985   18.3668 C   0  0  0  0  0  0  0  0  0  0  0  0
  -22.0739  -29.5997   23.2060 C   0  0  1  0  0  0  0  0  0  0  0  0
  -19.7385  -28.6120   20.3882 C   0  0  2  0  0  0  0  0  0  0  0  0
  -21.5805  -29.6111   24.6804 C   0  0  0  0  0  0  0  0  0  0  0  0
  -26.4344  -12.5178   21.3794 N   0  0  0  0  0  0  0  0  0  0  0  0
  -26.3145  -13.6207   20.6208 N   0  0  0  0  0  0  0  0  0  0  0  0
  -28.2710  -23.5835   21.7122 N   0  0  0  0  0  0  0  0  0  0  0  0
  -24.1917  -30.6258   22.4406 N   0  0  0  0  0  0  0  0  0  0  0  0
  -29.2954  -16.0023   20.4607 N   0  0  0  0  0  0  0  0  0  0  0  0
  -24.7240  -15.1056   19.6849 N   0  0  0  0  0  0  0  0  0  0  0  0
  -22.1742  -12.1158   21.9110 N   0  0  0  0  0  0  0  0  0  0  0  0
  -28.3354  -18.1539   20.3547 N   0  0  0  0  0  0  0  0  0  0  0  0
  -26.1298  -33.2431   23.8978 N   0  0  0  0  0  0  0  0  0  0  0  0
  -21.0038  -29.5094   22.2185 N   0  0  0  0  0  0  0  0  0  0  0  0
  -20.0603  -28.1002   19.0261 N   0  3  0  0  0  0  0  0  0  0  0  0
  -22.1219  -13.9910   20.5921 O   0  0  0  0  0  0  0  0  0  0  0  0
  -26.1367  -30.9356   24.2106 O   0  0  0  0  0  0  0  0  0  0  0  0
  -22.3335  -31.9425   22.9402 O   0  0  0  0  0  0  0  0  0  0  0  0
  -21.7550  -27.5628   21.2068 O   0  0  0  0  0  0  0  0  0  0  0  0
  -30.5208  -17.7937   19.6649 O   0  0  0  0  0  0  0  0  0  0  0  0
  -24.0172   -7.7478   24.8367 O   0  0  0  0  0  0  0  0  0  0  0  0
  -28.4616  -26.6008   20.5378 O   0  0  0  0  0  0  0  0  0  1  0  0
  -19.9424   -4.4166   23.1926 F   0  0  0  0  0  0  0  0  0  0  0  0
  -24.5007   -5.0834   24.2801 F   0  0  0  0  0  0  0  0  0  0  0  0
  1  2  1  0  0  0  0
  1  5  2  0  0  0  0
  2  6  2  0  0  0  0
  3 10  2  0  0  0  0
  3 18  1  0  0  0  0
  4 11  1  0  0  0  0
  4 18  2  0  0  0  0
  5 20  1  0  0  0  0
  6 22  1  0  0  0  0
  7 12  2  0  0  0  0
  7 21  1  0  0  0  0
  8  9  2  0  0  0  0
  8 25  1  0  0  0  0
  9 26  1  0  0  0  0
 10 27  1  0  0  0  0
 11 27  2  0  0  0  0
 12 28  1  0  0  0  0
 13 14  2  0  0  0  0
 13 29  1  0  0  0  0
 14 30  1  0  0  0  0
 15 23  1  0  0  0  0
 15 28  2  0  0  0  0
 16 24  1  0  0  0  0
 16 25  2  0  0  0  0
 17 30  2  0  0  0  0
 17 31  1  0  0  0  0
 18 32  1  0  0  0  0
 19 32  1  0  0  0  0
 19 33  2  0  0  0  0
 19 34  1  0  0  0  0
 20 22  2  0  0  0  0
 20 39  1  0  0  0  0
 21 23  2  0  0  0  0
 21 40  1  0  0  0  0
 22 50  1  0  0  0  0
 23 41  1  0  0  0  0
 24 26  2  0  0  0  0
 24 54  1  0  0  0  0
 25 65  1  0  0  0  0
 26 70  1  0  0  0  0
 27 79  1  0  0  0  0
 28 80  1  0  0  0  0
 29 31  2  0  0  0  0
 29 79  1  0  0  0  0
 30 81  1  0  0  0  0
 31 82  1  0  0  0  0
 32 63  2  0  0  0  0
 33 64  1  0  0  0  0
 33 68  1  0  0  0  0
 34 69  1  0  0  0  0
 34 74  2  0  0  0  0
 35 51  1  0  0  0  0
 35 71  1  0  0  0  0
 35 75  2  0  0  0  0
 36 60  1  0  0  0  0
 36 66  1  0  0  0  0
 36 76  2  0  0  0  0
 37 61  1  0  0  0  0
 37 72  1  0  0  0  0
 37 77  2  0  0  0  0
 38 67  1  0  0  0  0
 38 70  1  0  0  0  0
 38 78  2  0  0  0  0
 39 42  1  0  0  0  0
 40 51  1  0  0  0  0
 41 66  1  0  0  0  0
 42 44  1  0  0  0  0
 43 45  1  0  0  0  0
 43 46  1  0  0  0  0
 44 50  1  0  0  0  0
 45 52  1  0  0  0  0
 46 67  1  0  0  0  0
 47 52  1  0  0  0  0
 47 67  1  0  0  0  0
 48 53  1  0  0  0  0
 48 65  1  0  0  0  0
 49 53  1  0  0  0  0
 49 65  1  0  0  0  0
 50 71  1  0  0  0  0
 51 66  1  0  0  0  0
 52 64  1  0  0  0  0
 53 80  1  0  0  0  0
 55 61  1  0  0  0  0
 56 62  1  0  0  0  0
 57 62  1  0  0  0  0
 58 62  1  0  0  0  0
 59 73  1  0  0  0  0
 60 62  1  0  0  0  0
 60 72  1  0  0  0  0
 61 73  1  0  0  0  0
 63 64  1  0  0  0  0
M  CHG  1  73   1
M  ISO  4  38 100  53 101  70 100  80 101
M  END
> <Batch ID>
0027

> <Smiles>
CNC(C)C(=O)NC(C(=O)N1Cc2cc([101O:1][101CH:1]3CN(c4ccc([100NH:0][100C:0](=O)N5CCCC(n6nc(-c7ccc(Oc8ccc(F)cc8F)cc7)c(C(N)=O)c6N)C5)c(C)c4)C3)ccc2CC1C(=O)NC1CCCc2ccccc21)C(C)(C)C

> <Shape>
0.327

> <Color>
0.137

> <Negative vol penalty>
0.000

$$$$

  -OEChem-04042321283D

 84 92  0     1  0  0  0  0  0999 V2000
  -17.5806  -28.4009   23.9398 C   0  0  0  0  0  0  0  0  0  0  0  0
  -31.5140  -13.1228   17.0124 C   0  0  0  0  0  0  0  0  0  0  0  0
  -30.7653  -14.2871   16.8739 C   0  0  0  0  0  0  0  0  0  0  0  0
  -18.2595  -29.5592   24.3178 C   0  0  0  0  0  0  0  0  0  0  0  0
  -29.3524  -26.3934   18.9320 C   0  0  0  0  0  0  0  0  0  0  0  0
  -28.5842  -25.2119   20.8944 C   0  0  0  0  0  0  0  0  0  0  0  0
  -18.1085  -27.5756   22.9470 C   0  0  0  0  0  0  0  0  0  0  0  0
  -31.1157  -12.1432   17.9211 C   0  0  0  0  0  0  0  0  0  0  0  0
  -29.6171  -14.4721   17.6432 C   0  0  0  0  0  0  0  0  0  0  0  0
  -27.5136  -19.7601   19.9054 C   0  0  0  0  0  0  0  0  0  0  0  0
  -19.4664  -29.8923   23.7029 C   0  0  0  0  0  0  0  0  0  0  0  0
  -30.6137  -25.8160   19.0780 C   0  0  0  0  0  0  0  0  0  0  0  0
  -29.8455  -24.6345   21.0404 C   0  0  0  0  0  0  0  0  0  0  0  0
  -26.5270  -20.6418   19.4662 C   0  0  0  0  0  0  0  0  0  0  0  0
  -32.7593  -22.5693   21.7213 C   0  0  0  0  0  0  0  0  0  0  0  0
  -32.8199  -21.2037   21.9985 C   0  0  0  0  0  0  0  0  0  0  0  0
  -24.9364  -19.5876   20.9419 C   0  0  0  0  0  0  0  0  0  0  0  0
  -31.6614  -20.7325   19.9314 C   0  0  0  0  0  0  0  0  0  0  0  0
  -28.3377  -26.0914   19.8402 C   0  0  0  0  0  0  0  0  0  0  0  0
  -19.3154  -27.9086   22.3321 C   0  0  0  0  0  0  0  0  0  0  0  0
  -25.9458  -26.1788   18.9576 C   0  0  0  0  0  0  0  0  0  0  0  0
  -29.9674  -12.3205   18.7089 C   0  0  0  0  0  0  0  0  0  0  0  0
  -27.2158  -18.7768   20.8598 C   0  0  0  0  0  0  0  0  0  0  0  0
  -29.2023  -13.4933   18.5623 C   0  0  0  0  0  0  0  0  0  0  0  0
  -25.9216  -18.6962   21.3934 C   0  0  0  0  0  0  0  0  0  0  0  0
  -19.9944  -29.0670   22.7100 C   0  0  0  0  0  0  0  0  0  0  0  0
  -30.8603  -24.9365   20.1322 C   0  0  0  0  0  0  0  0  0  0  0  0
  -25.2375  -20.5538   19.9823 C   0  0  0  0  0  0  0  0  0  0  0  0
  -32.1496  -23.0166   20.5491 C   0  0  0  0  0  0  0  0  0  0  0  0
  -32.2710  -20.2852   21.1036 C   0  0  0  0  0  0  0  0  0  0  0  0
  -31.6007  -22.0982   19.6542 C   0  0  0  0  0  0  0  0  0  0  0  0
  -27.0347  -26.6880   19.6902 C   0  0  0  0  0  0  0  0  0  0  0  0
  -24.9507  -27.1098   19.1297 C   0  0  0  0  0  0  0  0  0  0  0  0
  -19.8517  -27.0040   21.2742 C   0  0  0  0  0  0  0  0  0  0  0  0
  -25.8429  -24.9720   18.1903 C   0  0  0  0  0  0  0  0  0  0  0  0
  -27.2570  -15.5986   20.8940 C   0  0  0  0  0  0  0  0  0  0  0  0
  -26.5753  -16.0119   24.0383 C   0  0  0  0  0  0  0  0  0  0  0  0
  -25.2752  -18.0067   26.4831 C   0  0  0  0  0  0  0  0  0  0  0  0
  -22.0042  -30.5475   22.3705 C   0  0  0  0  0  0  0  0  0  0  0  0
  -29.5501  -11.2128   19.6435 C   0  0  0  0  0  0  0  0  0  0  0  0
  -28.2979  -17.8505   21.3428 C   0  0  0  0  0  0  0  0  0  0  0  0
  -25.5556  -17.6716   22.4349 C   0  0  0  0  0  0  0  0  0  0  0  0
  -28.5293  -11.6512   20.6903 C   0  0  0  0  0  0  0  0  0  0  0  0
  -25.1028  -31.7660   21.1093 C   0  0  0  0  0  0  0  0  0  0  0  0
  -27.4135  -12.4634   20.0406 C   0  0  0  0  0  0  0  0  0  0  0  0
  -25.7921  -30.5116   20.5674 C   0  0  0  0  0  0  0  0  0  0  0  0
  -24.3104  -31.4727   22.3820 C   0  0  0  0  0  0  0  0  0  0  0  0
  -24.0406  -29.1115   21.7332 C   0  0  0  0  0  0  0  0  0  0  0  0
  -27.9645  -13.7415   19.3968 C   0  0  1  0  0  0  0  0  0  0  0  0
  -27.7541  -16.5562   21.9398 C   0  0  1  0  0  0  0  0  0  0  0  0
  -24.7981  -29.3435   20.4156 C   0  0  2  0  0  0  0  0  0  0  0  0
  -24.8224  -18.0573   28.9509 C   0  0  0  0  0  0  0  0  0  0  0  0
  -24.1866  -14.1567   23.6356 C   0  0  0  0  0  0  0  0  0  0  0  0
  -23.2629  -14.9884   25.8089 C   0  0  0  0  0  0  0  0  0  0  0  0
  -25.4482  -13.7863   25.7630 C   0  0  0  0  0  0  0  0  0  0  0  0
  -27.0372  -20.3519   26.8758 C   0  0  0  0  0  0  0  0  0  0  0  0
  -20.1589  -25.5699   21.6390 C   0  0  0  0  0  0  0  0  0  0  0  0
  -22.7373  -23.1500   20.1701 C   0  0  0  0  0  0  0  0  0  0  0  0
  -21.6439  -23.6320   21.1118 C   0  0  0  0  0  0  0  0  0  0  0  0
  -23.2425  -21.7472   20.4843 C   0  0  0  0  0  0  0  0  0  1  0  0
  -25.3088  -16.1397   24.8498 C   0  0  1  0  0  0  0  0  0  0  0  0
  -25.8087  -18.4061   27.8470 C   0  0  2  0  0  0  0  0  0  0  0  0
  -24.5577  -14.7859   24.9933 C   0  0  0  0  0  0  0  0  0  0  0  0
  -26.7578  -27.8523   20.2834 N   0  0  0  0  0  0  0  0  0  0  0  0
  -25.4835  -28.0824   19.9237 N   0  0  0  0  0  0  0  0  0  0  0  0
  -26.6468  -16.7844   22.8704 N   0  0  0  0  0  0  0  0  0  0  0  0
  -23.3866  -30.3578   22.1617 N   0  0  0  0  0  0  0  0  0  0  0  0
  -23.6808  -27.1832   18.6777 N   0  0  0  0  0  0  0  0  0  0  0  0
  -26.9599  -24.1285   18.1187 N   0  0  0  0  0  0  0  0  0  0  0  0
  -21.2208  -29.4265   22.0980 N   0  0  0  0  0  0  0  0  0  0  0  0
  -28.2274  -14.7436   20.4073 N   0  0  0  0  0  0  0  0  0  0  0  0
  -25.6967  -16.7453   26.1191 N   0  0  0  0  0  0  0  0  0  0  0  0
  -26.0662  -19.8732   27.8932 N   0  3  0  0  0  0  0  0  0  0  0  0
  -21.2387  -25.0170   20.7754 N   0  3  0  0  0  0  0  0  0  0  0  0
  -20.0311  -27.4416   20.1400 O   0  0  0  0  0  0  0  0  0  0  0  0
  -24.7969  -24.6594   17.5725 O   0  0  0  0  0  0  0  0  0  0  0  0
  -26.0799  -15.6320   20.5548 O   0  0  0  0  0  0  0  0  0  0  0  0
  -27.4712  -15.2598   24.4300 O   0  0  0  0  0  0  0  0  0  0  0  0
  -24.5534  -18.7389   25.8097 O   0  0  0  0  0  0  0  0  0  0  0  0
  -21.5460  -31.6330   22.7361 O   0  0  0  0  0  0  0  0  0  0  0  0
  -32.0908  -24.3727   20.2749 O   0  0  0  0  0  0  0  0  0  0  0  0
  -24.2724  -21.4128   19.5548 O   0  0  0  0  0  0  0  0  0  1  0  0
  -32.3308  -18.9737   21.3693 F   0  0  0  0  0  0  0  0  0  0  0  0
  -31.0148  -22.5218   18.5259 F   0  0  0  0  0  0  0  0  0  0  0  0
  1  4  1  0  0  0  0
  1  7  2  0  0  0  0
  2  3  1  0  0  0  0
  2  8  2  0  0  0  0
  3  9  2  0  0  0  0
  4 11  2  0  0  0  0
  5 12  2  0  0  0  0
  5 19  1  0  0  0  0
  6 13  1  0  0  0  0
  6 19  2  0  0  0  0
  7 20  1  0  0  0  0
  8 22  1  0  0  0  0
  9 24  1  0  0  0  0
 10 14  2  0  0  0  0
 10 23  1  0  0  0  0
 11 26  1  0  0  0  0
 12 27  1  0  0  0  0
 13 27  2  0  0  0  0
 14 28  1  0  0  0  0
 15 16  2  0  0  0  0
 15 29  1  0  0  0  0
 16 30  1  0  0  0  0
 17 25  1  0  0  0  0
 17 28  2  0  0  0  0
 18 30  2  0  0  0  0
 18 31  1  0  0  0  0
 19 32  1  0  0  0  0
 20 26  2  0  0  0  0
 20 34  1  0  0  0  0
 21 32  1  0  0  0  0
 21 33  2  0  0  0  0
 21 35  1  0  0  0  0
 22 24  2  0  0  0  0
 22 40  1  0  0  0  0
 23 25  2  0  0  0  0
 23 41  1  0  0  0  0
 24 49  1  0  0  0  0
 25 42  1  0  0  0  0
 26 70  1  0  0  0  0
 27 81  1  0  0  0  0
 28 82  1  0  0  0  0
 29 31  2  0  0  0  0
 29 81  1  0  0  0  0
 30 83  1  0  0  0  0
 31 84  1  0  0  0  0
 32 64  2  0  0  0  0
 33 65  1  0  0  0  0
 33 68  1  0  0  0  0
 34 57  1  0  0  0  0
 34 75  2  0  0  0  0
 35 69  1  0  0  0  0
 35 76  2  0  0  0  0
 36 50  1  0  0  0  0
 36 71  1  0  0  0  0
 36 77  2  0  0  0  0
 37 61  1  0  0  0  0
 37 66  1  0  0  0  0
 37 78  2  0  0  0  0
 38 62  1  0  0  0  0
 38 72  1  0  0  0  0
 38 79  2  0  0  0  0
 39 67  1  0  0  0  0
 39 70  1  0  0  0  0
 39 80  2  0  0  0  0
 40 43  1  0  0  0  0
 41 50  1  0  0  0  0
 42 66  1  0  0  0  0
 43 45  1  0  0  0  0
 44 46  1  0  0  0  0
 44 47  1  0  0  0  0
 45 49  1  0  0  0  0
 46 51  1  0  0  0  0
 47 67  1  0  0  0  0
 48 51  1  0  0  0  0
 48 67  1  0  0  0  0
 49 71  1  0  0  0  0
 50 66  1  0  0  0  0
 51 65  1  0  0  0  0
 52 62  1  0  0  0  0
 53 63  1  0  0  0  0
 54 63  1  0  0  0  0
 55 63  1  0  0  0  0
 56 73  1  0  0  0  0
 57 74  1  0  0  0  0
 58 59  1  0  0  0  0
 58 60  1  0  0  0  0
 59 74  1  0  0  0  0
 60 82  1  0  0  0  0
 61 63  1  0  0  0  0
 61 72  1  0  0  0  0
 62 73  1  0  0  0  0
 64 65  1  0  0  0  0
M  CHG  2  73   1  74   1
M  ISO  4  39 100  60 101  70 100  82 101
M  END
> <Batch ID>
0027

> <Smiles>
CNC(C)C(=O)NC(C(=O)N1Cc2cc([101O:1][101CH2:1]CCNCC(=O)c3ccccc3[100NH:0][100C:0](=O)N3CCCC(n4nc(-c5ccc(Oc6ccc(F)cc6F)cc5)c(C(N)=O)c4N)C3)ccc2CC1C(=O)NC1CCCc2ccccc21)C(C)(C)C

> <Shape>
0.229

> <Color>
0.069

> <Negative vol penalty>
0.000

$$$$

  -OEChem-04042321283D

 84 93  0     1  0  0  0  0  0999 V2000
  -24.8609  -35.4200   22.0240 C   0  0  0  0  0  0  0  0  0  0  0  0
  -25.6111  -34.2496   21.9722 C   0  0  0  0  0  0  0  0  0  0  0  0
  -23.4046  -12.6705   23.7128 C   0  0  0  0  0  0  0  0  0  0  0  0
  -25.1082  -10.9672   23.8956 C   0  0  0  0  0  0  0  0  0  0  0  0
  -23.5655  -35.3942   22.5391 C   0  0  0  0  0  0  0  0  0  0  0  0
  -25.0666  -33.0527   22.4365 C   0  0  0  0  0  0  0  0  0  0  0  0
  -25.9389  -29.1750   19.2984 C   0  0  0  0  0  0  0  0  0  0  0  0
  -28.3278  -20.3523   20.7810 C   0  0  0  0  0  0  0  0  0  0  0  0
  -30.6877  -19.9885   20.4129 C   0  0  0  0  0  0  0  0  0  0  0  0
  -28.0682  -19.0289   20.4247 C   0  0  0  0  0  0  0  0  0  0  0  0
  -30.4281  -18.6651   20.0566 C   0  0  0  0  0  0  0  0  0  0  0  0
  -23.0144  -12.4215   25.0286 C   0  0  0  0  0  0  0  0  0  0  0  0
  -24.7180  -10.7181   25.2114 C   0  0  0  0  0  0  0  0  0  0  0  0
  -27.2093  -28.6019   19.3323 C   0  0  0  0  0  0  0  0  0  0  0  0
  -22.2453   -9.0502   26.8035 C   0  0  0  0  0  0  0  0  0  0  0  0
  -22.1091   -7.7193   27.1982 C   0  0  0  0  0  0  0  0  0  0  0  0
  -26.3593  -26.8140   20.7108 C   0  0  0  0  0  0  0  0  0  0  0  0
  -23.7967   -8.0499   28.8952 C   0  0  0  0  0  0  0  0  0  0  0  0
  -24.4515  -11.9433   23.1463 C   0  0  0  0  0  0  0  0  0  0  0  0
  -24.0637  -12.0794   20.6286 C   0  0  0  0  0  0  0  0  0  0  0  0
  -23.0014  -34.1946   23.0010 C   0  0  0  0  0  0  0  0  0  0  0  0
  -24.8697  -28.5768   19.9807 C   0  0  0  0  0  0  0  0  0  0  0  0
  -23.7630  -33.0111   22.9595 C   0  0  0  0  0  0  0  0  0  0  0  0
  -25.0757  -27.3802   20.6819 C   0  0  0  0  0  0  0  0  0  0  0  0
  -29.6376  -20.8321   20.7751 C   0  0  0  0  0  0  0  0  0  0  0  0
  -29.1183  -18.1853   20.0626 C   0  0  0  0  0  0  0  0  0  0  0  0
  -23.6711  -11.4453   25.7779 C   0  0  0  0  0  0  0  0  0  0  0  0
  -27.4204  -27.4227   20.0410 C   0  0  0  0  0  0  0  0  0  0  0  0
  -23.1572   -9.8809   27.4545 C   0  0  0  0  0  0  0  0  0  0  0  0
  -22.8847   -7.2192   28.2440 C   0  0  0  0  0  0  0  0  0  0  0  0
  -23.9329   -9.3808   28.5004 C   0  0  0  0  0  0  0  0  0  0  0  0
  -24.8546  -12.1997   21.7870 C   0  0  0  0  0  0  0  0  0  0  0  0
  -24.9037  -12.4332   19.6011 C   0  0  0  0  0  0  0  0  0  0  0  0
  -22.6924  -11.6833   20.4935 C   0  0  0  0  0  0  0  0  0  0  0  0
  -22.9534  -29.4562   22.3593 C   0  0  0  0  0  0  0  0  0  0  0  0
  -21.4453  -26.6720   21.6549 C   0  0  0  0  0  0  0  0  0  0  0  0
  -22.4046  -23.3001   20.8023 C   0  0  0  0  0  0  0  0  0  0  0  0
  -29.7817  -15.8725   19.3162 C   0  0  0  0  0  0  0  0  0  0  0  0
  -21.6146  -34.2252   23.5929 C   0  0  0  0  0  0  0  0  0  0  0  0
  -23.4994  -29.1933   19.9121 C   0  0  0  0  0  0  0  0  0  0  0  0
  -23.9567  -26.6874   21.4142 C   0  0  0  0  0  0  0  0  0  0  0  0
  -20.9753  -32.8447   23.7184 C   0  0  0  0  0  0  0  0  0  0  0  0
  -29.5359  -12.4445   18.3859 C   0  0  0  0  0  0  0  0  0  0  0  0
  -30.0510  -24.1801   17.8557 C   0  0  0  0  0  0  0  0  0  0  0  0
  -21.9627  -31.8522   24.3240 C   0  0  0  0  0  0  0  0  0  0  0  0
  -28.2324  -11.9833   19.0420 C   0  0  0  0  0  0  0  0  0  0  0  0
  -29.7550  -25.5800   18.3775 C   0  0  0  0  0  0  0  0  0  0  0  0
  -30.2911  -13.4409   19.2637 C   0  0  0  0  0  0  0  0  0  0  0  0
  -28.2001  -14.1364   20.3650 C   0  0  0  0  0  0  0  0  0  0  0  0
  -30.5430  -23.2595   18.9634 C   0  0  0  0  0  0  0  0  0  0  0  0
  -29.2826  -24.6124   20.6578 C   0  0  0  0  0  0  0  0  0  0  0  0
  -23.1983  -31.6885   23.4307 C   0  0  1  0  0  0  0  0  0  0  0  0
  -22.5972  -28.7742   21.0687 C   0  0  1  0  0  0  0  0  0  0  0  0
  -27.3722  -13.1814   19.4896 C   0  0  2  0  0  0  0  0  0  0  0  0
  -28.7884  -25.5417   19.5570 C   0  0  1  0  0  0  0  0  0  1  0  0
  -21.1971  -21.5468   19.4737 C   0  0  0  0  0  0  0  0  0  0  0  0
  -20.4311  -25.7246   24.3722 C   0  0  0  0  0  0  0  0  0  0  0  0
  -20.6710  -23.3678   23.5620 C   0  0  0  0  0  0  0  0  0  0  0  0
  -19.0891  -24.9224   22.4202 C   0  0  0  0  0  0  0  0  0  0  0  0
  -24.6888  -22.9646   18.9505 C   0  0  0  0  0  0  0  0  0  0  0  0
  -29.9167  -22.2555   21.1582 C   0  0  0  0  0  0  0  0  0  0  0  0
  -21.5783  -25.2390   22.1107 C   0  0  1  0  0  0  0  0  0  0  0  0
  -22.2639  -22.6303   19.4473 C   0  0  2  0  0  0  0  0  0  0  0  0
  -20.4647  -24.8312   23.1161 C   0  0  0  0  0  0  0  0  0  0  0  0
  -26.1013  -12.5986   21.5210 N   0  0  0  0  0  0  0  0  0  0  0  0
  -26.1001  -12.7320   20.1837 N   0  0  0  0  0  0  0  0  0  0  0  0
  -22.6365  -27.3326   21.3226 N   0  0  0  0  0  0  0  0  0  0  0  0
  -29.4147  -14.5505   19.6453 N   0  0  0  0  0  0  0  0  0  0  0  0
  -24.7282  -12.5147   18.2651 N   0  0  0  0  0  0  0  0  0  0  0  0
  -21.9751  -11.3532   21.6515 N   0  0  0  0  0  0  0  0  0  0  0  0
  -28.8549  -16.8409   19.7009 N   0  0  0  0  0  0  0  0  0  0  0  0
  -22.8960  -30.8356   22.3012 N   0  0  0  0  0  0  0  0  0  0  0  0
  -21.6162  -24.4271   20.8992 N   0  0  0  0  0  0  0  0  0  0  0  0
  -29.5345  -23.2398   20.0874 N   0  3  2  0  0  0  0  0  0  0  0  0
  -23.5555  -22.0083   19.0403 N   0  3  0  0  0  0  0  0  0  0  0  0
  -22.1248  -11.6081   19.3774 O   0  0  0  0  0  0  0  0  0  0  0  0
  -23.2564  -28.7809   23.3360 O   0  0  0  0  0  0  0  0  0  0  0  0
  -20.3250  -27.1841   21.5890 O   0  0  0  0  0  0  0  0  0  0  0  0
  -23.1376  -22.8648   21.6876 O   0  0  0  0  0  0  0  0  0  0  0  0
  -30.8272  -16.1244   18.7116 O   0  0  0  0  0  0  0  0  0  0  0  0
  -23.2907  -11.2022   27.0620 O   0  0  0  0  0  0  0  0  0  0  0  0
  -28.6596  -26.8615   20.0762 O   0  0  0  0  0  0  0  0  0  1  0  0
  -22.7527   -5.9415   28.6240 F   0  0  0  0  0  0  0  0  0  0  0  0
  -24.8099  -10.1744   29.1304 F   0  0  0  0  0  0  0  0  0  0  0  0
  1  2  1  0  0  0  0
  1  5  2  0  0  0  0
  2  6  2  0  0  0  0
  3 12  2  0  0  0  0
  3 19  1  0  0  0  0
  4 13  1  0  0  0  0
  4 19  2  0  0  0  0
  5 21  1  0  0  0  0
  6 23  1  0  0  0  0
  7 14  2  0  0  0  0
  7 22  1  0  0  0  0
  8 10  2  0  0  0  0
  8 25  1  0  0  0  0
  9 11  1  0  0  0  0
  9 25  2  0  0  0  0
 10 26  1  0  0  0  0
 11 26  2  0  0  0  0
 12 27  1  0  0  0  0
 13 27  2  0  0  0  0
 14 28  1  0  0  0  0
 15 16  2  0  0  0  0
 15 29  1  0  0  0  0
 16 30  1  0  0  0  0
 17 24  1  0  0  0  0
 17 28  2  0  0  0  0
 18 30  2  0  0  0  0
 18 31  1  0  0  0  0
 19 32  1  0  0  0  0
 20 32  1  0  0  0  0
 20 33  2  0  0  0  0
 20 34  1  0  0  0  0
 21 23  2  0  0  0  0
 21 39  1  0  0  0  0
 22 24  2  0  0  0  0
 22 40  1  0  0  0  0
 23 52  1  0  0  0  0
 24 41  1  0  0  0  0
 25 61  1  0  0  0  0
 26 71  1  0  0  0  0
 27 81  1  0  0  0  0
 28 82  1  0  0  0  0
 29 31  2  0  0  0  0
 29 81  1  0  0  0  0
 30 83  1  0  0  0  0
 31 84  1  0  0  0  0
 32 65  2  0  0  0  0
 33 66  1  0  0  0  0
 33 69  1  0  0  0  0
 34 70  1  0  0  0  0
 34 76  2  0  0  0  0
 35 53  1  0  0  0  0
 35 72  1  0  0  0  0
 35 77  2  0  0  0  0
 36 62  1  0  0  0  0
 36 67  1  0  0  0  0
 36 78  2  0  0  0  0
 37 63  1  0  0  0  0
 37 73  1  0  0  0  0
 37 79  2  0  0  0  0
 38 68  1  0  0  0  0
 38 71  1  0  0  0  0
 38 80  2  0  0  0  0
 39 42  1  0  0  0  0
 40 53  1  0  0  0  0
 41 67  1  0  0  0  0
 42 45  1  0  0  0  0
 43 46  1  0  0  0  0
 43 48  1  0  0  0  0
 44 47  1  0  0  0  0
 44 50  1  0  0  0  0
 45 52  1  0  0  0  0
 46 54  1  0  0  0  0
 47 55  1  0  0  0  0
 48 68  1  0  0  0  0
 49 54  1  0  0  0  0
 49 68  1  0  0  0  0
 50 74  1  0  0  0  0
 51 55  1  0  0  0  0
 51 74  1  0  0  0  0
 52 72  1  0  0  0  0
 53 67  1  0  0  0  0
 54 66  1  0  0  0  0
 55 82  1  0  0  0  0
 56 63  1  0  0  0  0
 57 64  1  0  0  0  0
 58 64  1  0  0  0  0
 59 64  1  0  0  0  0
 60 75  1  0  0  0  0
 61 74  1  0  0  0  0
 62 64  1  0  0  0  0
 62 73  1  0  0  0  0
 63 75  1  0  0  0  0
 65 66  1  0  0  0  0
M  CHG  2  74   1  75   1
M  ISO  4  38 100  55 101  71 100  82 101
M  END
> <Batch ID>
0027

> <Smiles>
CNC(C)C(=O)NC(C(=O)N1Cc2cc([101O:1][101CH:1]3CCCN(Cc4ccc([100NH:0][100C:0](=O)N5CCCC(n6nc(-c7ccc(Oc8ccc(F)cc8F)cc7)c(C(N)=O)c6N)C5)cc4)C3)ccc2CC1C(=O)NC1CCCc2ccccc21)C(C)(C)C

> <Shape>
0.253

> <Color>
0.091

> <Negative vol penalty>
0.000

$$$$

  -OEChem-04042321283D

 84 93  0     1  0  0  0  0  0999 V2000
  -29.5408  -32.2892   26.0225 C   0  0  0  0  0  0  0  0  0  0  0  0
  -29.1988  -31.0966   25.3931 C   0  0  0  0  0  0  0  0  0  0  0  0
  -23.4076   -9.8417   19.8181 C   0  0  0  0  0  0  0  0  0  0  0  0
  -24.4757   -9.6556   21.9771 C   0  0  0  0  0  0  0  0  0  0  0  0
  -28.5544  -33.2308   26.3126 C   0  0  0  0  0  0  0  0  0  0  0  0
  -27.8699  -30.8444   25.0543 C   0  0  0  0  0  0  0  0  0  0  0  0
  -27.3803  -28.9618   20.3788 C   0  0  0  0  0  0  0  0  0  0  0  0
  -29.4749  -20.5197   21.3533 C   0  0  0  0  0  0  0  0  0  0  0  0
  -29.6000  -19.1511   21.1145 C   0  0  0  0  0  0  0  0  0  0  0  0
  -22.9775   -8.5185   19.9168 C   0  0  0  0  0  0  0  0  0  0  0  0
  -24.0455   -8.3324   22.0759 C   0  0  0  0  0  0  0  0  0  0  0  0
  -27.6741  -27.6103   20.2026 C   0  0  0  0  0  0  0  0  0  0  0  0
  -21.1925   -6.6936   22.8473 C   0  0  0  0  0  0  0  0  0  0  0  0
  -20.6426   -6.2814   24.0611 C   0  0  0  0  0  0  0  0  0  0  0  0
  -25.3176  -27.0972   20.2568 C   0  0  0  0  0  0  0  0  0  0  0  0
  -22.3701   -4.6060   24.2749 C   0  0  0  0  0  0  0  0  0  0  0  0
  -24.1568  -10.4103   20.8482 C   0  0  0  0  0  0  0  0  0  0  0  0
  -23.9195  -12.9280   21.1836 C   0  0  0  0  0  0  0  0  0  0  0  0
  -27.2141  -32.9943   25.9686 C   0  0  0  0  0  0  0  0  0  0  0  0
  -26.0513  -29.3905   20.5065 C   0  0  0  0  0  0  0  0  0  0  0  0
  -26.8643  -31.7832   25.3413 C   0  0  0  0  0  0  0  0  0  0  0  0
  -25.0095  -28.4550   20.4320 C   0  0  0  0  0  0  0  0  0  0  0  0
  -28.7332  -20.9724   22.4445 C   0  0  0  0  0  0  0  0  0  0  0  0
  -28.1164  -20.0565   23.2967 C   0  0  0  0  0  0  0  0  0  0  0  0
  -28.2413  -18.6879   23.0579 C   0  0  0  0  0  0  0  0  0  0  0  0
  -28.9832  -18.2352   21.9668 C   0  0  0  0  0  0  0  0  0  0  0  0
  -23.2964   -7.7639   21.0457 C   0  0  0  0  0  0  0  0  0  0  0  0
  -26.6428  -26.6775   20.1445 C   0  0  0  0  0  0  0  0  0  0  0  0
  -22.3313   -6.0619   22.3473 C   0  0  0  0  0  0  0  0  0  0  0  0
  -21.2313   -5.2377   24.7749 C   0  0  0  0  0  0  0  0  0  0  0  0
  -22.9201   -5.0182   23.0611 C   0  0  0  0  0  0  0  0  0  0  0  0
  -24.6019  -11.7769   20.7465 C   0  0  0  0  0  0  0  0  0  0  0  0
  -24.7569  -13.9673   20.8598 C   0  0  0  0  0  0  0  0  0  0  0  0
  -22.6427  -13.0471   21.8250 C   0  0  0  0  0  0  0  0  0  0  0  0
  -24.3718  -30.8438   22.7805 C   0  0  0  0  0  0  0  0  0  0  0  0
  -22.0641  -30.8939   20.5015 C   0  0  0  0  0  0  0  0  0  0  0  0
  -20.7791  -29.5304   17.6490 C   0  0  0  0  0  0  0  0  0  0  0  0
  -29.8296  -16.2546   20.6602 C   0  0  0  0  0  0  0  0  0  0  0  0
  -26.1758  -34.0214   26.3450 C   0  0  0  0  0  0  0  0  0  0  0  0
  -25.7497  -30.8551   20.6693 C   0  0  0  0  0  0  0  0  0  0  0  0
  -23.5649  -28.8663   20.5434 C   0  0  0  0  0  0  0  0  0  0  0  0
  -24.8471  -33.8400   25.6158 C   0  0  0  0  0  0  0  0  0  0  0  0
  -28.9322  -14.0650   17.9998 C   0  0  0  0  0  0  0  0  0  0  0  0
  -24.4152  -32.3774   25.6490 C   0  0  0  0  0  0  0  0  0  0  0  0
  -27.6695  -13.3692   18.5132 C   0  0  0  0  0  0  0  0  0  0  0  0
  -29.9417  -14.3074   19.1205 C   0  0  0  0  0  0  0  0  0  0  0  0
  -28.1465  -14.3152   20.8077 C   0  0  0  0  0  0  0  0  0  0  0  0
  -27.2767  -24.4656   22.3139 C   0  0  0  0  0  0  0  0  0  0  0  0
  -27.0880  -22.9930   20.8448 C   0  0  0  0  0  0  0  0  0  0  0  0
  -25.4374  -31.4840   24.9359 C   0  0  1  0  0  0  0  0  0  0  0  0
  -24.3871  -31.1177   21.3032 C   0  0  1  0  0  0  0  0  0  0  0  0
  -27.0727  -14.1083   19.7270 C   0  0  2  0  0  0  0  0  0  0  0  0
  -26.5162  -24.4154   20.9769 C   0  0  0  0  0  0  0  0  0  1  0  0
  -27.3215  -20.5450   24.4662 C   0  0  0  0  0  0  0  0  0  0  0  0
  -27.5786  -17.7068   23.9738 C   0  0  0  0  0  0  0  0  0  0  0  0
  -18.8635  -29.7617   16.0446 C   0  0  0  0  0  0  0  0  0  0  0  0
  -20.2104  -29.5625   22.5266 C   0  0  0  0  0  0  0  0  0  0  0  0
  -18.6841  -28.9670   20.6334 C   0  0  0  0  0  0  0  0  0  0  0  0
  -19.1406  -31.3624   21.1589 C   0  0  0  0  0  0  0  0  0  0  0  0
  -22.5946  -30.1043   15.3832 C   0  0  0  0  0  0  0  0  0  0  0  0
  -28.6148  -22.4496   22.6784 C   0  0  0  0  0  0  0  0  0  0  0  0
  -20.9515  -29.9620   20.0859 C   0  0  1  0  0  0  0  0  0  0  0  0
  -20.2957  -30.1659   16.3579 C   0  0  2  0  0  0  0  0  0  0  0  0
  -19.7739  -29.9552   21.1010 C   0  0  0  0  0  0  0  0  0  0  0  0
  -25.7820  -12.0581   20.1876 N   0  0  0  0  0  0  0  0  0  0  0  0
  -25.8475  -13.3978   20.2711 N   0  0  0  0  0  0  0  0  0  0  0  0
  -23.3214  -30.3089   20.7079 N   0  0  0  0  0  0  0  0  0  0  0  0
  -29.3067  -15.0153   20.2343 N   0  0  0  0  0  0  0  0  0  0  0  0
  -24.6595  -15.3037   21.0240 N   0  0  0  0  0  0  0  0  0  0  0  0
  -21.9136  -11.8785   22.0841 N   0  0  0  0  0  0  0  0  0  0  0  0
  -29.1236  -16.8497   21.7052 N   0  0  0  0  0  0  0  0  0  0  0  0
  -25.2860  -31.5891   23.5004 N   0  0  0  0  0  0  0  0  0  0  0  0
  -20.5724  -30.3565   18.7335 N   0  0  0  0  0  0  0  0  0  0  0  0
  -27.2896  -22.9911   22.3056 N   0  3  0  0  0  0  0  0  0  0  0  0
  -21.1616  -29.7484   15.2191 N   0  3  0  0  0  0  0  0  0  0  0  0
  -22.1553  -14.1581   22.1436 O   0  0  0  0  0  0  0  0  0  0  0  0
  -23.5876  -30.0184   23.2339 O   0  0  0  0  0  0  0  0  0  0  0  0
  -21.8279  -32.0977   20.6310 O   0  0  0  0  0  0  0  0  0  0  0  0
  -21.2858  -28.4115   17.6917 O   0  0  0  0  0  0  0  0  0  0  0  0
  -30.8138  -16.7644   20.1185 O   0  0  0  0  0  0  0  0  0  0  0  0
  -22.8766   -6.4728   21.1425 O   0  0  0  0  0  0  0  0  0  0  0  0
  -26.9268  -25.3577   19.9732 O   0  0  0  0  0  0  0  0  0  1  0  0
  -20.7040   -4.8430   25.9412 F   0  0  0  0  0  0  0  0  0  0  0  0
  -24.0149   -4.4083   22.5864 F   0  0  0  0  0  0  0  0  0  0  0  0
  1  2  1  0  0  0  0
  1  5  2  0  0  0  0
  2  6  2  0  0  0  0
  3 10  2  0  0  0  0
  3 17  1  0  0  0  0
  4 11  1  0  0  0  0
  4 17  2  0  0  0  0
  5 19  1  0  0  0  0
  6 21  1  0  0  0  0
  7 12  2  0  0  0  0
  7 20  1  0  0  0  0
  8  9  2  0  0  0  0
  8 23  1  0  0  0  0
  9 26  1  0  0  0  0
 10 27  1  0  0  0  0
 11 27  2  0  0  0  0
 12 28  1  0  0  0  0
 13 14  2  0  0  0  0
 13 29  1  0  0  0  0
 14 30  1  0  0  0  0
 15 22  1  0  0  0  0
 15 28  2  0  0  0  0
 16 30  2  0  0  0  0
 16 31  1  0  0  0  0
 17 32  1  0  0  0  0
 18 32  1  0  0  0  0
 18 33  2  0  0  0  0
 18 34  1  0  0  0  0
 19 21  2  0  0  0  0
 19 39  1  0  0  0  0
 20 22  2  0  0  0  0
 20 40  1  0  0  0  0
 21 50  1  0  0  0  0
 22 41  1  0  0  0  0
 23 24  2  0  0  0  0
 23 61  1  0  0  0  0
 24 25  1  0  0  0  0
 24 54  1  0  0  0  0
 25 26  2  0  0  0  0
 25 55  1  0  0  0  0
 26 71  1  0  0  0  0
 27 81  1  0  0  0  0
 28 82  1  0  0  0  0
 29 31  2  0  0  0  0
 29 81  1  0  0  0  0
 30 83  1  0  0  0  0
 31 84  1  0  0  0  0
 32 65  2  0  0  0  0
 33 66  1  0  0  0  0
 33 69  1  0  0  0  0
 34 70  1  0  0  0  0
 34 76  2  0  0  0  0
 35 51  1  0  0  0  0
 35 72  1  0  0  0  0
 35 77  2  0  0  0  0
 36 62  1  0  0  0  0
 36 67  1  0  0  0  0
 36 78  2  0  0  0  0
 37 63  1  0  0  0  0
 37 73  1  0  0  0  0
 37 79  2  0  0  0  0
 38 68  1  0  0  0  0
 38 71  1  0  0  0  0
 38 80  2  0  0  0  0
 39 42  1  0  0  0  0
 40 51  1  0  0  0  0
 41 67  1  0  0  0  0
 42 44  1  0  0  0  0
 43 45  1  0  0  0  0
 43 46  1  0  0  0  0
 44 50  1  0  0  0  0
 45 52  1  0  0  0  0
 46 68  1  0  0  0  0
 47 52  1  0  0  0  0
 47 68  1  0  0  0  0
 48 53  1  0  0  0  0
 48 74  1  0  0  0  0
 49 53  1  0  0  0  0
 49 74  1  0  0  0  0
 50 72  1  0  0  0  0
 51 67  1  0  0  0  0
 52 66  1  0  0  0  0
 53 82  1  0  0  0  0
 56 63  1  0  0  0  0
 57 64  1  0  0  0  0
 58 64  1  0  0  0  0
 59 64  1  0  0  0  0
 60 75  1  0  0  0  0
 61 74  1  0  0  0  0
 62 64  1  0  0  0  0
 62 73  1  0  0  0  0
 63 75  1  0  0  0  0
 65 66  1  0  0  0  0
M  CHG  2  74   1  75   1
M  ISO  4  38 100  53 101  71 100  82 101
M  END
> <Batch ID>
0027

> <Smiles>
CNC(C)C(=O)NC(C(=O)N1Cc2cc([101O:1][101CH:1]3CN(Cc4ccc([100NH:0][100C:0](=O)N5CCCC(n6nc(-c7ccc(Oc8ccc(F)cc8F)cc7)c(C(N)=O)c6N)C5)c(C)c4C)C3)ccc2CC1C(=O)NC1CCCc2ccccc21)C(C)(C)C

> <Shape>
0.330

> <Color>
0.138

> <Negative vol penalty>
0.000

$$$$

  -OEChem-04042321283D

 84 93  0     1  0  0  0  0  0999 V2000
  -28.0787  -25.1874   25.5596 C   0  0  0  0  0  0  0  0  0  0  0  0
  -26.9131  -24.9144   24.8510 C   0  0  0  0  0  0  0  0  0  0  0  0
  -29.5175  -28.5789   20.1467 C   0  0  0  0  0  0  0  0  0  0  0  0
  -27.8647  -27.1709   19.0871 C   0  0  0  0  0  0  0  0  0  0  0  0
  -29.2430  -24.4706   25.2868 C   0  0  0  0  0  0  0  0  0  0  0  0
  -26.9114  -23.9250   23.8684 C   0  0  0  0  0  0  0  0  0  0  0  0
  -22.8504  -20.9128   24.1515 C   0  0  0  0  0  0  0  0  0  0  0  0
  -18.5949  -26.9578   23.7207 C   0  0  0  0  0  0  0  0  0  0  0  0
  -19.5994  -27.9236   23.6594 C   0  0  0  0  0  0  0  0  0  0  0  0
  -30.4583  -27.5547   20.0403 C   0  0  0  0  0  0  0  0  0  0  0  0
  -28.8055  -26.1466   18.9807 C   0  0  0  0  0  0  0  0  0  0  0  0
  -21.6517  -21.4105   23.6422 C   0  0  0  0  0  0  0  0  0  0  0  0
  -31.4116  -25.3586   16.9788 C   0  0  0  0  0  0  0  0  0  0  0  0
  -31.4931  -24.6792   15.7633 C   0  0  0  0  0  0  0  0  0  0  0  0
  -21.9919  -20.1422   21.6186 C   0  0  0  0  0  0  0  0  0  0  0  0
  -20.0581  -27.3012   21.3704 C   0  0  0  0  0  0  0  0  0  0  0  0
  -30.9540  -22.6083   16.8848 C   0  0  0  0  0  0  0  0  0  0  0  0
  -28.2206  -28.3870   19.6702 C   0  0  0  0  0  0  0  0  0  0  0  0
  -26.9858  -30.4594   18.8406 C   0  0  0  0  0  0  0  0  0  0  0  0
  -29.2531  -23.4652   24.3071 C   0  0  0  0  0  0  0  0  0  0  0  0
  -23.6355  -20.0331   23.3924 C   0  0  0  0  0  0  0  0  0  0  0  0
  -28.0773  -23.1949   23.5814 C   0  0  0  0  0  0  0  0  0  0  0  0
  -23.1988  -19.6328   22.1215 C   0  0  0  0  0  0  0  0  0  0  0  0
  -18.3220  -26.1636   22.6069 C   0  0  0  0  0  0  0  0  0  0  0  0
  -19.0536  -26.3353   21.4318 C   0  0  0  0  0  0  0  0  0  0  0  0
  -20.3310  -28.0953   22.4842 C   0  0  0  0  0  0  0  0  0  0  0  0
  -30.1023  -26.3385   19.4573 C   0  0  0  0  0  0  0  0  0  0  0  0
  -21.2238  -21.0275   22.3744 C   0  0  0  0  0  0  0  0  0  0  0  0
  -31.1014  -24.6628   18.1473 C   0  0  0  0  0  0  0  0  0  0  0  0
  -31.2642  -23.3041   15.7163 C   0  0  0  0  0  0  0  0  0  0  0  0
  -30.8726  -23.2877   18.1003 C   0  0  0  0  0  0  0  0  0  0  0  0
  -27.2482  -29.4445   19.7803 C   0  0  0  0  0  0  0  0  0  0  0  0
  -25.9834  -31.2050   19.4114 C   0  0  0  0  0  0  0  0  0  0  0  0
  -18.7223  -22.9441   20.3107 C   0  0  0  0  0  0  0  0  0  0  0  0
  -27.5937  -30.7059   17.5657 C   0  0  0  0  0  0  0  0  0  0  0  0
  -26.5727  -20.1245   22.1807 C   0  0  0  0  0  0  0  0  0  0  0  0
  -25.9202  -17.0480   21.3857 C   0  0  0  0  0  0  0  0  0  0  0  0
  -23.5714  -14.6635   20.7198 C   0  0  0  0  0  0  0  0  0  0  0  0
  -21.7468  -29.9500   23.4339 C   0  0  0  0  0  0  0  0  0  0  0  0
  -30.5480  -22.7495   24.0147 C   0  0  0  0  0  0  0  0  0  0  0  0
  -24.9127  -19.4843   23.9669 C   0  0  0  0  0  0  0  0  0  0  0  0
  -23.9950  -18.6749   21.2748 C   0  0  0  0  0  0  0  0  0  0  0  0
  -30.3650  -21.4601   23.2183 C   0  0  0  0  0  0  0  0  0  0  0  0
  -24.2358  -32.4839   23.6827 C   0  0  0  0  0  0  0  0  0  0  0  0
  -29.4215  -21.6888   22.0417 C   0  0  0  0  0  0  0  0  0  0  0  0
  -25.2638  -32.0877   22.6205 C   0  0  0  0  0  0  0  0  0  0  0  0
  -23.6360  -31.2614   24.3753 C   0  0  0  0  0  0  0  0  0  0  0  0
  -20.6239  -23.7227   20.7379 C   0  0  0  0  0  0  0  0  0  0  0  0
  -24.1040  -29.8523   22.4094 C   0  0  0  0  0  0  0  0  0  0  0  0
  -28.0292  -22.1122   22.5252 C   0  0  1  0  0  0  0  0  0  0  0  0
  -20.0742  -22.2792   20.6480 C   0  0  1  0  0  0  0  0  0  1  0  0
  -25.8872  -18.9968   22.8992 C   0  0  1  0  0  0  0  0  0  0  0  0
  -24.6882  -31.0478   21.6393 C   0  0  2  0  0  0  0  0  0  0  0  0
  -17.2424  -25.1355   22.6968 C   0  0  0  0  0  0  0  0  0  0  0  0
  -23.3433  -12.2521   20.0637 C   0  0  0  0  0  0  0  0  0  0  0  0
  -26.6844  -17.7584   18.5184 C   0  0  0  0  0  0  0  0  0  0  0  0
  -25.5532  -15.6542   17.7694 C   0  0  0  0  0  0  0  0  0  0  0  0
  -27.5193  -15.5344   19.3000 C   0  0  0  0  0  0  0  0  0  0  0  0
  -22.1098  -14.0046   23.2074 C   0  0  0  0  0  0  0  0  0  0  0  0
  -18.7762  -25.4937   20.2198 C   0  0  0  0  0  0  0  0  0  0  0  0
  -25.3026  -16.3602   20.1922 C   0  0  1  0  0  0  0  0  0  0  0  0
  -23.4128  -13.2386   21.2189 C   0  0  2  0  0  0  0  0  0  0  0  0
  -26.2506  -16.3464   18.9599 C   0  0  0  0  0  0  0  0  0  0  0  0
  -26.4751  -29.5344   20.8657 N   0  0  0  0  0  0  0  0  0  0  0  0
  -25.7170  -30.6147   20.6117 N   0  0  0  0  0  0  0  0  0  0  0  0
  -19.2941  -24.1676   20.3591 N   0  0  0  0  0  0  0  0  0  0  0  0
  -25.2399  -18.1708   21.8779 N   0  0  0  0  0  0  0  0  0  0  0  0
  -23.1068  -30.3224   23.3838 N   0  0  0  0  0  0  0  0  0  0  0  0
  -25.3128  -32.3015   18.9986 N   0  0  0  0  0  0  0  0  0  0  0  0
  -28.6087  -29.8426   17.1313 N   0  0  0  0  0  0  0  0  0  0  0  0
  -21.3501  -29.0777   22.4208 N   0  0  0  0  0  0  0  0  0  0  0  0
  -27.2918  -20.9648   23.0092 N   0  0  0  0  0  0  0  0  0  0  0  0
  -24.8972  -15.0354   20.6492 N   0  0  0  0  0  0  0  0  0  0  0  0
  -22.1658  -13.1077   22.0244 N   0  3  0  0  0  0  0  0  0  0  0  0
  -17.5933  -22.5678   20.0950 O   0  0  0  0  0  0  0  0  0  0  0  0
  -27.2583  -31.6731   16.8407 O   0  0  0  0  0  0  0  0  0  0  0  0
  -26.4590  -20.2239   20.9646 O   0  0  0  0  0  0  0  0  0  0  0  0
  -26.9640  -16.6012   21.8680 O   0  0  0  0  0  0  0  0  0  0  0  0
  -22.6149  -15.3741   20.4188 O   0  0  0  0  0  0  0  0  0  0  0  0
  -20.9834  -30.3951   24.2948 O   0  0  0  0  0  0  0  0  0  0  0  0
  -31.0202  -25.3389   19.3531 O   0  0  0  0  0  0  0  0  0  0  0  0
  -20.0546  -21.5123   21.8747 O   0  0  0  0  0  0  0  0  0  1  0  0
  -31.3409  -22.6521   14.5487 F   0  0  0  0  0  0  0  0  0  0  0  0
  -30.5730  -22.6140   19.2193 F   0  0  0  0  0  0  0  0  0  0  0  0
  1  2  1  0  0  0  0
  1  5  2  0  0  0  0
  2  6  2  0  0  0  0
  3 10  2  0  0  0  0
  3 18  1  0  0  0  0
  4 11  1  0  0  0  0
  4 18  2  0  0  0  0
  5 20  1  0  0  0  0
  6 22  1  0  0  0  0
  7 12  2  0  0  0  0
  7 21  1  0  0  0  0
  8  9  2  0  0  0  0
  8 24  1  0  0  0  0
  9 26  1  0  0  0  0
 10 27  1  0  0  0  0
 11 27  2  0  0  0  0
 12 28  1  0  0  0  0
 13 14  2  0  0  0  0
 13 29  1  0  0  0  0
 14 30  1  0  0  0  0
 15 23  1  0  0  0  0
 15 28  2  0  0  0  0
 16 25  1  0  0  0  0
 16 26  2  0  0  0  0
 17 30  2  0  0  0  0
 17 31  1  0  0  0  0
 18 32  1  0  0  0  0
 19 32  1  0  0  0  0
 19 33  2  0  0  0  0
 19 35  1  0  0  0  0
 20 22  2  0  0  0  0
 20 40  1  0  0  0  0
 21 23  2  0  0  0  0
 21 41  1  0  0  0  0
 22 50  1  0  0  0  0
 23 42  1  0  0  0  0
 24 25  2  0  0  0  0
 24 54  1  0  0  0  0
 25 60  1  0  0  0  0
 26 71  1  0  0  0  0
 27 81  1  0  0  0  0
 28 82  1  0  0  0  0
 29 31  2  0  0  0  0
 29 81  1  0  0  0  0
 30 83  1  0  0  0  0
 31 84  1  0  0  0  0
 32 64  2  0  0  0  0
 33 65  1  0  0  0  0
 33 69  1  0  0  0  0
 34 51  1  0  0  0  0
 34 66  1  0  0  0  0
 34 75  2  0  0  0  0
 35 70  1  0  0  0  0
 35 76  2  0  0  0  0
 36 52  1  0  0  0  0
 36 72  1  0  0  0  0
 36 77  2  0  0  0  0
 37 61  1  0  0  0  0
 37 67  1  0  0  0  0
 37 78  2  0  0  0  0
 38 62  1  0  0  0  0
 38 73  1  0  0  0  0
 38 79  2  0  0  0  0
 39 68  1  0  0  0  0
 39 71  1  0  0  0  0
 39 80  2  0  0  0  0
 40 43  1  0  0  0  0
 41 52  1  0  0  0  0
 42 67  1  0  0  0  0
 43 45  1  0  0  0  0
 44 46  1  0  0  0  0
 44 47  1  0  0  0  0
 45 50  1  0  0  0  0
 46 53  1  0  0  0  0
 47 68  1  0  0  0  0
 48 51  1  0  0  0  0
 48 66  1  0  0  0  0
 49 53  1  0  0  0  0
 49 68  1  0  0  0  0
 50 72  1  0  0  0  0
 51 82  1  0  0  0  0
 52 67  1  0  0  0  0
 53 65  1  0  0  0  0
 55 62  1  0  0  0  0
 56 63  1  0  0  0  0
 57 63  1  0  0  0  0
 58 63  1  0  0  0  0
 59 74  1  0  0  0  0
 60 66  1  0  0  0  0
 61 63  1  0  0  0  0
 61 73  1  0  0  0  0
 62 74  1  0  0  0  0
 64 65  1  0  0  0  0
M  CHG  1  74   1
M  ISO  4  39 100  51 101  71 100  82 101
M  END
> <Batch ID>
0027

> <Smiles>
CNC(C)C(=O)NC(C(=O)N1Cc2cc([101O:1][101CH:1]3CN(Cc4cc([100NH:0][100C:0](=O)N5CCCC(n6nc(-c7ccc(Oc8ccc(F)cc8F)cc7)c(C(N)=O)c6N)C5)ccc4C)C3=O)ccc2CC1C(=O)NC1CCCc2ccccc21)C(C)(C)C

> <Shape>
0.200

> <Color>
0.093

> <Negative vol penalty>
0.000

$$$$

  -OEChem-04042321283D

 88 97  0     1  0  0  0  0  0999 V2000
  -31.2048  -34.4049   19.0909 C   0  0  0  0  0  0  0  0  0  0  0  0
  -31.1354  -33.0368   18.8485 C   0  0  0  0  0  0  0  0  0  0  0  0
  -22.6970  -10.1421   20.1805 C   0  0  0  0  0  0  0  0  0  0  0  0
  -24.2181   -9.5817   21.9720 C   0  0  0  0  0  0  0  0  0  0  0  0
  -30.5310  -34.9536   20.1813 C   0  0  0  0  0  0  0  0  0  0  0  0
  -30.3930  -32.2163   19.6972 C   0  0  0  0  0  0  0  0  0  0  0  0
  -27.1952  -27.2335   18.1314 C   0  0  0  0  0  0  0  0  0  0  0  0
  -21.9537   -8.9935   20.4523 C   0  0  0  0  0  0  0  0  0  0  0  0
  -23.4748   -8.4331   22.2438 C   0  0  0  0  0  0  0  0  0  0  0  0
  -27.4872  -25.8719   18.1992 C   0  0  0  0  0  0  0  0  0  0  0  0
  -20.6002   -7.6478   23.8378 C   0  0  0  0  0  0  0  0  0  0  0  0
  -20.3109   -7.3658   25.1728 C   0  0  0  0  0  0  0  0  0  0  0  0
  -26.3235  -25.7336   20.3078 C   0  0  0  0  0  0  0  0  0  0  0  0
  -29.5088  -19.4051   22.1836 C   0  0  0  0  0  0  0  0  0  0  0  0
  -31.0805  -17.7567   20.5726 C   0  0  0  0  0  0  0  0  0  0  0  0
  -21.4821   -5.2613   24.9820 C   0  0  0  0  0  0  0  0  0  0  0  0
  -23.8293  -10.4362   20.9403 C   0  0  0  0  0  0  0  0  0  0  0  0
  -24.1490  -12.9558   20.7016 C   0  0  0  0  0  0  0  0  0  0  0  0
  -29.7721  -34.1408   21.0381 C   0  0  0  0  0  0  0  0  0  0  0  0
  -26.4733  -27.8586   19.1583 C   0  0  0  0  0  0  0  0  0  0  0  0
  -29.7096  -32.7544   20.8008 C   0  0  0  0  0  0  0  0  0  0  0  0
  -26.0214  -27.1027   20.2493 C   0  0  0  0  0  0  0  0  0  0  0  0
  -30.4484  -19.9660   21.3188 C   0  0  0  0  0  0  0  0  0  0  0  0
  -30.1408  -17.1958   21.4375 C   0  0  0  0  0  0  0  0  0  0  0  0
  -22.3426   -8.1391   21.4840 C   0  0  0  0  0  0  0  0  0  0  0  0
  -27.0538  -25.1223   19.2889 C   0  0  0  0  0  0  0  0  0  0  0  0
  -21.3303   -6.7365   23.0747 C   0  0  0  0  0  0  0  0  0  0  0  0
  -20.7519   -6.1726   25.7449 C   0  0  0  0  0  0  0  0  0  0  0  0
  -29.3549  -18.0200   22.2430 C   0  0  0  0  0  0  0  0  0  0  0  0
  -21.7713   -5.5433   23.6469 C   0  0  0  0  0  0  0  0  0  0  0  0
  -31.2343  -19.1418   20.5132 C   0  0  0  0  0  0  0  0  0  0  0  0
  -24.5979  -11.6222   20.6596 C   0  0  0  0  0  0  0  0  0  0  0  0
  -25.2507  -13.6999   20.3569 C   0  0  0  0  0  0  0  0  0  0  0  0
  -29.9225  -22.2947   20.4857 C   0  0  0  0  0  0  0  0  0  0  0  0
  -22.8520  -13.4754   21.0234 C   0  0  0  0  0  0  0  0  0  0  0  0
  -29.0761  -22.1427   19.4573 C   0  0  0  0  0  0  0  0  0  0  0  0
  -27.0826  -30.1916   21.2295 C   0  0  0  0  0  0  0  0  0  0  0  0
  -23.9509  -29.8103   21.9843 C   0  0  0  0  0  0  0  0  0  0  0  0
  -21.2087  -27.7793   22.0321 C   0  0  0  0  0  0  0  0  0  0  0  0
  -30.6875  -14.8301   20.7662 C   0  0  0  0  0  0  0  0  0  0  0  0
  -29.0998  -34.7725   22.2312 C   0  0  0  0  0  0  0  0  0  0  0  0
  -26.1435  -29.3227   19.0572 C   0  0  0  0  0  0  0  0  0  0  0  0
  -25.2256  -27.7220   21.3680 C   0  0  0  0  0  0  0  0  0  0  0  0
  -30.3657  -23.6803   20.9055 C   0  0  0  0  0  0  0  0  0  0  0  0
  -28.0292  -33.8886   22.8659 C   0  0  0  0  0  0  0  0  0  0  0  0
  -31.0145  -23.4388   22.2663 C   0  0  0  0  0  0  0  0  0  0  0  0
  -29.7297  -12.2772   18.4765 C   0  0  0  0  0  0  0  0  0  0  0  0
  -28.5467  -32.4641   23.0389 C   0  0  0  0  0  0  0  0  0  0  0  0
  -28.2723  -11.9889   18.8438 C   0  0  0  0  0  0  0  0  0  0  0  0
  -31.5365  -22.0043   22.1920 C   0  0  0  0  0  0  0  0  0  0  0  0
  -30.5759  -12.5830   19.7111 C   0  0  0  0  0  0  0  0  0  0  0  0
  -28.5891  -13.3537   20.9471 C   0  0  0  0  0  0  0  0  0  0  0  0
  -28.8944  -31.8351   21.6843 C   0  0  1  0  0  0  0  0  0  0  0  0
  -25.8446  -29.9626   20.4094 C   0  0  1  0  0  0  0  0  0  0  0  0
  -27.6834  -13.1038   19.7302 C   0  0  2  0  0  0  0  0  0  0  0  0
  -27.2812  -20.2735   19.5736 C   0  0  0  0  0  0  0  0  0  0  0  0
  -18.8030  -27.7341   22.7447 C   0  0  0  0  0  0  0  0  0  0  0  0
  -24.8205  -29.4822   24.8906 C   0  0  0  0  0  0  0  0  0  0  0  0
  -22.5641  -28.5160   25.3838 C   0  0  0  0  0  0  0  0  0  0  0  0
  -22.7618  -30.8649   24.5674 C   0  0  0  0  0  0  0  0  0  0  0  0
  -20.2756  -27.3258   19.2603 C   0  0  0  0  0  0  0  0  0  0  0  0
  -28.5666  -20.8078   18.9513 C   0  0  0  0  0  0  0  0  0  0  0  0
  -28.5436  -23.3536   18.7336 C   0  0  0  0  0  0  0  0  0  1  0  0
  -23.1838  -28.9559   22.9644 C   0  0  1  0  0  0  0  0  0  0  0  0
  -19.7712  -28.0177   21.6067 C   0  0  2  0  0  0  0  0  0  0  0  0
  -23.3492  -29.4432   24.4316 C   0  0  0  0  0  0  0  0  0  0  0  0
  -25.8845  -11.5218   20.3153 N   0  0  0  0  0  0  0  0  0  0  0  0
  -26.2535  -12.8018   20.1377 N   0  0  0  0  0  0  0  0  0  0  0  0
  -30.5811  -21.3658   21.2822 N   0  0  0  0  0  0  0  0  0  0  0  0
  -24.9339  -29.1581   21.2265 N   0  0  0  0  0  0  0  0  0  0  0  0
  -29.9589  -13.6515   20.5000 N   0  0  0  0  0  0  0  0  0  0  0  0
  -25.4499  -15.0284   20.2230 N   0  0  0  0  0  0  0  0  0  0  0  0
  -22.5707  -13.7890   22.3601 N   0  0  0  0  0  0  0  0  0  0  0  0
  -29.9865  -15.7885   21.4973 N   0  0  0  0  0  0  0  0  0  0  0  0
  -27.6916  -31.4106   21.0005 N   0  0  0  0  0  0  0  0  0  0  0  0
  -21.8030  -28.9346   22.4938 N   0  0  0  0  0  0  0  0  0  0  0  0
  -19.4178  -27.1361   20.4583 N   0  3  0  0  0  0  0  0  0  0  0  0
  -21.9632  -13.6409   20.1539 O   0  0  0  0  0  0  0  0  0  0  0  0
  -27.4567  -29.3269   22.0131 O   0  0  0  0  0  0  0  0  0  0  0  0
  -23.6829  -31.0106   21.8895 O   0  0  0  0  0  0  0  0  0  0  0  0
  -21.7492  -26.6775   21.9651 O   0  0  0  0  0  0  0  0  0  0  0  0
  -31.8383  -14.9893   20.3510 O   0  0  0  0  0  0  0  0  0  0  0  0
  -21.6173   -7.0183   21.7496 O   0  0  0  0  0  0  0  0  0  0  0  0
  -27.3381  -23.7933   19.3580 O   0  0  0  0  0  0  0  0  0  1  0  0
  -20.4754   -5.9026   27.0274 F   0  0  0  0  0  0  0  0  0  0  0  0
  -28.4500  -17.4922   23.0797 F   0  0  0  0  0  0  0  0  0  0  0  0
  -22.4741   -4.6645   22.9192 F   0  0  0  0  0  0  0  0  0  0  0  0
  -32.4091  -19.7954   19.4282 Cl  0  0  0  0  0  0  0  0  0  0  0  0
  1  2  1  0  0  0  0
  1  5  2  0  0  0  0
  2  6  2  0  0  0  0
  3  8  2  0  0  0  0
  3 17  1  0  0  0  0
  4  9  1  0  0  0  0
  4 17  2  0  0  0  0
  5 19  1  0  0  0  0
  6 21  1  0  0  0  0
  7 10  2  0  0  0  0
  7 20  1  0  0  0  0
  8 25  1  0  0  0  0
  9 25  2  0  0  0  0
 10 26  1  0  0  0  0
 11 12  2  0  0  0  0
 11 27  1  0  0  0  0
 12 28  1  0  0  0  0
 13 22  1  0  0  0  0
 13 26  2  0  0  0  0
 14 23  1  0  0  0  0
 14 29  2  0  0  0  0
 15 24  2  0  0  0  0
 15 31  1  0  0  0  0
 16 28  2  0  0  0  0
 16 30  1  0  0  0  0
 17 32  1  0  0  0  0
 18 32  1  0  0  0  0
 18 33  2  0  0  0  0
 18 35  1  0  0  0  0
 19 21  2  0  0  0  0
 19 41  1  0  0  0  0
 20 22  2  0  0  0  0
 20 42  1  0  0  0  0
 21 53  1  0  0  0  0
 22 43  1  0  0  0  0
 23 31  2  0  0  0  0
 23 69  1  0  0  0  0
 24 29  1  0  0  0  0
 24 74  1  0  0  0  0
 25 83  1  0  0  0  0
 26 84  1  0  0  0  0
 27 30  2  0  0  0  0
 27 83  1  0  0  0  0
 28 85  1  0  0  0  0
 29 86  1  0  0  0  0
 30 87  1  0  0  0  0
 31 88  1  0  0  0  0
 32 67  2  0  0  0  0
 33 68  1  0  0  0  0
 33 72  1  0  0  0  0
 34 36  2  0  0  0  0
 34 44  1  0  0  0  0
 34 69  1  0  0  0  0
 35 73  1  0  0  0  0
 35 78  2  0  0  0  0
 36 62  1  0  0  0  0
 36 63  1  0  0  0  0
 37 54  1  0  0  0  0
 37 75  1  0  0  0  0
 37 79  2  0  0  0  0
 38 64  1  0  0  0  0
 38 70  1  0  0  0  0
 38 80  2  0  0  0  0
 39 65  1  0  0  0  0
 39 76  1  0  0  0  0
 39 81  2  0  0  0  0
 40 71  1  0  0  0  0
 40 74  1  0  0  0  0
 40 82  2  0  0  0  0
 41 45  1  0  0  0  0
 42 54  1  0  0  0  0
 43 70  1  0  0  0  0
 44 46  1  0  0  0  0
 45 48  1  0  0  0  0
 46 50  1  0  0  0  0
 47 49  1  0  0  0  0
 47 51  1  0  0  0  0
 48 53  1  0  0  0  0
 49 55  1  0  0  0  0
 50 69  1  0  0  0  0
 51 71  1  0  0  0  0
 52 55  1  0  0  0  0
 52 71  1  0  0  0  0
 53 75  1  0  0  0  0
 54 70  1  0  0  0  0
 55 68  1  0  0  0  0
 56 62  1  0  0  0  0
 57 65  1  0  0  0  0
 58 66  1  0  0  0  0
 59 66  1  0  0  0  0
 60 66  1  0  0  0  0
 61 77  1  0  0  0  0
 63 84  1  0  0  0  0
 64 66  1  0  0  0  0
 64 76  1  0  0  0  0
 65 77  1  0  0  0  0
 67 68  1  0  0  0  0
M  CHG  1  77   1
M  ISO  4  40 100  63 101  74 100  84 101
M  END
> <Batch ID>
0027

> <Smiles>
CCC(=C1CCCN1c1cc(F)c([100NH:0][100C:0](=O)N2CCCC(n3nc(-c4ccc(Oc5ccc(F)cc5F)cc4)c(C(N)=O)c3N)C2)cc1Cl)[101CH2:1][101O:1]c1ccc2c(c1)CN(C(=O)C(NC(=O)C(C)NC)C(C)(C)C)C(C(=O)NC1CCCc3ccccc31)C2

> <Shape>
0.363

> <Color>
0.208

> <Negative vol penalty>
0.000

$$$$

  -OEChem-04042321283D

 85 94  0     1  0  0  0  0  0999 V2000
  -32.8755  -32.7182   11.2151 C   0  0  0  0  0  0  0  0  0  0  0  0
  -32.7624  -31.4280   11.7229 C   0  0  0  0  0  0  0  0  0  0  0  0
  -23.0532   -9.9204   19.9107 C   0  0  0  0  0  0  0  0  0  0  0  0
  -23.8450   -9.8468   22.1921 C   0  0  0  0  0  0  0  0  0  0  0  0
  -32.5801  -33.8135   12.0255 C   0  0  0  0  0  0  0  0  0  0  0  0
  -32.3548  -31.2324   13.0420 C   0  0  0  0  0  0  0  0  0  0  0  0
  -28.9361  -26.6298   15.1949 C   0  0  0  0  0  0  0  0  0  0  0  0
  -31.6864  -18.3104   20.1840 C   0  0  0  0  0  0  0  0  0  0  0  0
  -31.5113  -19.3696   19.2935 C   0  0  0  0  0  0  0  0  0  0  0  0
  -22.3020   -8.7666   20.1341 C   0  0  0  0  0  0  0  0  0  0  0  0
  -23.0938   -8.6930   22.4156 C   0  0  0  0  0  0  0  0  0  0  0  0
  -29.2653  -25.4421   15.8467 C   0  0  0  0  0  0  0  0  0  0  0  0
  -19.8669   -7.9053   23.0381 C   0  0  0  0  0  0  0  0  0  0  0  0
  -19.1260   -7.8345   24.2177 C   0  0  0  0  0  0  0  0  0  0  0  0
  -28.8529  -26.5024   17.9739 C   0  0  0  0  0  0  0  0  0  0  0  0
  -29.2707  -19.7050   20.1329 C   0  0  0  0  0  0  0  0  0  0  0  0
  -20.3592   -5.8633   24.8741 C   0  0  0  0  0  0  0  0  0  0  0  0
  -23.8247  -10.4605   20.9396 C   0  0  0  0  0  0  0  0  0  0  0  0
  -24.1887  -12.9850   20.8957 C   0  0  0  0  0  0  0  0  0  0  0  0
  -32.1594  -33.6309   13.3523 C   0  0  0  0  0  0  0  0  0  0  0  0
  -28.5728  -27.7678   15.9294 C   0  0  0  0  0  0  0  0  0  0  0  0
  -32.0547  -32.3264   13.8714 C   0  0  0  0  0  0  0  0  0  0  0  0
  -28.5171  -27.7025   17.3289 C   0  0  0  0  0  0  0  0  0  0  0  0
  -30.6536  -17.9484   21.0489 C   0  0  0  0  0  0  0  0  0  0  0  0
  -30.3035  -20.0669   19.2679 C   0  0  0  0  0  0  0  0  0  0  0  0
  -22.3223   -8.1528   21.3866 C   0  0  0  0  0  0  0  0  0  0  0  0
  -29.2265  -25.3791   17.2366 C   0  0  0  0  0  0  0  0  0  0  0  0
  -20.8539   -6.9550   22.7763 C   0  0  0  0  0  0  0  0  0  0  0  0
  -19.3721   -6.8136   25.1357 C   0  0  0  0  0  0  0  0  0  0  0  0
  -21.1001   -5.9341   23.6943 C   0  0  0  0  0  0  0  0  0  0  0  0
  -29.4458  -18.6457   21.0234 C   0  0  0  0  0  0  0  0  0  0  0  0
  -24.6014  -11.6521   20.7093 C   0  0  0  0  0  0  0  0  0  0  0  0
  -25.2827  -13.7360   20.5411 C   0  0  0  0  0  0  0  0  0  0  0  0
  -28.9696  -21.9429   18.2142 C   0  0  0  0  0  0  0  0  0  0  0  0
  -22.9291  -13.4985   21.3489 C   0  0  0  0  0  0  0  0  0  0  0  0
  -29.7684  -30.6931   16.2710 C   0  0  0  0  0  0  0  0  0  0  0  0
  -27.0612  -31.1767   17.9913 C   0  0  0  0  0  0  0  0  0  0  0  0
  -24.5302  -29.8373   19.8478 C   0  0  0  0  0  0  0  0  0  0  0  0
  -30.7780  -14.6990   20.6840 C   0  0  0  0  0  0  0  0  0  0  0  0
  -31.8967  -34.8473   14.2045 C   0  0  0  0  0  0  0  0  0  0  0  0
  -28.1948  -29.0335   15.2101 C   0  0  0  0  0  0  0  0  0  0  0  0
  -28.1138  -28.8902   18.1627 C   0  0  0  0  0  0  0  0  0  0  0  0
  -31.1107  -34.5414   15.4768 C   0  0  0  0  0  0  0  0  0  0  0  0
  -29.5847  -12.4028   18.2385 C   0  0  0  0  0  0  0  0  0  0  0  0
  -31.6886  -33.3173   16.1800 C   0  0  0  0  0  0  0  0  0  0  0  0
  -28.1508  -12.1083   18.6822 C   0  0  0  0  0  0  0  0  0  0  0  0
  -30.5082  -22.4913   16.4644 C   0  0  0  0  0  0  0  0  0  0  0  0
  -30.5206  -12.5766   19.4327 C   0  0  0  0  0  0  0  0  0  0  0  0
  -31.1960  -21.6186   17.4979 C   0  0  0  0  0  0  0  0  0  0  0  0
  -28.6453  -13.2799   20.8689 C   0  0  0  0  0  0  0  0  0  0  0  0
  -31.5918  -32.0726   15.2897 C   0  0  1  0  0  0  0  0  0  0  0  0
  -29.2817  -23.0138   17.1910 C   0  0  2  0  0  0  0  0  0  1  0  0
  -28.3367  -30.2796   16.0788 C   0  0  1  0  0  0  0  0  0  0  0  0
  -27.6532  -13.1520   19.7002 C   0  0  2  0  0  0  0  0  0  0  0  0
  -22.4880  -30.4870   21.1535 C   0  0  0  0  0  0  0  0  0  0  0  0
  -28.8347  -32.1629   20.2700 C   0  0  0  0  0  0  0  0  0  0  0  0
  -26.8834  -31.8888   21.8144 C   0  0  0  0  0  0  0  0  0  0  0  0
  -26.7517  -33.5007   19.9153 C   0  0  0  0  0  0  0  0  0  0  0  0
  -22.7580  -28.2485   18.0888 C   0  0  0  0  0  0  0  0  0  0  0  0
  -30.8813  -16.8080   21.9880 C   0  0  0  0  0  0  0  0  0  0  0  0
  -26.6736  -31.0185   19.4418 C   0  0  1  0  0  0  0  0  0  0  0  0
  -23.0273  -30.0465   19.8015 C   0  0  2  0  0  0  0  0  0  0  0  0
  -27.2954  -32.1207   20.3450 C   0  0  0  0  0  0  0  0  0  0  0  0
  -25.8593  -11.5584   20.2702 N   0  0  0  0  0  0  0  0  0  0  0  0
  -26.2465  -12.8420   20.1777 N   0  0  0  0  0  0  0  0  0  0  0  0
  -30.1241  -21.1499   18.3558 N   0  0  0  0  0  0  0  0  0  0  0  0
  -27.7593  -30.1069   17.4134 N   0  0  0  0  0  0  0  0  0  0  0  0
  -29.9921  -13.5811   20.3589 N   0  0  0  0  0  0  0  0  0  0  0  0
  -25.5047  -15.0671   20.5078 N   0  0  0  0  0  0  0  0  0  0  0  0
  -21.9134  -12.5881   21.6713 N   0  0  0  0  0  0  0  0  0  0  0  0
  -30.2421  -31.5503   15.2962 N   0  0  0  0  0  0  0  0  0  0  0  0
  -25.2157  -30.9731   19.4721 N   0  0  0  0  0  0  0  0  0  0  0  0
  -30.1994  -15.6056   21.5638 N   0  0  0  0  0  0  0  0  0  0  0  0
  -22.3403  -28.7832   19.4104 N   0  3  0  0  0  0  0  0  0  0  0  0
  -27.9025  -21.8922   18.8090 O   0  0  0  0  0  0  0  0  0  0  0  0
  -22.7053  -14.7288   21.4490 O   0  0  0  0  0  0  0  0  0  0  0  0
  -30.3963  -30.2672   17.2334 O   0  0  0  0  0  0  0  0  0  0  0  0
  -26.7496  -32.2084   17.3912 O   0  0  0  0  0  0  0  0  0  0  0  0
  -25.0445  -28.7739   20.1872 O   0  0  0  0  0  0  0  0  0  0  0  0
  -31.9091  -14.8787   20.2201 O   0  0  0  0  0  0  0  0  0  0  0  0
  -21.5892   -7.0270   21.6051 O   0  0  0  0  0  0  0  0  0  0  0  0
  -29.5479  -24.2213   17.8754 O   0  0  0  0  0  0  0  0  0  1  0  0
  -18.6616   -6.7467   26.2693 F   0  0  0  0  0  0  0  0  0  0  0  0
  -22.0478   -5.0190   23.4489 F   0  0  0  0  0  0  0  0  0  0  0  0
  -28.1456  -18.2259   22.0783 Cl  0  0  0  0  0  0  0  0  0  0  0  0
  1  2  1  0  0  0  0
  1  5  2  0  0  0  0
  2  6  2  0  0  0  0
  3 10  2  0  0  0  0
  3 18  1  0  0  0  0
  4 11  1  0  0  0  0
  4 18  2  0  0  0  0
  5 20  1  0  0  0  0
  6 22  1  0  0  0  0
  7 12  2  0  0  0  0
  7 21  1  0  0  0  0
  8  9  2  0  0  0  0
  8 24  1  0  0  0  0
  9 25  1  0  0  0  0
 10 26  1  0  0  0  0
 11 26  2  0  0  0  0
 12 27  1  0  0  0  0
 13 14  2  0  0  0  0
 13 28  1  0  0  0  0
 14 29  1  0  0  0  0
 15 23  1  0  0  0  0
 15 27  2  0  0  0  0
 16 25  2  0  0  0  0
 16 31  1  0  0  0  0
 17 29  2  0  0  0  0
 17 30  1  0  0  0  0
 18 32  1  0  0  0  0
 19 32  1  0  0  0  0
 19 33  2  0  0  0  0
 19 35  1  0  0  0  0
 20 22  2  0  0  0  0
 20 40  1  0  0  0  0
 21 23  2  0  0  0  0
 21 41  1  0  0  0  0
 22 51  1  0  0  0  0
 23 42  1  0  0  0  0
 24 31  2  0  0  0  0
 24 60  1  0  0  0  0
 25 66  1  0  0  0  0
 26 81  1  0  0  0  0
 27 82  1  0  0  0  0
 28 30  2  0  0  0  0
 28 81  1  0  0  0  0
 29 83  1  0  0  0  0
 30 84  1  0  0  0  0
 31 85  1  0  0  0  0
 32 64  2  0  0  0  0
 33 65  1  0  0  0  0
 33 69  1  0  0  0  0
 34 52  1  0  0  0  0
 34 66  1  0  0  0  0
 34 75  2  0  0  0  0
 35 70  1  0  0  0  0
 35 76  2  0  0  0  0
 36 53  1  0  0  0  0
 36 71  1  0  0  0  0
 36 77  2  0  0  0  0
 37 61  1  0  0  0  0
 37 67  1  0  0  0  0
 37 78  2  0  0  0  0
 38 62  1  0  0  0  0
 38 72  1  0  0  0  0
 38 79  2  0  0  0  0
 39 68  1  0  0  0  0
 39 73  1  0  0  0  0
 39 80  2  0  0  0  0
 40 43  1  0  0  0  0
 41 53  1  0  0  0  0
 42 67  1  0  0  0  0
 43 45  1  0  0  0  0
 44 46  1  0  0  0  0
 44 48  1  0  0  0  0
 45 51  1  0  0  0  0
 46 54  1  0  0  0  0
 47 49  1  0  0  0  0
 47 52  1  0  0  0  0
 48 68  1  0  0  0  0
 49 66  1  0  0  0  0
 50 54  1  0  0  0  0
 50 68  1  0  0  0  0
 51 71  1  0  0  0  0
 52 82  1  0  0  0  0
 53 67  1  0  0  0  0
 54 65  1  0  0  0  0
 55 62  1  0  0  0  0
 56 63  1  0  0  0  0
 57 63  1  0  0  0  0
 58 63  1  0  0  0  0
 59 74  1  0  0  0  0
 60 73  1  0  0  0  0
 61 63  1  0  0  0  0
 61 72  1  0  0  0  0
 62 74  1  0  0  0  0
 64 65  1  0  0  0  0
M  CHG  1  74   1
M  ISO  4  39 100  52 101  73 100  82 101
M  END
> <Batch ID>
0027

> <Smiles>
CNC(C)C(=O)NC(C(=O)N1Cc2cc([101O:1][101CH:1]3CCN(c4ccc(C[100NH:0][100C:0](=O)N5CCCC(n6nc(-c7ccc(Oc8ccc(F)cc8F)cc7)c(C(N)=O)c6N)C5)c(Cl)c4)C3=O)ccc2CC1C(=O)NC1CCCc2ccccc21)C(C)(C)C

> <Shape>
0.268

> <Color>
0.195

> <Negative vol penalty>
0.000

$$$$

  -OEChem-04042321283D

 83 92  0     1  0  0  0  0  0999 V2000
  -35.9946  -31.9572   21.4125 C   0  0  0  0  0  0  0  0  0  0  0  0
  -35.7071  -30.8159   22.1543 C   0  0  0  0  0  0  0  0  0  0  0  0
  -23.0304   -9.8993   19.9547 C   0  0  0  0  0  0  0  0  0  0  0  0
  -23.7993   -9.8887   22.2451 C   0  0  0  0  0  0  0  0  0  0  0  0
  -34.9565  -32.7488   20.9230 C   0  0  0  0  0  0  0  0  0  0  0  0
  -34.3813  -30.4662   22.4079 C   0  0  0  0  0  0  0  0  0  0  0  0
  -33.5033  -25.5302   21.6933 C   0  0  0  0  0  0  0  0  0  0  0  0
  -32.8216  -17.2679   23.4069 C   0  0  0  0  0  0  0  0  0  0  0  0
  -32.1908  -16.4057   22.5101 C   0  0  0  0  0  0  0  0  0  0  0  0
  -22.2596   -8.7648   20.2082 C   0  0  0  0  0  0  0  0  0  0  0  0
  -23.0285   -8.7541   22.4986 C   0  0  0  0  0  0  0  0  0  0  0  0
  -33.9182  -24.6577   22.6984 C   0  0  0  0  0  0  0  0  0  0  0  0
  -19.7843   -8.0356   23.1143 C   0  0  0  0  0  0  0  0  0  0  0  0
  -19.0312   -8.0146   24.2882 C   0  0  0  0  0  0  0  0  0  0  0  0
  -31.6588  -24.5600   23.5379 C   0  0  0  0  0  0  0  0  0  0  0  0
  -30.6771  -18.1918   24.0272 C   0  0  0  0  0  0  0  0  0  0  0  0
  -20.2279   -6.0478   25.0207 C   0  0  0  0  0  0  0  0  0  0  0  0
  -23.8003  -10.4613   20.9731 C   0  0  0  0  0  0  0  0  0  0  0  0
  -24.2031  -12.9773   20.8504 C   0  0  0  0  0  0  0  0  0  0  0  0
  -33.6171  -32.4033   21.1626 C   0  0  0  0  0  0  0  0  0  0  0  0
  -32.1629  -25.9335   21.6094 C   0  0  0  0  0  0  0  0  0  0  0  0
  -33.3244  -31.2547   21.9223 C   0  0  0  0  0  0  0  0  0  0  0  0
  -31.2290  -25.4358   22.5293 C   0  0  0  0  0  0  0  0  0  0  0  0
  -32.0648  -18.1609   24.1655 C   0  0  0  0  0  0  0  0  0  0  0  0
  -30.0463  -17.3295   23.1303 C   0  0  0  0  0  0  0  0  0  0  0  0
  -30.8032  -16.4365   22.3718 C   0  0  0  0  0  0  0  0  0  0  0  0
  -22.2586   -8.1922   21.4801 C   0  0  0  0  0  0  0  0  0  0  0  0
  -32.9965  -24.1747   23.6226 C   0  0  0  0  0  0  0  0  0  0  0  0
  -20.7591   -7.0626   22.8935 C   0  0  0  0  0  0  0  0  0  0  0  0
  -19.2530   -7.0207   25.2414 C   0  0  0  0  0  0  0  0  0  0  0  0
  -20.9809   -6.0687   23.8468 C   0  0  0  0  0  0  0  0  0  0  0  0
  -24.5972  -11.6329   20.7117 C   0  0  0  0  0  0  0  0  0  0  0  0
  -25.3118  -13.6997   20.4825 C   0  0  0  0  0  0  0  0  0  0  0  0
  -22.9473  -13.5241   21.2741 C   0  0  0  0  0  0  0  0  0  0  0  0
  -30.6411  -28.7169   21.8104 C   0  0  0  0  0  0  0  0  0  0  0  0
  -28.0677  -26.9268   20.9763 C   0  0  0  0  0  0  0  0  0  0  0  0
  -26.5835  -23.8552   20.8802 C   0  0  0  0  0  0  0  0  0  0  0  0
  -30.8025  -14.6117   20.6350 C   0  0  0  0  0  0  0  0  0  0  0  0
  -32.5298  -33.3159   20.6532 C   0  0  0  0  0  0  0  0  0  0  0  0
  -31.7262  -26.8543   20.5031 C   0  0  0  0  0  0  0  0  0  0  0  0
  -29.7744  -25.8221   22.4703 C   0  0  0  0  0  0  0  0  0  0  0  0
  -31.1462  -32.6710   20.6478 C   0  0  0  0  0  0  0  0  0  0  0  0
  -29.6202  -12.2248   18.2724 C   0  0  0  0  0  0  0  0  0  0  0  0
  -30.8850  -31.9568   21.9702 C   0  0  0  0  0  0  0  0  0  0  0  0
  -28.1755  -11.9686   18.7078 C   0  0  0  0  0  0  0  0  0  0  0  0
  -30.5453  -12.4317   19.4703 C   0  0  0  0  0  0  0  0  0  0  0  0
  -28.6621  -13.2031   20.8587 C   0  0  0  0  0  0  0  0  0  0  0  0
  -33.0358  -21.0126   23.6431 C   0  0  0  0  0  0  0  0  0  0  0  0
  -34.1803  -21.0537   25.3897 C   0  0  0  0  0  0  0  0  0  0  0  0
  -31.8985  -30.8287   22.1975 C   0  0  1  0  0  0  0  0  0  0  0  0
  -30.4360  -27.6029   20.8231 C   0  0  1  0  0  0  0  0  0  0  0  0
  -27.6807  -13.0531   19.6848 C   0  0  2  0  0  0  0  0  0  0  0  0
  -33.9864  -22.0629   24.2445 C   0  0  0  0  0  0  0  0  0  1  0  0
  -28.5586  -17.3864   23.0006 C   0  0  0  0  0  0  0  0  0  0  0  0
  -24.4636  -22.7129   20.1740 C   0  0  0  0  0  0  0  0  0  0  0  0
  -26.6471  -28.0507   23.4316 C   0  0  0  0  0  0  0  0  0  0  0  0
  -24.9644  -26.2096   23.2145 C   0  0  0  0  0  0  0  0  0  0  0  0
  -25.2196  -27.8858   21.3848 C   0  0  0  0  0  0  0  0  0  0  0  0
  -28.0185  -22.1324   18.9484 C   0  0  0  0  0  0  0  0  0  0  0  0
  -32.7436  -19.0900   25.1282 C   0  0  0  0  0  0  0  0  0  0  0  0
  -27.0198  -26.1445   21.7305 C   0  0  1  0  0  0  0  0  0  0  0  0
  -25.8713  -23.1152   19.7624 C   0  0  2  0  0  0  0  0  0  0  0  0
  -25.9904  -27.0667   22.4429 C   0  0  0  0  0  0  0  0  0  0  0  0
  -25.8576  -11.5061   20.2885 N   0  0  0  0  0  0  0  0  0  0  0  0
  -26.2652  -12.7800   20.1580 N   0  0  0  0  0  0  0  0  0  0  0  0
  -29.3977  -26.7298   21.3741 N   0  0  0  0  0  0  0  0  0  0  0  0
  -30.0152  -13.4763   20.3493 N   0  0  0  0  0  0  0  0  0  0  0  0
  -25.5543  -15.0256   20.4079 N   0  0  0  0  0  0  0  0  0  0  0  0
  -21.9149  -12.6400   21.6159 N   0  0  0  0  0  0  0  0  0  0  0  0
  -30.1812  -15.5526   21.4555 N   0  0  0  0  0  0  0  0  0  0  0  0
  -31.5531  -29.6708   21.4010 N   0  0  0  0  0  0  0  0  0  0  0  0
  -26.4288  -25.2208   20.7683 N   0  0  0  0  0  0  0  0  0  0  0  0
  -33.7106  -19.9980   24.4734 N   0  3  0  0  0  0  0  0  0  0  0  0
  -26.6240  -21.8823   19.3955 N   0  3  0  0  0  0  0  0  0  0  0  0
  -22.7414  -14.7601   21.3318 O   0  0  0  0  0  0  0  0  0  0  0  0
  -30.0168  -28.7121   22.8650 O   0  0  0  0  0  0  0  0  0  0  0  0
  -27.7198  -27.6793   20.0629 O   0  0  0  0  0  0  0  0  0  0  0  0
  -27.2110  -23.2793   21.7663 O   0  0  0  0  0  0  0  0  0  0  0  0
  -31.9335  -14.7527   20.1628 O   0  0  0  0  0  0  0  0  0  0  0  0
  -21.5064   -7.0852   21.7279 O   0  0  0  0  0  0  0  0  0  0  0  0
  -33.3989  -23.3234   24.6051 O   0  0  0  0  0  0  0  0  0  1  0  0
  -18.5309   -7.0016   26.3694 F   0  0  0  0  0  0  0  0  0  0  0  0
  -21.9169   -5.1320   23.6408 F   0  0  0  0  0  0  0  0  0  0  0  0
  1  2  1  0  0  0  0
  1  5  2  0  0  0  0
  2  6  2  0  0  0  0
  3 10  2  0  0  0  0
  3 18  1  0  0  0  0
  4 11  1  0  0  0  0
  4 18  2  0  0  0  0
  5 20  1  0  0  0  0
  6 22  1  0  0  0  0
  7 12  2  0  0  0  0
  7 21  1  0  0  0  0
  8  9  2  0  0  0  0
  8 24  1  0  0  0  0
  9 26  1  0  0  0  0
 10 27  1  0  0  0  0
 11 27  2  0  0  0  0
 12 28  1  0  0  0  0
 13 14  2  0  0  0  0
 13 29  1  0  0  0  0
 14 30  1  0  0  0  0
 15 23  1  0  0  0  0
 15 28  2  0  0  0  0
 16 24  2  0  0  0  0
 16 25  1  0  0  0  0
 17 30  2  0  0  0  0
 17 31  1  0  0  0  0
 18 32  1  0  0  0  0
 19 32  1  0  0  0  0
 19 33  2  0  0  0  0
 19 34  1  0  0  0  0
 20 22  2  0  0  0  0
 20 39  1  0  0  0  0
 21 23  2  0  0  0  0
 21 40  1  0  0  0  0
 22 50  1  0  0  0  0
 23 41  1  0  0  0  0
 24 60  1  0  0  0  0
 25 26  2  0  0  0  0
 25 54  1  0  0  0  0
 26 70  1  0  0  0  0
 27 80  1  0  0  0  0
 28 81  1  0  0  0  0
 29 31  2  0  0  0  0
 29 80  1  0  0  0  0
 30 82  1  0  0  0  0
 31 83  1  0  0  0  0
 32 64  2  0  0  0  0
 33 65  1  0  0  0  0
 33 68  1  0  0  0  0
 34 69  1  0  0  0  0
 34 75  2  0  0  0  0
 35 51  1  0  0  0  0
 35 71  1  0  0  0  0
 35 76  2  0  0  0  0
 36 61  1  0  0  0  0
 36 66  1  0  0  0  0
 36 77  2  0  0  0  0
 37 62  1  0  0  0  0
 37 72  1  0  0  0  0
 37 78  2  0  0  0  0
 38 67  1  0  0  0  0
 38 70  1  0  0  0  0
 38 79  2  0  0  0  0
 39 42  1  0  0  0  0
 40 51  1  0  0  0  0
 41 66  1  0  0  0  0
 42 44  1  0  0  0  0
 43 45  1  0  0  0  0
 43 46  1  0  0  0  0
 44 50  1  0  0  0  0
 45 52  1  0  0  0  0
 46 67  1  0  0  0  0
 47 52  1  0  0  0  0
 47 67  1  0  0  0  0
 48 53  1  0  0  0  0
 48 73  1  0  0  0  0
 49 53  1  0  0  0  0
 49 73  1  0  0  0  0
 50 71  1  0  0  0  0
 51 66  1  0  0  0  0
 52 65  1  0  0  0  0
 53 81  1  0  0  0  0
 55 62  1  0  0  0  0
 56 63  1  0  0  0  0
 57 63  1  0  0  0  0
 58 63  1  0  0  0  0
 59 74  1  0  0  0  0
 60 73  1  0  0  0  0
 61 63  1  0  0  0  0
 61 72  1  0  0  0  0
 62 74  1  0  0  0  0
 64 65  1  0  0  0  0
M  CHG  2  73   1  74   1
M  ISO  4  38 100  53 101  70 100  81 101
M  END
> <Batch ID>
0027

> <Smiles>
CNC(C)C(=O)NC(C(=O)N1Cc2cc([101O:1][101CH:1]3CN(Cc4ccc([100NH:0][100C:0](=O)N5CCCC(n6nc(-c7ccc(Oc8ccc(F)cc8F)cc7)c(C(N)=O)c6N)C5)c(C)c4)C3)ccc2CC1C(=O)NC1CCCc2ccccc21)C(C)(C)C

> <Shape>
0.217

> <Color>
0.192

> <Negative vol penalty>
0.000

$$$$

  -OEChem-04042321283D

 81 89  0     1  0  0  0  0  0999 V2000
  -30.5219  -35.4859   20.9489 C   0  0  0  0  0  0  0  0  0  0  0  0
  -30.4092  -34.0995   20.9725 C   0  0  0  0  0  0  0  0  0  0  0  0
  -25.0687  -13.3037   21.7941 C   0  0  0  0  0  0  0  0  0  0  0  0
  -26.1317  -12.7618   19.6933 C   0  0  0  0  0  0  0  0  0  0  0  0
  -29.6176  -36.2699   21.6641 C   0  0  0  0  0  0  0  0  0  0  0  0
  -29.3927  -33.4962   21.7123 C   0  0  0  0  0  0  0  0  0  0  0  0
  -27.0819  -29.7779   19.1670 C   0  0  0  0  0  0  0  0  0  0  0  0
  -24.5244  -12.0207   21.8498 C   0  0  0  0  0  0  0  0  0  0  0  0
  -25.5875  -11.4787   19.7490 C   0  0  0  0  0  0  0  0  0  0  0  0
  -27.7429  -28.5528   19.0898 C   0  0  0  0  0  0  0  0  0  0  0  0
  -21.9365  -10.3508   20.4575 C   0  0  0  0  0  0  0  0  0  0  0  0
  -20.5927  -10.2325   20.8119 C   0  0  0  0  0  0  0  0  0  0  0  0
  -26.3534  -27.6980   20.8669 C   0  0  0  0  0  0  0  0  0  0  0  0
  -29.2785  -23.9101   17.9401 C   0  0  0  0  0  0  0  0  0  0  0  0
  -30.9783  -23.1004   19.9986 C   0  0  0  0  0  0  0  0  0  0  0  0
  -21.2143   -8.8865   22.7196 C   0  0  0  0  0  0  0  0  0  0  0  0
  -25.8723  -13.6743   20.7159 C   0  0  0  0  0  0  0  0  0  0  0  0
  -27.6736  -15.4212   21.1757 C   0  0  0  0  0  0  0  0  0  0  0  0
  -28.5837  -35.6764   22.4052 C   0  0  0  0  0  0  0  0  0  0  0  0
  -26.0573  -29.9761   20.1037 C   0  0  0  0  0  0  0  0  0  0  0  0
  -28.4746  -34.2730   22.4392 C   0  0  0  0  0  0  0  0  0  0  0  0
  -25.6793  -28.9257   20.9522 C   0  0  0  0  0  0  0  0  0  0  0  0
  -29.7822  -22.6096   17.9577 C   0  0  0  0  0  0  0  0  0  0  0  0
  -29.6247  -24.8059   18.9518 C   0  0  0  0  0  0  0  0  0  0  0  0
  -30.6321  -22.2046   18.9869 C   0  0  0  0  0  0  0  0  0  0  0  0
  -24.7838  -11.1081   20.8272 C   0  0  0  0  0  0  0  0  0  0  0  0
  -27.3806  -27.5135   19.9417 C   0  0  0  0  0  0  0  0  0  0  0  0
  -22.9193   -9.7369   21.2340 C   0  0  0  0  0  0  0  0  0  0  0  0
  -20.2315   -9.5004   21.9429 C   0  0  0  0  0  0  0  0  0  0  0  0
  -22.5582   -9.0048   22.3651 C   0  0  0  0  0  0  0  0  0  0  0  0
  -30.4746  -24.4010   19.9810 C   0  0  0  0  0  0  0  0  0  0  0  0
  -26.4343  -14.9998   20.6576 C   0  0  0  0  0  0  0  0  0  0  0  0
  -27.7398  -16.7571   20.8636 C   0  0  0  0  0  0  0  0  0  0  0  0
  -28.6753  -14.6720   21.8764 C   0  0  0  0  0  0  0  0  0  0  0  0
  -25.6281  -31.9213   22.5807 C   0  0  0  0  0  0  0  0  0  0  0  0
  -22.6649  -30.6018   22.6052 C   0  0  0  0  0  0  0  0  0  0  0  0
  -20.6602  -27.9660   21.7804 C   0  0  0  0  0  0  0  0  0  0  0  0
  -27.0554  -20.9490   17.2435 C   0  0  0  0  0  0  0  0  0  0  0  0
  -27.6589  -36.5634   23.2005 C   0  0  0  0  0  0  0  0  0  0  0  0
  -25.3360  -31.2949   20.1561 C   0  0  0  0  0  0  0  0  0  0  0  0
  -24.5722  -29.0809   21.9615 C   0  0  0  0  0  0  0  0  0  0  0  0
  -26.3833  -35.8600   23.6568 C   0  0  0  0  0  0  0  0  0  0  0  0
  -24.1976  -19.9037   19.0920 C   0  0  0  0  0  0  0  0  0  0  0  0
  -26.7104  -34.4940   24.2516 C   0  0  0  0  0  0  0  0  0  0  0  0
  -24.6248  -18.5672   19.7013 C   0  0  0  0  0  0  0  0  0  0  0  0
  -24.7735  -20.0949   17.6907 C   0  0  0  0  0  0  0  0  0  0  0  0
  -26.6640  -18.5996   18.2047 C   0  0  0  0  0  0  0  0  0  0  0  0
  -27.3704  -33.5825   23.2099 C   0  0  1  0  0  0  0  0  0  0  0  0
  -24.6552  -31.5507   21.4972 C   0  0  1  0  0  0  0  0  0  0  0  0
  -26.1535  -18.3861   19.6400 C   0  0  2  0  0  0  0  0  0  0  0  0
  -31.1856  -20.8180   19.0249 C   0  0  0  0  0  0  0  0  0  0  0  0
  -18.2909  -27.1598   21.9646 C   0  0  0  0  0  0  0  0  0  0  0  0
  -23.1242  -29.9315   25.5462 C   0  0  0  0  0  0  0  0  0  0  0  0
  -21.1982  -28.3375   25.4117 C   0  0  0  0  0  0  0  0  0  0  0  0
  -20.8298  -30.7725   25.0139 C   0  0  0  0  0  0  0  0  0  0  0  0
  -20.3472  -27.8542   18.8396 C   0  0  0  0  0  0  0  0  0  0  0  0
  -29.4001  -21.6679   16.8632 C   0  0  0  0  0  0  0  0  0  0  0  0
  -29.0618  -26.1957   18.8963 C   0  0  0  0  0  0  0  0  0  1  0  0
  -22.0354  -29.3995   23.2664 C   0  0  1  0  0  0  0  0  0  0  0  0
  -19.3010  -27.9062   21.1071 C   0  0  2  0  0  0  0  0  0  0  0  0
  -21.8191  -29.6076   24.7920 C   0  0  0  0  0  0  0  0  0  0  0  0
  -25.7617  -15.9880   20.0617 N   0  0  0  0  0  0  0  0  0  0  0  0
  -26.5812  -17.0436   20.2036 N   0  0  0  0  0  0  0  0  0  0  0  0
  -23.9013  -30.3913   21.9786 N   0  0  0  0  0  0  0  0  0  0  0  0
  -26.2268  -19.9115   17.7019 N   0  0  0  0  0  0  0  0  0  0  0  0
  -28.6755  -17.7030   21.0923 N   0  0  0  0  0  0  0  0  0  0  0  0
  -28.4471  -13.3096   22.1132 N   0  0  0  0  0  0  0  0  0  0  0  0
  -26.3766  -33.0492   22.3030 N   0  0  0  0  0  0  0  0  0  0  0  0
  -20.8124  -29.1181   22.5224 N   0  0  0  0  0  0  0  0  0  0  0  0
  -28.4207  -20.6954   17.2941 N   0  0  0  0  0  0  0  0  0  0  0  0
  -19.4045  -27.2129   19.7919 N   0  3  0  0  0  0  0  0  0  0  0  0
  -29.7340  -15.1990   22.2949 O   0  0  0  0  0  0  0  0  0  0  0  0
  -25.6937  -31.2357   23.5942 O   0  0  0  0  0  0  0  0  0  0  0  0
  -22.0776  -31.6862   22.6371 O   0  0  0  0  0  0  0  0  0  0  0  0
  -21.5013  -27.0775   21.6631 O   0  0  0  0  0  0  0  0  0  0  0  0
  -26.6116  -22.0237   16.8254 O   0  0  0  0  0  0  0  0  0  0  0  0
  -24.2531   -9.8560   20.8813 O   0  0  0  0  0  0  0  0  0  0  0  0
  -28.0246  -26.3169   19.8689 O   0  0  0  0  0  0  0  0  0  1  0  0
  -18.9411   -9.3881   22.2841 F   0  0  0  0  0  0  0  0  0  0  0  0
  -23.4979   -8.4138   23.1157 F   0  0  0  0  0  0  0  0  0  0  0  0
  -30.9252  -25.4814   21.2495 Cl  0  0  0  0  0  0  0  0  0  0  0  0
  1  2  1  0  0  0  0
  1  5  2  0  0  0  0
  2  6  2  0  0  0  0
  3  8  2  0  0  0  0
  3 17  1  0  0  0  0
  4  9  1  0  0  0  0
  4 17  2  0  0  0  0
  5 19  1  0  0  0  0
  6 21  1  0  0  0  0
  7 10  2  0  0  0  0
  7 20  1  0  0  0  0
  8 26  1  0  0  0  0
  9 26  2  0  0  0  0
 10 27  1  0  0  0  0
 11 12  2  0  0  0  0
 11 28  1  0  0  0  0
 12 29  1  0  0  0  0
 13 22  1  0  0  0  0
 13 27  2  0  0  0  0
 14 23  2  0  0  0  0
 14 24  1  0  0  0  0
 15 25  2  0  0  0  0
 15 31  1  0  0  0  0
 16 29  2  0  0  0  0
 16 30  1  0  0  0  0
 17 32  1  0  0  0  0
 18 32  1  0  0  0  0
 18 33  2  0  0  0  0
 18 34  1  0  0  0  0
 19 21  2  0  0  0  0
 19 39  1  0  0  0  0
 20 22  2  0  0  0  0
 20 40  1  0  0  0  0
 21 48  1  0  0  0  0
 22 41  1  0  0  0  0
 23 25  1  0  0  0  0
 23 57  1  0  0  0  0
 24 31  2  0  0  0  0
 24 58  1  0  0  0  0
 25 51  1  0  0  0  0
 26 77  1  0  0  0  0
 27 78  1  0  0  0  0
 28 30  2  0  0  0  0
 28 77  1  0  0  0  0
 29 79  1  0  0  0  0
 30 80  1  0  0  0  0
 31 81  1  0  0  0  0
 32 62  2  0  0  0  0
 33 63  1  0  0  0  0
 33 66  1  0  0  0  0
 34 67  1  0  0  0  0
 34 72  2  0  0  0  0
 35 49  1  0  0  0  0
 35 68  1  0  0  0  0
 35 73  2  0  0  0  0
 36 59  1  0  0  0  0
 36 64  1  0  0  0  0
 36 74  2  0  0  0  0
 37 60  1  0  0  0  0
 37 69  1  0  0  0  0
 37 75  2  0  0  0  0
 38 65  1  0  0  0  0
 38 70  1  0  0  0  0
 38 76  2  0  0  0  0
 39 42  1  0  0  0  0
 40 49  1  0  0  0  0
 41 64  1  0  0  0  0
 42 44  1  0  0  0  0
 43 45  1  0  0  0  0
 43 46  1  0  0  0  0
 44 48  1  0  0  0  0
 45 50  1  0  0  0  0
 46 65  1  0  0  0  0
 47 50  1  0  0  0  0
 47 65  1  0  0  0  0
 48 68  1  0  0  0  0
 49 64  1  0  0  0  0
 50 63  1  0  0  0  0
 52 60  1  0  0  0  0
 53 61  1  0  0  0  0
 54 61  1  0  0  0  0
 55 61  1  0  0  0  0
 56 71  1  0  0  0  0
 57 70  1  0  0  0  0
 58 78  1  0  0  0  0
 59 61  1  0  0  0  0
 59 69  1  0  0  0  0
 60 71  1  0  0  0  0
 62 63  1  0  0  0  0
M  CHG  1  71   1
M  ISO  4  38 100  58 101  70 100  78 101
M  END
> <Batch ID>
0027

> <Smiles>
CNC(C)C(=O)NC(C(=O)N1Cc2cc([101O:1][101CH2:1]c3cc(C[100NH:0][100C:0](=O)N4CCCC(n5nc(-c6ccc(Oc7ccc(F)cc7F)cc6)c(C(N)=O)c5N)C4)c(C)cc3Cl)ccc2CC1C(=O)NC1CCCc2ccccc21)C(C)(C)C

> <Shape>
0.273

> <Color>
0.084

> <Negative vol penalty>
0.000

$$$$

  -OEChem-04042321283D

 81 90  0     1  0  0  0  0  0999 V2000
  -29.0323  -37.2443   24.3187 C   0  0  0  0  0  0  0  0  0  0  0  0
  -29.4381  -36.0352   23.7630 C   0  0  0  0  0  0  0  0  0  0  0  0
  -24.6644   -9.8536   21.9111 C   0  0  0  0  0  0  0  0  0  0  0  0
  -24.7984  -11.2300   23.8922 C   0  0  0  0  0  0  0  0  0  0  0  0
  -27.8984  -37.2924   25.1285 C   0  0  0  0  0  0  0  0  0  0  0  0
  -28.7107  -34.8731   24.0177 C   0  0  0  0  0  0  0  0  0  0  0  0
  -27.7867  -30.1922   20.1784 C   0  0  0  0  0  0  0  0  0  0  0  0
  -27.1147  -21.5493   21.2333 C   0  0  0  0  0  0  0  0  0  0  0  0
  -29.5297  -21.5999   21.1882 C   0  0  0  0  0  0  0  0  0  0  0  0
  -27.1367  -20.1960   20.8961 C   0  0  0  0  0  0  0  0  0  0  0  0
  -29.5518  -20.2466   20.8510 C   0  0  0  0  0  0  0  0  0  0  0  0
  -24.3738   -8.7425   22.7027 C   0  0  0  0  0  0  0  0  0  0  0  0
  -24.5076  -10.1189   24.6838 C   0  0  0  0  0  0  0  0  0  0  0  0
  -28.4071  -28.9506   20.0466 C   0  0  0  0  0  0  0  0  0  0  0  0
  -21.6900   -7.4673   24.3165 C   0  0  0  0  0  0  0  0  0  0  0  0
  -20.6524   -6.6313   23.9042 C   0  0  0  0  0  0  0  0  0  0  0  0
  -26.6758  -27.9491   21.3953 C   0  0  0  0  0  0  0  0  0  0  0  0
  -22.1994   -4.7810   23.7624 C   0  0  0  0  0  0  0  0  0  0  0  0
  -24.8768  -11.0974   22.5059 C   0  0  0  0  0  0  0  0  0  0  0  0
  -24.2596  -13.1499   21.1226 C   0  0  0  0  0  0  0  0  0  0  0  0
  -27.1512  -36.1321   25.3855 C   0  0  0  0  0  0  0  0  0  0  0  0
  -26.6102  -30.3238   20.9299 C   0  0  0  0  0  0  0  0  0  0  0  0
  -27.5665  -34.9055   24.8329 C   0  0  0  0  0  0  0  0  0  0  0  0
  -26.0411  -29.1930   21.5329 C   0  0  0  0  0  0  0  0  0  0  0  0
  -28.3112  -22.2513   21.3793 C   0  0  0  0  0  0  0  0  0  0  0  0
  -28.3553  -19.5446   20.7050 C   0  0  0  0  0  0  0  0  0  0  0  0
  -24.2953   -8.8752   24.0890 C   0  0  0  0  0  0  0  0  0  0  0  0
  -27.8533  -27.8294   20.6575 C   0  0  0  0  0  0  0  0  0  0  0  0
  -22.9824   -6.9602   24.4516 C   0  0  0  0  0  0  0  0  0  0  0  0
  -20.9070   -5.2882   23.6272 C   0  0  0  0  0  0  0  0  0  0  0  0
  -23.2371   -5.6171   24.1746 C   0  0  0  0  0  0  0  0  0  0  0  0
  -25.1777  -12.2453   21.6888 C   0  0  0  0  0  0  0  0  0  0  0  0
  -25.0412  -14.0526   20.4436 C   0  0  0  0  0  0  0  0  0  0  0  0
  -22.8283  -13.1724   21.2032 C   0  0  0  0  0  0  0  0  0  0  0  0
  -25.7855  -31.9365   23.5420 C   0  0  0  0  0  0  0  0  0  0  0  0
  -22.8276  -30.8111   22.8305 C   0  0  0  0  0  0  0  0  0  0  0  0
  -20.9257  -28.4405   21.2780 C   0  0  0  0  0  0  0  0  0  0  0  0
  -29.5000  -17.3734   20.1376 C   0  0  0  0  0  0  0  0  0  0  0  0
  -25.9598  -36.2248   26.3055 C   0  0  0  0  0  0  0  0  0  0  0  0
  -25.9386  -31.6651   21.0402 C   0  0  0  0  0  0  0  0  0  0  0  0
  -24.7682  -29.2773   22.3337 C   0  0  0  0  0  0  0  0  0  0  0  0
  -25.0301  -35.0169   26.2219 C   0  0  0  0  0  0  0  0  0  0  0  0
  -29.9736  -13.9426   19.3117 C   0  0  0  0  0  0  0  0  0  0  0  0
  -25.8338  -33.7210   26.2614 C   0  0  0  0  0  0  0  0  0  0  0  0
  -28.6926  -13.2696   19.8099 C   0  0  0  0  0  0  0  0  0  0  0  0
  -30.4217  -15.0681   20.2423 C   0  0  0  0  0  0  0  0  0  0  0  0
  -28.1137  -15.4022   21.0363 C   0  0  0  0  0  0  0  0  0  0  0  0
  -27.2795  -24.5461   21.3852 C   0  0  0  0  0  0  0  0  0  0  0  0
  -29.3698  -24.5205   21.6254 C   0  0  0  0  0  0  0  0  0  0  0  0
  -26.7895  -33.6279   25.0658 C   0  0  1  0  0  0  0  0  0  0  0  0
  -25.0244  -31.7775   22.2563 C   0  0  1  0  0  0  0  0  0  0  0  0
  -27.5872  -14.3047   20.0972 C   0  0  2  0  0  0  0  0  0  0  0  0
  -28.3275  -25.6476   21.5978 C   0  0  0  0  0  0  0  0  0  1  0  0
  -18.5380  -27.7643   20.9053 C   0  0  0  0  0  0  0  0  0  0  0  0
  -22.6950  -29.7197   25.6768 C   0  0  0  0  0  0  0  0  0  0  0  0
  -20.7753  -28.2806   24.9611 C   0  0  0  0  0  0  0  0  0  0  0  0
  -20.5747  -30.7650   24.8605 C   0  0  0  0  0  0  0  0  0  0  0  0
  -21.1745  -28.7496   18.3451 C   0  0  0  0  0  0  0  0  0  0  0  0
  -22.0421  -29.5710   23.1832 C   0  0  1  0  0  0  0  0  0  0  0  0
  -19.7183  -28.5569   20.3653 C   0  0  2  0  0  0  0  0  0  0  0  0
  -21.5468  -29.5825   24.6570 C   0  0  0  0  0  0  0  0  0  0  0  0
  -26.4456  -12.5458   21.3950 N   0  0  0  0  0  0  0  0  0  0  0  0
  -26.3297  -13.6492   20.6367 N   0  0  0  0  0  0  0  0  0  0  0  0
  -28.2893  -23.6008   21.7135 N   0  0  0  0  0  0  0  0  0  0  0  0
  -24.1526  -30.6120   22.4176 N   0  0  0  0  0  0  0  0  0  0  0  0
  -29.3247  -16.0123   20.4654 N   0  0  0  0  0  0  0  0  0  0  0  0
  -24.7451  -15.1439   19.7063 N   0  0  0  0  0  0  0  0  0  0  0  0
  -22.1849  -12.1702   21.9421 N   0  0  0  0  0  0  0  0  0  0  0  0
  -28.3776  -18.1699   20.3625 N   0  0  0  0  0  0  0  0  0  0  0  0
  -26.0677  -33.2488   23.8701 N   0  0  0  0  0  0  0  0  0  0  0  0
  -20.9741  -29.4694   22.1947 N   0  0  0  0  0  0  0  0  0  0  0  0
  -20.0459  -28.0440   19.0050 N   0  3  0  0  0  0  0  0  0  0  0  0
  -22.1393  -14.0456   20.6232 O   0  0  0  0  0  0  0  0  0  0  0  0
  -26.0928  -30.9423   24.1892 O   0  0  0  0  0  0  0  0  0  0  0  0
  -22.2832  -31.9151   22.9114 O   0  0  0  0  0  0  0  0  0  0  0  0
  -21.7422  -27.5262   21.1892 O   0  0  0  0  0  0  0  0  0  0  0  0
  -30.5583  -17.7960   19.6649 O   0  0  0  0  0  0  0  0  0  0  0  0
  -24.0114   -7.7913   24.8617 O   0  0  0  0  0  0  0  0  0  0  0  0
  -28.4571  -26.6164   20.5311 O   0  0  0  0  0  0  0  0  0  1  0  0
  -19.9102   -4.4851   23.2329 F   0  0  0  0  0  0  0  0  0  0  0  0
  -24.4764   -5.1239   24.3037 F   0  0  0  0  0  0  0  0  0  0  0  0
  1  2  1  0  0  0  0
  1  5  2  0  0  0  0
  2  6  2  0  0  0  0
  3 12  2  0  0  0  0
  3 19  1  0  0  0  0
  4 13  1  0  0  0  0
  4 19  2  0  0  0  0
  5 21  1  0  0  0  0
  6 23  1  0  0  0  0
  7 14  2  0  0  0  0
  7 22  1  0  0  0  0
  8 10  2  0  0  0  0
  8 25  1  0  0  0  0
  9 11  1  0  0  0  0
  9 25  2  0  0  0  0
 10 26  1  0  0  0  0
 11 26  2  0  0  0  0
 12 27  1  0  0  0  0
 13 27  2  0  0  0  0
 14 28  1  0  0  0  0
 15 16  2  0  0  0  0
 15 29  1  0  0  0  0
 16 30  1  0  0  0  0
 17 24  1  0  0  0  0
 17 28  2  0  0  0  0
 18 30  2  0  0  0  0
 18 31  1  0  0  0  0
 19 32  1  0  0  0  0
 20 32  1  0  0  0  0
 20 33  2  0  0  0  0
 20 34  1  0  0  0  0
 21 23  2  0  0  0  0
 21 39  1  0  0  0  0
 22 24  2  0  0  0  0
 22 40  1  0  0  0  0
 23 50  1  0  0  0  0
 24 41  1  0  0  0  0
 25 64  1  0  0  0  0
 26 69  1  0  0  0  0
 27 78  1  0  0  0  0
 28 79  1  0  0  0  0
 29 31  2  0  0  0  0
 29 78  1  0  0  0  0
 30 80  1  0  0  0  0
 31 81  1  0  0  0  0
 32 62  2  0  0  0  0
 33 63  1  0  0  0  0
 33 67  1  0  0  0  0
 34 68  1  0  0  0  0
 34 73  2  0  0  0  0
 35 51  1  0  0  0  0
 35 70  1  0  0  0  0
 35 74  2  0  0  0  0
 36 59  1  0  0  0  0
 36 65  1  0  0  0  0
 36 75  2  0  0  0  0
 37 60  1  0  0  0  0
 37 71  1  0  0  0  0
 37 76  2  0  0  0  0
 38 66  1  0  0  0  0
 38 69  1  0  0  0  0
 38 77  2  0  0  0  0
 39 42  1  0  0  0  0
 40 51  1  0  0  0  0
 41 65  1  0  0  0  0
 42 44  1  0  0  0  0
 43 45  1  0  0  0  0
 43 46  1  0  0  0  0
 44 50  1  0  0  0  0
 45 52  1  0  0  0  0
 46 66  1  0  0  0  0
 47 52  1  0  0  0  0
 47 66  1  0  0  0  0
 48 53  1  0  0  0  0
 48 64  1  0  0  0  0
 49 53  1  0  0  0  0
 49 64  1  0  0  0  0
 50 70  1  0  0  0  0
 51 65  1  0  0  0  0
 52 63  1  0  0  0  0
 53 79  1  0  0  0  0
 54 60  1  0  0  0  0
 55 61  1  0  0  0  0
 56 61  1  0  0  0  0
 57 61  1  0  0  0  0
 58 72  1  0  0  0  0
 59 61  1  0  0  0  0
 59 71  1  0  0  0  0
 60 72  1  0  0  0  0
 62 63  1  0  0  0  0
M  CHG  1  72   1
M  ISO  4  38 100  53 101  69 100  79 101
M  END
> <Batch ID>
0027

> <Smiles>
CNC(C)C(=O)NC(C(=O)N1Cc2cc([101O:1][101CH:1]3CN(c4ccc([100NH:0][100C:0](=O)N5CCCC(n6nc(-c7ccc(Oc8ccc(F)cc8F)cc7)c(C(N)=O)c6N)C5)cc4)C3)ccc2CC1C(=O)NC1CCCc2ccccc21)C(C)(C)C

> <Shape>
0.329

> <Color>
0.139

> <Negative vol penalty>
0.000

$$$$

  -OEChem-04042321283D

 86 95  0     1  0  0  0  0  0999 V2000
  -26.5303  -34.0791   25.4789 C   0  0  0  0  0  0  0  0  0  0  0  0
  -26.9626  -32.8808   24.9198 C   0  0  0  0  0  0  0  0  0  0  0  0
  -23.9052  -13.9869   19.8610 C   0  0  0  0  0  0  0  0  0  0  0  0
  -25.0236  -14.2464   21.9868 C   0  0  0  0  0  0  0  0  0  0  0  0
  -25.1891  -34.2425   25.8231 C   0  0  0  0  0  0  0  0  0  0  0  0
  -26.0542  -31.8448   24.7056 C   0  0  0  0  0  0  0  0  0  0  0  0
  -26.5967  -29.6955   20.1525 C   0  0  0  0  0  0  0  0  0  0  0  0
  -26.9239  -24.7618   23.6183 C   0  0  0  0  0  0  0  0  0  0  0  0
  -28.0348  -25.4598   23.1448 C   0  0  0  0  0  0  0  0  0  0  0  0
  -24.7212  -12.8951   19.5650 C   0  0  0  0  0  0  0  0  0  0  0  0
  -25.8395  -13.1545   21.6908 C   0  0  0  0  0  0  0  0  0  0  0  0
  -27.6495  -28.7952   19.9947 C   0  0  0  0  0  0  0  0  0  0  0  0
  -27.8773  -12.3674   18.4766 C   0  0  0  0  0  0  0  0  0  0  0  0
  -28.4343  -12.3029   17.1994 C   0  0  0  0  0  0  0  0  0  0  0  0
  -26.1112  -26.9574   20.2692 C   0  0  0  0  0  0  0  0  0  0  0  0
  -27.3110  -10.1985   16.8159 C   0  0  0  0  0  0  0  0  0  0  0  0
  -24.0565  -14.6626   21.0719 C   0  0  0  0  0  0  0  0  0  0  0  0
  -21.9697  -15.7692   22.0356 C   0  0  0  0  0  0  0  0  0  0  0  0
  -24.2619  -33.2115   25.6041 C   0  0  0  0  0  0  0  0  0  0  0  0
  -25.2928  -29.2328   20.3810 C   0  0  0  0  0  0  0  0  0  0  0  0
  -24.6997  -31.9941   25.0485 C   0  0  0  0  0  0  0  0  0  0  0  0
  -25.0432  -27.8538   20.4270 C   0  0  0  0  0  0  0  0  0  0  0  0
  -26.9291  -23.3669   23.6286 C   0  0  0  0  0  0  0  0  0  0  0  0
  -29.1560  -23.3683   22.6916 C   0  0  0  0  0  0  0  0  0  0  0  0
  -29.1508  -24.7631   22.6814 C   0  0  0  0  0  0  0  0  0  0  0  0
  -25.6883  -12.4788   20.4799 C   0  0  0  0  0  0  0  0  0  0  0  0
  -27.4074  -27.4260   20.0559 C   0  0  0  0  0  0  0  0  0  0  0  0
  -27.0373  -11.3474   18.9235 C   0  0  0  0  0  0  0  0  0  0  0  0
  -28.1511  -11.2184   16.3690 C   0  0  0  0  0  0  0  0  0  0  0  0
  -26.7542  -10.2630   18.0931 C   0  0  0  0  0  0  0  0  0  0  0  0
  -28.0451  -22.6702   23.1652 C   0  0  0  0  0  0  0  0  0  0  0  0
  -23.2142  -15.7910   21.3780 C   0  0  0  0  0  0  0  0  0  0  0  0
  -21.5817  -17.0860   22.0800 C   0  0  0  0  0  0  0  0  0  0  0  0
  -21.2305  -14.6580   22.5596 C   0  0  0  0  0  0  0  0  0  0  0  0
  -23.1884  -29.5323   22.7444 C   0  0  0  0  0  0  0  0  0  0  0  0
  -21.2287  -27.9856   20.6733 C   0  0  0  0  0  0  0  0  0  0  0  0
  -20.9148  -25.9033   17.9877 C   0  0  0  0  0  0  0  0  0  0  0  0
  -24.6260  -22.2403   21.9520 C   0  0  0  0  0  0  0  0  0  0  0  0
  -22.8317  -33.4175   26.0361 C   0  0  0  0  0  0  0  0  0  0  0  0
  -24.1637  -30.2164   20.5225 C   0  0  0  0  0  0  0  0  0  0  0  0
  -23.6582  -27.3056   20.6498 C   0  0  0  0  0  0  0  0  0  0  0  0
  -21.8610  -32.4068   25.4308 C   0  0  0  0  0  0  0  0  0  0  0  0
  -22.0608  -21.2127   19.7069 C   0  0  0  0  0  0  0  0  0  0  0  0
  -32.2941  -26.6513   22.1600 C   0  0  0  0  0  0  0  0  0  0  0  0
  -22.4207  -30.9927   25.5480 C   0  0  0  0  0  0  0  0  0  0  0  0
  -21.9532  -19.7047   19.9399 C   0  0  0  0  0  0  0  0  0  0  0  0
  -32.0312  -26.0378   20.7938 C   0  0  0  0  0  0  0  0  0  0  0  0
  -31.3469  -25.8890   23.0812 C   0  0  0  0  0  0  0  0  0  0  0  0
  -23.5050  -21.6982   19.8105 C   0  0  0  0  0  0  0  0  0  0  0  0
  -24.0881  -19.8171   21.2922 C   0  0  0  0  0  0  0  0  0  0  0  0
  -23.7397  -30.8559   24.7779 C   0  0  1  0  0  0  0  0  0  0  0  0
  -22.9601  -29.6420   21.2634 C   0  0  1  0  0  0  0  0  0  0  0  0
  -22.6436  -19.2896   21.2531 C   0  0  2  0  0  0  0  0  0  0  0  0
  -30.5219  -25.7578   20.8029 C   0  0  2  0  0  0  0  0  0  0  0  0
  -30.3394  -22.6003   22.1988 C   0  0  0  0  0  0  0  0  0  0  0  0
  -19.1856  -24.7915   16.5487 C   0  0  0  0  0  0  0  0  0  0  0  0
  -20.6852  -25.9636   22.8928 C   0  0  0  0  0  0  0  0  0  0  0  0
  -19.7564  -24.4148   21.1589 C   0  0  0  0  0  0  0  0  0  0  0  0
  -18.6704  -26.6232   21.5661 C   0  0  0  0  0  0  0  0  0  0  0  0
  -21.8817  -27.2858   15.5562 C   0  0  0  0  0  0  0  0  0  0  0  0
  -25.7391  -22.6250   24.1365 C   0  0  0  0  0  0  0  0  0  0  0  0
  -29.7260  -26.9733   20.3293 C   0  0  0  0  0  0  0  0  0  1  0  0
  -20.9045  -26.5396   20.3855 C   0  0  1  0  0  0  0  0  0  0  0  0
  -20.0807  -26.0083   16.7237 C   0  0  2  0  0  0  0  0  0  0  0  0
  -20.0306  -25.8953   21.4985 C   0  0  0  0  0  0  0  0  0  0  0  0
  -23.5918  -17.0238   21.0295 N   0  0  0  0  0  0  0  0  0  0  0  0
  -22.5784  -17.7890   21.4697 N   0  0  0  0  0  0  0  0  0  0  0  0
  -30.2424  -25.4715   22.2154 N   0  0  3  0  0  0  0  0  0  0  0  0
  -22.5884  -28.3075   20.7887 N   0  0  0  0  0  0  0  0  0  0  0  0
  -24.1013  -21.2729   21.0792 N   0  0  0  0  0  0  0  0  0  0  0  0
  -20.4885  -17.6995   22.5810 N   0  0  0  0  0  0  0  0  0  0  0  0
  -21.7743  -13.3728   22.4296 N   0  0  0  0  0  0  0  0  0  0  0  0
  -23.4858  -30.7340   23.3583 N   0  0  0  0  0  0  0  0  0  0  0  0
  -20.2975  -26.5135   19.0592 N   0  0  0  0  0  0  0  0  0  0  0  0
  -25.1667  -21.7526   23.1354 N   0  0  0  0  0  0  0  0  0  0  0  0
  -20.9636  -26.1182   15.5282 N   0  3  0  0  0  0  0  0  0  0  0  0
  -20.1130  -14.7988   23.1118 O   0  0  0  0  0  0  0  0  0  0  0  0
  -23.0998  -28.4387   23.2901 O   0  0  0  0  0  0  0  0  0  0  0  0
  -20.3097  -28.8009   20.7843 O   0  0  0  0  0  0  0  0  0  0  0  0
  -22.0032  -25.3335   18.0221 O   0  0  0  0  0  0  0  0  0  0  0  0
  -24.6088  -23.4494   21.6979 O   0  0  0  0  0  0  0  0  0  0  0  0
  -26.4846  -11.4133   20.1915 O   0  0  0  0  0  0  0  0  0  0  0  0
  -28.4333  -26.5452   19.9029 O   0  0  0  0  0  0  0  0  0  1  0  0
  -28.6847  -11.1574   15.1419 F   0  0  0  0  0  0  0  0  0  0  0  0
  -25.9469   -9.2807   18.5165 F   0  0  0  0  0  0  0  0  0  0  0  0
  -28.0498  -21.3288   23.1778 F   0  0  0  0  0  0  0  0  0  0  0  0
  1  2  1  0  0  0  0
  1  5  2  0  0  0  0
  2  6  2  0  0  0  0
  3 10  2  0  0  0  0
  3 17  1  0  0  0  0
  4 11  1  0  0  0  0
  4 17  2  0  0  0  0
  5 19  1  0  0  0  0
  6 21  1  0  0  0  0
  7 12  2  0  0  0  0
  7 20  1  0  0  0  0
  8  9  2  0  0  0  0
  8 23  1  0  0  0  0
  9 25  1  0  0  0  0
 10 26  1  0  0  0  0
 11 26  2  0  0  0  0
 12 27  1  0  0  0  0
 13 14  2  0  0  0  0
 13 28  1  0  0  0  0
 14 29  1  0  0  0  0
 15 22  1  0  0  0  0
 15 27  2  0  0  0  0
 16 29  2  0  0  0  0
 16 30  1  0  0  0  0
 17 32  1  0  0  0  0
 18 32  1  0  0  0  0
 18 33  2  0  0  0  0
 18 34  1  0  0  0  0
 19 21  2  0  0  0  0
 19 39  1  0  0  0  0
 20 22  2  0  0  0  0
 20 40  1  0  0  0  0
 21 51  1  0  0  0  0
 22 41  1  0  0  0  0
 23 31  2  0  0  0  0
 23 61  1  0  0  0  0
 24 25  2  0  0  0  0
 24 31  1  0  0  0  0
 24 55  1  0  0  0  0
 25 68  1  0  0  0  0
 26 82  1  0  0  0  0
 27 83  1  0  0  0  0
 28 30  2  0  0  0  0
 28 82  1  0  0  0  0
 29 84  1  0  0  0  0
 30 85  1  0  0  0  0
 31 86  1  0  0  0  0
 32 66  2  0  0  0  0
 33 67  1  0  0  0  0
 33 71  1  0  0  0  0
 34 72  1  0  0  0  0
 34 77  2  0  0  0  0
 35 52  1  0  0  0  0
 35 73  1  0  0  0  0
 35 78  2  0  0  0  0
 36 63  1  0  0  0  0
 36 69  1  0  0  0  0
 36 79  2  0  0  0  0
 37 64  1  0  0  0  0
 37 74  1  0  0  0  0
 37 80  2  0  0  0  0
 38 70  1  0  0  0  0
 38 75  1  0  0  0  0
 38 81  2  0  0  0  0
 39 42  1  0  0  0  0
 40 52  1  0  0  0  0
 41 69  1  0  0  0  0
 42 45  1  0  0  0  0
 43 46  1  0  0  0  0
 43 49  1  0  0  0  0
 44 47  1  0  0  0  0
 44 48  1  0  0  0  0
 45 51  1  0  0  0  0
 46 53  1  0  0  0  0
 47 54  1  0  0  0  0
 48 68  1  0  0  0  0
 49 70  1  0  0  0  0
 50 53  1  0  0  0  0
 50 70  1  0  0  0  0
 51 73  1  0  0  0  0
 52 69  1  0  0  0  0
 53 67  1  0  0  0  0
 54 62  1  0  0  0  0
 54 68  1  0  0  0  0
 56 64  1  0  0  0  0
 57 65  1  0  0  0  0
 58 65  1  0  0  0  0
 59 65  1  0  0  0  0
 60 76  1  0  0  0  0
 61 75  1  0  0  0  0
 62 83  1  0  0  0  0
 63 65  1  0  0  0  0
 63 74  1  0  0  0  0
 64 76  1  0  0  0  0
 66 67  1  0  0  0  0
M  CHG  1  76   1
M  ISO  4  38 100  62 101  75 100  83 101
M  END
> <Batch ID>
0027

> <Smiles>
CNC(C)C(=O)NC(C(=O)N1Cc2cc([101O:1][101CH2:1]C3CCCN3c3ccc(C[100NH:0][100C:0](=O)N4CCCC(n5nc(-c6ccc(Oc7ccc(F)cc7F)cc6)c(C(N)=O)c5N)C4)c(F)c3C)ccc2CC1C(=O)NC1CCCc2ccccc21)C(C)(C)C

> <Shape>
0.199

> <Color>
0.083

> <Negative vol penalty>
0.000

$$$$

  -OEChem-04042321283D

 84 93  0     1  0  0  0  0  0999 V2000
  -24.6550  -30.2684   22.2604 C   0  0  0  0  0  0  0  0  0  0  0  0
  -25.0586  -29.1336   21.5641 C   0  0  0  0  0  0  0  0  0  0  0  0
  -22.9792  -10.0228   19.9259 C   0  0  0  0  0  0  0  0  0  0  0  0
  -23.8710   -9.8168   22.1619 C   0  0  0  0  0  0  0  0  0  0  0  0
  -24.2083  -31.3903   21.5635 C   0  0  0  0  0  0  0  0  0  0  0  0
  -25.0147  -29.1197   20.1705 C   0  0  0  0  0  0  0  0  0  0  0  0
  -29.2032  -27.1516   18.1143 C   0  0  0  0  0  0  0  0  0  0  0  0
  -29.3157  -18.6861   21.2018 C   0  0  0  0  0  0  0  0  0  0  0  0
  -29.5568  -19.9549   20.6750 C   0  0  0  0  0  0  0  0  0  0  0  0
  -22.2156   -8.8726   20.1245 C   0  0  0  0  0  0  0  0  0  0  0  0
  -23.1073   -8.6665   22.3604 C   0  0  0  0  0  0  0  0  0  0  0  0
  -29.3217  -25.7624   18.1172 C   0  0  0  0  0  0  0  0  0  0  0  0
  -23.2617   -5.3968   21.5143 C   0  0  0  0  0  0  0  0  0  0  0  0
  -23.8857   -4.2989   22.1067 C   0  0  0  0  0  0  0  0  0  0  0  0
  -28.6083  -25.7028   15.8136 C   0  0  0  0  0  0  0  0  0  0  0  0
  -30.3570  -18.9527   18.6275 C   0  0  0  0  0  0  0  0  0  0  0  0
  -22.2926   -4.3727   23.9216 C   0  0  0  0  0  0  0  0  0  0  0  0
  -23.8070  -10.4949   20.9446 C   0  0  0  0  0  0  0  0  0  0  0  0
  -24.2197  -13.0114   21.0129 C   0  0  0  0  0  0  0  0  0  0  0  0
  -24.1680  -31.3936   20.1603 C   0  0  0  0  0  0  0  0  0  0  0  0
  -28.7752  -27.8270   16.9624 C   0  0  0  0  0  0  0  0  0  0  0  0
  -24.5657  -30.2423   19.4542 C   0  0  0  0  0  0  0  0  0  0  0  0
  -28.4876  -27.1007   15.7979 C   0  0  0  0  0  0  0  0  0  0  0  0
  -29.5953  -17.5505   20.4415 C   0  0  0  0  0  0  0  0  0  0  0  0
  -30.1159  -17.6838   19.1544 C   0  0  0  0  0  0  0  0  0  0  0  0
  -30.0774  -20.0882   19.3878 C   0  0  0  0  0  0  0  0  0  0  0  0
  -22.2796   -8.1945   21.3417 C   0  0  0  0  0  0  0  0  0  0  0  0
  -29.0215  -25.0376   16.9677 C   0  0  0  0  0  0  0  0  0  0  0  0
  -22.1532   -5.9827   22.1256 C   0  0  0  0  0  0  0  0  0  0  0  0
  -23.4011   -3.7868   23.3103 C   0  0  0  0  0  0  0  0  0  0  0  0
  -21.6686   -5.4706   23.3292 C   0  0  0  0  0  0  0  0  0  0  0  0
  -24.5965  -11.6827   20.7400 C   0  0  0  0  0  0  0  0  0  0  0  0
  -25.3117  -13.7599   20.6473 C   0  0  0  0  0  0  0  0  0  0  0  0
  -22.9924  -13.5232   21.5490 C   0  0  0  0  0  0  0  0  0  0  0  0
  -26.2898  -29.6709   16.2364 C   0  0  0  0  0  0  0  0  0  0  0  0
  -27.8844  -30.0487   13.4370 C   0  0  0  0  0  0  0  0  0  0  0  0
  -30.1630  -28.8219   11.2122 C   0  0  0  0  0  0  0  0  0  0  0  0
  -30.9636  -14.2711   20.9816 C   0  0  0  0  0  0  0  0  0  0  0  0
  -23.6328  -32.6130   19.4523 C   0  0  0  0  0  0  0  0  0  0  0  0
  -28.6782  -29.3280   16.9674 C   0  0  0  0  0  0  0  0  0  0  0  0
  -28.0436  -27.7799   14.5290 C   0  0  0  0  0  0  0  0  0  0  0  0
  -23.9710  -32.6507   17.9641 C   0  0  0  0  0  0  0  0  0  0  0  0
  -29.4790  -12.5040   18.0877 C   0  0  0  0  0  0  0  0  0  0  0  0
  -23.6890  -31.2980   17.3182 C   0  0  0  0  0  0  0  0  0  0  0  0
  -28.0687  -12.1841   18.5805 C   0  0  0  0  0  0  0  0  0  0  0  0
  -30.4758  -12.5924   19.2394 C   0  0  0  0  0  0  0  0  0  0  0  0
  -28.6674  -13.2281   20.8013 C   0  0  0  0  0  0  0  0  0  0  0  0
  -29.6105  -22.5502   19.1620 C   0  0  0  0  0  0  0  0  0  0  0  0
  -30.5671  -21.6802   17.5020 C   0  0  0  0  0  0  0  0  0  0  0  0
  -24.5560  -30.1975   17.9415 C   0  0  1  0  0  0  0  0  0  0  0  0
  -27.7393  -29.8697   15.8939 C   0  0  1  0  0  0  0  0  0  0  0  0
  -27.6297  -13.1779   19.6699 C   0  0  2  0  0  0  0  0  0  0  0  0
  -30.1220  -23.1130   17.8284 C   0  0  0  0  0  0  0  0  0  1  0  0
  -30.4244  -16.4825   18.3224 C   0  0  0  0  0  0  0  0  0  0  0  0
  -31.2283  -29.3347    8.9987 C   0  0  0  0  0  0  0  0  0  0  0  0
  -25.3308  -29.1816   12.0098 C   0  0  0  0  0  0  0  0  0  0  0  0
  -26.6970  -28.7970    9.9473 C   0  0  0  0  0  0  0  0  0  0  0  0
  -26.5363  -31.0859   10.9260 C   0  0  0  0  0  0  0  0  0  0  0  0
  -31.5101  -16.3608   22.1708 C   0  0  0  0  0  0  0  0  0  0  0  0
  -32.8666  -28.9420   12.4102 C   0  0  0  0  0  0  0  0  0  0  0  0
  -29.3298  -16.2028   21.0275 C   0  0  0  0  0  0  0  0  0  0  0  0
  -27.9067  -29.3238   12.1130 C   0  0  1  0  0  0  0  0  0  0  0  0
  -31.3378  -29.4773   10.5088 C   0  0  2  0  0  0  0  0  0  0  0  0
  -26.6242  -29.5838   11.2733 C   0  0  0  0  0  0  0  0  0  0  0  0
  -25.8313  -11.5893   20.2394 N   0  0  0  0  0  0  0  0  0  0  0  0
  -26.2399  -12.8688   20.1949 N   0  0  0  0  0  0  0  0  0  0  0  0
  -30.3167  -21.3533   18.8627 N   0  0  0  0  0  0  0  0  0  0  0  0
  -27.9580  -29.2486   14.5860 N   0  0  0  0  0  0  0  0  0  0  0  0
  -30.0133  -13.5107   20.2805 N   0  0  0  0  0  0  0  0  0  0  0  0
  -25.5589  -15.0868   20.6717 N   0  0  0  0  0  0  0  0  0  0  0  0
  -21.9740  -12.6156   21.8708 N   0  0  0  0  0  0  0  0  0  0  0  0
  -25.9060  -30.2637   17.4241 N   0  0  0  0  0  0  0  0  0  0  0  0
  -29.1448  -29.7204   11.4512 N   0  0  0  0  0  0  0  0  0  0  0  0
  -30.5571  -15.5303   21.4483 N   0  0  0  0  0  0  0  0  0  0  0  0
  -32.6181  -28.8537   10.9482 N   0  3  0  0  0  0  0  0  0  0  0  0
  -22.7983  -14.7503   21.7219 O   0  0  0  0  0  0  0  0  0  0  0  0
  -25.5725  -29.0285   15.4785 O   0  0  0  0  0  0  0  0  0  0  0  0
  -27.8119  -31.2801   13.4511 O   0  0  0  0  0  0  0  0  0  0  0  0
  -30.1484  -27.6310   11.5157 O   0  0  0  0  0  0  0  0  0  0  0  0
  -32.1129  -13.8526   21.1709 O   0  0  0  0  0  0  0  0  0  0  0  0
  -21.5344   -7.0722   21.5359 O   0  0  0  0  0  0  0  0  0  0  0  0
  -29.1357  -23.6815   16.9680 O   0  0  0  0  0  0  0  0  0  1  0  0
  -23.9995   -2.7316   23.8782 F   0  0  0  0  0  0  0  0  0  0  0  0
  -20.6034   -6.0285   23.9205 F   0  0  0  0  0  0  0  0  0  0  0  0
  1  2  1  0  0  0  0
  1  5  2  0  0  0  0
  2  6  2  0  0  0  0
  3 10  2  0  0  0  0
  3 18  1  0  0  0  0
  4 11  1  0  0  0  0
  4 18  2  0  0  0  0
  5 20  1  0  0  0  0
  6 22  1  0  0  0  0
  7 12  2  0  0  0  0
  7 21  1  0  0  0  0
  8  9  2  0  0  0  0
  8 24  1  0  0  0  0
  9 26  1  0  0  0  0
 10 27  1  0  0  0  0
 11 27  2  0  0  0  0
 12 28  1  0  0  0  0
 13 14  2  0  0  0  0
 13 29  1  0  0  0  0
 14 30  1  0  0  0  0
 15 23  1  0  0  0  0
 15 28  2  0  0  0  0
 16 25  1  0  0  0  0
 16 26  2  0  0  0  0
 17 30  2  0  0  0  0
 17 31  1  0  0  0  0
 18 32  1  0  0  0  0
 19 32  1  0  0  0  0
 19 33  2  0  0  0  0
 19 34  1  0  0  0  0
 20 22  2  0  0  0  0
 20 39  1  0  0  0  0
 21 23  2  0  0  0  0
 21 40  1  0  0  0  0
 22 50  1  0  0  0  0
 23 41  1  0  0  0  0
 24 25  2  0  0  0  0
 24 61  1  0  0  0  0
 25 54  1  0  0  0  0
 26 67  1  0  0  0  0
 27 81  1  0  0  0  0
 28 82  1  0  0  0  0
 29 31  2  0  0  0  0
 29 81  1  0  0  0  0
 30 83  1  0  0  0  0
 31 84  1  0  0  0  0
 32 65  2  0  0  0  0
 33 66  1  0  0  0  0
 33 70  1  0  0  0  0
 34 71  1  0  0  0  0
 34 76  2  0  0  0  0
 35 51  1  0  0  0  0
 35 72  1  0  0  0  0
 35 77  2  0  0  0  0
 36 62  1  0  0  0  0
 36 68  1  0  0  0  0
 36 78  2  0  0  0  0
 37 63  1  0  0  0  0
 37 73  1  0  0  0  0
 37 79  2  0  0  0  0
 38 69  1  0  0  0  0
 38 74  1  0  0  0  0
 38 80  2  0  0  0  0
 39 42  1  0  0  0  0
 40 51  1  0  0  0  0
 41 68  1  0  0  0  0
 42 44  1  0  0  0  0
 43 45  1  0  0  0  0
 43 46  1  0  0  0  0
 44 50  1  0  0  0  0
 45 52  1  0  0  0  0
 46 69  1  0  0  0  0
 47 52  1  0  0  0  0
 47 69  1  0  0  0  0
 48 53  1  0  0  0  0
 48 67  1  0  0  0  0
 49 53  1  0  0  0  0
 49 67  1  0  0  0  0
 50 72  1  0  0  0  0
 51 68  1  0  0  0  0
 52 66  1  0  0  0  0
 53 82  1  0  0  0  0
 55 63  1  0  0  0  0
 56 64  1  0  0  0  0
 57 64  1  0  0  0  0
 58 64  1  0  0  0  0
 59 74  1  0  0  0  0
 60 75  1  0  0  0  0
 61 74  1  0  0  0  0
 62 64  1  0  0  0  0
 62 73  1  0  0  0  0
 63 75  1  0  0  0  0
 65 66  1  0  0  0  0
M  CHG  1  75   1
M  ISO  4  38 100  53 101  74 100  82 101
M  END
> <Batch ID>
0027

> <Smiles>
CNC(C)C(=O)NC(C(=O)N1Cc2cc([101O:1][101CH:1]3CN(c4ccc(C[100N:0](C)[100C:0](=O)N5CCCC(n6nc(-c7ccc(Oc8ccc(F)cc8F)cc7)c(C(N)=O)c6N)C5)c(C)c4)C3)ccc2CC1C(=O)NC1CCCc2ccccc21)C(C)(C)C

> <Shape>
0.277

> <Color>
0.199

> <Negative vol penalty>
0.000

$$$$

  -OEChem-04042321283D

 91101  0     1  0  0  0  0  0999 V2000
  -25.7226  -35.8331   18.2276 C   0  0  0  0  0  0  0  0  0  0  0  0
  -26.3630  -34.6694   18.6412 C   0  0  0  0  0  0  0  0  0  0  0  0
  -23.8614  -12.1118   20.1181 C   0  0  0  0  0  0  0  0  0  0  0  0
  -25.8206  -13.3154   20.8594 C   0  0  0  0  0  0  0  0  0  0  0  0
  -24.6006  -36.2924   18.9161 C   0  0  0  0  0  0  0  0  0  0  0  0
  -25.8823  -33.9647   19.7442 C   0  0  0  0  0  0  0  0  0  0  0  0
  -25.6959  -28.9703   18.9283 C   0  0  0  0  0  0  0  0  0  0  0  0
  -29.7883  -22.3140   18.7518 C   0  0  0  0  0  0  0  0  0  0  0  0
  -28.6517  -21.6350   18.3130 C   0  0  0  0  0  0  0  0  0  0  0  0
  -24.4897  -10.9035   20.4193 C   0  0  0  0  0  0  0  0  0  0  0  0
  -26.4489  -12.1071   21.1607 C   0  0  0  0  0  0  0  0  0  0  0  0
  -26.8965  -28.2664   19.0110 C   0  0  0  0  0  0  0  0  0  0  0  0
  -25.4416   -7.5155   21.3309 C   0  0  0  0  0  0  0  0  0  0  0  0
  -24.6990   -6.5504   22.0111 C   0  0  0  0  0  0  0  0  0  0  0  0
  -26.3162  -27.5503   21.2403 C   0  0  0  0  0  0  0  0  0  0  0  0
  -29.3628  -21.5674   21.0098 C   0  0  0  0  0  0  0  0  0  0  0  0
  -24.3931   -8.0837   23.8530 C   0  0  0  0  0  0  0  0  0  0  0  0
  -24.5269  -13.3178   20.3380 C   0  0  0  0  0  0  0  0  0  0  0  0
  -22.6778  -15.0597   20.5710 C   0  0  0  0  0  0  0  0  0  0  0  0
  -24.1001  -35.5877   20.0223 C   0  0  0  0  0  0  0  0  0  0  0  0
  -24.7998  -28.9784   20.0070 C   0  0  0  0  0  0  0  0  0  0  0  0
  -24.7533  -34.4157   20.4490 C   0  0  0  0  0  0  0  0  0  0  0  0
  -25.1037  -28.2529   21.1678 C   0  0  0  0  0  0  0  0  0  0  0  0
  -30.1439  -22.2802   20.1002 C   0  0  0  0  0  0  0  0  0  0  0  0
  -28.2261  -20.8884   20.5710 C   0  0  0  0  0  0  0  0  0  0  0  0
  -27.8706  -20.9222   19.2226 C   0  0  0  0  0  0  0  0  0  0  0  0
  -25.7835  -10.9011   20.9407 C   0  0  0  0  0  0  0  0  0  0  0  0
  -27.2081  -27.5586   20.1682 C   0  0  0  0  0  0  0  0  0  0  0  0
  -25.6600   -8.7648   21.9118 C   0  0  0  0  0  0  0  0  0  0  0  0
  -24.1748   -6.8344   23.2721 C   0  0  0  0  0  0  0  0  0  0  0  0
  -25.1358   -9.0488   23.1728 C   0  0  0  0  0  0  0  0  0  0  0  0
  -23.8786  -14.5663   20.0265 C   0  0  0  0  0  0  0  0  0  0  0  0
  -22.4937  -16.2727   19.9535 C   0  0  0  0  0  0  0  0  0  0  0  0
  -30.8655  -25.4284   20.5673 C   0  0  0  0  0  0  0  0  0  0  0  0
  -21.8068  -14.4740   21.5478 C   0  0  0  0  0  0  0  0  0  0  0  0
  -23.6044  -31.2236   21.9132 C   0  0  0  0  0  0  0  0  0  0  0  0
  -21.8014  -28.7680   23.0274 C   0  0  0  0  0  0  0  0  0  0  0  0
  -21.4374  -25.4016   23.4539 C   0  0  0  0  0  0  0  0  0  0  0  0
  -26.2464  -20.1866   17.4429 C   0  0  0  0  0  0  0  0  0  0  0  0
  -22.9126  -36.1488   20.7636 C   0  0  0  0  0  0  0  0  0  0  0  0
  -23.4967  -29.7207   19.8919 C   0  0  0  0  0  0  0  0  0  0  0  0
  -24.1665  -28.2131   22.3461 C   0  0  0  0  0  0  0  0  0  0  0  0
  -22.2434  -35.1404   21.6941 C   0  0  0  0  0  0  0  0  0  0  0  0
  -26.6800  -18.4428   22.9250 C   0  0  0  0  0  0  0  0  0  0  0  0
  -25.7555  -19.6347   23.0684 C   0  0  0  0  0  0  0  0  0  0  0  0
  -30.8921  -25.3456   23.5428 C   0  0  0  0  0  0  0  0  0  0  0  0
  -23.4767  -18.5875   15.8780 C   0  0  0  0  0  0  0  0  0  0  0  0
  -23.2899  -34.4033   22.5237 C   0  0  0  0  0  0  0  0  0  0  0  0
  -31.2177  -26.5940   22.7365 C   0  0  0  0  0  0  0  0  0  0  0  0
  -23.1523  -17.4233   16.8170 C   0  0  0  0  0  0  0  0  0  0  0  0
  -27.9396  -19.0633   22.3314 C   0  0  0  0  0  0  0  0  0  0  0  0
  -26.0370  -20.4332   21.8008 C   0  0  0  0  0  0  0  0  0  0  0  0
  -30.6640  -24.1040   22.6849 C   0  0  0  0  0  0  0  0  0  0  0  0
  -24.9808  -18.8377   15.7835 C   0  0  0  0  0  0  0  0  0  0  0  0
  -25.3389  -17.8480   18.0109 C   0  0  0  0  0  0  0  0  0  0  0  0
  -24.2471  -33.6101   21.6259 C   0  0  1  0  0  0  0  0  0  0  0  0
  -30.4758  -26.6358   21.4048 C   0  0  2  0  0  0  0  0  0  0  0  0
  -22.8927  -30.0810   21.2457 C   0  0  1  0  0  0  0  0  0  0  0  0
  -23.8322  -17.5996   18.1890 C   0  0  2  0  0  0  0  0  0  0  0  0
  -19.8772  -23.6973   24.4329 C   0  0  0  0  0  0  0  0  0  0  0  0
  -22.7776  -29.4864   25.8276 C   0  0  0  0  0  0  0  0  0  0  0  0
  -21.9835  -27.2428   26.6044 C   0  0  0  0  0  0  0  0  0  0  0  0
  -20.3522  -28.8929   25.6887 C   0  0  0  0  0  0  0  0  0  0  0  0
  -20.9987  -24.1212   20.8220 C   0  0  0  0  0  0  0  0  0  0  0  0
  -31.3675  -23.0113   20.5719 C   0  0  0  0  0  0  0  0  0  0  0  0
  -28.9608  -26.7334   21.5477 C   0  0  0  0  0  0  0  0  0  1  0  0
  -21.9584  -27.7348   24.1168 C   0  0  1  0  0  0  0  0  0  0  0  0
  -20.2674  -24.4728   23.1843 C   0  0  2  0  0  0  0  0  0  0  0  0
  -21.7867  -28.3413   25.5381 C   0  0  0  0  0  0  0  0  0  0  0  0
  -24.4190  -15.3978   19.1318 N   0  0  0  0  0  0  0  0  0  0  0  0
  -23.5538  -16.4259   19.1093 N   0  0  0  0  0  0  0  0  0  0  0  0
  -27.4519  -20.1752   21.5061 N   0  0  0  0  0  0  0  0  0  0  0  0
  -31.0303  -24.2392   21.2771 N   0  0  0  0  0  0  0  0  0  0  0  0
  -22.9076  -28.9599   22.1876 N   0  0  0  0  0  0  0  0  0  0  0  0
  -25.5556  -18.9992   17.1208 N   0  0  0  0  0  0  0  0  0  0  0  0
  -21.5299  -17.2124   20.0557 N   0  0  0  0  0  0  0  0  0  0  0  0
  -22.1454  -13.2225   22.0800 N   0  0  0  0  0  0  0  0  0  0  0  0
  -26.7205  -20.2405   18.7532 N   0  0  0  0  0  0  0  0  0  0  0  0
  -23.6178  -32.3889   21.1707 N   0  0  0  0  0  0  0  0  0  0  0  0
  -21.0152  -26.6664   23.8051 N   0  0  0  0  0  0  0  0  0  0  0  0
  -20.6173  -23.4960   22.1146 N   0  3  0  0  0  0  0  0  0  0  0  0
  -30.9959  -25.5409   19.3470 O   0  0  0  0  0  0  0  0  0  0  0  0
  -20.7507  -15.0362   21.9249 O   0  0  0  0  0  0  0  0  0  0  0  0
  -24.1032  -31.0605   23.0206 O   0  0  0  0  0  0  0  0  0  0  0  0
  -20.7340  -29.3771   22.9209 O   0  0  0  0  0  0  0  0  0  0  0  0
  -22.6088  -25.0403   23.3657 O   0  0  0  0  0  0  0  0  0  0  0  0
  -26.3820  -21.1006   16.6255 O   0  0  0  0  0  0  0  0  0  0  0  0
  -26.3968   -9.7222   21.2350 O   0  0  0  0  0  0  0  0  0  0  0  0
  -28.3796  -26.8712   20.2517 O   0  0  0  0  0  0  0  0  0  1  0  0
  -23.4604   -5.9080   23.9245 F   0  0  0  0  0  0  0  0  0  0  0  0
  -25.3413  -10.2476   23.7355 F   0  0  0  0  0  0  0  0  0  0  0  0
  1  2  1  0  0  0  0
  1  5  2  0  0  0  0
  2  6  2  0  0  0  0
  3 10  2  0  0  0  0
  3 18  1  0  0  0  0
  4 11  1  0  0  0  0
  4 18  2  0  0  0  0
  5 20  1  0  0  0  0
  6 22  1  0  0  0  0
  7 12  2  0  0  0  0
  7 21  1  0  0  0  0
  8  9  2  0  0  0  0
  8 24  1  0  0  0  0
  9 26  1  0  0  0  0
 10 27  1  0  0  0  0
 11 27  2  0  0  0  0
 12 28  1  0  0  0  0
 13 14  2  0  0  0  0
 13 29  1  0  0  0  0
 14 30  1  0  0  0  0
 15 23  1  0  0  0  0
 15 28  2  0  0  0  0
 16 24  2  0  0  0  0
 16 25  1  0  0  0  0
 17 30  2  0  0  0  0
 17 31  1  0  0  0  0
 18 32  1  0  0  0  0
 19 32  1  0  0  0  0
 19 33  2  0  0  0  0
 19 35  1  0  0  0  0
 20 22  2  0  0  0  0
 20 40  1  0  0  0  0
 21 23  2  0  0  0  0
 21 41  1  0  0  0  0
 22 56  1  0  0  0  0
 23 42  1  0  0  0  0
 24 65  1  0  0  0  0
 25 26  2  0  0  0  0
 25 72  1  0  0  0  0
 26 78  1  0  0  0  0
 27 88  1  0  0  0  0
 28 89  1  0  0  0  0
 29 31  2  0  0  0  0
 29 88  1  0  0  0  0
 30 90  1  0  0  0  0
 31 91  1  0  0  0  0
 32 70  2  0  0  0  0
 33 71  1  0  0  0  0
 33 76  1  0  0  0  0
 34 57  1  0  0  0  0
 34 73  1  0  0  0  0
 34 82  2  0  0  0  0
 35 77  1  0  0  0  0
 35 83  2  0  0  0  0
 36 58  1  0  0  0  0
 36 79  1  0  0  0  0
 36 84  2  0  0  0  0
 37 67  1  0  0  0  0
 37 74  1  0  0  0  0
 37 85  2  0  0  0  0
 38 68  1  0  0  0  0
 38 80  1  0  0  0  0
 38 86  2  0  0  0  0
 39 75  1  0  0  0  0
 39 78  1  0  0  0  0
 39 87  2  0  0  0  0
 40 43  1  0  0  0  0
 41 58  1  0  0  0  0
 42 74  1  0  0  0  0
 43 48  1  0  0  0  0
 44 45  1  0  0  0  0
 44 51  1  0  0  0  0
 45 52  1  0  0  0  0
 46 49  1  0  0  0  0
 46 53  1  0  0  0  0
 47 50  1  0  0  0  0
 47 54  1  0  0  0  0
 48 56  1  0  0  0  0
 49 57  1  0  0  0  0
 50 59  1  0  0  0  0
 51 72  1  0  0  0  0
 52 72  1  0  0  0  0
 53 73  1  0  0  0  0
 54 75  1  0  0  0  0
 55 59  1  0  0  0  0
 55 75  1  0  0  0  0
 56 79  1  0  0  0  0
 57 66  1  0  0  0  0
 58 74  1  0  0  0  0
 59 71  1  0  0  0  0
 60 68  1  0  0  0  0
 61 69  1  0  0  0  0
 62 69  1  0  0  0  0
 63 69  1  0  0  0  0
 64 81  1  0  0  0  0
 65 73  1  0  0  0  0
 66 89  1  0  0  0  0
 67 69  1  0  0  0  0
 67 80  1  0  0  0  0
 68 81  1  0  0  0  0
 70 71  1  0  0  0  0
M  CHG  1  81   1
M  ISO  4  39 100  66 101  78 100  89 101
M  END
> <Batch ID>
0027

> <Smiles>
CNC(C)C(=O)NC(C(=O)N1Cc2cc([101O:1][101CH2:1]C3CCCN(Cc4ccc([100NH:0][100C:0](=O)N5CCCC(n6nc(-c7ccc(Oc8ccc(F)cc8F)cc7)c(C(N)=O)c6N)C5)c(N5CCCC5)c4)C3=O)ccc2CC1C(=O)NC1CCCc2ccccc21)C(C)(C)C

> <Shape>
0.211

> <Color>
0.091

> <Negative vol penalty>
0.000

$$$$

  -OEChem-04042321283D

 85 94  0     1  0  0  0  0  0999 V2000
  -17.3446  -30.3008   20.0807 C   0  0  0  0  0  0  0  0  0  0  0  0
  -17.8215  -29.0205   20.3431 C   0  0  0  0  0  0  0  0  0  0  0  0
  -23.2145   -9.7857   20.0355 C   0  0  0  0  0  0  0  0  0  0  0  0
  -23.7959  -10.0486   22.3658 C   0  0  0  0  0  0  0  0  0  0  0  0
  -18.1948  -31.3990   20.2035 C   0  0  0  0  0  0  0  0  0  0  0  0
  -19.1494  -28.8375   20.7273 C   0  0  0  0  0  0  0  0  0  0  0  0
  -21.3060  -24.6481   24.6392 C   0  0  0  0  0  0  0  0  0  0  0  0
  -22.4992   -8.6288   20.3445 C   0  0  0  0  0  0  0  0  0  0  0  0
  -23.0804   -8.8917   22.6747 C   0  0  0  0  0  0  0  0  0  0  0  0
  -21.9127  -23.4079   24.4451 C   0  0  0  0  0  0  0  0  0  0  0  0
  -19.4818   -7.8402   21.6507 C   0  0  0  0  0  0  0  0  0  0  0  0
  -18.2187   -7.6871   21.0791 C   0  0  0  0  0  0  0  0  0  0  0  0
  -24.0818  -24.4448   24.6432 C   0  0  0  0  0  0  0  0  0  0  0  0
  -28.0344  -20.1153   22.5025 C   0  0  0  0  0  0  0  0  0  0  0  0
  -18.9531   -5.6537   20.0007 C   0  0  0  0  0  0  0  0  0  0  0  0
  -23.8629  -10.4956   21.0462 C   0  0  0  0  0  0  0  0  0  0  0  0
  -24.1144  -13.0105   20.7007 C   0  0  0  0  0  0  0  0  0  0  0  0
  -19.5312  -31.2303   20.5987 C   0  0  0  0  0  0  0  0  0  0  0  0
  -22.0842  -25.7996   24.8263 C   0  0  0  0  0  0  0  0  0  0  0  0
  -20.0187  -29.9343   20.8541 C   0  0  0  0  0  0  0  0  0  0  0  0
  -23.4826  -25.6979   24.8421 C   0  0  0  0  0  0  0  0  0  0  0  0
  -29.5286  -18.2174   22.5504 C   0  0  0  0  0  0  0  0  0  0  0  0
  -27.7301  -19.9097   23.8481 C   0  0  0  0  0  0  0  0  0  0  0  0
  -22.4321   -8.1818   21.6640 C   0  0  0  0  0  0  0  0  0  0  0  0
  -23.3008  -23.3066   24.4441 C   0  0  0  0  0  0  0  0  0  0  0  0
  -20.4806   -6.9001   21.3971 C   0  0  0  0  0  0  0  0  0  0  0  0
  -17.9543   -6.5938   20.2542 C   0  0  0  0  0  0  0  0  0  0  0  0
  -20.2163   -5.8069   20.5722 C   0  0  0  0  0  0  0  0  0  0  0  0
  -28.9336  -19.2691   21.8536 C   0  0  0  0  0  0  0  0  0  0  0  0
  -29.2244  -18.0119   23.8961 C   0  0  0  0  0  0  0  0  0  0  0  0
  -28.3251  -18.8581   24.5449 C   0  0  0  0  0  0  0  0  0  0  0  0
  -24.6025  -11.6904   20.7276 C   0  0  0  0  0  0  0  0  0  0  0  0
  -25.2011  -13.7713   20.3446 C   0  0  0  0  0  0  0  0  0  0  0  0
  -22.7965  -13.5050   20.9732 C   0  0  0  0  0  0  0  0  0  0  0  0
  -22.4587  -28.5342   23.2498 C   0  0  0  0  0  0  0  0  0  0  0  0
  -24.2931  -29.3081   25.8107 C   0  0  0  0  0  0  0  0  0  0  0  0
  -26.2078  -28.2479   28.4293 C   0  0  0  0  0  0  0  0  0  0  0  0
  -30.6105  -15.0562   20.8269 C   0  0  0  0  0  0  0  0  0  0  0  0
  -20.4252  -32.4428   20.6718 C   0  0  0  0  0  0  0  0  0  0  0  0
  -21.4141  -27.1257   25.0611 C   0  0  0  0  0  0  0  0  0  0  0  0
  -24.3627  -26.9007   25.0589 C   0  0  0  0  0  0  0  0  0  0  0  0
  -21.7178  -32.2006   21.4469 C   0  0  0  0  0  0  0  0  0  0  0  0
  -29.7526  -12.4030   18.6131 C   0  0  0  0  0  0  0  0  0  0  0  0
  -22.3654  -30.8907   21.0092 C   0  0  0  0  0  0  0  0  0  0  0  0
  -28.2988  -12.0861   18.9680 C   0  0  0  0  0  0  0  0  0  0  0  0
  -30.5659  -12.7805   19.8493 C   0  0  0  0  0  0  0  0  0  0  0  0
  -28.5366  -13.5530   21.0151 C   0  0  0  0  0  0  0  0  0  0  0  0
  -25.5914  -20.4295   25.0673 C   0  0  0  0  0  0  0  0  0  0  0  0
  -26.3977  -22.0400   23.9792 C   0  0  0  0  0  0  0  0  0  0  0  0
  -21.4462  -29.6976   21.2973 C   0  0  1  0  0  0  0  0  0  0  0  0
  -22.3100  -28.3149   24.7288 C   0  0  1  0  0  0  0  0  0  0  0  0
  -27.6629  -13.2210   19.7933 C   0  0  2  0  0  0  0  0  0  0  0  0
  -25.1620  -21.8913   24.8785 C   0  0  0  0  0  0  0  0  0  1  0  0
  -27.6071  -29.1137   30.3239 C   0  0  0  0  0  0  0  0  0  0  0  0
  -26.5283  -29.9850   23.8472 C   0  0  0  0  0  0  0  0  0  0  0  0
  -28.1379  -29.9159   25.7636 C   0  0  0  0  0  0  0  0  0  0  0  0
  -26.2892  -31.5906   25.7497 C   0  0  0  0  0  0  0  0  0  0  0  0
  -24.4752  -26.9571   30.4520 C   0  0  0  0  0  0  0  0  0  0  0  0
  -30.4978  -17.3166   21.8453 C   0  0  0  0  0  0  0  0  0  0  0  0
  -25.7524  -29.1553   26.1658 C   0  0  1  0  0  0  0  0  0  0  0  0
  -26.2243  -28.6504   29.8930 C   0  0  2  0  0  0  0  0  0  0  0  0
  -26.6607  -30.1392   25.3755 C   0  0  0  0  0  0  0  0  0  0  0  0
  -25.8985  -11.6133   20.4135 N   0  0  0  0  0  0  0  0  0  0  0  0
  -26.2338  -12.8946   20.1858 N   0  0  0  0  0  0  0  0  0  0  0  0
  -26.8302  -20.7745   24.4612 N   0  0  0  0  0  0  0  0  0  0  0  0
  -23.6604  -28.1761   25.2777 N   0  0  0  0  0  0  0  0  0  0  0  0
  -29.9095  -13.8630   20.5864 N   0  0  0  0  0  0  0  0  0  0  0  0
  -25.3645  -15.0978   20.1550 N   0  0  0  0  0  0  0  0  0  0  0  0
  -21.7979  -12.5867   21.3251 N   0  0  0  0  0  0  0  0  0  0  0  0
  -21.4900  -29.3536   22.7023 N   0  0  0  0  0  0  0  0  0  0  0  0
  -25.8369  -29.2973   27.6153 N   0  0  0  0  0  0  0  0  0  0  0  0
  -29.9130  -16.0331   21.5269 N   0  0  0  0  0  0  0  0  0  0  0  0
  -25.8256  -27.4991   30.7513 N   0  3  0  0  0  0  0  0  0  0  0  0
  -22.5088  -14.7232   20.8906 O   0  0  0  0  0  0  0  0  0  0  0  0
  -23.3846  -28.0008   22.6500 O   0  0  0  0  0  0  0  0  0  0  0  0
  -23.7332  -30.3898   26.0060 O   0  0  0  0  0  0  0  0  0  0  0  0
  -26.4986  -27.1170   28.0462 O   0  0  0  0  0  0  0  0  0  0  0  0
  -31.7702  -15.2395   20.4415 O   0  0  0  0  0  0  0  0  0  0  0  0
  -21.7339   -7.0531   21.9659 O   0  0  0  0  0  0  0  0  0  0  0  0
  -23.8955  -22.0974   24.2542 O   0  0  0  0  0  0  0  0  0  1  0  0
  -16.7408   -6.4461   19.7066 F   0  0  0  0  0  0  0  0  0  0  0  0
  -21.1715   -4.8998   20.3259 F   0  0  0  0  0  0  0  0  0  0  0  0
  -29.2822  -19.5619   20.1873 Cl  0  0  0  0  0  0  0  0  0  0  0  0
  -29.9793  -16.6942   24.7403 Cl  0  0  0  0  0  0  0  0  0  0  0  0
  -27.9258  -18.6239   26.2203 Cl  0  0  0  0  0  0  0  0  0  0  0  0
  1  2  1  0  0  0  0
  1  5  2  0  0  0  0
  2  6  2  0  0  0  0
  3  8  2  0  0  0  0
  3 16  1  0  0  0  0
  4  9  1  0  0  0  0
  4 16  2  0  0  0  0
  5 18  1  0  0  0  0
  6 20  1  0  0  0  0
  7 10  2  0  0  0  0
  7 19  1  0  0  0  0
  8 24  1  0  0  0  0
  9 24  2  0  0  0  0
 10 25  1  0  0  0  0
 11 12  2  0  0  0  0
 11 26  1  0  0  0  0
 12 27  1  0  0  0  0
 13 21  1  0  0  0  0
 13 25  2  0  0  0  0
 14 23  1  0  0  0  0
 14 29  2  0  0  0  0
 15 27  2  0  0  0  0
 15 28  1  0  0  0  0
 16 32  1  0  0  0  0
 17 32  1  0  0  0  0
 17 33  2  0  0  0  0
 17 34  1  0  0  0  0
 18 20  2  0  0  0  0
 18 39  1  0  0  0  0
 19 21  2  0  0  0  0
 19 40  1  0  0  0  0
 20 50  1  0  0  0  0
 21 41  1  0  0  0  0
 22 29  1  0  0  0  0
 22 30  2  0  0  0  0
 22 59  1  0  0  0  0
 23 31  2  0  0  0  0
 23 65  1  0  0  0  0
 24 79  1  0  0  0  0
 25 80  1  0  0  0  0
 26 28  2  0  0  0  0
 26 79  1  0  0  0  0
 27 81  1  0  0  0  0
 28 82  1  0  0  0  0
 29 83  1  0  0  0  0
 30 31  1  0  0  0  0
 30 84  1  0  0  0  0
 31 85  1  0  0  0  0
 32 63  2  0  0  0  0
 33 64  1  0  0  0  0
 33 68  1  0  0  0  0
 34 69  1  0  0  0  0
 34 74  2  0  0  0  0
 35 51  1  0  0  0  0
 35 70  1  0  0  0  0
 35 75  2  0  0  0  0
 36 60  1  0  0  0  0
 36 66  1  0  0  0  0
 36 76  2  0  0  0  0
 37 61  1  0  0  0  0
 37 71  1  0  0  0  0
 37 77  2  0  0  0  0
 38 67  1  0  0  0  0
 38 72  1  0  0  0  0
 38 78  2  0  0  0  0
 39 42  1  0  0  0  0
 40 51  1  0  0  0  0
 41 66  1  0  0  0  0
 42 44  1  0  0  0  0
 43 45  1  0  0  0  0
 43 46  1  0  0  0  0
 44 50  1  0  0  0  0
 45 52  1  0  0  0  0
 46 67  1  0  0  0  0
 47 52  1  0  0  0  0
 47 67  1  0  0  0  0
 48 53  1  0  0  0  0
 48 65  1  0  0  0  0
 49 53  1  0  0  0  0
 49 65  1  0  0  0  0
 50 70  1  0  0  0  0
 51 66  1  0  0  0  0
 52 64  1  0  0  0  0
 53 80  1  0  0  0  0
 54 61  1  0  0  0  0
 55 62  1  0  0  0  0
 56 62  1  0  0  0  0
 57 62  1  0  0  0  0
 58 73  1  0  0  0  0
 59 72  1  0  0  0  0
 60 62  1  0  0  0  0
 60 71  1  0  0  0  0
 61 73  1  0  0  0  0
 63 64  1  0  0  0  0
M  CHG  1  73   1
M  ISO  4  38 100  53 101  72 100  80 101
M  END
> <Batch ID>
0027

> <Smiles>
CNC(C)C(=O)NC(C(=O)N1Cc2cc([101O:1][101CH:1]3CN(c4cc(Cl)c(C[100NH:0][100C:0](=O)N5CCCC(n6nc(-c7ccc(Oc8ccc(F)cc8F)cc7)c(C(N)=O)c6N)C5)c(Cl)c4Cl)C3)ccc2CC1C(=O)NC1CCCc2ccccc21)C(C)(C)C

> <Shape>
0.227

> <Color>
0.223

> <Negative vol penalty>
0.000

$$$$

  -OEChem-04042321283D

 81 90  0     1  0  0  0  0  0999 V2000
  -27.3850  -24.3911   17.4647 C   0  0  0  0  0  0  0  0  0  0  0  0
  -26.2247  -24.7688   18.1329 C   0  0  0  0  0  0  0  0  0  0  0  0
  -16.0224  -23.6976   22.1320 C   0  0  0  0  0  0  0  0  0  0  0  0
  -26.3218  -17.8412   20.9945 C   0  0  0  0  0  0  0  0  0  0  0  0
  -26.1393  -20.2348   21.2673 C   0  0  0  0  0  0  0  0  0  0  0  0
  -28.6291  -24.7931   17.9489 C   0  0  0  0  0  0  0  0  0  0  0  0
  -26.3079  -25.5480   19.2863 C   0  0  0  0  0  0  0  0  0  0  0  0
  -22.9444  -29.3335   19.3205 C   0  0  0  0  0  0  0  0  0  0  0  0
  -16.7122  -24.8720   22.4326 C   0  0  0  0  0  0  0  0  0  0  0  0
  -16.6932  -22.6262   21.5420 C   0  0  0  0  0  0  0  0  0  0  0  0
  -27.5466  -18.0082   20.3482 C   0  0  0  0  0  0  0  0  0  0  0  0
  -27.3641  -20.4018   20.6211 C   0  0  0  0  0  0  0  0  0  0  0  0
  -21.6265  -29.0115   19.6419 C   0  0  0  0  0  0  0  0  0  0  0  0
  -28.6405  -18.8926   17.2749 C   0  0  0  0  0  0  0  0  0  0  0  0
  -28.8616  -18.1614   16.1079 C   0  0  0  0  0  0  0  0  0  0  0  0
  -21.9875  -29.8048   21.8912 C   0  0  0  0  0  0  0  0  0  0  0  0
  -18.7436  -23.9040   21.5531 C   0  0  0  0  0  0  0  0  0  0  0  0
  -30.7703  -17.0961   17.1370 C   0  0  0  0  0  0  0  0  0  0  0  0
  -25.6181  -18.9545   21.4540 C   0  0  0  0  0  0  0  0  0  0  0  0
  -24.1359  -18.6090   23.5012 C   0  0  0  0  0  0  0  0  0  0  0  0
  -28.7271  -25.5857   19.1034 C   0  0  0  0  0  0  0  0  0  0  0  0
  -23.7983  -29.8845   20.2868 C   0  0  0  0  0  0  0  0  0  0  0  0
  -27.5546  -25.9599   19.7872 C   0  0  0  0  0  0  0  0  0  0  0  0
  -23.3150  -30.1353   21.5789 C   0  0  0  0  0  0  0  0  0  0  0  0
  -18.0728  -24.9753   22.1431 C   0  0  0  0  0  0  0  0  0  0  0  0
  -18.0538  -22.7295   21.2526 C   0  0  0  0  0  0  0  0  0  0  0  0
  -28.0677  -19.2885   20.1616 C   0  0  0  0  0  0  0  0  0  0  0  0
  -21.1487  -29.2444   20.9282 C   0  0  0  0  0  0  0  0  0  0  0  0
  -29.4843  -18.7257   18.3730 C   0  0  0  0  0  0  0  0  0  0  0  0
  -29.9265  -17.2631   16.0389 C   0  0  0  0  0  0  0  0  0  0  0  0
  -30.5492  -17.8274   18.3041 C   0  0  0  0  0  0  0  0  0  0  0  0
  -24.3526  -18.7826   22.1212 C   0  0  0  0  0  0  0  0  0  0  0  0
  -22.7728  -18.4921   23.6227 C   0  0  0  0  0  0  0  0  0  0  0  0
  -25.0821  -18.5580   24.5773 C   0  0  0  0  0  0  0  0  0  0  0  0
  -26.5217  -28.9777   21.6523 C   0  0  0  0  0  0  0  0  0  0  0  0
  -26.3851  -31.9327   22.9833 C   0  0  0  0  0  0  0  0  0  0  0  0
  -24.4747  -34.5940   23.9396 C   0  0  0  0  0  0  0  0  0  0  0  0
  -18.1983  -20.4064   20.2888 C   0  0  0  0  0  0  0  0  0  0  0  0
  -30.0965  -25.9562   19.6154 C   0  0  0  0  0  0  0  0  0  0  0  0
  -25.2094  -30.2511   19.9168 C   0  0  0  0  0  0  0  0  0  0  0  0
  -24.1854  -30.7438   22.6469 C   0  0  0  0  0  0  0  0  0  0  0  0
  -30.0791  -27.0943   20.6327 C   0  0  0  0  0  0  0  0  0  0  0  0
  -18.9082  -17.0377   21.1970 C   0  0  0  0  0  0  0  0  0  0  0  0
  -28.9915  -26.8607   21.6764 C   0  0  0  0  0  0  0  0  0  0  0  0
  -20.3633  -17.0882   21.6684 C   0  0  0  0  0  0  0  0  0  0  0  0
  -18.6602  -17.9796   20.0201 C   0  0  0  0  0  0  0  0  0  0  0  0
  -20.5362  -19.4200   20.7094 C   0  0  0  0  0  0  0  0  0  0  0  0
  -18.2303  -27.4648   22.4717 C   0  0  0  0  0  0  0  0  0  0  0  0
  -20.0462  -26.5266   21.9716 C   0  0  0  0  0  0  0  0  0  0  0  0
  -27.6026  -26.8254   21.0276 C   0  0  1  0  0  0  0  0  0  0  0  0
  -26.1415  -30.3311   21.1218 C   0  0  1  0  0  0  0  0  0  0  0  0
  -20.8193  -18.5361   21.9351 C   0  0  2  0  0  0  0  0  0  0  0  0
  -19.6652  -27.9795   22.2903 C   0  0  0  0  0  0  0  0  0  1  0  0
  -24.6409  -36.8461   25.0341 C   0  0  0  0  0  0  0  0  0  0  0  0
  -26.6964  -30.5853   25.7031 C   0  0  0  0  0  0  0  0  0  0  0  0
  -25.9129  -32.7113   26.7682 C   0  0  0  0  0  0  0  0  0  0  0  0
  -28.0152  -32.6920   25.4255 C   0  0  0  0  0  0  0  0  0  0  0  0
  -23.4331  -35.9685   21.5345 C   0  0  0  0  0  0  0  0  0  0  0  0
  -25.7877  -32.5112   24.2432 C   0  0  1  0  0  0  0  0  0  0  0  0
  -24.6424  -36.0862   23.7168 C   0  0  2  0  0  0  0  0  0  0  0  0
  -26.5870  -32.1117   25.5157 C   0  0  0  0  0  0  0  0  0  0  0  0
  -23.2181  -18.7769   21.4163 N   0  0  0  0  0  0  0  0  0  0  0  0
  -22.2753  -18.5983   22.3572 N   0  0  0  0  0  0  0  0  0  0  0  0
  -18.7603  -26.1460   22.4434 N   0  0  0  0  0  0  0  0  0  0  0  0
  -25.5594  -31.0791   22.2380 N   0  0  0  0  0  0  0  0  0  0  0  0
  -19.1129  -19.3335   20.3468 N   0  0  0  0  0  0  0  0  0  0  0  0
  -21.9631  -18.3097   24.6874 N   0  0  0  0  0  0  0  0  0  0  0  0
  -26.4440  -18.6954   24.2764 N   0  0  0  0  0  0  0  0  0  0  0  0
  -18.7344  -21.6414   20.6522 N   0  0  0  0  0  0  0  0  0  0  0  0
  -27.1509  -28.1671   20.7269 N   0  0  0  0  0  0  0  0  0  0  0  0
  -25.6912  -33.9505   24.0257 N   0  0  0  0  0  0  0  0  0  0  0  0
  -23.5342  -36.6113   22.8700 N   0  3  0  0  0  0  0  0  0  0  0  0
  -24.7315  -18.3791   25.7683 O   0  0  0  0  0  0  0  0  0  0  0  0
  -26.2646  -28.6906   22.8156 O   0  0  0  0  0  0  0  0  0  0  0  0
  -27.5393  -32.2330   22.6681 O   0  0  0  0  0  0  0  0  0  0  0  0
  -23.3746  -34.0538   24.0321 O   0  0  0  0  0  0  0  0  0  0  0  0
  -17.0190  -20.2372   19.9686 O   0  0  0  0  0  0  0  0  0  0  0  0
  -29.2630  -19.4518   19.5312 O   0  0  0  0  0  0  0  0  0  0  0  0
  -19.8630  -28.9303   21.2447 O   0  0  0  0  0  0  0  0  0  1  0  0
  -30.1378  -16.5599   14.9187 F   0  0  0  0  0  0  0  0  0  0  0  0
  -31.3625  -17.6619   19.3562 F   0  0  0  0  0  0  0  0  0  0  0  0
  1  2  1  0  0  0  0
  1  6  2  0  0  0  0
  2  7  2  0  0  0  0
  3  9  2  0  0  0  0
  3 10  1  0  0  0  0
  4 11  2  0  0  0  0
  4 19  1  0  0  0  0
  5 12  1  0  0  0  0
  5 19  2  0  0  0  0
  6 21  1  0  0  0  0
  7 23  1  0  0  0  0
  8 13  2  0  0  0  0
  8 22  1  0  0  0  0
  9 25  1  0  0  0  0
 10 26  2  0  0  0  0
 11 27  1  0  0  0  0
 12 27  2  0  0  0  0
 13 28  1  0  0  0  0
 14 15  2  0  0  0  0
 14 29  1  0  0  0  0
 15 30  1  0  0  0  0
 16 24  1  0  0  0  0
 16 28  2  0  0  0  0
 17 25  2  0  0  0  0
 17 26  1  0  0  0  0
 18 30  2  0  0  0  0
 18 31  1  0  0  0  0
 19 32  1  0  0  0  0
 20 32  1  0  0  0  0
 20 33  2  0  0  0  0
 20 34  1  0  0  0  0
 21 23  2  0  0  0  0
 21 39  1  0  0  0  0
 22 24  2  0  0  0  0
 22 40  1  0  0  0  0
 23 50  1  0  0  0  0
 24 41  1  0  0  0  0
 25 64  1  0  0  0  0
 26 69  1  0  0  0  0
 27 78  1  0  0  0  0
 28 79  1  0  0  0  0
 29 31  2  0  0  0  0
 29 78  1  0  0  0  0
 30 80  1  0  0  0  0
 31 81  1  0  0  0  0
 32 62  2  0  0  0  0
 33 63  1  0  0  0  0
 33 67  1  0  0  0  0
 34 68  1  0  0  0  0
 34 73  2  0  0  0  0
 35 51  1  0  0  0  0
 35 70  1  0  0  0  0
 35 74  2  0  0  0  0
 36 59  1  0  0  0  0
 36 65  1  0  0  0  0
 36 75  2  0  0  0  0
 37 60  1  0  0  0  0
 37 71  1  0  0  0  0
 37 76  2  0  0  0  0
 38 66  1  0  0  0  0
 38 69  1  0  0  0  0
 38 77  2  0  0  0  0
 39 42  1  0  0  0  0
 40 51  1  0  0  0  0
 41 65  1  0  0  0  0
 42 44  1  0  0  0  0
 43 45  1  0  0  0  0
 43 46  1  0  0  0  0
 44 50  1  0  0  0  0
 45 52  1  0  0  0  0
 46 66  1  0  0  0  0
 47 52  1  0  0  0  0
 47 66  1  0  0  0  0
 48 53  1  0  0  0  0
 48 64  1  0  0  0  0
 49 53  1  0  0  0  0
 49 64  1  0  0  0  0
 50 70  1  0  0  0  0
 51 65  1  0  0  0  0
 52 63  1  0  0  0  0
 53 79  1  0  0  0  0
 54 60  1  0  0  0  0
 55 61  1  0  0  0  0
 56 61  1  0  0  0  0
 57 61  1  0  0  0  0
 58 72  1  0  0  0  0
 59 61  1  0  0  0  0
 59 71  1  0  0  0  0
 60 72  1  0  0  0  0
 62 63  1  0  0  0  0
M  CHG  1  72   1
M  ISO  4  38 100  53 101  69 100  79 101
M  END
> <Batch ID>
0027

> <Smiles>
CNC(C)C(=O)NC(C(=O)N1Cc2cc([101O:1][101CH:1]3CN(c4cccc([100NH:0][100C:0](=O)N5CCCC(n6nc(-c7ccc(Oc8ccc(F)cc8F)cc7)c(C(N)=O)c6N)C5)c4)C3)ccc2CC1C(=O)NC1CCCc2ccccc21)C(C)(C)C

> <Shape>
0.247

> <Color>
0.064

> <Negative vol penalty>
0.000

$$$$

  -OEChem-04042321283D

 83 92  0     1  0  0  0  0  0999 V2000
  -20.0563  -18.9818   25.8071 C   0  0  0  0  0  0  0  0  0  0  0  0
  -21.4278  -19.1323   25.6292 C   0  0  0  0  0  0  0  0  0  0  0  0
  -22.9968   -9.9725   19.9885 C   0  0  0  0  0  0  0  0  0  0  0  0
  -23.7669   -9.9712   22.2785 C   0  0  0  0  0  0  0  0  0  0  0  0
  -19.1763  -19.3799   24.8016 C   0  0  0  0  0  0  0  0  0  0  0  0
  -21.9203  -19.6799   24.4451 C   0  0  0  0  0  0  0  0  0  0  0  0
  -25.5537  -23.1129   25.2561 C   0  0  0  0  0  0  0  0  0  0  0  0
  -22.2006   -8.8589   20.2556 C   0  0  0  0  0  0  0  0  0  0  0  0
  -22.9707   -8.8576   22.5456 C   0  0  0  0  0  0  0  0  0  0  0  0
  -26.8279  -22.6329   25.5555 C   0  0  0  0  0  0  0  0  0  0  0  0
  -22.6172   -5.5208   20.5847 C   0  0  0  0  0  0  0  0  0  0  0  0
  -22.6310   -4.4780   19.6585 C   0  0  0  0  0  0  0  0  0  0  0  0
  -27.4992  -23.0060   23.2687 C   0  0  0  0  0  0  0  0  0  0  0  0
  -32.1885  -18.0898   24.1065 C   0  0  0  0  0  0  0  0  0  0  0  0
  -32.3040  -16.3113   22.4754 C   0  0  0  0  0  0  0  0  0  0  0  0
  -20.2553   -4.7519   19.3147 C   0  0  0  0  0  0  0  0  0  0  0  0
  -23.7800  -10.5287   20.9999 C   0  0  0  0  0  0  0  0  0  0  0  0
  -24.2399  -13.0333   20.8476 C   0  0  0  0  0  0  0  0  0  0  0  0
  -19.6577  -19.9416   23.6085 C   0  0  0  0  0  0  0  0  0  0  0  0
  -25.2389  -23.5337   23.9559 C   0  0  0  0  0  0  0  0  0  0  0  0
  -21.0460  -20.0846   23.4222 C   0  0  0  0  0  0  0  0  0  0  0  0
  -26.2210  -23.4934   22.9560 C   0  0  0  0  0  0  0  0  0  0  0  0
  -30.8026  -18.1375   23.9564 C   0  0  0  0  0  0  0  0  0  0  0  0
  -30.9181  -16.3589   22.3253 C   0  0  0  0  0  0  0  0  0  0  0  0
  -22.1875   -8.3014   21.5342 C   0  0  0  0  0  0  0  0  0  0  0  0
  -27.8000  -22.5766   24.5611 C   0  0  0  0  0  0  0  0  0  0  0  0
  -21.4224   -6.1792   20.8760 C   0  0  0  0  0  0  0  0  0  0  0  0
  -21.4501   -4.0936   19.0235 C   0  0  0  0  0  0  0  0  0  0  0  0
  -20.2415   -5.7947   20.2410 C   0  0  0  0  0  0  0  0  0  0  0  0
  -30.1673  -17.2720   23.0658 C   0  0  0  0  0  0  0  0  0  0  0  0
  -32.9392  -17.1767   23.3660 C   0  0  0  0  0  0  0  0  0  0  0  0
  -24.6032  -11.6788   20.7244 C   0  0  0  0  0  0  0  0  0  0  0  0
  -25.3645  -13.7260   20.4707 C   0  0  0  0  0  0  0  0  0  0  0  0
  -22.9972  -13.6135   21.2654 C   0  0  0  0  0  0  0  0  0  0  0  0
  -23.1651  -22.5983   21.7359 C   0  0  0  0  0  0  0  0  0  0  0  0
  -24.2519  -25.2233   20.1706 C   0  0  0  0  0  0  0  0  0  0  0  0
  -26.7588  -27.4937   19.7147 C   0  0  0  0  0  0  0  0  0  0  0  0
  -30.8746  -14.5144   20.6100 C   0  0  0  0  0  0  0  0  0  0  0  0
  -18.6702  -20.3133   22.5309 C   0  0  0  0  0  0  0  0  0  0  0  0
  -23.8677  -24.0740   23.6555 C   0  0  0  0  0  0  0  0  0  0  0  0
  -25.9398  -23.9521   21.5493 C   0  0  0  0  0  0  0  0  0  0  0  0
  -19.2544  -21.2303   21.4594 C   0  0  0  0  0  0  0  0  0  0  0  0
  -29.6366  -12.1276   18.2760 C   0  0  0  0  0  0  0  0  0  0  0  0
  -20.6155  -20.7164   21.0011 C   0  0  0  0  0  0  0  0  0  0  0  0
  -28.1868  -11.9095   18.7151 C   0  0  0  0  0  0  0  0  0  0  0  0
  -30.5671  -12.3274   19.4710 C   0  0  0  0  0  0  0  0  0  0  0  0
  -28.7029  -13.1576   20.8512 C   0  0  0  0  0  0  0  0  0  0  0  0
  -28.8325  -19.6614   24.3127 C   0  0  0  0  0  0  0  0  0  0  0  0
  -30.5499  -20.1708   25.4167 C   0  0  0  0  0  0  0  0  0  0  0  0
  -21.6174  -20.6973   22.1619 C   0  0  1  0  0  0  0  0  0  0  0  0
  -23.5050  -23.9942   22.1758 C   0  0  1  0  0  0  0  0  0  0  0  0
  -27.7175  -13.0163   19.6796 C   0  0  2  0  0  0  0  0  0  0  0  0
  -29.1378  -20.7679   25.3322 C   0  0  0  0  0  0  0  0  0  1  0  0
  -27.3730  -29.5001   18.3383 C   0  0  0  0  0  0  0  0  0  0  0  0
  -24.8325  -23.4081   17.7878 C   0  0  0  0  0  0  0  0  0  0  0  0
  -26.2787  -25.2223   16.8469 C   0  0  0  0  0  0  0  0  0  0  0  0
  -23.8414  -25.6257   17.1927 C   0  0  0  0  0  0  0  0  0  0  0  0
  -26.9685  -29.2178   22.1110 C   0  0  0  0  0  0  0  0  0  0  0  0
  -25.3740  -25.5008   19.1996 C   0  0  1  0  0  0  0  0  0  0  0  0
  -26.7424  -29.0094   19.6322 C   0  0  2  0  0  0  0  0  0  0  0  0
  -25.0867  -24.9287   17.7827 C   0  0  0  0  0  0  0  0  0  0  0  0
  -25.8601  -11.5183   20.3021 N   0  0  0  0  0  0  0  0  0  0  0  0
  -26.2965  -12.7810   20.1566 N   0  0  0  0  0  0  0  0  0  0  0  0
  -30.0570  -19.0491   24.6957 N   0  0  0  0  0  0  0  0  0  0  0  0
  -24.5823  -24.4664   21.3036 N   0  0  0  0  0  0  0  0  0  0  0  0
  -30.0615  -13.3939   20.3380 N   0  0  0  0  0  0  0  0  0  0  0  0
  -25.6371  -15.0450   20.3805 N   0  0  0  0  0  0  0  0  0  0  0  0
  -21.9451  -12.7572   21.6180 N   0  0  0  0  0  0  0  0  0  0  0  0
  -30.2755  -15.4788   21.4197 N   0  0  0  0  0  0  0  0  0  0  0  0
  -22.1103  -22.0321   22.4261 N   0  0  0  0  0  0  0  0  0  0  0  0
  -25.5917  -26.9431   19.2287 N   0  0  0  0  0  0  0  0  0  0  0  0
  -27.4957  -29.5985   20.7752 N   0  3  0  0  0  0  0  0  0  0  0  0
  -22.8195  -14.8545   21.3087 O   0  0  0  0  0  0  0  0  0  0  0  0
  -23.8110  -22.0743   20.8360 O   0  0  0  0  0  0  0  0  0  0  0  0
  -23.1255  -25.6681   19.9362 O   0  0  0  0  0  0  0  0  0  0  0  0
  -27.7131  -26.8612   20.1617 O   0  0  0  0  0  0  0  0  0  0  0  0
  -32.0082  -14.6240   20.1357 O   0  0  0  0  0  0  0  0  0  0  0  0
  -21.4104   -7.2148   21.7952 O   0  0  0  0  0  0  0  0  0  0  0  0
  -29.0444  -22.1079   24.8504 O   0  0  0  0  0  0  0  0  0  1  0  0
  -21.4638   -3.0932   18.1329 F   0  0  0  0  0  0  0  0  0  0  0  0
  -19.0908   -6.4242   20.5158 F   0  0  0  0  0  0  0  0  0  0  0  0
  -28.8342  -17.3188   22.9210 F   0  0  0  0  0  0  0  0  0  0  0  0
  -34.6491  -17.1175   23.5513 Cl  0  0  0  0  0  0  0  0  0  0  0  0
  1  2  1  0  0  0  0
  1  5  2  0  0  0  0
  2  6  2  0  0  0  0
  3  8  2  0  0  0  0
  3 17  1  0  0  0  0
  4  9  1  0  0  0  0
  4 17  2  0  0  0  0
  5 19  1  0  0  0  0
  6 21  1  0  0  0  0
  7 10  2  0  0  0  0
  7 20  1  0  0  0  0
  8 25  1  0  0  0  0
  9 25  2  0  0  0  0
 10 26  1  0  0  0  0
 11 12  2  0  0  0  0
 11 27  1  0  0  0  0
 12 28  1  0  0  0  0
 13 22  1  0  0  0  0
 13 26  2  0  0  0  0
 14 23  1  0  0  0  0
 14 31  2  0  0  0  0
 15 24  2  0  0  0  0
 15 31  1  0  0  0  0
 16 28  2  0  0  0  0
 16 29  1  0  0  0  0
 17 32  1  0  0  0  0
 18 32  1  0  0  0  0
 18 33  2  0  0  0  0
 18 34  1  0  0  0  0
 19 21  2  0  0  0  0
 19 39  1  0  0  0  0
 20 22  2  0  0  0  0
 20 40  1  0  0  0  0
 21 50  1  0  0  0  0
 22 41  1  0  0  0  0
 23 30  2  0  0  0  0
 23 64  1  0  0  0  0
 24 30  1  0  0  0  0
 24 69  1  0  0  0  0
 25 78  1  0  0  0  0
 26 79  1  0  0  0  0
 27 29  2  0  0  0  0
 27 78  1  0  0  0  0
 28 80  1  0  0  0  0
 29 81  1  0  0  0  0
 30 82  1  0  0  0  0
 31 83  1  0  0  0  0
 32 62  2  0  0  0  0
 33 63  1  0  0  0  0
 33 67  1  0  0  0  0
 34 68  1  0  0  0  0
 34 73  2  0  0  0  0
 35 51  1  0  0  0  0
 35 70  1  0  0  0  0
 35 74  2  0  0  0  0
 36 59  1  0  0  0  0
 36 65  1  0  0  0  0
 36 75  2  0  0  0  0
 37 60  1  0  0  0  0
 37 71  1  0  0  0  0
 37 76  2  0  0  0  0
 38 66  1  0  0  0  0
 38 69  1  0  0  0  0
 38 77  2  0  0  0  0
 39 42  1  0  0  0  0
 40 51  1  0  0  0  0
 41 65  1  0  0  0  0
 42 44  1  0  0  0  0
 43 45  1  0  0  0  0
 43 46  1  0  0  0  0
 44 50  1  0  0  0  0
 45 52  1  0  0  0  0
 46 66  1  0  0  0  0
 47 52  1  0  0  0  0
 47 66  1  0  0  0  0
 48 53  1  0  0  0  0
 48 64  1  0  0  0  0
 49 53  1  0  0  0  0
 49 64  1  0  0  0  0
 50 70  1  0  0  0  0
 51 65  1  0  0  0  0
 52 63  1  0  0  0  0
 53 79  1  0  0  0  0
 54 60  1  0  0  0  0
 55 61  1  0  0  0  0
 56 61  1  0  0  0  0
 57 61  1  0  0  0  0
 58 72  1  0  0  0  0
 59 61  1  0  0  0  0
 59 71  1  0  0  0  0
 60 72  1  0  0  0  0
 62 63  1  0  0  0  0
M  CHG  1  72   1
M  ISO  4  38 100  53 101  69 100  79 101
M  END
> <Batch ID>
0027

> <Smiles>
CNC(C)C(=O)NC(C(=O)N1Cc2cc([101O:1][101CH:1]3CN(c4cc(Cl)cc([100NH:0][100C:0](=O)N5CCCC(n6nc(-c7ccc(Oc8ccc(F)cc8F)cc7)c(C(N)=O)c6N)C5)c4F)C3)ccc2CC1C(=O)NC1CCCc2ccccc21)C(C)(C)C

> <Shape>
0.191

> <Color>
0.203

> <Negative vol penalty>
0.000

$$$$

  -OEChem-04042321283D

 86 96  0     1  0  0  0  0  0999 V2000
  -30.8989  -35.4699   21.2841 C   0  0  0  0  0  0  0  0  0  0  0  0
  -30.7564  -34.1826   20.7762 C   0  0  0  0  0  0  0  0  0  0  0  0
  -23.4149  -15.3990   23.9170 C   0  0  0  0  0  0  0  0  0  0  0  0
  -22.5209  -16.2964   21.8597 C   0  0  0  0  0  0  0  0  0  0  0  0
  -30.2594  -35.8244   22.4713 C   0  0  0  0  0  0  0  0  0  0  0  0
  -29.9752  -33.2487   21.4558 C   0  0  0  0  0  0  0  0  0  0  0  0
  -26.5126  -28.8462   18.9791 C   0  0  0  0  0  0  0  0  0  0  0  0
  -28.1227  -20.3139   19.8961 C   0  0  0  0  0  0  0  0  0  0  0  0
  -28.6606  -19.1568   19.3287 C   0  0  0  0  0  0  0  0  0  0  0  0
  -22.4693  -16.1224   24.6435 C   0  0  0  0  0  0  0  0  0  0  0  0
  -21.5751  -17.0198   22.5863 C   0  0  0  0  0  0  0  0  0  0  0  0
  -26.7326  -27.4852   18.7713 C   0  0  0  0  0  0  0  0  0  0  0  0
  -21.4751  -19.8719   24.3990 C   0  0  0  0  0  0  0  0  0  0  0  0
  -21.2684  -21.2055   24.0464 C   0  0  0  0  0  0  0  0  0  0  0  0
  -26.7101  -20.5989   17.9706 C   0  0  0  0  0  0  0  0  0  0  0  0
  -25.5717  -26.9898   20.8270 C   0  0  0  0  0  0  0  0  0  0  0  0
  -18.9508  -20.7196   23.5671 C   0  0  0  0  0  0  0  0  0  0  0  0
  -23.4408  -15.4860   22.5250 C   0  0  0  0  0  0  0  0  0  0  0  0
  -24.2820  -13.4345   21.2635 C   0  0  0  0  0  0  0  0  0  0  0  0
  -29.4622  -34.8972   23.1607 C   0  0  0  0  0  0  0  0  0  0  0  0
  -25.8288  -29.2906   20.1199 C   0  0  0  0  0  0  0  0  0  0  0  0
  -29.3256  -33.5907   22.6540 C   0  0  0  0  0  0  0  0  0  0  0  0
  -27.2365  -19.4320   17.3907 C   0  0  0  0  0  0  0  0  0  0  0  0
  -25.3421  -28.3568   21.0457 C   0  0  0  0  0  0  0  0  0  0  0  0
  -27.1441  -21.0320   19.2203 C   0  0  0  0  0  0  0  0  0  0  0  0
  -28.2156  -18.6865   18.0809 C   0  0  0  0  0  0  0  0  0  0  0  0
  -21.5494  -16.9328   23.9782 C   0  0  0  0  0  0  0  0  0  0  0  0
  -26.2647  -26.5570   19.6968 C   0  0  0  0  0  0  0  0  0  0  0  0
  -20.4196  -18.9621   24.3357 C   0  0  0  0  0  0  0  0  0  0  0  0
  -20.0063  -21.6294   23.6304 C   0  0  0  0  0  0  0  0  0  0  0  0
  -19.1575  -19.3860   23.9197 C   0  0  0  0  0  0  0  0  0  0  0  0
  -24.4178  -14.7394   21.7739 C   0  0  0  0  0  0  0  0  0  0  0  0
  -25.4773  -13.1856   20.6345 C   0  0  0  0  0  0  0  0  0  0  0  0
  -23.1743  -12.5283   21.3502 C   0  0  0  0  0  0  0  0  0  0  0  0
  -26.5687  -31.1310   22.6037 C   0  0  0  0  0  0  0  0  0  0  0  0
  -23.4244  -30.7672   23.3130 C   0  0  0  0  0  0  0  0  0  0  0  0
  -20.5790  -28.9096   22.9965 C   0  0  0  0  0  0  0  0  0  0  0  0
  -29.6073  -16.5918   18.1619 C   0  0  0  0  0  0  0  0  0  0  0  0
  -28.8289  -35.3125   24.4650 C   0  0  0  0  0  0  0  0  0  0  0  0
  -25.5763  -30.7604   20.3159 C   0  0  0  0  0  0  0  0  0  0  0  0
  -26.7605  -19.0519   16.0119 C   0  0  0  0  0  0  0  0  0  0  0  0
  -24.5845  -28.7810   22.2764 C   0  0  0  0  0  0  0  0  0  0  0  0
  -27.7157  -34.3757   24.9270 C   0  0  0  0  0  0  0  0  0  0  0  0
  -27.1610  -17.6353   15.6282 C   0  0  0  0  0  0  0  0  0  0  0  0
  -30.1109  -14.3536   20.7818 C   0  0  0  0  0  0  0  0  0  0  0  0
  -28.1580  -32.9208   24.8066 C   0  0  0  0  0  0  0  0  0  0  0  0
  -28.6991  -14.0650   21.2927 C   0  0  0  0  0  0  0  0  0  0  0  0
  -25.9670  -23.7826   21.3763 C   0  0  0  0  0  0  0  0  0  0  0  0
  -30.2746  -15.8266   20.4242 C   0  0  0  0  0  0  0  0  0  0  0  0
  -27.0181  -22.7146   21.0745 C   0  0  0  0  0  0  0  0  0  0  0  0
  -27.8603  -16.0414   19.9329 C   0  0  0  0  0  0  0  0  0  0  0  0
  -25.5874  -22.9999   19.1399 C   0  0  0  0  0  0  0  0  0  0  0  0
  -28.4666  -32.5569   23.3493 C   0  0  1  0  0  0  0  0  0  0  0  0
  -25.3171  -31.1330   21.7724 C   0  0  1  0  0  0  0  0  0  0  0  0
  -27.6368  -14.5600   20.2948 C   0  0  2  0  0  0  0  0  0  0  0  0
  -25.5416  -24.2643   19.9969 C   0  0  2  0  0  0  0  0  0  1  0  0
  -28.6027  -17.3283   16.0320 C   0  0  1  0  0  0  0  0  0  0  0  0
  -29.6331  -18.1422   15.2423 C   0  0  0  0  0  0  0  0  0  0  0  0
  -18.1772  -28.8462   23.7206 C   0  0  0  0  0  0  0  0  0  0  0  0
  -24.2871  -29.8239   26.0835 C   0  0  0  0  0  0  0  0  0  0  0  0
  -21.9848  -28.8952   26.4078 C   0  0  0  0  0  0  0  0  0  0  0  0
  -22.3030  -31.3463   26.0708 C   0  0  0  0  0  0  0  0  0  0  0  0
  -19.6121  -29.0644   20.2036 C   0  0  0  0  0  0  0  0  0  0  0  0
  -22.6172  -29.7752   24.1150 C   0  0  1  0  0  0  0  0  0  0  0  0
  -19.1543  -29.3008   22.6476 C   0  0  2  0  0  0  0  0  0  0  0  0
  -22.8139  -29.9519   25.6472 C   0  0  0  0  0  0  0  0  0  0  0  0
  -25.6059  -15.2816   21.4936 N   0  0  0  0  0  0  0  0  0  0  0  0
  -26.2274  -14.3126   20.8002 N   0  0  0  0  0  0  0  0  0  0  0  0
  -28.7684  -17.4965   17.4860 N   0  0  0  0  0  0  0  0  0  0  0  0
  -26.6151  -22.1767   19.7786 N   0  0  3  0  0  0  0  0  0  0  0  0
  -24.3685  -30.2296   22.4267 N   0  0  0  0  0  0  0  0  0  0  0  0
  -29.2439  -16.2537   19.4779 N   0  0  0  0  0  0  0  0  0  0  0  0
  -25.9495  -12.1149   19.9614 N   0  0  0  0  0  0  0  0  0  0  0  0
  -22.0229  -12.9439   22.0327 N   0  0  0  0  0  0  0  0  0  0  0  0
  -27.2403  -32.3386   22.6123 N   0  0  0  0  0  0  0  0  0  0  0  0
  -21.2353  -29.9183   23.6696 N   0  0  0  0  0  0  0  0  0  0  0  0
  -18.7503  -28.6843   21.3524 N   0  3  0  0  0  0  0  0  0  0  0  0
  -23.2107  -11.3778   20.8516 O   0  0  0  0  0  0  0  0  0  0  0  0
  -26.8998  -30.1099   23.1947 O   0  0  0  0  0  0  0  0  0  0  0  0
  -23.2197  -31.9745   23.4620 O   0  0  0  0  0  0  0  0  0  0  0  0
  -21.0603  -27.8171   22.7045 O   0  0  0  0  0  0  0  0  0  0  0  0
  -30.5754  -16.0680   17.5973 O   0  0  0  0  0  0  0  0  0  0  0  0
  -20.6262  -17.6386   24.6869 O   0  0  0  0  0  0  0  0  0  0  0  0
  -26.4822  -25.2060   19.4934 O   0  0  0  0  0  0  0  0  0  1  0  0
  -19.8076  -22.9104   23.2933 F   0  0  0  0  0  0  0  0  0  0  0  0
  -18.1394  -18.5168   23.8580 F   0  0  0  0  0  0  0  0  0  0  0  0
  1  2  1  0  0  0  0
  1  5  2  0  0  0  0
  2  6  2  0  0  0  0
  3 10  2  0  0  0  0
  3 18  1  0  0  0  0
  4 11  1  0  0  0  0
  4 18  2  0  0  0  0
  5 20  1  0  0  0  0
  6 22  1  0  0  0  0
  7 12  2  0  0  0  0
  7 21  1  0  0  0  0
  8  9  2  0  0  0  0
  8 25  1  0  0  0  0
  9 26  1  0  0  0  0
 10 27  1  0  0  0  0
 11 27  2  0  0  0  0
 12 28  1  0  0  0  0
 13 14  2  0  0  0  0
 13 29  1  0  0  0  0
 14 30  1  0  0  0  0
 15 23  1  0  0  0  0
 15 25  2  0  0  0  0
 16 24  1  0  0  0  0
 16 28  2  0  0  0  0
 17 30  2  0  0  0  0
 17 31  1  0  0  0  0
 18 32  1  0  0  0  0
 19 32  1  0  0  0  0
 19 33  2  0  0  0  0
 19 34  1  0  0  0  0
 20 22  2  0  0  0  0
 20 39  1  0  0  0  0
 21 24  2  0  0  0  0
 21 40  1  0  0  0  0
 22 53  1  0  0  0  0
 23 26  2  0  0  0  0
 23 41  1  0  0  0  0
 24 42  1  0  0  0  0
 25 70  1  0  0  0  0
 26 69  1  0  0  0  0
 27 83  1  0  0  0  0
 28 84  1  0  0  0  0
 29 31  2  0  0  0  0
 29 83  1  0  0  0  0
 30 85  1  0  0  0  0
 31 86  1  0  0  0  0
 32 67  2  0  0  0  0
 33 68  1  0  0  0  0
 33 73  1  0  0  0  0
 34 74  1  0  0  0  0
 34 78  2  0  0  0  0
 35 54  1  0  0  0  0
 35 75  1  0  0  0  0
 35 79  2  0  0  0  0
 36 64  1  0  0  0  0
 36 71  1  0  0  0  0
 36 80  2  0  0  0  0
 37 65  1  0  0  0  0
 37 76  1  0  0  0  0
 37 81  2  0  0  0  0
 38 69  1  0  0  0  0
 38 72  1  0  0  0  0
 38 82  2  0  0  0  0
 39 43  1  0  0  0  0
 40 54  1  0  0  0  0
 41 44  1  0  0  0  0
 42 71  1  0  0  0  0
 43 46  1  0  0  0  0
 44 57  1  0  0  0  0
 45 47  1  0  0  0  0
 45 49  1  0  0  0  0
 46 53  1  0  0  0  0
 47 55  1  0  0  0  0
 48 50  1  0  0  0  0
 48 56  1  0  0  0  0
 49 72  1  0  0  0  0
 50 70  1  0  0  0  0
 51 55  1  0  0  0  0
 51 72  1  0  0  0  0
 52 56  1  0  0  0  0
 52 70  1  0  0  0  0
 53 75  1  0  0  0  0
 54 71  1  0  0  0  0
 55 68  1  0  0  0  0
 56 84  1  0  0  0  0
 57 58  1  0  0  0  0
 57 69  1  0  0  0  0
 59 65  1  0  0  0  0
 60 66  1  0  0  0  0
 61 66  1  0  0  0  0
 62 66  1  0  0  0  0
 63 77  1  0  0  0  0
 64 66  1  0  0  0  0
 64 76  1  0  0  0  0
 65 77  1  0  0  0  0
 67 68  1  0  0  0  0
M  CHG  1  77   1
M  ISO  4  38 100  56 101  69 100  84 101
M  END
> <Batch ID>
0027

> <Smiles>
CNC(C)C(=O)NC(C(=O)N1Cc2cc([101O:1][101CH:1]3CCN(c4ccc5c(c4)CCC(C)[100N:0]5[100C:0](=O)N4CCCC(n5nc(-c6ccc(Oc7ccc(F)cc7F)cc6)c(C(N)=O)c5N)C4)C3)ccc2CC1C(=O)NC1CCCc2ccccc21)C(C)(C)C

> <Shape>
0.215

> <Color>
0.086

> <Negative vol penalty>
0.000

$$$$

  -OEChem-04042321283D

 85 94  0     1  0  0  0  0  0999 V2000
  -31.1083  -34.3515   20.1665 C   0  0  0  0  0  0  0  0  0  0  0  0
  -30.7790  -33.0319   20.4594 C   0  0  0  0  0  0  0  0  0  0  0  0
  -22.9455  -10.6474   20.3490 C   0  0  0  0  0  0  0  0  0  0  0  0
  -24.3463   -9.3476   21.8273 C   0  0  0  0  0  0  0  0  0  0  0  0
  -30.3157  -35.3908   20.6520 C   0  0  0  0  0  0  0  0  0  0  0  0
  -29.6575  -32.7510   21.2390 C   0  0  0  0  0  0  0  0  0  0  0  0
  -26.8748  -28.9666   19.3469 C   0  0  0  0  0  0  0  0  0  0  0  0
  -30.1082  -18.7823   20.2669 C   0  0  0  0  0  0  0  0  0  0  0  0
  -30.2247  -17.3998   20.1229 C   0  0  0  0  0  0  0  0  0  0  0  0
  -21.8739  -10.4926   21.2283 C   0  0  0  0  0  0  0  0  0  0  0  0
  -23.2746   -9.1928   22.7067 C   0  0  0  0  0  0  0  0  0  0  0  0
  -27.3378  -27.6686   19.5579 C   0  0  0  0  0  0  0  0  0  0  0  0
  -20.4932   -7.2840   22.9330 C   0  0  0  0  0  0  0  0  0  0  0  0
  -20.2637   -6.0120   23.4574 C   0  0  0  0  0  0  0  0  0  0  0  0
  -25.7758  -27.4139   21.3785 C   0  0  0  0  0  0  0  0  0  0  0  0
  -28.0861  -17.3365   19.0007 C   0  0  0  0  0  0  0  0  0  0  0  0
  -20.5797   -6.8761   25.6914 C   0  0  0  0  0  0  0  0  0  0  0  0
  -24.1817  -10.0748   20.6485 C   0  0  0  0  0  0  0  0  0  0  0  0
  -25.3533   -9.8173   18.3971 C   0  0  0  0  0  0  0  0  0  0  0  0
  -29.1785  -35.1220   21.4299 C   0  0  0  0  0  0  0  0  0  0  0  0
  -25.8647  -29.5027   20.1584 C   0  0  0  0  0  0  0  0  0  0  0  0
  -28.8498  -33.7877   21.7365 C   0  0  0  0  0  0  0  0  0  0  0  0
  -25.2999  -28.7181   21.1740 C   0  0  0  0  0  0  0  0  0  0  0  0
  -28.9806  -19.4419   19.7778 C   0  0  0  0  0  0  0  0  0  0  0  0
  -29.2137  -16.6769   19.4898 C   0  0  0  0  0  0  0  0  0  0  0  0
  -22.0384   -9.7654   22.4071 C   0  0  0  0  0  0  0  0  0  0  0  0
  -26.7903  -26.8930   20.5757 C   0  0  0  0  0  0  0  0  0  0  0  0
  -20.7661   -8.3520   23.7877 C   0  0  0  0  0  0  0  0  0  0  0  0
  -20.3069   -5.8081   24.8366 C   0  0  0  0  0  0  0  0  0  0  0  0
  -27.9696  -18.7190   19.1447 C   0  0  0  0  0  0  0  0  0  0  0  0
  -20.8093   -8.1481   25.1669 C   0  0  0  0  0  0  0  0  0  0  0  0
  -25.2890  -10.2338   19.7403 C   0  0  0  0  0  0  0  0  0  0  0  0
  -26.6050  -10.1981   17.9791 C   0  0  0  0  0  0  0  0  0  0  0  0
  -24.3695   -9.1462   17.5986 C   0  0  0  0  0  0  0  0  0  0  0  0
  -25.6669  -31.9603   22.1646 C   0  0  0  0  0  0  0  0  0  0  0  0
  -22.5343  -31.1243   22.2648 C   0  0  0  0  0  0  0  0  0  0  0  0
  -20.6292  -28.0643   22.4201 C   0  0  0  0  0  0  0  0  0  0  0  0
  -30.3851  -14.4645   19.7717 C   0  0  0  0  0  0  0  0  0  0  0  0
  -28.3792  -36.2805   21.9718 C   0  0  0  0  0  0  0  0  0  0  0  0
  -25.3577  -30.8952   19.9006 C   0  0  0  0  0  0  0  0  0  0  0  0
  -24.1993  -29.2398   22.0599 C   0  0  0  0  0  0  0  0  0  0  0  0
  -26.9953  -35.8820   22.4778 C   0  0  0  0  0  0  0  0  0  0  0  0
  -31.0330  -10.9662   19.6336 C   0  0  0  0  0  0  0  0  0  0  0  0
  -27.0853  -34.6358   23.3530 C   0  0  0  0  0  0  0  0  0  0  0  0
  -29.6397  -10.3438   19.5169 C   0  0  0  0  0  0  0  0  0  0  0  0
  -27.3923  -22.7741   20.2864 C   0  0  0  0  0  0  0  0  0  0  0  0
  -29.7595  -23.0947   19.5406 C   0  0  0  0  0  0  0  0  0  0  0  0
  -31.0317  -12.1928   20.5441 C   0  0  0  0  0  0  0  0  0  0  0  0
  -27.7159  -21.3359   20.6862 C   0  0  0  0  0  0  0  0  0  0  0  0
  -30.0787  -21.6538   19.9367 C   0  0  0  0  0  0  0  0  0  0  0  0
  -28.6451  -12.5964   20.0854 C   0  0  0  0  0  0  0  0  0  0  0  0
  -27.6270  -33.4415   22.5582 C   0  0  1  0  0  0  0  0  0  0  0  0
  -24.6830  -31.5203   21.1177 C   0  0  1  0  0  0  0  0  0  0  0  0
  -28.6233  -23.6788   20.3837 C   0  0  0  0  0  0  0  0  0  0  0  0
  -28.5833  -11.3960   19.1268 C   0  0  2  0  0  0  0  0  0  0  0  0
  -18.3031  -27.5488   21.6319 C   0  0  0  0  0  0  0  0  0  0  0  0
  -21.7251  -31.8044   25.1270 C   0  0  0  0  0  0  0  0  0  0  0  0
  -20.0583  -29.9390   25.0251 C   0  0  0  0  0  0  0  0  0  0  0  0
  -19.8545  -31.8777   23.4687 C   0  0  0  0  0  0  0  0  0  0  0  0
  -21.5671  -25.7948   20.7683 C   0  0  0  0  0  0  0  0  0  0  0  0
  -28.2903  -25.1007   19.9382 C   0  0  0  0  0  0  0  0  0  1  0  0
  -21.7035  -30.1907   23.1117 C   0  0  1  0  0  0  0  0  0  0  0  0
  -19.7870  -27.4608   21.3106 C   0  0  2  0  0  0  0  0  0  0  0  0
  -20.8629  -30.9480   24.1782 C   0  0  0  0  0  0  0  0  0  0  0  0
  -26.4106  -10.8332   20.1485 N   0  0  0  0  0  0  0  0  0  0  0  0
  -27.1916  -10.7959   19.0555 N   0  0  0  0  0  0  0  0  0  0  0  0
  -28.8658  -20.8301   19.9253 N   0  0  0  0  0  0  0  0  0  0  0  0
  -23.7419  -30.6093   21.7724 N   0  0  0  0  0  0  0  0  0  0  0  0
  -30.0090  -13.1477   20.1114 N   0  0  0  0  0  0  0  0  0  0  0  0
  -27.2501  -10.0764   16.7995 N   0  0  0  0  0  0  0  0  0  0  0  0
  -24.3622   -7.7447   17.5858 N   0  0  0  0  0  0  0  0  0  0  0  0
  -29.3323  -15.2725   19.3436 N   0  0  0  0  0  0  0  0  0  0  0  0
  -26.5914  -32.8838   21.7151 N   0  0  0  0  0  0  0  0  0  0  0  0
  -20.9109  -29.3929   22.1824 N   0  0  0  0  0  0  0  0  0  0  0  0
  -20.1409  -26.0267   21.1133 N   0  3  0  0  0  0  0  0  0  0  0  0
  -23.5325   -9.7709   16.9038 O   0  0  0  0  0  0  0  0  0  0  0  0
  -25.5920  -31.4974   23.2968 O   0  0  0  0  0  0  0  0  0  0  0  0
  -22.1235  -32.2659   22.0423 O   0  0  0  0  0  0  0  0  0  0  0  0
  -20.9969  -27.4223   23.4015 O   0  0  0  0  0  0  0  0  0  0  0  0
  -31.5591  -14.8392   19.8286 O   0  0  0  0  0  0  0  0  0  0  0  0
  -20.9930   -9.6144   23.2655 O   0  0  0  0  0  0  0  0  0  0  0  0
  -27.2409  -25.6260   20.7843 O   0  0  0  0  0  0  0  0  0  1  0  0
  -20.0850   -4.5869   25.3402 F   0  0  0  0  0  0  0  0  0  0  0  0
  -26.8811  -19.3430   18.6723 F   0  0  0  0  0  0  0  0  0  0  0  0
  -21.0697   -9.1705   25.9931 F   0  0  0  0  0  0  0  0  0  0  0  0
  1  2  1  0  0  0  0
  1  5  2  0  0  0  0
  2  6  2  0  0  0  0
  3 10  2  0  0  0  0
  3 18  1  0  0  0  0
  4 11  1  0  0  0  0
  4 18  2  0  0  0  0
  5 20  1  0  0  0  0
  6 22  1  0  0  0  0
  7 12  2  0  0  0  0
  7 21  1  0  0  0  0
  8  9  2  0  0  0  0
  8 24  1  0  0  0  0
  9 25  1  0  0  0  0
 10 26  1  0  0  0  0
 11 26  2  0  0  0  0
 12 27  1  0  0  0  0
 13 14  2  0  0  0  0
 13 28  1  0  0  0  0
 14 29  1  0  0  0  0
 15 23  1  0  0  0  0
 15 27  2  0  0  0  0
 16 25  2  0  0  0  0
 16 30  1  0  0  0  0
 17 29  2  0  0  0  0
 17 31  1  0  0  0  0
 18 32  1  0  0  0  0
 19 32  1  0  0  0  0
 19 33  2  0  0  0  0
 19 34  1  0  0  0  0
 20 22  2  0  0  0  0
 20 39  1  0  0  0  0
 21 23  2  0  0  0  0
 21 40  1  0  0  0  0
 22 52  1  0  0  0  0
 23 41  1  0  0  0  0
 24 30  2  0  0  0  0
 24 67  1  0  0  0  0
 25 72  1  0  0  0  0
 26 81  1  0  0  0  0
 27 82  1  0  0  0  0
 28 31  2  0  0  0  0
 28 81  1  0  0  0  0
 29 83  1  0  0  0  0
 30 84  1  0  0  0  0
 31 85  1  0  0  0  0
 32 65  2  0  0  0  0
 33 66  1  0  0  0  0
 33 70  1  0  0  0  0
 34 71  1  0  0  0  0
 34 76  2  0  0  0  0
 35 53  1  0  0  0  0
 35 73  1  0  0  0  0
 35 77  2  0  0  0  0
 36 62  1  0  0  0  0
 36 68  1  0  0  0  0
 36 78  2  0  0  0  0
 37 63  1  0  0  0  0
 37 74  1  0  0  0  0
 37 79  2  0  0  0  0
 38 69  1  0  0  0  0
 38 72  1  0  0  0  0
 38 80  2  0  0  0  0
 39 42  1  0  0  0  0
 40 53  1  0  0  0  0
 41 68  1  0  0  0  0
 42 44  1  0  0  0  0
 43 45  1  0  0  0  0
 43 48  1  0  0  0  0
 44 52  1  0  0  0  0
 45 55  1  0  0  0  0
 46 49  1  0  0  0  0
 46 54  1  0  0  0  0
 47 50  1  0  0  0  0
 47 54  1  0  0  0  0
 48 69  1  0  0  0  0
 49 67  1  0  0  0  0
 50 67  1  0  0  0  0
 51 55  1  0  0  0  0
 51 69  1  0  0  0  0
 52 73  1  0  0  0  0
 53 68  1  0  0  0  0
 54 61  1  0  0  0  0
 55 66  1  0  0  0  0
 56 63  1  0  0  0  0
 57 64  1  0  0  0  0
 58 64  1  0  0  0  0
 59 64  1  0  0  0  0
 60 75  1  0  0  0  0
 61 82  1  0  0  0  0
 62 64  1  0  0  0  0
 62 74  1  0  0  0  0
 63 75  1  0  0  0  0
 65 66  1  0  0  0  0
M  CHG  1  75   1
M  ISO  4  38 100  61 101  72 100  82 101
M  END
> <Batch ID>
0027

> <Smiles>
CNC(C)C(=O)NC(C(=O)N1Cc2cc([101O:1][101CH2:1]C3CCN(c4ccc([100NH:0][100C:0](=O)N5CCCC(n6nc(-c7ccc(Oc8ccc(F)cc8F)cc7)c(C(N)=O)c6N)C5)cc4F)CC3)ccc2CC1C(=O)NC1CCCc2ccccc21)C(C)(C)C

> <Shape>
0.298

> <Color>
0.091

> <Negative vol penalty>
0.000

$$$$

  -OEChem-04042321283D

 81 89  0     1  0  0  0  0  0999 V2000
  -31.0398  -11.2330   19.5367 C   0  0  0  0  0  0  0  0  0  0  0  0
  -30.7742  -12.5660   19.2399 C   0  0  0  0  0  0  0  0  0  0  0  0
  -24.7080  -29.0722   22.5609 C   0  0  0  0  0  0  0  0  0  0  0  0
  -24.2541  -29.6770   20.2663 C   0  0  0  0  0  0  0  0  0  0  0  0
  -30.0200  -10.4091   20.0111 C   0  0  0  0  0  0  0  0  0  0  0  0
  -29.4883  -13.0755   19.4163 C   0  0  0  0  0  0  0  0  0  0  0  0
  -29.4864  -17.5996   21.6917 C   0  0  0  0  0  0  0  0  0  0  0  0
  -25.3930  -30.2736   22.7422 C   0  0  0  0  0  0  0  0  0  0  0  0
  -24.9391  -30.8785   20.4475 C   0  0  0  0  0  0  0  0  0  0  0  0
  -29.8098  -18.7066   20.9081 C   0  0  0  0  0  0  0  0  0  0  0  0
  -24.6249  -33.5225   23.2787 C   0  0  0  0  0  0  0  0  0  0  0  0
  -24.3628  -34.2492   24.4400 C   0  0  0  0  0  0  0  0  0  0  0  0
  -27.4649  -19.2285   20.6885 C   0  0  0  0  0  0  0  0  0  0  0  0
  -26.6870  -34.0716   25.0756 C   0  0  0  0  0  0  0  0  0  0  0  0
  -24.1386  -28.7738   21.3230 C   0  0  0  0  0  0  0  0  0  0  0  0
  -22.0595  -27.2958   21.3438 C   0  0  0  0  0  0  0  0  0  0  0  0
  -28.7231  -10.9113   20.2025 C   0  0  0  0  0  0  0  0  0  0  0  0
  -28.1471  -17.2921   21.9709 C   0  0  0  0  0  0  0  0  0  0  0  0
  -28.4498  -12.2572   19.8924 C   0  0  0  0  0  0  0  0  0  0  0  0
  -27.1273  -18.1186   21.4779 C   0  0  0  0  0  0  0  0  0  0  0  0
  -25.5085  -31.1768   21.6855 C   0  0  0  0  0  0  0  0  0  0  0  0
  -28.7988  -19.5195   20.4040 C   0  0  0  0  0  0  0  0  0  0  0  0
  -25.9180  -33.0702   23.0158 C   0  0  0  0  0  0  0  0  0  0  0  0
  -25.3939  -34.5239   25.3385 C   0  0  0  0  0  0  0  0  0  0  0  0
  -26.9490  -33.3448   23.9143 C   0  0  0  0  0  0  0  0  0  0  0  0
  -23.4314  -27.5326   21.1350 C   0  0  0  0  0  0  0  0  0  0  0  0
  -21.8877  -25.9703   21.0275 C   0  0  0  0  0  0  0  0  0  0  0  0
  -21.0321  -28.1938   21.7841 C   0  0  0  0  0  0  0  0  0  0  0  0
  -26.2347  -14.8299   21.3510 C   0  0  0  0  0  0  0  0  0  0  0  0
  -24.1655  -16.4622   23.2421 C   0  0  0  0  0  0  0  0  0  0  0  0
  -30.5614  -22.1027   18.4842 C   0  0  0  0  0  0  0  0  0  0  0  0
  -23.1852  -19.4558   24.5552 C   0  0  0  0  0  0  0  0  0  0  0  0
  -26.9839  -24.7109   19.0692 C   0  0  0  0  0  0  0  0  0  0  0  0
  -27.6423   -9.9703   20.6726 C   0  0  0  0  0  0  0  0  0  0  0  0
  -27.8162  -16.1098   22.8399 C   0  0  0  0  0  0  0  0  0  0  0  0
  -25.6748  -17.8434   21.7657 C   0  0  0  0  0  0  0  0  0  0  0  0
  -26.3949  -10.6839   21.1872 C   0  0  0  0  0  0  0  0  0  0  0  0
  -25.1489  -23.3543   22.0042 C   0  0  0  0  0  0  0  0  0  0  0  0
  -25.9764  -11.7896   20.2233 C   0  0  0  0  0  0  0  0  0  0  0  0
  -23.7448  -23.1777   21.4275 C   0  0  0  0  0  0  0  0  0  0  0  0
  -30.2458  -26.1059   20.1551 C   0  0  0  0  0  0  0  0  0  0  0  0
  -26.2000  -23.1791   20.9185 C   0  0  0  0  0  0  0  0  0  0  0  0
  -24.6273  -23.9820   19.1884 C   0  0  0  0  0  0  0  0  0  0  0  0
  -28.2475  -25.3364   21.1942 C   0  0  0  0  0  0  0  0  0  0  0  0
  -27.0735  -12.8532   20.0941 C   0  0  1  0  0  0  0  0  0  0  0  0
  -26.3946  -15.5959   22.6337 C   0  0  1  0  0  0  0  0  0  0  0  0
  -23.4831  -24.0989   20.2179 C   0  0  2  0  0  0  0  0  0  0  0  0
  -29.2724  -26.4530   21.2688 C   0  0  2  0  0  0  0  0  0  0  0  0
  -29.3326  -25.5536   19.0541 C   0  0  1  0  0  0  0  0  0  0  0  0
  -21.4370  -20.4794   26.0362 C   0  0  0  0  0  0  0  0  0  0  0  0
  -22.1324  -16.2629   20.9757 C   0  0  0  0  0  0  0  0  0  0  0  0
  -20.8086  -18.0674   22.0980 C   0  0  0  0  0  0  0  0  0  0  0  0
  -21.1865  -15.8933   23.2612 C   0  0  0  0  0  0  0  0  0  0  0  0
  -25.2119  -20.3837   26.5021 C   0  0  0  0  0  0  0  0  0  0  0  0
  -30.4814  -20.9061   19.3479 C   0  0  0  0  0  0  0  0  0  1  0  0
  -30.0312  -24.4874   18.2201 C   0  0  0  0  0  0  0  0  0  0  0  0
  -23.1093  -17.5157   23.0109 C   0  0  1  0  0  0  0  0  0  0  0  0
  -22.8267  -19.8651   25.9724 C   0  0  2  0  0  0  0  0  0  0  0  0
  -21.8364  -16.9392   22.3292 C   0  0  0  0  0  0  0  0  0  0  0  0
  -24.0848  -26.4447   20.7185 N   0  0  0  0  0  0  0  0  0  0  0  0
  -23.1193  -25.5115   20.6630 N   0  0  0  0  0  0  0  0  0  0  0  0
  -25.4018  -16.6721   22.6149 N   0  0  0  0  0  0  0  0  0  0  0  0
  -25.9585  -24.0867   19.7949 N   0  0  0  0  0  0  0  0  0  0  0  0
  -28.1533  -25.0389   19.7619 N   0  0  0  0  0  0  0  0  0  0  0  0
  -20.8049  -25.1641   21.0284 N   0  0  0  0  0  0  0  0  0  0  0  0
  -21.3811  -29.5216   22.0659 N   0  0  0  0  0  0  0  0  0  0  0  0
  -31.1544  -21.9518   17.3056 N   0  0  0  0  0  0  0  0  0  0  0  0
  -27.0650  -13.7304   21.2451 N   0  0  0  0  0  0  0  0  0  0  0  0
  -22.8631  -18.1382   24.3072 N   0  0  0  0  0  0  0  0  0  0  0  0
  -30.0280  -23.2287   18.9615 N   0  3  0  0  0  0  0  0  0  0  0  0
  -23.8061  -20.8637   26.4866 N   0  3  0  0  0  0  0  0  0  0  0  0
  -19.8432  -27.8253   21.9394 O   0  0  0  0  0  0  0  0  0  0  0  0
  -25.4175  -15.2075   20.5196 O   0  0  0  0  0  0  0  0  0  0  0  0
  -23.9056  -15.4924   23.9588 O   0  0  0  0  0  0  0  0  0  0  0  0
  -23.6963  -20.2287   23.7478 O   0  0  0  0  0  0  0  0  0  0  0  0
  -26.8435  -24.9985   17.8735 O   0  0  0  0  0  0  0  0  0  0  0  0
  -26.1767  -32.3494   21.8620 O   0  0  0  0  0  0  0  0  0  0  0  0
  -29.1170  -20.6187   19.6253 O   0  0  0  0  0  0  0  0  0  1  0  0
  -25.1424  -35.2231   26.4529 F   0  0  0  0  0  0  0  0  0  0  0  0
  -28.1935  -32.9139   23.6665 F   0  0  0  0  0  0  0  0  0  0  0  0
  -28.6609  -27.6314   20.9750 F   0  0  0  0  0  0  0  0  0  0  0  0
  1  2  1  0  0  0  0
  1  5  2  0  0  0  0
  2  6  2  0  0  0  0
  3  8  2  0  0  0  0
  3 15  1  0  0  0  0
  4  9  1  0  0  0  0
  4 15  2  0  0  0  0
  5 17  1  0  0  0  0
  6 19  1  0  0  0  0
  7 10  2  0  0  0  0
  7 18  1  0  0  0  0
  8 21  1  0  0  0  0
  9 21  2  0  0  0  0
 10 22  1  0  0  0  0
 11 12  2  0  0  0  0
 11 23  1  0  0  0  0
 12 24  1  0  0  0  0
 13 20  1  0  0  0  0
 13 22  2  0  0  0  0
 14 24  2  0  0  0  0
 14 25  1  0  0  0  0
 15 26  1  0  0  0  0
 16 26  1  0  0  0  0
 16 27  2  0  0  0  0
 16 28  1  0  0  0  0
 17 19  2  0  0  0  0
 17 34  1  0  0  0  0
 18 20  2  0  0  0  0
 18 35  1  0  0  0  0
 19 45  1  0  0  0  0
 20 36  1  0  0  0  0
 21 77  1  0  0  0  0
 22 78  1  0  0  0  0
 23 25  2  0  0  0  0
 23 77  1  0  0  0  0
 24 79  1  0  0  0  0
 25 80  1  0  0  0  0
 26 60  2  0  0  0  0
 27 61  1  0  0  0  0
 27 65  1  0  0  0  0
 28 66  1  0  0  0  0
 28 72  2  0  0  0  0
 29 46  1  0  0  0  0
 29 68  1  0  0  0  0
 29 73  2  0  0  0  0
 30 57  1  0  0  0  0
 30 62  1  0  0  0  0
 30 74  2  0  0  0  0
 31 55  1  0  0  0  0
 31 67  1  0  0  0  0
 31 70  2  0  0  0  0
 32 58  1  0  0  0  0
 32 69  1  0  0  0  0
 32 75  2  0  0  0  0
 33 63  1  0  0  0  0
 33 64  1  0  0  0  0
 33 76  2  0  0  0  0
 34 37  1  0  0  0  0
 35 46  1  0  0  0  0
 36 62  1  0  0  0  0
 37 39  1  0  0  0  0
 38 40  1  0  0  0  0
 38 42  1  0  0  0  0
 39 45  1  0  0  0  0
 40 47  1  0  0  0  0
 41 48  1  0  0  0  0
 41 49  1  0  0  0  0
 42 63  1  0  0  0  0
 43 47  1  0  0  0  0
 43 63  1  0  0  0  0
 44 48  1  0  0  0  0
 44 64  1  0  0  0  0
 45 68  1  0  0  0  0
 46 62  1  0  0  0  0
 47 61  1  0  0  0  0
 48 81  1  0  0  0  0
 49 56  1  0  0  0  0
 49 64  1  0  0  0  0
 50 58  1  0  0  0  0
 51 59  1  0  0  0  0
 52 59  1  0  0  0  0
 53 59  1  0  0  0  0
 54 71  1  0  0  0  0
 55 78  1  0  0  0  0
 56 70  1  0  0  0  0
 57 59  1  0  0  0  0
 57 69  1  0  0  0  0
 58 71  1  0  0  0  0
 60 61  1  0  0  0  0
M  CHG  2  70   1  71   1
M  ISO  4  33 100  55 101  64 100  78 101
M  END
> <Batch ID>
0027

> <Smiles>
CNC(C)C(=O)NC(C(=O)N1Cc2cc([101O:1][101CH2:1]C(=N)NCC3CC(F)C[100N:0]3[100C:0](=O)N3CCCC(n4nc(-c5ccc(Oc6ccc(F)cc6F)cc5)c(C(N)=O)c4N)C3)ccc2CC1C(=O)NC1CCCc2ccccc21)C(C)(C)C

> <Shape>
0.244

> <Color>
0.070

> <Negative vol penalty>
0.000

$$$$

  -OEChem-04042321283D

 86 95  0     1  0  0  0  0  0999 V2000
  -28.1113  -35.6999   25.8801 C   0  0  0  0  0  0  0  0  0  0  0  0
  -28.5044  -34.4819   25.3347 C   0  0  0  0  0  0  0  0  0  0  0  0
  -22.8235   -9.9069   20.0044 C   0  0  0  0  0  0  0  0  0  0  0  0
  -24.4710   -9.2931   21.6615 C   0  0  0  0  0  0  0  0  0  0  0  0
  -26.7599  -35.9573   26.1066 C   0  0  0  0  0  0  0  0  0  0  0  0
  -27.5462  -33.5201   25.0165 C   0  0  0  0  0  0  0  0  0  0  0  0
  -27.7022  -29.5766   20.3335 C   0  0  0  0  0  0  0  0  0  0  0  0
  -28.1287  -19.1413   21.5057 C   0  0  0  0  0  0  0  0  0  0  0  0
  -28.2238  -20.4381   21.0010 C   0  0  0  0  0  0  0  0  0  0  0  0
  -22.2253   -8.6536   20.1349 C   0  0  0  0  0  0  0  0  0  0  0  0
  -23.8728   -8.0398   21.7921 C   0  0  0  0  0  0  0  0  0  0  0  0
  -28.0762  -28.2363   20.2480 C   0  0  0  0  0  0  0  0  0  0  0  0
  -21.1731   -6.7190   23.3372 C   0  0  0  0  0  0  0  0  0  0  0  0
  -20.9732   -6.2294   24.6279 C   0  0  0  0  0  0  0  0  0  0  0  0
  -25.7662  -27.5828   20.4844 C   0  0  0  0  0  0  0  0  0  0  0  0
  -29.3421  -19.5908   19.0342 C   0  0  0  0  0  0  0  0  0  0  0  0
  -22.3634   -4.3201   24.1189 C   0  0  0  0  0  0  0  0  0  0  0  0
  -23.9464  -10.2266   20.7676 C   0  0  0  0  0  0  0  0  0  0  0  0
  -23.9720  -12.7755   20.8695 C   0  0  0  0  0  0  0  0  0  0  0  0
  -25.7839  -35.0019   25.7821 C   0  0  0  0  0  0  0  0  0  0  0  0
  -26.3563  -29.9304   20.5063 C   0  0  0  0  0  0  0  0  0  0  0  0
  -26.1805  -33.7644   25.2401 C   0  0  0  0  0  0  0  0  0  0  0  0
  -25.3774  -28.9285   20.5692 C   0  0  0  0  0  0  0  0  0  0  0  0
  -28.6405  -18.0692   20.7747 C   0  0  0  0  0  0  0  0  0  0  0  0
  -29.2472  -18.2939   19.5389 C   0  0  0  0  0  0  0  0  0  0  0  0
  -28.8304  -20.6629   19.7652 C   0  0  0  0  0  0  0  0  0  0  0  0
  -22.7500   -7.7201   21.0287 C   0  0  0  0  0  0  0  0  0  0  0  0
  -27.1085  -27.2390   20.3263 C   0  0  0  0  0  0  0  0  0  0  0  0
  -21.9682   -6.0092   22.4373 C   0  0  0  0  0  0  0  0  0  0  0  0
  -21.5683   -5.0299   25.0187 C   0  0  0  0  0  0  0  0  0  0  0  0
  -22.5633   -4.8098   22.8282 C   0  0  0  0  0  0  0  0  0  0  0  0
  -24.5651  -11.5209   20.6328 C   0  0  0  0  0  0  0  0  0  0  0  0
  -24.9683  -13.6823   20.6019 C   0  0  0  0  0  0  0  0  0  0  0  0
  -22.6396  -13.0928   21.2934 C   0  0  0  0  0  0  0  0  0  0  0  0
  -24.7099  -31.4599   22.7543 C   0  0  0  0  0  0  0  0  0  0  0  0
  -22.2827  -31.1753   20.6213 C   0  0  0  0  0  0  0  0  0  0  0  0
  -20.9381  -29.5012   17.9686 C   0  0  0  0  0  0  0  0  0  0  0  0
  -30.4290  -15.0230   21.4385 C   0  0  0  0  0  0  0  0  0  0  0  0
  -24.3391  -35.3070   26.0890 C   0  0  0  0  0  0  0  0  0  0  0  0
  -25.9661  -31.3816   20.5699 C   0  0  0  0  0  0  0  0  0  0  0  0
  -23.9166  -29.2562   20.7341 C   0  0  0  0  0  0  0  0  0  0  0  0
  -23.3564  -34.3814   25.3762 C   0  0  0  0  0  0  0  0  0  0  0  0
  -29.4859  -13.0902   18.4257 C   0  0  0  0  0  0  0  0  0  0  0  0
  -23.7988  -32.9278   25.5106 C   0  0  0  0  0  0  0  0  0  0  0  0
  -28.1010  -12.5585   18.7911 C   0  0  0  0  0  0  0  0  0  0  0  0
  -29.6603  -23.8032   18.0219 C   0  0  0  0  0  0  0  0  0  0  0  0
  -30.3526  -13.3117   19.6616 C   0  0  0  0  0  0  0  0  0  0  0  0
  -29.5390  -22.2813   17.9852 C   0  0  0  0  0  0  0  0  0  0  0  0
  -28.4253  -23.1317   19.9585 C   0  0  0  0  0  0  0  0  0  0  0  0
  -28.3388  -13.6528   21.0553 C   0  0  0  0  0  0  0  0  0  0  0  0
  -25.1689  -32.7056   24.8587 C   0  0  1  0  0  0  0  0  0  0  0  0
  -24.6258  -31.6102   21.2617 C   0  0  1  0  0  0  0  0  0  0  0  0
  -28.4768  -24.2266   18.8869 C   0  0  1  0  0  0  0  0  0  0  0  0
  -27.4243  -13.4629   19.8358 C   0  0  2  0  0  0  0  0  0  0  0  0
  -29.8035  -17.1618   18.7392 C   0  0  0  0  0  0  0  0  0  0  0  0
  -18.9263  -29.4776   16.4689 C   0  0  0  0  0  0  0  0  0  0  0  0
  -20.6365  -29.9037   22.8536 C   0  0  0  0  0  0  0  0  0  0  0  0
  -19.0524  -29.0581   21.1089 C   0  0  0  0  0  0  0  0  0  0  0  0
  -19.3747  -31.5129   21.4138 C   0  0  0  0  0  0  0  0  0  0  0  0
  -30.5508  -17.1560   22.6692 C   0  0  0  0  0  0  0  0  0  0  0  0
  -22.5840  -29.9970   15.5595 C   0  0  0  0  0  0  0  0  0  0  0  0
  -28.5281  -16.6899   21.3362 C   0  0  0  0  0  0  0  0  0  0  0  0
  -28.6257  -25.6237   19.4633 C   0  0  0  0  0  0  0  0  0  1  0  0
  -21.2143  -30.1441   20.3487 C   0  0  1  0  0  0  0  0  0  0  0  0
  -20.3430  -29.9953   16.6625 C   0  0  2  0  0  0  0  0  0  0  0  0
  -20.0971  -30.1481   21.4301 C   0  0  0  0  0  0  0  0  0  0  0  0
  -25.8394  -11.6180   20.2445 N   0  0  0  0  0  0  0  0  0  0  0  0
  -26.0551  -12.9445   20.2351 N   0  0  0  0  0  0  0  0  0  0  0  0
  -28.9232  -21.9448   19.2663 N   0  0  3  0  0  0  0  0  0  0  0  0
  -23.5860  -30.6895   20.7977 N   0  0  0  0  0  0  0  0  0  0  0  0
  -29.6683  -14.1385   20.6563 N   0  0  0  0  0  0  0  0  0  0  0  0
  -25.0118  -15.0308   20.6467 N   0  0  0  0  0  0  0  0  0  0  0  0
  -22.3809  -13.1900   22.6675 N   0  0  0  0  0  0  0  0  0  0  0  0
  -25.0369  -32.6259   23.4197 N   0  0  0  0  0  0  0  0  0  0  0  0
  -20.7359  -30.4001   18.9945 N   0  0  0  0  0  0  0  0  0  0  0  0
  -29.7998  -16.2021   21.8656 N   0  0  0  0  0  0  0  0  0  0  0  0
  -21.1715  -29.5395   15.5106 N   0  3  0  0  0  0  0  0  0  0  0  0
  -21.7023  -13.2683   20.4784 O   0  0  0  0  0  0  0  0  0  0  0  0
  -24.4926  -30.3671   23.2647 O   0  0  0  0  0  0  0  0  0  0  0  0
  -21.9734  -32.3685   20.6686 O   0  0  0  0  0  0  0  0  0  0  0  0
  -21.5206  -28.4237   18.0697 O   0  0  0  0  0  0  0  0  0  0  0  0
  -31.6066  -14.7774   21.7300 O   0  0  0  0  0  0  0  0  0  0  0  0
  -22.1664   -6.4971   21.1566 O   0  0  0  0  0  0  0  0  0  0  0  0
  -27.4710  -25.9300   20.2438 O   0  0  0  0  0  0  0  0  0  1  0  0
  -21.3775   -4.5606   26.2587 F   0  0  0  0  0  0  0  0  0  0  0  0
  -23.3291   -4.1240   21.9685 F   0  0  0  0  0  0  0  0  0  0  0  0
  1  2  1  0  0  0  0
  1  5  2  0  0  0  0
  2  6  2  0  0  0  0
  3 10  2  0  0  0  0
  3 18  1  0  0  0  0
  4 11  1  0  0  0  0
  4 18  2  0  0  0  0
  5 20  1  0  0  0  0
  6 22  1  0  0  0  0
  7 12  2  0  0  0  0
  7 21  1  0  0  0  0
  8  9  2  0  0  0  0
  8 24  1  0  0  0  0
  9 26  1  0  0  0  0
 10 27  1  0  0  0  0
 11 27  2  0  0  0  0
 12 28  1  0  0  0  0
 13 14  2  0  0  0  0
 13 29  1  0  0  0  0
 14 30  1  0  0  0  0
 15 23  1  0  0  0  0
 15 28  2  0  0  0  0
 16 25  1  0  0  0  0
 16 26  2  0  0  0  0
 17 30  2  0  0  0  0
 17 31  1  0  0  0  0
 18 32  1  0  0  0  0
 19 32  1  0  0  0  0
 19 33  2  0  0  0  0
 19 34  1  0  0  0  0
 20 22  2  0  0  0  0
 20 39  1  0  0  0  0
 21 23  2  0  0  0  0
 21 40  1  0  0  0  0
 22 51  1  0  0  0  0
 23 41  1  0  0  0  0
 24 25  2  0  0  0  0
 24 62  1  0  0  0  0
 25 55  1  0  0  0  0
 26 69  1  0  0  0  0
 27 83  1  0  0  0  0
 28 84  1  0  0  0  0
 29 31  2  0  0  0  0
 29 83  1  0  0  0  0
 30 85  1  0  0  0  0
 31 86  1  0  0  0  0
 32 67  2  0  0  0  0
 33 68  1  0  0  0  0
 33 72  1  0  0  0  0
 34 73  1  0  0  0  0
 34 78  2  0  0  0  0
 35 52  1  0  0  0  0
 35 74  1  0  0  0  0
 35 79  2  0  0  0  0
 36 64  1  0  0  0  0
 36 70  1  0  0  0  0
 36 80  2  0  0  0  0
 37 65  1  0  0  0  0
 37 75  1  0  0  0  0
 37 81  2  0  0  0  0
 38 71  1  0  0  0  0
 38 76  1  0  0  0  0
 38 82  2  0  0  0  0
 39 42  1  0  0  0  0
 40 52  1  0  0  0  0
 41 70  1  0  0  0  0
 42 44  1  0  0  0  0
 43 45  1  0  0  0  0
 43 47  1  0  0  0  0
 44 51  1  0  0  0  0
 45 54  1  0  0  0  0
 46 48  1  0  0  0  0
 46 53  1  0  0  0  0
 47 71  1  0  0  0  0
 48 69  1  0  0  0  0
 49 53  1  0  0  0  0
 49 69  1  0  0  0  0
 50 54  1  0  0  0  0
 50 71  1  0  0  0  0
 51 74  1  0  0  0  0
 52 70  1  0  0  0  0
 53 63  1  0  0  0  0
 54 68  1  0  0  0  0
 56 65  1  0  0  0  0
 57 66  1  0  0  0  0
 58 66  1  0  0  0  0
 59 66  1  0  0  0  0
 60 76  1  0  0  0  0
 61 77  1  0  0  0  0
 62 76  1  0  0  0  0
 63 84  1  0  0  0  0
 64 66  1  0  0  0  0
 64 75  1  0  0  0  0
 65 77  1  0  0  0  0
 67 68  1  0  0  0  0
M  CHG  1  77   1
M  ISO  4  38 100  63 101  76 100  84 101
M  END
> <Batch ID>
0027

> <Smiles>
CNC(C)C(=O)NC(C(=O)N1Cc2cc([101O:1][101CH2:1]C3CCN(c4ccc(C[100N:0](C)[100C:0](=O)N5CCCC(n6nc(-c7ccc(Oc8ccc(F)cc8F)cc7)c(C(N)=O)c6N)C5)c(C)c4)C3)ccc2CC1C(=O)NC1CCCc2ccccc21)C(C)(C)C

> <Shape>
0.418

> <Color>
0.193

> <Negative vol penalty>
0.000

$$$$

  -OEChem-04042321283D

 84 93  0     1  0  0  0  0  0999 V2000
  -28.2846  -31.1019   27.6058 C   0  0  0  0  0  0  0  0  0  0  0  0
  -28.2025  -30.0734   26.6726 C   0  0  0  0  0  0  0  0  0  0  0  0
  -23.5585   -9.6873   19.8110 C   0  0  0  0  0  0  0  0  0  0  0  0
  -24.4058   -9.6582   22.0733 C   0  0  0  0  0  0  0  0  0  0  0  0
  -27.1725  -31.9044   27.8568 C   0  0  0  0  0  0  0  0  0  0  0  0
  -27.0076  -29.8461   25.9906 C   0  0  0  0  0  0  0  0  0  0  0  0
  -27.7147  -29.0787   21.0352 C   0  0  0  0  0  0  0  0  0  0  0  0
  -29.9594  -20.2160   21.0161 C   0  0  0  0  0  0  0  0  0  0  0  0
  -30.0509  -18.8292   20.8978 C   0  0  0  0  0  0  0  0  0  0  0  0
  -23.0551   -8.3978   19.9829 C   0  0  0  0  0  0  0  0  0  0  0  0
  -23.9024   -8.3688   22.2453 C   0  0  0  0  0  0  0  0  0  0  0  0
  -28.1688  -27.8199   20.6443 C   0  0  0  0  0  0  0  0  0  0  0  0
  -20.9104   -6.9277   22.8715 C   0  0  0  0  0  0  0  0  0  0  0  0
  -20.2276   -6.6529   24.0563 C   0  0  0  0  0  0  0  0  0  0  0  0
  -25.9164  -27.2008   20.0423 C   0  0  0  0  0  0  0  0  0  0  0  0
  -21.8408   -4.9347   24.5875 C   0  0  0  0  0  0  0  0  0  0  0  0
  -24.2339  -10.3175   20.8562 C   0  0  0  0  0  0  0  0  0  0  0  0
  -24.0922  -12.8631   20.9428 C   0  0  0  0  0  0  0  0  0  0  0  0
  -25.9662  -31.6929   27.1706 C   0  0  0  0  0  0  0  0  0  0  0  0
  -26.3539  -29.4048   20.9427 C   0  0  0  0  0  0  0  0  0  0  0  0
  -25.8778  -30.6457   26.2337 C   0  0  0  0  0  0  0  0  0  0  0  0
  -25.4479  -28.4653   20.4303 C   0  0  0  0  0  0  0  0  0  0  0  0
  -29.1353  -20.7801   21.9900 C   0  0  0  0  0  0  0  0  0  0  0  0
  -28.4026  -19.9572   22.8455 C   0  0  0  0  0  0  0  0  0  0  0  0
  -29.3182  -18.0064   21.7532 C   0  0  0  0  0  0  0  0  0  0  0  0
  -23.2270   -7.7386   21.2001 C   0  0  0  0  0  0  0  0  0  0  0  0
  -27.2693  -26.8797   20.1504 C   0  0  0  0  0  0  0  0  0  0  0  0
  -22.0584   -6.2059   22.5446 C   0  0  0  0  0  0  0  0  0  0  0  0
  -20.6928   -5.6564   24.9143 C   0  0  0  0  0  0  0  0  0  0  0  0
  -22.5236   -5.2095   23.4027 C   0  0  0  0  0  0  0  0  0  0  0  0
  -28.4940  -18.5704   22.7271 C   0  0  0  0  0  0  0  0  0  0  0  0
  -24.7546  -11.6492   20.6790 C   0  0  0  0  0  0  0  0  0  0  0  0
  -25.0077  -13.8325   20.6133 C   0  0  0  0  0  0  0  0  0  0  0  0
  -22.7679  -13.0937   21.4414 C   0  0  0  0  0  0  0  0  0  0  0  0
  -24.0941  -30.2125   23.0269 C   0  0  0  0  0  0  0  0  0  0  0  0
  -22.3337  -30.6841   20.3434 C   0  0  0  0  0  0  0  0  0  0  0  0
  -21.8272  -29.9619   17.0466 C   0  0  0  0  0  0  0  0  0  0  0  0
  -30.1846  -15.8799   20.7170 C   0  0  0  0  0  0  0  0  0  0  0  0
  -24.7770  -32.5561   27.5101 C   0  0  0  0  0  0  0  0  0  0  0  0
  -25.8841  -30.7763   21.3434 C   0  0  0  0  0  0  0  0  0  0  0  0
  -23.9800  -28.7729   20.2918 C   0  0  0  0  0  0  0  0  0  0  0  0
  -23.6591  -32.4881   26.4728 C   0  0  0  0  0  0  0  0  0  0  0  0
  -29.4356  -13.4921   18.1843 C   0  0  0  0  0  0  0  0  0  0  0  0
  -23.3739  -31.0395   26.0895 C   0  0  0  0  0  0  0  0  0  0  0  0
  -28.0965  -12.8996   18.6293 C   0  0  0  0  0  0  0  0  0  0  0  0
  -30.3449  -13.7954   19.3739 C   0  0  0  0  0  0  0  0  0  0  0  0
  -28.4001  -14.0338   20.8673 C   0  0  0  0  0  0  0  0  0  0  0  0
  -27.6355  -24.2564   21.8782 C   0  0  0  0  0  0  0  0  0  0  0  0
  -27.9091  -23.1576   20.1231 C   0  0  0  0  0  0  0  0  0  0  0  0
  -24.6066  -30.3836   25.4557 C   0  0  1  0  0  0  0  0  0  0  0  0
  -24.3985  -30.8220   21.6877 C   0  0  1  0  0  0  0  0  0  0  0  0
  -27.4249  -13.7720   19.7079 C   0  0  2  0  0  0  0  0  0  0  0  0
  -27.1872  -24.4828   20.4234 C   0  0  0  0  0  0  0  0  0  1  0  0
  -27.5151  -20.5425   23.8947 C   0  0  0  0  0  0  0  0  0  0  0  0
  -20.2861  -30.4710   15.1327 C   0  0  0  0  0  0  0  0  0  0  0  0
  -20.2275  -28.8359   21.5509 C   0  0  0  0  0  0  0  0  0  0  0  0
  -19.2068  -28.6264   19.2745 C   0  0  0  0  0  0  0  0  0  0  0  0
  -19.3060  -30.8530   20.3948 C   0  0  0  0  0  0  0  0  0  0  0  0
  -24.0212  -31.1281   15.4387 C   0  0  0  0  0  0  0  0  0  0  0  0
  -29.0534  -22.2743   22.0977 C   0  0  0  0  0  0  0  0  0  0  0  0
  -21.4315  -29.8240   19.4918 C   0  0  1  0  0  0  0  0  0  0  0  0
  -21.5721  -30.8566   15.8471 C   0  0  2  0  0  0  0  0  0  0  0  0
  -20.0703  -29.5281   20.1823 C   0  0  0  0  0  0  0  0  0  0  0  0
  -25.9950  -11.8284   20.2172 N   0  0  0  0  0  0  0  0  0  0  0  0
  -26.1194  -13.1663   20.1883 N   0  0  0  0  0  0  0  0  0  0  0  0
  -23.5684  -30.1254   20.7029 N   0  0  0  0  0  0  0  0  0  0  0  0
  -29.6431  -14.6291   20.3523 N   0  0  0  0  0  0  0  0  0  0  0  0
  -24.9622  -15.1812   20.6484 N   0  0  0  0  0  0  0  0  0  0  0  0
  -21.9598  -11.9853   21.7290 N   0  0  0  0  0  0  0  0  0  0  0  0
  -29.4132  -16.5980   21.6302 N   0  0  0  0  0  0  0  0  0  0  0  0
  -24.7564  -30.8117   24.0814 N   0  0  0  0  0  0  0  0  0  0  0  0
  -21.3142  -30.5036   18.2062 N   0  0  0  0  0  0  0  0  0  0  0  0
  -27.7927  -22.8262   21.5553 N   0  3  0  0  0  0  0  0  0  0  0  0
  -22.6979  -30.7547   14.8760 N   0  3  0  0  0  0  0  0  0  0  0  0
  -22.3087  -14.2487   21.6107 O   0  0  0  0  0  0  0  0  0  0  0  0
  -23.3147  -29.2696   23.0985 O   0  0  0  0  0  0  0  0  0  0  0  0
  -21.9599  -31.8129   20.6714 O   0  0  0  0  0  0  0  0  0  0  0  0
  -22.4190  -28.8880   16.9627 O   0  0  0  0  0  0  0  0  0  0  0  0
  -31.2402  -16.2962   20.2327 O   0  0  0  0  0  0  0  0  0  0  0  0
  -22.7357   -6.4805   21.3683 O   0  0  0  0  0  0  0  0  0  0  0  0
  -27.7098  -25.6500   19.7688 O   0  0  0  0  0  0  0  0  0  1  0  0
  -20.0378   -5.3937   26.0528 F   0  0  0  0  0  0  0  0  0  0  0  0
  -23.6267   -4.5135   23.0946 F   0  0  0  0  0  0  0  0  0  0  0  0
  -27.7887  -17.7799   23.5503 F   0  0  0  0  0  0  0  0  0  0  0  0
  1  2  1  0  0  0  0
  1  5  2  0  0  0  0
  2  6  2  0  0  0  0
  3 10  2  0  0  0  0
  3 17  1  0  0  0  0
  4 11  1  0  0  0  0
  4 17  2  0  0  0  0
  5 19  1  0  0  0  0
  6 21  1  0  0  0  0
  7 12  2  0  0  0  0
  7 20  1  0  0  0  0
  8  9  2  0  0  0  0
  8 23  1  0  0  0  0
  9 25  1  0  0  0  0
 10 26  1  0  0  0  0
 11 26  2  0  0  0  0
 12 27  1  0  0  0  0
 13 14  2  0  0  0  0
 13 28  1  0  0  0  0
 14 29  1  0  0  0  0
 15 22  1  0  0  0  0
 15 27  2  0  0  0  0
 16 29  2  0  0  0  0
 16 30  1  0  0  0  0
 17 32  1  0  0  0  0
 18 32  1  0  0  0  0
 18 33  2  0  0  0  0
 18 34  1  0  0  0  0
 19 21  2  0  0  0  0
 19 39  1  0  0  0  0
 20 22  2  0  0  0  0
 20 40  1  0  0  0  0
 21 50  1  0  0  0  0
 22 41  1  0  0  0  0
 23 24  2  0  0  0  0
 23 60  1  0  0  0  0
 24 31  1  0  0  0  0
 24 54  1  0  0  0  0
 25 31  2  0  0  0  0
 25 70  1  0  0  0  0
 26 80  1  0  0  0  0
 27 81  1  0  0  0  0
 28 30  2  0  0  0  0
 28 80  1  0  0  0  0
 29 82  1  0  0  0  0
 30 83  1  0  0  0  0
 31 84  1  0  0  0  0
 32 64  2  0  0  0  0
 33 65  1  0  0  0  0
 33 68  1  0  0  0  0
 34 69  1  0  0  0  0
 34 75  2  0  0  0  0
 35 51  1  0  0  0  0
 35 71  1  0  0  0  0
 35 76  2  0  0  0  0
 36 61  1  0  0  0  0
 36 66  1  0  0  0  0
 36 77  2  0  0  0  0
 37 62  1  0  0  0  0
 37 72  1  0  0  0  0
 37 78  2  0  0  0  0
 38 67  1  0  0  0  0
 38 70  1  0  0  0  0
 38 79  2  0  0  0  0
 39 42  1  0  0  0  0
 40 51  1  0  0  0  0
 41 66  1  0  0  0  0
 42 44  1  0  0  0  0
 43 45  1  0  0  0  0
 43 46  1  0  0  0  0
 44 50  1  0  0  0  0
 45 52  1  0  0  0  0
 46 67  1  0  0  0  0
 47 52  1  0  0  0  0
 47 67  1  0  0  0  0
 48 53  1  0  0  0  0
 48 73  1  0  0  0  0
 49 53  1  0  0  0  0
 49 73  1  0  0  0  0
 50 71  1  0  0  0  0
 51 66  1  0  0  0  0
 52 65  1  0  0  0  0
 53 81  1  0  0  0  0
 55 62  1  0  0  0  0
 56 63  1  0  0  0  0
 57 63  1  0  0  0  0
 58 63  1  0  0  0  0
 59 74  1  0  0  0  0
 60 73  1  0  0  0  0
 61 63  1  0  0  0  0
 61 72  1  0  0  0  0
 62 74  1  0  0  0  0
 64 65  1  0  0  0  0
M  CHG  2  73   1  74   1
M  ISO  4  38 100  53 101  70 100  81 101
M  END
> <Batch ID>
0027

> <Smiles>
CNC(C)C(=O)NC(C(=O)N1Cc2cc([101O:1][101CH:1]3CN(Cc4ccc([100NH:0][100C:0](=O)N5CCCC(n6nc(-c7ccc(Oc8ccc(F)cc8F)cc7)c(C(N)=O)c6N)C5)c(F)c4C)C3)ccc2CC1C(=O)NC1CCCc2ccccc21)C(C)(C)C

> <Shape>
0.336

> <Color>
0.173

> <Negative vol penalty>
0.000

$$$$

  -OEChem-04042321283D

 88 97  0     1  0  0  0  0  0999 V2000
  -16.9444  -31.9929   18.7887 C   0  0  0  0  0  0  0  0  0  0  0  0
  -18.1174  -31.8523   18.0540 C   0  0  0  0  0  0  0  0  0  0  0  0
  -24.6585   -8.3535   21.3120 C   0  0  0  0  0  0  0  0  0  0  0  0
  -26.7547   -7.4115   22.0574 C   0  0  0  0  0  0  0  0  0  0  0  0
  -16.9824  -32.5721   20.0564 C   0  0  0  0  0  0  0  0  0  0  0  0
  -19.3290  -32.2917   18.5863 C   0  0  0  0  0  0  0  0  0  0  0  0
  -27.5327  -18.9663   19.6523 C   0  0  0  0  0  0  0  0  0  0  0  0
  -24.8480  -27.7508   19.4870 C   0  0  0  0  0  0  0  0  0  0  0  0
  -26.5954  -17.9425   19.7896 C   0  0  0  0  0  0  0  0  0  0  0  0
  -23.9990   -7.7188   22.3645 C   0  0  0  0  0  0  0  0  0  0  0  0
  -26.0952   -6.7767   23.1099 C   0  0  0  0  0  0  0  0  0  0  0  0
  -26.0182  -26.9913   19.4942 C   0  0  0  0  0  0  0  0  0  0  0  0
  -22.8642   -4.6171   23.0831 C   0  0  0  0  0  0  0  0  0  0  0  0
  -21.6663   -3.9630   22.7958 C   0  0  0  0  0  0  0  0  0  0  0  0
  -29.3162  -17.3366   19.6762 C   0  0  0  0  0  0  0  0  0  0  0  0
  -27.2222  -28.8363   20.4913 C   0  0  0  0  0  0  0  0  0  0  0  0
  -20.5081   -5.3986   24.3561 C   0  0  0  0  0  0  0  0  0  0  0  0
  -26.0364   -8.1999   21.1584 C   0  0  0  0  0  0  0  0  0  0  0  0
  -26.4842   -8.6820   18.6938 C   0  0  0  0  0  0  0  0  0  0  0  0
  -28.8932  -18.6633   19.5956 C   0  0  0  0  0  0  0  0  0  0  0  0
  -18.1965  -33.0100   20.6084 C   0  0  0  0  0  0  0  0  0  0  0  0
  -24.8570  -29.0521   19.9967 C   0  0  0  0  0  0  0  0  0  0  0  0
  -19.3831  -32.8785   19.8620 C   0  0  0  0  0  0  0  0  0  0  0  0
  -26.0503  -29.5975   20.4982 C   0  0  0  0  0  0  0  0  0  0  0  0
  -27.0184  -16.6158   19.8702 C   0  0  0  0  0  0  0  0  0  0  0  0
  -28.3788  -16.3128   19.8135 C   0  0  0  0  0  0  0  0  0  0  0  0
  -24.7173   -6.9304   23.2634 C   0  0  0  0  0  0  0  0  0  0  0  0
  -27.2024  -27.5329   19.9949 C   0  0  0  0  0  0  0  0  0  0  0  0
  -22.8841   -5.6620   24.0070 C   0  0  0  0  0  0  0  0  0  0  0  0
  -20.4882   -4.3537   23.4323 C   0  0  0  0  0  0  0  0  0  0  0  0
  -21.7060   -6.0527   24.6435 C   0  0  0  0  0  0  0  0  0  0  0  0
  -26.7182   -8.8549   20.0711 C   0  0  0  0  0  0  0  0  0  0  0  0
  -27.3839   -9.5221   18.0845 C   0  0  0  0  0  0  0  0  0  0  0  0
  -25.5381   -7.8375   18.0248 C   0  0  0  0  0  0  0  0  0  0  0  0
  -22.9018  -32.1675   20.7370 C   0  0  0  0  0  0  0  0  0  0  0  0
  -24.7870  -31.7127   23.1139 C   0  0  0  0  0  0  0  0  0  0  0  0
  -29.6539  -24.7695   19.6204 C   0  0  0  0  0  0  0  0  0  0  0  0
  -26.2680  -31.5918   26.1847 C   0  0  0  0  0  0  0  0  0  0  0  0
  -30.1461  -14.5179   19.8501 C   0  0  0  0  0  0  0  0  0  0  0  0
  -18.1808  -33.6729   21.9631 C   0  0  0  0  0  0  0  0  0  0  0  0
  -23.6345  -29.9282   19.9526 C   0  0  0  0  0  0  0  0  0  0  0  0
  -26.0208  -31.0137   21.0045 C   0  0  0  0  0  0  0  0  0  0  0  0
  -19.5604  -33.7711   22.6091 C   0  0  0  0  0  0  0  0  0  0  0  0
  -31.6919  -11.5078   18.7425 C   0  0  0  0  0  0  0  0  0  0  0  0
  -29.7368  -20.5395   18.1215 C   0  0  0  0  0  0  0  0  0  0  0  0
  -29.8869  -20.7406   20.6451 C   0  0  0  0  0  0  0  0  0  0  0  0
  -20.5862  -34.2820   21.6023 C   0  0  0  0  0  0  0  0  0  0  0  0
  -30.5689  -10.4714   18.8264 C   0  0  0  0  0  0  0  0  0  0  0  0
  -30.7807  -21.6475   17.9705 C   0  0  0  0  0  0  0  0  0  0  0  0
  -30.9214  -21.8578   20.4924 C   0  0  0  0  0  0  0  0  0  0  0  0
  -31.6190  -12.5169   19.8871 C   0  0  0  0  0  0  0  0  0  0  0  0
  -29.1961  -12.1444   20.1316 C   0  0  0  0  0  0  0  0  0  0  0  0
  -29.9126  -19.7781   19.4460 C   0  0  0  0  0  0  0  0  0  0  0  0
  -20.7205  -33.3203   20.4154 C   0  0  1  0  0  0  0  0  0  0  0  0
  -23.5232  -30.8703   21.1646 C   0  0  1  0  0  0  0  0  0  0  0  0
  -29.1894  -11.1451   18.9632 C   0  0  2  0  0  0  0  0  0  0  0  0
  -30.7968  -22.6078   19.1627 C   0  0  0  0  0  0  0  0  0  0  0  0
  -25.9921  -15.5397   20.0179 C   0  0  0  0  0  0  0  0  0  0  0  0
  -26.9663  -33.0629   28.0940 C   0  0  0  0  0  0  0  0  0  0  0  0
  -27.1736  -32.6885   21.4844 C   0  0  0  0  0  0  0  0  0  0  0  0
  -28.2880  -33.3298   23.6327 C   0  0  0  0  0  0  0  0  0  0  0  0
  -26.1448  -34.4195   22.9675 C   0  0  0  0  0  0  0  0  0  0  0  0
  -24.4879  -30.1762   28.0784 C   0  0  0  0  0  0  0  0  0  0  0  0
  -28.2994  -25.4326   19.4890 C   0  0  0  0  0  0  0  0  0  1  0  0
  -26.1232  -32.0136   23.7443 C   0  0  1  0  0  0  0  0  0  0  0  0
  -25.8639  -32.1852   27.5222 C   0  0  2  0  0  0  0  0  0  0  0  0
  -26.9237  -33.0861   22.9528 C   0  0  0  0  0  0  0  0  0  0  0  0
  -27.6904   -9.7356   20.3224 N   0  0  0  0  0  0  0  0  0  0  0  0
  -28.0754  -10.1235   19.0947 N   0  0  0  0  0  0  0  0  0  0  0  0
  -24.8015  -31.2388   21.7965 N   0  0  0  0  0  0  0  0  0  0  0  0
  -30.2850  -13.1176   19.9529 N   0  0  0  0  0  0  0  0  0  0  0  0
  -27.6432   -9.7977   16.7887 N   0  0  0  0  0  0  0  0  0  0  0  0
  -25.9281   -6.5346   17.6861 N   0  0  0  0  0  0  0  0  0  0  0  0
  -28.8281  -14.9713   19.8930 N   0  0  0  0  0  0  0  0  0  0  0  0
  -21.5208  -32.1720   20.7834 N   0  0  0  0  0  0  0  0  0  0  0  0
  -29.6336  -23.4655   19.1507 N   0  0  0  0  0  0  0  0  0  0  0  0
  -25.8484  -32.3755   25.1306 N   0  0  0  0  0  0  0  0  0  0  0  0
  -25.5701  -31.1015   28.5021 N   0  3  0  0  0  0  0  0  0  0  0  0
  -24.3868   -8.2322   17.7213 O   0  0  0  0  0  0  0  0  0  0  0  0
  -23.6215  -33.0973   20.3917 O   0  0  0  0  0  0  0  0  0  0  0  0
  -23.7565  -31.8972   23.7676 O   0  0  0  0  0  0  0  0  0  0  0  0
  -30.6318  -25.3436   20.0914 O   0  0  0  0  0  0  0  0  0  0  0  0
  -26.8965  -30.5404   26.0850 O   0  0  0  0  0  0  0  0  0  0  0  0
  -31.1225  -15.2580   19.7053 O   0  0  0  0  0  0  0  0  0  0  0  0
  -24.0741   -6.3110   24.2907 O   0  0  0  0  0  0  0  0  0  0  0  0
  -28.3401  -26.7843   20.0031 O   0  0  0  0  0  0  0  0  0  1  0  0
  -19.3376   -3.7264   23.1551 F   0  0  0  0  0  0  0  0  0  0  0  0
  -21.7187   -7.0566   25.5311 F   0  0  0  0  0  0  0  0  0  0  0  0
  1  2  1  0  0  0  0
  1  5  2  0  0  0  0
  2  6  2  0  0  0  0
  3 10  2  0  0  0  0
  3 18  1  0  0  0  0
  4 11  1  0  0  0  0
  4 18  2  0  0  0  0
  5 21  1  0  0  0  0
  6 23  1  0  0  0  0
  7  9  2  0  0  0  0
  7 20  1  0  0  0  0
  8 12  2  0  0  0  0
  8 22  1  0  0  0  0
  9 25  1  0  0  0  0
 10 27  1  0  0  0  0
 11 27  2  0  0  0  0
 12 28  1  0  0  0  0
 13 14  2  0  0  0  0
 13 29  1  0  0  0  0
 14 30  1  0  0  0  0
 15 20  2  0  0  0  0
 15 26  1  0  0  0  0
 16 24  1  0  0  0  0
 16 28  2  0  0  0  0
 17 30  2  0  0  0  0
 17 31  1  0  0  0  0
 18 32  1  0  0  0  0
 19 32  1  0  0  0  0
 19 33  2  0  0  0  0
 19 34  1  0  0  0  0
 20 53  1  0  0  0  0
 21 23  2  0  0  0  0
 21 40  1  0  0  0  0
 22 24  2  0  0  0  0
 22 41  1  0  0  0  0
 23 54  1  0  0  0  0
 24 42  1  0  0  0  0
 25 26  2  0  0  0  0
 25 58  1  0  0  0  0
 26 74  1  0  0  0  0
 27 85  1  0  0  0  0
 28 86  1  0  0  0  0
 29 31  2  0  0  0  0
 29 85  1  0  0  0  0
 30 87  1  0  0  0  0
 31 88  1  0  0  0  0
 32 68  2  0  0  0  0
 33 69  1  0  0  0  0
 33 72  1  0  0  0  0
 34 73  1  0  0  0  0
 34 79  2  0  0  0  0
 35 55  1  0  0  0  0
 35 75  1  0  0  0  0
 35 80  2  0  0  0  0
 36 65  1  0  0  0  0
 36 70  1  0  0  0  0
 36 81  2  0  0  0  0
 37 64  1  0  0  0  0
 37 76  1  0  0  0  0
 37 82  2  0  0  0  0
 38 66  1  0  0  0  0
 38 77  1  0  0  0  0
 38 83  2  0  0  0  0
 39 71  1  0  0  0  0
 39 74  1  0  0  0  0
 39 84  2  0  0  0  0
 40 43  1  0  0  0  0
 41 55  1  0  0  0  0
 42 70  1  0  0  0  0
 43 47  1  0  0  0  0
 44 48  1  0  0  0  0
 44 51  1  0  0  0  0
 45 49  1  0  0  0  0
 45 53  1  0  0  0  0
 46 50  1  0  0  0  0
 46 53  1  0  0  0  0
 47 54  1  0  0  0  0
 48 56  1  0  0  0  0
 49 57  1  0  0  0  0
 50 57  1  0  0  0  0
 51 71  1  0  0  0  0
 52 56  1  0  0  0  0
 52 71  1  0  0  0  0
 54 75  1  0  0  0  0
 55 70  1  0  0  0  0
 56 69  1  0  0  0  0
 57 76  1  0  0  0  0
 59 66  1  0  0  0  0
 60 67  1  0  0  0  0
 61 67  1  0  0  0  0
 62 67  1  0  0  0  0
 63 78  1  0  0  0  0
 64 86  1  0  0  0  0
 65 67  1  0  0  0  0
 65 77  1  0  0  0  0
 66 78  1  0  0  0  0
 68 69  1  0  0  0  0
M  CHG  1  78   1
M  ISO  4  39 100  64 101  74 100  86 101
M  END
> <Batch ID>
0027

> <Smiles>
CNC(C)C(=O)NC(C(=O)N1Cc2cc([101O:1][101CH2:1]C(=O)NC3CCC(c4ccc(C)c([100NH:0][100C:0](=O)N5CCCC(n6nc(-c7ccc(Oc8ccc(F)cc8F)cc7)c(C(N)=O)c6N)C5)c4)CC3)ccc2CC1C(=O)NC1CCCc2ccccc21)C(C)(C)C

> <Shape>
0.280

> <Color>
0.115

> <Negative vol penalty>
0.000

$$$$

  -OEChem-04042321283D

 84 92  0     1  0  0  0  0  0999 V2000
  -16.6135  -29.0897   23.7652 C   0  0  0  0  0  0  0  0  0  0  0  0
  -17.2282  -28.4519   22.6924 C   0  0  0  0  0  0  0  0  0  0  0  0
  -28.0715   -9.9772   21.4740 C   0  0  0  0  0  0  0  0  0  0  0  0
  -26.2519  -11.2877   20.5747 C   0  0  0  0  0  0  0  0  0  0  0  0
  -17.2233  -30.1928   24.3613 C   0  0  0  0  0  0  0  0  0  0  0  0
  -18.4525  -28.9176   22.2143 C   0  0  0  0  0  0  0  0  0  0  0  0
  -21.7463  -25.1728   21.3355 C   0  0  0  0  0  0  0  0  0  0  0  0
  -27.4091  -21.5624   21.2982 C   0  0  0  0  0  0  0  0  0  0  0  0
  -28.3226  -20.5126   21.2039 C   0  0  0  0  0  0  0  0  0  0  0  0
  -27.1555   -9.1586   22.1345 C   0  0  0  0  0  0  0  0  0  0  0  0
  -25.3359  -10.4689   21.2351 C   0  0  0  0  0  0  0  0  0  0  0  0
  -21.5764  -24.4375   20.1632 C   0  0  0  0  0  0  0  0  0  0  0  0
  -23.9510   -7.4186   20.7900 C   0  0  0  0  0  0  0  0  0  0  0  0
  -22.8352   -6.9870   20.0729 C   0  0  0  0  0  0  0  0  0  0  0  0
  -26.8347  -19.3533   19.6942 C   0  0  0  0  0  0  0  0  0  0  0  0
  -23.3244  -25.7238   19.1101 C   0  0  0  0  0  0  0  0  0  0  0  0
  -21.3868   -8.0727   21.6731 C   0  0  0  0  0  0  0  0  0  0  0  0
  -27.6198  -11.0419   20.6941 C   0  0  0  0  0  0  0  0  0  0  0  0
  -25.9211  -20.4031   19.7885 C   0  0  0  0  0  0  0  0  0  0  0  0
  -29.0810  -11.7133   18.7138 C   0  0  0  0  0  0  0  0  0  0  0  0
  -18.4604  -30.6663   23.8964 C   0  0  0  0  0  0  0  0  0  0  0  0
  -22.7006  -26.1982   21.4005 C   0  0  0  0  0  0  0  0  0  0  0  0
  -19.0787  -30.0289   22.8039 C   0  0  0  0  0  0  0  0  0  0  0  0
  -23.5062  -26.4690   20.2852 C   0  0  0  0  0  0  0  0  0  0  0  0
  -26.2082  -21.5077   20.5905 C   0  0  0  0  0  0  0  0  0  0  0  0
  -28.0354  -19.4081   20.4019 C   0  0  0  0  0  0  0  0  0  0  0  0
  -25.7877   -9.4043   22.0150 C   0  0  0  0  0  0  0  0  0  0  0  0
  -22.3635  -24.7148   19.0494 C   0  0  0  0  0  0  0  0  0  0  0  0
  -23.7848   -8.1771   21.9487 C   0  0  0  0  0  0  0  0  0  0  0  0
  -21.5531   -7.3141   20.5144 C   0  0  0  0  0  0  0  0  0  0  0  0
  -22.5027   -8.5042   22.3903 C   0  0  0  0  0  0  0  0  0  0  0  0
  -28.5655  -11.8883   20.0121 C   0  0  0  0  0  0  0  0  0  0  0  0
  -29.9328  -12.7761   18.5365 C   0  0  0  0  0  0  0  0  0  0  0  0
  -24.6557  -20.3261   19.0313 C   0  0  0  0  0  0  0  0  0  0  0  0
  -28.8136  -10.6824   17.7539 C   0  0  0  0  0  0  0  0  0  0  0  0
  -22.5903  -29.3377   21.8852 C   0  0  0  0  0  0  0  0  0  0  0  0
  -25.8221  -29.0581   21.8858 C   0  0  0  0  0  0  0  0  0  0  0  0
  -28.5777  -27.2951   20.9137 C   0  0  0  0  0  0  0  0  0  0  0  0
  -30.2004  -18.2390   20.9428 C   0  0  0  0  0  0  0  0  0  0  0  0
  -19.0581  -31.8911   24.5424 C   0  0  0  0  0  0  0  0  0  0  0  0
  -22.8899  -26.9643   22.6809 C   0  0  0  0  0  0  0  0  0  0  0  0
  -24.5588  -27.5460   20.3100 C   0  0  0  0  0  0  0  0  0  0  0  0
  -20.5358  -32.0919   24.2166 C   0  0  0  0  0  0  0  0  0  0  0  0
  -32.7574  -15.7618   20.9944 C   0  0  0  0  0  0  0  0  0  0  0  0
  -20.7826  -31.9093   22.7224 C   0  0  0  0  0  0  0  0  0  0  0  0
  -32.0207  -14.4725   20.6242 C   0  0  0  0  0  0  0  0  0  0  0  0
  -31.8978  -16.6761   21.8655 C   0  0  0  0  0  0  0  0  0  0  0  0
  -29.8321  -15.6934   20.9510 C   0  0  0  0  0  0  0  0  0  0  0  0
  -20.4189  -30.4891   22.2726 C   0  0  1  0  0  0  0  0  0  0  0  0
  -23.5381  -28.3292   22.4703 C   0  0  1  0  0  0  0  0  0  0  0  0
  -30.6341  -14.7693   20.0201 C   0  0  2  0  0  0  0  0  0  0  0  0
  -25.2466  -22.6446   20.7071 C   0  0  0  0  0  0  0  0  0  0  0  0
  -31.0002  -26.6579   20.7619 C   0  0  0  0  0  0  0  0  0  0  0  0
  -25.8855  -31.2328   19.7465 C   0  0  0  0  0  0  0  0  0  0  0  0
  -28.2435  -30.5640   19.2356 C   0  0  0  0  0  0  0  0  0  0  0  0
  -27.6594  -31.4396   21.4973 C   0  0  0  0  0  0  0  0  0  0  0  0
  -28.3955  -25.5747   23.3149 C   0  0  0  0  0  0  0  0  0  0  0  0
  -23.2376  -22.4871   16.3564 C   0  0  0  0  0  0  0  0  0  0  0  0
  -23.1776  -21.3099   17.3155 C   0  0  0  0  0  0  0  0  0  0  0  0
  -23.3488  -23.8252   17.0761 C   0  0  0  0  0  0  0  0  0  1  0  0
  -26.9008  -29.1215   20.8316 C   0  0  1  0  0  0  0  0  0  0  0  0
  -29.8035  -26.8369   21.6831 C   0  0  2  0  0  0  0  0  0  0  0  0
  -27.1512  -30.5704   20.3263 C   0  0  0  0  0  0  0  0  0  0  0  0
  -29.0496  -12.9764   20.6168 N   0  0  0  0  0  0  0  0  0  0  0  0
  -29.8782  -13.4948   19.6944 N   0  0  0  0  0  0  0  0  0  0  0  0
  -24.7015  -28.2716   21.5830 N   0  0  0  0  0  0  0  0  0  0  0  0
  -30.6015  -16.9166   21.2278 N   0  0  0  0  0  0  0  0  0  0  0  0
  -30.7158  -13.1565   17.5047 N   0  0  0  0  0  0  0  0  0  0  0  0
  -23.8313  -19.3103   19.2874 N   0  0  0  0  0  0  0  0  0  0  0  0
  -27.9122   -9.6660   18.0987 N   0  0  0  0  0  0  0  0  0  0  0  0
  -28.9639  -18.3419   20.3064 N   0  0  0  0  0  0  0  0  0  0  0  0
  -21.4603  -29.5574   22.6495 N   0  0  0  0  0  0  0  0  0  0  0  0
  -28.0758  -28.4792   21.4108 N   0  0  0  0  0  0  0  0  0  0  0  0
  -24.3969  -21.2763   18.1235 N   0  3  0  0  0  0  0  0  0  0  0  0
  -29.5338  -25.5375   22.3611 N   0  3  0  0  0  0  0  0  0  0  0  0
  -29.3703  -10.6541   16.6302 O   0  0  0  0  0  0  0  0  0  0  0  0
  -22.8647  -29.8777   20.8199 O   0  0  0  0  0  0  0  0  0  0  0  0
  -25.9715  -29.6776   22.9420 O   0  0  0  0  0  0  0  0  0  0  0  0
  -28.1143  -26.6674   19.9641 O   0  0  0  0  0  0  0  0  0  0  0  0
  -30.9144  -19.2070   21.2167 O   0  0  0  0  0  0  0  0  0  0  0  0
  -24.8936   -8.6055   22.6592 O   0  0  0  0  0  0  0  0  0  0  0  0
  -22.1993  -23.9990   17.9037 O   0  0  0  0  0  0  0  0  0  1  0  0
  -20.4817   -6.9009   19.8248 F   0  0  0  0  0  0  0  0  0  0  0  0
  -22.3367   -9.2337   23.5021 F   0  0  0  0  0  0  0  0  0  0  0  0
  1  2  1  0  0  0  0
  1  5  2  0  0  0  0
  2  6  2  0  0  0  0
  3 10  2  0  0  0  0
  3 18  1  0  0  0  0
  4 11  1  0  0  0  0
  4 18  2  0  0  0  0
  5 21  1  0  0  0  0
  6 23  1  0  0  0  0
  7 12  2  0  0  0  0
  7 22  1  0  0  0  0
  8  9  2  0  0  0  0
  8 25  1  0  0  0  0
  9 26  1  0  0  0  0
 10 27  1  0  0  0  0
 11 27  2  0  0  0  0
 12 28  1  0  0  0  0
 13 14  2  0  0  0  0
 13 29  1  0  0  0  0
 14 30  1  0  0  0  0
 15 19  1  0  0  0  0
 15 26  2  0  0  0  0
 16 24  1  0  0  0  0
 16 28  2  0  0  0  0
 17 30  2  0  0  0  0
 17 31  1  0  0  0  0
 18 32  1  0  0  0  0
 19 25  2  0  0  0  0
 19 34  1  0  0  0  0
 20 32  1  0  0  0  0
 20 33  2  0  0  0  0
 20 35  1  0  0  0  0
 21 23  2  0  0  0  0
 21 40  1  0  0  0  0
 22 24  2  0  0  0  0
 22 41  1  0  0  0  0
 23 49  1  0  0  0  0
 24 42  1  0  0  0  0
 25 52  1  0  0  0  0
 26 71  1  0  0  0  0
 27 81  1  0  0  0  0
 28 82  1  0  0  0  0
 29 31  2  0  0  0  0
 29 81  1  0  0  0  0
 30 83  1  0  0  0  0
 31 84  1  0  0  0  0
 32 64  2  0  0  0  0
 33 65  1  0  0  0  0
 33 68  1  0  0  0  0
 34 69  1  0  0  0  0
 34 74  2  0  0  0  0
 35 70  1  0  0  0  0
 35 76  2  0  0  0  0
 36 50  1  0  0  0  0
 36 72  1  0  0  0  0
 36 77  2  0  0  0  0
 37 61  1  0  0  0  0
 37 66  1  0  0  0  0
 37 78  2  0  0  0  0
 38 62  1  0  0  0  0
 38 73  1  0  0  0  0
 38 79  2  0  0  0  0
 39 67  1  0  0  0  0
 39 71  1  0  0  0  0
 39 80  2  0  0  0  0
 40 43  1  0  0  0  0
 41 50  1  0  0  0  0
 42 66  1  0  0  0  0
 43 45  1  0  0  0  0
 44 46  1  0  0  0  0
 44 47  1  0  0  0  0
 45 49  1  0  0  0  0
 46 51  1  0  0  0  0
 47 67  1  0  0  0  0
 48 51  1  0  0  0  0
 48 67  1  0  0  0  0
 49 72  1  0  0  0  0
 50 66  1  0  0  0  0
 51 65  1  0  0  0  0
 53 62  1  0  0  0  0
 54 63  1  0  0  0  0
 55 63  1  0  0  0  0
 56 63  1  0  0  0  0
 57 75  1  0  0  0  0
 58 59  1  0  0  0  0
 58 60  1  0  0  0  0
 59 74  1  0  0  0  0
 60 82  1  0  0  0  0
 61 63  1  0  0  0  0
 61 73  1  0  0  0  0
 62 75  1  0  0  0  0
 64 65  1  0  0  0  0
M  CHG  2  74   1  75   1
M  ISO  4  39 100  60 101  71 100  82 101
M  END
> <Batch ID>
0027

> <Smiles>
CNC(C)C(=O)NC(C(=O)N1Cc2cc([101O:1][101CH2:1]CCNC(=N)c3cc([100NH:0][100C:0](=O)N4CCCC(n5nc(-c6ccc(Oc7ccc(F)cc7F)cc6)c(C(N)=O)c5N)C4)ccc3C)ccc2CC1C(=O)NC1CCCc2ccccc21)C(C)(C)C

> <Shape>
0.276

> <Color>
0.070

> <Negative vol penalty>
0.000

$$$$

  -OEChem-04042321283D

 93103  0     1  0  0  0  0  0999 V2000
  -25.4584  -30.1124   23.1529 C   0  0  0  0  0  0  0  0  0  0  0  0
  -26.1242  -29.0242   23.7078 C   0  0  0  0  0  0  0  0  0  0  0  0
  -23.4612  -10.1199   22.2310 C   0  0  0  0  0  0  0  0  0  0  0  0
  -23.9848   -9.4722   19.9631 C   0  0  0  0  0  0  0  0  0  0  0  0
  -25.3060  -30.2038   21.7701 C   0  0  0  0  0  0  0  0  0  0  0  0
  -26.6370  -28.0260   22.8801 C   0  0  0  0  0  0  0  0  0  0  0  0
  -31.7631  -24.7912   23.7549 C   0  0  0  0  0  0  0  0  0  0  0  0
  -32.5090  -16.1948   24.0727 C   0  0  0  0  0  0  0  0  0  0  0  0
  -32.0102  -15.4014   23.0395 C   0  0  0  0  0  0  0  0  0  0  0  0
  -22.8840   -8.8700   22.4547 C   0  0  0  0  0  0  0  0  0  0  0  0
  -23.4076   -8.2222   20.1868 C   0  0  0  0  0  0  0  0  0  0  0  0
  -31.9915  -23.5179   24.2746 C   0  0  0  0  0  0  0  0  0  0  0  0
  -20.2979   -6.9023   20.3222 C   0  0  0  0  0  0  0  0  0  0  0  0
  -19.4455   -6.3970   19.3405 C   0  0  0  0  0  0  0  0  0  0  0  0
  -32.0209  -22.6165   22.0372 C   0  0  0  0  0  0  0  0  0  0  0  0
  -20.8958   -4.4844   19.0655 C   0  0  0  0  0  0  0  0  0  0  0  0
  -24.0116  -10.4211   20.9851 C   0  0  0  0  0  0  0  0  0  0  0  0
  -23.9781  -12.9681   20.8463 C   0  0  0  0  0  0  0  0  0  0  0  0
  -25.8256  -29.2111   20.9244 C   0  0  0  0  0  0  0  0  0  0  0  0
  -31.6509  -24.9854   22.3706 C   0  0  0  0  0  0  0  0  0  0  0  0
  -26.4902  -28.1035   21.4847 C   0  0  0  0  0  0  0  0  0  0  0  0
  -31.7937  -23.8938   21.5023 C   0  0  0  0  0  0  0  0  0  0  0  0
  -30.7178  -14.1321   24.6382 C   0  0  0  0  0  0  0  0  0  0  0  0
  -32.1122  -15.9568   25.3886 C   0  0  0  0  0  0  0  0  0  0  0  0
  -31.1146  -14.3701   23.3223 C   0  0  0  0  0  0  0  0  0  0  0  0
  -22.8572   -7.9211   21.4327 C   0  0  0  0  0  0  0  0  0  0  0  0
  -32.1175  -22.4298   23.4159 C   0  0  0  0  0  0  0  0  0  0  0  0
  -21.4494   -6.1987   20.6754 C   0  0  0  0  0  0  0  0  0  0  0  0
  -19.7444   -5.1881   18.7122 C   0  0  0  0  0  0  0  0  0  0  0  0
  -21.7483   -4.9897   20.0471 C   0  0  0  0  0  0  0  0  0  0  0  0
  -31.2166  -14.9255   25.6713 C   0  0  0  0  0  0  0  0  0  0  0  0
  -24.6074  -11.7123   20.7532 C   0  0  0  0  0  0  0  0  0  0  0  0
  -24.9650  -13.8708   20.5340 C   0  0  0  0  0  0  0  0  0  0  0  0
  -22.6225  -13.2898   21.1849 C   0  0  0  0  0  0  0  0  0  0  0  0
  -33.5881  -18.8285   25.3997 C   0  0  0  0  0  0  0  0  0  0  0  0
  -29.3588  -26.0268   20.4302 C   0  0  0  0  0  0  0  0  0  0  0  0
  -31.6922  -25.8005   18.1883 C   0  0  0  0  0  0  0  0  0  0  0  0
  -34.4360  -25.0735   16.2936 C   0  0  0  0  0  0  0  0  0  0  0  0
  -30.9263  -13.6921   20.9033 C   0  0  0  0  0  0  0  0  0  0  0  0
  -25.5948  -29.3294   19.4386 C   0  0  0  0  0  0  0  0  0  0  0  0
  -31.4311  -26.3696   21.8244 C   0  0  0  0  0  0  0  0  0  0  0  0
  -31.7015  -24.0523   20.0073 C   0  0  0  0  0  0  0  0  0  0  0  0
  -26.4948  -28.4183   18.6079 C   0  0  0  0  0  0  0  0  0  0  0  0
  -28.9910  -14.2808   17.9732 C   0  0  0  0  0  0  0  0  0  0  0  0
  -33.4039  -17.0054   28.6137 C   0  0  0  0  0  0  0  0  0  0  0  0
  -30.2551  -20.2873   25.9929 C   0  0  0  0  0  0  0  0  0  0  0  0
  -26.5151  -27.0100   19.1935 C   0  0  0  0  0  0  0  0  0  0  0  0
  -27.5887  -13.8089   18.3641 C   0  0  0  0  0  0  0  0  0  0  0  0
  -33.9826  -18.1238   27.7594 C   0  0  0  0  0  0  0  0  0  0  0  0
  -31.1110  -21.5485   25.9558 C   0  0  0  0  0  0  0  0  0  0  0  0
  -32.2115  -16.5206   27.8010 C   0  0  0  0  0  0  0  0  0  0  0  0
  -31.2629  -19.1997   26.3201 C   0  0  0  0  0  0  0  0  0  0  0  0
  -30.0775  -13.3990   18.5863 C   0  0  0  0  0  0  0  0  0  0  0  0
  -28.5812  -12.7468   20.4315 C   0  0  0  0  0  0  0  0  0  0  0  0
  -27.0822  -27.0130   20.6183 C   0  0  1  0  0  0  0  0  0  0  0  0
  -30.8215  -26.3702   20.4259 C   0  0  1  0  0  0  0  0  0  0  0  0
  -27.4550  -13.6428   19.8906 C   0  0  2  0  0  0  0  0  0  0  0  0
  -33.7763  -17.6394   26.3090 C   0  0  2  0  0  0  0  0  0  0  0  0
  -32.4329  -21.0677   25.3378 C   0  0  1  0  0  0  0  0  0  1  0  0
  -29.7602  -13.0326   24.9664 C   0  0  0  0  0  0  0  0  0  0  0  0
  -34.9683  -16.8331   25.8643 C   0  0  0  0  0  0  0  0  0  0  0  0
  -33.6035  -21.9064   25.8429 C   0  0  0  0  0  0  0  0  0  0  0  0
  -35.2548  -25.0982   13.9216 C   0  0  0  0  0  0  0  0  0  0  0  0
  -30.0457  -23.3008   17.5965 C   0  0  0  0  0  0  0  0  0  0  0  0
  -31.5668  -22.8416   15.6617 C   0  0  0  0  0  0  0  0  0  0  0  0
  -30.1950  -24.9247   15.7005 C   0  0  0  0  0  0  0  0  0  0  0  0
  -36.6074  -26.9777   16.9406 C   0  0  0  0  0  0  0  0  0  0  0  0
  -32.1774  -24.7170   17.2558 C   0  0  1  0  0  0  0  0  0  0  0  0
  -35.1644  -25.8721   15.2276 C   0  0  2  0  0  0  0  0  0  0  0  0
  -31.0067  -23.9488   16.5799 C   0  0  0  0  0  0  0  0  0  0  0  0
  -25.8945  -11.8049   20.4085 N   0  0  0  0  0  0  0  0  0  0  0  0
  -26.0819  -13.1297   20.2822 N   0  0  0  0  0  0  0  0  0  0  0  0
  -32.6080  -16.7444   26.4096 N   0  0  3  0  0  0  0  0  0  0  0  0
  -32.5043  -19.6447   25.6932 N   0  0  0  0  0  0  0  0  0  0  0  0
  -31.4795  -25.4244   19.5221 N   0  0  0  0  0  0  0  0  0  0  0  0
  -29.8893  -13.2910   20.0346 N   0  0  0  0  0  0  0  0  0  0  0  0
  -24.9777  -15.2182   20.4528 N   0  0  0  0  0  0  0  0  0  0  0  0
  -21.6773  -13.3708   20.1532 N   0  0  0  0  0  0  0  0  0  0  0  0
  -30.6207  -13.5745   22.2588 N   0  0  0  0  0  0  0  0  0  0  0  0
  -28.5253  -27.1177   20.5877 N   0  0  0  0  0  0  0  0  0  0  0  0
  -33.0883  -25.3637   16.3175 N   0  0  0  0  0  0  0  0  0  0  0  0
  -36.5473  -26.1969   15.6782 N   0  3  0  0  0  0  0  0  0  0  0  0
  -22.2636  -13.5154   22.3655 O   0  0  0  0  0  0  0  0  0  0  0  0
  -34.3670  -19.0136   24.4633 O   0  0  0  0  0  0  0  0  0  0  0  0
  -29.0119  -24.8589   20.2987 O   0  0  0  0  0  0  0  0  0  0  0  0
  -31.5156  -26.9404   17.7510 O   0  0  0  0  0  0  0  0  0  0  0  0
  -35.0051  -24.2698   17.0289 O   0  0  0  0  0  0  0  0  0  0  0  0
  -31.9957  -14.1348   20.4764 O   0  0  0  0  0  0  0  0  0  0  0  0
  -22.2943   -6.7012   21.6507 O   0  0  0  0  0  0  0  0  0  0  0  0
  -32.3398  -21.1857   23.9206 O   0  0  0  0  0  0  0  0  0  1  0  0
  -18.9248   -4.7023   17.7707 F   0  0  0  0  0  0  0  0  0  0  0  0
  -22.8524   -4.3087   20.3831 F   0  0  0  0  0  0  0  0  0  0  0  0
  -30.8360  -14.6951   26.9371 F   0  0  0  0  0  0  0  0  0  0  0  0
  1  2  1  0  0  0  0
  1  5  2  0  0  0  0
  2  6  2  0  0  0  0
  3 10  2  0  0  0  0
  3 17  1  0  0  0  0
  4 11  1  0  0  0  0
  4 17  2  0  0  0  0
  5 19  1  0  0  0  0
  6 21  1  0  0  0  0
  7 12  2  0  0  0  0
  7 20  1  0  0  0  0
  8  9  2  0  0  0  0
  8 24  1  0  0  0  0
  9 25  1  0  0  0  0
 10 26  1  0  0  0  0
 11 26  2  0  0  0  0
 12 27  1  0  0  0  0
 13 14  2  0  0  0  0
 13 28  1  0  0  0  0
 14 29  1  0  0  0  0
 15 22  1  0  0  0  0
 15 27  2  0  0  0  0
 16 29  2  0  0  0  0
 16 30  1  0  0  0  0
 17 32  1  0  0  0  0
 18 32  1  0  0  0  0
 18 33  2  0  0  0  0
 18 34  1  0  0  0  0
 19 21  2  0  0  0  0
 19 40  1  0  0  0  0
 20 22  2  0  0  0  0
 20 41  1  0  0  0  0
 21 55  1  0  0  0  0
 22 42  1  0  0  0  0
 23 25  2  0  0  0  0
 23 31  1  0  0  0  0
 23 60  1  0  0  0  0
 24 31  2  0  0  0  0
 24 73  1  0  0  0  0
 25 79  1  0  0  0  0
 26 89  1  0  0  0  0
 27 90  1  0  0  0  0
 28 30  2  0  0  0  0
 28 89  1  0  0  0  0
 29 91  1  0  0  0  0
 30 92  1  0  0  0  0
 31 93  1  0  0  0  0
 32 71  2  0  0  0  0
 33 72  1  0  0  0  0
 33 77  1  0  0  0  0
 34 78  1  0  0  0  0
 34 83  2  0  0  0  0
 35 58  1  0  0  0  0
 35 74  1  0  0  0  0
 35 84  2  0  0  0  0
 36 56  1  0  0  0  0
 36 80  1  0  0  0  0
 36 85  2  0  0  0  0
 37 68  1  0  0  0  0
 37 75  1  0  0  0  0
 37 86  2  0  0  0  0
 38 69  1  0  0  0  0
 38 81  1  0  0  0  0
 38 87  2  0  0  0  0
 39 76  1  0  0  0  0
 39 79  1  0  0  0  0
 39 88  2  0  0  0  0
 40 43  1  0  0  0  0
 41 56  1  0  0  0  0
 42 75  1  0  0  0  0
 43 47  1  0  0  0  0
 44 48  1  0  0  0  0
 44 53  1  0  0  0  0
 45 49  1  0  0  0  0
 45 51  1  0  0  0  0
 46 50  1  0  0  0  0
 46 52  1  0  0  0  0
 47 55  1  0  0  0  0
 48 57  1  0  0  0  0
 49 58  1  0  0  0  0
 50 59  1  0  0  0  0
 51 73  1  0  0  0  0
 52 74  1  0  0  0  0
 53 76  1  0  0  0  0
 54 57  1  0  0  0  0
 54 76  1  0  0  0  0
 55 80  1  0  0  0  0
 56 75  1  0  0  0  0
 57 72  1  0  0  0  0
 58 61  1  0  0  0  0
 58 73  1  0  0  0  0
 59 62  1  0  0  0  0
 59 74  1  0  0  0  0
 59 90  1  0  0  0  0
 63 69  1  0  0  0  0
 64 70  1  0  0  0  0
 65 70  1  0  0  0  0
 66 70  1  0  0  0  0
 67 82  1  0  0  0  0
 68 70  1  0  0  0  0
 68 81  1  0  0  0  0
 69 82  1  0  0  0  0
 71 72  1  0  0  0  0
M  CHG  1  82   1
M  ISO  4  39 100  59 101  79 100  90 101
M  END
> <Batch ID>
0027

> <Smiles>
CNC(C)C(=O)NC(C(=O)N1Cc2cc([101O:1][101C:1]3(C)CCCN3C(=O)C3(C)CCCN3c3ccc([100NH:0][100C:0](=O)N4CCCC(n5nc(-c6ccc(Oc7ccc(F)cc7F)cc6)c(C(N)=O)c5N)C4)c(C)c3F)ccc2CC1C(=O)NC1CCCc2ccccc21)C(C)(C)C

> <Shape>
0.207

> <Color>
0.144

> <Negative vol penalty>
0.000

$$$$

  -OEChem-04042321283D

 80 88  0     1  0  0  0  0  0999 V2000
  -36.7132  -27.3615   14.8183 C   0  0  0  0  0  0  0  0  0  0  0  0
  -36.6480  -26.2599   15.6654 C   0  0  0  0  0  0  0  0  0  0  0  0
  -23.0110   -9.8745   19.9825 C   0  0  0  0  0  0  0  0  0  0  0  0
  -23.7286   -9.9414   22.2885 C   0  0  0  0  0  0  0  0  0  0  0  0
  -36.2308  -28.5978   15.2459 C   0  0  0  0  0  0  0  0  0  0  0  0
  -36.1014  -26.3942   16.9412 C   0  0  0  0  0  0  0  0  0  0  0  0
  -32.8456  -22.2126   20.0103 C   0  0  0  0  0  0  0  0  0  0  0  0
  -32.6077  -17.4961   23.4463 C   0  0  0  0  0  0  0  0  0  0  0  0
  -32.0271  -16.5903   22.5586 C   0  0  0  0  0  0  0  0  0  0  0  0
  -22.2492   -8.7377   20.2525 C   0  0  0  0  0  0  0  0  0  0  0  0
  -22.9667   -8.8047   22.5586 C   0  0  0  0  0  0  0  0  0  0  0  0
  -33.1918  -21.2998   21.0056 C   0  0  0  0  0  0  0  0  0  0  0  0
  -23.2288   -5.4645   22.1055 C   0  0  0  0  0  0  0  0  0  0  0  0
  -23.8189   -4.4542   22.8649 C   0  0  0  0  0  0  0  0  0  0  0  0
  -32.4372  -22.8562   22.6871 C   0  0  0  0  0  0  0  0  0  0  0  0
  -29.8423  -17.4809   23.0790 C   0  0  0  0  0  0  0  0  0  0  0  0
  -22.0885   -4.6978   24.5334 C   0  0  0  0  0  0  0  0  0  0  0  0
  -23.7508  -10.4763   21.0004 C   0  0  0  0  0  0  0  0  0  0  0  0
  -24.1244  -12.9928   20.8120 C   0  0  0  0  0  0  0  0  0  0  0  0
  -35.6692  -28.7451   16.5240 C   0  0  0  0  0  0  0  0  0  0  0  0
  -32.3017  -23.4605   20.3469 C   0  0  0  0  0  0  0  0  0  0  0  0
  -35.6123  -27.6339   17.3868 C   0  0  0  0  0  0  0  0  0  0  0  0
  -32.0825  -23.7820   21.6940 C   0  0  0  0  0  0  0  0  0  0  0  0
  -31.8057  -18.3942   24.1505 C   0  0  0  0  0  0  0  0  0  0  0  0
  -30.4230  -18.3866   23.9668 C   0  0  0  0  0  0  0  0  0  0  0  0
  -30.6444  -16.5827   22.3749 C   0  0  0  0  0  0  0  0  0  0  0  0
  -22.2270   -8.2028   21.5405 C   0  0  0  0  0  0  0  0  0  0  0  0
  -32.9903  -21.6226   22.3444 C   0  0  0  0  0  0  0  0  0  0  0  0
  -22.0686   -6.0914   22.5600 C   0  0  0  0  0  0  0  0  0  0  0  0
  -23.2487   -4.0708   24.0788 C   0  0  0  0  0  0  0  0  0  0  0  0
  -21.4984   -5.7080   23.7739 C   0  0  0  0  0  0  0  0  0  0  0  0
  -24.5384  -11.6503   20.7220 C   0  0  0  0  0  0  0  0  0  0  0  0
  -25.2318  -13.7188   20.4473 C   0  0  0  0  0  0  0  0  0  0  0  0
  -22.8526  -13.5351   21.1916 C   0  0  0  0  0  0  0  0  0  0  0  0
  -33.1973  -26.4824   19.9353 C   0  0  0  0  0  0  0  0  0  0  0  0
  -30.2706  -27.1116   21.1847 C   0  0  0  0  0  0  0  0  0  0  0  0
  -27.6547  -26.0608   23.1081 C   0  0  0  0  0  0  0  0  0  0  0  0
  -30.7057  -14.7079   20.6934 C   0  0  0  0  0  0  0  0  0  0  0  0
  -35.2041  -30.1121   16.9594 C   0  0  0  0  0  0  0  0  0  0  0  0
  -31.9087  -24.4234   19.2603 C   0  0  0  0  0  0  0  0  0  0  0  0
  -31.4829  -25.1004   22.1072 C   0  0  0  0  0  0  0  0  0  0  0  0
  -34.2981  -30.0846   18.1877 C   0  0  0  0  0  0  0  0  0  0  0  0
  -29.6068  -12.2371   18.3772 C   0  0  0  0  0  0  0  0  0  0  0  0
  -34.8873  -29.1801   19.2655 C   0  0  0  0  0  0  0  0  0  0  0  0
  -28.1562  -11.9746   18.7882 C   0  0  0  0  0  0  0  0  0  0  0  0
  -30.5023  -12.4914   19.5885 C   0  0  0  0  0  0  0  0  0  0  0  0
  -28.5789  -13.2781   20.9117 C   0  0  0  0  0  0  0  0  0  0  0  0
  -35.0039  -27.7340   18.7688 C   0  0  1  0  0  0  0  0  0  0  0  0
  -31.8392  -25.8699   19.7401 C   0  0  1  0  0  0  0  0  0  0  0  0
  -27.6259  -13.0806   19.7215 C   0  0  2  0  0  0  0  0  0  0  0  0
  -29.5447  -19.3402   24.7082 C   0  0  0  0  0  0  0  0  0  0  0  0
  -25.4220  -26.8091   23.9757 C   0  0  0  0  0  0  0  0  0  0  0  0
  -31.6658  -28.8911   23.2333 C   0  0  0  0  0  0  0  0  0  0  0  0
  -29.5717  -28.8357   24.6043 C   0  0  0  0  0  0  0  0  0  0  0  0
  -29.5363  -29.8281   22.3160 C   0  0  0  0  0  0  0  0  0  0  0  0
  -26.2484  -23.8517   21.7291 C   0  0  0  0  0  0  0  0  0  0  0  0
  -32.4569  -19.3642   25.1061 C   0  0  0  0  0  0  0  0  0  0  0  0
  -32.5643  -20.7690   24.5228 C   0  0  0  0  0  0  0  0  0  1  0  0
  -29.7248  -27.3204   22.5766 C   0  0  1  0  0  0  0  0  0  0  0  0
  -26.1563  -26.0744   22.8649 C   0  0  2  0  0  0  0  0  0  0  0  0
  -30.1377  -28.6946   23.1752 C   0  0  0  0  0  0  0  0  0  0  0  0
  -25.8095  -11.5279   20.3305 N   0  0  0  0  0  0  0  0  0  0  0  0
  -26.2038  -12.8027   20.1713 N   0  0  0  0  0  0  0  0  0  0  0  0
  -31.1209  -26.0108   21.0083 N   0  0  0  0  0  0  0  0  0  0  0  0
  -29.9394  -13.5542   20.4243 N   0  0  0  0  0  0  0  0  0  0  0  0
  -25.4591  -15.0451   20.3388 N   0  0  0  0  0  0  0  0  0  0  0  0
  -21.8240  -12.6478   21.5366 N   0  0  0  0  0  0  0  0  0  0  0  0
  -30.0543  -15.6642   21.4717 N   0  0  0  0  0  0  0  0  0  0  0  0
  -33.7120  -27.0825   18.8020 N   0  0  0  0  0  0  0  0  0  0  0  0
  -28.2829  -27.1178   22.4843 N   0  0  0  0  0  0  0  0  0  0  0  0
  -25.6302  -24.6818   22.7949 N   0  3  0  0  0  0  0  0  0  0  0  0
  -22.6298  -14.7694   21.2080 O   0  0  0  0  0  0  0  0  0  0  0  0
  -33.7375  -26.4169   21.0333 O   0  0  0  0  0  0  0  0  0  0  0  0
  -29.9485  -27.8921   20.2855 O   0  0  0  0  0  0  0  0  0  0  0  0
  -28.2115  -25.2007   23.7868 O   0  0  0  0  0  0  0  0  0  0  0  0
  -31.8451  -14.8499   20.2422 O   0  0  0  0  0  0  0  0  0  0  0  0
  -21.4835   -7.0937   21.8045 O   0  0  0  0  0  0  0  0  0  0  0  0
  -33.3280  -20.7338   23.3179 O   0  0  0  0  0  0  0  0  0  1  0  0
  -23.8146   -3.0996   24.8073 F   0  0  0  0  0  0  0  0  0  0  0  0
  -20.3832   -6.3059   24.2151 F   0  0  0  0  0  0  0  0  0  0  0  0
  1  2  1  0  0  0  0
  1  5  2  0  0  0  0
  2  6  2  0  0  0  0
  3 10  2  0  0  0  0
  3 18  1  0  0  0  0
  4 11  1  0  0  0  0
  4 18  2  0  0  0  0
  5 20  1  0  0  0  0
  6 22  1  0  0  0  0
  7 12  2  0  0  0  0
  7 21  1  0  0  0  0
  8  9  2  0  0  0  0
  8 24  1  0  0  0  0
  9 26  1  0  0  0  0
 10 27  1  0  0  0  0
 11 27  2  0  0  0  0
 12 28  1  0  0  0  0
 13 14  2  0  0  0  0
 13 29  1  0  0  0  0
 14 30  1  0  0  0  0
 15 23  1  0  0  0  0
 15 28  2  0  0  0  0
 16 25  1  0  0  0  0
 16 26  2  0  0  0  0
 17 30  2  0  0  0  0
 17 31  1  0  0  0  0
 18 32  1  0  0  0  0
 19 32  1  0  0  0  0
 19 33  2  0  0  0  0
 19 34  1  0  0  0  0
 20 22  2  0  0  0  0
 20 39  1  0  0  0  0
 21 23  2  0  0  0  0
 21 40  1  0  0  0  0
 22 48  1  0  0  0  0
 23 41  1  0  0  0  0
 24 25  2  0  0  0  0
 24 57  1  0  0  0  0
 25 51  1  0  0  0  0
 26 68  1  0  0  0  0
 27 77  1  0  0  0  0
 28 78  1  0  0  0  0
 29 31  2  0  0  0  0
 29 77  1  0  0  0  0
 30 79  1  0  0  0  0
 31 80  1  0  0  0  0
 32 62  2  0  0  0  0
 33 63  1  0  0  0  0
 33 66  1  0  0  0  0
 34 67  1  0  0  0  0
 34 72  2  0  0  0  0
 35 49  1  0  0  0  0
 35 69  1  0  0  0  0
 35 73  2  0  0  0  0
 36 59  1  0  0  0  0
 36 64  1  0  0  0  0
 36 74  2  0  0  0  0
 37 60  1  0  0  0  0
 37 70  1  0  0  0  0
 37 75  2  0  0  0  0
 38 65  1  0  0  0  0
 38 68  1  0  0  0  0
 38 76  2  0  0  0  0
 39 42  1  0  0  0  0
 40 49  1  0  0  0  0
 41 64  1  0  0  0  0
 42 44  1  0  0  0  0
 43 45  1  0  0  0  0
 43 46  1  0  0  0  0
 44 48  1  0  0  0  0
 45 50  1  0  0  0  0
 46 65  1  0  0  0  0
 47 50  1  0  0  0  0
 47 65  1  0  0  0  0
 48 69  1  0  0  0  0
 49 64  1  0  0  0  0
 50 63  1  0  0  0  0
 52 60  1  0  0  0  0
 53 61  1  0  0  0  0
 54 61  1  0  0  0  0
 55 61  1  0  0  0  0
 56 71  1  0  0  0  0
 57 58  1  0  0  0  0
 58 78  1  0  0  0  0
 59 61  1  0  0  0  0
 59 70  1  0  0  0  0
 60 71  1  0  0  0  0
 62 63  1  0  0  0  0
M  CHG  1  71   1
M  ISO  4  38 100  58 101  68 100  78 101
M  END
> <Batch ID>
0027

> <Smiles>
CNC(C)C(=O)NC(C(=O)N1Cc2cc([101O:1][101CH2:1]Cc3ccc([100NH:0][100C:0](=O)N4CCCC(n5nc(-c6ccc(Oc7ccc(F)cc7F)cc6)c(C(N)=O)c5N)C4)cc3C)ccc2CC1C(=O)NC1CCCc2ccccc21)C(C)(C)C

> <Shape>
0.210

> <Color>
0.207

> <Negative vol penalty>
0.000

$$$$

  -OEChem-04042321283D

 85 94  0     1  0  0  0  0  0999 V2000
  -22.0404  -11.0344   21.3536 C   0  0  0  0  0  0  0  0  0  0  0  0
  -21.7981  -12.3469   21.7463 C   0  0  0  0  0  0  0  0  0  0  0  0
  -29.3361  -28.5162   18.5986 C   0  0  0  0  0  0  0  0  0  0  0  0
  -27.8385  -26.8971   19.5849 C   0  0  0  0  0  0  0  0  0  0  0  0
  -23.3116  -10.6614   20.9192 C   0  0  0  0  0  0  0  0  0  0  0  0
  -22.8273  -13.2868   21.7058 C   0  0  0  0  0  0  0  0  0  0  0  0
  -17.9038  -28.5635   22.9674 C   0  0  0  0  0  0  0  0  0  0  0  0
  -21.3534  -17.6961   19.6980 C   0  0  0  0  0  0  0  0  0  0  0  0
  -19.1156  -29.2209   22.7898 C   0  0  0  0  0  0  0  0  0  0  0  0
  -30.3929  -27.6143   18.7227 C   0  0  0  0  0  0  0  0  0  0  0  0
  -28.8953  -25.9952   19.7089 C   0  0  0  0  0  0  0  0  0  0  0  0
  -20.6139  -18.5516   20.5136 C   0  0  0  0  0  0  0  0  0  0  0  0
  -31.5443  -24.8864   17.0901 C   0  0  0  0  0  0  0  0  0  0  0  0
  -32.3971  -24.7327   15.9970 C   0  0  0  0  0  0  0  0  0  0  0  0
  -22.6042  -19.8411   20.9552 C   0  0  0  0  0  0  0  0  0  0  0  0
  -34.2638  -25.4502   17.3526 C   0  0  0  0  0  0  0  0  0  0  0  0
  -28.0589  -28.1576   19.0298 C   0  0  0  0  0  0  0  0  0  0  0  0
  -26.4716  -29.6610   17.7153 C   0  0  0  0  0  0  0  0  0  0  0  0
  -24.3544  -11.5995   20.8641 C   0  0  0  0  0  0  0  0  0  0  0  0
  -22.7283  -17.9007   19.5133 C   0  0  0  0  0  0  0  0  0  0  0  0
  -24.1140  -12.9257   21.2715 C   0  0  0  0  0  0  0  0  0  0  0  0
  -17.8292  -27.1628   22.8733 C   0  0  0  0  0  0  0  0  0  0  0  0
  -23.3583  -18.9883   20.1347 C   0  0  0  0  0  0  0  0  0  0  0  0
  -20.1970  -27.0895   22.4416 C   0  0  0  0  0  0  0  0  0  0  0  0
  -18.9886  -26.3885   22.6235 C   0  0  0  0  0  0  0  0  0  0  0  0
  -20.2615  -28.4840   22.5238 C   0  0  0  0  0  0  0  0  0  0  0  0
  -30.1725  -26.3538   19.2778 C   0  0  0  0  0  0  0  0  0  0  0  0
  -21.2399  -19.6226   21.1446 C   0  0  0  0  0  0  0  0  0  0  0  0
  -32.0513  -25.3221   18.3144 C   0  0  0  0  0  0  0  0  0  0  0  0
  -33.7568  -25.0146   16.1283 C   0  0  0  0  0  0  0  0  0  0  0  0
  -33.4110  -25.6040   18.4456 C   0  0  0  0  0  0  0  0  0  0  0  0
  -26.9670  -29.0890   18.9024 C   0  0  0  0  0  0  0  0  0  0  0  0
  -25.4408  -30.4695   18.1278 C   0  0  0  0  0  0  0  0  0  0  0  0
  -26.9044  -29.4777   16.3607 C   0  0  0  0  0  0  0  0  0  0  0  0
  -25.3513  -16.2213   20.1486 C   0  0  0  0  0  0  0  0  0  0  0  0
  -26.8110  -18.6239   18.5301 C   0  0  0  0  0  0  0  0  0  0  0  0
  -26.7383  -21.8682   17.4739 C   0  0  0  0  0  0  0  0  0  0  0  0
  -21.8567  -30.3955   22.9083 C   0  0  0  0  0  0  0  0  0  0  0  0
  -25.7239  -11.1382   20.4324 C   0  0  0  0  0  0  0  0  0  0  0  0
  -23.5065  -16.9845   18.6091 C   0  0  0  0  0  0  0  0  0  0  0  0
  -16.4888  -26.5034   23.0915 C   0  0  0  0  0  0  0  0  0  0  0  0
  -24.8279  -19.2634   19.9527 C   0  0  0  0  0  0  0  0  0  0  0  0
  -26.6641  -12.2829   20.0637 C   0  0  0  0  0  0  0  0  0  0  0  0
  -16.4621  -25.1024   22.4979 C   0  0  0  0  0  0  0  0  0  0  0  0
  -23.9858  -33.0592   21.8843 C   0  0  0  0  0  0  0  0  0  0  0  0
  -26.6069  -13.3820   21.1199 C   0  0  0  0  0  0  0  0  0  0  0  0
  -24.9430  -32.3967   20.8907 C   0  0  0  0  0  0  0  0  0  0  0  0
  -17.6848  -24.3249   22.9614 C   0  0  0  0  0  0  0  0  0  0  0  0
  -23.6349  -32.1262   23.0419 C   0  0  0  0  0  0  0  0  0  0  0  0
  -24.0860  -30.1438   21.6505 C   0  0  0  0  0  0  0  0  0  0  0  0
  -25.1983  -13.9800   21.2181 C   0  0  1  0  0  0  0  0  0  0  0  0
  -25.0035  -16.9855   18.9025 C   0  0  1  0  0  0  0  0  0  0  0  0
  -24.4173  -31.0221   20.4329 C   0  0  2  0  0  0  0  0  0  0  0  0
  -21.5058  -26.4234   22.1288 C   0  0  0  0  0  0  0  0  0  0  0  0
  -27.4655  -23.9361   16.2524 C   0  0  0  0  0  0  0  0  0  0  0  0
  -28.6492  -18.9633   20.9417 C   0  0  0  0  0  0  0  0  0  0  0  0
  -29.3082  -21.2026   20.0364 C   0  0  0  0  0  0  0  0  0  0  0  0
  -29.7938  -19.1370   18.7249 C   0  0  0  0  0  0  0  0  0  0  0  0
  -25.2296  -21.1043   15.0451 C   0  0  0  0  0  0  0  0  0  0  0  0
  -19.7461  -22.7091   22.2501 C   0  0  0  0  0  0  0  0  0  0  0  0
  -20.1094  -24.1841   22.3713 C   0  0  0  0  0  0  0  0  0  0  0  0
  -20.9591  -21.8141   22.0244 C   0  0  0  0  0  0  0  0  0  1  0  0
  -27.4094  -19.9576   18.9070 C   0  0  1  0  0  0  0  0  0  0  0  0
  -27.0086  -22.4920   16.1166 C   0  0  2  0  0  0  0  0  0  0  0  0
  -28.7628  -19.8091   19.6577 C   0  0  0  0  0  0  0  0  0  0  0  0
  -26.3055  -29.4995   19.9877 N   0  0  0  0  0  0  0  0  0  0  0  0
  -25.3839  -30.3381   19.4842 N   0  0  0  0  0  0  0  0  0  0  0  0
  -18.9137  -24.9969   22.5416 N   0  0  3  0  0  0  0  0  0  0  0  0
  -25.5470  -18.3357   19.0640 N   0  0  0  0  0  0  0  0  0  0  0  0
  -23.1400  -30.8454   22.5323 N   0  0  0  0  0  0  0  0  0  0  0  0
  -24.5867  -31.2731   17.4591 N   0  0  0  0  0  0  0  0  0  0  0  0
  -26.3191  -28.4526   15.6052 N   0  0  0  0  0  0  0  0  0  0  0  0
  -21.4809  -29.1807   22.3359 N   0  0  0  0  0  0  0  0  0  0  0  0
  -24.9607  -14.8961   20.1232 N   0  0  0  0  0  0  0  0  0  0  0  0
  -27.4924  -20.7311   17.6728 N   0  0  0  0  0  0  0  0  0  0  0  0
  -25.7758  -22.4658   15.2797 N   0  3  0  0  0  0  0  0  0  0  0  0
  -27.7959  -30.1910   15.8411 O   0  0  0  0  0  0  0  0  0  0  0  0
  -25.9323  -16.7914   21.0646 O   0  0  0  0  0  0  0  0  0  0  0  0
  -27.4387  -17.8687   17.7836 O   0  0  0  0  0  0  0  0  0  0  0  0
  -25.9409  -22.3444   18.2789 O   0  0  0  0  0  0  0  0  0  0  0  0
  -21.1326  -31.0536   23.6598 O   0  0  0  0  0  0  0  0  0  0  0  0
  -31.2035  -25.4734   19.3988 O   0  0  0  0  0  0  0  0  0  0  0  0
  -20.5206  -20.4587   21.9417 O   0  0  0  0  0  0  0  0  0  1  0  0
  -34.5759  -24.8655   15.0789 F   0  0  0  0  0  0  0  0  0  0  0  0
  -33.9041  -26.0218   19.6196 F   0  0  0  0  0  0  0  0  0  0  0  0
  1  2  1  0  0  0  0
  1  5  2  0  0  0  0
  2  6  2  0  0  0  0
  3 10  2  0  0  0  0
  3 17  1  0  0  0  0
  4 11  1  0  0  0  0
  4 17  2  0  0  0  0
  5 19  1  0  0  0  0
  6 21  1  0  0  0  0
  7  9  2  0  0  0  0
  7 22  1  0  0  0  0
  8 12  2  0  0  0  0
  8 20  1  0  0  0  0
  9 26  1  0  0  0  0
 10 27  1  0  0  0  0
 11 27  2  0  0  0  0
 12 28  1  0  0  0  0
 13 14  2  0  0  0  0
 13 29  1  0  0  0  0
 14 30  1  0  0  0  0
 15 23  1  0  0  0  0
 15 28  2  0  0  0  0
 16 30  2  0  0  0  0
 16 31  1  0  0  0  0
 17 32  1  0  0  0  0
 18 32  1  0  0  0  0
 18 33  2  0  0  0  0
 18 34  1  0  0  0  0
 19 21  2  0  0  0  0
 19 39  1  0  0  0  0
 20 23  2  0  0  0  0
 20 40  1  0  0  0  0
 21 51  1  0  0  0  0
 22 25  2  0  0  0  0
 22 41  1  0  0  0  0
 23 42  1  0  0  0  0
 24 25  1  0  0  0  0
 24 26  2  0  0  0  0
 24 54  1  0  0  0  0
 25 68  1  0  0  0  0
 26 73  1  0  0  0  0
 27 82  1  0  0  0  0
 28 83  1  0  0  0  0
 29 31  2  0  0  0  0
 29 82  1  0  0  0  0
 30 84  1  0  0  0  0
 31 85  1  0  0  0  0
 32 66  2  0  0  0  0
 33 67  1  0  0  0  0
 33 71  1  0  0  0  0
 34 72  1  0  0  0  0
 34 77  2  0  0  0  0
 35 52  1  0  0  0  0
 35 74  1  0  0  0  0
 35 78  2  0  0  0  0
 36 63  1  0  0  0  0
 36 69  1  0  0  0  0
 36 79  2  0  0  0  0
 37 64  1  0  0  0  0
 37 75  1  0  0  0  0
 37 80  2  0  0  0  0
 38 70  1  0  0  0  0
 38 73  1  0  0  0  0
 38 81  2  0  0  0  0
 39 43  1  0  0  0  0
 40 52  1  0  0  0  0
 41 44  1  0  0  0  0
 42 69  1  0  0  0  0
 43 46  1  0  0  0  0
 44 48  1  0  0  0  0
 45 47  1  0  0  0  0
 45 49  1  0  0  0  0
 46 51  1  0  0  0  0
 47 53  1  0  0  0  0
 48 68  1  0  0  0  0
 49 70  1  0  0  0  0
 50 53  1  0  0  0  0
 50 70  1  0  0  0  0
 51 74  1  0  0  0  0
 52 69  1  0  0  0  0
 53 67  1  0  0  0  0
 55 64  1  0  0  0  0
 56 65  1  0  0  0  0
 57 65  1  0  0  0  0
 58 65  1  0  0  0  0
 59 76  1  0  0  0  0
 60 61  1  0  0  0  0
 60 62  1  0  0  0  0
 61 68  1  0  0  0  0
 62 83  1  0  0  0  0
 63 65  1  0  0  0  0
 63 75  1  0  0  0  0
 64 76  1  0  0  0  0
 66 67  1  0  0  0  0
M  CHG  1  76   1
M  ISO  4  38 100  62 101  73 100  83 101
M  END
> <Batch ID>
0027

> <Smiles>
CNC(C)C(=O)NC(C(=O)N1Cc2cc([101O:1][101CH2:1]CCN3CCCc4ccc([100NH:0][100C:0](=O)N5CCCC(n6nc(-c7ccc(Oc8ccc(F)cc8F)cc7)c(C(N)=O)c6N)C5)c(C)c43)ccc2CC1C(=O)NC1CCCc2ccccc21)C(C)(C)C

> <Shape>
0.229

> <Color>
0.087

> <Negative vol penalty>
0.000

$$$$

  -OEChem-04042321283D

 85 94  0     1  0  0  0  0  0999 V2000
  -18.1144  -34.0423   21.4648 C   0  0  0  0  0  0  0  0  0  0  0  0
  -19.2863  -33.8363   20.7439 C   0  0  0  0  0  0  0  0  0  0  0  0
  -26.9862  -12.7816   20.8638 C   0  0  0  0  0  0  0  0  0  0  0  0
  -27.2195  -12.6431   18.4631 C   0  0  0  0  0  0  0  0  0  0  0  0
  -17.9377  -33.4183   22.6991 C   0  0  0  0  0  0  0  0  0  0  0  0
  -20.2827  -33.0069   21.2574 C   0  0  0  0  0  0  0  0  0  0  0  0
  -25.3598  -28.4145   19.1482 C   0  0  0  0  0  0  0  0  0  0  0  0
  -26.4186  -11.5076   20.8821 C   0  0  0  0  0  0  0  0  0  0  0  0
  -26.6520  -11.3690   18.4814 C   0  0  0  0  0  0  0  0  0  0  0  0
  -26.7228  -28.1682   19.3073 C   0  0  0  0  0  0  0  0  0  0  0  0
  -23.4126  -10.1107   20.2212 C   0  0  0  0  0  0  0  0  0  0  0  0
  -22.2707   -9.9219   20.9996 C   0  0  0  0  0  0  0  0  0  0  0  0
  -26.2742  -27.0800   21.4130 C   0  0  0  0  0  0  0  0  0  0  0  0
  -30.3365  -23.8909   17.7427 C   0  0  0  0  0  0  0  0  0  0  0  0
  -31.8101  -21.9773   17.7991 C   0  0  0  0  0  0  0  0  0  0  0  0
  -32.2579  -23.8887   19.2073 C   0  0  0  0  0  0  0  0  0  0  0  0
  -23.4331   -8.2496   22.2993 C   0  0  0  0  0  0  0  0  0  0  0  0
  -27.3866  -13.3494   19.6542 C   0  0  0  0  0  0  0  0  0  0  0  0
  -29.3375  -14.9904   19.7483 C   0  0  0  0  0  0  0  0  0  0  0  0
  -18.9284  -32.5732   23.2235 C   0  0  0  0  0  0  0  0  0  0  0  0
  -24.4433  -28.0043   20.1272 C   0  0  0  0  0  0  0  0  0  0  0  0
  -20.1196  -32.3721   22.5005 C   0  0  0  0  0  0  0  0  0  0  0  0
  -24.8999  -27.3200   21.2627 C   0  0  0  0  0  0  0  0  0  0  0  0
  -30.6785  -22.6159   17.2921 C   0  0  0  0  0  0  0  0  0  0  0  0
  -31.1263  -24.5273   18.7002 C   0  0  0  0  0  0  0  0  0  0  0  0
  -26.2515  -10.8013   19.6910 C   0  0  0  0  0  0  0  0  0  0  0  0
  -27.1805  -27.5034   20.4412 C   0  0  0  0  0  0  0  0  0  0  0  0
  -24.5648   -9.3689   20.4818 C   0  0  0  0  0  0  0  0  0  0  0  0
  -22.2809   -8.9914   22.0387 C   0  0  0  0  0  0  0  0  0  0  0  0
  -24.5751   -8.4384   21.5208 C   0  0  0  0  0  0  0  0  0  0  0  0
  -32.5999  -22.6137   18.7567 C   0  0  0  0  0  0  0  0  0  0  0  0
  -27.9725  -14.6656   19.6345 C   0  0  0  0  0  0  0  0  0  0  0  0
  -29.3719  -16.3613   19.6717 C   0  0  0  0  0  0  0  0  0  0  0  0
  -31.4706  -26.5972   20.1164 C   0  0  0  0  0  0  0  0  0  0  0  0
  -30.4730  -14.1297   19.9087 C   0  0  0  0  0  0  0  0  0  0  0  0
  -22.3919  -29.4943   22.0443 C   0  0  0  0  0  0  0  0  0  0  0  0
  -21.5042  -26.4679   22.8028 C   0  0  0  0  0  0  0  0  0  0  0  0
  -22.3313  -23.1610   22.9666 C   0  0  0  0  0  0  0  0  0  0  0  0
  -27.7284  -21.1468   17.3172 C   0  0  0  0  0  0  0  0  0  0  0  0
  -18.7123  -31.9581   24.5835 C   0  0  0  0  0  0  0  0  0  0  0  0
  -22.9735  -28.2539   19.9279 C   0  0  0  0  0  0  0  0  0  0  0  0
  -23.9549  -26.8410   22.3332 C   0  0  0  0  0  0  0  0  0  0  0  0
  -30.7884  -27.9446   20.2038 C   0  0  0  0  0  0  0  0  0  0  0  0
  -19.6574  -30.7976   24.8842 C   0  0  0  0  0  0  0  0  0  0  0  0
  -25.6320  -19.7629   19.8404 C   0  0  0  0  0  0  0  0  0  0  0  0
  -21.0902  -31.1660   24.5127 C   0  0  0  0  0  0  0  0  0  0  0  0
  -26.1625  -18.3390   20.0163 C   0  0  0  0  0  0  0  0  0  0  0  0
  -25.6963  -20.2130   18.3825 C   0  0  0  0  0  0  0  0  0  0  0  0
  -27.5537  -18.6582   17.9279 C   0  0  0  0  0  0  0  0  0  0  0  0
  -29.6532  -26.5695   18.6081 C   0  0  0  0  0  0  0  0  0  0  0  0
  -21.2131  -31.4598   23.0127 C   0  0  1  0  0  0  0  0  0  0  0  0
  -22.1839  -28.2467   21.2332 C   0  0  1  0  0  0  0  0  0  0  0  0
  -27.5610  -18.1803   19.3901 C   0  0  2  0  0  0  0  0  0  0  0  0
  -29.4206  -27.6973   19.5943 C   0  0  1  0  0  0  0  0  0  1  0  0
  -22.0169  -20.6971   23.3239 C   0  0  0  0  0  0  0  0  0  0  0  0
  -21.9541  -27.2031   25.7297 C   0  0  0  0  0  0  0  0  0  0  0  0
  -21.9556  -24.7588   26.2711 C   0  0  0  0  0  0  0  0  0  0  0  0
  -19.9154  -25.8188   25.3033 C   0  0  0  0  0  0  0  0  0  0  0  0
  -21.4691  -22.7472   20.1659 C   0  0  0  0  0  0  0  0  0  0  0  0
  -29.8344  -21.9357   16.2676 C   0  0  0  0  0  0  0  0  0  0  0  0
  -21.9386  -25.4526   23.8320 C   0  0  1  0  0  0  0  0  0  0  0  0
  -21.5911  -21.9141   22.5175 C   0  0  2  0  0  0  0  0  0  0  0  0
  -21.4592  -25.8189   25.2650 C   0  0  0  0  0  0  0  0  0  0  0  0
  -27.1958  -15.7435   19.4964 N   0  0  0  0  0  0  0  0  0  0  0  0
  -28.0758  -16.7589   19.5229 N   0  0  0  0  0  0  0  0  0  0  0  0
  -30.7767  -25.8327   19.1607 N   0  0  0  0  0  0  0  0  0  0  0  0
  -22.5279  -27.1144   22.0957 N   0  0  0  0  0  0  0  0  0  0  0  0
  -27.0494  -20.0381   17.8490 N   0  0  0  0  0  0  0  0  0  0  0  0
  -30.3841  -17.2534   19.7178 N   0  0  0  0  0  0  0  0  0  0  0  0
  -30.2593  -12.7458   19.9685 N   0  0  0  0  0  0  0  0  0  0  0  0
  -21.2392  -30.2262   22.2565 N   0  0  0  0  0  0  0  0  0  0  0  0
  -21.4624  -24.1586   23.3552 N   0  0  0  0  0  0  0  0  0  0  0  0
  -29.0085  -20.8953   16.8387 N   0  0  0  0  0  0  0  0  0  0  0  0
  -21.8616  -21.6417   21.0774 N   0  3  0  0  0  0  0  0  0  0  0  0
  -32.4777  -26.3311   20.7567 O   0  0  0  0  0  0  0  0  0  0  0  0
  -31.6408  -14.5756   20.0129 O   0  0  0  0  0  0  0  0  0  0  0  0
  -23.5149  -29.7716   22.4489 O   0  0  0  0  0  0  0  0  0  0  0  0
  -20.3008  -26.6745   22.6275 O   0  0  0  0  0  0  0  0  0  0  0  0
  -23.5577  -23.2406   22.9757 O   0  0  0  0  0  0  0  0  0  0  0  0
  -27.2329  -22.2780   17.2770 O   0  0  0  0  0  0  0  0  0  0  0  0
  -25.6980   -9.5580   19.7086 O   0  0  0  0  0  0  0  0  0  0  0  0
  -28.5105  -27.2624   20.5992 O   0  0  0  0  0  0  0  0  0  1  0  0
  -21.1847   -8.8113   22.7871 F   0  0  0  0  0  0  0  0  0  0  0  0
  -25.6793   -7.7236   21.7767 F   0  0  0  0  0  0  0  0  0  0  0  0
  -33.9974  -21.8267   19.3811 Cl  0  0  0  0  0  0  0  0  0  0  0  0
  1  2  1  0  0  0  0
  1  5  2  0  0  0  0
  2  6  2  0  0  0  0
  3  8  2  0  0  0  0
  3 18  1  0  0  0  0
  4  9  1  0  0  0  0
  4 18  2  0  0  0  0
  5 20  1  0  0  0  0
  6 22  1  0  0  0  0
  7 10  2  0  0  0  0
  7 21  1  0  0  0  0
  8 26  1  0  0  0  0
  9 26  2  0  0  0  0
 10 27  1  0  0  0  0
 11 12  2  0  0  0  0
 11 28  1  0  0  0  0
 12 29  1  0  0  0  0
 13 23  1  0  0  0  0
 13 27  2  0  0  0  0
 14 24  1  0  0  0  0
 14 25  2  0  0  0  0
 15 24  2  0  0  0  0
 15 31  1  0  0  0  0
 16 25  1  0  0  0  0
 16 31  2  0  0  0  0
 17 29  2  0  0  0  0
 17 30  1  0  0  0  0
 18 32  1  0  0  0  0
 19 32  1  0  0  0  0
 19 33  2  0  0  0  0
 19 35  1  0  0  0  0
 20 22  2  0  0  0  0
 20 40  1  0  0  0  0
 21 23  2  0  0  0  0
 21 41  1  0  0  0  0
 22 51  1  0  0  0  0
 23 42  1  0  0  0  0
 24 60  1  0  0  0  0
 25 66  1  0  0  0  0
 26 81  1  0  0  0  0
 27 82  1  0  0  0  0
 28 30  2  0  0  0  0
 28 81  1  0  0  0  0
 29 83  1  0  0  0  0
 30 84  1  0  0  0  0
 31 85  1  0  0  0  0
 32 64  2  0  0  0  0
 33 65  1  0  0  0  0
 33 69  1  0  0  0  0
 34 43  1  0  0  0  0
 34 66  1  0  0  0  0
 34 75  2  0  0  0  0
 35 70  1  0  0  0  0
 35 76  2  0  0  0  0
 36 52  1  0  0  0  0
 36 71  1  0  0  0  0
 36 77  2  0  0  0  0
 37 61  1  0  0  0  0
 37 67  1  0  0  0  0
 37 78  2  0  0  0  0
 38 62  1  0  0  0  0
 38 72  1  0  0  0  0
 38 79  2  0  0  0  0
 39 68  1  0  0  0  0
 39 73  1  0  0  0  0
 39 80  2  0  0  0  0
 40 44  1  0  0  0  0
 41 52  1  0  0  0  0
 42 67  1  0  0  0  0
 43 54  1  0  0  0  0
 44 46  1  0  0  0  0
 45 47  1  0  0  0  0
 45 48  1  0  0  0  0
 46 51  1  0  0  0  0
 47 53  1  0  0  0  0
 48 68  1  0  0  0  0
 49 53  1  0  0  0  0
 49 68  1  0  0  0  0
 50 54  1  0  0  0  0
 50 66  1  0  0  0  0
 51 71  1  0  0  0  0
 52 67  1  0  0  0  0
 53 65  1  0  0  0  0
 54 82  1  0  0  0  0
 55 62  1  0  0  0  0
 56 63  1  0  0  0  0
 57 63  1  0  0  0  0
 58 63  1  0  0  0  0
 59 74  1  0  0  0  0
 60 73  1  0  0  0  0
 61 63  1  0  0  0  0
 61 72  1  0  0  0  0
 62 74  1  0  0  0  0
 64 65  1  0  0  0  0
M  CHG  1  74   1
M  ISO  4  39 100  54 101  73 100  82 101
M  END
> <Batch ID>
0027

> <Smiles>
CNC(C)C(=O)NC(C(=O)N1Cc2cc([101O:1][101CH:1]3CC(=O)N(c4cc(Cl)cc(C[100NH:0][100C:0](=O)N5CCCC(n6nc(-c7ccc(Oc8ccc(F)cc8F)cc7)c(C(N)=O)c6N)C5)c4)C3)ccc2CC1C(=O)NC1CCCc2ccccc21)C(C)(C)C

> <Shape>
0.235

> <Color>
0.090

> <Negative vol penalty>
0.000

$$$$

  -OEChem-04042321283D

 88 98  0     1  0  0  0  0  0999 V2000
  -18.1654  -26.9516   22.4692 C   0  0  0  0  0  0  0  0  0  0  0  0
  -19.4070  -26.3587   22.2637 C   0  0  0  0  0  0  0  0  0  0  0  0
  -23.2372   -9.7009   19.9029 C   0  0  0  0  0  0  0  0  0  0  0  0
  -23.8645   -9.8328   22.2323 C   0  0  0  0  0  0  0  0  0  0  0  0
  -18.0856  -28.3060   22.7904 C   0  0  0  0  0  0  0  0  0  0  0  0
  -20.5695  -27.1201   22.3783 C   0  0  0  0  0  0  0  0  0  0  0  0
  -24.1893  -24.7545   25.0138 C   0  0  0  0  0  0  0  0  0  0  0  0
  -32.1450  -17.9988   23.6259 C   0  0  0  0  0  0  0  0  0  0  0  0
  -31.6422  -17.0572   22.7280 C   0  0  0  0  0  0  0  0  0  0  0  0
  -22.5515   -8.5127   20.1547 C   0  0  0  0  0  0  0  0  0  0  0  0
  -23.1787   -8.6445   22.4842 C   0  0  0  0  0  0  0  0  0  0  0  0
  -24.9127  -23.7625   24.3533 C   0  0  0  0  0  0  0  0  0  0  0  0
  -19.9758   -7.6675   22.9397 C   0  0  0  0  0  0  0  0  0  0  0  0
  -19.1577   -7.6200   24.0684 C   0  0  0  0  0  0  0  0  0  0  0  0
  -26.7138  -25.3258   23.9907 C   0  0  0  0  0  0  0  0  0  0  0  0
  -20.4704   -5.7898   24.9428 C   0  0  0  0  0  0  0  0  0  0  0  0
  -23.8938  -10.3610   20.9416 C   0  0  0  0  0  0  0  0  0  0  0  0
  -24.0885  -12.8970   20.7465 C   0  0  0  0  0  0  0  0  0  0  0  0
  -19.2483  -29.0822   22.9185 C   0  0  0  0  0  0  0  0  0  0  0  0
  -24.7190  -26.0448   25.1585 C   0  0  0  0  0  0  0  0  0  0  0  0
  -20.5052  -28.4864   22.7002 C   0  0  0  0  0  0  0  0  0  0  0  0
  -25.9962  -26.3317   24.6558 C   0  0  0  0  0  0  0  0  0  0  0  0
  -29.8981  -18.7557   24.0904 C   0  0  0  0  0  0  0  0  0  0  0  0
  -29.3953  -17.8142   23.1924 C   0  0  0  0  0  0  0  0  0  0  0  0
  -31.2729  -18.8480   24.3072 C   0  0  0  0  0  0  0  0  0  0  0  0
  -30.2674  -16.9650   22.5112 C   0  0  0  0  0  0  0  0  0  0  0  0
  -22.5222   -7.9845   21.4454 C   0  0  0  0  0  0  0  0  0  0  0  0
  -26.1740  -24.0488   23.8391 C   0  0  0  0  0  0  0  0  0  0  0  0
  -21.0412   -6.7761   22.8124 C   0  0  0  0  0  0  0  0  0  0  0  0
  -19.4050   -6.6811   25.0700 C   0  0  0  0  0  0  0  0  0  0  0  0
  -21.2885   -5.8373   23.8140 C   0  0  0  0  0  0  0  0  0  0  0  0
  -24.6028  -11.5881   20.6819 C   0  0  0  0  0  0  0  0  0  0  0  0
  -25.1521  -13.7005   20.4155 C   0  0  0  0  0  0  0  0  0  0  0  0
  -22.7675  -13.3464   21.0763 C   0  0  0  0  0  0  0  0  0  0  0  0
  -23.8573  -28.9455   24.1853 C   0  0  0  0  0  0  0  0  0  0  0  0
  -26.3532  -29.8816   26.0337 C   0  0  0  0  0  0  0  0  0  0  0  0
  -29.3259  -29.0841   27.5080 C   0  0  0  0  0  0  0  0  0  0  0  0
  -30.5264  -15.0907   20.8479 C   0  0  0  0  0  0  0  0  0  0  0  0
  -19.1094  -30.5533   23.2208 C   0  0  0  0  0  0  0  0  0  0  0  0
  -23.9373  -27.0963   25.8971 C   0  0  0  0  0  0  0  0  0  0  0  0
  -26.6182  -27.6955   24.8025 C   0  0  0  0  0  0  0  0  0  0  0  0
  -20.4078  -31.2036   23.6914 C   0  0  0  0  0  0  0  0  0  0  0  0
  -33.2421  -21.3895   26.1982 C   0  0  0  0  0  0  0  0  0  0  0  0
  -32.0387  -21.1996   27.0993 C   0  0  0  0  0  0  0  0  0  0  0  0
  -29.6957  -12.5334   18.5140 C   0  0  0  0  0  0  0  0  0  0  0  0
  -21.5685  -30.7901   22.7921 C   0  0  0  0  0  0  0  0  0  0  0  0
  -28.2543  -12.1672   18.8752 C   0  0  0  0  0  0  0  0  0  0  0  0
  -32.7467  -20.8570   24.8584 C   0  0  0  0  0  0  0  0  0  0  0  0
  -31.4851  -19.8549   26.6423 C   0  0  0  0  0  0  0  0  0  0  0  0
  -30.5259  -12.8594   19.7542 C   0  0  0  0  0  0  0  0  0  0  0  0
  -28.5036  -13.5096   21.0019 C   0  0  0  0  0  0  0  0  0  0  0  0
  -28.8286  -21.4679   23.1698 C   0  0  0  0  0  0  0  0  0  0  0  0
  -28.1319  -21.9572   25.0771 C   0  0  0  0  0  0  0  0  0  0  0  0
  -21.7902  -29.2734   22.8398 C   0  0  1  0  0  0  0  0  0  0  0  0
  -24.3580  -28.5175   25.5358 C   0  0  1  0  0  0  0  0  0  0  0  0
  -27.6112  -13.2362   19.7803 C   0  0  2  0  0  0  0  0  0  0  0  0
  -28.1599  -22.7286   23.7460 C   0  0  0  0  0  0  0  0  0  1  0  0
  -27.9196  -17.7168   22.9601 C   0  0  0  0  0  0  0  0  0  0  0  0
  -31.1490  -30.0680   28.9241 C   0  0  0  0  0  0  0  0  0  0  0  0
  -27.4292  -31.3798   23.6031 C   0  0  0  0  0  0  0  0  0  0  0  0
  -29.6437  -31.5276   24.7617 C   0  0  0  0  0  0  0  0  0  0  0  0
  -27.6370  -32.6164   25.7669 C   0  0  0  0  0  0  0  0  0  0  0  0
  -28.8505  -27.1321   29.6811 C   0  0  0  0  0  0  0  0  0  0  0  0
  -28.9583  -19.6679   24.8222 C   0  0  0  0  0  0  0  0  0  0  0  0
  -27.8302  -30.0958   25.8069 C   0  0  1  0  0  0  0  0  0  0  0  0
  -29.8385  -29.2965   28.9210 C   0  0  2  0  0  0  0  0  0  0  0  0
  -28.1228  -31.3796   24.9800 C   0  0  0  0  0  0  0  0  0  0  0  0
  -25.8927  -11.5574   20.3368 N   0  0  0  0  0  0  0  0  0  0  0  0
  -26.1979  -12.8569   20.1815 N   0  0  0  0  0  0  0  0  0  0  0  0
  -31.8002  -19.7911   25.2099 N   0  0  0  0  0  0  0  0  0  0  0  0
  -25.8119  -28.6916   25.5270 N   0  0  0  0  0  0  0  0  0  0  0  0
  -29.8569  -13.8823   20.5610 N   0  0  0  0  0  0  0  0  0  0  0  0
  -25.2854  -15.0393   20.3046 N   0  0  0  0  0  0  0  0  0  0  0  0
  -21.7950  -12.3877   21.3917 N   0  0  0  0  0  0  0  0  0  0  0  0
  -29.7791  -16.0007   21.5949 N   0  0  0  0  0  0  0  0  0  0  0  0
  -22.4823  -28.9018   24.0553 N   0  0  0  0  0  0  0  0  0  0  0  0
  -28.4522  -30.0803   27.1265 N   0  0  0  0  0  0  0  0  0  0  0  0
  -29.2079  -21.0997   24.5463 N   0  3  0  0  0  0  0  0  0  0  0  0
  -30.0633  -27.9855   29.5930 N   0  3  0  0  0  0  0  0  0  0  0  0
  -22.4544  -14.5611   21.0749 O   0  0  0  0  0  0  0  0  0  0  0  0
  -24.6590  -29.2911   23.3254 O   0  0  0  0  0  0  0  0  0  0  0  0
  -25.7050  -30.7353   26.6443 O   0  0  0  0  0  0  0  0  0  0  0  0
  -29.6692  -28.1318   26.8110 O   0  0  0  0  0  0  0  0  0  0  0  0
  -31.6679  -15.3137   20.4363 O   0  0  0  0  0  0  0  0  0  0  0  0
  -21.8530   -6.8251   21.6916 O   0  0  0  0  0  0  0  0  0  0  0  0
  -26.8819  -23.0826   23.1933 O   0  0  0  0  0  0  0  0  0  1  0  0
  -18.6203   -6.6366   26.1545 F   0  0  0  0  0  0  0  0  0  0  0  0
  -22.3112   -4.9792   23.6979 F   0  0  0  0  0  0  0  0  0  0  0  0
  1  2  1  0  0  0  0
  1  5  2  0  0  0  0
  2  6  2  0  0  0  0
  3 10  2  0  0  0  0
  3 17  1  0  0  0  0
  4 11  1  0  0  0  0
  4 17  2  0  0  0  0
  5 19  1  0  0  0  0
  6 21  1  0  0  0  0
  7 12  2  0  0  0  0
  7 20  1  0  0  0  0
  8  9  1  0  0  0  0
  8 25  2  0  0  0  0
  9 26  2  0  0  0  0
 10 27  1  0  0  0  0
 11 27  2  0  0  0  0
 12 28  1  0  0  0  0
 13 14  2  0  0  0  0
 13 29  1  0  0  0  0
 14 30  1  0  0  0  0
 15 22  1  0  0  0  0
 15 28  2  0  0  0  0
 16 30  2  0  0  0  0
 16 31  1  0  0  0  0
 17 32  1  0  0  0  0
 18 32  1  0  0  0  0
 18 33  2  0  0  0  0
 18 34  1  0  0  0  0
 19 21  2  0  0  0  0
 19 39  1  0  0  0  0
 20 22  2  0  0  0  0
 20 40  1  0  0  0  0
 21 54  1  0  0  0  0
 22 41  1  0  0  0  0
 23 24  2  0  0  0  0
 23 25  1  0  0  0  0
 23 64  1  0  0  0  0
 24 26  1  0  0  0  0
 24 58  1  0  0  0  0
 25 70  1  0  0  0  0
 26 75  1  0  0  0  0
 27 85  1  0  0  0  0
 28 86  1  0  0  0  0
 29 31  2  0  0  0  0
 29 85  1  0  0  0  0
 30 87  1  0  0  0  0
 31 88  1  0  0  0  0
 32 68  2  0  0  0  0
 33 69  1  0  0  0  0
 33 73  1  0  0  0  0
 34 74  1  0  0  0  0
 34 80  2  0  0  0  0
 35 55  1  0  0  0  0
 35 76  1  0  0  0  0
 35 81  2  0  0  0  0
 36 65  1  0  0  0  0
 36 71  1  0  0  0  0
 36 82  2  0  0  0  0
 37 66  1  0  0  0  0
 37 77  1  0  0  0  0
 37 83  2  0  0  0  0
 38 72  1  0  0  0  0
 38 75  1  0  0  0  0
 38 84  2  0  0  0  0
 39 42  1  0  0  0  0
 40 55  1  0  0  0  0
 41 71  1  0  0  0  0
 42 46  1  0  0  0  0
 43 44  1  0  0  0  0
 43 48  1  0  0  0  0
 44 49  1  0  0  0  0
 45 47  1  0  0  0  0
 45 50  1  0  0  0  0
 46 54  1  0  0  0  0
 47 56  1  0  0  0  0
 48 70  1  0  0  0  0
 49 70  1  0  0  0  0
 50 72  1  0  0  0  0
 51 56  1  0  0  0  0
 51 72  1  0  0  0  0
 52 57  1  0  0  0  0
 52 78  1  0  0  0  0
 53 57  1  0  0  0  0
 53 78  1  0  0  0  0
 54 76  1  0  0  0  0
 55 71  1  0  0  0  0
 56 69  1  0  0  0  0
 57 86  1  0  0  0  0
 59 66  1  0  0  0  0
 60 67  1  0  0  0  0
 61 67  1  0  0  0  0
 62 67  1  0  0  0  0
 63 79  1  0  0  0  0
 64 78  1  0  0  0  0
 65 67  1  0  0  0  0
 65 77  1  0  0  0  0
 66 79  1  0  0  0  0
 68 69  1  0  0  0  0
M  CHG  2  78   1  79   1
M  ISO  4  38 100  57 101  75 100  86 101
M  END
> <Batch ID>
0027

> <Smiles>
CNC(C)C(=O)NC(C(=O)N1Cc2cc([101O:1][101CH:1]3CN(Cc4c(N5CCCC5)ccc([100NH:0][100C:0](=O)N5CCCC(n6nc(-c7ccc(Oc8ccc(F)cc8F)cc7)c(C(N)=O)c6N)C5)c4C)C3)ccc2CC1C(=O)NC1CCCc2ccccc21)C(C)(C)C

> <Shape>
0.283

> <Color>
0.203

> <Negative vol penalty>
0.000

$$$$

  -OEChem-04042321283D

 82 90  0     1  0  0  0  0  0999 V2000
  -29.5028  -33.9784   26.0407 C   0  0  0  0  0  0  0  0  0  0  0  0
  -29.6470  -32.8787   25.2008 C   0  0  0  0  0  0  0  0  0  0  0  0
  -24.6205   -9.0176   21.3632 C   0  0  0  0  0  0  0  0  0  0  0  0
  -23.3700  -10.8833   22.2534 C   0  0  0  0  0  0  0  0  0  0  0  0
  -28.2786  -34.2246   26.6609 C   0  0  0  0  0  0  0  0  0  0  0  0
  -28.5674  -32.0239   24.9816 C   0  0  0  0  0  0  0  0  0  0  0  0
  -27.2123  -29.0599   19.7966 C   0  0  0  0  0  0  0  0  0  0  0  0
  -28.2182  -19.1070   20.2807 C   0  0  0  0  0  0  0  0  0  0  0  0
  -27.7851  -20.4221   20.1123 C   0  0  0  0  0  0  0  0  0  0  0  0
  -24.0871   -8.1890   22.3504 C   0  0  0  0  0  0  0  0  0  0  0  0
  -22.8365  -10.0547   23.2406 C   0  0  0  0  0  0  0  0  0  0  0  0
  -27.4463  -27.7516   19.3754 C   0  0  0  0  0  0  0  0  0  0  0  0
  -21.1865   -6.5499   22.9269 C   0  0  0  0  0  0  0  0  0  0  0  0
  -20.7202   -5.2944   22.5371 C   0  0  0  0  0  0  0  0  0  0  0  0
  -25.2300  -27.1294   20.0964 C   0  0  0  0  0  0  0  0  0  0  0  0
  -26.2095  -18.6049   21.5258 C   0  0  0  0  0  0  0  0  0  0  0  0
  -22.3069   -4.2432   24.0253 C   0  0  0  0  0  0  0  0  0  0  0  0
  -24.2620  -10.3648   21.3147 C   0  0  0  0  0  0  0  0  0  0  0  0
  -24.2796  -11.4738   19.0175 C   0  0  0  0  0  0  0  0  0  0  0  0
  -27.1806  -33.3778   26.4415 C   0  0  0  0  0  0  0  0  0  0  0  0
  -25.9872  -29.4108   20.3818 C   0  0  0  0  0  0  0  0  0  0  0  0
  -27.3277  -32.2582   25.6005 C   0  0  0  0  0  0  0  0  0  0  0  0
  -24.9819  -28.4434   20.5218 C   0  0  0  0  0  0  0  0  0  0  0  0
  -25.7764  -19.9201   21.3574 C   0  0  0  0  0  0  0  0  0  0  0  0
  -27.4304  -18.1983   20.9875 C   0  0  0  0  0  0  0  0  0  0  0  0
  -26.5642  -20.8287   20.6506 C   0  0  0  0  0  0  0  0  0  0  0  0
  -23.1951   -8.7075   23.2890 C   0  0  0  0  0  0  0  0  0  0  0  0
  -26.4562  -26.7854   19.5279 C   0  0  0  0  0  0  0  0  0  0  0  0
  -22.2130   -6.6521   23.8658 C   0  0  0  0  0  0  0  0  0  0  0  0
  -21.2804   -4.1410   23.0863 C   0  0  0  0  0  0  0  0  0  0  0  0
  -22.7731   -5.4987   24.4150 C   0  0  0  0  0  0  0  0  0  0  0  0
  -24.8131  -11.2213   20.2956 C   0  0  0  0  0  0  0  0  0  0  0  0
  -25.1694  -12.3467   18.4404 C   0  0  0  0  0  0  0  0  0  0  0  0
  -23.0865  -10.9650   18.4066 C   0  0  0  0  0  0  0  0  0  0  0  0
  -25.0951  -30.5210   23.2235 C   0  0  0  0  0  0  0  0  0  0  0  0
  -22.1884  -30.7229   21.7977 C   0  0  0  0  0  0  0  0  0  0  0  0
  -26.8101  -23.1810   19.7902 C   0  0  0  0  0  0  0  0  0  0  0  0
  -20.0837  -29.6327   19.3424 C   0  0  0  0  0  0  0  0  0  0  0  0
  -29.0528  -16.2952   20.6839 C   0  0  0  0  0  0  0  0  0  0  0  0
  -25.8908  -33.6578   27.1712 C   0  0  0  0  0  0  0  0  0  0  0  0
  -25.7406  -30.8325   20.8064 C   0  0  0  0  0  0  0  0  0  0  0  0
  -23.6421  -28.7736   21.1254 C   0  0  0  0  0  0  0  0  0  0  0  0
  -24.6894  -32.9157   26.5914 C   0  0  0  0  0  0  0  0  0  0  0  0
  -29.7986  -13.5708   18.5163 C   0  0  0  0  0  0  0  0  0  0  0  0
  -25.0367  -31.4518   26.3399 C   0  0  0  0  0  0  0  0  0  0  0  0
  -28.5537  -12.6851   18.6056 C   0  0  0  0  0  0  0  0  0  0  0  0
  -30.1340  -14.2148   19.8603 C   0  0  0  0  0  0  0  0  0  0  0  0
  -27.7831  -14.0607   20.5807 C   0  0  0  0  0  0  0  0  0  0  0  0
  -26.1728  -31.3220   25.3182 C   0  0  1  0  0  0  0  0  0  0  0  0
  -24.6439  -30.9600   21.8592 C   0  0  1  0  0  0  0  0  0  0  0  0
  -27.3680  -13.4416   19.2360 C   0  0  2  0  0  0  0  0  0  0  0  0
  -24.4635  -20.3278   21.9429 C   0  0  0  0  0  0  0  0  0  0  0  0
  -17.7596  -29.9563   18.4529 C   0  0  0  0  0  0  0  0  0  0  0  0
  -21.0742  -29.0893   24.1215 C   0  0  0  0  0  0  0  0  0  0  0  0
  -19.0355  -28.6423   22.7386 C   0  0  0  0  0  0  0  0  0  0  0  0
  -19.6154  -30.9815   23.3825 C   0  0  0  0  0  0  0  0  0  0  0  0
  -21.0920  -30.5399   16.7119 C   0  0  0  0  0  0  0  0  0  0  0  0
  -26.0089  -24.4691   19.8286 C   0  0  0  0  0  0  0  0  0  1  0  0
  -21.0088  -29.7943   21.6386 C   0  0  1  0  0  0  0  0  0  0  0  0
  -19.2147  -30.3870   18.3523 C   0  0  2  0  0  0  0  0  0  0  0  0
  -20.2093  -29.6199   22.9606 C   0  0  0  0  0  0  0  0  0  0  0  0
  -25.9534  -11.8803   20.5177 N   0  0  0  0  0  0  0  0  0  0  0  0
  -26.1439  -12.5555   19.3715 N   0  0  0  0  0  0  0  0  0  0  0  0
  -23.4515  -30.1760   21.5309 N   0  0  0  0  0  0  0  0  0  0  0  0
  -28.9652  -14.9169   20.3948 N   0  0  0  0  0  0  0  0  0  0  0  0
  -25.2054  -12.9482   17.2324 N   0  0  0  0  0  0  0  0  0  0  0  0
  -22.2865  -10.0780   19.1398 N   0  0  0  0  0  0  0  0  0  0  0  0
  -26.1417  -22.1667   20.4674 N   0  0  0  0  0  0  0  0  0  0  0  0
  -27.8693  -16.8617   21.1561 N   0  0  0  0  0  0  0  0  0  0  0  0
  -25.6713  -31.5264   23.9761 N   0  0  0  0  0  0  0  0  0  0  0  0
  -20.2214  -30.3211   20.5292 N   0  0  0  0  0  0  0  0  0  0  0  0
  -19.6827  -30.1402   16.9592 N   0  3  0  0  0  0  0  0  0  0  0  0
  -22.7486  -11.2746   17.2389 O   0  0  0  0  0  0  0  0  0  0  0  0
  -24.9311  -29.3566   23.5684 O   0  0  0  0  0  0  0  0  0  0  0  0
  -21.9955  -31.8925   22.1391 O   0  0  0  0  0  0  0  0  0  0  0  0
  -27.8943  -23.1154   19.2204 O   0  0  0  0  0  0  0  0  0  0  0  0
  -20.5869  -28.5402   19.0897 O   0  0  0  0  0  0  0  0  0  0  0  0
  -30.0929  -16.9323   20.4984 O   0  0  0  0  0  0  0  0  0  0  0  0
  -22.6742   -7.8993   24.2523 O   0  0  0  0  0  0  0  0  0  0  0  0
  -26.6823  -25.5076   19.1183 O   0  0  0  0  0  0  0  0  0  1  0  0
  -20.8315   -2.9355   22.7130 F   0  0  0  0  0  0  0  0  0  0  0  0
  -23.7587   -5.5905   25.3183 F   0  0  0  0  0  0  0  0  0  0  0  0
  1  2  1  0  0  0  0
  1  5  2  0  0  0  0
  2  6  2  0  0  0  0
  3 10  2  0  0  0  0
  3 18  1  0  0  0  0
  4 11  1  0  0  0  0
  4 18  2  0  0  0  0
  5 20  1  0  0  0  0
  6 22  1  0  0  0  0
  7 12  2  0  0  0  0
  7 21  1  0  0  0  0
  8  9  2  0  0  0  0
  8 25  1  0  0  0  0
  9 26  1  0  0  0  0
 10 27  1  0  0  0  0
 11 27  2  0  0  0  0
 12 28  1  0  0  0  0
 13 14  2  0  0  0  0
 13 29  1  0  0  0  0
 14 30  1  0  0  0  0
 15 23  1  0  0  0  0
 15 28  2  0  0  0  0
 16 24  1  0  0  0  0
 16 25  2  0  0  0  0
 17 30  2  0  0  0  0
 17 31  1  0  0  0  0
 18 32  1  0  0  0  0
 19 32  1  0  0  0  0
 19 33  2  0  0  0  0
 19 34  1  0  0  0  0
 20 22  2  0  0  0  0
 20 40  1  0  0  0  0
 21 23  2  0  0  0  0
 21 41  1  0  0  0  0
 22 49  1  0  0  0  0
 23 42  1  0  0  0  0
 24 26  2  0  0  0  0
 24 52  1  0  0  0  0
 25 69  1  0  0  0  0
 26 68  1  0  0  0  0
 27 79  1  0  0  0  0
 28 80  1  0  0  0  0
 29 31  2  0  0  0  0
 29 79  1  0  0  0  0
 30 81  1  0  0  0  0
 31 82  1  0  0  0  0
 32 62  2  0  0  0  0
 33 63  1  0  0  0  0
 33 66  1  0  0  0  0
 34 67  1  0  0  0  0
 34 73  2  0  0  0  0
 35 50  1  0  0  0  0
 35 70  1  0  0  0  0
 35 74  2  0  0  0  0
 36 59  1  0  0  0  0
 36 64  1  0  0  0  0
 36 75  2  0  0  0  0
 37 58  1  0  0  0  0
 37 68  1  0  0  0  0
 37 76  2  0  0  0  0
 38 60  1  0  0  0  0
 38 71  1  0  0  0  0
 38 77  2  0  0  0  0
 39 65  1  0  0  0  0
 39 69  1  0  0  0  0
 39 78  2  0  0  0  0
 40 43  1  0  0  0  0
 41 50  1  0  0  0  0
 42 64  1  0  0  0  0
 43 45  1  0  0  0  0
 44 46  1  0  0  0  0
 44 47  1  0  0  0  0
 45 49  1  0  0  0  0
 46 51  1  0  0  0  0
 47 65  1  0  0  0  0
 48 51  1  0  0  0  0
 48 65  1  0  0  0  0
 49 70  1  0  0  0  0
 50 64  1  0  0  0  0
 51 63  1  0  0  0  0
 53 60  1  0  0  0  0
 54 61  1  0  0  0  0
 55 61  1  0  0  0  0
 56 61  1  0  0  0  0
 57 72  1  0  0  0  0
 58 80  1  0  0  0  0
 59 61  1  0  0  0  0
 59 71  1  0  0  0  0
 60 72  1  0  0  0  0
 62 63  1  0  0  0  0
M  CHG  1  72   1
M  ISO  4  39 100  58 101  69 100  80 101
M  END
> <Batch ID>
0027

> <Smiles>
CNC(C)C(=O)NC(C(=O)N1Cc2cc([101O:1][101CH2:1]C(=O)Nc3ccc([100NH:0][100C:0](=O)N4CCCC(n5nc(-c6ccc(Oc7ccc(F)cc7F)cc6)c(C(N)=O)c5N)C4)cc3C)ccc2CC1C(=O)NC1CCCc2ccccc21)C(C)(C)C

> <Shape>
0.307

> <Color>
0.100

> <Negative vol penalty>
0.000

$$$$

  -OEChem-04042321283D

 87 96  0     1  0  0  0  0  0999 V2000
  -29.8796  -36.7664   24.6707 C   0  0  0  0  0  0  0  0  0  0  0  0
  -30.1469  -35.7272   23.7853 C   0  0  0  0  0  0  0  0  0  0  0  0
  -33.0750  -19.9889   18.3027 C   0  0  0  0  0  0  0  0  0  0  0  0
  -24.2212  -11.8287   22.1303 C   0  0  0  0  0  0  0  0  0  0  0  0
  -26.1119  -11.8623   20.6265 C   0  0  0  0  0  0  0  0  0  0  0  0
  -28.9359  -36.5935   25.6824 C   0  0  0  0  0  0  0  0  0  0  0  0
  -29.4713  -34.5140   23.9117 C   0  0  0  0  0  0  0  0  0  0  0  0
  -27.7192  -30.7863   19.3795 C   0  0  0  0  0  0  0  0  0  0  0  0
  -33.2883  -21.3669   18.2683 C   0  0  0  0  0  0  0  0  0  0  0  0
  -31.9620  -19.4718   18.9657 C   0  0  0  0  0  0  0  0  0  0  0  0
  -23.6335  -10.8186   21.3688 C   0  0  0  0  0  0  0  0  0  0  0  0
  -25.5243  -10.8521   19.8651 C   0  0  0  0  0  0  0  0  0  0  0  0
  -28.2827  -29.6275   18.8473 C   0  0  0  0  0  0  0  0  0  0  0  0
  -23.9624   -7.4750   20.9877 C   0  0  0  0  0  0  0  0  0  0  0  0
  -23.4080   -6.3903   21.6672 C   0  0  0  0  0  0  0  0  0  0  0  0
  -26.8502  -28.2915   20.2551 C   0  0  0  0  0  0  0  0  0  0  0  0
  -21.2488   -6.8920   20.7063 C   0  0  0  0  0  0  0  0  0  0  0  0
  -25.4604  -12.3507   21.7591 C   0  0  0  0  0  0  0  0  0  0  0  0
  -26.4324  -13.3332   23.9033 C   0  0  0  0  0  0  0  0  0  0  0  0
  -28.2414  -35.3808   25.8152 C   0  0  0  0  0  0  0  0  0  0  0  0
  -26.7229  -30.7064   20.3631 C   0  0  0  0  0  0  0  0  0  0  0  0
  -28.5183  -34.3242   24.9269 C   0  0  0  0  0  0  0  0  0  0  0  0
  -26.2738  -29.4508   20.7964 C   0  0  0  0  0  0  0  0  0  0  0  0
  -32.3887  -22.2279   18.8969 C   0  0  0  0  0  0  0  0  0  0  0  0
  -31.0624  -20.3327   19.5943 C   0  0  0  0  0  0  0  0  0  0  0  0
  -24.2850  -10.3303   20.2363 C   0  0  0  0  0  0  0  0  0  0  0  0
  -27.8503  -28.3799   19.2872 C   0  0  0  0  0  0  0  0  0  0  0  0
  -23.1599   -8.2683   20.1676 C   0  0  0  0  0  0  0  0  0  0  0  0
  -22.0512   -6.0988   21.5264 C   0  0  0  0  0  0  0  0  0  0  0  0
  -21.8032   -7.9767   20.0269 C   0  0  0  0  0  0  0  0  0  0  0  0
  -31.2757  -21.7108   19.5599 C   0  0  0  0  0  0  0  0  0  0  0  0
  -26.0677  -13.3946   22.5449 C   0  0  0  0  0  0  0  0  0  0  0  0
  -26.9637  -14.5709   24.1723 C   0  0  0  0  0  0  0  0  0  0  0  0
  -30.8798  -25.3890   18.3799 C   0  0  0  0  0  0  0  0  0  0  0  0
  -26.3027  -12.2539   24.8381 C   0  0  0  0  0  0  0  0  0  0  0  0
  -26.4713  -31.6630   23.3839 C   0  0  0  0  0  0  0  0  0  0  0  0
  -23.4154  -30.6278   23.0486 C   0  0  0  0  0  0  0  0  0  0  0  0
  -21.2046  -28.6042   21.4164 C   0  0  0  0  0  0  0  0  0  0  0  0
  -29.5660  -18.4622   20.3986 C   0  0  0  0  0  0  0  0  0  0  0  0
  -27.2644  -35.2247   26.9536 C   0  0  0  0  0  0  0  0  0  0  0  0
  -26.1062  -31.9656   20.9078 C   0  0  0  0  0  0  0  0  0  0  0  0
  -25.1927  -29.3105   21.8356 C   0  0  0  0  0  0  0  0  0  0  0  0
  -26.3210  -34.0361   26.7880 C   0  0  0  0  0  0  0  0  0  0  0  0
  -30.8792  -24.5654   15.5676 C   0  0  0  0  0  0  0  0  0  0  0  0
  -26.1811  -18.8978   22.1525 C   0  0  0  0  0  0  0  0  0  0  0  0
  -27.0982  -32.7920   26.3696 C   0  0  0  0  0  0  0  0  0  0  0  0
  -30.4390  -25.9676   15.9401 C   0  0  0  0  0  0  0  0  0  0  0  0
  -26.2429  -17.7178   23.1196 C   0  0  0  0  0  0  0  0  0  0  0  0
  -31.9814  -24.1107   16.5047 C   0  0  0  0  0  0  0  0  0  0  0  0
  -27.5650  -19.3509   21.7050 C   0  0  0  0  0  0  0  0  0  0  0  0
  -27.8721  -16.8971   21.3300 C   0  0  0  0  0  0  0  0  0  0  0  0
  -27.7882  -33.0017   25.0163 C   0  0  1  0  0  0  0  0  0  0  0  0
  -29.8886  -25.9562   17.3610 C   0  0  2  0  0  0  0  0  0  0  0  0
  -25.4613  -31.7713   22.2766 C   0  0  1  0  0  0  0  0  0  0  0  0
  -27.3415  -16.6985   22.7583 C   0  0  2  0  0  0  0  0  0  0  0  0
  -18.7822  -27.9494   21.3905 C   0  0  0  0  0  0  0  0  0  0  0  0
  -23.8524  -28.9214   25.5400 C   0  0  0  0  0  0  0  0  0  0  0  0
  -21.8078  -27.6164   24.9198 C   0  0  0  0  0  0  0  0  0  0  0  0
  -21.6245  -30.0518   25.4275 C   0  0  0  0  0  0  0  0  0  0  0  0
  -20.8530  -29.5720   18.6418 C   0  0  0  0  0  0  0  0  0  0  0  0
  -32.6212  -23.7106   18.8576 C   0  0  0  0  0  0  0  0  0  0  0  0
  -29.4318  -27.3584   17.7626 C   0  0  0  0  0  0  0  0  0  1  0  0
  -22.7019  -29.3147   23.2624 C   0  0  1  0  0  0  0  0  0  0  0  0
  -19.8378  -28.8820   20.8171 C   0  0  2  0  0  0  0  0  0  0  0  0
  -22.5184  -28.9784   24.7692 C   0  0  0  0  0  0  0  0  0  0  0  0
  -26.3438  -14.5776   21.9898 N   0  0  0  0  0  0  0  0  0  0  0  0
  -26.8876  -15.2712   23.0044 N   0  0  0  0  0  0  0  0  0  0  0  0
  -31.7274  -24.3781   17.9201 N   0  0  0  0  0  0  0  0  0  0  0  0
  -24.6253  -30.5710   22.3424 N   0  0  0  0  0  0  0  0  0  0  0  0
  -28.3724  -18.2628   21.1346 N   0  0  0  0  0  0  0  0  0  0  0  0
  -27.4838  -15.1176   25.2917 N   0  0  0  0  0  0  0  0  0  0  0  0
  -27.3594  -11.3408   24.9553 N   0  0  0  0  0  0  0  0  0  0  0  0
  -29.9319  -19.8044   20.2666 N   0  0  0  0  0  0  0  0  0  0  0  0
  -26.8322  -32.8768   23.9369 N   0  0  0  0  0  0  0  0  0  0  0  0
  -21.4531  -29.4020   22.5132 N   0  0  0  0  0  0  0  0  0  0  0  0
  -19.8736  -28.6989   19.3386 N   0  3  0  0  0  0  0  0  0  0  0  0
  -30.8406  -25.7592   19.5566 O   0  0  0  0  0  0  0  0  0  0  0  0
  -25.2731  -12.0944   25.5367 O   0  0  0  0  0  0  0  0  0  0  0  0
  -26.8908  -30.5597   23.7132 O   0  0  0  0  0  0  0  0  0  0  0  0
  -22.9140  -31.6666   23.4858 O   0  0  0  0  0  0  0  0  0  0  0  0
  -21.9733  -27.7609   20.9597 O   0  0  0  0  0  0  0  0  0  0  0  0
  -30.2096  -17.5163   19.9393 O   0  0  0  0  0  0  0  0  0  0  0  0
  -23.7120   -9.3444   19.4931 O   0  0  0  0  0  0  0  0  0  0  0  0
  -28.3992  -27.2472   18.7698 O   0  0  0  0  0  0  0  0  0  1  0  0
  -21.5193   -5.0561   22.1777 F   0  0  0  0  0  0  0  0  0  0  0  0
  -21.0275   -8.7345   19.2395 F   0  0  0  0  0  0  0  0  0  0  0  0
  -30.4102  -22.5396   20.1631 F   0  0  0  0  0  0  0  0  0  0  0  0
  1  2  1  0  0  0  0
  1  6  2  0  0  0  0
  2  7  2  0  0  0  0
  3  9  2  0  0  0  0
  3 10  1  0  0  0  0
  4 11  2  0  0  0  0
  4 18  1  0  0  0  0
  5 12  1  0  0  0  0
  5 18  2  0  0  0  0
  6 20  1  0  0  0  0
  7 22  1  0  0  0  0
  8 13  2  0  0  0  0
  8 21  1  0  0  0  0
  9 24  1  0  0  0  0
 10 25  2  0  0  0  0
 11 26  1  0  0  0  0
 12 26  2  0  0  0  0
 13 27  1  0  0  0  0
 14 15  2  0  0  0  0
 14 28  1  0  0  0  0
 15 29  1  0  0  0  0
 16 23  1  0  0  0  0
 16 27  2  0  0  0  0
 17 29  2  0  0  0  0
 17 30  1  0  0  0  0
 18 32  1  0  0  0  0
 19 32  1  0  0  0  0
 19 33  2  0  0  0  0
 19 35  1  0  0  0  0
 20 22  2  0  0  0  0
 20 40  1  0  0  0  0
 21 23  2  0  0  0  0
 21 41  1  0  0  0  0
 22 52  1  0  0  0  0
 23 42  1  0  0  0  0
 24 31  2  0  0  0  0
 24 61  1  0  0  0  0
 25 31  1  0  0  0  0
 25 73  1  0  0  0  0
 26 83  1  0  0  0  0
 27 84  1  0  0  0  0
 28 30  2  0  0  0  0
 28 83  1  0  0  0  0
 29 85  1  0  0  0  0
 30 86  1  0  0  0  0
 31 87  1  0  0  0  0
 32 66  2  0  0  0  0
 33 67  1  0  0  0  0
 33 71  1  0  0  0  0
 34 53  1  0  0  0  0
 34 68  1  0  0  0  0
 34 77  2  0  0  0  0
 35 72  1  0  0  0  0
 35 78  2  0  0  0  0
 36 54  1  0  0  0  0
 36 74  1  0  0  0  0
 36 79  2  0  0  0  0
 37 63  1  0  0  0  0
 37 69  1  0  0  0  0
 37 80  2  0  0  0  0
 38 64  1  0  0  0  0
 38 75  1  0  0  0  0
 38 81  2  0  0  0  0
 39 70  1  0  0  0  0
 39 73  1  0  0  0  0
 39 82  2  0  0  0  0
 40 43  1  0  0  0  0
 41 54  1  0  0  0  0
 42 69  1  0  0  0  0
 43 46  1  0  0  0  0
 44 47  1  0  0  0  0
 44 49  1  0  0  0  0
 45 48  1  0  0  0  0
 45 50  1  0  0  0  0
 46 52  1  0  0  0  0
 47 53  1  0  0  0  0
 48 55  1  0  0  0  0
 49 68  1  0  0  0  0
 50 70  1  0  0  0  0
 51 55  1  0  0  0  0
 51 70  1  0  0  0  0
 52 74  1  0  0  0  0
 53 62  1  0  0  0  0
 54 69  1  0  0  0  0
 55 67  1  0  0  0  0
 56 64  1  0  0  0  0
 57 65  1  0  0  0  0
 58 65  1  0  0  0  0
 59 65  1  0  0  0  0
 60 76  1  0  0  0  0
 61 68  1  0  0  0  0
 62 84  1  0  0  0  0
 63 65  1  0  0  0  0
 63 75  1  0  0  0  0
 64 76  1  0  0  0  0
 66 67  1  0  0  0  0
M  CHG  1  76   1
M  ISO  4  39 100  62 101  73 100  84 101
M  END
> <Batch ID>
0027

> <Smiles>
CNC(C)C(=O)NC(C(=O)N1Cc2cc([101O:1][101CH2:1]C3CCCN(Cc4cccc([100NH:0][100C:0](=O)N5CCCC(n6nc(-c7ccc(Oc8ccc(F)cc8F)cc7)c(C(N)=O)c6N)C5)c4F)C3=O)ccc2CC1C(=O)NC1CCCc2ccccc21)C(C)(C)C

> <Shape>
0.243

> <Color>
0.075

> <Negative vol penalty>
0.000

$$$$

  -OEChem-04042321283D

 89 98  0     1  0  0  0  0  0999 V2000
  -26.2226  -37.0096   24.4166 C   0  0  0  0  0  0  0  0  0  0  0  0
  -26.9444  -35.9690   23.8408 C   0  0  0  0  0  0  0  0  0  0  0  0
  -21.6613  -13.3675   21.6392 C   0  0  0  0  0  0  0  0  0  0  0  0
  -22.4404  -15.1164   20.1655 C   0  0  0  0  0  0  0  0  0  0  0  0
  -25.0275  -36.7423   25.0831 C   0  0  0  0  0  0  0  0  0  0  0  0
  -26.4720  -34.6602   23.9322 C   0  0  0  0  0  0  0  0  0  0  0  0
  -27.0274  -30.2439   19.7259 C   0  0  0  0  0  0  0  0  0  0  0  0
  -20.4096  -13.9797   21.7039 C   0  0  0  0  0  0  0  0  0  0  0  0
  -21.1887  -15.7285   20.2302 C   0  0  0  0  0  0  0  0  0  0  0  0
  -27.9196  -29.1807   19.5942 C   0  0  0  0  0  0  0  0  0  0  0  0
  -17.6434  -14.2034   19.7724 C   0  0  0  0  0  0  0  0  0  0  0  0
  -16.5170  -13.3911   19.6422 C   0  0  0  0  0  0  0  0  0  0  0  0
  -26.3230  -27.7172   20.6564 C   0  0  0  0  0  0  0  0  0  0  0  0
  -29.4591  -20.4080   21.2890 C   0  0  0  0  0  0  0  0  0  0  0  0
  -15.7709  -14.0739   21.8363 C   0  0  0  0  0  0  0  0  0  0  0  0
  -22.6767  -13.9359   20.8700 C   0  0  0  0  0  0  0  0  0  0  0  0
  -24.2601  -12.0079   20.3375 C   0  0  0  0  0  0  0  0  0  0  0  0
  -24.5353  -35.4308   25.1744 C   0  0  0  0  0  0  0  0  0  0  0  0
  -25.7785  -30.0538   20.3346 C   0  0  0  0  0  0  0  0  0  0  0  0
  -25.2699  -34.3749   24.6017 C   0  0  0  0  0  0  0  0  0  0  0  0
  -25.4157  -28.7790   20.7922 C   0  0  0  0  0  0  0  0  0  0  0  0
  -32.0813  -19.5471   21.6959 C   0  0  0  0  0  0  0  0  0  0  0  0
  -31.0284  -18.6352   21.7701 C   0  0  0  0  0  0  0  0  0  0  0  0
  -30.5120  -21.3199   21.2149 C   0  0  0  0  0  0  0  0  0  0  0  0
  -20.1733  -15.1601   20.9994 C   0  0  0  0  0  0  0  0  0  0  0  0
  -27.5687  -27.9178   20.0621 C   0  0  0  0  0  0  0  0  0  0  0  0
  -17.8336  -14.9509   20.9346 C   0  0  0  0  0  0  0  0  0  0  0  0
  -15.5807  -13.3263   20.6741 C   0  0  0  0  0  0  0  0  0  0  0  0
  -29.7173  -19.0657   21.5667 C   0  0  0  0  0  0  0  0  0  0  0  0
  -16.8973  -14.8862   21.9665 C   0  0  0  0  0  0  0  0  0  0  0  0
  -31.8231  -20.8895   21.4183 C   0  0  0  0  0  0  0  0  0  0  0  0
  -23.9701  -13.3044   20.8032 C   0  0  0  0  0  0  0  0  0  0  0  0
  -25.6209  -11.8883   20.4797 C   0  0  0  0  0  0  0  0  0  0  0  0
  -23.3781  -11.0018   19.8222 C   0  0  0  0  0  0  0  0  0  0  0  0
  -24.3433  -31.2174   22.9211 C   0  0  0  0  0  0  0  0  0  0  0  0
  -21.8034  -29.5500   21.7848 C   0  0  0  0  0  0  0  0  0  0  0  0
  -20.6538  -26.9716   19.8673 C   0  0  0  0  0  0  0  0  0  0  0  0
  -29.9870  -15.7021   20.4852 C   0  0  0  0  0  0  0  0  0  0  0  0
  -23.2628  -35.1849   25.9458 C   0  0  0  0  0  0  0  0  0  0  0  0
  -24.8166  -31.2049   20.4448 C   0  0  0  0  0  0  0  0  0  0  0  0
  -24.0788  -28.5178   21.4349 C   0  0  0  0  0  0  0  0  0  0  0  0
  -22.6405  -33.8177   25.6743 C   0  0  0  0  0  0  0  0  0  0  0  0
  -29.2719  -13.4664   23.1238 C   0  0  0  0  0  0  0  0  0  0  0  0
  -23.7043  -32.7261   25.7314 C   0  0  0  0  0  0  0  0  0  0  0  0
  -27.8423  -13.0463   22.7855 C   0  0  0  0  0  0  0  0  0  0  0  0
  -30.4971  -24.9853   20.8223 C   0  0  0  0  0  0  0  0  0  0  0  0
  -29.5103  -14.9549   22.8635 C   0  0  0  0  0  0  0  0  0  0  0  0
  -31.2840  -23.6766   20.8413 C   0  0  0  0  0  0  0  0  0  0  0  0
  -28.9160  -23.1919   20.7203 C   0  0  0  0  0  0  0  0  0  0  0  0
  -27.7192  -14.9679   21.1563 C   0  0  0  0  0  0  0  0  0  0  0  0
  -24.7776  -32.9450   24.6582 C   0  0  1  0  0  0  0  0  0  0  0  0
  -23.7771  -31.0117   21.5446 C   0  0  1  0  0  0  0  0  0  0  0  0
  -29.1822  -24.5919   20.1555 C   0  0  1  0  0  0  0  0  0  0  0  0
  -27.4706  -13.4644   21.3522 C   0  0  2  0  0  0  0  0  0  0  0  0
  -33.4921  -19.1052   21.9095 C   0  0  0  0  0  0  0  0  0  0  0  0
  -32.1712  -17.7152   19.0894 C   0  0  0  0  0  0  0  0  0  0  0  0
  -18.5304  -25.8340   19.1642 C   0  0  0  0  0  0  0  0  0  0  0  0
  -21.6178  -28.2111   24.5203 C   0  0  0  0  0  0  0  0  0  0  0  0
  -20.1545  -26.4618   23.4874 C   0  0  0  0  0  0  0  0  0  0  0  0
  -19.4161  -28.8444   23.5172 C   0  0  0  0  0  0  0  0  0  0  0  0
  -21.1357  -27.5819   17.0118 C   0  0  0  0  0  0  0  0  0  0  0  0
  -31.2839  -17.1937   22.0658 C   0  0  0  0  0  0  0  0  0  0  0  0
  -28.0554  -25.5730   20.4279 C   0  0  0  0  0  0  0  0  0  1  0  0
  -32.2670  -16.4559   19.9268 C   0  0  0  0  0  0  0  0  0  0  0  0
  -21.2819  -28.1444   21.9612 C   0  0  1  0  0  0  0  0  0  0  0  0
  -19.5542  -26.9054   18.8228 C   0  0  2  0  0  0  0  0  0  0  0  0
  -20.6436  -27.9205   23.3612 C   0  0  0  0  0  0  0  0  0  0  0  0
  -25.0592  -13.9614   21.2110 N   0  0  0  0  0  0  0  0  0  0  0  0
  -26.0467  -13.0741   21.0021 N   0  0  0  0  0  0  0  0  0  0  0  0
  -30.2536  -22.6460   20.9399 N   0  0  3  0  0  0  0  0  0  0  0  0
  -23.1755  -29.6768   21.5255 N   0  0  0  0  0  0  0  0  0  0  0  0
  -29.0985  -15.3208   21.5014 N   0  0  0  0  0  0  0  0  0  0  0  0
  -26.4829  -10.8856   20.2078 N   0  0  0  0  0  0  0  0  0  0  0  0
  -23.1253  -10.9772   18.4439 N   0  0  0  0  0  0  0  0  0  0  0  0
  -24.2891  -32.5259   23.3620 N   0  0  0  0  0  0  0  0  0  0  0  0
  -20.3740  -27.9028   20.8451 N   0  0  0  0  0  0  0  0  0  0  0  0
  -31.1663  -16.3547   20.8747 N   0  0  0  0  0  0  0  0  0  0  0  0
  -20.1299  -26.5957   17.4836 N   0  3  0  0  0  0  0  0  0  0  0  0
  -22.8176  -10.1599   20.5643 O   0  0  0  0  0  0  0  0  0  0  0  0
  -24.7946  -30.2596   23.5381 O   0  0  0  0  0  0  0  0  0  0  0  0
  -21.0210  -30.5001   21.8668 O   0  0  0  0  0  0  0  0  0  0  0  0
  -21.6584  -26.2651   19.8226 O   0  0  0  0  0  0  0  0  0  0  0  0
  -29.7378  -15.4793   19.2934 O   0  0  0  0  0  0  0  0  0  0  0  0
  -18.9520  -15.7576   21.0621 O   0  0  0  0  0  0  0  0  0  0  0  0
  -28.4380  -26.8785   19.9355 O   0  0  0  0  0  0  0  0  0  1  0  0
  -14.4983  -12.5474   20.5483 F   0  0  0  0  0  0  0  0  0  0  0  0
  -28.6980  -18.1975   21.6348 F   0  0  0  0  0  0  0  0  0  0  0  0
  -17.0740  -15.6029   23.0850 F   0  0  0  0  0  0  0  0  0  0  0  0
  -32.8363  -21.7659   21.3476 F   0  0  0  0  0  0  0  0  0  0  0  0
  1  2  1  0  0  0  0
  1  5  2  0  0  0  0
  2  6  2  0  0  0  0
  3  8  2  0  0  0  0
  3 16  1  0  0  0  0
  4  9  1  0  0  0  0
  4 16  2  0  0  0  0
  5 18  1  0  0  0  0
  6 20  1  0  0  0  0
  7 10  2  0  0  0  0
  7 19  1  0  0  0  0
  8 25  1  0  0  0  0
  9 25  2  0  0  0  0
 10 26  1  0  0  0  0
 11 12  2  0  0  0  0
 11 27  1  0  0  0  0
 12 28  1  0  0  0  0
 13 21  1  0  0  0  0
 13 26  2  0  0  0  0
 14 24  1  0  0  0  0
 14 29  2  0  0  0  0
 15 28  2  0  0  0  0
 15 30  1  0  0  0  0
 16 32  1  0  0  0  0
 17 32  1  0  0  0  0
 17 33  2  0  0  0  0
 17 34  1  0  0  0  0
 18 20  2  0  0  0  0
 18 39  1  0  0  0  0
 19 21  2  0  0  0  0
 19 40  1  0  0  0  0
 20 51  1  0  0  0  0
 21 41  1  0  0  0  0
 22 23  2  0  0  0  0
 22 31  1  0  0  0  0
 22 55  1  0  0  0  0
 23 29  1  0  0  0  0
 23 62  1  0  0  0  0
 24 31  2  0  0  0  0
 24 70  1  0  0  0  0
 25 84  1  0  0  0  0
 26 85  1  0  0  0  0
 27 30  2  0  0  0  0
 27 84  1  0  0  0  0
 28 86  1  0  0  0  0
 29 87  1  0  0  0  0
 30 88  1  0  0  0  0
 31 89  1  0  0  0  0
 32 68  2  0  0  0  0
 33 69  1  0  0  0  0
 33 73  1  0  0  0  0
 34 74  1  0  0  0  0
 34 79  2  0  0  0  0
 35 52  1  0  0  0  0
 35 75  1  0  0  0  0
 35 80  2  0  0  0  0
 36 65  1  0  0  0  0
 36 71  1  0  0  0  0
 36 81  2  0  0  0  0
 37 66  1  0  0  0  0
 37 76  1  0  0  0  0
 37 82  2  0  0  0  0
 38 72  1  0  0  0  0
 38 77  1  0  0  0  0
 38 83  2  0  0  0  0
 39 42  1  0  0  0  0
 40 52  1  0  0  0  0
 41 71  1  0  0  0  0
 42 44  1  0  0  0  0
 43 45  1  0  0  0  0
 43 47  1  0  0  0  0
 44 51  1  0  0  0  0
 45 54  1  0  0  0  0
 46 48  1  0  0  0  0
 46 53  1  0  0  0  0
 47 72  1  0  0  0  0
 48 70  1  0  0  0  0
 49 53  1  0  0  0  0
 49 70  1  0  0  0  0
 50 54  1  0  0  0  0
 50 72  1  0  0  0  0
 51 75  1  0  0  0  0
 52 71  1  0  0  0  0
 53 63  1  0  0  0  0
 54 69  1  0  0  0  0
 56 64  1  0  0  0  0
 57 66  1  0  0  0  0
 58 67  1  0  0  0  0
 59 67  1  0  0  0  0
 60 67  1  0  0  0  0
 61 78  1  0  0  0  0
 62 77  1  0  0  0  0
 63 85  1  0  0  0  0
 64 77  1  0  0  0  0
 65 67  1  0  0  0  0
 65 76  1  0  0  0  0
 66 78  1  0  0  0  0
 68 69  1  0  0  0  0
M  CHG  1  78   1
M  ISO  4  38 100  63 101  77 100  85 101
M  END
> <Batch ID>
0027

> <Smiles>
CC[100N:0](Cc1c(F)cc(N2CCC([101CH2:1][101O:1]c3ccc4c(c3)CN(C(=O)C(NC(=O)C(C)NC)C(C)(C)C)C(C(=O)NC3CCCc5ccccc53)C4)C2)c(F)c1C)[100C:0](=O)N1CCCC(n2nc(-c3ccc(Oc4ccc(F)cc4F)cc3)c(C(N)=O)c2N)C1

> <Shape>
0.294

> <Color>
0.072

> <Negative vol penalty>
0.000

$$$$

  -OEChem-04042321283D

 86 95  0     1  0  0  0  0  0999 V2000
  -28.6959  -32.7892   26.7146 C   0  0  0  0  0  0  0  0  0  0  0  0
  -28.6207  -32.0114   25.5647 C   0  0  0  0  0  0  0  0  0  0  0  0
  -23.0032   -9.3151   19.6783 C   0  0  0  0  0  0  0  0  0  0  0  0
  -24.6057   -8.7372   21.3915 C   0  0  0  0  0  0  0  0  0  0  0  0
  -27.5268  -33.1972   27.3532 C   0  0  0  0  0  0  0  0  0  0  0  0
  -27.3763  -31.6515   25.0462 C   0  0  0  0  0  0  0  0  0  0  0  0
  -27.3474  -29.3520   20.6971 C   0  0  0  0  0  0  0  0  0  0  0  0
  -21.9735   -8.8061   20.4697 C   0  0  0  0  0  0  0  0  0  0  0  0
  -23.5760   -8.2284   22.1830 C   0  0  0  0  0  0  0  0  0  0  0  0
  -27.7719  -28.0335   20.5388 C   0  0  0  0  0  0  0  0  0  0  0  0
  -21.7161   -5.4094   22.3414 C   0  0  0  0  0  0  0  0  0  0  0  0
  -21.9238   -4.1774   22.9615 C   0  0  0  0  0  0  0  0  0  0  0  0
  -27.1636  -18.3306   19.4603 C   0  0  0  0  0  0  0  0  0  0  0  0
  -25.4727  -27.3154   20.4068 C   0  0  0  0  0  0  0  0  0  0  0  0
  -25.2904  -19.7125   18.8136 C   0  0  0  0  0  0  0  0  0  0  0  0
  -25.3568  -17.3865   18.1637 C   0  0  0  0  0  0  0  0  0  0  0  0
  -21.6233   -5.2146   25.1228 C   0  0  0  0  0  0  0  0  0  0  0  0
  -24.3193   -9.2806   20.1391 C   0  0  0  0  0  0  0  0  0  0  0  0
  -25.7587   -9.3749   18.0352 C   0  0  0  0  0  0  0  0  0  0  0  0
  -26.2680  -32.8312   26.8488 C   0  0  0  0  0  0  0  0  0  0  0  0
  -25.9798  -29.6613   20.7224 C   0  0  0  0  0  0  0  0  0  0  0  0
  -26.1845  -32.0735   25.6629 C   0  0  0  0  0  0  0  0  0  0  0  0
  -26.5170  -19.5666   19.4613 C   0  0  0  0  0  0  0  0  0  0  0  0
  -25.0335  -28.6390   20.5629 C   0  0  0  0  0  0  0  0  0  0  0  0
  -26.5835  -17.2406   18.8114 C   0  0  0  0  0  0  0  0  0  0  0  0
  -22.2599   -8.2628   21.7221 C   0  0  0  0  0  0  0  0  0  0  0  0
  -26.8345  -27.0146   20.3965 C   0  0  0  0  0  0  0  0  0  0  0  0
  -21.4621   -6.5441   23.1119 C   0  0  0  0  0  0  0  0  0  0  0  0
  -21.8774   -4.0800   24.3522 C   0  0  0  0  0  0  0  0  0  0  0  0
  -24.7102  -18.6225   18.1647 C   0  0  0  0  0  0  0  0  0  0  0  0
  -21.4157   -6.4467   24.5026 C   0  0  0  0  0  0  0  0  0  0  0  0
  -25.3834   -9.8056   19.3218 C   0  0  0  0  0  0  0  0  0  0  0  0
  -26.8138  -10.1861   17.6957 C   0  0  0  0  0  0  0  0  0  0  0  0
  -25.2032   -8.3347   17.2197 C   0  0  0  0  0  0  0  0  0  0  0  0
  -24.0077  -30.9368   22.8642 C   0  0  0  0  0  0  0  0  0  0  0  0
  -21.8880  -30.8096   20.4121 C   0  0  0  0  0  0  0  0  0  0  0  0
  -20.9531  -29.3703   17.4623 C   0  0  0  0  0  0  0  0  0  0  0  0
  -28.4615  -15.6698   19.4045 C   0  0  0  0  0  0  0  0  0  0  0  0
  -26.8049  -24.8231   21.2359 C   0  0  0  0  0  0  0  0  0  1  0  0
  -25.0347  -33.3068   27.5754 C   0  0  0  0  0  0  0  0  0  0  0  0
  -25.5386  -31.0919   20.8671 C   0  0  0  0  0  0  0  0  0  0  0  0
  -23.5540  -28.9209   20.5628 C   0  0  0  0  0  0  0  0  0  0  0  0
  -23.7856  -32.5116   27.2098 C   0  0  0  0  0  0  0  0  0  0  0  0
  -30.3943  -12.6901   19.6564 C   0  0  0  0  0  0  0  0  0  0  0  0
  -23.6572  -32.4118   25.6971 C   0  0  0  0  0  0  0  0  0  0  0  0
  -29.3637  -11.5732   19.4760 C   0  0  0  0  0  0  0  0  0  0  0  0
  -27.4776  -21.8963   19.1915 C   0  0  0  0  0  0  0  0  0  0  0  0
  -26.2738  -21.2645   21.3269 C   0  0  0  0  0  0  0  0  0  0  0  0
  -29.8221  -13.8682   20.4429 C   0  0  0  0  0  0  0  0  0  0  0  0
  -28.0937  -23.0886   19.9215 C   0  0  0  0  0  0  0  0  0  0  0  0
  -26.9154  -22.4687   22.0127 C   0  0  0  0  0  0  0  0  0  0  0  0
  -27.5322  -13.2948   19.7380 C   0  0  0  0  0  0  0  0  0  0  0  0
  -27.1472  -20.7523   20.1674 C   0  0  0  0  0  0  0  0  0  0  0  0
  -24.8425  -31.6443   25.0979 C   0  0  1  0  0  0  0  0  0  0  0  0
  -24.1132  -31.2272   21.3938 C   0  0  1  0  0  0  0  0  0  0  0  0
  -28.0422  -12.1140   18.8958 C   0  0  2  0  0  0  0  0  0  0  0  0
  -19.1546  -29.4505   15.7141 C   0  0  0  0  0  0  0  0  0  0  0  0
  -20.0076  -29.2989   22.2807 C   0  0  0  0  0  0  0  0  0  0  0  0
  -18.6911  -28.5928   20.2717 C   0  0  0  0  0  0  0  0  0  0  0  0
  -18.8926  -31.0131   20.8411 C   0  0  0  0  0  0  0  0  0  0  0  0
  -22.8810  -30.1258   15.3477 C   0  0  0  0  0  0  0  0  0  0  0  0
  -20.8975  -29.7885   19.9070 C   0  0  1  0  0  0  0  0  0  0  0  0
  -20.5170  -29.9751   16.1400 C   0  0  2  0  0  0  0  0  0  0  0  0
  -19.6500  -29.6675   20.8270 C   0  0  0  0  0  0  0  0  0  0  0  0
  -26.1388  -10.8121   19.7694 N   0  0  0  0  0  0  0  0  0  0  0  0
  -26.9993  -11.0206   18.7584 N   0  0  0  0  0  0  0  0  0  0  0  0
  -23.1723  -30.3348   20.7137 N   0  0  0  0  0  0  0  0  0  0  0  0
  -28.5734  -14.3300   19.8326 N   0  0  0  0  0  0  0  0  0  0  0  0
  -27.2485  -23.5108   21.0426 N   0  0  0  0  0  0  0  0  0  0  0  0
  -27.5917  -10.2598   16.5949 N   0  0  0  0  0  0  0  0  0  0  0  0
  -25.7274   -7.0403   17.3391 N   0  0  0  0  0  0  0  0  0  0  0  0
  -27.2401  -15.9850   18.8100 N   0  0  0  0  0  0  0  0  0  0  0  0
  -24.7941  -31.7514   23.6564 N   0  0  0  0  0  0  0  0  0  0  0  0
  -20.5910  -30.1631   18.5307 N   0  0  0  0  0  0  0  0  0  0  0  0
  -21.5020  -29.6475   15.0707 N   0  3  0  0  0  0  0  0  0  0  0  0
  -24.2808   -8.5500   16.3974 O   0  0  0  0  0  0  0  0  0  0  0  0
  -23.2666  -30.0410   23.2515 O   0  0  0  0  0  0  0  0  0  0  0  0
  -21.5374  -31.9866   20.5277 O   0  0  0  0  0  0  0  0  0  0  0  0
  -21.5517  -28.2996   17.5399 O   0  0  0  0  0  0  0  0  0  0  0  0
  -29.3914  -16.4708   19.5296 O   0  0  0  0  0  0  0  0  0  0  0  0
  -26.0956  -25.1825   22.1750 O   0  0  0  0  0  0  0  0  0  0  0  0
  -21.2553   -7.7664   22.4947 O   0  0  0  0  0  0  0  0  0  0  0  0
  -27.2576  -25.6909   20.2383 O   0  0  0  0  0  0  0  0  0  1  0  0
  -22.0753   -2.8965   24.9475 F   0  0  0  0  0  0  0  0  0  0  0  0
  -23.5322  -18.7627   17.5427 F   0  0  0  0  0  0  0  0  0  0  0  0
  -21.1709   -7.5330   25.2481 F   0  0  0  0  0  0  0  0  0  0  0  0
  1  2  1  0  0  0  0
  1  5  2  0  0  0  0
  2  6  2  0  0  0  0
  3  8  2  0  0  0  0
  3 18  1  0  0  0  0
  4  9  1  0  0  0  0
  4 18  2  0  0  0  0
  5 20  1  0  0  0  0
  6 22  1  0  0  0  0
  7 10  2  0  0  0  0
  7 21  1  0  0  0  0
  8 26  1  0  0  0  0
  9 26  2  0  0  0  0
 10 27  1  0  0  0  0
 11 12  2  0  0  0  0
 11 28  1  0  0  0  0
 12 29  1  0  0  0  0
 13 23  2  0  0  0  0
 13 25  1  0  0  0  0
 14 24  1  0  0  0  0
 14 27  2  0  0  0  0
 15 23  1  0  0  0  0
 15 30  2  0  0  0  0
 16 25  2  0  0  0  0
 16 30  1  0  0  0  0
 17 29  2  0  0  0  0
 17 31  1  0  0  0  0
 18 32  1  0  0  0  0
 19 32  1  0  0  0  0
 19 33  2  0  0  0  0
 19 34  1  0  0  0  0
 20 22  2  0  0  0  0
 20 40  1  0  0  0  0
 21 24  2  0  0  0  0
 21 41  1  0  0  0  0
 22 54  1  0  0  0  0
 23 53  1  0  0  0  0
 24 42  1  0  0  0  0
 25 72  1  0  0  0  0
 26 82  1  0  0  0  0
 27 83  1  0  0  0  0
 28 31  2  0  0  0  0
 28 82  1  0  0  0  0
 29 84  1  0  0  0  0
 30 85  1  0  0  0  0
 31 86  1  0  0  0  0
 32 65  2  0  0  0  0
 33 66  1  0  0  0  0
 33 70  1  0  0  0  0
 34 71  1  0  0  0  0
 34 76  2  0  0  0  0
 35 55  1  0  0  0  0
 35 73  1  0  0  0  0
 35 77  2  0  0  0  0
 36 62  1  0  0  0  0
 36 67  1  0  0  0  0
 36 78  2  0  0  0  0
 37 63  1  0  0  0  0
 37 74  1  0  0  0  0
 37 79  2  0  0  0  0
 38 68  1  0  0  0  0
 38 72  1  0  0  0  0
 38 80  2  0  0  0  0
 39 69  1  0  0  0  0
 39 81  2  0  0  0  0
 39 83  1  0  0  0  0
 40 43  1  0  0  0  0
 41 55  1  0  0  0  0
 42 67  1  0  0  0  0
 43 45  1  0  0  0  0
 44 46  1  0  0  0  0
 44 49  1  0  0  0  0
 45 54  1  0  0  0  0
 46 56  1  0  0  0  0
 47 50  1  0  0  0  0
 47 53  1  0  0  0  0
 48 51  1  0  0  0  0
 48 53  1  0  0  0  0
 49 68  1  0  0  0  0
 50 69  1  0  0  0  0
 51 69  1  0  0  0  0
 52 56  1  0  0  0  0
 52 68  1  0  0  0  0
 54 73  1  0  0  0  0
 55 67  1  0  0  0  0
 56 66  1  0  0  0  0
 57 63  1  0  0  0  0
 58 64  1  0  0  0  0
 59 64  1  0  0  0  0
 60 64  1  0  0  0  0
 61 75  1  0  0  0  0
 62 64  1  0  0  0  0
 62 74  1  0  0  0  0
 63 75  1  0  0  0  0
 65 66  1  0  0  0  0
M  CHG  1  75   1
M  ISO  4  38 100  39 101  72 100  83 101
M  END
> <Batch ID>
0027

> <Smiles>
CNC(C)C(=O)NC(C(=O)N1Cc2cc([101O:1][101C:1](=O)N3CCC(c4cc(F)cc([100NH:0][100C:0](=O)N5CCCC(n6nc(-c7ccc(Oc8ccc(F)cc8F)cc7)c(C(N)=O)c6N)C5)c4)CC3)ccc2CC1C(=O)NC1CCCc2ccccc21)C(C)(C)C

> <Shape>
0.277

> <Color>
0.100

> <Negative vol penalty>
0.000

$$$$

  -OEChem-04042321283D

 84 93  0     1  0  0  0  0  0999 V2000
  -20.1548  -32.8012   15.3652 C   0  0  0  0  0  0  0  0  0  0  0  0
  -21.1240  -31.8116   15.4946 C   0  0  0  0  0  0  0  0  0  0  0  0
  -23.1727  -12.3616   23.8031 C   0  0  0  0  0  0  0  0  0  0  0  0
  -24.6741  -10.6375   23.0219 C   0  0  0  0  0  0  0  0  0  0  0  0
  -20.2136  -33.9417   16.1650 C   0  0  0  0  0  0  0  0  0  0  0  0
  -22.1532  -31.9624   16.4233 C   0  0  0  0  0  0  0  0  0  0  0  0
  -24.8502  -27.5335   19.6816 C   0  0  0  0  0  0  0  0  0  0  0  0
  -30.3098  -21.7151   20.1404 C   0  0  0  0  0  0  0  0  0  0  0  0
  -30.2183  -20.4135   20.6336 C   0  0  0  0  0  0  0  0  0  0  0  0
  -22.5033  -11.4230   24.5883 C   0  0  0  0  0  0  0  0  0  0  0  0
  -24.0048   -9.6989   23.8072 C   0  0  0  0  0  0  0  0  0  0  0  0
  -26.0426  -26.8329   19.5053 C   0  0  0  0  0  0  0  0  0  0  0  0
  -21.1433   -7.9051   23.6494 C   0  0  0  0  0  0  0  0  0  0  0  0
  -20.8326   -6.6763   23.0670 C   0  0  0  0  0  0  0  0  0  0  0  0
  -27.1552  -28.3619   21.0031 C   0  0  0  0  0  0  0  0  0  0  0  0
  -27.9041  -21.8080   19.9388 C   0  0  0  0  0  0  0  0  0  0  0  0
  -22.1549   -5.5470   24.7443 C   0  0  0  0  0  0  0  0  0  0  0  0
  -24.2580  -11.9689   23.0198 C   0  0  0  0  0  0  0  0  0  0  0  0
  -24.4068  -13.7205   21.1713 C   0  0  0  0  0  0  0  0  0  0  0  0
  -21.2386  -34.1022   17.1107 C   0  0  0  0  0  0  0  0  0  0  0  0
  -24.8038  -28.6619   20.5128 C   0  0  0  0  0  0  0  0  0  0  0  0
  -22.2265  -33.1068   17.2355 C   0  0  0  0  0  0  0  0  0  0  0  0
  -25.9604  -29.0735   21.1903 C   0  0  0  0  0  0  0  0  0  0  0  0
  -29.1527  -22.4124   19.7931 C   0  0  0  0  0  0  0  0  0  0  0  0
  -28.9696  -19.8092   20.7792 C   0  0  0  0  0  0  0  0  0  0  0  0
  -22.9194  -10.0916   24.5904 C   0  0  0  0  0  0  0  0  0  0  0  0
  -27.1961  -27.2488   20.1638 C   0  0  0  0  0  0  0  0  0  0  0  0
  -21.9598   -7.9549   24.7792 C   0  0  0  0  0  0  0  0  0  0  0  0
  -21.3384   -5.4973   23.6145 C   0  0  0  0  0  0  0  0  0  0  0  0
  -27.8125  -20.5064   20.4318 C   0  0  0  0  0  0  0  0  0  0  0  0
  -22.4656   -6.7758   25.3267 C   0  0  0  0  0  0  0  0  0  0  0  0
  -24.9494  -12.9379   22.2080 C   0  0  0  0  0  0  0  0  0  0  0  0
  -25.4634  -14.4734   20.7204 C   0  0  0  0  0  0  0  0  0  0  0  0
  -30.4270  -24.4821   19.0854 C   0  0  0  0  0  0  0  0  0  0  0  0
  -23.0675  -13.7632   20.6614 C   0  0  0  0  0  0  0  0  0  0  0  0
  -24.1527  -31.7427   20.0784 C   0  0  0  0  0  0  0  0  0  0  0  0
  -24.4057  -31.8512   23.3105 C   0  0  0  0  0  0  0  0  0  0  0  0
  -25.6679  -30.4724   26.1658 C   0  0  0  0  0  0  0  0  0  0  0  0
  -29.9312  -17.6579   21.6700 C   0  0  0  0  0  0  0  0  0  0  0  0
  -21.2873  -35.3741   17.9197 C   0  0  0  0  0  0  0  0  0  0  0  0
  -23.5034  -29.3908   20.7133 C   0  0  0  0  0  0  0  0  0  0  0  0
  -25.9587  -30.2665   22.1096 C   0  0  0  0  0  0  0  0  0  0  0  0
  -30.0384  -25.7955   18.4429 C   0  0  0  0  0  0  0  0  0  0  0  0
  -22.1985  -35.2845   19.1412 C   0  0  0  0  0  0  0  0  0  0  0  0
  -30.4145  -14.1306   21.7161 C   0  0  0  0  0  0  0  0  0  0  0  0
  -23.5355  -34.6539   18.7648 C   0  0  0  0  0  0  0  0  0  0  0  0
  -28.9911  -13.5702   21.7629 C   0  0  0  0  0  0  0  0  0  0  0  0
  -30.5468  -15.4120   22.5373 C   0  0  0  0  0  0  0  0  0  0  0  0
  -28.1481  -15.9004   22.2596 C   0  0  0  0  0  0  0  0  0  0  0  0
  -28.0776  -24.4830   18.8415 C   0  0  0  0  0  0  0  0  0  0  0  0
  -23.3446  -33.2226   18.2488 C   0  0  1  0  0  0  0  0  0  0  0  0
  -23.6916  -30.8310   21.1801 C   0  0  1  0  0  0  0  0  0  0  0  0
  -27.9499  -14.6452   21.3943 C   0  0  2  0  0  0  0  0  0  0  0  0
  -28.5552  -25.9184   18.7405 C   0  0  1  0  0  0  0  0  0  1  0  0
  -25.7345  -30.8061   28.6520 C   0  0  0  0  0  0  0  0  0  0  0  0
  -26.4300  -34.1058   22.9512 C   0  0  0  0  0  0  0  0  0  0  0  0
  -27.1476  -33.7455   25.3226 C   0  0  0  0  0  0  0  0  0  0  0  0
  -24.8072  -34.4493   24.8228 C   0  0  0  0  0  0  0  0  0  0  0  0
  -24.3461  -27.8723   26.6669 C   0  0  0  0  0  0  0  0  0  0  0  0
  -25.5322  -32.0872   24.2874 C   0  0  1  0  0  0  0  0  0  0  0  0
  -25.0158  -30.1321   27.4937 C   0  0  2  0  0  0  0  0  0  0  0  0
  -25.9801  -33.5756   24.3272 C   0  0  0  0  0  0  0  0  0  0  0  0
  -26.2497  -13.1718   22.4042 N   0  0  0  0  0  0  0  0  0  0  0  0
  -26.5331  -14.1099   21.4846 N   0  0  0  0  0  0  0  0  0  0  0  0
  -29.2463  -23.7443   19.2878 N   0  0  0  0  0  0  0  0  0  0  0  0
  -24.6644  -30.9500   22.2681 N   0  0  0  0  0  0  0  0  0  0  0  0
  -29.5312  -16.3854   22.1301 N   0  0  0  0  0  0  0  0  0  0  0  0
  -25.5726  -15.4043   19.7489 N   0  0  0  0  0  0  0  0  0  0  0  0
  -22.7248  -12.9012   19.6107 N   0  0  0  0  0  0  0  0  0  0  0  0
  -28.8798  -18.4867   21.2799 N   0  0  0  0  0  0  0  0  0  0  0  0
  -23.1244  -32.3126   19.3524 N   0  0  0  0  0  0  0  0  0  0  0  0
  -25.0752  -31.5662   25.5711 N   0  0  0  0  0  0  0  0  0  0  0  0
  -25.0386  -28.6592   27.7196 N   0  3  0  0  0  0  0  0  0  0  0  0
  -31.5918  -24.1771   19.2979 O   0  0  0  0  0  0  0  0  0  0  0  0
  -22.2049  -14.5542   21.1128 O   0  0  0  0  0  0  0  0  0  0  0  0
  -25.3526  -31.9173   19.9012 O   0  0  0  0  0  0  0  0  0  0  0  0
  -23.3333  -32.4393   23.4707 O   0  0  0  0  0  0  0  0  0  0  0  0
  -26.6114  -29.8342   25.7040 O   0  0  0  0  0  0  0  0  0  0  0  0
  -31.1205  -17.9781   21.5996 O   0  0  0  0  0  0  0  0  0  0  0  0
  -22.2667   -9.1755   25.3567 O   0  0  0  0  0  0  0  0  0  0  0  0
  -28.3615  -26.5672   19.9931 O   0  0  0  0  0  0  0  0  0  1  0  0
  -21.0388   -4.3172   23.0560 F   0  0  0  0  0  0  0  0  0  0  0  0
  -26.6070  -19.9350   20.5662 F   0  0  0  0  0  0  0  0  0  0  0  0
  -23.2496   -6.8173   26.4127 F   0  0  0  0  0  0  0  0  0  0  0  0
  1  2  1  0  0  0  0
  1  5  2  0  0  0  0
  2  6  2  0  0  0  0
  3 10  2  0  0  0  0
  3 18  1  0  0  0  0
  4 11  1  0  0  0  0
  4 18  2  0  0  0  0
  5 20  1  0  0  0  0
  6 22  1  0  0  0  0
  7 12  2  0  0  0  0
  7 21  1  0  0  0  0
  8  9  2  0  0  0  0
  8 24  1  0  0  0  0
  9 25  1  0  0  0  0
 10 26  1  0  0  0  0
 11 26  2  0  0  0  0
 12 27  1  0  0  0  0
 13 14  2  0  0  0  0
 13 28  1  0  0  0  0
 14 29  1  0  0  0  0
 15 23  1  0  0  0  0
 15 27  2  0  0  0  0
 16 24  2  0  0  0  0
 16 30  1  0  0  0  0
 17 29  2  0  0  0  0
 17 31  1  0  0  0  0
 18 32  1  0  0  0  0
 19 32  1  0  0  0  0
 19 33  2  0  0  0  0
 19 35  1  0  0  0  0
 20 22  2  0  0  0  0
 20 40  1  0  0  0  0
 21 23  2  0  0  0  0
 21 41  1  0  0  0  0
 22 51  1  0  0  0  0
 23 42  1  0  0  0  0
 24 65  1  0  0  0  0
 25 30  2  0  0  0  0
 25 70  1  0  0  0  0
 26 80  1  0  0  0  0
 27 81  1  0  0  0  0
 28 31  2  0  0  0  0
 28 80  1  0  0  0  0
 29 82  1  0  0  0  0
 30 83  1  0  0  0  0
 31 84  1  0  0  0  0
 32 63  2  0  0  0  0
 33 64  1  0  0  0  0
 33 68  1  0  0  0  0
 34 43  1  0  0  0  0
 34 65  1  0  0  0  0
 34 74  2  0  0  0  0
 35 69  1  0  0  0  0
 35 75  2  0  0  0  0
 36 52  1  0  0  0  0
 36 71  1  0  0  0  0
 36 76  2  0  0  0  0
 37 60  1  0  0  0  0
 37 66  1  0  0  0  0
 37 77  2  0  0  0  0
 38 61  1  0  0  0  0
 38 72  1  0  0  0  0
 38 78  2  0  0  0  0
 39 67  1  0  0  0  0
 39 70  1  0  0  0  0
 39 79  2  0  0  0  0
 40 44  1  0  0  0  0
 41 52  1  0  0  0  0
 42 66  1  0  0  0  0
 43 54  1  0  0  0  0
 44 46  1  0  0  0  0
 45 47  1  0  0  0  0
 45 48  1  0  0  0  0
 46 51  1  0  0  0  0
 47 53  1  0  0  0  0
 48 67  1  0  0  0  0
 49 53  1  0  0  0  0
 49 67  1  0  0  0  0
 50 54  1  0  0  0  0
 50 65  1  0  0  0  0
 51 71  1  0  0  0  0
 52 66  1  0  0  0  0
 53 64  1  0  0  0  0
 54 81  1  0  0  0  0
 55 61  1  0  0  0  0
 56 62  1  0  0  0  0
 57 62  1  0  0  0  0
 58 62  1  0  0  0  0
 59 73  1  0  0  0  0
 60 62  1  0  0  0  0
 60 72  1  0  0  0  0
 61 73  1  0  0  0  0
 63 64  1  0  0  0  0
M  CHG  1  73   1
M  ISO  4  39 100  54 101  70 100  81 101
M  END
> <Batch ID>
0027

> <Smiles>
CNC(C)C(=O)NC(C(=O)N1Cc2cc([101O:1][101CH:1]3CC(=O)N(c4ccc([100NH:0][100C:0](=O)N5CCCC(n6nc(-c7ccc(Oc8ccc(F)cc8F)cc7)c(C(N)=O)c6N)C5)c(F)c4)C3)ccc2CC1C(=O)NC1CCCc2ccccc21)C(C)(C)C

> <Shape>
0.310

> <Color>
0.116

> <Negative vol penalty>
0.000

$$$$

  -OEChem-04042321283D

 87 96  0     1  0  0  0  0  0999 V2000
  -17.1743  -30.5878   24.3660 C   0  0  0  0  0  0  0  0  0  0  0  0
  -17.5127  -29.3872   24.9819 C   0  0  0  0  0  0  0  0  0  0  0  0
  -28.1985  -13.9023   21.3072 C   0  0  0  0  0  0  0  0  0  0  0  0
  -28.3646  -12.9960   19.0738 C   0  0  0  0  0  0  0  0  0  0  0  0
  -17.4841  -30.7921   23.0220 C   0  0  0  0  0  0  0  0  0  0  0  0
  -18.1602  -28.3896   24.2538 C   0  0  0  0  0  0  0  0  0  0  0  0
  -22.9656  -23.1347   25.0347 C   0  0  0  0  0  0  0  0  0  0  0  0
  -23.0901  -12.6042   23.9259 C   0  0  0  0  0  0  0  0  0  0  0  0
  -22.9512  -11.2428   24.1958 C   0  0  0  0  0  0  0  0  0  0  0  0
  -29.5452  -14.2624   21.2613 C   0  0  0  0  0  0  0  0  0  0  0  0
  -29.7114  -13.3561   19.0279 C   0  0  0  0  0  0  0  0  0  0  0  0
  -23.1226  -21.7725   24.7826 C   0  0  0  0  0  0  0  0  0  0  0  0
  -31.4184  -16.7336   19.9131 C   0  0  0  0  0  0  0  0  0  0  0  0
  -31.7647  -18.0068   20.3652 C   0  0  0  0  0  0  0  0  0  0  0  0
  -23.6785  -22.2674   22.4880 C   0  0  0  0  0  0  0  0  0  0  0  0
  -25.3862  -12.5180   24.6727 C   0  0  0  0  0  0  0  0  0  0  0  0
  -33.1947  -17.0214   22.0449 C   0  0  0  0  0  0  0  0  0  0  0  0
  -27.6081  -13.2691   20.2135 C   0  0  0  0  0  0  0  0  0  0  0  0
  -25.1143  -13.6754   19.8621 C   0  0  0  0  0  0  0  0  0  0  0  0
  -18.1442  -29.8003   22.2797 C   0  0  0  0  0  0  0  0  0  0  0  0
  -23.1536  -24.0743   24.0109 C   0  0  0  0  0  0  0  0  0  0  0  0
  -18.4778  -28.5803   22.8983 C   0  0  0  0  0  0  0  0  0  0  0  0
  -23.5258  -23.6411   22.7303 C   0  0  0  0  0  0  0  0  0  0  0  0
  -25.2473  -11.1566   24.9426 C   0  0  0  0  0  0  0  0  0  0  0  0
  -24.3077  -13.2418   24.1643 C   0  0  0  0  0  0  0  0  0  0  0  0
  -24.0298  -10.5190   24.7042 C   0  0  0  0  0  0  0  0  0  0  0  0
  -30.3017  -13.9894   20.1216 C   0  0  0  0  0  0  0  0  0  0  0  0
  -23.4762  -21.3385   23.5084 C   0  0  0  0  0  0  0  0  0  0  0  0
  -31.9601  -15.6042   20.5269 C   0  0  0  0  0  0  0  0  0  0  0  0
  -32.6529  -18.1508   21.4311 C   0  0  0  0  0  0  0  0  0  0  0  0
  -32.8483  -15.7481   21.5928 C   0  0  0  0  0  0  0  0  0  0  0  0
  -26.2171  -12.8963   20.2606 C   0  0  0  0  0  0  0  0  0  0  0  0
  -24.0239  -12.8762   20.1045 C   0  0  0  0  0  0  0  0  0  0  0  0
  -25.0788  -15.0027   19.3213 C   0  0  0  0  0  0  0  0  0  0  0  0
  -21.3068  -26.2256   22.5739 C   0  0  0  0  0  0  0  0  0  0  0  0
  -24.0836  -27.0667   21.1232 C   0  0  0  0  0  0  0  0  0  0  0  0
  -27.2232  -26.1671   20.1328 C   0  0  0  0  0  0  0  0  0  0  0  0
  -23.5218   -8.1699   23.9868 C   0  0  0  0  0  0  0  0  0  0  0  0
  -18.4159  -30.0484   20.8170 C   0  0  0  0  0  0  0  0  0  0  0  0
  -23.0066  -25.5419   24.3057 C   0  0  0  0  0  0  0  0  0  0  0  0
  -23.7591  -24.6108   21.6018 C   0  0  0  0  0  0  0  0  0  0  0  0
  -19.4378  -29.0869   20.2157 C   0  0  0  0  0  0  0  0  0  0  0  0
  -22.6989   -8.2919   20.3811 C   0  0  0  0  0  0  0  0  0  0  0  0
  -19.1260  -27.6513   20.6262 C   0  0  0  0  0  0  0  0  0  0  0  0
  -23.7867  -17.1757   25.1805 C   0  0  0  0  0  0  0  0  0  0  0  0
  -23.4856   -9.5075   19.8945 C   0  0  0  0  0  0  0  0  0  0  0  0
  -23.6041  -18.6886   25.2886 C   0  0  0  0  0  0  0  0  0  0  0  0
  -22.5757  -17.8303   23.2379 C   0  0  0  0  0  0  0  0  0  0  0  0
  -23.3697   -7.6253   21.5784 C   0  0  0  0  0  0  0  0  0  0  0  0
  -24.4093   -9.7784   22.2301 C   0  0  0  0  0  0  0  0  0  0  0  0
  -19.2028  -27.4837   22.1485 C   0  0  1  0  0  0  0  0  0  0  0  0
  -22.7204  -26.3758   23.0607 C   0  0  1  0  0  0  0  0  0  0  0  0
  -23.6933  -16.8884   23.6852 C   0  0  2  0  0  0  0  0  0  0  0  0
  -23.7327  -10.4916   21.0498 C   0  0  1  0  0  0  0  0  0  0  0  0
  -22.8386  -19.1104   24.0299 C   0  0  2  0  0  0  0  0  0  1  0  0
  -26.4198  -10.4057   25.4853 C   0  0  0  0  0  0  0  0  0  0  0  0
  -22.4342   -8.9453   26.9726 C   0  0  0  0  0  0  0  0  0  0  0  0
  -29.2417  -27.0562   18.9360 C   0  0  0  0  0  0  0  0  0  0  0  0
  -22.6436  -26.7357   18.4536 C   0  0  0  0  0  0  0  0  0  0  0  0
  -24.8811  -26.6947   17.3311 C   0  0  0  0  0  0  0  0  0  0  0  0
  -24.1537  -28.7249   18.5848 C   0  0  0  0  0  0  0  0  0  0  0  0
  -28.9388  -25.8082   22.5175 C   0  0  0  0  0  0  0  0  0  0  0  0
  -23.4063  -15.4299   23.3732 C   0  0  0  0  0  0  0  0  0  0  0  0
  -23.8009   -8.6864   26.3715 C   0  0  0  0  0  0  0  0  0  0  0  0
  -24.8034  -26.6440   19.8653 C   0  0  1  0  0  0  0  0  0  0  0  0
  -28.5646  -26.8614   20.2838 C   0  0  2  0  0  0  0  0  0  0  0  0
  -24.1142  -27.1812   18.5793 C   0  0  0  0  0  0  0  0  0  0  0  0
  -25.8599  -11.6945   20.7212 N   0  0  0  0  0  0  0  0  0  0  0  0
  -24.5205  -11.7125   20.6138 N   0  0  0  0  0  0  0  0  0  0  0  0
  -23.5970  -26.0349   21.9383 N   0  0  0  0  0  0  0  0  0  0  0  0
  -23.6533   -8.5858   22.6459 N   0  0  0  0  0  0  0  0  0  0  0  0
  -22.6983  -13.0624   19.9295 N   0  0  0  0  0  0  0  0  0  0  0  0
  -26.2910  -15.6817   19.1368 N   0  0  0  0  0  0  0  0  0  0  0  0
  -24.4466  -14.6035   23.8937 N   0  0  0  0  0  0  0  0  0  0  0  0
  -20.5821  -27.4021   22.5791 N   0  0  0  0  0  0  0  0  0  0  0  0
  -26.1889  -27.0724   20.0242 N   0  0  0  0  0  0  0  0  0  0  0  0
  -23.8663   -9.1116   24.9750 N   0  0  0  0  0  0  0  0  0  0  0  0
  -29.4696  -26.0566   21.1523 N   0  3  0  0  0  0  0  0  0  0  0  0
  -24.0029  -15.5762   19.0262 O   0  0  0  0  0  0  0  0  0  0  0  0
  -20.9040  -25.1242   22.2184 O   0  0  0  0  0  0  0  0  0  0  0  0
  -23.9640  -28.2679   21.3769 O   0  0  0  0  0  0  0  0  0  0  0  0
  -27.1050  -24.9440   20.1096 O   0  0  0  0  0  0  0  0  0  0  0  0
  -23.1747   -7.0202   24.2843 O   0  0  0  0  0  0  0  0  0  0  0  0
  -31.6159  -14.3408   20.0764 O   0  0  0  0  0  0  0  0  0  0  0  0
  -23.6294  -20.0094   23.2594 O   0  0  0  0  0  0  0  0  0  1  0  0
  -32.9866  -19.3736   21.8642 F   0  0  0  0  0  0  0  0  0  0  0  0
  -33.3728  -14.6669   22.1857 F   0  0  0  0  0  0  0  0  0  0  0  0
  1  2  1  0  0  0  0
  1  5  2  0  0  0  0
  2  6  2  0  0  0  0
  3 10  2  0  0  0  0
  3 18  1  0  0  0  0
  4 11  1  0  0  0  0
  4 18  2  0  0  0  0
  5 20  1  0  0  0  0
  6 22  1  0  0  0  0
  7 12  2  0  0  0  0
  7 21  1  0  0  0  0
  8  9  2  0  0  0  0
  8 25  1  0  0  0  0
  9 26  1  0  0  0  0
 10 27  1  0  0  0  0
 11 27  2  0  0  0  0
 12 28  1  0  0  0  0
 13 14  2  0  0  0  0
 13 29  1  0  0  0  0
 14 30  1  0  0  0  0
 15 23  1  0  0  0  0
 15 28  2  0  0  0  0
 16 24  1  0  0  0  0
 16 25  2  0  0  0  0
 17 30  2  0  0  0  0
 17 31  1  0  0  0  0
 18 32  1  0  0  0  0
 19 32  1  0  0  0  0
 19 33  2  0  0  0  0
 19 34  1  0  0  0  0
 20 22  2  0  0  0  0
 20 39  1  0  0  0  0
 21 23  2  0  0  0  0
 21 40  1  0  0  0  0
 22 51  1  0  0  0  0
 23 41  1  0  0  0  0
 24 26  2  0  0  0  0
 24 56  1  0  0  0  0
 25 74  1  0  0  0  0
 26 77  1  0  0  0  0
 27 84  1  0  0  0  0
 28 85  1  0  0  0  0
 29 31  2  0  0  0  0
 29 84  1  0  0  0  0
 30 86  1  0  0  0  0
 31 87  1  0  0  0  0
 32 68  2  0  0  0  0
 33 69  1  0  0  0  0
 33 72  1  0  0  0  0
 34 73  1  0  0  0  0
 34 79  2  0  0  0  0
 35 52  1  0  0  0  0
 35 75  1  0  0  0  0
 35 80  2  0  0  0  0
 36 65  1  0  0  0  0
 36 70  1  0  0  0  0
 36 81  2  0  0  0  0
 37 66  1  0  0  0  0
 37 76  1  0  0  0  0
 37 82  2  0  0  0  0
 38 71  1  0  0  0  0
 38 77  1  0  0  0  0
 38 83  2  0  0  0  0
 39 42  1  0  0  0  0
 40 52  1  0  0  0  0
 41 70  1  0  0  0  0
 42 44  1  0  0  0  0
 43 46  1  0  0  0  0
 43 49  1  0  0  0  0
 44 51  1  0  0  0  0
 45 47  1  0  0  0  0
 45 53  1  0  0  0  0
 46 54  1  0  0  0  0
 47 55  1  0  0  0  0
 48 53  1  0  0  0  0
 48 55  1  0  0  0  0
 49 71  1  0  0  0  0
 50 54  1  0  0  0  0
 50 71  1  0  0  0  0
 51 75  1  0  0  0  0
 52 70  1  0  0  0  0
 53 63  1  0  0  0  0
 54 69  1  0  0  0  0
 55 85  1  0  0  0  0
 57 64  1  0  0  0  0
 58 66  1  0  0  0  0
 59 67  1  0  0  0  0
 60 67  1  0  0  0  0
 61 67  1  0  0  0  0
 62 78  1  0  0  0  0
 63 74  1  0  0  0  0
 64 77  1  0  0  0  0
 65 67  1  0  0  0  0
 65 76  1  0  0  0  0
 66 78  1  0  0  0  0
 68 69  1  0  0  0  0
M  CHG  1  78   1
M  ISO  4  38 100  55 101  77 100  85 101
M  END
> <Batch ID>
0027

> <Smiles>
CC[100N:0](c1ccc(NCC2CC[101CH:1]([101O:1]c3ccc4c(c3)CN(C(=O)C(NC(=O)C(C)NC)C(C)(C)C)C(C(=O)NC3CCCc5ccccc53)C4)C2)cc1C)[100C:0](=O)N1CCCC(n2nc(-c3ccc(Oc4ccc(F)cc4F)cc3)c(C(N)=O)c2N)C1

> <Shape>
0.216

> <Color>
0.101

> <Negative vol penalty>
0.000

$$$$

  -OEChem-04042321283D

 89 99  0     1  0  0  0  0  0999 V2000
  -24.8411  -30.8563   10.0529 C   0  0  0  0  0  0  0  0  0  0  0  0
  -25.8458  -31.1311   10.9752 C   0  0  0  0  0  0  0  0  0  0  0  0
  -23.1067   -9.8307   19.9954 C   0  0  0  0  0  0  0  0  0  0  0  0
  -23.8436   -9.9280   22.2942 C   0  0  0  0  0  0  0  0  0  0  0  0
  -23.5794  -30.4608   10.4954 C   0  0  0  0  0  0  0  0  0  0  0  0
  -25.5890  -31.0117   12.3405 C   0  0  0  0  0  0  0  0  0  0  0  0
  -29.4493  -26.5396   16.4625 C   0  0  0  0  0  0  0  0  0  0  0  0
  -22.3732   -8.6787   20.2793 C   0  0  0  0  0  0  0  0  0  0  0  0
  -23.1101   -8.7760   22.5781 C   0  0  0  0  0  0  0  0  0  0  0  0
  -30.2805  -25.8645   17.3565 C   0  0  0  0  0  0  0  0  0  0  0  0
  -19.8851   -7.9633   23.1779 C   0  0  0  0  0  0  0  0  0  0  0  0
  -19.1170   -7.9564   24.3422 C   0  0  0  0  0  0  0  0  0  0  0  0
  -28.8401  -26.4997   19.1922 C   0  0  0  0  0  0  0  0  0  0  0  0
  -30.1425  -19.3535   22.4268 C   0  0  0  0  0  0  0  0  0  0  0  0
  -30.5410  -17.8048   20.1409 C   0  0  0  0  0  0  0  0  0  0  0  0
  -20.3725   -6.0607   25.1591 C   0  0  0  0  0  0  0  0  0  0  0  0
  -23.8419  -10.4553   21.0029 C   0  0  0  0  0  0  0  0  0  0  0  0
  -24.1569  -12.9783   20.7961 C   0  0  0  0  0  0  0  0  0  0  0  0
  -23.3099  -30.3272   11.8666 C   0  0  0  0  0  0  0  0  0  0  0  0
  -28.3006  -27.1852   16.9284 C   0  0  0  0  0  0  0  0  0  0  0  0
  -24.3222  -30.6154   12.8018 C   0  0  0  0  0  0  0  0  0  0  0  0
  -27.9970  -27.1671   18.2997 C   0  0  0  0  0  0  0  0  0  0  0  0
  -29.9864  -17.9688   22.4867 C   0  0  0  0  0  0  0  0  0  0  0  0
  -30.6970  -19.1896   20.0810 C   0  0  0  0  0  0  0  0  0  0  0  0
  -30.4977  -19.9640   21.2239 C   0  0  0  0  0  0  0  0  0  0  0  0
  -30.1857  -17.1944   21.3438 C   0  0  0  0  0  0  0  0  0  0  0  0
  -22.3748   -8.1514   21.5706 C   0  0  0  0  0  0  0  0  0  0  0  0
  -29.9768  -25.8448   18.7180 C   0  0  0  0  0  0  0  0  0  0  0  0
  -20.8968   -7.0189   23.0041 C   0  0  0  0  0  0  0  0  0  0  0  0
  -19.3607   -7.0052   25.3328 C   0  0  0  0  0  0  0  0  0  0  0  0
  -21.1405   -6.0676   23.9948 C   0  0  0  0  0  0  0  0  0  0  0  0
  -24.6003  -11.6449   20.7101 C   0  0  0  0  0  0  0  0  0  0  0  0
  -25.2443  -13.7268   20.4167 C   0  0  0  0  0  0  0  0  0  0  0  0
  -22.8767  -13.4942   21.1842 C   0  0  0  0  0  0  0  0  0  0  0  0
  -25.2564  -29.2113   16.0895 C   0  0  0  0  0  0  0  0  0  0  0  0
  -24.4050  -27.1571   18.2028 C   0  0  0  0  0  0  0  0  0  0  0  0
  -23.7784  -24.4773   20.2185 C   0  0  0  0  0  0  0  0  0  0  0  0
  -30.6965  -14.8404   20.6061 C   0  0  0  0  0  0  0  0  0  0  0  0
  -21.9170  -29.9425   12.2985 C   0  0  0  0  0  0  0  0  0  0  0  0
  -27.4095  -27.9766   16.0100 C   0  0  0  0  0  0  0  0  0  0  0  0
  -26.7695  -27.9046   18.7604 C   0  0  0  0  0  0  0  0  0  0  0  0
  -21.8360  -29.4779   13.7503 C   0  0  0  0  0  0  0  0  0  0  0  0
  -29.6326  -12.3312   18.3150 C   0  0  0  0  0  0  0  0  0  0  0  0
  -28.4384  -20.4285   16.2710 C   0  0  0  0  0  0  0  0  0  0  0  0
  -29.6644  -21.1919   15.8119 C   0  0  0  0  0  0  0  0  0  0  0  0
  -22.6019  -30.4331   14.6601 C   0  0  0  0  0  0  0  0  0  0  0  0
  -28.1920  -12.0387   18.7410 C   0  0  0  0  0  0  0  0  0  0  0  0
  -30.5331  -12.6131   19.5164 C   0  0  0  0  0  0  0  0  0  0  0  0
  -30.9990  -22.2396   20.1206 C   0  0  0  0  0  0  0  0  0  0  0  0
  -30.2133  -22.3841   22.0661 C   0  0  0  0  0  0  0  0  0  0  0  0
  -28.6046  -13.3644   20.8527 C   0  0  0  0  0  0  0  0  0  0  0  0
  -28.9808  -19.5841   17.4040 C   0  0  0  0  0  0  0  0  0  0  0  0
  -30.3648  -21.5758   17.1036 C   0  0  0  0  0  0  0  0  0  0  0  0
  -24.0896  -30.4733   14.2904 C   0  0  1  0  0  0  0  0  0  0  0  0
  -25.9225  -27.9034   16.4009 C   0  0  1  0  0  0  0  0  0  0  0  0
  -30.9477  -23.3819   21.1518 C   0  0  0  0  0  0  0  0  0  0  0  0
  -27.6455  -13.1382   19.6725 C   0  0  2  0  0  0  0  0  0  0  0  0
  -29.6046  -17.3418   23.7883 C   0  0  0  0  0  0  0  0  0  0  0  0
  -21.9274  -23.3623   21.4943 C   0  0  0  0  0  0  0  0  0  0  0  0
  -24.5847  -29.3198   20.3462 C   0  0  0  0  0  0  0  0  0  0  0  0
  -23.4994  -27.7267   21.9440 C   0  0  0  0  0  0  0  0  0  0  0  0
  -22.2718  -28.4765   19.9060 C   0  0  0  0  0  0  0  0  0  0  0  0
  -24.0402  -21.9836   18.6463 C   0  0  0  0  0  0  0  0  0  0  0  0
  -31.0782  -19.8177   18.7799 C   0  0  0  0  0  0  0  0  0  0  0  0
  -30.1811  -24.6254   20.7499 C   0  0  0  0  0  0  0  0  0  1  0  0
  -24.2000  -26.8589   19.6665 C   0  0  1  0  0  0  0  0  0  0  0  0
  -22.6897  -23.4201   20.1797 C   0  0  2  0  0  0  0  0  0  0  0  0
  -23.6631  -28.0884   20.4523 C   0  0  0  0  0  0  0  0  0  0  0  0
  -25.8702  -11.5487   20.3076 N   0  0  0  0  0  0  0  0  0  0  0  0
  -26.2342  -12.8312   20.1372 N   0  0  0  0  0  0  0  0  0  0  0  0
  -30.6503  -21.3568   21.1821 N   0  0  0  0  0  0  0  0  0  0  0  0
  -25.6572  -27.6598   17.8289 N   0  0  0  0  0  0  0  0  0  0  0  0
  -29.9540  -13.6680   20.3511 N   0  0  0  0  0  0  0  0  0  0  0  0
  -25.4406  -15.0572   20.2982 N   0  0  0  0  0  0  0  0  0  0  0  0
  -21.8716  -12.5860   21.5440 N   0  0  0  0  0  0  0  0  0  0  0  0
  -30.0309  -15.7865   21.3848 N   0  0  0  0  0  0  0  0  0  0  0  0
  -24.7688  -29.3012   14.7996 N   0  0  0  0  0  0  0  0  0  0  0  0
  -23.3340  -25.6864   19.7268 N   0  0  0  0  0  0  0  0  0  0  0  0
  -29.9419  -20.5179   18.1064 N   0  3  0  0  0  0  0  0  0  0  0  0
  -23.2809  -22.0771   19.9198 N   0  3  0  0  0  0  0  0  0  0  0  0
  -22.6263  -14.7232   21.1953 O   0  0  0  0  0  0  0  0  0  0  0  0
  -25.1877  -30.0756   16.9554 O   0  0  0  0  0  0  0  0  0  0  0  0
  -23.4798  -26.9562   17.4110 O   0  0  0  0  0  0  0  0  0  0  0  0
  -24.9089  -24.2540   20.6460 O   0  0  0  0  0  0  0  0  0  0  0  0
  -31.8283  -15.0052   20.1436 O   0  0  0  0  0  0  0  0  0  0  0  0
  -21.6590   -7.0275   21.8480 O   0  0  0  0  0  0  0  0  0  0  0  0
  -30.7902  -25.1800   19.5847 O   0  0  0  0  0  0  0  0  0  1  0  0
  -18.6241   -6.9996   26.4515 F   0  0  0  0  0  0  0  0  0  0  0  0
  -22.1119   -5.1585   23.8341 F   0  0  0  0  0  0  0  0  0  0  0  0
  1  2  1  0  0  0  0
  1  5  2  0  0  0  0
  2  6  2  0  0  0  0
  3  8  2  0  0  0  0
  3 17  1  0  0  0  0
  4  9  1  0  0  0  0
  4 17  2  0  0  0  0
  5 19  1  0  0  0  0
  6 21  1  0  0  0  0
  7 10  2  0  0  0  0
  7 20  1  0  0  0  0
  8 27  1  0  0  0  0
  9 27  2  0  0  0  0
 10 28  1  0  0  0  0
 11 12  2  0  0  0  0
 11 29  1  0  0  0  0
 12 30  1  0  0  0  0
 13 22  1  0  0  0  0
 13 28  2  0  0  0  0
 14 23  2  0  0  0  0
 14 25  1  0  0  0  0
 15 24  1  0  0  0  0
 15 26  2  0  0  0  0
 16 30  2  0  0  0  0
 16 31  1  0  0  0  0
 17 32  1  0  0  0  0
 18 32  1  0  0  0  0
 18 33  2  0  0  0  0
 18 34  1  0  0  0  0
 19 21  2  0  0  0  0
 19 39  1  0  0  0  0
 20 22  2  0  0  0  0
 20 40  1  0  0  0  0
 21 54  1  0  0  0  0
 22 41  1  0  0  0  0
 23 26  1  0  0  0  0
 23 58  1  0  0  0  0
 24 25  2  0  0  0  0
 24 64  1  0  0  0  0
 25 71  1  0  0  0  0
 26 76  1  0  0  0  0
 27 86  1  0  0  0  0
 28 87  1  0  0  0  0
 29 31  2  0  0  0  0
 29 86  1  0  0  0  0
 30 88  1  0  0  0  0
 31 89  1  0  0  0  0
 32 69  2  0  0  0  0
 33 70  1  0  0  0  0
 33 74  1  0  0  0  0
 34 75  1  0  0  0  0
 34 81  2  0  0  0  0
 35 55  1  0  0  0  0
 35 77  1  0  0  0  0
 35 82  2  0  0  0  0
 36 66  1  0  0  0  0
 36 72  1  0  0  0  0
 36 83  2  0  0  0  0
 37 67  1  0  0  0  0
 37 78  1  0  0  0  0
 37 84  2  0  0  0  0
 38 73  1  0  0  0  0
 38 76  1  0  0  0  0
 38 85  2  0  0  0  0
 39 42  1  0  0  0  0
 40 55  1  0  0  0  0
 41 72  1  0  0  0  0
 42 46  1  0  0  0  0
 43 47  1  0  0  0  0
 43 48  1  0  0  0  0
 44 45  1  0  0  0  0
 44 52  1  0  0  0  0
 45 53  1  0  0  0  0
 46 54  1  0  0  0  0
 47 57  1  0  0  0  0
 48 73  1  0  0  0  0
 49 56  1  0  0  0  0
 49 71  1  0  0  0  0
 50 56  1  0  0  0  0
 50 71  1  0  0  0  0
 51 57  1  0  0  0  0
 51 73  1  0  0  0  0
 52 79  1  0  0  0  0
 53 79  1  0  0  0  0
 54 77  1  0  0  0  0
 55 72  1  0  0  0  0
 56 65  1  0  0  0  0
 57 70  1  0  0  0  0
 59 67  1  0  0  0  0
 60 68  1  0  0  0  0
 61 68  1  0  0  0  0
 62 68  1  0  0  0  0
 63 80  1  0  0  0  0
 64 79  1  0  0  0  0
 65 87  1  0  0  0  0
 66 68  1  0  0  0  0
 66 78  1  0  0  0  0
 67 80  1  0  0  0  0
 69 70  1  0  0  0  0
M  CHG  2  79   1  80   1
M  ISO  4  38 100  65 101  76 100  87 101
M  END
> <Batch ID>
0027

> <Smiles>
CNC(C)C(=O)NC(C(=O)N1Cc2cc([101O:1][101CH2:1]C3CN(c4cc(C)c([100NH:0][100C:0](=O)N5CCCC(n6nc(-c7ccc(Oc8ccc(F)cc8F)cc7)c(C(N)=O)c6N)C5)cc4CN4CCCC4)C3)ccc2CC1C(=O)NC1CCCc2ccccc21)C(C)(C)C

> <Shape>
0.257

> <Color>
0.206

> <Negative vol penalty>
0.000

$$$$

  -OEChem-04042321283D

 83 92  0     1  0  0  0  0  0999 V2000
  -16.0461  -28.4957   26.2986 C   0  0  0  0  0  0  0  0  0  0  0  0
  -16.5656  -27.2100   26.1871 C   0  0  0  0  0  0  0  0  0  0  0  0
  -28.7387  -17.0409   18.9805 C   0  0  0  0  0  0  0  0  0  0  0  0
  -23.3842   -9.6675   19.9422 C   0  0  0  0  0  0  0  0  0  0  0  0
  -23.3813  -10.1248   22.3145 C   0  0  0  0  0  0  0  0  0  0  0  0
  -16.4156  -29.4776   25.3803 C   0  0  0  0  0  0  0  0  0  0  0  0
  -17.4541  -26.9051   25.1565 C   0  0  0  0  0  0  0  0  0  0  0  0
  -23.1282  -22.7767   23.7156 C   0  0  0  0  0  0  0  0  0  0  0  0
  -29.2854  -16.4178   20.1044 C   0  0  0  0  0  0  0  0  0  0  0  0
  -27.9534  -18.1779   19.1258 C   0  0  0  0  0  0  0  0  0  0  0  0
  -22.6342   -8.5125   20.1639 C   0  0  0  0  0  0  0  0  0  0  0  0
  -22.6312   -8.9699   22.5362 C   0  0  0  0  0  0  0  0  0  0  0  0
  -23.5719  -21.8446   22.7785 C   0  0  0  0  0  0  0  0  0  0  0  0
  -23.1821   -5.6393   22.7236 C   0  0  0  0  0  0  0  0  0  0  0  0
  -23.5699   -4.8062   23.7729 C   0  0  0  0  0  0  0  0  0  0  0  0
  -24.2002  -23.6420   21.2973 C   0  0  0  0  0  0  0  0  0  0  0  0
  -21.4127   -5.1155   24.8159 C   0  0  0  0  0  0  0  0  0  0  0  0
  -23.7578  -10.4736   21.0175 C   0  0  0  0  0  0  0  0  0  0  0  0
  -24.0445  -12.9628   20.5388 C   0  0  0  0  0  0  0  0  0  0  0  0
  -17.3165  -29.1872   24.3437 C   0  0  0  0  0  0  0  0  0  0  0  0
  -23.2073  -24.1505   23.4456 C   0  0  0  0  0  0  0  0  0  0  0  0
  -17.8349  -27.8838   24.2227 C   0  0  0  0  0  0  0  0  0  0  0  0
  -23.7592  -24.5895   22.2337 C   0  0  0  0  0  0  0  0  0  0  0  0
  -28.2607  -18.0796   21.5358 C   0  0  0  0  0  0  0  0  0  0  0  0
  -29.0386  -16.9104   21.3965 C   0  0  0  0  0  0  0  0  0  0  0  0
  -27.7244  -18.7010   20.3955 C   0  0  0  0  0  0  0  0  0  0  0  0
  -22.2577   -8.1637   21.4609 C   0  0  0  0  0  0  0  0  0  0  0  0
  -24.1053  -22.2771   21.5679 C   0  0  0  0  0  0  0  0  0  0  0  0
  -21.9095   -6.2106   22.7205 C   0  0  0  0  0  0  0  0  0  0  0  0
  -22.6853   -4.5443   24.8190 C   0  0  0  0  0  0  0  0  0  0  0  0
  -21.0248   -5.9487   23.7666 C   0  0  0  0  0  0  0  0  0  0  0  0
  -24.5330  -11.6665   20.7891 C   0  0  0  0  0  0  0  0  0  0  0  0
  -25.1727  -13.7326   20.3926 C   0  0  0  0  0  0  0  0  0  0  0  0
  -22.6920  -13.4295   20.4467 C   0  0  0  0  0  0  0  0  0  0  0  0
  -21.0914  -26.5043   23.1526 C   0  0  0  0  0  0  0  0  0  0  0  0
  -23.7531  -28.3470   22.9471 C   0  0  0  0  0  0  0  0  0  0  0  0
  -27.0776  -28.5626   22.2067 C   0  0  0  0  0  0  0  0  0  0  0  0
  -30.2648  -15.0451   22.5504 C   0  0  0  0  0  0  0  0  0  0  0  0
  -17.6496  -30.2691   23.3470 C   0  0  0  0  0  0  0  0  0  0  0  0
  -22.7491  -25.1437   24.4780 C   0  0  0  0  0  0  0  0  0  0  0  0
  -28.0283  -18.7307   22.8761 C   0  0  0  0  0  0  0  0  0  0  0  0
  -23.8850  -26.0536   21.9038 C   0  0  0  0  0  0  0  0  0  0  0  0
  -18.8865  -29.9631   22.5065 C   0  0  0  0  0  0  0  0  0  0  0  0
  -28.3546  -17.8039   24.0375 C   0  0  0  0  0  0  0  0  0  0  0  0
  -30.0302  -12.4618   19.9063 C   0  0  0  0  0  0  0  0  0  0  0  0
  -18.8339  -28.5322   21.9805 C   0  0  0  0  0  0  0  0  0  0  0  0
  -28.5538  -12.0727   19.9447 C   0  0  0  0  0  0  0  0  0  0  0  0
  -29.6679  -17.0862   23.7800 C   0  0  0  0  0  0  0  0  0  0  0  0
  -30.5225  -12.9485   21.2656 C   0  0  0  0  0  0  0  0  0  0  0  0
  -28.2323  -13.6889   21.8602 C   0  0  0  0  0  0  0  0  0  0  0  0
  -18.8205  -27.5209   23.1332 C   0  0  1  0  0  0  0  0  0  0  0  0
  -22.4036  -26.5060   23.8846 C   0  0  1  0  0  0  0  0  0  0  0  0
  -27.7029  -13.2295   20.4934 C   0  0  2  0  0  0  0  0  0  0  0  0
  -28.9687  -30.2085   22.0974 C   0  0  0  0  0  0  0  0  0  0  0  0
  -22.6253  -29.4661   20.3421 C   0  0  0  0  0  0  0  0  0  0  0  0
  -24.9089  -30.3452   19.8124 C   0  0  0  0  0  0  0  0  0  0  0  0
  -23.6955  -31.1666   21.8312 C   0  0  0  0  0  0  0  0  0  0  0  0
  -28.6342  -27.0857   24.2450 C   0  0  0  0  0  0  0  0  0  0  0  0
  -26.4015  -20.5469   19.3621 C   0  0  0  0  0  0  0  0  0  0  0  0
  -25.6086  -21.7682   19.7968 C   0  0  0  0  0  0  0  0  0  1  0  0
  -24.6406  -28.8217   21.8218 C   0  0  1  0  0  0  0  0  0  0  0  0
  -28.2383  -29.1894   22.9580 C   0  0  2  0  0  0  0  0  0  0  0  0
  -23.9636  -29.9222   20.9570 C   0  0  0  0  0  0  0  0  0  0  0  0
  -25.8675  -11.6118   20.8018 N   0  0  0  0  0  0  0  0  0  0  0  0
  -26.2272  -12.8835   20.5575 N   0  0  0  0  0  0  0  0  0  0  0  0
  -29.5917  -16.2770   22.5632 N   0  0  0  0  0  0  0  0  0  0  0  0
  -23.4172  -26.9858   22.9430 N   0  0  0  0  0  0  0  0  0  0  0  0
  -29.6688  -14.0069   21.8071 N   0  0  0  0  0  0  0  0  0  0  0  0
  -25.3555  -15.0461   20.1403 N   0  0  0  0  0  0  0  0  0  0  0  0
  -21.6529  -12.5056   20.6228 N   0  0  0  0  0  0  0  0  0  0  0  0
  -26.9498  -19.8814   20.4994 N   0  0  0  0  0  0  0  0  0  0  0  0
  -20.1497  -27.3647   23.6840 N   0  0  0  0  0  0  0  0  0  0  0  0
  -25.8963  -29.2348   22.4389 N   0  0  0  0  0  0  0  0  0  0  0  0
  -29.2125  -28.1411   23.3740 N   0  3  0  0  0  0  0  0  0  0  0  0
  -22.4131  -14.6272   20.1988 O   0  0  0  0  0  0  0  0  0  0  0  0
  -20.9448  -25.7775   22.1769 O   0  0  0  0  0  0  0  0  0  0  0  0
  -23.3778  -29.1529   23.8023 O   0  0  0  0  0  0  0  0  0  0  0  0
  -27.2067  -27.5775   21.4832 O   0  0  0  0  0  0  0  0  0  0  0  0
  -31.2925  -14.8704   23.2168 O   0  0  0  0  0  0  0  0  0  0  0  0
  -21.5256   -7.0369   21.6776 O   0  0  0  0  0  0  0  0  0  0  0  0
  -24.5415  -21.3631   20.6448 O   0  0  0  0  0  0  0  0  0  1  0  0
  -23.0574   -3.7430   25.8258 F   0  0  0  0  0  0  0  0  0  0  0  0
  -19.8006   -6.4937   23.7685 F   0  0  0  0  0  0  0  0  0  0  0  0
  1  2  1  0  0  0  0
  1  6  2  0  0  0  0
  2  7  2  0  0  0  0
  3  9  1  0  0  0  0
  3 10  2  0  0  0  0
  4 11  2  0  0  0  0
  4 18  1  0  0  0  0
  5 12  1  0  0  0  0
  5 18  2  0  0  0  0
  6 20  1  0  0  0  0
  7 22  1  0  0  0  0
  8 13  2  0  0  0  0
  8 21  1  0  0  0  0
  9 25  2  0  0  0  0
 10 26  1  0  0  0  0
 11 27  1  0  0  0  0
 12 27  2  0  0  0  0
 13 28  1  0  0  0  0
 14 15  2  0  0  0  0
 14 29  1  0  0  0  0
 15 30  1  0  0  0  0
 16 23  1  0  0  0  0
 16 28  2  0  0  0  0
 17 30  2  0  0  0  0
 17 31  1  0  0  0  0
 18 32  1  0  0  0  0
 19 32  1  0  0  0  0
 19 33  2  0  0  0  0
 19 34  1  0  0  0  0
 20 22  2  0  0  0  0
 20 39  1  0  0  0  0
 21 23  2  0  0  0  0
 21 40  1  0  0  0  0
 22 51  1  0  0  0  0
 23 42  1  0  0  0  0
 24 25  1  0  0  0  0
 24 26  2  0  0  0  0
 24 41  1  0  0  0  0
 25 66  1  0  0  0  0
 26 71  1  0  0  0  0
 27 80  1  0  0  0  0
 28 81  1  0  0  0  0
 29 31  2  0  0  0  0
 29 80  1  0  0  0  0
 30 82  1  0  0  0  0
 31 83  1  0  0  0  0
 32 64  2  0  0  0  0
 33 65  1  0  0  0  0
 33 69  1  0  0  0  0
 34 70  1  0  0  0  0
 34 75  2  0  0  0  0
 35 52  1  0  0  0  0
 35 72  1  0  0  0  0
 35 76  2  0  0  0  0
 36 61  1  0  0  0  0
 36 67  1  0  0  0  0
 36 77  2  0  0  0  0
 37 62  1  0  0  0  0
 37 73  1  0  0  0  0
 37 78  2  0  0  0  0
 38 66  1  0  0  0  0
 38 68  1  0  0  0  0
 38 79  2  0  0  0  0
 39 43  1  0  0  0  0
 40 52  1  0  0  0  0
 41 44  1  0  0  0  0
 42 67  1  0  0  0  0
 43 46  1  0  0  0  0
 44 48  1  0  0  0  0
 45 47  1  0  0  0  0
 45 49  1  0  0  0  0
 46 51  1  0  0  0  0
 47 53  1  0  0  0  0
 48 66  1  0  0  0  0
 49 68  1  0  0  0  0
 50 53  1  0  0  0  0
 50 68  1  0  0  0  0
 51 72  1  0  0  0  0
 52 67  1  0  0  0  0
 53 65  1  0  0  0  0
 54 62  1  0  0  0  0
 55 63  1  0  0  0  0
 56 63  1  0  0  0  0
 57 63  1  0  0  0  0
 58 74  1  0  0  0  0
 59 60  1  0  0  0  0
 59 71  1  0  0  0  0
 60 81  1  0  0  0  0
 61 63  1  0  0  0  0
 61 73  1  0  0  0  0
 62 74  1  0  0  0  0
 64 65  1  0  0  0  0
M  CHG  1  74   1
M  ISO  4  38 100  60 101  66 100  81 101
M  END
> <Batch ID>
0027

> <Smiles>
CNC(C)C(=O)NC(C(=O)N1Cc2cc([101O:1][101CH2:1]CNc3cccc4c3CCC[100N:0]4[100C:0](=O)N3CCCC(n4nc(-c5ccc(Oc6ccc(F)cc6F)cc5)c(C(N)=O)c4N)C3)ccc2CC1C(=O)NC1CCCc2ccccc21)C(C)(C)C

> <Shape>
0.286

> <Color>
0.188

> <Negative vol penalty>
0.000

$$$$

  -OEChem-04042321283D

 82 91  0     1  0  0  0  0  0999 V2000
  -28.9266  -37.2608   24.3636 C   0  0  0  0  0  0  0  0  0  0  0  0
  -29.3469  -36.0665   23.7871 C   0  0  0  0  0  0  0  0  0  0  0  0
  -24.6912   -9.9560   22.0521 C   0  0  0  0  0  0  0  0  0  0  0  0
  -24.8074  -11.3688   24.0085 C   0  0  0  0  0  0  0  0  0  0  0  0
  -27.7975  -37.2795   25.1813 C   0  0  0  0  0  0  0  0  0  0  0  0
  -28.6388  -34.8898   24.0288 C   0  0  0  0  0  0  0  0  0  0  0  0
  -27.7602  -30.2537   20.1250 C   0  0  0  0  0  0  0  0  0  0  0  0
  -29.5512  -21.6922   21.1526 C   0  0  0  0  0  0  0  0  0  0  0  0
  -29.5771  -20.3330   20.8408 C   0  0  0  0  0  0  0  0  0  0  0  0
  -24.3950   -8.8594   22.8616 C   0  0  0  0  0  0  0  0  0  0  0  0
  -24.5112  -10.2722   24.8181 C   0  0  0  0  0  0  0  0  0  0  0  0
  -28.3984  -29.0238   19.9705 C   0  0  0  0  0  0  0  0  0  0  0  0
  -23.2527   -5.7609   24.3814 C   0  0  0  0  0  0  0  0  0  0  0  0
  -22.2218   -4.9141   23.9745 C   0  0  0  0  0  0  0  0  0  0  0  0
  -26.6913  -27.9760   21.3148 C   0  0  0  0  0  0  0  0  0  0  0  0
  -27.1618  -20.2809   20.8669 C   0  0  0  0  0  0  0  0  0  0  0  0
  -20.6675   -6.7614   24.0677 C   0  0  0  0  0  0  0  0  0  0  0  0
  -24.8974  -11.2107   22.6256 C   0  0  0  0  0  0  0  0  0  0  0  0
  -24.2897  -13.2368   21.1996 C   0  0  0  0  0  0  0  0  0  0  0  0
  -27.0696  -36.1043   25.4254 C   0  0  0  0  0  0  0  0  0  0  0  0
  -26.5868  -30.3561   20.8859 C   0  0  0  0  0  0  0  0  0  0  0  0
  -27.4996  -34.8925   24.8516 C   0  0  0  0  0  0  0  0  0  0  0  0
  -26.0388  -29.2079   21.4753 C   0  0  0  0  0  0  0  0  0  0  0  0
  -28.3306  -22.3459   21.3217 C   0  0  0  0  0  0  0  0  0  0  0  0
  -28.3824  -19.6273   20.6979 C   0  0  0  0  0  0  0  0  0  0  0  0
  -24.3050   -9.0175   24.2446 C   0  0  0  0  0  0  0  0  0  0  0  0
  -27.8655  -27.8852   20.5679 C   0  0  0  0  0  0  0  0  0  0  0  0
  -22.9911   -7.1080   24.6316 C   0  0  0  0  0  0  0  0  0  0  0  0
  -20.9292   -5.4143   23.8176 C   0  0  0  0  0  0  0  0  0  0  0  0
  -27.1359  -21.6402   21.1788 C   0  0  0  0  0  0  0  0  0  0  0  0
  -21.6985   -7.6082   24.4747 C   0  0  0  0  0  0  0  0  0  0  0  0
  -25.2040  -12.3438   21.7899 C   0  0  0  0  0  0  0  0  0  0  0  0
  -25.0760  -14.1276   20.5106 C   0  0  0  0  0  0  0  0  0  0  0  0
  -22.8577  -13.2591   21.2680 C   0  0  0  0  0  0  0  0  0  0  0  0
  -25.7552  -31.9167   23.5272 C   0  0  0  0  0  0  0  0  0  0  0  0
  -22.8099  -30.7573   22.8176 C   0  0  0  0  0  0  0  0  0  0  0  0
  -20.9338  -28.3819   21.2415 C   0  0  0  0  0  0  0  0  0  0  0  0
  -29.5339  -17.4473   20.1801 C   0  0  0  0  0  0  0  0  0  0  0  0
  -25.8829  -36.1651   26.3543 C   0  0  0  0  0  0  0  0  0  0  0  0
  -25.8959  -31.6853   21.0207 C   0  0  0  0  0  0  0  0  0  0  0  0
  -24.7701  -29.2608   22.2853 C   0  0  0  0  0  0  0  0  0  0  0  0
  -24.9711  -34.9446   26.2582 C   0  0  0  0  0  0  0  0  0  0  0  0
  -30.0176  -14.0023   19.4216 C   0  0  0  0  0  0  0  0  0  0  0  0
  -25.7944  -33.6606   26.2730 C   0  0  0  0  0  0  0  0  0  0  0  0
  -28.7332  -13.3372   19.9216 C   0  0  0  0  0  0  0  0  0  0  0  0
  -30.4570  -15.1454   20.3349 C   0  0  0  0  0  0  0  0  0  0  0  0
  -28.1421  -15.4914   21.1036 C   0  0  0  0  0  0  0  0  0  0  0  0
  -27.3019  -24.6418   21.2830 C   0  0  0  0  0  0  0  0  0  0  0  0
  -29.3904  -24.6174   21.5392 C   0  0  0  0  0  0  0  0  0  0  0  0
  -26.7435  -33.6000   25.0701 C   0  0  1  0  0  0  0  0  0  0  0  0
  -24.9880  -31.7654   22.2442 C   0  0  1  0  0  0  0  0  0  0  0  0
  -27.6245  -14.3761   20.1806 C   0  0  2  0  0  0  0  0  0  0  0  0
  -28.3498  -25.7453   21.4856 C   0  0  0  0  0  0  0  0  0  1  0  0
  -18.5541  -27.6752   20.8737 C   0  0  0  0  0  0  0  0  0  0  0  0
  -22.7124  -29.6213   25.6478 C   0  0  0  0  0  0  0  0  0  0  0  0
  -20.8100  -28.1642   24.9226 C   0  0  0  0  0  0  0  0  0  0  0  0
  -20.5714  -30.6465   24.8609 C   0  0  0  0  0  0  0  0  0  0  0  0
  -21.1586  -28.7387   18.3121 C   0  0  0  0  0  0  0  0  0  0  0  0
  -22.0456  -29.5004   23.1565 C   0  0  1  0  0  0  0  0  0  0  0  0
  -19.7188  -28.4936   20.3383 C   0  0  2  0  0  0  0  0  0  0  0  0
  -21.5598  -29.4821   24.6334 C   0  0  0  0  0  0  0  0  0  0  0  0
  -26.4739  -12.6402   21.5011 N   0  0  0  0  0  0  0  0  0  0  0  0
  -26.3632  -13.7294   20.7217 N   0  0  0  0  0  0  0  0  0  0  0  0
  -28.3080  -23.7007   21.6340 N   0  0  0  0  0  0  0  0  0  0  0  0
  -24.1350  -30.5846   22.3933 N   0  0  0  0  0  0  0  0  0  0  0  0
  -29.3572  -16.0923   20.5315 N   0  0  0  0  0  0  0  0  0  0  0  0
  -24.7849  -15.2048   19.7509 N   0  0  0  0  0  0  0  0  0  0  0  0
  -22.2092  -12.2699   22.0199 N   0  0  0  0  0  0  0  0  0  0  0  0
  -28.4089  -18.2465   20.3811 N   0  0  0  0  0  0  0  0  0  0  0  0
  -26.0197  -33.2280   23.8734 N   0  0  0  0  0  0  0  0  0  0  0  0
  -20.9726  -29.3974   22.1733 N   0  0  0  0  0  0  0  0  0  0  0  0
  -20.0451  -28.0062   18.9683 N   0  3  0  0  0  0  0  0  0  0  0  0
  -22.1727  -14.1207   20.6663 O   0  0  0  0  0  0  0  0  0  0  0  0
  -26.0816  -30.9176   24.1573 O   0  0  0  0  0  0  0  0  0  0  0  0
  -22.2495  -31.8516   22.9186 O   0  0  0  0  0  0  0  0  0  0  0  0
  -21.7633  -27.4814   21.1337 O   0  0  0  0  0  0  0  0  0  0  0  0
  -30.5956  -17.8623   19.7084 O   0  0  0  0  0  0  0  0  0  0  0  0
  -24.0158   -7.9477   25.0348 O   0  0  0  0  0  0  0  0  0  0  0  0
  -28.4868  -26.6836   20.4192 O   0  0  0  0  0  0  0  0  0  1  0  0
  -19.9396   -4.6013   23.4253 F   0  0  0  0  0  0  0  0  0  0  0  0
  -25.9574  -22.2586   21.3406 F   0  0  0  0  0  0  0  0  0  0  0  0
  -21.4412   -8.9017   24.7124 F   0  0  0  0  0  0  0  0  0  0  0  0
  1  2  1  0  0  0  0
  1  5  2  0  0  0  0
  2  6  2  0  0  0  0
  3 10  2  0  0  0  0
  3 18  1  0  0  0  0
  4 11  1  0  0  0  0
  4 18  2  0  0  0  0
  5 20  1  0  0  0  0
  6 22  1  0  0  0  0
  7 12  2  0  0  0  0
  7 21  1  0  0  0  0
  8  9  2  0  0  0  0
  8 24  1  0  0  0  0
  9 25  1  0  0  0  0
 10 26  1  0  0  0  0
 11 26  2  0  0  0  0
 12 27  1  0  0  0  0
 13 14  2  0  0  0  0
 13 28  1  0  0  0  0
 14 29  1  0  0  0  0
 15 23  1  0  0  0  0
 15 27  2  0  0  0  0
 16 25  2  0  0  0  0
 16 30  1  0  0  0  0
 17 29  2  0  0  0  0
 17 31  1  0  0  0  0
 18 32  1  0  0  0  0
 19 32  1  0  0  0  0
 19 33  2  0  0  0  0
 19 34  1  0  0  0  0
 20 22  2  0  0  0  0
 20 39  1  0  0  0  0
 21 23  2  0  0  0  0
 21 40  1  0  0  0  0
 22 50  1  0  0  0  0
 23 41  1  0  0  0  0
 24 30  2  0  0  0  0
 24 64  1  0  0  0  0
 25 69  1  0  0  0  0
 26 78  1  0  0  0  0
 27 79  1  0  0  0  0
 28 31  2  0  0  0  0
 28 78  1  0  0  0  0
 29 80  1  0  0  0  0
 30 81  1  0  0  0  0
 31 82  1  0  0  0  0
 32 62  2  0  0  0  0
 33 63  1  0  0  0  0
 33 67  1  0  0  0  0
 34 68  1  0  0  0  0
 34 73  2  0  0  0  0
 35 51  1  0  0  0  0
 35 70  1  0  0  0  0
 35 74  2  0  0  0  0
 36 59  1  0  0  0  0
 36 65  1  0  0  0  0
 36 75  2  0  0  0  0
 37 60  1  0  0  0  0
 37 71  1  0  0  0  0
 37 76  2  0  0  0  0
 38 66  1  0  0  0  0
 38 69  1  0  0  0  0
 38 77  2  0  0  0  0
 39 42  1  0  0  0  0
 40 51  1  0  0  0  0
 41 65  1  0  0  0  0
 42 44  1  0  0  0  0
 43 45  1  0  0  0  0
 43 46  1  0  0  0  0
 44 50  1  0  0  0  0
 45 52  1  0  0  0  0
 46 66  1  0  0  0  0
 47 52  1  0  0  0  0
 47 66  1  0  0  0  0
 48 53  1  0  0  0  0
 48 64  1  0  0  0  0
 49 53  1  0  0  0  0
 49 64  1  0  0  0  0
 50 70  1  0  0  0  0
 51 65  1  0  0  0  0
 52 63  1  0  0  0  0
 53 79  1  0  0  0  0
 54 60  1  0  0  0  0
 55 61  1  0  0  0  0
 56 61  1  0  0  0  0
 57 61  1  0  0  0  0
 58 72  1  0  0  0  0
 59 61  1  0  0  0  0
 59 71  1  0  0  0  0
 60 72  1  0  0  0  0
 62 63  1  0  0  0  0
M  CHG  1  72   1
M  ISO  4  38 100  53 101  69 100  79 101
M  END
> <Batch ID>
0027

> <Smiles>
CNC(C)C(=O)NC(C(=O)N1Cc2cc([101O:1][101CH:1]3CN(c4ccc([100NH:0][100C:0](=O)N5CCCC(n6nc(-c7ccc(Oc8ccc(F)cc8F)cc7)c(C(N)=O)c6N)C5)cc4F)C3)ccc2CC1C(=O)NC1CCCc2ccccc21)C(C)(C)C

> <Shape>
0.327

> <Color>
0.140

> <Negative vol penalty>
0.000

$$$$

  -OEChem-04042321283D

 90100  0     1  0  0  0  0  0999 V2000
  -33.4959  -20.8383   23.5260 C   0  0  0  0  0  0  0  0  0  0  0  0
  -32.2735  -21.4318   23.2276 C   0  0  0  0  0  0  0  0  0  0  0  0
  -29.9942  -27.0137   19.7405 C   0  0  0  0  0  0  0  0  0  0  0  0
  -28.8309  -25.3940   21.1045 C   0  0  0  0  0  0  0  0  0  0  0  0
  -33.8422  -19.6235   22.9358 C   0  0  0  0  0  0  0  0  0  0  0  0
  -31.3972  -20.8113   22.3379 C   0  0  0  0  0  0  0  0  0  0  0  0
  -25.2779  -20.8306   22.5819 C   0  0  0  0  0  0  0  0  0  0  0  0
  -19.4196  -26.1519   23.5805 C   0  0  0  0  0  0  0  0  0  0  0  0
  -19.1037  -24.8052   23.4011 C   0  0  0  0  0  0  0  0  0  0  0  0
  -31.2166  -26.4887   20.1596 C   0  0  0  0  0  0  0  0  0  0  0  0
  -30.0533  -24.8690   21.5236 C   0  0  0  0  0  0  0  0  0  0  0  0
  -24.3152  -21.5930   21.9217 C   0  0  0  0  0  0  0  0  0  0  0  0
  -34.6393  -25.3419   20.5900 C   0  0  0  0  0  0  0  0  0  0  0  0
  -35.6189  -25.1263   19.6208 C   0  0  0  0  0  0  0  0  0  0  0  0
  -24.0630  -19.8426   20.2811 C   0  0  0  0  0  0  0  0  0  0  0  0
  -34.1414  -23.6026   18.4664 C   0  0  0  0  0  0  0  0  0  0  0  0
  -28.8013  -26.4664   20.2130 C   0  0  0  0  0  0  0  0  0  0  0  0
  -26.7803  -26.6113   18.6631 C   0  0  0  0  0  0  0  0  0  0  0  0
  -32.9655  -18.9831   22.0459 C   0  0  0  0  0  0  0  0  0  0  0  0
  -25.6488  -19.5711   22.0897 C   0  0  0  0  0  0  0  0  0  0  0  0
  -31.7327  -19.5875   21.7343 C   0  0  0  0  0  0  0  0  0  0  0  0
  -25.0288  -19.0651   20.9383 C   0  0  0  0  0  0  0  0  0  0  0  0
  -19.8595  -26.9152   22.4991 C   0  0  0  0  0  0  0  0  0  0  0  0
  -19.9835  -26.3318   21.2382 C   0  0  0  0  0  0  0  0  0  0  0  0
  -19.6676  -24.9851   21.0587 C   0  0  0  0  0  0  0  0  0  0  0  0
  -19.2277  -24.2218   22.1402 C   0  0  0  0  0  0  0  0  0  0  0  0
  -31.2462  -25.4163   21.0511 C   0  0  0  0  0  0  0  0  0  0  0  0
  -23.7097  -21.1002   20.7695 C   0  0  0  0  0  0  0  0  0  0  0  0
  -33.4107  -24.6879   20.4975 C   0  0  0  0  0  0  0  0  0  0  0  0
  -35.3700  -24.2567   18.5590 C   0  0  0  0  0  0  0  0  0  0  0  0
  -33.1618  -23.8183   19.4357 C   0  0  0  0  0  0  0  0  0  0  0  0
  -27.5383  -27.0086   19.7809 C   0  0  0  0  0  0  0  0  0  0  0  0
  -25.6753  -27.4266   18.6901 C   0  0  0  0  0  0  0  0  0  0  0  0
  -27.0510  -25.5960   17.6875 C   0  0  0  0  0  0  0  0  0  0  0  0
  -28.3495  -18.2930   21.0051 C   0  0  0  0  0  0  0  0  0  0  0  0
  -26.5851  -15.5715   20.9564 C   0  0  0  0  0  0  0  0  0  0  0  0
  -23.4998  -14.1214   20.8002 C   0  0  0  0  0  0  0  0  0  0  0  0
  -22.0738  -29.9496   22.4555 C   0  0  0  0  0  0  0  0  0  0  0  0
  -33.4039  -17.6944   21.3964 C   0  0  0  0  0  0  0  0  0  0  0  0
  -26.6696  -18.7497   22.8285 C   0  0  0  0  0  0  0  0  0  0  0  0
  -25.3769  -17.7101   20.3805 C   0  0  0  0  0  0  0  0  0  0  0  0
  -32.2589  -16.9164   20.7529 C   0  0  0  0  0  0  0  0  0  0  0  0
  -17.6652  -20.8445   21.8853 C   0  0  0  0  0  0  0  0  0  0  0  0
  -19.1139  -20.5385   21.5635 C   0  0  0  0  0  0  0  0  0  0  0  0
  -24.6121  -31.7865   20.7645 C   0  0  0  0  0  0  0  0  0  0  0  0
  -31.3834  -17.8468   19.9194 C   0  0  0  0  0  0  0  0  0  0  0  0
  -25.5549  -30.7048   20.2345 C   0  0  0  0  0  0  0  0  0  0  0  0
  -22.9419  -23.1844   18.1351 C   0  0  0  0  0  0  0  0  0  0  0  0
  -17.5742  -22.3453   21.6336 C   0  0  0  0  0  0  0  0  0  0  0  0
  -19.8478  -21.7465   22.1343 C   0  0  0  0  0  0  0  0  0  0  0  0
  -24.0426  -31.4179   22.1326 C   0  0  0  0  0  0  0  0  0  0  0  0
  -24.3323  -29.0154   21.6663 C   0  0  0  0  0  0  0  0  0  0  0  0
  -21.4537  -23.4515   18.0326 C   0  0  0  0  0  0  0  0  0  0  0  0
  -22.2803  -24.2066   20.2112 C   0  0  0  0  0  0  0  0  0  0  0  0
  -30.7446  -18.9330   20.7933 C   0  0  1  0  0  0  0  0  0  0  0  0
  -27.3421  -17.7001   21.9491 C   0  0  1  0  0  0  0  0  0  0  0  0
  -24.8882  -29.3163   20.2638 C   0  0  2  0  0  0  0  0  0  0  0  0
  -23.1755  -23.1208   19.6347 C   0  0  1  0  0  0  0  0  0  1  0  0
  -20.4555  -27.1529   20.0799 C   0  0  0  0  0  0  0  0  0  0  0  0
  -22.3787  -11.8770   20.7409 C   0  0  0  0  0  0  0  0  0  0  0  0
  -27.3985  -15.2450   18.0337 C   0  0  0  0  0  0  0  0  0  0  0  0
  -25.5432  -13.5838   17.7754 C   0  0  0  0  0  0  0  0  0  0  0  0
  -27.4121  -13.1269   19.3632 C   0  0  0  0  0  0  0  0  0  0  0  0
  -22.0356  -14.6571   23.3158 C   0  0  0  0  0  0  0  0  0  0  0  0
  -20.1903  -28.3552   22.7189 C   0  0  0  0  0  0  0  0  0  0  0  0
  -19.8018  -24.3591   19.7018 C   0  0  0  0  0  0  0  0  0  0  0  0
  -25.6967  -14.8913   19.9429 C   0  0  1  0  0  0  0  0  0  0  0  0
  -22.8632  -13.0165   21.6239 C   0  0  2  0  0  0  0  0  0  0  0  0
  -26.5072  -14.2382   18.7880 C   0  0  0  0  0  0  0  0  0  0  0  0
  -26.9634  -27.9994   20.4679 N   0  0  0  0  0  0  0  0  0  0  0  0
  -25.8325  -28.2315   19.7799 N   0  0  0  0  0  0  0  0  0  0  0  0
  -18.9045  -22.8608   21.9799 N   0  0  0  0  0  0  0  0  0  0  0  0
  -26.3853  -16.9477   21.1350 N   0  0  0  0  0  0  0  0  0  0  0  0
  -23.4232  -30.0911   22.0920 N   0  0  0  0  0  0  0  0  0  0  0  0
  -24.5942  -27.5263   17.8878 N   0  0  0  0  0  0  0  0  0  0  0  0
  -28.2318  -24.8509   17.8086 N   0  0  0  0  0  0  0  0  0  0  0  0
  -29.6232  -18.3930   21.5316 N   0  0  0  0  0  0  0  0  0  0  0  0
  -24.8644  -13.9562   20.6921 N   0  0  0  0  0  0  0  0  0  0  0  0
  -21.5634  -28.6593   22.3828 N   0  0  0  0  0  0  0  0  0  0  0  0
  -21.1957  -24.4181   19.1648 N   0  3  2  0  0  0  0  0  0  0  0  0
  -21.6989  -13.5460   22.3889 N   0  3  0  0  0  0  0  0  0  0  0  0
  -26.2767  -25.3678   16.7273 O   0  0  0  0  0  0  0  0  0  0  0  0
  -27.9978  -18.6332   19.8816 O   0  0  0  0  0  0  0  0  0  0  0  0
  -27.4206  -14.9048   21.5722 O   0  0  0  0  0  0  0  0  0  0  0  0
  -22.8508  -15.0371   20.2994 O   0  0  0  0  0  0  0  0  0  0  0  0
  -21.3742  -30.9034   22.8129 O   0  0  0  0  0  0  0  0  0  0  0  0
  -32.4389  -24.9036   21.4601 O   0  0  0  0  0  0  0  0  0  0  0  0
  -22.7703  -21.8425   20.1227 O   0  0  0  0  0  0  0  0  0  1  0  0
  -36.3103  -24.0509   17.6275 F   0  0  0  0  0  0  0  0  0  0  0  0
  -31.9830  -23.1880   19.3408 F   0  0  0  0  0  0  0  0  0  0  0  0
  1  2  1  0  0  0  0
  1  5  2  0  0  0  0
  2  6  2  0  0  0  0
  3 10  2  0  0  0  0
  3 17  1  0  0  0  0
  4 11  1  0  0  0  0
  4 17  2  0  0  0  0
  5 19  1  0  0  0  0
  6 21  1  0  0  0  0
  7 12  2  0  0  0  0
  7 20  1  0  0  0  0
  8  9  1  0  0  0  0
  8 23  2  0  0  0  0
  9 26  2  0  0  0  0
 10 27  1  0  0  0  0
 11 27  2  0  0  0  0
 12 28  1  0  0  0  0
 13 14  2  0  0  0  0
 13 29  1  0  0  0  0
 14 30  1  0  0  0  0
 15 22  1  0  0  0  0
 15 28  2  0  0  0  0
 16 30  2  0  0  0  0
 16 31  1  0  0  0  0
 17 32  1  0  0  0  0
 18 32  1  0  0  0  0
 18 33  2  0  0  0  0
 18 34  1  0  0  0  0
 19 21  2  0  0  0  0
 19 39  1  0  0  0  0
 20 22  2  0  0  0  0
 20 40  1  0  0  0  0
 21 55  1  0  0  0  0
 22 41  1  0  0  0  0
 23 24  1  0  0  0  0
 23 65  1  0  0  0  0
 24 25  2  0  0  0  0
 24 59  1  0  0  0  0
 25 26  1  0  0  0  0
 25 66  1  0  0  0  0
 26 72  1  0  0  0  0
 27 87  1  0  0  0  0
 28 88  1  0  0  0  0
 29 31  2  0  0  0  0
 29 87  1  0  0  0  0
 30 89  1  0  0  0  0
 31 90  1  0  0  0  0
 32 70  2  0  0  0  0
 33 71  1  0  0  0  0
 33 75  1  0  0  0  0
 34 76  1  0  0  0  0
 34 82  2  0  0  0  0
 35 56  1  0  0  0  0
 35 77  1  0  0  0  0
 35 83  2  0  0  0  0
 36 67  1  0  0  0  0
 36 73  1  0  0  0  0
 36 84  2  0  0  0  0
 37 68  1  0  0  0  0
 37 78  1  0  0  0  0
 37 85  2  0  0  0  0
 38 74  1  0  0  0  0
 38 79  1  0  0  0  0
 38 86  2  0  0  0  0
 39 42  1  0  0  0  0
 40 56  1  0  0  0  0
 41 73  1  0  0  0  0
 42 46  1  0  0  0  0
 43 44  1  0  0  0  0
 43 49  1  0  0  0  0
 44 50  1  0  0  0  0
 45 47  1  0  0  0  0
 45 51  1  0  0  0  0
 46 55  1  0  0  0  0
 47 57  1  0  0  0  0
 48 53  1  0  0  0  0
 48 58  1  0  0  0  0
 49 72  1  0  0  0  0
 50 72  1  0  0  0  0
 51 74  1  0  0  0  0
 52 57  1  0  0  0  0
 52 74  1  0  0  0  0
 53 80  1  0  0  0  0
 54 58  1  0  0  0  0
 54 80  1  0  0  0  0
 55 77  1  0  0  0  0
 56 73  1  0  0  0  0
 57 71  1  0  0  0  0
 58 88  1  0  0  0  0
 60 68  1  0  0  0  0
 61 69  1  0  0  0  0
 62 69  1  0  0  0  0
 63 69  1  0  0  0  0
 64 81  1  0  0  0  0
 65 79  1  0  0  0  0
 66 80  1  0  0  0  0
 67 69  1  0  0  0  0
 67 78  1  0  0  0  0
 68 81  1  0  0  0  0
 70 71  1  0  0  0  0
M  CHG  2  80   1  81   1
M  ISO  4  38 100  58 101  79 100  88 101
M  END
> <Batch ID>
0027

> <Smiles>
CNC(C)C(=O)NC(C(=O)N1Cc2cc([101O:1][101CH:1]3CCN(Cc4c(N5CCCC5)ccc(C[100NH:0][100C:0](=O)N5CCCC(n6nc(-c7ccc(Oc8ccc(F)cc8F)cc7)c(C(N)=O)c6N)C5)c4C)C3)ccc2CC1C(=O)NC1CCCc2ccccc21)C(C)(C)C

> <Shape>
0.210

> <Color>
0.053

> <Negative vol penalty>
0.000

$$$$

  -OEChem-04042321283D

 86 95  0     1  0  0  0  0  0999 V2000
  -24.7305  -25.8111   14.9807 C   0  0  0  0  0  0  0  0  0  0  0  0
  -24.9452  -25.5727   16.3344 C   0  0  0  0  0  0  0  0  0  0  0  0
  -23.0710   -9.8945   19.9219 C   0  0  0  0  0  0  0  0  0  0  0  0
  -23.8494   -9.8588   22.2088 C   0  0  0  0  0  0  0  0  0  0  0  0
  -25.3245  -24.9866   14.0261 C   0  0  0  0  0  0  0  0  0  0  0  0
  -25.7531  -24.5088   16.7343 C   0  0  0  0  0  0  0  0  0  0  0  0
  -29.4758  -24.3375   21.5941 C   0  0  0  0  0  0  0  0  0  0  0  0
  -30.4059  -18.0386   24.1143 C   0  0  0  0  0  0  0  0  0  0  0  0
  -29.6206  -18.8322   24.9504 C   0  0  0  0  0  0  0  0  0  0  0  0
  -22.3287   -8.7371   20.1565 C   0  0  0  0  0  0  0  0  0  0  0  0
  -23.1071   -8.7014   22.4434 C   0  0  0  0  0  0  0  0  0  0  0  0
  -29.3249  -23.8031   22.8729 C   0  0  0  0  0  0  0  0  0  0  0  0
  -19.8836   -7.8933   23.0571 C   0  0  0  0  0  0  0  0  0  0  0  0
  -19.1361   -7.8318   24.2331 C   0  0  0  0  0  0  0  0  0  0  0  0
  -30.4590  -21.7963   22.1616 C   0  0  0  0  0  0  0  0  0  0  0  0
  -20.3827   -5.8808   24.9235 C   0  0  0  0  0  0  0  0  0  0  0  0
  -23.8314  -10.4554   20.9481 C   0  0  0  0  0  0  0  0  0  0  0  0
  -24.1731  -12.9822   20.8721 C   0  0  0  0  0  0  0  0  0  0  0  0
  -26.1479  -23.9180   14.4143 C   0  0  0  0  0  0  0  0  0  0  0  0
  -30.1109  -23.5996   20.5847 C   0  0  0  0  0  0  0  0  0  0  0  0
  -26.3576  -23.6684   15.7840 C   0  0  0  0  0  0  0  0  0  0  0  0
  -30.6190  -22.3246   20.8715 C   0  0  0  0  0  0  0  0  0  0  0  0
  -29.9637  -17.7307   22.8276 C   0  0  0  0  0  0  0  0  0  0  0  0
  -28.7361  -18.2164   22.3772 C   0  0  0  0  0  0  0  0  0  0  0  0
  -27.9508  -19.0100   23.2134 C   0  0  0  0  0  0  0  0  0  0  0  0
  -28.3931  -19.3179   24.5000 C   0  0  0  0  0  0  0  0  0  0  0  0
  -22.3467   -8.1405   21.4172 C   0  0  0  0  0  0  0  0  0  0  0  0
  -29.8139  -22.5312   23.1561 C   0  0  0  0  0  0  0  0  0  0  0  0
  -20.8806   -6.9484   22.8142 C   0  0  0  0  0  0  0  0  0  0  0  0
  -19.3857   -6.8256   25.1664 C   0  0  0  0  0  0  0  0  0  0  0  0
  -21.1302   -5.9422   23.7474 C   0  0  0  0  0  0  0  0  0  0  0  0
  -24.5988  -11.6506   20.7062 C   0  0  0  0  0  0  0  0  0  0  0  0
  -25.2626  -13.7381   20.5140 C   0  0  0  0  0  0  0  0  0  0  0  0
  -22.9063  -13.4905   21.3107 C   0  0  0  0  0  0  0  0  0  0  0  0
  -29.2272  -22.4391   17.7606 C   0  0  0  0  0  0  0  0  0  0  0  0
  -32.3675  -21.6581   17.5359 C   0  0  0  0  0  0  0  0  0  0  0  0
  -35.3036  -20.9706   19.1340 C   0  0  0  0  0  0  0  0  0  0  0  0
  -30.7481  -14.7523   20.6769 C   0  0  0  0  0  0  0  0  0  0  0  0
  -26.7301  -23.0253   13.3471 C   0  0  0  0  0  0  0  0  0  0  0  0
  -30.2895  -24.2010   19.2177 C   0  0  0  0  0  0  0  0  0  0  0  0
  -31.3266  -21.4999   19.8286 C   0  0  0  0  0  0  0  0  0  0  0  0
  -27.8748  -22.1469   13.8455 C   0  0  0  0  0  0  0  0  0  0  0  0
  -29.5904  -12.4126   18.2556 C   0  0  0  0  0  0  0  0  0  0  0  0
  -26.0877  -20.4269   27.0839 C   0  0  0  0  0  0  0  0  0  0  0  0
  -27.5043  -21.4880   15.1704 C   0  0  0  0  0  0  0  0  0  0  0  0
  -28.1564  -12.1112   18.6946 C   0  0  0  0  0  0  0  0  0  0  0  0
  -26.8736  -21.7134   26.9029 C   0  0  0  0  0  0  0  0  0  0  0  0
  -26.2817  -19.7114   25.7526 C   0  0  0  0  0  0  0  0  0  0  0  0
  -30.5172  -12.6110   19.4529 C   0  0  0  0  0  0  0  0  0  0  0  0
  -28.6270  -13.3166   20.8681 C   0  0  0  0  0  0  0  0  0  0  0  0
  -27.2475  -22.5394   16.2567 C   0  0  1  0  0  0  0  0  0  0  0  0
  -30.4966  -23.1546   18.1270 C   0  0  1  0  0  0  0  0  0  0  0  0
  -27.6433  -13.1641   19.6954 C   0  0  2  0  0  0  0  0  0  0  0  0
  -28.0989  -21.2853   26.0766 C   0  0  2  0  0  0  0  0  0  0  0  0
  -28.2642  -17.8847   20.9967 C   0  0  0  0  0  0  0  0  0  0  0  0
  -26.6337  -19.5301   22.7286 C   0  0  0  0  0  0  0  0  0  0  0  0
  -37.6880  -20.3305   18.6846 C   0  0  0  0  0  0  0  0  0  0  0  0
  -31.4850  -18.7989   16.9390 C   0  0  0  0  0  0  0  0  0  0  0  0
  -33.8200  -18.0475   17.4403 C   0  0  0  0  0  0  0  0  0  0  0  0
  -33.3952  -19.6134   15.5455 C   0  0  0  0  0  0  0  0  0  0  0  0
  -36.3277  -23.4375   20.4085 C   0  0  0  0  0  0  0  0  0  0  0  0
  -30.8247  -16.8795   21.9528 C   0  0  0  0  0  0  0  0  0  0  0  0
  -28.5249  -22.4208   25.1516 C   0  0  0  0  0  0  0  0  0  1  0  0
  -33.2013  -20.4596   17.9200 C   0  0  1  0  0  0  0  0  0  0  0  0
  -36.7162  -21.4786   18.9083 C   0  0  2  0  0  0  0  0  0  0  0  0
  -32.9604  -19.2444   16.9805 C   0  0  0  0  0  0  0  0  0  0  0  0
  -25.8602  -11.5623   20.2761 N   0  0  0  0  0  0  0  0  0  0  0  0
  -26.2365  -12.8479   20.1685 N   0  0  0  0  0  0  0  0  0  0  0  0
  -27.6300  -20.1012   25.3429 N   0  0  3  0  0  0  0  0  0  0  0  0
  -31.4709  -22.1290   18.5054 N   0  0  0  0  0  0  0  0  0  0  0  0
  -29.9742  -13.6230   20.3622 N   0  0  0  0  0  0  0  0  0  0  0  0
  -25.4729  -15.0706   20.4639 N   0  0  0  0  0  0  0  0  0  0  0  0
  -21.8968  -12.5754   21.6393 N   0  0  0  0  0  0  0  0  0  0  0  0
  -28.4997  -23.0594   16.7629 N   0  0  0  0  0  0  0  0  0  0  0  0
  -34.5850  -20.9203   17.9582 N   0  0  0  0  0  0  0  0  0  0  0  0
  -30.1561  -15.6655   21.5408 N   0  0  0  0  0  0  0  0  0  0  0  0
  -37.1791  -22.2631   20.0878 N   0  3  0  0  0  0  0  0  0  0  0  0
  -22.6709  -14.7199   21.3928 O   0  0  0  0  0  0  0  0  0  0  0  0
  -28.9305  -21.4004   18.3391 O   0  0  0  0  0  0  0  0  0  0  0  0
  -32.5118  -22.1623   16.4194 O   0  0  0  0  0  0  0  0  0  0  0  0
  -34.8811  -20.6469   20.2418 O   0  0  0  0  0  0  0  0  0  0  0  0
  -31.8804  -14.9359   20.2174 O   0  0  0  0  0  0  0  0  0  0  0  0
  -21.6224   -7.0113   21.6465 O   0  0  0  0  0  0  0  0  0  0  0  0
  -29.6673  -22.0069   24.4033 O   0  0  0  0  0  0  0  0  0  1  0  0
  -18.6688   -6.7677   26.2964 F   0  0  0  0  0  0  0  0  0  0  0  0
  -22.0875   -5.0325   23.5202 F   0  0  0  0  0  0  0  0  0  0  0  0
  1  2  1  0  0  0  0
  1  5  2  0  0  0  0
  2  6  2  0  0  0  0
  3 10  2  0  0  0  0
  3 17  1  0  0  0  0
  4 11  1  0  0  0  0
  4 17  2  0  0  0  0
  5 19  1  0  0  0  0
  6 21  1  0  0  0  0
  7 12  2  0  0  0  0
  7 20  1  0  0  0  0
  8  9  2  0  0  0  0
  8 23  1  0  0  0  0
  9 26  1  0  0  0  0
 10 27  1  0  0  0  0
 11 27  2  0  0  0  0
 12 28  1  0  0  0  0
 13 14  2  0  0  0  0
 13 29  1  0  0  0  0
 14 30  1  0  0  0  0
 15 22  1  0  0  0  0
 15 28  2  0  0  0  0
 16 30  2  0  0  0  0
 16 31  1  0  0  0  0
 17 32  1  0  0  0  0
 18 32  1  0  0  0  0
 18 33  2  0  0  0  0
 18 34  1  0  0  0  0
 19 21  2  0  0  0  0
 19 39  1  0  0  0  0
 20 22  2  0  0  0  0
 20 40  1  0  0  0  0
 21 51  1  0  0  0  0
 22 41  1  0  0  0  0
 23 24  2  0  0  0  0
 23 62  1  0  0  0  0
 24 25  1  0  0  0  0
 24 55  1  0  0  0  0
 25 26  2  0  0  0  0
 25 56  1  0  0  0  0
 26 69  1  0  0  0  0
 27 83  1  0  0  0  0
 28 84  1  0  0  0  0
 29 31  2  0  0  0  0
 29 83  1  0  0  0  0
 30 85  1  0  0  0  0
 31 86  1  0  0  0  0
 32 67  2  0  0  0  0
 33 68  1  0  0  0  0
 33 72  1  0  0  0  0
 34 73  1  0  0  0  0
 34 78  2  0  0  0  0
 35 52  1  0  0  0  0
 35 74  1  0  0  0  0
 35 79  2  0  0  0  0
 36 64  1  0  0  0  0
 36 70  1  0  0  0  0
 36 80  2  0  0  0  0
 37 65  1  0  0  0  0
 37 75  1  0  0  0  0
 37 81  2  0  0  0  0
 38 71  1  0  0  0  0
 38 76  1  0  0  0  0
 38 82  2  0  0  0  0
 39 42  1  0  0  0  0
 40 52  1  0  0  0  0
 41 70  1  0  0  0  0
 42 45  1  0  0  0  0
 43 46  1  0  0  0  0
 43 49  1  0  0  0  0
 44 47  1  0  0  0  0
 44 48  1  0  0  0  0
 45 51  1  0  0  0  0
 46 53  1  0  0  0  0
 47 54  1  0  0  0  0
 48 69  1  0  0  0  0
 49 71  1  0  0  0  0
 50 53  1  0  0  0  0
 50 71  1  0  0  0  0
 51 74  1  0  0  0  0
 52 70  1  0  0  0  0
 53 68  1  0  0  0  0
 54 63  1  0  0  0  0
 54 69  1  0  0  0  0
 57 65  1  0  0  0  0
 58 66  1  0  0  0  0
 59 66  1  0  0  0  0
 60 66  1  0  0  0  0
 61 77  1  0  0  0  0
 62 76  1  0  0  0  0
 63 84  1  0  0  0  0
 64 66  1  0  0  0  0
 64 75  1  0  0  0  0
 65 77  1  0  0  0  0
 67 68  1  0  0  0  0
M  CHG  1  77   1
M  ISO  4  38 100  63 101  76 100  84 101
M  END
> <Batch ID>
0027

> <Smiles>
CNC(C)C(=O)NC(C(=O)N1Cc2cc([101O:1][101CH2:1]C3CCCN3c3ccc(C[100NH:0][100C:0](=O)N4CCCC(n5nc(-c6ccc(Oc7ccc(F)cc7F)cc6)c(C(N)=O)c5N)C4)c(C)c3C)ccc2CC1C(=O)NC1CCCc2ccccc21)C(C)(C)C

> <Shape>
0.214

> <Color>
0.198

> <Negative vol penalty>
0.000

$$$$

  -OEChem-04042321283D

 85 94  0     1  0  0  0  0  0999 V2000
  -27.5847  -34.6548   23.9407 C   0  0  0  0  0  0  0  0  0  0  0  0
  -27.8872  -33.3102   24.1301 C   0  0  0  0  0  0  0  0  0  0  0  0
  -23.5246   -9.7005   21.6312 C   0  0  0  0  0  0  0  0  0  0  0  0
  -24.1272  -10.8667   23.6594 C   0  0  0  0  0  0  0  0  0  0  0  0
  -26.2703  -35.0432   23.6851 C   0  0  0  0  0  0  0  0  0  0  0  0
  -26.8751  -32.3532   24.0651 C   0  0  0  0  0  0  0  0  0  0  0  0
  -28.2145  -28.2899   21.3557 C   0  0  0  0  0  0  0  0  0  0  0  0
  -31.8198  -19.3527   21.2002 C   0  0  0  0  0  0  0  0  0  0  0  0
  -31.4052  -18.0795   20.8095 C   0  0  0  0  0  0  0  0  0  0  0  0
  -22.9170   -8.6986   22.3878 C   0  0  0  0  0  0  0  0  0  0  0  0
  -23.5196   -9.8648   24.4161 C   0  0  0  0  0  0  0  0  0  0  0  0
  -29.0462  -27.3578   21.9747 C   0  0  0  0  0  0  0  0  0  0  0  0
  -20.0044   -8.2489   24.0454 C   0  0  0  0  0  0  0  0  0  0  0  0
  -18.7479   -7.8008   23.6379 C   0  0  0  0  0  0  0  0  0  0  0  0
  -27.1322  -25.9627   22.4321 C   0  0  0  0  0  0  0  0  0  0  0  0
  -29.5143  -20.0630   21.3317 C   0  0  0  0  0  0  0  0  0  0  0  0
  -19.6321   -5.5687   23.3665 C   0  0  0  0  0  0  0  0  0  0  0  0
  -24.1298  -10.7846   22.2670 C   0  0  0  0  0  0  0  0  0  0  0  0
  -24.1585  -12.9927   20.9899 C   0  0  0  0  0  0  0  0  0  0  0  0
  -25.2431  -34.0895   23.6074 C   0  0  0  0  0  0  0  0  0  0  0  0
  -26.8316  -28.0702   21.2798 C   0  0  0  0  0  0  0  0  0  0  0  0
  -25.5454  -32.7293   23.8096 C   0  0  0  0  0  0  0  0  0  0  0  0
  -26.2854  -26.8923   21.8093 C   0  0  0  0  0  0  0  0  0  0  0  0
  -30.8743  -20.3444   21.4614 C   0  0  0  0  0  0  0  0  0  0  0  0
  -30.0452  -17.7980   20.6799 C   0  0  0  0  0  0  0  0  0  0  0  0
  -22.9144   -8.7807   23.7802 C   0  0  0  0  0  0  0  0  0  0  0  0
  -28.5048  -26.1953   22.5156 C   0  0  0  0  0  0  0  0  0  0  0  0
  -21.0748   -7.3570   24.1134 C   0  0  0  0  0  0  0  0  0  0  0  0
  -18.5618   -6.4607   23.2985 C   0  0  0  0  0  0  0  0  0  0  0  0
  -29.0997  -18.7898   20.9410 C   0  0  0  0  0  0  0  0  0  0  0  0
  -20.8886   -6.0169   23.7740 C   0  0  0  0  0  0  0  0  0  0  0  0
  -24.7581  -11.8196   21.4860 C   0  0  0  0  0  0  0  0  0  0  0  0
  -25.1690  -13.6378   20.3197 C   0  0  0  0  0  0  0  0  0  0  0  0
  -32.6259  -22.0812   22.0334 C   0  0  0  0  0  0  0  0  0  0  0  0
  -22.8088  -13.4577   21.1230 C   0  0  0  0  0  0  0  0  0  0  0  0
  -24.2576  -29.5730   22.3841 C   0  0  0  0  0  0  0  0  0  0  0  0
  -22.6838  -27.3598   20.6101 C   0  0  0  0  0  0  0  0  0  0  0  0
  -22.7049  -24.2847   19.1301 C   0  0  0  0  0  0  0  0  0  0  0  0
  -30.4374  -15.4084   19.9854 C   0  0  0  0  0  0  0  0  0  0  0  0
  -23.8298  -34.5621   23.3757 C   0  0  0  0  0  0  0  0  0  0  0  0
  -25.9515  -29.0728   20.5851 C   0  0  0  0  0  0  0  0  0  0  0  0
  -24.8098  -26.5995   21.7359 C   0  0  0  0  0  0  0  0  0  0  0  0
  -32.5797  -23.5561   22.3614 C   0  0  0  0  0  0  0  0  0  0  0  0
  -22.8768  -33.4477   22.9512 C   0  0  0  0  0  0  0  0  0  0  0  0
  -29.7913  -12.0466   19.0067 C   0  0  0  0  0  0  0  0  0  0  0  0
  -23.0579  -32.2224   23.8414 C   0  0  0  0  0  0  0  0  0  0  0  0
  -28.3749  -11.7843   19.5236 C   0  0  0  0  0  0  0  0  0  0  0  0
  -30.5905  -12.9283   19.9646 C   0  0  0  0  0  0  0  0  0  0  0  0
  -30.3602  -22.7346   22.0670 C   0  0  0  0  0  0  0  0  0  0  0  0
  -28.5221  -13.9279   20.8543 C   0  0  0  0  0  0  0  0  0  0  0  0
  -24.4792  -31.6590   23.7221 C   0  0  1  0  0  0  0  0  0  0  0  0
  -24.4916  -28.9887   21.0197 C   0  0  1  0  0  0  0  0  0  0  0  0
  -31.1542  -23.7687   22.8505 C   0  0  2  0  0  0  0  0  0  0  0  0
  -27.6572  -13.0977   19.8917 C   0  0  2  0  0  0  0  0  0  0  0  0
  -21.2603  -22.7369   17.7830 C   0  0  0  0  0  0  0  0  0  0  0  0
  -21.1023  -26.6535   23.1221 C   0  0  0  0  0  0  0  0  0  0  0  0
  -20.3938  -24.5329   21.9955 C   0  0  0  0  0  0  0  0  0  0  0  0
  -19.7446  -26.7366   21.0235 C   0  0  0  0  0  0  0  0  0  0  0  0
  -24.6030  -24.3020   16.8594 C   0  0  0  0  0  0  0  0  0  0  0  0
  -30.6554  -25.1882   22.6430 C   0  0  0  0  0  0  0  0  0  1  0  0
  -22.1487  -25.9709   20.8626 C   0  0  1  0  0  0  0  0  0  0  0  0
  -22.3106  -23.8357   17.7346 C   0  0  2  0  0  0  0  0  0  0  0  0
  -20.8749  -25.9796   21.7542 C   0  0  0  0  0  0  0  0  0  0  0  0
  -26.0494  -11.7225   21.1587 N   0  0  0  0  0  0  0  0  0  0  0  0
  -26.2695  -12.8428   20.4498 N   0  0  0  0  0  0  0  0  0  0  0  0
  -31.2982  -21.6472   21.8605 N   0  0  0  0  0  0  0  0  0  0  0  0
  -23.9899  -27.6134   21.0524 N   0  0  0  0  0  0  0  0  0  0  0  0
  -29.8506  -14.1560   20.2647 N   0  0  0  0  0  0  0  0  0  0  0  0
  -25.2146  -14.8019   19.6376 N   0  0  0  0  0  0  0  0  0  0  0  0
  -21.8995  -12.6719   21.8441 N   0  0  0  0  0  0  0  0  0  0  0  0
  -29.6272  -16.5038   20.2823 N   0  0  0  0  0  0  0  0  0  0  0  0
  -24.6213  -30.9012   22.4973 N   0  0  0  0  0  0  0  0  0  0  0  0
  -21.9555  -25.3631   19.5505 N   0  0  0  0  0  0  0  0  0  0  0  0
  -23.5001  -23.3170   17.0019 N   0  3  0  0  0  0  0  0  0  0  0  0
  -33.6773  -21.4711   21.9025 O   0  0  0  0  0  0  0  0  0  0  0  0
  -22.4164  -14.5300   20.6036 O   0  0  0  0  0  0  0  0  0  0  0  0
  -23.7809  -28.8710   23.2683 O   0  0  0  0  0  0  0  0  0  0  0  0
  -21.9718  -28.1868   20.0350 O   0  0  0  0  0  0  0  0  0  0  0  0
  -23.5869  -23.7316   19.7834 O   0  0  0  0  0  0  0  0  0  0  0  0
  -31.5643  -15.5015   19.4919 O   0  0  0  0  0  0  0  0  0  0  0  0
  -22.3214   -7.8033   24.5188 O   0  0  0  0  0  0  0  0  0  0  0  0
  -29.3142  -25.2842   23.1209 O   0  0  0  0  0  0  0  0  0  1  0  0
  -17.3547   -6.0301   22.9087 F   0  0  0  0  0  0  0  0  0  0  0  0
  -27.7899  -18.5311   20.8181 F   0  0  0  0  0  0  0  0  0  0  0  0
  -21.9128   -5.1551   23.8385 F   0  0  0  0  0  0  0  0  0  0  0  0
  1  2  1  0  0  0  0
  1  5  2  0  0  0  0
  2  6  2  0  0  0  0
  3 10  2  0  0  0  0
  3 18  1  0  0  0  0
  4 11  1  0  0  0  0
  4 18  2  0  0  0  0
  5 20  1  0  0  0  0
  6 22  1  0  0  0  0
  7 12  2  0  0  0  0
  7 21  1  0  0  0  0
  8  9  2  0  0  0  0
  8 24  1  0  0  0  0
  9 25  1  0  0  0  0
 10 26  1  0  0  0  0
 11 26  2  0  0  0  0
 12 27  1  0  0  0  0
 13 14  2  0  0  0  0
 13 28  1  0  0  0  0
 14 29  1  0  0  0  0
 15 23  1  0  0  0  0
 15 27  2  0  0  0  0
 16 24  2  0  0  0  0
 16 30  1  0  0  0  0
 17 29  2  0  0  0  0
 17 31  1  0  0  0  0
 18 32  1  0  0  0  0
 19 32  1  0  0  0  0
 19 33  2  0  0  0  0
 19 35  1  0  0  0  0
 20 22  2  0  0  0  0
 20 40  1  0  0  0  0
 21 23  2  0  0  0  0
 21 41  1  0  0  0  0
 22 51  1  0  0  0  0
 23 42  1  0  0  0  0
 24 66  1  0  0  0  0
 25 30  2  0  0  0  0
 25 71  1  0  0  0  0
 26 81  1  0  0  0  0
 27 82  1  0  0  0  0
 28 31  2  0  0  0  0
 28 81  1  0  0  0  0
 29 83  1  0  0  0  0
 30 84  1  0  0  0  0
 31 85  1  0  0  0  0
 32 64  2  0  0  0  0
 33 65  1  0  0  0  0
 33 69  1  0  0  0  0
 34 43  1  0  0  0  0
 34 66  1  0  0  0  0
 34 75  2  0  0  0  0
 35 70  1  0  0  0  0
 35 76  2  0  0  0  0
 36 52  1  0  0  0  0
 36 72  1  0  0  0  0
 36 77  2  0  0  0  0
 37 61  1  0  0  0  0
 37 67  1  0  0  0  0
 37 78  2  0  0  0  0
 38 62  1  0  0  0  0
 38 73  1  0  0  0  0
 38 79  2  0  0  0  0
 39 68  1  0  0  0  0
 39 71  1  0  0  0  0
 39 80  2  0  0  0  0
 40 44  1  0  0  0  0
 41 52  1  0  0  0  0
 42 67  1  0  0  0  0
 43 53  1  0  0  0  0
 44 46  1  0  0  0  0
 45 47  1  0  0  0  0
 45 48  1  0  0  0  0
 46 51  1  0  0  0  0
 47 54  1  0  0  0  0
 48 68  1  0  0  0  0
 49 53  1  0  0  0  0
 49 66  1  0  0  0  0
 50 54  1  0  0  0  0
 50 68  1  0  0  0  0
 51 72  1  0  0  0  0
 52 67  1  0  0  0  0
 53 60  1  0  0  0  0
 54 65  1  0  0  0  0
 55 62  1  0  0  0  0
 56 63  1  0  0  0  0
 57 63  1  0  0  0  0
 58 63  1  0  0  0  0
 59 74  1  0  0  0  0
 60 82  1  0  0  0  0
 61 63  1  0  0  0  0
 61 73  1  0  0  0  0
 62 74  1  0  0  0  0
 64 65  1  0  0  0  0
M  CHG  1  74   1
M  ISO  4  39 100  60 101  71 100  82 101
M  END
> <Batch ID>
0027

> <Smiles>
CNC(C)C(=O)NC(C(=O)N1Cc2cc([101O:1][101CH2:1]C3CC(=O)N(c4ccc([100NH:0][100C:0](=O)N5CCCC(n6nc(-c7ccc(Oc8ccc(F)cc8F)cc7)c(C(N)=O)c6N)C5)c(F)c4)C3)ccc2CC1C(=O)NC1CCCc2ccccc21)C(C)(C)C

> <Shape>
0.279

> <Color>
0.138

> <Negative vol penalty>
0.000

$$$$

  -OEChem-04042321283D

 85 94  0     1  0  0  0  0  0999 V2000
  -18.4662  -24.5053   23.8618 C   0  0  0  0  0  0  0  0  0  0  0  0
  -19.8449  -24.4570   23.6819 C   0  0  0  0  0  0  0  0  0  0  0  0
  -24.6208   -9.6400   21.8495 C   0  0  0  0  0  0  0  0  0  0  0  0
  -24.6326  -11.0127   23.8376 C   0  0  0  0  0  0  0  0  0  0  0  0
  -17.7630  -25.6662   23.5429 C   0  0  0  0  0  0  0  0  0  0  0  0
  -20.5210  -25.5693   23.1819 C   0  0  0  0  0  0  0  0  0  0  0  0
  -24.7746  -26.5697   25.7415 C   0  0  0  0  0  0  0  0  0  0  0  0
  -29.5633  -21.3654   21.4503 C   0  0  0  0  0  0  0  0  0  0  0  0
  -29.5843  -20.0128   21.1103 C   0  0  0  0  0  0  0  0  0  0  0  0
  -24.2806   -8.5278   22.6194 C   0  0  0  0  0  0  0  0  0  0  0  0
  -24.2923   -9.9005   24.6076 C   0  0  0  0  0  0  0  0  0  0  0  0
  -25.8870  -25.7771   25.4624 C   0  0  0  0  0  0  0  0  0  0  0  0
  -23.0554   -5.4014   24.0122 C   0  0  0  0  0  0  0  0  0  0  0  0
  -22.0472   -4.5650   23.5332 C   0  0  0  0  0  0  0  0  0  0  0  0
  -26.7671  -27.5211   24.0471 C   0  0  0  0  0  0  0  0  0  0  0  0
  -27.1491  -21.3516   21.3557 C   0  0  0  0  0  0  0  0  0  0  0  0
  -20.4917   -6.4131   23.5801 C   0  0  0  0  0  0  0  0  0  0  0  0
  -24.7969  -10.8825   22.4586 C   0  0  0  0  0  0  0  0  0  0  0  0
  -24.2686  -12.9382   21.0434 C   0  0  0  0  0  0  0  0  0  0  0  0
  -18.4321  -26.7965   23.0478 C   0  0  0  0  0  0  0  0  0  0  0  0
  -24.6445  -27.8418   25.1659 C   0  0  0  0  0  0  0  0  0  0  0  0
  -19.8259  -26.7459   22.8548 C   0  0  0  0  0  0  0  0  0  0  0  0
  -25.6533  -28.3290   24.3225 C   0  0  0  0  0  0  0  0  0  0  0  0
  -27.1702  -19.9990   21.0155 C   0  0  0  0  0  0  0  0  0  0  0  0
  -28.3456  -22.0348   21.5731 C   0  0  0  0  0  0  0  0  0  0  0  0
  -28.3878  -19.3296   20.8928 C   0  0  0  0  0  0  0  0  0  0  0  0
  -24.1163   -8.6581   23.9985 C   0  0  0  0  0  0  0  0  0  0  0  0
  -26.8821  -26.2515   24.6128 C   0  0  0  0  0  0  0  0  0  0  0  0
  -22.7817   -6.7437   24.2753 C   0  0  0  0  0  0  0  0  0  0  0  0
  -20.7653   -5.0708   23.3171 C   0  0  0  0  0  0  0  0  0  0  0  0
  -21.4999   -7.2495   24.0592 C   0  0  0  0  0  0  0  0  0  0  0  0
  -25.1490  -12.0316   21.6639 C   0  0  0  0  0  0  0  0  0  0  0  0
  -25.0916  -13.8412   20.4160 C   0  0  0  0  0  0  0  0  0  0  0  0
  -22.8351  -12.9618   21.0350 C   0  0  0  0  0  0  0  0  0  0  0  0
  -22.5571  -29.2108   23.1981 C   0  0  0  0  0  0  0  0  0  0  0  0
  -24.3019  -31.8724   23.8261 C   0  0  0  0  0  0  0  0  0  0  0  0
  -27.2782  -33.2195   24.8126 C   0  0  0  0  0  0  0  0  0  0  0  0
  -29.5637  -17.1583   20.3937 C   0  0  0  0  0  0  0  0  0  0  0  0
  -17.6229  -28.0127   22.6725 C   0  0  0  0  0  0  0  0  0  0  0  0
  -23.4514  -28.6953   25.4982 C   0  0  0  0  0  0  0  0  0  0  0  0
  -25.5711  -29.6958   23.6953 C   0  0  0  0  0  0  0  0  0  0  0  0
  -18.4642  -29.2749   22.5009 C   0  0  0  0  0  0  0  0  0  0  0  0
  -30.0847  -13.7285   19.5925 C   0  0  0  0  0  0  0  0  0  0  0  0
  -19.7011  -28.9814   21.6577 C   0  0  0  0  0  0  0  0  0  0  0  0
  -28.7747  -13.0558   20.0089 C   0  0  0  0  0  0  0  0  0  0  0  0
  -30.4752  -14.8519   20.5512 C   0  0  0  0  0  0  0  0  0  0  0  0
  -28.1225  -15.1868   21.2009 C   0  0  0  0  0  0  0  0  0  0  0  0
  -29.2744  -24.0779   22.7105 C   0  0  0  0  0  0  0  0  0  0  0  0
  -27.2019  -24.1363   22.3513 C   0  0  0  0  0  0  0  0  0  0  0  0
  -20.5982  -27.9404   22.3381 C   0  0  1  0  0  0  0  0  0  0  0  0
  -23.1736  -29.7682   24.4499 C   0  0  1  0  0  0  0  0  0  0  0  0
  -27.6545  -14.0914   20.2289 C   0  0  2  0  0  0  0  0  0  0  0  0
  -28.1909  -25.1337   22.9716 C   0  0  0  0  0  0  0  0  0  1  0  0
  -28.4126  -35.4255   25.1923 C   0  0  0  0  0  0  0  0  0  0  0  0
  -24.6080  -32.2310   20.8115 C   0  0  0  0  0  0  0  0  0  0  0  0
  -26.4810  -33.8301   21.2622 C   0  0  0  0  0  0  0  0  0  0  0  0
  -24.1798  -34.3460   22.0755 C   0  0  0  0  0  0  0  0  0  0  0  0
  -27.7192  -32.6309   27.6793 C   0  0  0  0  0  0  0  0  0  0  0  0
  -25.5162  -32.5245   23.2105 C   0  0  1  0  0  0  0  0  0  0  0  0
  -27.6079  -34.3011   25.8255 C   0  0  2  0  0  0  0  0  0  0  0  0
  -25.8732  -19.2919   20.7899 C   0  0  0  0  0  0  0  0  0  0  0  0
  -25.1972  -33.2063   21.8501 C   0  0  0  0  0  0  0  0  0  0  0  0
  -26.4329  -12.3314   21.4500 N   0  0  0  0  0  0  0  0  0  0  0  0
  -26.3653  -13.4363   20.6880 N   0  0  0  0  0  0  0  0  0  0  0  0
  -28.3248  -23.3830   21.9127 N   0  0  0  0  0  0  0  0  0  0  0  0
  -24.3820  -30.4899   24.0459 N   0  0  0  0  0  0  0  0  0  0  0  0
  -29.3672  -15.7968   20.7074 N   0  0  0  0  0  0  0  0  0  0  0  0
  -24.8428  -14.9342   19.6637 N   0  0  0  0  0  0  0  0  0  0  0  0
  -22.1462  -11.9589   21.7306 N   0  0  0  0  0  0  0  0  0  0  0  0
  -28.4302  -17.9554   20.5499 N   0  0  0  0  0  0  0  0  0  0  0  0
  -21.3609  -28.5509   23.4058 N   0  0  0  0  0  0  0  0  0  0  0  0
  -26.0502  -33.4301   24.2220 N   0  0  0  0  0  0  0  0  0  0  0  0
  -28.4011  -33.7319   26.9514 N   0  3  0  0  0  0  0  0  0  0  0  0
  -22.1842  -13.8367   20.4149 O   0  0  0  0  0  0  0  0  0  0  0  0
  -23.1239  -29.3691   22.1232 O   0  0  0  0  0  0  0  0  0  0  0  0
  -23.3211  -32.5652   24.1083 O   0  0  0  0  0  0  0  0  0  0  0  0
  -28.0361  -32.2836   24.5670 O   0  0  0  0  0  0  0  0  0  0  0  0
  -30.6497  -17.5807   19.9884 O   0  0  0  0  0  0  0  0  0  0  0  0
  -23.7840   -7.5730   24.7500 O   0  0  0  0  0  0  0  0  0  0  0  0
  -27.9686  -25.4796   24.3381 O   0  0  0  0  0  0  0  0  0  1  0  0
  -19.7976   -4.2678   22.8557 F   0  0  0  0  0  0  0  0  0  0  0  0
  -21.2313   -8.5384   24.3089 F   0  0  0  0  0  0  0  0  0  0  0  0
  -24.7806  -20.0935   20.9519 F   0  0  0  0  0  0  0  0  0  0  0  0
  -25.7506  -18.7677   19.5358 F   0  0  0  0  0  0  0  0  0  0  0  0
  -25.6930  -18.2457   21.6460 F   0  0  0  0  0  0  0  0  0  0  0  0
  1  2  1  0  0  0  0
  1  5  2  0  0  0  0
  2  6  2  0  0  0  0
  3 10  2  0  0  0  0
  3 18  1  0  0  0  0
  4 11  1  0  0  0  0
  4 18  2  0  0  0  0
  5 20  1  0  0  0  0
  6 22  1  0  0  0  0
  7 12  2  0  0  0  0
  7 21  1  0  0  0  0
  8  9  2  0  0  0  0
  8 25  1  0  0  0  0
  9 26  1  0  0  0  0
 10 27  1  0  0  0  0
 11 27  2  0  0  0  0
 12 28  1  0  0  0  0
 13 14  2  0  0  0  0
 13 29  1  0  0  0  0
 14 30  1  0  0  0  0
 15 23  1  0  0  0  0
 15 28  2  0  0  0  0
 16 24  1  0  0  0  0
 16 25  2  0  0  0  0
 17 30  2  0  0  0  0
 17 31  1  0  0  0  0
 18 32  1  0  0  0  0
 19 32  1  0  0  0  0
 19 33  2  0  0  0  0
 19 34  1  0  0  0  0
 20 22  2  0  0  0  0
 20 39  1  0  0  0  0
 21 23  2  0  0  0  0
 21 40  1  0  0  0  0
 22 50  1  0  0  0  0
 23 41  1  0  0  0  0
 24 26  2  0  0  0  0
 24 61  1  0  0  0  0
 25 65  1  0  0  0  0
 26 70  1  0  0  0  0
 27 79  1  0  0  0  0
 28 80  1  0  0  0  0
 29 31  2  0  0  0  0
 29 79  1  0  0  0  0
 30 81  1  0  0  0  0
 31 82  1  0  0  0  0
 32 63  2  0  0  0  0
 33 64  1  0  0  0  0
 33 68  1  0  0  0  0
 34 69  1  0  0  0  0
 34 74  2  0  0  0  0
 35 51  1  0  0  0  0
 35 71  1  0  0  0  0
 35 75  2  0  0  0  0
 36 59  1  0  0  0  0
 36 66  1  0  0  0  0
 36 76  2  0  0  0  0
 37 60  1  0  0  0  0
 37 72  1  0  0  0  0
 37 77  2  0  0  0  0
 38 67  1  0  0  0  0
 38 70  1  0  0  0  0
 38 78  2  0  0  0  0
 39 42  1  0  0  0  0
 40 51  1  0  0  0  0
 41 66  1  0  0  0  0
 42 44  1  0  0  0  0
 43 45  1  0  0  0  0
 43 46  1  0  0  0  0
 44 50  1  0  0  0  0
 45 52  1  0  0  0  0
 46 67  1  0  0  0  0
 47 52  1  0  0  0  0
 47 67  1  0  0  0  0
 48 53  1  0  0  0  0
 48 65  1  0  0  0  0
 49 53  1  0  0  0  0
 49 65  1  0  0  0  0
 50 71  1  0  0  0  0
 51 66  1  0  0  0  0
 52 64  1  0  0  0  0
 53 80  1  0  0  0  0
 54 60  1  0  0  0  0
 55 62  1  0  0  0  0
 56 62  1  0  0  0  0
 57 62  1  0  0  0  0
 58 73  1  0  0  0  0
 59 62  1  0  0  0  0
 59 72  1  0  0  0  0
 60 73  1  0  0  0  0
 61 83  1  0  0  0  0
 61 84  1  0  0  0  0
 61 85  1  0  0  0  0
 63 64  1  0  0  0  0
M  CHG  1  73   1
M  ISO  4  38 100  53 101  70 100  80 101
M  END
> <Batch ID>
0027

> <Smiles>
CNC(C)C(=O)NC(C(=O)N1Cc2cc([101O:1][101CH:1]3CN(c4ccc([100NH:0][100C:0](=O)N5CCCC(n6nc(-c7ccc(Oc8ccc(F)cc8F)cc7)c(C(N)=O)c6N)C5)c(C(F)(F)F)c4)C3)ccc2CC1C(=O)NC1CCCc2ccccc21)C(C)(C)C

> <Shape>
0.291

> <Color>
0.142

> <Negative vol penalty>
0.000

$$$$

  -OEChem-04042321283D

 92102  0     1  0  0  0  0  0999 V2000
  -23.4924  -16.3858   25.2663 C   0  0  0  0  0  0  0  0  0  0  0  0
  -24.1889  -17.4956   24.7989 C   0  0  0  0  0  0  0  0  0  0  0  0
  -25.5100  -15.4001   21.6282 C   0  0  0  0  0  0  0  0  0  0  0  0
  -24.8437  -16.4712   19.5676 C   0  0  0  0  0  0  0  0  0  0  0  0
  -22.1704  -16.1782   24.8748 C   0  0  0  0  0  0  0  0  0  0  0  0
  -23.5642  -18.3980   23.9387 C   0  0  0  0  0  0  0  0  0  0  0  0
  -24.4077  -24.4598   23.7174 C   0  0  0  0  0  0  0  0  0  0  0  0
  -24.2776  -14.7497   21.6887 C   0  0  0  0  0  0  0  0  0  0  0  0
  -23.6112  -15.8208   19.6281 C   0  0  0  0  0  0  0  0  0  0  0  0
  -25.1840  -25.2692   22.8891 C   0  0  0  0  0  0  0  0  0  0  0  0
  -22.8017  -12.0704   20.2479 C   0  0  0  0  0  0  0  0  0  0  0  0
  -22.8004  -10.7119   20.5643 C   0  0  0  0  0  0  0  0  0  0  0  0
  -23.2614  -25.6685   21.4878 C   0  0  0  0  0  0  0  0  0  0  0  0
  -29.3833  -27.5791   20.0641 C   0  0  0  0  0  0  0  0  0  0  0  0
  -30.8511  -28.4191   22.2829 C   0  0  0  0  0  0  0  0  0  0  0  0
  -21.4439  -11.1667   22.5112 C   0  0  0  0  0  0  0  0  0  0  0  0
  -25.7930  -16.2609   20.5677 C   0  0  0  0  0  0  0  0  0  0  0  0
  -28.2418  -16.4714   19.8842 C   0  0  0  0  0  0  0  0  0  0  0  0
  -21.5261  -17.0837   24.0171 C   0  0  0  0  0  0  0  0  0  0  0  0
  -23.0529  -24.2395   23.4306 C   0  0  0  0  0  0  0  0  0  0  0  0
  -22.2328  -18.2016   23.5343 C   0  0  0  0  0  0  0  0  0  0  0  0
  -22.4696  -24.8580   22.3155 C   0  0  0  0  0  0  0  0  0  0  0  0
  -29.1668  -28.8467   20.6044 C   0  0  0  0  0  0  0  0  0  0  0  0
  -30.3337  -26.7315   20.6333 C   0  0  0  0  0  0  0  0  0  0  0  0
  -29.9007  -29.2667   21.7137 C   0  0  0  0  0  0  0  0  0  0  0  0
  -23.3282  -14.9600   20.6886 C   0  0  0  0  0  0  0  0  0  0  0  0
  -24.6116  -25.8714   21.7725 C   0  0  0  0  0  0  0  0  0  0  0  0
  -22.1241  -12.9771   21.0631 C   0  0  0  0  0  0  0  0  0  0  0  0
  -22.1216  -10.2601   21.6960 C   0  0  0  0  0  0  0  0  0  0  0  0
  -31.0676  -27.1515   21.7426 C   0  0  0  0  0  0  0  0  0  0  0  0
  -21.4452  -12.5252   22.1948 C   0  0  0  0  0  0  0  0  0  0  0  0
  -27.0658  -16.9335   20.5049 C   0  0  0  0  0  0  0  0  0  0  0  0
  -29.1606  -17.4683   20.1043 C   0  0  0  0  0  0  0  0  0  0  0  0
  -30.3182  -31.7472   21.9716 C   0  0  0  0  0  0  0  0  0  0  0  0
  -26.0727  -28.8159   18.8582 C   0  0  0  0  0  0  0  0  0  0  0  0
  -31.3547  -32.0379   21.1727 C   0  0  0  0  0  0  0  0  0  0  0  0
  -28.4821  -15.2503   19.1723 C   0  0  0  0  0  0  0  0  0  0  0  0
  -21.2935  -21.6849   22.7361 C   0  0  0  0  0  0  0  0  0  0  0  0
  -18.8442  -23.8032   22.9261 C   0  0  0  0  0  0  0  0  0  0  0  0
  -17.7969  -27.0458   22.7374 C   0  0  0  0  0  0  0  0  0  0  0  0
  -29.4447  -23.1428   20.3120 C   0  0  0  0  0  0  0  0  0  0  0  0
  -20.1112  -16.7920   23.5839 C   0  0  0  0  0  0  0  0  0  0  0  0
  -22.2227  -23.3853   24.3490 C   0  0  0  0  0  0  0  0  0  0  0  0
  -21.0145  -24.6698   21.9751 C   0  0  0  0  0  0  0  0  0  0  0  0
  -29.6674  -32.8368   22.7972 C   0  0  0  0  0  0  0  0  0  0  0  0
  -24.7241  -28.3317   19.3391 C   0  0  0  0  0  0  0  0  0  0  0  0
  -19.4023  -17.9956   22.9682 C   0  0  0  0  0  0  0  0  0  0  0  0
  -28.3706  -32.1845   23.2706 C   0  0  0  0  0  0  0  0  0  0  0  0
  -29.5688  -21.1781   23.3476 C   0  0  0  0  0  0  0  0  0  0  0  0
  -20.3070  -18.6858   21.9524 C   0  0  0  0  0  0  0  0  0  0  0  0
  -29.0470  -19.8273   22.8549 C   0  0  0  0  0  0  0  0  0  0  0  0
  -28.6927  -30.6917   23.3297 C   0  0  0  0  0  0  0  0  0  0  0  0
  -28.8347  -22.3345   22.6745 C   0  0  0  0  0  0  0  0  0  0  0  0
  -28.3494  -20.9550   20.6921 C   0  0  0  0  0  0  0  0  0  0  0  0
  -26.1018  -28.9276   21.2226 C   0  0  0  0  0  0  0  0  0  0  0  0
  -21.5817  -19.2163   22.6196 C   0  0  1  0  0  0  0  0  0  0  0  0
  -20.9788  -22.8161   23.6736 C   0  0  1  0  0  0  0  0  0  0  0  0
  -29.0687  -19.7459   21.3172 C   0  0  2  0  0  0  0  0  0  0  0  0
  -24.9583  -28.0174   20.8143 C   0  0  2  0  0  0  0  0  0  1  0  0
  -15.7313  -28.4614   22.9004 C   0  0  0  0  0  0  0  0  0  0  0  0
  -17.9952  -22.8801   20.1445 C   0  0  0  0  0  0  0  0  0  0  0  0
  -16.5673  -24.9298   19.9763 C   0  0  0  0  0  0  0  0  0  0  0  0
  -16.1083  -23.2341   21.7473 C   0  0  0  0  0  0  0  0  0  0  0  0
  -18.8762  -28.5607   25.0395 C   0  0  0  0  0  0  0  0  0  0  0  0
  -28.1378  -29.7385   19.9718 C   0  0  0  0  0  0  0  0  0  0  0  0
  -30.5629  -25.3765   20.0536 C   0  0  0  0  0  0  0  0  0  0  0  0
  -18.1446  -24.7188   21.9508 C   0  0  1  0  0  0  0  0  0  0  0  0
  -16.9147  -27.8743   23.6538 C   0  0  2  0  0  0  0  0  0  0  0  0
  -17.2318  -23.9429   20.9598 C   0  0  0  0  0  0  0  0  0  0  0  0
  -27.2206  -18.1307   21.0766 N   0  0  0  0  0  0  0  0  0  0  0  0
  -28.5048  -18.4293   20.8160 N   0  0  0  0  0  0  0  0  0  0  0  0
  -29.6959  -30.5416   22.2717 N   0  0  0  0  0  0  0  0  0  0  0  0
  -26.8203  -29.1400   19.9858 N   0  0  0  0  0  0  0  0  0  0  0  0
  -20.2459  -23.8205   22.9001 N   0  0  0  0  0  0  0  0  0  0  0  0
  -28.9096  -22.2074   21.2118 N   0  0  0  0  0  0  0  0  0  0  0  0
  -30.4575  -17.6078   19.7565 N   0  0  0  0  0  0  0  0  0  0  0  0
  -27.4281  -14.3362   19.0388 N   0  0  0  0  0  0  0  0  0  0  0  0
  -21.3037  -20.4413   23.3383 N   0  0  0  0  0  0  0  0  0  0  0  0
  -17.4432  -25.7132   22.7557 N   0  0  0  0  0  0  0  0  0  0  0  0
  -29.9611  -24.3053   20.8743 N   0  0  0  0  0  0  0  0  0  0  0  0
  -17.6952  -28.9952   24.2499 N   0  3  0  0  0  0  0  0  0  0  0  0
  -26.3895  -28.9299   17.6833 O   0  0  0  0  0  0  0  0  0  0  0  0
  -29.6030  -14.9706   18.6835 O   0  0  0  0  0  0  0  0  0  0  0  0
  -21.5096  -21.9227   21.5535 O   0  0  0  0  0  0  0  0  0  0  0  0
  -18.1718  -23.1039   23.6879 O   0  0  0  0  0  0  0  0  0  0  0  0
  -18.7063  -27.5327   22.0693 O   0  0  0  0  0  0  0  0  0  0  0  0
  -29.4698  -22.9589   19.0900 O   0  0  0  0  0  0  0  0  0  0  0  0
  -22.1256  -14.3253   20.7472 O   0  0  0  0  0  0  0  0  0  0  0  0
  -25.3671  -26.6613   20.9619 O   0  0  0  0  0  0  0  0  0  1  0  0
  -22.1192   -8.9553   21.9989 F   0  0  0  0  0  0  0  0  0  0  0  0
  -31.9829  -26.3439   22.2964 F   0  0  0  0  0  0  0  0  0  0  0  0
  -20.7915  -13.3913   22.9811 F   0  0  0  0  0  0  0  0  0  0  0  0
  1  2  1  0  0  0  0
  1  5  2  0  0  0  0
  2  6  2  0  0  0  0
  3  8  2  0  0  0  0
  3 17  1  0  0  0  0
  4  9  1  0  0  0  0
  4 17  2  0  0  0  0
  5 19  1  0  0  0  0
  6 21  1  0  0  0  0
  7 10  2  0  0  0  0
  7 20  1  0  0  0  0
  8 26  1  0  0  0  0
  9 26  2  0  0  0  0
 10 27  1  0  0  0  0
 11 12  2  0  0  0  0
 11 28  1  0  0  0  0
 12 29  1  0  0  0  0
 13 22  1  0  0  0  0
 13 27  2  0  0  0  0
 14 23  1  0  0  0  0
 14 24  2  0  0  0  0
 15 25  1  0  0  0  0
 15 30  2  0  0  0  0
 16 29  2  0  0  0  0
 16 31  1  0  0  0  0
 17 32  1  0  0  0  0
 18 32  1  0  0  0  0
 18 33  2  0  0  0  0
 18 37  1  0  0  0  0
 19 21  2  0  0  0  0
 19 42  1  0  0  0  0
 20 22  2  0  0  0  0
 20 43  1  0  0  0  0
 21 56  1  0  0  0  0
 22 44  1  0  0  0  0
 23 25  2  0  0  0  0
 23 65  1  0  0  0  0
 24 30  1  0  0  0  0
 24 66  1  0  0  0  0
 25 72  1  0  0  0  0
 26 88  1  0  0  0  0
 27 89  1  0  0  0  0
 28 31  2  0  0  0  0
 28 88  1  0  0  0  0
 29 90  1  0  0  0  0
 30 91  1  0  0  0  0
 31 92  1  0  0  0  0
 32 70  2  0  0  0  0
 33 71  1  0  0  0  0
 33 76  1  0  0  0  0
 34 36  2  0  0  0  0
 34 45  1  0  0  0  0
 34 72  1  0  0  0  0
 35 46  1  0  0  0  0
 35 73  1  0  0  0  0
 35 82  2  0  0  0  0
 37 77  1  0  0  0  0
 37 83  2  0  0  0  0
 38 57  1  0  0  0  0
 38 78  1  0  0  0  0
 38 84  2  0  0  0  0
 39 67  1  0  0  0  0
 39 74  1  0  0  0  0
 39 85  2  0  0  0  0
 40 68  1  0  0  0  0
 40 79  1  0  0  0  0
 40 86  2  0  0  0  0
 41 75  1  0  0  0  0
 41 80  1  0  0  0  0
 41 87  2  0  0  0  0
 42 47  1  0  0  0  0
 43 57  1  0  0  0  0
 44 74  1  0  0  0  0
 45 48  1  0  0  0  0
 46 59  1  0  0  0  0
 47 50  1  0  0  0  0
 48 52  1  0  0  0  0
 49 51  1  0  0  0  0
 49 53  1  0  0  0  0
 50 56  1  0  0  0  0
 51 58  1  0  0  0  0
 52 72  1  0  0  0  0
 53 75  1  0  0  0  0
 54 58  1  0  0  0  0
 54 75  1  0  0  0  0
 55 59  1  0  0  0  0
 55 73  1  0  0  0  0
 56 78  1  0  0  0  0
 57 74  1  0  0  0  0
 58 71  1  0  0  0  0
 59 89  1  0  0  0  0
 60 68  1  0  0  0  0
 61 69  1  0  0  0  0
 62 69  1  0  0  0  0
 63 69  1  0  0  0  0
 64 81  1  0  0  0  0
 65 73  1  0  0  0  0
 66 80  1  0  0  0  0
 67 69  1  0  0  0  0
 67 79  1  0  0  0  0
 68 81  1  0  0  0  0
 70 71  1  0  0  0  0
M  CHG  1  81   1
M  ISO  4  41 100  59 101  80 100  89 101
M  END
> <Batch ID>
0027

> <Smiles>
C=C1CCCN1c1cc(F)c(C[100NH:0][100C:0](=O)N2CCCC(n3nc(-c4ccc(Oc5ccc(F)cc5F)cc4)c(C(N)=O)c3N)C2)cc1CN1C[101CH:1]([101O:1]c2ccc3c(c2)CN(C(=O)C(NC(=O)C(C)NC)C(C)(C)C)C(C(=O)NC2CCCc4ccccc42)C3)CC1=O

> <Shape>
0.206

> <Color>
0.062

> <Negative vol penalty>
0.000

$$$$

  -OEChem-04042321283D

 85 93  0     1  0  0  0  0  0999 V2000
  -28.4819  -23.9906   22.7561 C   0  0  0  0  0  0  0  0  0  0  0  0
  -28.3082  -22.6193   22.5991 C   0  0  0  0  0  0  0  0  0  0  0  0
  -26.6413  -28.9193   19.2059 C   0  0  0  0  0  0  0  0  0  0  0  0
  -25.8584  -27.3120   20.8310 C   0  0  0  0  0  0  0  0  0  0  0  0
  -27.5776  -24.7233   23.5236 C   0  0  0  0  0  0  0  0  0  0  0  0
  -27.2305  -21.9796   23.2106 C   0  0  0  0  0  0  0  0  0  0  0  0
  -24.8921  -18.7248   20.1149 C   0  0  0  0  0  0  0  0  0  0  0  0
  -29.4294  -18.9526   20.3048 C   0  0  0  0  0  0  0  0  0  0  0  0
  -25.5986  -29.7783   19.5531 C   0  0  0  0  0  0  0  0  0  0  0  0
  -24.8157  -28.1710   21.1782 C   0  0  0  0  0  0  0  0  0  0  0  0
  -25.5025  -17.4877   19.9130 C   0  0  0  0  0  0  0  0  0  0  0  0
  -21.7986  -29.0565   19.9358 C   0  0  0  0  0  0  0  0  0  0  0  0
  -20.5244  -28.5063   20.0743 C   0  0  0  0  0  0  0  0  0  0  0  0
  -29.7995  -17.7337   20.8728 C   0  0  0  0  0  0  0  0  0  0  0  0
  -23.9895  -16.4883   21.5040 C   0  0  0  0  0  0  0  0  0  0  0  0
  -29.5241  -17.9566   18.1057 C   0  0  0  0  0  0  0  0  0  0  0  0
  -20.4603  -29.2344   22.3771 C   0  0  0  0  0  0  0  0  0  0  0  0
  -26.7711  -27.6861   19.8448 C   0  0  0  0  0  0  0  0  0  0  0  0
  -29.1338  -26.7477   20.0562 C   0  0  0  0  0  0  0  0  0  0  0  0
  -26.4828  -24.0940   24.1369 C   0  0  0  0  0  0  0  0  0  0  0  0
  -23.8312  -18.8554   21.0225 C   0  0  0  0  0  0  0  0  0  0  0  0
  -26.3114  -22.7044   23.9882 C   0  0  0  0  0  0  0  0  0  0  0  0
  -23.3657  -17.7277   21.7137 C   0  0  0  0  0  0  0  0  0  0  0  0
  -29.8942  -16.7376   18.6737 C   0  0  0  0  0  0  0  0  0  0  0  0
  -29.2916  -19.0641   18.9212 C   0  0  0  0  0  0  0  0  0  0  0  0
  -24.6858  -29.4042   20.5393 C   0  0  0  0  0  0  0  0  0  0  0  0
  -25.0531  -16.3698   20.6097 C   0  0  0  0  0  0  0  0  0  0  0  0
  -22.4037  -29.6957   21.0179 C   0  0  0  0  0  0  0  0  0  0  0  0
  -19.8552  -28.5952   21.2949 C   0  0  0  0  0  0  0  0  0  0  0  0
  -21.7345  -29.7847   22.2385 C   0  0  0  0  0  0  0  0  0  0  0  0
  -30.0320  -16.6262   20.0573 C   0  0  0  0  0  0  0  0  0  0  0  0
  -27.8476  -26.7981   19.4861 C   0  0  0  0  0  0  0  0  0  0  0  0
  -29.7735  -25.7431   19.3720 C   0  0  0  0  0  0  0  0  0  0  0  0
  -28.1573  -14.1551   21.5154 C   0  0  0  0  0  0  0  0  0  0  0  0
  -29.1009  -14.1269   20.5675 C   0  0  0  0  0  0  0  0  0  0  0  0
  -29.6997  -27.5382   21.1100 C   0  0  0  0  0  0  0  0  0  0  0  0
  -23.3622  -20.4966   23.7040 C   0  0  0  0  0  0  0  0  0  0  0  0
  -20.3472  -19.3320   23.4292 C   0  0  0  0  0  0  0  0  0  0  0  0
  -18.2744  -16.9211   22.1891 C   0  0  0  0  0  0  0  0  0  0  0  0
  -28.7350  -20.5844   16.9911 C   0  0  0  0  0  0  0  0  0  0  0  0
  -25.5583  -24.9199   24.9959 C   0  0  0  0  0  0  0  0  0  0  0  0
  -23.1660  -20.1915   21.2091 C   0  0  0  0  0  0  0  0  0  0  0  0
  -22.2168  -17.8106   22.6841 C   0  0  0  0  0  0  0  0  0  0  0  0
  -24.2320  -24.2290   25.3022 C   0  0  0  0  0  0  0  0  0  0  0  0
  -29.0916  -23.5181   15.0054 C   0  0  0  0  0  0  0  0  0  0  0  0
  -24.4693  -22.7852   25.7335 C   0  0  0  0  0  0  0  0  0  0  0  0
  -28.9332  -24.6592   16.0128 C   0  0  0  0  0  0  0  0  0  0  0  0
  -28.1701  -22.3436   15.3294 C   0  0  0  0  0  0  0  0  0  0  0  0
  -28.1152  -22.9749   17.7101 C   0  0  0  0  0  0  0  0  0  0  0  0
  -25.1409  -21.9787   24.6153 C   0  0  1  0  0  0  0  0  0  0  0  0
  -22.4301  -20.3119   22.5401 C   0  0  1  0  0  0  0  0  0  0  0  0
  -29.0700  -24.1541   17.4625 C   0  0  2  0  0  0  0  0  0  0  0  0
  -30.1364  -15.5709   17.7728 C   0  0  0  0  0  0  0  0  0  0  0  0
  -15.8661  -16.2160   22.1640 C   0  0  0  0  0  0  0  0  0  0  0  0
  -20.6280  -18.2796   26.2794 C   0  0  0  0  0  0  0  0  0  0  0  0
  -18.6441  -16.8116   25.8586 C   0  0  0  0  0  0  0  0  0  0  0  0
  -18.4021  -19.2923   25.7559 C   0  0  0  0  0  0  0  0  0  0  0  0
  -18.1056  -17.1911   19.2468 C   0  0  0  0  0  0  0  0  0  0  0  0
  -26.8841  -13.3596   21.4383 C   0  0  0  0  0  0  0  0  0  0  0  0
  -25.6534  -14.2552   21.5174 C   0  0  0  0  0  0  0  0  0  1  0  0
  -19.6336  -18.0894   23.9044 C   0  0  1  0  0  0  0  0  0  0  0  0
  -16.9495  -17.0126   21.4537 C   0  0  2  0  0  0  0  0  0  0  0  0
  -19.3499  -18.1167   25.4328 C   0  0  0  0  0  0  0  0  0  0  0  0
  -27.6786  -25.8973   18.5145 N   0  0  0  0  0  0  0  0  0  0  0  0
  -28.8670  -25.2715   18.4687 N   0  0  0  0  0  0  0  0  0  0  0  0
  -21.6034  -19.1403   22.8369 N   0  0  0  0  0  0  0  0  0  0  0  0
  -28.3580  -21.9162   16.7175 N   0  0  0  0  0  0  0  0  0  0  0  0
  -31.0174  -25.2261   19.4610 N   0  0  0  0  0  0  0  0  0  0  0  0
  -28.9042  -28.5275   21.7041 N   0  0  0  0  0  0  0  0  0  0  0  0
  -28.9159  -20.3028   18.3448 N   0  0  0  0  0  0  0  0  0  0  0  0
  -24.1719  -21.6119   23.6048 N   0  0  0  0  0  0  0  0  0  0  0  0
  -18.4387  -17.9632   23.0769 N   0  0  0  0  0  0  0  0  0  0  0  0
  -17.0891  -16.4838   20.0674 N   0  3  0  0  0  0  0  0  0  0  0  0
  -30.8812  -27.3833   21.5017 O   0  0  0  0  0  0  0  0  0  0  0  0
  -23.3468  -19.6879   24.6246 O   0  0  0  0  0  0  0  0  0  0  0  0
  -19.8066  -20.4316   23.5718 O   0  0  0  0  0  0  0  0  0  0  0  0
  -19.0810  -16.0137   21.9981 O   0  0  0  0  0  0  0  0  0  0  0  0
  -28.9127  -19.7619   16.0889 O   0  0  0  0  0  0  0  0  0  0  0  0
  -31.6057  -14.5491   20.0407 O   0  0  0  0  0  0  0  0  0  0  0  0
  -30.6774  -15.3650   22.2298 O   0  0  0  0  0  0  0  0  0  0  0  0
  -23.6684  -30.2422   20.8786 O   0  0  0  0  0  0  0  0  0  0  0  0
  -25.6475  -15.1612   20.4150 O   0  0  0  0  0  0  0  0  0  1  0  0
  -18.6310  -28.0681   21.4273 F   0  0  0  0  0  0  0  0  0  0  0  0
  -22.3102  -30.3986   23.2814 F   0  0  0  0  0  0  0  0  0  0  0  0
  -30.5008  -15.0941   20.8124 S   0  0  0  0  0  0  0  0  0  0  0  0
  1  2  1  0  0  0  0
  1  5  2  0  0  0  0
  2  6  2  0  0  0  0
  3  9  2  0  0  0  0
  3 18  1  0  0  0  0
  4 10  1  0  0  0  0
  4 18  2  0  0  0  0
  5 20  1  0  0  0  0
  6 22  1  0  0  0  0
  7 11  2  0  0  0  0
  7 21  1  0  0  0  0
  8 14  2  0  0  0  0
  8 25  1  0  0  0  0
  9 26  1  0  0  0  0
 10 26  2  0  0  0  0
 11 27  1  0  0  0  0
 12 13  2  0  0  0  0
 12 28  1  0  0  0  0
 13 29  1  0  0  0  0
 14 31  1  0  0  0  0
 15 23  1  0  0  0  0
 15 27  2  0  0  0  0
 16 24  1  0  0  0  0
 16 25  2  0  0  0  0
 17 29  2  0  0  0  0
 17 30  1  0  0  0  0
 18 32  1  0  0  0  0
 19 32  1  0  0  0  0
 19 33  2  0  0  0  0
 19 36  1  0  0  0  0
 20 22  2  0  0  0  0
 20 41  1  0  0  0  0
 21 23  2  0  0  0  0
 21 42  1  0  0  0  0
 22 50  1  0  0  0  0
 23 43  1  0  0  0  0
 24 31  2  0  0  0  0
 24 53  1  0  0  0  0
 25 70  1  0  0  0  0
 26 81  1  0  0  0  0
 27 82  1  0  0  0  0
 28 30  2  0  0  0  0
 28 81  1  0  0  0  0
 29 83  1  0  0  0  0
 30 84  1  0  0  0  0
 31 85  1  0  0  0  0
 32 64  2  0  0  0  0
 33 65  1  0  0  0  0
 33 68  1  0  0  0  0
 34 35  2  0  0  0  0
 34 59  1  0  0  0  0
 35 85  1  0  0  0  0
 36 69  1  0  0  0  0
 36 74  2  0  0  0  0
 37 51  1  0  0  0  0
 37 71  1  0  0  0  0
 37 75  2  0  0  0  0
 38 61  1  0  0  0  0
 38 66  1  0  0  0  0
 38 76  2  0  0  0  0
 39 62  1  0  0  0  0
 39 72  1  0  0  0  0
 39 77  2  0  0  0  0
 40 67  1  0  0  0  0
 40 70  1  0  0  0  0
 40 78  2  0  0  0  0
 41 44  1  0  0  0  0
 42 51  1  0  0  0  0
 43 66  1  0  0  0  0
 44 46  1  0  0  0  0
 45 47  1  0  0  0  0
 45 48  1  0  0  0  0
 46 50  1  0  0  0  0
 47 52  1  0  0  0  0
 48 67  1  0  0  0  0
 49 52  1  0  0  0  0
 49 67  1  0  0  0  0
 50 71  1  0  0  0  0
 51 66  1  0  0  0  0
 52 65  1  0  0  0  0
 54 62  1  0  0  0  0
 55 63  1  0  0  0  0
 56 63  1  0  0  0  0
 57 63  1  0  0  0  0
 58 73  1  0  0  0  0
 59 60  1  0  0  0  0
 60 82  1  0  0  0  0
 61 63  1  0  0  0  0
 61 72  1  0  0  0  0
 62 73  1  0  0  0  0
 64 65  1  0  0  0  0
 79 85  2  0  0  0  0
 80 85  2  0  0  0  0
M  CHG  1  73   1
M  ISO  4  40 100  60 101  70 100  82 101
M  END
> <Batch ID>
0027

> <Smiles>
CNC(C)C(=O)NC(C(=O)N1Cc2cc([101O:1][101CH2:1]CC=CS(=O)(=O)c3ccc([100NH:0][100C:0](=O)N4CCCC(n5nc(-c6ccc(Oc7ccc(F)cc7F)cc6)c(C(N)=O)c5N)C4)cc3C)ccc2CC1C(=O)NC1CCCc2ccccc21)C(C)(C)C

> <Shape>
0.192

> <Color>
0.071

> <Negative vol penalty>
0.000

$$$$

  -OEChem-04042321283D

 85 94  0     1  0  0  0  0  0999 V2000
  -25.0140  -35.5180   22.3918 C   0  0  0  0  0  0  0  0  0  0  0  0
  -25.7400  -34.3472   22.1976 C   0  0  0  0  0  0  0  0  0  0  0  0
  -24.3465  -13.5684   20.1052 C   0  0  0  0  0  0  0  0  0  0  0  0
  -26.1656  -13.6227   21.6943 C   0  0  0  0  0  0  0  0  0  0  0  0
  -23.7835  -35.4734   23.0458 C   0  0  0  0  0  0  0  0  0  0  0  0
  -25.2363  -33.1313   22.6583 C   0  0  0  0  0  0  0  0  0  0  0  0
  -25.7099  -29.4158   19.2502 C   0  0  0  0  0  0  0  0  0  0  0  0
  -27.8545  -23.0079   23.6681 C   0  0  0  0  0  0  0  0  0  0  0  0
  -24.4311  -12.1770   20.0559 C   0  0  0  0  0  0  0  0  0  0  0  0
  -26.2501  -12.2312   21.6450 C   0  0  0  0  0  0  0  0  0  0  0  0
  -26.9695  -28.8339   19.1135 C   0  0  0  0  0  0  0  0  0  0  0  0
  -23.4501   -9.5532   21.9497 C   0  0  0  0  0  0  0  0  0  0  0  0
  -22.2598   -8.8288   22.0116 C   0  0  0  0  0  0  0  0  0  0  0  0
  -28.4121  -23.8925   24.5912 C   0  0  0  0  0  0  0  0  0  0  0  0
  -26.2564  -26.9824   20.4855 C   0  0  0  0  0  0  0  0  0  0  0  0
  -29.4517  -23.7340   22.0072 C   0  0  0  0  0  0  0  0  0  0  0  0
  -22.7363   -7.8608   19.8499 C   0  0  0  0  0  0  0  0  0  0  0  0
  -25.2138  -14.2913   20.9244 C   0  0  0  0  0  0  0  0  0  0  0  0
  -24.3408  -16.5025   21.8495 C   0  0  0  0  0  0  0  0  0  0  0  0
  -23.2599  -34.2550   23.5062 C   0  0  0  0  0  0  0  0  0  0  0  0
  -24.7159  -28.7896   20.0158 C   0  0  0  0  0  0  0  0  0  0  0  0
  -23.9982  -33.0706   23.3203 C   0  0  0  0  0  0  0  0  0  0  0  0
  -24.9842  -27.5571   20.6282 C   0  0  0  0  0  0  0  0  0  0  0  0
  -30.0093  -24.6188   22.9303 C   0  0  0  0  0  0  0  0  0  0  0  0
  -28.3743  -22.9286   22.3761 C   0  0  0  0  0  0  0  0  0  0  0  0
  -25.3828  -11.5084   20.8258 C   0  0  0  0  0  0  0  0  0  0  0  0
  -27.2438  -27.6185   19.7335 C   0  0  0  0  0  0  0  0  0  0  0  0
  -24.2836   -9.4314   20.8378 C   0  0  0  0  0  0  0  0  0  0  0  0
  -21.9029   -7.9826   20.9618 C   0  0  0  0  0  0  0  0  0  0  0  0
  -23.9267   -8.5852   19.7880 C   0  0  0  0  0  0  0  0  0  0  0  0
  -29.4895  -24.6980   24.2222 C   0  0  0  0  0  0  0  0  0  0  0  0
  -25.1273  -15.7286   20.9753 C   0  0  0  0  0  0  0  0  0  0  0  0
  -24.6119  -17.8018   21.4962 C   0  0  0  0  0  0  0  0  0  0  0  0
  -31.4203  -26.2657   20.1160 C   0  0  0  0  0  0  0  0  0  0  0  0
  -23.4454  -16.0843   22.8883 C   0  0  0  0  0  0  0  0  0  0  0  0
  -23.0853  -29.5565   22.6343 C   0  0  0  0  0  0  0  0  0  0  0  0
  -21.4757  -26.8217   21.9617 C   0  0  0  0  0  0  0  0  0  0  0  0
  -22.2950  -23.4925   20.8379 C   0  0  0  0  0  0  0  0  0  0  0  0
  -28.2040  -21.8265   20.1172 C   0  0  0  0  0  0  0  0  0  0  0  0
  -21.9476  -34.2634   24.2494 C   0  0  0  0  0  0  0  0  0  0  0  0
  -23.3538  -29.4171   20.1315 C   0  0  0  0  0  0  0  0  0  0  0  0
  -23.9451  -26.8342   21.4443 C   0  0  0  0  0  0  0  0  0  0  0  0
  -30.8438  -27.4012   19.3019 C   0  0  0  0  0  0  0  0  0  0  0  0
  -21.3099  -32.8821   24.3750 C   0  0  0  0  0  0  0  0  0  0  0  0
  -27.0911  -19.6806   17.5030 C   0  0  0  0  0  0  0  0  0  0  0  0
  -22.3466  -31.8537   24.8159 C   0  0  0  0  0  0  0  0  0  0  0  0
  -26.4163  -18.5248   18.2453 C   0  0  0  0  0  0  0  0  0  0  0  0
  -28.3221  -20.1920   18.2492 C   0  0  0  0  0  0  0  0  0  0  0  0
  -27.4173  -19.3937   20.3970 C   0  0  0  0  0  0  0  0  0  0  0  0
  -29.8805  -27.4021   21.5094 C   0  0  0  0  0  0  0  0  0  0  0  0
  -23.4736  -31.7289   23.7836 C   0  0  1  0  0  0  0  0  0  0  0  0
  -22.5803  -28.9443   21.3585 C   0  0  1  0  0  0  0  0  0  0  0  0
  -26.1349  -18.8878   19.7165 C   0  0  2  0  0  0  0  0  0  0  0  0
  -29.5882  -27.7978   20.0738 C   0  0  2  0  0  0  0  0  0  1  0  0
  -20.9272  -21.8176   19.5646 C   0  0  0  0  0  0  0  0  0  0  0  0
  -20.7576  -25.7412   24.7234 C   0  0  0  0  0  0  0  0  0  0  0  0
  -20.8786  -23.4280   23.7731 C   0  0  0  0  0  0  0  0  0  0  0  0
  -19.1984  -25.0491   22.8946 C   0  0  0  0  0  0  0  0  0  0  0  0
  -24.3560  -23.2394   18.7290 C   0  0  0  0  0  0  0  0  0  0  0  0
  -31.1679  -25.4683   22.4943 C   0  0  0  0  0  0  0  0  0  0  0  0
  -21.6416  -25.3662   22.3267 C   0  0  1  0  0  0  0  0  0  0  0  0
  -21.9972  -22.8945   19.4747 C   0  0  2  0  0  0  0  0  0  0  0  0
  -20.6414  -24.9137   23.4277 C   0  0  0  0  0  0  0  0  0  0  0  0
  -25.8441  -16.4741   20.1300 N   0  0  0  0  0  0  0  0  0  0  0  0
  -25.5090  -17.7299   20.4714 N   0  0  0  0  0  0  0  0  0  0  0  0
  -30.8258  -26.3164   21.3728 N   0  0  0  0  0  0  0  0  0  0  0  0
  -22.6306  -27.4913   21.5330 N   0  0  0  0  0  0  0  0  0  0  0  0
  -27.9787  -20.5199   19.6346 N   0  0  0  0  0  0  0  0  0  0  0  0
  -24.1678  -18.9873   21.9651 N   0  0  0  0  0  0  0  0  0  0  0  0
  -23.2841  -14.7112   23.1186 N   0  0  0  0  0  0  0  0  0  0  0  0
  -27.8083  -22.0291   21.4389 N   0  0  0  0  0  0  0  0  0  0  0  0
  -23.0380  -30.9374   22.6530 N   0  0  0  0  0  0  0  0  0  0  0  0
  -21.5355  -24.6178   21.0789 N   0  0  0  0  0  0  0  0  0  0  0  0
  -23.2284  -22.2866   18.8956 N   0  3  0  0  0  0  0  0  0  0  0  0
  -32.2828  -25.4963   19.7187 O   0  0  0  0  0  0  0  0  0  0  0  0
  -22.7947  -16.9035   23.5804 O   0  0  0  0  0  0  0  0  0  0  0  0
  -23.4866  -28.8298   23.5357 O   0  0  0  0  0  0  0  0  0  0  0  0
  -20.3612  -27.3433   22.0469 O   0  0  0  0  0  0  0  0  0  0  0  0
  -23.1163  -23.0076   21.6129 O   0  0  0  0  0  0  0  0  0  0  0  0
  -28.6855  -22.7085   19.4016 O   0  0  0  0  0  0  0  0  0  0  0  0
  -25.4655  -10.1507   20.7781 O   0  0  0  0  0  0  0  0  0  0  0  0
  -28.4726  -27.0487   19.6023 O   0  0  0  0  0  0  0  0  0  1  0  0
  -20.7605   -7.2858   21.0221 F   0  0  0  0  0  0  0  0  0  0  0  0
  -24.7239   -8.4632   18.7177 F   0  0  0  0  0  0  0  0  0  0  0  0
  -30.1534  -25.7799   25.3918 Cl  0  0  0  0  0  0  0  0  0  0  0  0
  1  2  1  0  0  0  0
  1  5  2  0  0  0  0
  2  6  2  0  0  0  0
  3  9  2  0  0  0  0
  3 18  1  0  0  0  0
  4 10  1  0  0  0  0
  4 18  2  0  0  0  0
  5 20  1  0  0  0  0
  6 22  1  0  0  0  0
  7 11  2  0  0  0  0
  7 21  1  0  0  0  0
  8 14  2  0  0  0  0
  8 25  1  0  0  0  0
  9 26  1  0  0  0  0
 10 26  2  0  0  0  0
 11 27  1  0  0  0  0
 12 13  2  0  0  0  0
 12 28  1  0  0  0  0
 13 29  1  0  0  0  0
 14 31  1  0  0  0  0
 15 23  1  0  0  0  0
 15 27  2  0  0  0  0
 16 24  1  0  0  0  0
 16 25  2  0  0  0  0
 17 29  2  0  0  0  0
 17 30  1  0  0  0  0
 18 32  1  0  0  0  0
 19 32  1  0  0  0  0
 19 33  2  0  0  0  0
 19 35  1  0  0  0  0
 20 22  2  0  0  0  0
 20 40  1  0  0  0  0
 21 23  2  0  0  0  0
 21 41  1  0  0  0  0
 22 51  1  0  0  0  0
 23 42  1  0  0  0  0
 24 31  2  0  0  0  0
 24 60  1  0  0  0  0
 25 71  1  0  0  0  0
 26 81  1  0  0  0  0
 27 82  1  0  0  0  0
 28 30  2  0  0  0  0
 28 81  1  0  0  0  0
 29 83  1  0  0  0  0
 30 84  1  0  0  0  0
 31 85  1  0  0  0  0
 32 64  2  0  0  0  0
 33 65  1  0  0  0  0
 33 69  1  0  0  0  0
 34 43  1  0  0  0  0
 34 66  1  0  0  0  0
 34 75  2  0  0  0  0
 35 70  1  0  0  0  0
 35 76  2  0  0  0  0
 36 52  1  0  0  0  0
 36 72  1  0  0  0  0
 36 77  2  0  0  0  0
 37 61  1  0  0  0  0
 37 67  1  0  0  0  0
 37 78  2  0  0  0  0
 38 62  1  0  0  0  0
 38 73  1  0  0  0  0
 38 79  2  0  0  0  0
 39 68  1  0  0  0  0
 39 71  1  0  0  0  0
 39 80  2  0  0  0  0
 40 44  1  0  0  0  0
 41 52  1  0  0  0  0
 42 67  1  0  0  0  0
 43 54  1  0  0  0  0
 44 46  1  0  0  0  0
 45 47  1  0  0  0  0
 45 48  1  0  0  0  0
 46 51  1  0  0  0  0
 47 53  1  0  0  0  0
 48 68  1  0  0  0  0
 49 53  1  0  0  0  0
 49 68  1  0  0  0  0
 50 54  1  0  0  0  0
 50 66  1  0  0  0  0
 51 72  1  0  0  0  0
 52 67  1  0  0  0  0
 53 65  1  0  0  0  0
 54 82  1  0  0  0  0
 55 62  1  0  0  0  0
 56 63  1  0  0  0  0
 57 63  1  0  0  0  0
 58 63  1  0  0  0  0
 59 74  1  0  0  0  0
 60 66  1  0  0  0  0
 61 63  1  0  0  0  0
 61 73  1  0  0  0  0
 62 74  1  0  0  0  0
 64 65  1  0  0  0  0
M  CHG  1  74   1
M  ISO  4  39 100  54 101  71 100  82 101
M  END
> <Batch ID>
0027

> <Smiles>
CNC(C)C(=O)NC(C(=O)N1Cc2cc([101O:1][101CH:1]3CC(=O)N(Cc4cc([100NH:0][100C:0](=O)N5CCCC(n6nc(-c7ccc(Oc8ccc(F)cc8F)cc7)c(C(N)=O)c6N)C5)ccc4Cl)C3)ccc2CC1C(=O)NC1CCCc2ccccc21)C(C)(C)C

> <Shape>
0.236

> <Color>
0.102

> <Negative vol penalty>
0.000

$$$$

  -OEChem-04042321283D

 86 95  0     1  0  0  0  0  0999 V2000
  -21.2072  -16.5175   35.4106 C   0  0  0  0  0  0  0  0  0  0  0  0
  -21.8609  -16.4624   34.1838 C   0  0  0  0  0  0  0  0  0  0  0  0
  -23.0751   -9.8688   19.9403 C   0  0  0  0  0  0  0  0  0  0  0  0
  -23.8349   -9.8747   22.2338 C   0  0  0  0  0  0  0  0  0  0  0  0
  -32.6518  -17.4881   23.4590 C   0  0  0  0  0  0  0  0  0  0  0  0
  -20.1186  -17.3717   35.5814 C   0  0  0  0  0  0  0  0  0  0  0  0
  -21.4257  -17.2608   33.1266 C   0  0  0  0  0  0  0  0  0  0  0  0
  -25.2504  -19.5227   30.6977 C   0  0  0  0  0  0  0  0  0  0  0  0
  -32.0644  -16.6064   22.5519 C   0  0  0  0  0  0  0  0  0  0  0  0
  -22.3308   -8.7158   20.1899 C   0  0  0  0  0  0  0  0  0  0  0  0
  -23.0905   -8.7217   22.4833 C   0  0  0  0  0  0  0  0  0  0  0  0
  -25.9827  -18.7465   29.8005 C   0  0  0  0  0  0  0  0  0  0  0  0
  -19.8621   -7.9248   23.0853 C   0  0  0  0  0  0  0  0  0  0  0  0
  -19.1050   -7.8848   24.2562 C   0  0  0  0  0  0  0  0  0  0  0  0
  -24.7404  -19.7038   27.9676 C   0  0  0  0  0  0  0  0  0  0  0  0
  -29.8802  -17.4533   23.1430 C   0  0  0  0  0  0  0  0  0  0  0  0
  -20.3457   -5.9466   24.9921 C   0  0  0  0  0  0  0  0  0  0  0  0
  -23.8272  -10.4482   20.9623 C   0  0  0  0  0  0  0  0  0  0  0  0
  -31.8535  -18.3525   24.2083 C   0  0  0  0  0  0  0  0  0  0  0  0
  -24.1699  -12.9733   20.8431 C   0  0  0  0  0  0  0  0  0  0  0  0
  -19.6758  -18.1881   34.5287 C   0  0  0  0  0  0  0  0  0  0  0  0
  -24.2484  -20.3887   30.2367 C   0  0  0  0  0  0  0  0  0  0  0  0
  -20.3293  -18.1257   33.2831 C   0  0  0  0  0  0  0  0  0  0  0  0
  -23.9986  -20.4918   28.8608 C   0  0  0  0  0  0  0  0  0  0  0  0
  -30.4677  -18.3351   24.0502 C   0  0  0  0  0  0  0  0  0  0  0  0
  -30.6786  -16.5889   22.3938 C   0  0  0  0  0  0  0  0  0  0  0  0
  -22.3385   -8.1423   21.4613 C   0  0  0  0  0  0  0  0  0  0  0  0
  -25.7258  -18.8348   28.4355 C   0  0  0  0  0  0  0  0  0  0  0  0
  -20.8609   -6.9758   22.8678 C   0  0  0  0  0  0  0  0  0  0  0  0
  -19.3468   -6.8957   25.2095 C   0  0  0  0  0  0  0  0  0  0  0  0
  -21.1027   -5.9867   23.8212 C   0  0  0  0  0  0  0  0  0  0  0  0
  -24.5967  -11.6389   20.7050 C   0  0  0  0  0  0  0  0  0  0  0  0
  -25.2623  -13.7225   20.4802 C   0  0  0  0  0  0  0  0  0  0  0  0
  -32.4968  -19.2620   25.1471 C   0  0  0  0  0  0  0  0  0  0  0  0
  -33.2489  -18.8977   26.2089 C   0  0  0  0  0  0  0  0  0  0  0  0
  -22.8996  -13.4894   21.2621 C   0  0  0  0  0  0  0  0  0  0  0  0
  -21.1066  -20.6131   30.6637 C   0  0  0  0  0  0  0  0  0  0  0  0
  -21.4648  -23.3549   28.9675 C   0  0  0  0  0  0  0  0  0  0  0  0
  -23.2953  -25.1501   26.7151 C   0  0  0  0  0  0  0  0  0  0  0  0
  -30.7289  -14.7662   20.6556 C   0  0  0  0  0  0  0  0  0  0  0  0
  -18.4652  -19.0607   34.7466 C   0  0  0  0  0  0  0  0  0  0  0  0
  -23.4857  -21.2390   31.2152 C   0  0  0  0  0  0  0  0  0  0  0  0
  -22.9475  -21.4212   28.3132 C   0  0  0  0  0  0  0  0  0  0  0  0
  -18.3007  -20.1493   33.6891 C   0  0  0  0  0  0  0  0  0  0  0  0
  -29.6138  -12.3535   18.2865 C   0  0  0  0  0  0  0  0  0  0  0  0
  -18.4909  -19.5689   32.2914 C   0  0  0  0  0  0  0  0  0  0  0  0
  -28.1740  -12.0623   18.7158 C   0  0  0  0  0  0  0  0  0  0  0  0
  -30.5289  -12.5816   19.4883 C   0  0  0  0  0  0  0  0  0  0  0  0
  -28.6221  -13.3063   20.8696 C   0  0  0  0  0  0  0  0  0  0  0  0
  -28.3615  -19.5976   26.9330 C   0  0  0  0  0  0  0  0  0  0  0  0
  -28.6164  -17.6023   26.3706 C   0  0  0  0  0  0  0  0  0  0  0  0
  -19.9023  -18.9945   32.1199 C   0  0  1  0  0  0  0  0  0  0  0  0
  -22.1372  -21.7065   30.6763 C   0  0  1  0  0  0  0  0  0  0  0  0
  -27.6493  -13.1337   19.6917 C   0  0  2  0  0  0  0  0  0  0  0  0
  -27.8620  -18.2713   27.5330 C   0  0  0  0  0  0  0  0  0  1  0  0
  -32.9545  -20.1948   28.3211 C   0  0  0  0  0  0  0  0  0  0  0  0
  -23.3165  -27.3432   25.4956 C   0  0  0  0  0  0  0  0  0  0  0  0
  -19.2946  -22.3264   27.0853 C   0  0  0  0  0  0  0  0  0  0  0  0
  -20.0211  -24.0484   25.4193 C   0  0  0  0  0  0  0  0  0  0  0  0
  -19.1291  -24.7599   27.6376 C   0  0  0  0  0  0  0  0  0  0  0  0
  -25.8649  -25.9443   27.9503 C   0  0  0  0  0  0  0  0  0  0  0  0
  -29.5781  -19.2505   24.8385 C   0  0  0  0  0  0  0  0  0  0  0  0
  -33.8822  -19.8716   27.1601 C   0  0  0  0  0  0  0  0  0  0  0  0
  -21.4288  -23.7182   27.5027 C   0  0  1  0  0  0  0  0  0  0  0  0
  -23.7823  -26.5878   26.7306 C   0  0  2  0  0  0  0  0  0  0  0  0
  -19.9869  -23.6942   26.9214 C   0  0  0  0  0  0  0  0  0  0  0  0
  -25.8616  -11.5428   20.2868 N   0  0  0  0  0  0  0  0  0  0  0  0
  -26.2389  -12.8263   20.1589 N   0  0  0  0  0  0  0  0  0  0  0  0
  -22.2241  -22.2272   29.3105 N   0  0  0  0  0  0  0  0  0  0  0  0
  -29.9702  -13.6124   20.3659 N   0  0  0  0  0  0  0  0  0  0  0  0
  -25.4732  -15.0539   20.4076 N   0  0  0  0  0  0  0  0  0  0  0  0
  -21.8873  -12.5805   21.5990 N   0  0  0  0  0  0  0  0  0  0  0  0
  -30.0817  -15.6912   21.4743 N   0  0  0  0  0  0  0  0  0  0  0  0
  -20.8586  -20.0593   31.9051 N   0  0  0  0  0  0  0  0  0  0  0  0
  -22.0988  -25.0089   27.3857 N   0  0  0  0  0  0  0  0  0  0  0  0
  -29.4202  -18.8327   26.2488 N   0  3  0  0  0  0  0  0  0  0  0  0
  -25.2714  -26.6299   26.7735 N   0  3  0  0  0  0  0  0  0  0  0  0
  -22.6637  -14.7201   21.3199 O   0  0  0  0  0  0  0  0  0  0  0  0
  -20.5747  -20.2965   29.6061 O   0  0  0  0  0  0  0  0  0  0  0  0
  -20.8479  -24.0502   29.7784 O   0  0  0  0  0  0  0  0  0  0  0  0
  -23.9126  -24.2437   26.1603 O   0  0  0  0  0  0  0  0  0  0  0  0
  -31.8580  -14.9347   20.1881 O   0  0  0  0  0  0  0  0  0  0  0  0
  -21.6122   -7.0173   21.7052 O   0  0  0  0  0  0  0  0  0  0  0  0
  -26.4387  -18.0778   27.5576 O   0  0  0  0  0  0  0  0  0  1  0  0
  -18.6208   -6.8583   26.3346 F   0  0  0  0  0  0  0  0  0  0  0  0
  -22.0618   -5.0729   23.6183 F   0  0  0  0  0  0  0  0  0  0  0  0
  1  2  1  0  0  0  0
  1  6  2  0  0  0  0
  2  7  2  0  0  0  0
  3 10  2  0  0  0  0
  3 18  1  0  0  0  0
  4 11  1  0  0  0  0
  4 18  2  0  0  0  0
  5  9  2  0  0  0  0
  5 19  1  0  0  0  0
  6 21  1  0  0  0  0
  7 23  1  0  0  0  0
  8 12  2  0  0  0  0
  8 22  1  0  0  0  0
  9 26  1  0  0  0  0
 10 27  1  0  0  0  0
 11 27  2  0  0  0  0
 12 28  1  0  0  0  0
 13 14  2  0  0  0  0
 13 29  1  0  0  0  0
 14 30  1  0  0  0  0
 15 24  1  0  0  0  0
 15 28  2  0  0  0  0
 16 25  1  0  0  0  0
 16 26  2  0  0  0  0
 17 30  2  0  0  0  0
 17 31  1  0  0  0  0
 18 32  1  0  0  0  0
 19 25  2  0  0  0  0
 19 34  1  0  0  0  0
 20 32  1  0  0  0  0
 20 33  2  0  0  0  0
 20 36  1  0  0  0  0
 21 23  2  0  0  0  0
 21 41  1  0  0  0  0
 22 24  2  0  0  0  0
 22 42  1  0  0  0  0
 23 52  1  0  0  0  0
 24 43  1  0  0  0  0
 25 62  1  0  0  0  0
 26 73  1  0  0  0  0
 27 83  1  0  0  0  0
 28 84  1  0  0  0  0
 29 31  2  0  0  0  0
 29 83  1  0  0  0  0
 30 85  1  0  0  0  0
 31 86  1  0  0  0  0
 32 67  2  0  0  0  0
 33 68  1  0  0  0  0
 33 71  1  0  0  0  0
 34 35  2  0  0  0  0
 35 63  1  0  0  0  0
 36 72  1  0  0  0  0
 36 78  2  0  0  0  0
 37 53  1  0  0  0  0
 37 74  1  0  0  0  0
 37 79  2  0  0  0  0
 38 64  1  0  0  0  0
 38 69  1  0  0  0  0
 38 80  2  0  0  0  0
 39 65  1  0  0  0  0
 39 75  1  0  0  0  0
 39 81  2  0  0  0  0
 40 70  1  0  0  0  0
 40 73  1  0  0  0  0
 40 82  2  0  0  0  0
 41 44  1  0  0  0  0
 42 53  1  0  0  0  0
 43 69  1  0  0  0  0
 44 46  1  0  0  0  0
 45 47  1  0  0  0  0
 45 48  1  0  0  0  0
 46 52  1  0  0  0  0
 47 54  1  0  0  0  0
 48 70  1  0  0  0  0
 49 54  1  0  0  0  0
 49 70  1  0  0  0  0
 50 55  1  0  0  0  0
 50 76  1  0  0  0  0
 51 55  1  0  0  0  0
 51 76  1  0  0  0  0
 52 74  1  0  0  0  0
 53 69  1  0  0  0  0
 54 68  1  0  0  0  0
 55 84  1  0  0  0  0
 56 63  1  0  0  0  0
 57 65  1  0  0  0  0
 58 66  1  0  0  0  0
 59 66  1  0  0  0  0
 60 66  1  0  0  0  0
 61 77  1  0  0  0  0
 62 76  1  0  0  0  0
 64 66  1  0  0  0  0
 64 75  1  0  0  0  0
 65 77  1  0  0  0  0
 67 68  1  0  0  0  0
M  CHG  2  76   1  77   1
M  ISO  4  40 100  55 101  73 100  84 101
M  END
> <Batch ID>
0027

> <Smiles>
CCC=Cc1ccc([100NH:0][100C:0](=O)N2CCCC(n3nc(-c4ccc(Oc5ccc(F)cc5F)cc4)c(C(N)=O)c3N)C2)cc1CN1C[101CH:1]([101O:1]c2ccc3c(c2)CN(C(=O)C(NC(=O)C(C)NC)C(C)(C)C)C(C(=O)NC2CCCc4ccccc42)C3)C1

> <Shape>
0.164

> <Color>
0.184

> <Negative vol penalty>
0.000

$$$$

  -OEChem-04042321283D

 89 98  0     1  0  0  0  0  0999 V2000
  -25.6013  -34.8308   22.7981 C   0  0  0  0  0  0  0  0  0  0  0  0
  -26.0940  -33.5977   23.2130 C   0  0  0  0  0  0  0  0  0  0  0  0
  -23.2971  -10.1463   22.2143 C   0  0  0  0  0  0  0  0  0  0  0  0
  -23.4225   -9.7027   19.8427 C   0  0  0  0  0  0  0  0  0  0  0  0
  -24.4413  -34.8931   22.0271 C   0  0  0  0  0  0  0  0  0  0  0  0
  -25.4263  -32.4261   22.8579 C   0  0  0  0  0  0  0  0  0  0  0  0
  -27.9483  -26.9912   21.5903 C   0  0  0  0  0  0  0  0  0  0  0  0
  -22.5172   -9.0028   22.3870 C   0  0  0  0  0  0  0  0  0  0  0  0
  -22.6426   -8.5591   20.0154 C   0  0  0  0  0  0  0  0  0  0  0  0
  -28.1280  -25.8393   22.3549 C   0  0  0  0  0  0  0  0  0  0  0  0
  -23.0030   -5.6623   22.5811 C   0  0  0  0  0  0  0  0  0  0  0  0
  -23.3192   -4.8164   23.6442 C   0  0  0  0  0  0  0  0  0  0  0  0
  -26.1043  -24.9131   21.4245 C   0  0  0  0  0  0  0  0  0  0  0  0
  -29.4530  -21.3169   24.1735 C   0  0  0  0  0  0  0  0  0  0  0  0
  -28.6066  -19.8483   25.8950 C   0  0  0  0  0  0  0  0  0  0  0  0
  -27.6827  -22.0657   25.6371 C   0  0  0  0  0  0  0  0  0  0  0  0
  -21.1131   -5.1544   24.5694 C   0  0  0  0  0  0  0  0  0  0  0  0
  -23.7497  -10.4962   20.9422 C   0  0  0  0  0  0  0  0  0  0  0  0
  -24.1966  -13.0047   21.0668 C   0  0  0  0  0  0  0  0  0  0  0  0
  -23.7644  -33.7211   21.6543 C   0  0  0  0  0  0  0  0  0  0  0  0
  -26.8374  -27.1174   20.7438 C   0  0  0  0  0  0  0  0  0  0  0  0
  -24.2554  -32.4729   22.0823 C   0  0  0  0  0  0  0  0  0  0  0  0
  -25.9140  -26.0665   20.6483 C   0  0  0  0  0  0  0  0  0  0  0  0
  -29.4789  -20.0882   24.8333 C   0  0  0  0  0  0  0  0  0  0  0  0
  -28.5550  -22.3057   24.5754 C   0  0  0  0  0  0  0  0  0  0  0  0
  -22.1900   -8.2092   21.2876 C   0  0  0  0  0  0  0  0  0  0  0  0
  -27.2044  -24.8012   22.2743 C   0  0  0  0  0  0  0  0  0  0  0  0
  -21.7419   -6.2543   22.5122 C   0  0  0  0  0  0  0  0  0  0  0  0
  -22.3743   -4.5624   24.6383 C   0  0  0  0  0  0  0  0  0  0  0  0
  -20.7969   -6.0003   23.5063 C   0  0  0  0  0  0  0  0  0  0  0  0
  -27.7085  -20.8371   26.2970 C   0  0  0  0  0  0  0  0  0  0  0  0
  -24.5549  -11.6776   20.7630 C   0  0  0  0  0  0  0  0  0  0  0  0
  -25.2980  -13.7466   20.7163 C   0  0  0  0  0  0  0  0  0  0  0  0
  -30.7332  -16.7556   23.5704 C   0  0  0  0  0  0  0  0  0  0  0  0
  -22.9772  -13.5207   21.6169 C   0  0  0  0  0  0  0  0  0  0  0  0
  -31.3210  -16.0522   24.5526 C   0  0  0  0  0  0  0  0  0  0  0  0
  -24.3589  -29.1004   20.5760 C   0  0  0  0  0  0  0  0  0  0  0  0
  -23.7478  -27.4822   17.8319 C   0  0  0  0  0  0  0  0  0  0  0  0
  -24.1294  -24.6228   16.0084 C   0  0  0  0  0  0  0  0  0  0  0  0
  -30.8235  -14.5289   20.6647 C   0  0  0  0  0  0  0  0  0  0  0  0
  -22.4881  -33.8414   20.8598 C   0  0  0  0  0  0  0  0  0  0  0  0
  -26.6721  -28.3552   19.9055 C   0  0  0  0  0  0  0  0  0  0  0  0
  -24.7155  -26.1442   19.7395 C   0  0  0  0  0  0  0  0  0  0  0  0
  -22.0487  -32.5314   20.2111 C   0  0  0  0  0  0  0  0  0  0  0  0
  -29.4424  -12.4604   18.1171 C   0  0  0  0  0  0  0  0  0  0  0  0
  -29.3692  -18.3607   21.5363 C   0  0  0  0  0  0  0  0  0  0  0  0
  -22.1324  -31.3848   21.2136 C   0  0  0  0  0  0  0  0  0  0  0  0
  -30.7564  -17.7690   21.2752 C   0  0  0  0  0  0  0  0  0  0  0  0
  -28.0211  -12.1770   18.6064 C   0  0  0  0  0  0  0  0  0  0  0  0
  -30.4373  -12.5155   19.2743 C   0  0  0  0  0  0  0  0  0  0  0  0
  -28.6547  -13.1653   20.8471 C   0  0  0  0  0  0  0  0  0  0  0  0
  -28.7427  -17.9590   22.8695 C   0  0  0  0  0  0  0  0  0  0  0  0
  -23.5731  -31.1783   21.6966 C   0  0  1  0  0  0  0  0  0  0  0  0
  -31.0578  -16.5298   22.1142 C   0  0  2  0  0  0  0  0  0  0  0  0
  -25.2308  -28.5898   19.4640 C   0  0  1  0  0  0  0  0  0  0  0  0
  -27.6064  -13.1558   19.7214 C   0  0  2  0  0  0  0  0  0  0  0  0
  -30.9920  -16.2838   25.9958 C   0  0  0  0  0  0  0  0  0  0  0  0
  -32.3418  -14.9940   24.2641 C   0  0  0  0  0  0  0  0  0  0  0  0
  -23.4837  -23.5824   13.8179 C   0  0  0  0  0  0  0  0  0  0  0  0
  -20.9364  -26.9756   18.9041 C   0  0  0  0  0  0  0  0  0  0  0  0
  -20.6739  -25.1863   17.1727 C   0  0  0  0  0  0  0  0  0  0  0  0
  -21.0375  -27.5528   16.4728 C   0  0  0  0  0  0  0  0  0  0  0  0
  -26.9546  -24.3672   15.1645 C   0  0  0  0  0  0  0  0  0  0  0  0
  -30.4383  -19.0308   24.4020 C   0  0  0  0  0  0  0  0  0  0  0  0
  -28.5270  -23.6263   23.8637 C   0  0  0  0  0  0  0  0  0  1  0  0
  -22.9578  -26.2470   17.4725 C   0  0  1  0  0  0  0  0  0  0  0  0
  -24.5308  -24.3966   14.5619 C   0  0  2  0  0  0  0  0  0  0  0  0
  -21.4228  -26.4895   17.5242 C   0  0  0  0  0  0  0  0  0  0  0  0
  -25.7875  -11.5791   20.2581 N   0  0  0  0  0  0  0  0  0  0  0  0
  -26.2133  -12.8536   20.2419 N   0  0  0  0  0  0  0  0  0  0  0  0
  -24.5943  -27.3775   18.9447 N   0  0  0  0  0  0  0  0  0  0  0  0
  -29.9862  -13.4630   20.2964 N   0  0  0  0  0  0  0  0  0  0  0  0
  -25.5631  -15.0692   20.7704 N   0  0  0  0  0  0  0  0  0  0  0  0
  -21.9543  -13.8986   20.7364 N   0  0  0  0  0  0  0  0  0  0  0  0
  -24.3466  -30.4771   20.6943 N   0  0  0  0  0  0  0  0  0  0  0  0
  -23.4505  -25.8120   16.1700 N   0  0  0  0  0  0  0  0  0  0  0  0
  -30.3168  -15.3840   21.6358 N   0  0  0  0  0  0  0  0  0  0  0  0
  -29.7657  -17.7592   23.9567 N   0  3  2  0  0  0  0  0  0  0  0  0
  -25.8291  -23.6682   14.4925 N   0  3  0  0  0  0  0  0  0  0  0  0
  -22.8061  -13.6583   22.8519 O   0  0  0  0  0  0  0  0  0  0  0  0
  -23.7419  -28.3044   21.2741 O   0  0  0  0  0  0  0  0  0  0  0  0
  -23.6240  -28.5000   17.1462 O   0  0  0  0  0  0  0  0  0  0  0  0
  -24.3888  -23.8227   16.9046 O   0  0  0  0  0  0  0  0  0  0  0  0
  -31.9376  -14.7086   20.1614 O   0  0  0  0  0  0  0  0  0  0  0  0
  -21.4292   -7.0932   21.4558 O   0  0  0  0  0  0  0  0  0  0  0  0
  -27.3772  -23.6761   23.0200 O   0  0  0  0  0  0  0  0  0  1  0  0
  -22.6776   -3.7489   25.6583 F   0  0  0  0  0  0  0  0  0  0  0  0
  -19.5833   -6.5652   23.4449 F   0  0  0  0  0  0  0  0  0  0  0  0
  -26.6332  -20.5415   27.6078 Cl  0  0  0  0  0  0  0  0  0  0  0  0
  1  2  1  0  0  0  0
  1  5  2  0  0  0  0
  2  6  2  0  0  0  0
  3  8  2  0  0  0  0
  3 18  1  0  0  0  0
  4  9  1  0  0  0  0
  4 18  2  0  0  0  0
  5 20  1  0  0  0  0
  6 22  1  0  0  0  0
  7 10  2  0  0  0  0
  7 21  1  0  0  0  0
  8 26  1  0  0  0  0
  9 26  2  0  0  0  0
 10 27  1  0  0  0  0
 11 12  2  0  0  0  0
 11 28  1  0  0  0  0
 12 29  1  0  0  0  0
 13 23  1  0  0  0  0
 13 27  2  0  0  0  0
 14 24  1  0  0  0  0
 14 25  2  0  0  0  0
 15 24  2  0  0  0  0
 15 31  1  0  0  0  0
 16 25  1  0  0  0  0
 16 31  2  0  0  0  0
 17 29  2  0  0  0  0
 17 30  1  0  0  0  0
 18 32  1  0  0  0  0
 19 32  1  0  0  0  0
 19 33  2  0  0  0  0
 19 35  1  0  0  0  0
 20 22  2  0  0  0  0
 20 41  1  0  0  0  0
 21 23  2  0  0  0  0
 21 42  1  0  0  0  0
 22 53  1  0  0  0  0
 23 43  1  0  0  0  0
 24 64  1  0  0  0  0
 25 65  1  0  0  0  0
 26 85  1  0  0  0  0
 27 86  1  0  0  0  0
 28 30  2  0  0  0  0
 28 85  1  0  0  0  0
 29 87  1  0  0  0  0
 30 88  1  0  0  0  0
 31 89  1  0  0  0  0
 32 69  2  0  0  0  0
 33 70  1  0  0  0  0
 33 73  1  0  0  0  0
 34 36  2  0  0  0  0
 34 54  1  0  0  0  0
 34 78  1  0  0  0  0
 35 74  1  0  0  0  0
 35 80  2  0  0  0  0
 36 57  1  0  0  0  0
 36 58  1  0  0  0  0
 37 55  1  0  0  0  0
 37 75  1  0  0  0  0
 37 81  2  0  0  0  0
 38 66  1  0  0  0  0
 38 71  1  0  0  0  0
 38 82  2  0  0  0  0
 39 67  1  0  0  0  0
 39 76  1  0  0  0  0
 39 83  2  0  0  0  0
 40 72  1  0  0  0  0
 40 77  1  0  0  0  0
 40 84  2  0  0  0  0
 41 44  1  0  0  0  0
 42 55  1  0  0  0  0
 43 71  1  0  0  0  0
 44 47  1  0  0  0  0
 45 49  1  0  0  0  0
 45 50  1  0  0  0  0
 46 48  1  0  0  0  0
 46 52  1  0  0  0  0
 47 53  1  0  0  0  0
 48 54  1  0  0  0  0
 49 56  1  0  0  0  0
 50 72  1  0  0  0  0
 51 56  1  0  0  0  0
 51 72  1  0  0  0  0
 52 78  1  0  0  0  0
 53 75  1  0  0  0  0
 54 77  1  0  0  0  0
 55 71  1  0  0  0  0
 56 70  1  0  0  0  0
 59 67  1  0  0  0  0
 60 68  1  0  0  0  0
 61 68  1  0  0  0  0
 62 68  1  0  0  0  0
 63 79  1  0  0  0  0
 64 78  1  0  0  0  0
 65 86  1  0  0  0  0
 66 68  1  0  0  0  0
 66 76  1  0  0  0  0
 67 79  1  0  0  0  0
 69 70  1  0  0  0  0
M  CHG  2  78   1  79   1
M  ISO  4  40 100  65 101  77 100  86 101
M  END
> <Batch ID>
0027

> <Smiles>
CNC(C)C(=O)NC(C(=O)N1Cc2cc([101O:1][101CH2:1]c3cc(Cl)cc(CN4CCCC([100NH:0][100C:0](=O)N5CCCC(n6nc(-c7ccc(Oc8ccc(F)cc8F)cc7)c(C(N)=O)c6N)C5)C4=C(C)C)c3)ccc2CC1C(=O)NC1CCCc2ccccc21)C(C)(C)C

> <Shape>
0.272

> <Color>
0.173

> <Negative vol penalty>
0.000

$$$$

  -OEChem-04042321283D

 86 95  0     1  0  0  0  0  0999 V2000
  -29.4121  -34.8656   25.4596 C   0  0  0  0  0  0  0  0  0  0  0  0
  -29.5870  -33.7462   24.6522 C   0  0  0  0  0  0  0  0  0  0  0  0
  -24.6108   -8.9403   22.2917 C   0  0  0  0  0  0  0  0  0  0  0  0
  -23.6662   -9.6579   20.1870 C   0  0  0  0  0  0  0  0  0  0  0  0
  -28.2339  -35.0204   26.1889 C   0  0  0  0  0  0  0  0  0  0  0  0
  -28.5842  -32.7805   24.5744 C   0  0  0  0  0  0  0  0  0  0  0  0
  -27.0504  -29.4529   19.6672 C   0  0  0  0  0  0  0  0  0  0  0  0
  -27.9202  -20.2591   16.1735 C   0  0  0  0  0  0  0  0  0  0  0  0
  -28.0410  -21.6245   16.4320 C   0  0  0  0  0  0  0  0  0  0  0  0
  -23.4730   -8.1730   22.5409 C   0  0  0  0  0  0  0  0  0  0  0  0
  -22.5283   -8.8906   20.4361 C   0  0  0  0  0  0  0  0  0  0  0  0
  -27.3754  -28.1551   19.2750 C   0  0  0  0  0  0  0  0  0  0  0  0
  -22.2212   -5.1858   21.5699 C   0  0  0  0  0  0  0  0  0  0  0  0
  -22.4061   -3.8875   22.0449 C   0  0  0  0  0  0  0  0  0  0  0  0
  -25.3129  -27.3545   20.2365 C   0  0  0  0  0  0  0  0  0  0  0  0
  -28.0084  -19.8024   18.5443 C   0  0  0  0  0  0  0  0  0  0  0  0
  -21.1578   -4.4392   24.0385 C   0  0  0  0  0  0  0  0  0  0  0  0
  -24.7074   -9.6828   21.1148 C   0  0  0  0  0  0  0  0  0  0  0  0
  -27.2096  -10.0194   20.7495 C   0  0  0  0  0  0  0  0  0  0  0  0
  -27.2122  -34.0608   26.1125 C   0  0  0  0  0  0  0  0  0  0  0  0
  -25.8573  -29.7101   20.3577 C   0  0  0  0  0  0  0  0  0  0  0  0
  -27.3918  -32.9219   25.3043 C   0  0  0  0  0  0  0  0  0  0  0  0
  -24.9739  -28.6569   20.6340 C   0  0  0  0  0  0  0  0  0  0  0  0
  -27.9038  -19.3481   17.2296 C   0  0  0  0  0  0  0  0  0  0  0  0
  -28.1457  -22.0788   17.7466 C   0  0  0  0  0  0  0  0  0  0  0  0
  -22.4317   -8.1481   21.6131 C   0  0  0  0  0  0  0  0  0  0  0  0
  -26.5080  -27.1053   19.5622 C   0  0  0  0  0  0  0  0  0  0  0  0
  -21.5047   -6.1109   22.3291 C   0  0  0  0  0  0  0  0  0  0  0  0
  -21.8744   -3.5142   23.2793 C   0  0  0  0  0  0  0  0  0  0  0  0
  -28.1293  -21.1678   18.8028 C   0  0  0  0  0  0  0  0  0  0  0  0
  -20.9729   -5.7376   23.5634 C   0  0  0  0  0  0  0  0  0  0  0  0
  -25.8823  -10.4761   20.8572 C   0  0  0  0  0  0  0  0  0  0  0  0
  -27.9439  -11.1533   20.5018 C   0  0  0  0  0  0  0  0  0  0  0  0
  -27.7320   -8.6890   20.8632 C   0  0  0  0  0  0  0  0  0  0  0  0
  -25.1316  -30.8627   23.2297 C   0  0  0  0  0  0  0  0  0  0  0  0
  -22.0968  -30.7110   22.0941 C   0  0  0  0  0  0  0  0  0  0  0  0
  -19.8899  -29.3038   19.9041 C   0  0  0  0  0  0  0  0  0  0  0  0
  -28.8195  -15.8118   17.9536 C   0  0  0  0  0  0  0  0  0  0  0  0
  -25.9759  -34.2480   26.9559 C   0  0  0  0  0  0  0  0  0  0  0  0
  -25.5087  -31.1196   20.7503 C   0  0  0  0  0  0  0  0  0  0  0  0
  -23.6710  -28.8831   21.3551 C   0  0  0  0  0  0  0  0  0  0  0  0
  -24.8067  -33.3651   26.5274 C   0  0  0  0  0  0  0  0  0  0  0  0
  -26.6718  -16.0332   20.7484 C   0  0  0  0  0  0  0  0  0  0  0  0
  -25.2760  -31.9318   26.2987 C   0  0  0  0  0  0  0  0  0  0  0  0
  -26.3715  -14.5592   21.0167 C   0  0  0  0  0  0  0  0  0  0  0  0
  -28.7284  -25.7199   17.7003 C   0  0  0  0  0  0  0  0  0  0  0  0
  -26.7060  -16.3494   19.2520 C   0  0  0  0  0  0  0  0  0  0  0  0
  -28.2915  -24.4552   16.9614 C   0  0  0  0  0  0  0  0  0  0  0  0
  -27.3210  -14.0066   18.7463 C   0  0  0  0  0  0  0  0  0  0  0  0
  -28.3748  -24.0047   19.3406 C   0  0  0  0  0  0  0  0  0  0  0  0
  -26.3168  -31.8648   25.1745 C   0  0  1  0  0  0  0  0  0  0  0  0
  -24.5100  -31.1897   21.9014 C   0  0  1  0  0  0  0  0  0  0  0  0
  -27.3403  -13.6502   20.2407 C   0  0  2  0  0  0  0  0  0  0  0  0
  -28.2054  -25.5062   19.1133 C   0  0  2  0  0  0  0  0  0  1  0  0
  -30.6407  -17.4095   15.7395 C   0  0  0  0  0  0  0  0  0  0  0  0
  -17.4708  -29.3556   19.2389 C   0  0  0  0  0  0  0  0  0  0  0  0
  -21.3816  -29.0896   24.5779 C   0  0  0  0  0  0  0  0  0  0  0  0
  -19.2767  -28.3797   23.4231 C   0  0  0  0  0  0  0  0  0  0  0  0
  -19.6738  -30.7925   23.9163 C   0  0  0  0  0  0  0  0  0  0  0  0
  -20.5450  -30.1780   17.1535 C   0  0  0  0  0  0  0  0  0  0  0  0
  -27.7744  -17.8883   16.9533 C   0  0  0  0  0  0  0  0  0  0  0  0
  -30.2231  -17.6813   17.1705 C   0  0  0  0  0  0  0  0  0  0  0  0
  -21.0084  -29.6650   22.0888 C   0  0  1  0  0  0  0  0  0  0  0  0
  -18.8581  -29.9212   18.9775 C   0  0  2  0  0  0  0  0  0  0  0  0
  -20.3605  -29.4768   23.4896 C   0  0  0  0  0  0  0  0  0  0  0  0
  -25.7766  -11.7972   20.6916 N   0  0  0  0  0  0  0  0  0  0  0  0
  -27.0468  -12.1804   20.4775 N   0  0  0  0  0  0  0  0  0  0  0  0
  -28.2652  -23.4292   17.9996 N   0  0  3  0  0  0  0  0  0  0  0  0
  -23.3779  -30.2780   21.7238 N   0  0  0  0  0  0  0  0  0  0  0  0
  -27.6054  -15.4292   18.5427 N   0  0  0  0  0  0  0  0  0  0  0  0
  -29.2630  -11.3622   20.3047 N   0  0  0  0  0  0  0  0  0  0  0  0
  -27.8207   -7.9048   19.7049 N   0  0  0  0  0  0  0  0  0  0  0  0
  -25.6714  -31.9547   23.8822 N   0  0  0  0  0  0  0  0  0  0  0  0
  -20.0691  -30.0585   21.0441 N   0  0  0  0  0  0  0  0  0  0  0  0
  -28.9104  -17.1232   17.4636 N   0  0  0  0  0  0  0  0  0  0  0  0
  -19.2139  -29.6548   17.5551 N   0  3  0  0  0  0  0  0  0  0  0  0
  -28.0937   -8.2041   21.9621 O   0  0  0  0  0  0  0  0  0  0  0  0
  -25.1208  -29.7058   23.6335 O   0  0  0  0  0  0  0  0  0  0  0  0
  -21.8191  -31.8712   22.4080 O   0  0  0  0  0  0  0  0  0  0  0  0
  -20.4755  -28.2549   19.6444 O   0  0  0  0  0  0  0  0  0  0  0  0
  -29.7690  -15.0229   17.8625 O   0  0  0  0  0  0  0  0  0  0  0  0
  -21.3213   -7.3993   21.8557 O   0  0  0  0  0  0  0  0  0  0  0  0
  -26.8231  -25.8374   19.1811 O   0  0  0  0  0  0  0  0  0  1  0  0
  -22.0507   -2.2669   23.7347 F   0  0  0  0  0  0  0  0  0  0  0  0
  -28.2291  -21.5935   20.0701 F   0  0  0  0  0  0  0  0  0  0  0  0
  -20.2826   -6.6216   24.2968 F   0  0  0  0  0  0  0  0  0  0  0  0
  1  2  1  0  0  0  0
  1  5  2  0  0  0  0
  2  6  2  0  0  0  0
  3 10  2  0  0  0  0
  3 18  1  0  0  0  0
  4 11  1  0  0  0  0
  4 18  2  0  0  0  0
  5 20  1  0  0  0  0
  6 22  1  0  0  0  0
  7 12  2  0  0  0  0
  7 21  1  0  0  0  0
  8  9  2  0  0  0  0
  8 24  1  0  0  0  0
  9 25  1  0  0  0  0
 10 26  1  0  0  0  0
 11 26  2  0  0  0  0
 12 27  1  0  0  0  0
 13 14  2  0  0  0  0
 13 28  1  0  0  0  0
 14 29  1  0  0  0  0
 15 23  1  0  0  0  0
 15 27  2  0  0  0  0
 16 24  2  0  0  0  0
 16 30  1  0  0  0  0
 17 29  2  0  0  0  0
 17 31  1  0  0  0  0
 18 32  1  0  0  0  0
 19 32  1  0  0  0  0
 19 33  2  0  0  0  0
 19 34  1  0  0  0  0
 20 22  2  0  0  0  0
 20 39  1  0  0  0  0
 21 23  2  0  0  0  0
 21 40  1  0  0  0  0
 22 51  1  0  0  0  0
 23 41  1  0  0  0  0
 24 61  1  0  0  0  0
 25 30  2  0  0  0  0
 25 68  1  0  0  0  0
 26 82  1  0  0  0  0
 27 83  1  0  0  0  0
 28 31  2  0  0  0  0
 28 82  1  0  0  0  0
 29 84  1  0  0  0  0
 30 85  1  0  0  0  0
 31 86  1  0  0  0  0
 32 66  2  0  0  0  0
 33 67  1  0  0  0  0
 33 71  1  0  0  0  0
 34 72  1  0  0  0  0
 34 77  2  0  0  0  0
 35 52  1  0  0  0  0
 35 73  1  0  0  0  0
 35 78  2  0  0  0  0
 36 63  1  0  0  0  0
 36 69  1  0  0  0  0
 36 79  2  0  0  0  0
 37 64  1  0  0  0  0
 37 74  1  0  0  0  0
 37 80  2  0  0  0  0
 38 70  1  0  0  0  0
 38 75  1  0  0  0  0
 38 81  2  0  0  0  0
 39 42  1  0  0  0  0
 40 52  1  0  0  0  0
 41 69  1  0  0  0  0
 42 44  1  0  0  0  0
 43 45  1  0  0  0  0
 43 47  1  0  0  0  0
 44 51  1  0  0  0  0
 45 53  1  0  0  0  0
 46 48  1  0  0  0  0
 46 54  1  0  0  0  0
 47 70  1  0  0  0  0
 48 68  1  0  0  0  0
 49 53  1  0  0  0  0
 49 70  1  0  0  0  0
 50 54  1  0  0  0  0
 50 68  1  0  0  0  0
 51 73  1  0  0  0  0
 52 69  1  0  0  0  0
 53 67  1  0  0  0  0
 54 83  1  0  0  0  0
 55 62  1  0  0  0  0
 56 64  1  0  0  0  0
 57 65  1  0  0  0  0
 58 65  1  0  0  0  0
 59 65  1  0  0  0  0
 60 76  1  0  0  0  0
 61 75  1  0  0  0  0
 62 75  1  0  0  0  0
 63 65  1  0  0  0  0
 63 74  1  0  0  0  0
 64 76  1  0  0  0  0
 66 67  1  0  0  0  0
M  CHG  1  76   1
M  ISO  4  38 100  54 101  75 100  83 101
M  END
> <Batch ID>
0027

> <Smiles>
CC[100N:0](Cc1ccc(N2CC[101CH:1]([101O:1]c3ccc4c(c3)CN(C(=O)C(NC(=O)C(C)NC)C(C)(C)C)C(C(=O)NC3CCCc5ccccc53)C4)C2)c(F)c1)[100C:0](=O)N1CCCC(n2nc(-c3ccc(Oc4ccc(F)cc4F)cc3)c(C(N)=O)c2N)C1

> <Shape>
0.306

> <Color>
0.096

> <Negative vol penalty>
0.000

$$$$

  -OEChem-04042321283D

 86 95  0     1  0  0  0  0  0999 V2000
  -13.3985  -23.6171   24.7580 C   0  0  0  0  0  0  0  0  0  0  0  0
  -14.4026  -24.5765   24.8409 C   0  0  0  0  0  0  0  0  0  0  0  0
  -26.4214  -15.5371   21.3002 C   0  0  0  0  0  0  0  0  0  0  0  0
  -26.5874  -15.9285   18.9219 C   0  0  0  0  0  0  0  0  0  0  0  0
  -13.7297  -22.2794   24.5465 C   0  0  0  0  0  0  0  0  0  0  0  0
  -15.7387  -24.1984   24.7133 C   0  0  0  0  0  0  0  0  0  0  0  0
  -20.2493  -27.4337   22.1261 C   0  0  0  0  0  0  0  0  0  0  0  0
  -27.3811  -28.7872   19.1990 C   0  0  0  0  0  0  0  0  0  0  0  0
  -27.8747  -27.5444   18.8023 C   0  0  0  0  0  0  0  0  0  0  0  0
  -25.2971  -14.7388   21.0904 C   0  0  0  0  0  0  0  0  0  0  0  0
  -25.4631  -15.1301   18.7121 C   0  0  0  0  0  0  0  0  0  0  0  0
  -21.2474  -28.2463   22.6621 C   0  0  0  0  0  0  0  0  0  0  0  0
  -24.6378  -11.5833   20.0700 C   0  0  0  0  0  0  0  0  0  0  0  0
  -24.5696  -10.3679   20.7508 C   0  0  0  0  0  0  0  0  0  0  0  0
  -22.7864  -26.3899   22.5951 C   0  0  0  0  0  0  0  0  0  0  0  0
  -29.2254  -29.0273   20.7411 C   0  0  0  0  0  0  0  0  0  0  0  0
  -22.5300  -11.0860   21.8286 C   0  0  0  0  0  0  0  0  0  0  0  0
  -27.0666  -16.1320   20.2160 C   0  0  0  0  0  0  0  0  0  0  0  0
  -29.5728  -16.5424   20.4575 C   0  0  0  0  0  0  0  0  0  0  0  0
  -15.0700  -21.8862   24.4067 C   0  0  0  0  0  0  0  0  0  0  0  0
  -20.5097  -26.0879   21.8303 C   0  0  0  0  0  0  0  0  0  0  0  0
  -16.0883  -22.8540   24.5011 C   0  0  0  0  0  0  0  0  0  0  0  0
  -21.7907  -25.5630   22.0531 C   0  0  0  0  0  0  0  0  0  0  0  0
  -28.0566  -29.5287   20.1684 C   0  0  0  0  0  0  0  0  0  0  0  0
  -29.0436  -27.0430   19.3750 C   0  0  0  0  0  0  0  0  0  0  0  0
  -24.8179  -14.5353   19.7963 C   0  0  0  0  0  0  0  0  0  0  0  0
  -22.5154  -27.7237   22.8993 C   0  0  0  0  0  0  0  0  0  0  0  0
  -23.6522  -12.5502   20.2685 C   0  0  0  0  0  0  0  0  0  0  0  0
  -23.5157  -10.1192   21.6301 C   0  0  0  0  0  0  0  0  0  0  0  0
  -29.7190  -27.7845   20.3444 C   0  0  0  0  0  0  0  0  0  0  0  0
  -22.5983  -12.3015   21.1477 C   0  0  0  0  0  0  0  0  0  0  0  0
  -28.2278  -16.9573   20.4321 C   0  0  0  0  0  0  0  0  0  0  0  0
  -30.2829  -17.6937   20.6957 C   0  0  0  0  0  0  0  0  0  0  0  0
  -30.1305  -15.2333   20.2815 C   0  0  0  0  0  0  0  0  0  0  0  0
  -19.3639  -23.3044   22.8517 C   0  0  0  0  0  0  0  0  0  0  0  0
  -21.2546  -22.1077   20.5032 C   0  0  0  0  0  0  0  0  0  0  0  0
  -23.9781  -22.5139   18.4872 C   0  0  0  0  0  0  0  0  0  0  0  0
  -29.0753  -23.3628   19.5737 C   0  0  0  0  0  0  0  0  0  0  0  0
  -15.3818  -20.4216   24.2264 C   0  0  0  0  0  0  0  0  0  0  0  0
  -19.4298  -25.2316   21.2277 C   0  0  0  0  0  0  0  0  0  0  0  0
  -22.1271  -24.1301   21.7338 C   0  0  0  0  0  0  0  0  0  0  0  0
  -16.8002  -20.1577   23.7278 C   0  0  0  0  0  0  0  0  0  0  0  0
  -29.8862  -21.9677   22.8131 C   0  0  0  0  0  0  0  0  0  0  0  0
  -17.8073  -20.9857   24.5197 C   0  0  0  0  0  0  0  0  0  0  0  0
  -29.6768  -20.4733   22.5617 C   0  0  0  0  0  0  0  0  0  0  0  0
  -24.9079  -31.9463   22.7848 C   0  0  0  0  0  0  0  0  0  0  0  0
  -28.8489  -22.8040   22.0695 C   0  0  0  0  0  0  0  0  0  0  0  0
  -28.5836  -21.0604   20.3481 C   0  0  0  0  0  0  0  0  0  0  0  0
  -26.3649  -32.1808   22.4208 C   0  0  0  0  0  0  0  0  0  0  0  0
  -25.7238  -29.8535   22.0379 C   0  0  0  0  0  0  0  0  0  0  0  0
  -17.5478  -22.4866   24.3430 C   0  0  1  0  0  0  0  0  0  0  0  0
  -19.6601  -23.7392   21.4443 C   0  0  1  0  0  0  0  0  0  0  0  0
  -24.8450  -30.4620   23.1172 C   0  0  2  0  0  0  0  0  0  0  0  0
  -29.6149  -20.1619   21.0546 C   0  0  2  0  0  0  0  0  0  0  0  0
  -25.2945  -21.3490   16.6962 C   0  0  0  0  0  0  0  0  0  0  0  0
  -22.5049  -20.2880   22.6092 C   0  0  0  0  0  0  0  0  0  0  0  0
  -24.3937  -19.8645   21.0214 C   0  0  0  0  0  0  0  0  0  0  0  0
  -22.0730  -19.1890   20.4046 C   0  0  0  0  0  0  0  0  0  0  0  0
  -23.4363  -24.6648   16.5279 C   0  0  0  0  0  0  0  0  0  0  0  0
  -29.5683  -25.7132   18.9497 C   0  0  0  0  0  0  0  0  0  0  0  0
  -27.5256  -30.8653   20.5954 C   0  0  0  0  0  0  0  0  0  0  0  0
  -23.4340  -29.9067   23.1150 C   0  0  0  0  0  0  0  0  0  1  0  0
  -22.6879  -21.6413   20.4181 C   0  0  1  0  0  0  0  0  0  0  0  0
  -24.1630  -22.3208   16.9929 C   0  0  2  0  0  0  0  0  0  0  0  0
  -22.9083  -20.2722   21.1212 C   0  0  0  0  0  0  0  0  0  0  0  0
  -28.0891  -18.2697   20.6379 N   0  0  0  0  0  0  0  0  0  0  0  0
  -29.3561  -18.6894   20.7950 N   0  0  0  0  0  0  0  0  0  0  0  0
  -21.0358  -23.3313   21.1520 N   0  0  0  0  0  0  0  0  0  0  0  0
  -28.8540  -22.4726   20.6377 N   0  0  0  0  0  0  0  0  0  0  0  0
  -31.6033  -17.9414   20.8279 N   0  0  0  0  0  0  0  0  0  0  0  0
  -29.2585  -14.1618   20.0451 N   0  0  0  0  0  0  0  0  0  0  0  0
  -18.0481  -22.9387   23.0624 N   0  0  0  0  0  0  0  0  0  0  0  0
  -23.0359  -21.6483   19.0013 N   0  0  0  0  0  0  0  0  0  0  0  0
  -29.3172  -24.6831   19.9329 N   0  0  0  0  0  0  0  0  0  0  0  0
  -26.8726  -30.8339   21.9397 N   0  3  1  0  0  0  0  0  0  0  0  0
  -24.4769  -23.6218   16.3374 N   0  3  0  0  0  0  0  0  0  0  0  0
  -31.3643  -15.0173   20.3487 O   0  0  0  0  0  0  0  0  0  0  0  0
  -20.2629  -23.2997   23.6845 O   0  0  0  0  0  0  0  0  0  0  0  0
  -20.3629  -21.4156   20.0059 O   0  0  0  0  0  0  0  0  0  0  0  0
  -24.6093  -23.3465   19.1344 O   0  0  0  0  0  0  0  0  0  0  0  0
  -29.0637  -23.0062   18.3906 O   0  0  0  0  0  0  0  0  0  0  0  0
  -23.7209  -13.7561   19.5912 O   0  0  0  0  0  0  0  0  0  0  0  0
  -23.4912  -28.5146   23.4230 O   0  0  0  0  0  0  0  0  0  1  0  0
  -23.4495   -8.9513   22.2827 F   0  0  0  0  0  0  0  0  0  0  0  0
  -30.8424  -27.3103   20.9010 F   0  0  0  0  0  0  0  0  0  0  0  0
  -21.6478  -13.2261   21.3416 F   0  0  0  0  0  0  0  0  0  0  0  0
  1  2  1  0  0  0  0
  1  5  2  0  0  0  0
  2  6  2  0  0  0  0
  3 10  2  0  0  0  0
  3 18  1  0  0  0  0
  4 11  1  0  0  0  0
  4 18  2  0  0  0  0
  5 20  1  0  0  0  0
  6 22  1  0  0  0  0
  7 12  2  0  0  0  0
  7 21  1  0  0  0  0
  8  9  2  0  0  0  0
  8 24  1  0  0  0  0
  9 25  1  0  0  0  0
 10 26  1  0  0  0  0
 11 26  2  0  0  0  0
 12 27  1  0  0  0  0
 13 14  2  0  0  0  0
 13 28  1  0  0  0  0
 14 29  1  0  0  0  0
 15 23  1  0  0  0  0
 15 27  2  0  0  0  0
 16 24  2  0  0  0  0
 16 30  1  0  0  0  0
 17 29  2  0  0  0  0
 17 31  1  0  0  0  0
 18 32  1  0  0  0  0
 19 32  1  0  0  0  0
 19 33  2  0  0  0  0
 19 34  1  0  0  0  0
 20 22  2  0  0  0  0
 20 39  1  0  0  0  0
 21 23  2  0  0  0  0
 21 40  1  0  0  0  0
 22 51  1  0  0  0  0
 23 41  1  0  0  0  0
 24 61  1  0  0  0  0
 25 30  2  0  0  0  0
 25 60  1  0  0  0  0
 26 82  1  0  0  0  0
 27 83  1  0  0  0  0
 28 31  2  0  0  0  0
 28 82  1  0  0  0  0
 29 84  1  0  0  0  0
 30 85  1  0  0  0  0
 31 86  1  0  0  0  0
 32 66  2  0  0  0  0
 33 67  1  0  0  0  0
 33 70  1  0  0  0  0
 34 71  1  0  0  0  0
 34 77  2  0  0  0  0
 35 52  1  0  0  0  0
 35 72  1  0  0  0  0
 35 78  2  0  0  0  0
 36 63  1  0  0  0  0
 36 68  1  0  0  0  0
 36 79  2  0  0  0  0
 37 64  1  0  0  0  0
 37 73  1  0  0  0  0
 37 80  2  0  0  0  0
 38 69  1  0  0  0  0
 38 74  1  0  0  0  0
 38 81  2  0  0  0  0
 39 42  1  0  0  0  0
 40 52  1  0  0  0  0
 41 68  1  0  0  0  0
 42 44  1  0  0  0  0
 43 45  1  0  0  0  0
 43 47  1  0  0  0  0
 44 51  1  0  0  0  0
 45 54  1  0  0  0  0
 46 49  1  0  0  0  0
 46 53  1  0  0  0  0
 47 69  1  0  0  0  0
 48 54  1  0  0  0  0
 48 69  1  0  0  0  0
 49 75  1  0  0  0  0
 50 53  1  0  0  0  0
 50 75  1  0  0  0  0
 51 72  1  0  0  0  0
 52 68  1  0  0  0  0
 53 62  1  0  0  0  0
 54 67  1  0  0  0  0
 55 64  1  0  0  0  0
 56 65  1  0  0  0  0
 57 65  1  0  0  0  0
 58 65  1  0  0  0  0
 59 76  1  0  0  0  0
 60 74  1  0  0  0  0
 61 75  1  0  0  0  0
 62 83  1  0  0  0  0
 63 65  1  0  0  0  0
 63 73  1  0  0  0  0
 64 76  1  0  0  0  0
 66 67  1  0  0  0  0
M  CHG  2  75   1  76   1
M  ISO  4  38 100  62 101  74 100  83 101
M  END
> <Batch ID>
0027

> <Smiles>
CNC(C)C(=O)NC(C(=O)N1Cc2cc([101O:1][101CH2:1]C3CCN(Cc4ccc(C[100NH:0][100C:0](=O)N5CCCC(n6nc(-c7ccc(Oc8ccc(F)cc8F)cc7)c(C(N)=O)c6N)C5)c(F)c4)C3)ccc2CC1C(=O)NC1CCCc2ccccc21)C(C)(C)C

> <Shape>
0.243

> <Color>
0.047

> <Negative vol penalty>
0.000

$$$$

  -OEChem-04042321283D

 87 96  0     1  0  0  0  0  0999 V2000
  -25.6898  -33.6858   27.0920 C   0  0  0  0  0  0  0  0  0  0  0  0
  -26.3610  -32.7499   26.3117 C   0  0  0  0  0  0  0  0  0  0  0  0
  -24.4945   -8.9860   20.6478 C   0  0  0  0  0  0  0  0  0  0  0  0
  -22.8923  -10.7912   20.7527 C   0  0  0  0  0  0  0  0  0  0  0  0
  -24.3256  -33.5369   27.3381 C   0  0  0  0  0  0  0  0  0  0  0  0
  -25.6684  -31.6638   25.7778 C   0  0  0  0  0  0  0  0  0  0  0  0
  -26.6657  -28.9570   20.3755 C   0  0  0  0  0  0  0  0  0  0  0  0
  -27.6183  -20.2607   18.1260 C   0  0  0  0  0  0  0  0  0  0  0  0
  -27.7473  -18.9480   18.5796 C   0  0  0  0  0  0  0  0  0  0  0  0
  -23.5014   -8.0825   21.0260 C   0  0  0  0  0  0  0  0  0  0  0  0
  -21.8991   -9.8877   21.1309 C   0  0  0  0  0  0  0  0  0  0  0  0
  -27.3648  -27.8047   20.0185 C   0  0  0  0  0  0  0  0  0  0  0  0
  -21.9493   -7.1369   23.8758 C   0  0  0  0  0  0  0  0  0  0  0  0
  -22.2691   -6.1956   24.8541 C   0  0  0  0  0  0  0  0  0  0  0  0
  -25.3054  -26.5492   20.0621 C   0  0  0  0  0  0  0  0  0  0  0  0
  -28.6095  -19.7605   20.6853 C   0  0  0  0  0  0  0  0  0  0  0  0
  -21.7920   -4.4129   23.2949 C   0  0  0  0  0  0  0  0  0  0  0  0
  -24.1900  -10.3404   20.5112 C   0  0  0  0  0  0  0  0  0  0  0  0
  -25.5621  -11.6582   18.8117 C   0  0  0  0  0  0  0  0  0  0  0  0
  -23.6139  -32.4536   26.7990 C   0  0  0  0  0  0  0  0  0  0  0  0
  -25.2806  -28.9116   20.5894 C   0  0  0  0  0  0  0  0  0  0  0  0
  -24.2936  -31.4994   26.0179 C   0  0  0  0  0  0  0  0  0  0  0  0
  -24.5907  -27.7028   20.4192 C   0  0  0  0  0  0  0  0  0  0  0  0
  -28.4805  -21.0732   20.2316 C   0  0  0  0  0  0  0  0  0  0  0  0
  -27.9850  -21.3233   18.9519 C   0  0  0  0  0  0  0  0  0  0  0  0
  -28.2429  -18.6979   19.8593 C   0  0  0  0  0  0  0  0  0  0  0  0
  -22.2037   -8.5334   21.2676 C   0  0  0  0  0  0  0  0  0  0  0  0
  -26.6851  -26.6000   19.8646 C   0  0  0  0  0  0  0  0  0  0  0  0
  -21.5508   -6.7162   22.6069 C   0  0  0  0  0  0  0  0  0  0  0  0
  -22.1905   -4.8336   24.5637 C   0  0  0  0  0  0  0  0  0  0  0  0
  -21.4721   -5.3542   22.3165 C   0  0  0  0  0  0  0  0  0  0  0  0
  -25.2155  -11.2742   20.1210 C   0  0  0  0  0  0  0  0  0  0  0  0
  -26.5861  -12.5585   18.9777 C   0  0  0  0  0  0  0  0  0  0  0  0
  -28.8142  -23.4030   17.7704 C   0  0  0  0  0  0  0  0  0  0  0  0
  -25.0080  -11.2387   17.5577 C   0  0  0  0  0  0  0  0  0  0  0  0
  -23.3750  -29.4668   23.0722 C   0  0  0  0  0  0  0  0  0  0  0  0
  -21.0304  -29.0238   20.8746 C   0  0  0  0  0  0  0  0  0  0  0  0
  -20.0682  -27.6534   17.9010 C   0  0  0  0  0  0  0  0  0  0  0  0
  -28.8470  -16.9420   21.5616 C   0  0  0  0  0  0  0  0  0  0  0  0
  -22.1500  -32.3090   27.1316 C   0  0  0  0  0  0  0  0  0  0  0  0
  -24.5371  -30.1690   20.9479 C   0  0  0  0  0  0  0  0  0  0  0  0
  -23.1009  -27.6052   20.6174 C   0  0  0  0  0  0  0  0  0  0  0  0
  -28.1815  -24.7198   17.3778 C   0  0  0  0  0  0  0  0  0  0  0  0
  -21.4115  -31.3331   26.2191 C   0  0  0  0  0  0  0  0  0  0  0  0
  -29.2858  -13.7556   23.0886 C   0  0  0  0  0  0  0  0  0  0  0  0
  -22.2126  -30.0455   26.0548 C   0  0  0  0  0  0  0  0  0  0  0  0
  -28.2945  -12.8576   22.3450 C   0  0  0  0  0  0  0  0  0  0  0  0
  -28.7313  -15.1642   23.2940 C   0  0  0  0  0  0  0  0  0  0  0  0
  -27.2623  -14.9293   21.3304 C   0  0  0  0  0  0  0  0  0  0  0  0
  -26.5999  -23.3974   18.5927 C   0  0  0  0  0  0  0  0  0  0  0  0
  -23.5719  -30.3211   25.4007 C   0  0  1  0  0  0  0  0  0  0  0  0
  -23.2062  -29.8986   21.6430 C   0  0  1  0  0  0  0  0  0  0  0  0
  -27.8024  -13.5189   21.0427 C   0  0  2  0  0  0  0  0  0  0  0  0
  -26.9836  -24.8352   18.3027 C   0  0  1  0  0  0  0  0  0  1  0  0
  -18.0798  -27.4307   16.3863 C   0  0  0  0  0  0  0  0  0  0  0  0
  -19.8358  -26.9377   22.7537 C   0  0  0  0  0  0  0  0  0  0  0  0
  -18.4615  -26.0991   20.8363 C   0  0  0  0  0  0  0  0  0  0  0  0
  -18.1599  -28.4354   21.6570 C   0  0  0  0  0  0  0  0  0  0  0  0
  -21.4537  -29.0439   15.6861 C   0  0  0  0  0  0  0  0  0  0  0  0
  -20.2505  -27.8345   20.3684 C   0  0  1  0  0  0  0  0  0  0  0  0
  -19.3243  -28.2406   16.7151 C   0  0  2  0  0  0  0  0  0  0  0  0
  -28.8813  -22.1922   21.1372 C   0  0  0  0  0  0  0  0  0  0  0  0
  -19.2053  -27.3278   21.4020 C   0  0  0  0  0  0  0  0  0  0  0  0
  -25.9590  -11.8808   21.0501 N   0  0  0  0  0  0  0  0  0  0  0  0
  -26.7831  -12.6550   20.3238 N   0  0  0  0  0  0  0  0  0  0  0  0
  -27.8452  -22.6594   18.4688 N   0  0  0  0  0  0  0  0  0  0  0  0
  -22.4195  -28.8608   20.9734 N   0  0  0  0  0  0  0  0  0  0  0  0
  -28.2887  -15.7289   22.0173 N   0  0  0  0  0  0  0  0  0  0  0  0
  -27.3282  -13.2691   18.1020 N   0  0  0  0  0  0  0  0  0  0  0  0
  -23.9606  -10.3075   17.5681 N   0  0  0  0  0  0  0  0  0  0  0  0
  -28.3731  -17.3643   20.3200 N   0  0  0  0  0  0  0  0  0  0  0  0
  -23.4170  -30.5124   23.9746 N   0  0  0  0  0  0  0  0  0  0  0  0
  -19.6783  -28.2366   19.0880 N   0  0  0  0  0  0  0  0  0  0  0  0
  -20.2028  -28.2618   15.5114 N   0  3  0  0  0  0  0  0  0  0  0  0
  -29.9525  -23.1005   17.4422 O   0  0  0  0  0  0  0  0  0  0  0  0
  -25.4402  -11.6643   16.4597 O   0  0  0  0  0  0  0  0  0  0  0  0
  -23.4592  -28.2732   23.3368 O   0  0  0  0  0  0  0  0  0  0  0  0
  -20.4301  -30.0616   21.1647 O   0  0  0  0  0  0  0  0  0  0  0  0
  -20.9081  -26.7636   17.7861 O   0  0  0  0  0  0  0  0  0  0  0  0
  -29.7038  -17.5465   22.2115 O   0  0  0  0  0  0  0  0  0  0  0  0
  -21.2344   -7.6520   21.6364 O   0  0  0  0  0  0  0  0  0  0  0  0
  -27.3651  -25.4737   19.5169 O   0  0  0  0  0  0  0  0  0  1  0  0
  -22.4991   -3.9298   25.5029 F   0  0  0  0  0  0  0  0  0  0  0  0
  -21.0911   -4.9440   21.0990 F   0  0  0  0  0  0  0  0  0  0  0  0
  -29.3446  -21.7718   22.3502 F   0  0  0  0  0  0  0  0  0  0  0  0
  -29.8746  -22.9763   20.6261 F   0  0  0  0  0  0  0  0  0  0  0  0
  -27.8475  -23.0385   21.4107 F   0  0  0  0  0  0  0  0  0  0  0  0
  1  2  1  0  0  0  0
  1  5  2  0  0  0  0
  2  6  2  0  0  0  0
  3 10  2  0  0  0  0
  3 18  1  0  0  0  0
  4 11  1  0  0  0  0
  4 18  2  0  0  0  0
  5 20  1  0  0  0  0
  6 22  1  0  0  0  0
  7 12  2  0  0  0  0
  7 21  1  0  0  0  0
  8  9  2  0  0  0  0
  8 25  1  0  0  0  0
  9 26  1  0  0  0  0
 10 27  1  0  0  0  0
 11 27  2  0  0  0  0
 12 28  1  0  0  0  0
 13 14  2  0  0  0  0
 13 29  1  0  0  0  0
 14 30  1  0  0  0  0
 15 23  1  0  0  0  0
 15 28  2  0  0  0  0
 16 24  1  0  0  0  0
 16 26  2  0  0  0  0
 17 30  2  0  0  0  0
 17 31  1  0  0  0  0
 18 32  1  0  0  0  0
 19 32  1  0  0  0  0
 19 33  2  0  0  0  0
 19 35  1  0  0  0  0
 20 22  2  0  0  0  0
 20 40  1  0  0  0  0
 21 23  2  0  0  0  0
 21 41  1  0  0  0  0
 22 51  1  0  0  0  0
 23 42  1  0  0  0  0
 24 25  2  0  0  0  0
 24 62  1  0  0  0  0
 25 66  1  0  0  0  0
 26 71  1  0  0  0  0
 27 81  1  0  0  0  0
 28 82  1  0  0  0  0
 29 31  2  0  0  0  0
 29 81  1  0  0  0  0
 30 83  1  0  0  0  0
 31 84  1  0  0  0  0
 32 64  2  0  0  0  0
 33 65  1  0  0  0  0
 33 69  1  0  0  0  0
 34 43  1  0  0  0  0
 34 66  1  0  0  0  0
 34 75  2  0  0  0  0
 35 70  1  0  0  0  0
 35 76  2  0  0  0  0
 36 52  1  0  0  0  0
 36 72  1  0  0  0  0
 36 77  2  0  0  0  0
 37 60  1  0  0  0  0
 37 67  1  0  0  0  0
 37 78  2  0  0  0  0
 38 61  1  0  0  0  0
 38 73  1  0  0  0  0
 38 79  2  0  0  0  0
 39 68  1  0  0  0  0
 39 71  1  0  0  0  0
 39 80  2  0  0  0  0
 40 44  1  0  0  0  0
 41 52  1  0  0  0  0
 42 67  1  0  0  0  0
 43 54  1  0  0  0  0
 44 46  1  0  0  0  0
 45 47  1  0  0  0  0
 45 48  1  0  0  0  0
 46 51  1  0  0  0  0
 47 53  1  0  0  0  0
 48 68  1  0  0  0  0
 49 53  1  0  0  0  0
 49 68  1  0  0  0  0
 50 54  1  0  0  0  0
 50 66  1  0  0  0  0
 51 72  1  0  0  0  0
 52 67  1  0  0  0  0
 53 65  1  0  0  0  0
 54 82  1  0  0  0  0
 55 61  1  0  0  0  0
 56 63  1  0  0  0  0
 57 63  1  0  0  0  0
 58 63  1  0  0  0  0
 59 74  1  0  0  0  0
 60 63  1  0  0  0  0
 60 73  1  0  0  0  0
 61 74  1  0  0  0  0
 62 85  1  0  0  0  0
 62 86  1  0  0  0  0
 62 87  1  0  0  0  0
 64 65  1  0  0  0  0
M  CHG  1  74   1
M  ISO  4  39 100  54 101  71 100  82 101
M  END
> <Batch ID>
0027

> <Smiles>
CNC(C)C(=O)NC(C(=O)N1Cc2cc([101O:1][101CH:1]3CC(=O)N(c4ccc([100NH:0][100C:0](=O)N5CCCC(n6nc(-c7ccc(Oc8ccc(F)cc8F)cc7)c(C(N)=O)c6N)C5)cc4C(F)(F)F)C3)ccc2CC1C(=O)NC1CCCc2ccccc21)C(C)(C)C

> <Shape>
0.322

> <Color>
0.091

> <Negative vol penalty>
0.000

$$$$

  -OEChem-04042321283D

 91101  0     1  0  0  0  0  0999 V2000
  -27.8608  -35.1163   23.6019 C   0  0  0  0  0  0  0  0  0  0  0  0
  -28.0042  -33.7350   23.5191 C   0  0  0  0  0  0  0  0  0  0  0  0
  -22.7757   -9.8077   20.0211 C   0  0  0  0  0  0  0  0  0  0  0  0
  -24.5370   -9.0985   21.5150 C   0  0  0  0  0  0  0  0  0  0  0  0
  -26.5880  -35.6810   23.6715 C   0  0  0  0  0  0  0  0  0  0  0  0
  -26.8746  -32.9174   23.5071 C   0  0  0  0  0  0  0  0  0  0  0  0
  -27.1472  -29.2788   19.9956 C   0  0  0  0  0  0  0  0  0  0  0  0
  -21.8313   -9.1912   20.8418 C   0  0  0  0  0  0  0  0  0  0  0  0
  -23.5926   -8.4819   22.3357 C   0  0  0  0  0  0  0  0  0  0  0  0
  -27.9385  -28.1690   20.2887 C   0  0  0  0  0  0  0  0  0  0  0  0
  -21.8053   -5.6121   22.3573 C   0  0  0  0  0  0  0  0  0  0  0  0
  -22.0903   -4.3282   22.8222 C   0  0  0  0  0  0  0  0  0  0  0  0
  -25.9610  -26.9260   20.8919 C   0  0  0  0  0  0  0  0  0  0  0  0
  -26.7574  -18.8928   20.3992 C   0  0  0  0  0  0  0  0  0  0  0  0
  -24.8280  -20.3142   20.0930 C   0  0  0  0  0  0  0  0  0  0  0  0
  -21.9687   -5.1259   25.0995 C   0  0  0  0  0  0  0  0  0  0  0  0
  -24.1286   -9.7614   20.3577 C   0  0  0  0  0  0  0  0  0  0  0  0
  -25.3694  -10.1138   18.1568 C   0  0  0  0  0  0  0  0  0  0  0  0
  -25.4420  -34.8705   23.6506 C   0  0  0  0  0  0  0  0  0  0  0  0
  -25.7556  -29.2239   20.1590 C   0  0  0  0  0  0  0  0  0  0  0  0
  -25.5852  -33.4717   23.5779 C   0  0  0  0  0  0  0  0  0  0  0  0
  -25.1541  -28.0357   20.5976 C   0  0  0  0  0  0  0  0  0  0  0  0
  -26.1112  -20.1123   20.6013 C   0  0  0  0  0  0  0  0  0  0  0  0
  -24.8374  -18.0772   19.1804 C   0  0  0  0  0  0  0  0  0  0  0  0
  -26.1206  -17.8753   19.6887 C   0  0  0  0  0  0  0  0  0  0  0  0
  -22.2397   -8.5283   21.9991 C   0  0  0  0  0  0  0  0  0  0  0  0
  -27.3457  -26.9933   20.7397 C   0  0  0  0  0  0  0  0  0  0  0  0
  -21.6021   -6.6529   23.2634 C   0  0  0  0  0  0  0  0  0  0  0  0
  -22.1720   -4.0852   24.1933 C   0  0  0  0  0  0  0  0  0  0  0  0
  -21.6837   -6.4098   24.6345 C   0  0  0  0  0  0  0  0  0  0  0  0
  -24.1911  -19.2967   19.3825 C   0  0  0  0  0  0  0  0  0  0  0  0
  -25.1047  -10.3976   19.5100 C   0  0  0  0  0  0  0  0  0  0  0  0
  -26.3747  -10.9845   17.8137 C   0  0  0  0  0  0  0  0  0  0  0  0
  -24.7609   -9.1494   17.2877 C   0  0  0  0  0  0  0  0  0  0  0  0
  -23.6462  -30.7721   21.9639 C   0  0  0  0  0  0  0  0  0  0  0  0
  -21.4969  -29.0873   20.2134 C   0  0  0  0  0  0  0  0  0  0  0  0
  -21.1873  -25.7203   18.9544 C   0  0  0  0  0  0  0  0  0  0  0  0
  -28.0724  -16.3031   19.9433 C   0  0  0  0  0  0  0  0  0  0  0  0
  -24.0884  -35.5238   23.7757 C   0  0  0  0  0  0  0  0  0  0  0  0
  -24.9135  -30.4213   19.8129 C   0  0  0  0  0  0  0  0  0  0  0  0
  -23.6624  -27.9187   20.7704 C   0  0  0  0  0  0  0  0  0  0  0  0
  -22.9318  -34.6096   23.3797 C   0  0  0  0  0  0  0  0  0  0  0  0
  -30.0730  -13.3674   19.7055 C   0  0  0  0  0  0  0  0  0  0  0  0
  -24.2309  -17.0918   14.7287 C   0  0  0  0  0  0  0  0  0  0  0  0
  -23.7546  -15.7062   15.1155 C   0  0  0  0  0  0  0  0  0  0  0  0
  -28.9724  -23.0202   18.7958 C   0  0  0  0  0  0  0  0  0  0  0  0
  -23.0961  -33.2339   24.0179 C   0  0  0  0  0  0  0  0  0  0  0  0
  -29.0504  -12.2476   19.4991 C   0  0  0  0  0  0  0  0  0  0  0  0
  -29.1215  -24.3597   19.5050 C   0  0  0  0  0  0  0  0  0  0  0  0
  -29.5535  -14.4409   20.6601 C   0  0  0  0  0  0  0  0  0  0  0  0
  -27.2197  -13.8818   20.1033 C   0  0  0  0  0  0  0  0  0  0  0  0
  -24.2021  -17.8310   16.0492 C   0  0  0  0  0  0  0  0  0  0  0  0
  -24.4536  -15.4310   16.4352 C   0  0  0  0  0  0  0  0  0  0  0  0
  -28.5686  -21.9148   19.7610 C   0  0  0  0  0  0  0  0  0  0  0  0
  -27.4588  -23.6052   21.2445 C   0  0  0  0  0  0  0  0  0  0  0  0
  -24.3834  -32.5530   23.5373 C   0  0  1  0  0  0  0  0  0  0  0  0
  -23.5549  -30.4170   20.5068 C   0  0  1  0  0  0  0  0  0  0  0  0
  -27.6723  -12.8096   19.0986 C   0  0  2  0  0  0  0  0  0  0  0  0
  -27.8619  -24.7189   20.2870 C   0  0  1  0  0  0  0  0  0  1  0  0
  -19.9573  -24.8327   16.9552 C   0  0  0  0  0  0  0  0  0  0  0  0
  -19.2308  -28.5834   22.1935 C   0  0  0  0  0  0  0  0  0  0  0  0
  -18.7412  -26.4474   20.9827 C   0  0  0  0  0  0  0  0  0  0  0  0
  -18.5282  -28.6301   19.7938 C   0  0  0  0  0  0  0  0  0  0  0  0
  -23.6291  -24.4443   17.8736 C   0  0  0  0  0  0  0  0  0  0  0  0
  -26.7963  -21.2065   21.3656 C   0  0  0  0  0  0  0  0  0  0  0  0
  -24.1637  -16.9771   18.4190 C   0  0  0  0  0  0  0  0  0  0  0  0
  -20.8287  -27.7404   20.3491 C   0  0  1  0  0  0  0  0  0  0  0  0
  -21.3030  -25.2771   17.5071 C   0  0  2  0  0  0  0  0  0  0  0  0
  -19.3581  -27.8553   20.8406 C   0  0  0  0  0  0  0  0  0  0  0  0
  -25.8794  -11.3723   19.9936 N   0  0  0  0  0  0  0  0  0  0  0  0
  -26.6409  -11.7085   18.9385 N   0  0  0  0  0  0  0  0  0  0  0  0
  -22.8826  -29.1187   20.4250 N   0  0  0  0  0  0  0  0  0  0  0  0
  -28.2466  -14.9296   20.2151 N   0  0  0  0  0  0  0  0  0  0  0  0
  -27.0481  -11.1938   16.6625 N   0  0  0  0  0  0  0  0  0  0  0  0
  -23.7425   -8.3352   17.8019 N   0  0  0  0  0  0  0  0  0  0  0  0
  -26.7967  -16.6451   19.4958 N   0  0  0  0  0  0  0  0  0  0  0  0
  -24.2031  -32.0132   22.2067 N   0  0  0  0  0  0  0  0  0  0  0  0
  -20.9770  -27.0792   19.0571 N   0  0  0  0  0  0  0  0  0  0  0  0
  -24.7057  -16.8015   17.0369 N   0  3  0  0  0  0  0  0  0  0  0  0
  -27.3034  -22.3135   20.4829 N   0  3  2  0  0  0  0  0  0  0  0  0
  -22.2584  -24.1395   17.3886 N   0  3  0  0  0  0  0  0  0  0  0  0
  -25.1212   -9.0025   16.0951 O   0  0  0  0  0  0  0  0  0  0  0  0
  -23.2400  -29.9794   22.8056 O   0  0  0  0  0  0  0  0  0  0  0  0
  -20.8156  -30.0738   19.9232 O   0  0  0  0  0  0  0  0  0  0  0  0
  -21.2711  -24.9387   19.8992 O   0  0  0  0  0  0  0  0  0  0  0  0
  -28.9954  -17.1118   20.0702 O   0  0  0  0  0  0  0  0  0  0  0  0
  -21.3184   -7.9267   22.8003 O   0  0  0  0  0  0  0  0  0  0  0  0
  -28.1157  -25.9087   21.0272 O   0  0  0  0  0  0  0  0  0  1  0  0
  -22.4442   -2.8519   24.6396 F   0  0  0  0  0  0  0  0  0  0  0  0
  -21.4882   -7.4054   25.5099 F   0  0  0  0  0  0  0  0  0  0  0  0
  -22.6030  -19.5871   18.7701 Cl  0  0  0  0  0  0  0  0  0  0  0  0
  1  2  1  0  0  0  0
  1  5  2  0  0  0  0
  2  6  2  0  0  0  0
  3  8  2  0  0  0  0
  3 17  1  0  0  0  0
  4  9  1  0  0  0  0
  4 17  2  0  0  0  0
  5 19  1  0  0  0  0
  6 21  1  0  0  0  0
  7 10  2  0  0  0  0
  7 20  1  0  0  0  0
  8 26  1  0  0  0  0
  9 26  2  0  0  0  0
 10 27  1  0  0  0  0
 11 12  2  0  0  0  0
 11 28  1  0  0  0  0
 12 29  1  0  0  0  0
 13 22  1  0  0  0  0
 13 27  2  0  0  0  0
 14 23  2  0  0  0  0
 14 25  1  0  0  0  0
 15 23  1  0  0  0  0
 15 31  2  0  0  0  0
 16 29  2  0  0  0  0
 16 30  1  0  0  0  0
 17 32  1  0  0  0  0
 18 32  1  0  0  0  0
 18 33  2  0  0  0  0
 18 34  1  0  0  0  0
 19 21  2  0  0  0  0
 19 39  1  0  0  0  0
 20 22  2  0  0  0  0
 20 40  1  0  0  0  0
 21 56  1  0  0  0  0
 22 41  1  0  0  0  0
 23 65  1  0  0  0  0
 24 25  2  0  0  0  0
 24 31  1  0  0  0  0
 24 66  1  0  0  0  0
 25 76  1  0  0  0  0
 26 87  1  0  0  0  0
 27 88  1  0  0  0  0
 28 30  2  0  0  0  0
 28 87  1  0  0  0  0
 29 89  1  0  0  0  0
 30 90  1  0  0  0  0
 31 91  1  0  0  0  0
 32 70  2  0  0  0  0
 33 71  1  0  0  0  0
 33 74  1  0  0  0  0
 34 75  1  0  0  0  0
 34 82  2  0  0  0  0
 35 57  1  0  0  0  0
 35 77  1  0  0  0  0
 35 83  2  0  0  0  0
 36 67  1  0  0  0  0
 36 72  1  0  0  0  0
 36 84  2  0  0  0  0
 37 68  1  0  0  0  0
 37 78  1  0  0  0  0
 37 85  2  0  0  0  0
 38 73  1  0  0  0  0
 38 76  1  0  0  0  0
 38 86  2  0  0  0  0
 39 42  1  0  0  0  0
 40 57  1  0  0  0  0
 41 72  1  0  0  0  0
 42 47  1  0  0  0  0
 43 48  1  0  0  0  0
 43 50  1  0  0  0  0
 44 45  1  0  0  0  0
 44 52  1  0  0  0  0
 45 53  1  0  0  0  0
 46 49  1  0  0  0  0
 46 54  1  0  0  0  0
 47 56  1  0  0  0  0
 48 58  1  0  0  0  0
 49 59  1  0  0  0  0
 50 73  1  0  0  0  0
 51 58  1  0  0  0  0
 51 73  1  0  0  0  0
 52 79  1  0  0  0  0
 53 79  1  0  0  0  0
 54 80  1  0  0  0  0
 55 59  1  0  0  0  0
 55 80  1  0  0  0  0
 56 77  1  0  0  0  0
 57 72  1  0  0  0  0
 58 71  1  0  0  0  0
 59 88  1  0  0  0  0
 60 68  1  0  0  0  0
 61 69  1  0  0  0  0
 62 69  1  0  0  0  0
 63 69  1  0  0  0  0
 64 81  1  0  0  0  0
 65 80  1  0  0  0  0
 66 79  1  0  0  0  0
 67 69  1  0  0  0  0
 67 78  1  0  0  0  0
 68 81  1  0  0  0  0
 70 71  1  0  0  0  0
M  CHG  3  79   1  80   1  81   1
M  ISO  4  38 100  59 101  76 100  88 101
M  END
> <Batch ID>
0027

> <Smiles>
CNC(C)C(=O)NC(C(=O)N1Cc2cc([101O:1][101CH:1]3CCCN(Cc4cc(Cl)c(CN5CCCC5)c([100NH:0][100C:0](=O)N5CCCC(n6nc(-c7ccc(Oc8ccc(F)cc8F)cc7)c(C(N)=O)c6N)C5)c4)C3)ccc2CC1C(=O)NC1CCCc2ccccc21)C(C)(C)C

> <Shape>
0.294

> <Color>
0.079

> <Negative vol penalty>
0.000

$$$$

  -OEChem-04042321283D

 86 96  0     1  0  0  0  0  0999 V2000
  -28.2829  -37.2977   25.2839 C   0  0  0  0  0  0  0  0  0  0  0  0
  -28.7332  -36.0841   24.7740 C   0  0  0  0  0  0  0  0  0  0  0  0
  -26.5099  -12.6335   21.4265 C   0  0  0  0  0  0  0  0  0  0  0  0
  -26.1635  -13.3102   19.1332 C   0  0  0  0  0  0  0  0  0  0  0  0
  -26.9740  -37.4140   25.7500 C   0  0  0  0  0  0  0  0  0  0  0  0
  -27.8751  -34.9858   24.7310 C   0  0  0  0  0  0  0  0  0  0  0  0
  -28.6418  -21.2561   15.3241 C   0  0  0  0  0  0  0  0  0  0  0  0
  -27.7087  -30.6095   20.4501 C   0  0  0  0  0  0  0  0  0  0  0  0
  -29.0920  -20.3388   16.2736 C   0  0  0  0  0  0  0  0  0  0  0  0
  -25.2294  -12.0813   21.4570 C   0  0  0  0  0  0  0  0  0  0  0  0
  -24.8830  -12.7579   19.1637 C   0  0  0  0  0  0  0  0  0  0  0  0
  -28.2422  -29.3223   20.4035 C   0  0  0  0  0  0  0  0  0  0  0  0
  -23.7073   -9.2598   20.3824 C   0  0  0  0  0  0  0  0  0  0  0  0
  -23.5606   -7.9939   20.9496 C   0  0  0  0  0  0  0  0  0  0  0  0
  -26.1283  -28.4258   21.1430 C   0  0  0  0  0  0  0  0  0  0  0  0
  -29.3834  -22.1313   17.8670 C   0  0  0  0  0  0  0  0  0  0  0  0
  -22.0400   -8.9055   22.5909 C   0  0  0  0  0  0  0  0  0  0  0  0
  -26.9770  -13.2480   20.2646 C   0  0  0  0  0  0  0  0  0  0  0  0
  -29.4949  -13.1749   19.8617 C   0  0  0  0  0  0  0  0  0  0  0  0
  -26.0965  -36.3193   25.7037 C   0  0  0  0  0  0  0  0  0  0  0  0
  -26.3820  -30.8159   20.8547 C   0  0  0  0  0  0  0  0  0  0  0  0
  -26.5536  -35.0873   25.1981 C   0  0  0  0  0  0  0  0  0  0  0  0
  -28.5625  -22.6110   15.6460 C   0  0  0  0  0  0  0  0  0  0  0  0
  -25.5795  -29.7164   21.1915 C   0  0  0  0  0  0  0  0  0  0  0  0
  -28.9333  -23.0486   16.9174 C   0  0  0  0  0  0  0  0  0  0  0  0
  -29.4627  -20.7764   17.5450 C   0  0  0  0  0  0  0  0  0  0  0  0
  -24.4160  -12.1435   20.3256 C   0  0  0  0  0  0  0  0  0  0  0  0
  -27.4528  -28.2304   20.7527 C   0  0  0  0  0  0  0  0  0  0  0  0
  -23.0204  -10.3486   20.9196 C   0  0  0  0  0  0  0  0  0  0  0  0
  -22.7269   -7.8167   22.0538 C   0  0  0  0  0  0  0  0  0  0  0  0
  -22.1868  -10.1714   22.0238 C   0  0  0  0  0  0  0  0  0  0  0  0
  -28.2995  -13.8191   20.2326 C   0  0  0  0  0  0  0  0  0  0  0  0
  -30.4622  -14.1402   19.9995 C   0  0  0  0  0  0  0  0  0  0  0  0
  -29.7117  -11.8246   19.4311 C   0  0  0  0  0  0  0  0  0  0  0  0
  -24.9829  -32.3695   23.2490 C   0  0  0  0  0  0  0  0  0  0  0  0
  -22.2670  -31.5685   21.6663 C   0  0  0  0  0  0  0  0  0  0  0  0
  -20.7011  -29.4701   19.4774 C   0  0  0  0  0  0  0  0  0  0  0  0
  -30.3260  -20.1112   19.8163 C   0  0  0  0  0  0  0  0  0  0  0  0
  -24.7050  -36.4801   26.2628 C   0  0  0  0  0  0  0  0  0  0  0  0
  -25.8134  -32.2082   20.8741 C   0  0  0  0  0  0  0  0  0  0  0  0
  -24.1432  -29.8825   21.6131 C   0  0  0  0  0  0  0  0  0  0  0  0
  -23.7453  -35.3723   25.8362 C   0  0  0  0  0  0  0  0  0  0  0  0
  -26.5033  -24.2987   13.2245 C   0  0  0  0  0  0  0  0  0  0  0  0
  -31.4809  -18.0892   22.5098 C   0  0  0  0  0  0  0  0  0  0  0  0
  -27.4482  -23.0820   13.2240 C   0  0  0  0  0  0  0  0  0  0  0  0
  -26.6666  -24.3262   14.7564 C   0  0  0  0  0  0  0  0  0  0  0  0
  -24.4016  -34.0051   26.0002 C   0  0  0  0  0  0  0  0  0  0  0  0
  -30.9100  -16.7048   22.1945 C   0  0  0  0  0  0  0  0  0  0  0  0
  -30.5112  -19.2043   22.1224 C   0  0  0  0  0  0  0  0  0  0  0  0
  -29.4558  -17.7678   20.4219 C   0  0  0  0  0  0  0  0  0  0  0  0
  -28.0739  -24.7056   19.5926 C   0  0  0  0  0  0  0  0  0  0  0  0
  -27.5250  -26.2714   18.3240 C   0  0  0  0  0  0  0  0  0  0  0  0
  -28.0485  -23.6346   14.5521 C   0  0  0  0  0  0  0  0  0  0  0  0
  -25.6453  -33.8800   25.1119 C   0  0  1  0  0  0  0  0  0  0  0  0
  -24.6050  -32.3475   21.7949 C   0  0  1  0  0  0  0  0  0  0  0  0
  -30.4235  -16.6148   20.7348 C   0  0  2  0  0  0  0  0  0  0  0  0
  -27.3312  -26.0322   19.8317 C   0  0  0  0  0  0  0  0  0  1  0  0
  -18.4701  -29.0445   18.4101 C   0  0  0  0  0  0  0  0  0  0  0  0
  -21.2526  -30.3559   24.2760 C   0  0  0  0  0  0  0  0  0  0  0  0
  -19.5064  -29.1441   22.9530 C   0  0  0  0  0  0  0  0  0  0  0  0
  -19.5368  -31.6382   22.9852 C   0  0  0  0  0  0  0  0  0  0  0  0
  -21.7899  -29.8980   16.7589 C   0  0  0  0  0  0  0  0  0  0  0  0
  -28.8566  -24.5016   17.2832 C   0  0  0  0  0  0  0  0  0  0  0  0
  -21.3197  -30.3934   21.6953 C   0  0  1  0  0  0  0  0  0  0  0  0
  -19.8128  -29.7462   18.2777 C   0  0  2  0  0  0  0  0  0  0  0  0
  -20.4315  -30.3796   22.9713 C   0  0  0  0  0  0  0  0  0  0  0  0
  -28.4877  -15.0950   20.5801 N   0  0  0  0  0  0  0  0  0  0  0  0
  -29.8127  -15.2602   20.4282 N   0  0  0  0  0  0  0  0  0  0  0  0
  -23.6350  -31.2642   21.6222 N   0  0  0  0  0  0  0  0  0  0  0  0
  -30.0968  -19.0569   20.7255 N   0  0  0  0  0  0  0  0  0  0  0  0
  -31.7965  -14.1317   19.7947 N   0  0  0  0  0  0  0  0  0  0  0  0
  -28.6077  -10.9654   19.3451 N   0  0  0  0  0  0  0  0  0  0  0  0
  -29.9195  -19.8441   18.5094 N   0  0  0  0  0  0  0  0  0  0  0  0
  -25.2626  -33.6310   23.7386 N   0  0  0  0  0  0  0  0  0  0  0  0
  -20.5691  -30.4433   20.4453 N   0  0  0  0  0  0  0  0  0  0  0  0
  -27.7133  -24.8172   18.1673 N   0  3  0  0  0  0  0  0  0  0  0  0
  -20.4696  -29.2719   17.0268 N   0  3  0  0  0  0  0  0  0  0  0  0
  -30.8529  -11.3881   19.1471 O   0  0  0  0  0  0  0  0  0  0  0  0
  -25.0166  -31.3198   23.8805 O   0  0  0  0  0  0  0  0  0  0  0  0
  -21.8098  -32.7142   21.6750 O   0  0  0  0  0  0  0  0  0  0  0  0
  -21.4355  -28.4874   19.5503 O   0  0  0  0  0  0  0  0  0  0  0  0
  -30.8694  -21.1624   20.1652 O   0  0  0  0  0  0  0  0  0  0  0  0
  -23.1665  -11.6045   20.3549 O   0  0  0  0  0  0  0  0  0  0  0  0
  -27.9713  -26.9730   20.7086 O   0  0  0  0  0  0  0  0  0  1  0  0
  -22.5849   -6.6008   22.5973 F   0  0  0  0  0  0  0  0  0  0  0  0
  -21.5234  -11.2133   22.5435 F   0  0  0  0  0  0  0  0  0  0  0  0
  1  2  1  0  0  0  0
  1  5  2  0  0  0  0
  2  6  2  0  0  0  0
  3 10  2  0  0  0  0
  3 18  1  0  0  0  0
  4 11  1  0  0  0  0
  4 18  2  0  0  0  0
  5 20  1  0  0  0  0
  6 22  1  0  0  0  0
  7  9  2  0  0  0  0
  7 23  1  0  0  0  0
  8 12  2  0  0  0  0
  8 21  1  0  0  0  0
  9 26  1  0  0  0  0
 10 27  1  0  0  0  0
 11 27  2  0  0  0  0
 12 28  1  0  0  0  0
 13 14  2  0  0  0  0
 13 29  1  0  0  0  0
 14 30  1  0  0  0  0
 15 24  1  0  0  0  0
 15 28  2  0  0  0  0
 16 25  1  0  0  0  0
 16 26  2  0  0  0  0
 17 30  2  0  0  0  0
 17 31  1  0  0  0  0
 18 32  1  0  0  0  0
 19 32  1  0  0  0  0
 19 33  2  0  0  0  0
 19 34  1  0  0  0  0
 20 22  2  0  0  0  0
 20 39  1  0  0  0  0
 21 24  2  0  0  0  0
 21 40  1  0  0  0  0
 22 54  1  0  0  0  0
 23 25  2  0  0  0  0
 23 53  1  0  0  0  0
 24 41  1  0  0  0  0
 25 63  1  0  0  0  0
 26 73  1  0  0  0  0
 27 83  1  0  0  0  0
 28 84  1  0  0  0  0
 29 31  2  0  0  0  0
 29 83  1  0  0  0  0
 30 85  1  0  0  0  0
 31 86  1  0  0  0  0
 32 67  2  0  0  0  0
 33 68  1  0  0  0  0
 33 71  1  0  0  0  0
 34 72  1  0  0  0  0
 34 78  2  0  0  0  0
 35 55  1  0  0  0  0
 35 74  1  0  0  0  0
 35 79  2  0  0  0  0
 36 64  1  0  0  0  0
 36 69  1  0  0  0  0
 36 80  2  0  0  0  0
 37 65  1  0  0  0  0
 37 75  1  0  0  0  0
 37 81  2  0  0  0  0
 38 70  1  0  0  0  0
 38 73  1  0  0  0  0
 38 82  2  0  0  0  0
 39 42  1  0  0  0  0
 40 55  1  0  0  0  0
 41 69  1  0  0  0  0
 42 47  1  0  0  0  0
 43 45  1  0  0  0  0
 43 46  1  0  0  0  0
 44 48  1  0  0  0  0
 44 49  1  0  0  0  0
 45 53  1  0  0  0  0
 46 53  1  0  0  0  0
 47 54  1  0  0  0  0
 48 56  1  0  0  0  0
 49 70  1  0  0  0  0
 50 56  1  0  0  0  0
 50 70  1  0  0  0  0
 51 57  1  0  0  0  0
 51 76  1  0  0  0  0
 52 57  1  0  0  0  0
 52 76  1  0  0  0  0
 54 74  1  0  0  0  0
 55 69  1  0  0  0  0
 56 68  1  0  0  0  0
 57 84  1  0  0  0  0
 58 65  1  0  0  0  0
 59 66  1  0  0  0  0
 60 66  1  0  0  0  0
 61 66  1  0  0  0  0
 62 77  1  0  0  0  0
 63 76  1  0  0  0  0
 64 66  1  0  0  0  0
 64 75  1  0  0  0  0
 65 77  1  0  0  0  0
 67 68  1  0  0  0  0
M  CHG  2  76   1  77   1
M  ISO  4  38 100  57 101  73 100  84 101
M  END
> <Batch ID>
0027

> <Smiles>
CNC(C)C(=O)NC(C(=O)N1Cc2cc([101O:1][101CH:1]3CN(Cc4cc([100NH:0][100C:0](=O)N5CCCC(n6nc(-c7ccc(Oc8ccc(F)cc8F)cc7)c(C(N)=O)c6N)C5)ccc4C4CCC4)C3)ccc2CC1C(=O)NC1CCCc2ccccc21)C(C)(C)C

> <Shape>
0.314

> <Color>
0.074

> <Negative vol penalty>
0.000

$$$$

  -OEChem-04042321283D

 84 93  0     1  0  0  0  0  0999 V2000
  -24.9626  -29.0731   19.3147 C   0  0  0  0  0  0  0  0  0  0  0  0
  -25.9893  -28.4490   18.6134 C   0  0  0  0  0  0  0  0  0  0  0  0
  -19.2588  -22.2199   21.8889 C   0  0  0  0  0  0  0  0  0  0  0  0
  -20.8758  -21.6677   23.5970 C   0  0  0  0  0  0  0  0  0  0  0  0
  -24.9242  -28.9976   20.7064 C   0  0  0  0  0  0  0  0  0  0  0  0
  -26.9789  -27.7499   19.3036 C   0  0  0  0  0  0  0  0  0  0  0  0
  -29.2874  -20.3225   18.5750 C   0  0  0  0  0  0  0  0  0  0  0  0
  -24.3169  -13.3789   20.0648 C   0  0  0  0  0  0  0  0  0  0  0  0
  -25.6249  -13.7291   19.7299 C   0  0  0  0  0  0  0  0  0  0  0  0
  -19.0119  -23.4405   22.5171 C   0  0  0  0  0  0  0  0  0  0  0  0
  -20.6289  -22.8884   24.2252 C   0  0  0  0  0  0  0  0  0  0  0  0
  -29.6748  -18.9843   18.6483 C   0  0  0  0  0  0  0  0  0  0  0  0
  -18.2190  -26.8572   23.4723 C   0  0  0  0  0  0  0  0  0  0  0  0
  -18.1484  -27.9966   22.6707 C   0  0  0  0  0  0  0  0  0  0  0  0
  -30.3158  -19.2854   20.9605 C   0  0  0  0  0  0  0  0  0  0  0  0
  -25.1445  -12.0409   21.8983 C   0  0  0  0  0  0  0  0  0  0  0  0
  -20.4163  -27.6158   21.9299 C   0  0  0  0  0  0  0  0  0  0  0  0
  -20.1907  -21.3334   22.4289 C   0  0  0  0  0  0  0  0  0  0  0  0
  -21.4059  -19.8063   20.7861 C   0  0  0  0  0  0  0  0  0  0  0  0
  -25.9085  -28.2891   21.4133 C   0  0  0  0  0  0  0  0  0  0  0  0
  -29.3984  -21.1442   19.7001 C   0  0  0  0  0  0  0  0  0  0  0  0
  -26.9544  -27.6660   20.7061 C   0  0  0  0  0  0  0  0  0  0  0  0
  -29.9177  -20.6233   20.8967 C   0  0  0  0  0  0  0  0  0  0  0  0
  -24.0767  -12.5349   21.1490 C   0  0  0  0  0  0  0  0  0  0  0  0
  -26.6927  -13.2351   20.4791 C   0  0  0  0  0  0  0  0  0  0  0  0
  -26.4525  -12.3910   21.5634 C   0  0  0  0  0  0  0  0  0  0  0  0
  -19.6970  -23.7748   23.6853 C   0  0  0  0  0  0  0  0  0  0  0  0
  -30.1880  -18.4671   19.8380 C   0  0  0  0  0  0  0  0  0  0  0  0
  -19.3883  -26.0972   23.5027 C   0  0  0  0  0  0  0  0  0  0  0  0
  -19.2471  -28.3759   21.8995 C   0  0  0  0  0  0  0  0  0  0  0  0
  -20.4869  -26.4765   22.7315 C   0  0  0  0  0  0  0  0  0  0  0  0
  -20.4457  -20.0721   21.7807 C   0  0  0  0  0  0  0  0  0  0  0  0
  -21.2483  -18.4712   20.5048 C   0  0  0  0  0  0  0  0  0  0  0  0
  -22.3554  -20.6874   20.1714 C   0  0  0  0  0  0  0  0  0  0  0  0
  -28.8801  -24.5494   21.1874 C   0  0  0  0  0  0  0  0  0  0  0  0
  -28.0572  -22.5088   23.3249 C   0  0  0  0  0  0  0  0  0  0  0  0
  -26.8570  -19.9567   25.2442 C   0  0  0  0  0  0  0  0  0  0  0  0
  -20.5262  -13.1969   22.1801 C   0  0  0  0  0  0  0  0  0  0  0  0
  -25.8513  -28.2751   22.9204 C   0  0  0  0  0  0  0  0  0  0  0  0
  -29.0508  -22.6072   19.6493 C   0  0  0  0  0  0  0  0  0  0  0  0
  -30.0514  -21.5532   22.0716 C   0  0  0  0  0  0  0  0  0  0  0  0
  -26.7300  -27.1992   23.5533 C   0  0  0  0  0  0  0  0  0  0  0  0
  -17.6167  -15.2254   21.8697 C   0  0  0  0  0  0  0  0  0  0  0  0
  -28.1154  -27.1976   22.9148 C   0  0  0  0  0  0  0  0  0  0  0  0
  -18.1723  -16.6450   21.7432 C   0  0  0  0  0  0  0  0  0  0  0  0
  -18.4478  -14.3776   22.8301 C   0  0  0  0  0  0  0  0  0  0  0  0
  -20.4464  -15.7544   22.4019 C   0  0  0  0  0  0  0  0  0  0  0  0
  -30.1219  -14.8191   20.7591 C   0  0  0  0  0  0  0  0  0  0  0  0
  -28.4135  -16.0051   20.5662 C   0  0  0  0  0  0  0  0  0  0  0  0
  -28.0324  -26.8773   21.4175 C   0  0  1  0  0  0  0  0  0  0  0  0
  -28.4471  -23.1301   20.9651 C   0  0  1  0  0  0  0  0  0  0  0  0
  -19.6742  -16.6309   21.4009 C   0  0  2  0  0  0  0  0  0  0  0  0
  -29.8854  -16.3359   20.8691 C   0  0  0  0  0  0  0  0  0  1  0  0
  -27.5800  -11.8498   22.3798 C   0  0  0  0  0  0  0  0  0  0  0  0
  -25.7767  -19.5003   27.4628 C   0  0  0  0  0  0  0  0  0  0  0  0
  -30.7442  -22.9101   24.7117 C   0  0  0  0  0  0  0  0  0  0  0  0
  -29.8719  -21.5658   26.6353 C   0  0  0  0  0  0  0  0  0  0  0  0
  -28.7668  -23.7143   26.0147 C   0  0  0  0  0  0  0  0  0  0  0  0
  -24.4434  -18.8174   23.9653 C   0  0  0  0  0  0  0  0  0  0  0  0
  -22.6782  -12.1602   21.5066 C   0  0  0  0  0  0  0  0  0  0  0  0
  -28.0908  -13.6247   20.0991 C   0  0  0  0  0  0  0  0  0  0  0  0
  -28.4744  -21.6941   24.5231 C   0  0  1  0  0  0  0  0  0  0  0  0
  -25.5443  -19.7862   25.9873 C   0  0  2  0  0  0  0  0  0  0  0  0
  -29.4647  -22.4601   25.4449 C   0  0  0  0  0  0  0  0  0  0  0  0
  -19.7310  -18.9926   22.1090 N   0  0  0  0  0  0  0  0  0  0  0  0
  -20.2423  -18.0355   21.3162 N   0  0  0  0  0  0  0  0  0  0  0  0
  -28.8547  -22.4024   22.1789 N   0  0  0  0  0  0  0  0  0  0  0  0
  -19.8620  -14.4050   22.4491 N   0  0  0  0  0  0  0  0  0  0  0  0
  -21.8735  -17.6391   19.6451 N   0  0  0  0  0  0  0  0  0  0  0  0
  -22.3829  -22.0284   20.5778 N   0  0  0  0  0  0  0  0  0  0  0  0
  -27.8390  -25.4576   21.2143 N   0  0  0  0  0  0  0  0  0  0  0  0
  -27.2417  -21.2795   25.1841 N   0  0  0  0  0  0  0  0  0  0  0  0
  -21.8632  -13.3129   21.8197 N   0  0  0  0  0  0  0  0  0  0  0  0
  -28.6824  -14.6259   21.0135 N   0  3  0  0  0  0  0  0  0  0  0  0
  -24.7636  -18.6571   25.4071 N   0  3  0  0  0  0  0  0  0  0  0  0
  -23.1446  -20.3009   19.2763 O   0  0  0  0  0  0  0  0  0  0  0  0
  -30.0709  -24.8031   21.3259 O   0  0  0  0  0  0  0  0  0  0  0  0
  -27.0552  -23.2252   23.4020 O   0  0  0  0  0  0  0  0  0  0  0  0
  -27.4808  -19.0108   24.7683 O   0  0  0  0  0  0  0  0  0  0  0  0
  -19.9677  -12.0969   22.2503 O   0  0  0  0  0  0  0  0  0  0  0  0
  -19.4565  -24.9659   24.2985 O   0  0  0  0  0  0  0  0  0  0  0  0
  -30.5601  -17.1587   19.9039 O   0  0  0  0  0  0  0  0  0  1  0  0
  -19.1786  -29.4691   21.1286 F   0  0  0  0  0  0  0  0  0  0  0  0
  -21.6125  -25.7497   22.7557 F   0  0  0  0  0  0  0  0  0  0  0  0
  1  2  1  0  0  0  0
  1  5  2  0  0  0  0
  2  6  2  0  0  0  0
  3 10  2  0  0  0  0
  3 18  1  0  0  0  0
  4 11  1  0  0  0  0
  4 18  2  0  0  0  0
  5 20  1  0  0  0  0
  6 22  1  0  0  0  0
  7 12  2  0  0  0  0
  7 21  1  0  0  0  0
  8  9  2  0  0  0  0
  8 24  1  0  0  0  0
  9 25  1  0  0  0  0
 10 27  1  0  0  0  0
 11 27  2  0  0  0  0
 12 28  1  0  0  0  0
 13 14  2  0  0  0  0
 13 29  1  0  0  0  0
 14 30  1  0  0  0  0
 15 23  1  0  0  0  0
 15 28  2  0  0  0  0
 16 24  2  0  0  0  0
 16 26  1  0  0  0  0
 17 30  2  0  0  0  0
 17 31  1  0  0  0  0
 18 32  1  0  0  0  0
 19 32  1  0  0  0  0
 19 33  2  0  0  0  0
 19 34  1  0  0  0  0
 20 22  2  0  0  0  0
 20 39  1  0  0  0  0
 21 23  2  0  0  0  0
 21 40  1  0  0  0  0
 22 50  1  0  0  0  0
 23 41  1  0  0  0  0
 24 60  1  0  0  0  0
 25 26  2  0  0  0  0
 25 61  1  0  0  0  0
 26 54  1  0  0  0  0
 27 81  1  0  0  0  0
 28 82  1  0  0  0  0
 29 31  2  0  0  0  0
 29 81  1  0  0  0  0
 30 83  1  0  0  0  0
 31 84  1  0  0  0  0
 32 65  2  0  0  0  0
 33 66  1  0  0  0  0
 33 69  1  0  0  0  0
 34 70  1  0  0  0  0
 34 76  2  0  0  0  0
 35 51  1  0  0  0  0
 35 71  1  0  0  0  0
 35 77  2  0  0  0  0
 36 62  1  0  0  0  0
 36 67  1  0  0  0  0
 36 78  2  0  0  0  0
 37 63  1  0  0  0  0
 37 72  1  0  0  0  0
 37 79  2  0  0  0  0
 38 68  1  0  0  0  0
 38 73  1  0  0  0  0
 38 80  2  0  0  0  0
 39 42  1  0  0  0  0
 40 51  1  0  0  0  0
 41 67  1  0  0  0  0
 42 44  1  0  0  0  0
 43 45  1  0  0  0  0
 43 46  1  0  0  0  0
 44 50  1  0  0  0  0
 45 52  1  0  0  0  0
 46 68  1  0  0  0  0
 47 52  1  0  0  0  0
 47 68  1  0  0  0  0
 48 53  1  0  0  0  0
 48 74  1  0  0  0  0
 49 53  1  0  0  0  0
 49 74  1  0  0  0  0
 50 71  1  0  0  0  0
 51 67  1  0  0  0  0
 52 66  1  0  0  0  0
 53 82  1  0  0  0  0
 55 63  1  0  0  0  0
 56 64  1  0  0  0  0
 57 64  1  0  0  0  0
 58 64  1  0  0  0  0
 59 75  1  0  0  0  0
 60 73  1  0  0  0  0
 61 74  1  0  0  0  0
 62 64  1  0  0  0  0
 62 72  1  0  0  0  0
 63 75  1  0  0  0  0
 65 66  1  0  0  0  0
M  CHG  2  74   1  75   1
M  ISO  4  38 100  53 101  73 100  82 101
M  END
> <Batch ID>
0027

> <Smiles>
CNC(C)C(=O)NC(C(=O)N1Cc2cc([101O:1][101CH:1]3CN(Cc4ccc(C[100NH:0][100C:0](=O)N5CCCC(n6nc(-c7ccc(Oc8ccc(F)cc8F)cc7)c(C(N)=O)c6N)C5)cc4C)C3)ccc2CC1C(=O)NC1CCCc2ccccc21)C(C)(C)C

> <Shape>
0.187

> <Color>
0.079

> <Negative vol penalty>
0.000

$$$$

  -OEChem-04042321283D

 84 93  0     1  0  0  0  0  0999 V2000
  -17.3035  -27.1304   28.2436 C   0  0  0  0  0  0  0  0  0  0  0  0
  -18.1258  -26.0138   28.1309 C   0  0  0  0  0  0  0  0  0  0  0  0
  -23.9015  -12.8352   24.1693 C   0  0  0  0  0  0  0  0  0  0  0  0
  -24.4805  -10.5957   23.4718 C   0  0  0  0  0  0  0  0  0  0  0  0
  -17.1039  -27.9616   27.1422 C   0  0  0  0  0  0  0  0  0  0  0  0
  -18.7480  -25.7273   26.9163 C   0  0  0  0  0  0  0  0  0  0  0  0
  -24.7636  -22.8874   24.2586 C   0  0  0  0  0  0  0  0  0  0  0  0
  -27.3395  -17.4663   18.4304 C   0  0  0  0  0  0  0  0  0  0  0  0
  -25.9764  -17.7056   18.6037 C   0  0  0  0  0  0  0  0  0  0  0  0
  -23.4001  -12.3317   25.3695 C   0  0  0  0  0  0  0  0  0  0  0  0
  -23.9791  -10.0922   24.6721 C   0  0  0  0  0  0  0  0  0  0  0  0
  -25.1874  -21.9179   23.3508 C   0  0  0  0  0  0  0  0  0  0  0  0
  -20.5906  -10.7893   26.4430 C   0  0  0  0  0  0  0  0  0  0  0  0
  -19.3602  -11.2753   26.8850 C   0  0  0  0  0  0  0  0  0  0  0  0
  -24.8325  -23.4689   21.5377 C   0  0  0  0  0  0  0  0  0  0  0  0
  -27.8282  -18.8696   20.3354 C   0  0  0  0  0  0  0  0  0  0  0  0
  -20.4062  -12.0848   28.9068 C   0  0  0  0  0  0  0  0  0  0  0  0
  -24.4417  -11.9671   23.2203 C   0  0  0  0  0  0  0  0  0  0  0  0
  -24.2537  -13.2132   21.0023 C   0  0  0  0  0  0  0  0  0  0  0  0
  -17.7317  -27.6906   25.9162 C   0  0  0  0  0  0  0  0  0  0  0  0
  -24.3601  -24.1536   23.8110 C   0  0  0  0  0  0  0  0  0  0  0  0
  -18.5555  -26.5550   25.7971 C   0  0  0  0  0  0  0  0  0  0  0  0
  -24.4065  -24.4537   22.4421 C   0  0  0  0  0  0  0  0  0  0  0  0
  -28.2655  -18.0483   19.2962 C   0  0  0  0  0  0  0  0  0  0  0  0
  -25.5391  -18.5270   19.6429 C   0  0  0  0  0  0  0  0  0  0  0  0
  -26.4650  -19.1090   20.5087 C   0  0  0  0  0  0  0  0  0  0  0  0
  -23.4389  -10.9603   25.6210 C   0  0  0  0  0  0  0  0  0  0  0  0
  -25.2192  -22.2076   21.9899 C   0  0  0  0  0  0  0  0  0  0  0  0
  -21.7289  -10.9510   27.2329 C   0  0  0  0  0  0  0  0  0  0  0  0
  -19.2680  -11.9230   28.1169 C   0  0  0  0  0  0  0  0  0  0  0  0
  -21.6367  -11.5988   28.4648 C   0  0  0  0  0  0  0  0  0  0  0  0
  -24.9593  -12.4865   21.9800 C   0  0  0  0  0  0  0  0  0  0  0  0
  -25.1860  -13.4719   20.0274 C   0  0  0  0  0  0  0  0  0  0  0  0
  -22.8786  -13.6183   20.9777 C   0  0  0  0  0  0  0  0  0  0  0  0
  -31.1823  -13.8261   20.2023 C   0  0  0  0  0  0  0  0  0  0  0  0
  -21.6517  -25.8138   23.9217 C   0  0  0  0  0  0  0  0  0  0  0  0
  -23.4950  -28.1622   22.6530 C   0  0  0  0  0  0  0  0  0  0  0  0
  -26.2763  -29.0177   20.8700 C   0  0  0  0  0  0  0  0  0  0  0  0
  -17.4480  -28.5916   24.7405 C   0  0  0  0  0  0  0  0  0  0  0  0
  -23.9309  -25.1973   24.8054 C   0  0  0  0  0  0  0  0  0  0  0  0
  -24.0028  -25.8045   21.9122 C   0  0  0  0  0  0  0  0  0  0  0  0
  -18.4418  -28.4273   23.5935 C   0  0  0  0  0  0  0  0  0  0  0  0
  -29.1892  -11.7144   18.1028 C   0  0  0  0  0  0  0  0  0  0  0  0
  -18.6692  -26.9495   23.2917 C   0  0  0  0  0  0  0  0  0  0  0  0
  -27.8222  -11.7163   18.7859 C   0  0  0  0  0  0  0  0  0  0  0  0
  -32.1364  -15.8843   21.2054 C   0  0  0  0  0  0  0  0  0  0  0  0
  -30.3227  -11.7748   19.1218 C   0  0  0  0  0  0  0  0  0  0  0  0
  -28.8640  -12.9334   20.7502 C   0  0  0  0  0  0  0  0  0  0  0  0
  -31.8473  -16.9221   20.1415 C   0  0  0  0  0  0  0  0  0  0  0  0
  -29.7571  -15.8134   20.6864 C   0  0  0  0  0  0  0  0  0  0  0  0
  -19.2676  -26.2247   24.5034 C   0  0  1  0  0  0  0  0  0  0  0  0
  -30.9294  -14.9566   21.1541 C   0  0  1  0  0  0  0  0  0  0  0  0
  -23.0534  -26.2833   24.1907 C   0  0  1  0  0  0  0  0  0  0  0  0
  -27.6903  -12.9043   19.7553 C   0  0  2  0  0  0  0  0  0  0  0  0
  -24.0747  -18.7695   19.8080 C   0  0  0  0  0  0  0  0  0  0  0  0
  -27.4973  -31.0130   19.9617 C   0  0  0  0  0  0  0  0  0  0  0  0
  -21.4229  -28.4141   20.4275 C   0  0  0  0  0  0  0  0  0  0  0  0
  -23.1134  -29.6907   19.0931 C   0  0  0  0  0  0  0  0  0  0  0  0
  -22.3118  -30.5920   21.2767 C   0  0  0  0  0  0  0  0  0  0  0  0
  -28.6915  -28.4134   22.4701 C   0  0  0  0  0  0  0  0  0  0  0  0
  -29.7229  -17.7927   19.1104 C   0  0  0  0  0  0  0  0  0  0  0  0
  -26.0181  -19.9961   21.6333 C   0  0  0  0  0  0  0  0  0  1  0  0
  -23.8621  -28.5950   21.2542 C   0  0  1  0  0  0  0  0  0  0  0  0
  -27.3613  -30.0473   21.1286 C   0  0  2  0  0  0  0  0  0  0  0  0
  -22.6834  -29.2967   20.5224 C   0  0  0  0  0  0  0  0  0  0  0  0
  -26.2409  -12.2956   21.6557 N   0  0  0  0  0  0  0  0  0  0  0  0
  -26.3479  -12.9061   20.4633 N   0  0  0  0  0  0  0  0  0  0  0  0
  -30.1491  -12.9034   20.0379 N   0  0  0  0  0  0  0  0  0  0  0  0
  -23.5847  -26.7894   22.9235 N   0  0  0  0  0  0  0  0  0  0  0  0
  -25.1170  -14.1258   18.8484 N   0  0  0  0  0  0  0  0  0  0  0  0
  -22.0598  -13.2695   22.0604 N   0  0  0  0  0  0  0  0  0  0  0  0
  -20.6817  -26.5113   24.6160 N   0  0  0  0  0  0  0  0  0  0  0  0
  -25.0602  -29.4174   21.3826 N   0  0  0  0  0  0  0  0  0  0  0  0
  -30.3665  -17.1437   20.2920 N   0  3  2  0  0  0  0  0  0  0  0  0
  -28.6746  -29.3746   21.3375 N   0  3  0  0  0  0  0  0  0  0  0  0
  -22.3864  -14.2561   20.0162 O   0  0  0  0  0  0  0  0  0  0  0  0
  -32.2665  -13.7632   19.6169 O   0  0  0  0  0  0  0  0  0  0  0  0
  -21.4639  -24.8881   23.1409 O   0  0  0  0  0  0  0  0  0  0  0  0
  -23.1484  -29.0117   23.4775 O   0  0  0  0  0  0  0  0  0  0  0  0
  -26.4856  -27.9658   20.2698 O   0  0  0  0  0  0  0  0  0  0  0  0
  -22.9499  -10.4687   26.7923 O   0  0  0  0  0  0  0  0  0  0  0  0
  -25.6318  -21.2628   21.1016 O   0  0  0  0  0  0  0  0  0  1  0  0
  -18.0866  -12.3910   28.5406 F   0  0  0  0  0  0  0  0  0  0  0  0
  -22.7270  -11.7582   29.2275 F   0  0  0  0  0  0  0  0  0  0  0  0
  1  2  1  0  0  0  0
  1  5  2  0  0  0  0
  2  6  2  0  0  0  0
  3 10  2  0  0  0  0
  3 18  1  0  0  0  0
  4 11  1  0  0  0  0
  4 18  2  0  0  0  0
  5 20  1  0  0  0  0
  6 22  1  0  0  0  0
  7 12  2  0  0  0  0
  7 21  1  0  0  0  0
  8  9  2  0  0  0  0
  8 24  1  0  0  0  0
  9 25  1  0  0  0  0
 10 27  1  0  0  0  0
 11 27  2  0  0  0  0
 12 28  1  0  0  0  0
 13 14  2  0  0  0  0
 13 29  1  0  0  0  0
 14 30  1  0  0  0  0
 15 23  1  0  0  0  0
 15 28  2  0  0  0  0
 16 24  2  0  0  0  0
 16 26  1  0  0  0  0
 17 30  2  0  0  0  0
 17 31  1  0  0  0  0
 18 32  1  0  0  0  0
 19 32  1  0  0  0  0
 19 33  2  0  0  0  0
 19 34  1  0  0  0  0
 20 22  2  0  0  0  0
 20 39  1  0  0  0  0
 21 23  2  0  0  0  0
 21 40  1  0  0  0  0
 22 51  1  0  0  0  0
 23 41  1  0  0  0  0
 24 61  1  0  0  0  0
 25 26  2  0  0  0  0
 25 55  1  0  0  0  0
 26 62  1  0  0  0  0
 27 81  1  0  0  0  0
 28 82  1  0  0  0  0
 29 31  2  0  0  0  0
 29 81  1  0  0  0  0
 30 83  1  0  0  0  0
 31 84  1  0  0  0  0
 32 66  2  0  0  0  0
 33 67  1  0  0  0  0
 33 70  1  0  0  0  0
 34 71  1  0  0  0  0
 34 76  2  0  0  0  0
 35 52  1  0  0  0  0
 35 68  1  0  0  0  0
 35 77  2  0  0  0  0
 36 53  1  0  0  0  0
 36 72  1  0  0  0  0
 36 78  2  0  0  0  0
 37 63  1  0  0  0  0
 37 69  1  0  0  0  0
 37 79  2  0  0  0  0
 38 64  1  0  0  0  0
 38 73  1  0  0  0  0
 38 80  2  0  0  0  0
 39 42  1  0  0  0  0
 40 53  1  0  0  0  0
 41 69  1  0  0  0  0
 42 44  1  0  0  0  0
 43 45  1  0  0  0  0
 43 47  1  0  0  0  0
 44 51  1  0  0  0  0
 45 54  1  0  0  0  0
 46 49  1  0  0  0  0
 46 52  1  0  0  0  0
 47 68  1  0  0  0  0
 48 54  1  0  0  0  0
 48 68  1  0  0  0  0
 49 74  1  0  0  0  0
 50 52  1  0  0  0  0
 50 74  1  0  0  0  0
 51 72  1  0  0  0  0
 53 69  1  0  0  0  0
 54 67  1  0  0  0  0
 56 64  1  0  0  0  0
 57 65  1  0  0  0  0
 58 65  1  0  0  0  0
 59 65  1  0  0  0  0
 60 75  1  0  0  0  0
 61 74  1  0  0  0  0
 62 82  1  0  0  0  0
 63 65  1  0  0  0  0
 63 73  1  0  0  0  0
 64 75  1  0  0  0  0
 66 67  1  0  0  0  0
M  CHG  2  74   1  75   1
M  ISO  4  35 100  52 100  62 101  82 101
M  END
> <Batch ID>
0027

> <Smiles>
CNC(C)C(=O)NC(C(=O)N1Cc2cc([101O:1][101CH2:1]c3cc(CN4CC[100CH:0]([100C:0](=O)N5CCCC(n6nc(-c7ccc(Oc8ccc(F)cc8F)cc7)c(C(N)=O)c6N)C5)C4)ccc3C)ccc2CC1C(=O)NC1CCCc2ccccc21)C(C)(C)C

> <Shape>
0.206

> <Color>
0.086

> <Negative vol penalty>
0.000

$$$$

  -OEChem-04042321283D

 90100  0     1  0  0  0  0  0999 V2000
  -16.5899  -29.9230   23.4191 C   0  0  0  0  0  0  0  0  0  0  0  0
  -17.6767  -30.7500   23.6796 C   0  0  0  0  0  0  0  0  0  0  0  0
  -31.4699  -15.7370   21.7424 C   0  0  0  0  0  0  0  0  0  0  0  0
  -32.2880  -15.7131   19.4693 C   0  0  0  0  0  0  0  0  0  0  0  0
  -16.8018  -28.6083   23.0094 C   0  0  0  0  0  0  0  0  0  0  0  0
  -18.9756  -30.2663   23.5191 C   0  0  0  0  0  0  0  0  0  0  0  0
  -27.1027  -29.1692   22.0530 C   0  0  0  0  0  0  0  0  0  0  0  0
  -25.2950  -25.7440   23.6301 C   0  0  0  0  0  0  0  0  0  0  0  0
  -25.6370  -24.8357   22.6282 C   0  0  0  0  0  0  0  0  0  0  0  0
  -31.7845  -14.3841   21.8700 C   0  0  0  0  0  0  0  0  0  0  0  0
  -32.6027  -14.3602   19.5968 C   0  0  0  0  0  0  0  0  0  0  0  0
  -27.8678  -28.1532   21.4819 C   0  0  0  0  0  0  0  0  0  0  0  0
  -32.0413  -10.8472   22.6747 C   0  0  0  0  0  0  0  0  0  0  0  0
  -31.0958  -10.0133   23.2715 C   0  0  0  0  0  0  0  0  0  0  0  0
  -26.1674  -27.8249   19.8026 C   0  0  0  0  0  0  0  0  0  0  0  0
  -27.9519  -24.9558   23.3095 C   0  0  0  0  0  0  0  0  0  0  0  0
  -29.5043  -10.5824   21.5451 C   0  0  0  0  0  0  0  0  0  0  0  0
  -31.7215  -16.4015   20.5421 C   0  0  0  0  0  0  0  0  0  0  0  0
  -32.2291  -18.8967   20.6975 C   0  0  0  0  0  0  0  0  0  0  0  0
  -18.1043  -28.1052   22.8561 C   0  0  0  0  0  0  0  0  0  0  0  0
  -25.8571  -29.5138   21.5088 C   0  0  0  0  0  0  0  0  0  0  0  0
  -19.2101  -28.9495   23.0834 C   0  0  0  0  0  0  0  0  0  0  0  0
  -25.3896  -28.8473   20.3672 C   0  0  0  0  0  0  0  0  0  0  0  0
  -27.6099  -25.8641   24.3114 C   0  0  0  0  0  0  0  0  0  0  0  0
  -26.2815  -26.2582   24.4716 C   0  0  0  0  0  0  0  0  0  0  0  0
  -26.9654  -24.4416   22.4679 C   0  0  0  0  0  0  0  0  0  0  0  0
  -32.3510  -13.6957   20.7972 C   0  0  0  0  0  0  0  0  0  0  0  0
  -27.3989  -27.4789   20.3583 C   0  0  0  0  0  0  0  0  0  0  0  0
  -31.7183  -11.5487   21.5131 C   0  0  0  0  0  0  0  0  0  0  0  0
  -29.8273   -9.8809   22.7067 C   0  0  0  0  0  0  0  0  0  0  0  0
  -30.4498  -11.4163   20.9483 C   0  0  0  0  0  0  0  0  0  0  0  0
  -31.3962  -17.7989   20.4095 C   0  0  0  0  0  0  0  0  0  0  0  0
  -31.4594  -19.9968   20.4080 C   0  0  0  0  0  0  0  0  0  0  0  0
  -33.5779  -18.9199   21.1832 C   0  0  0  0  0  0  0  0  0  0  0  0
  -22.8595  -29.4755   22.5654 C   0  0  0  0  0  0  0  0  0  0  0  0
  -22.2561  -30.9486   19.7390 C   0  0  0  0  0  0  0  0  0  0  0  0
  -23.3314  -30.6115   16.3116 C   0  0  0  0  0  0  0  0  0  0  0  0
  -26.4085  -22.5146   20.9943 C   0  0  0  0  0  0  0  0  0  0  0  0
  -18.2760  -26.6769   22.4027 C   0  0  0  0  0  0  0  0  0  0  0  0
  -25.0560  -30.6302   22.1207 C   0  0  0  0  0  0  0  0  0  0  0  0
  -24.0682  -29.1931   19.7324 C   0  0  0  0  0  0  0  0  0  0  0  0
  -19.6692  -26.1259   22.6886 C   0  0  0  0  0  0  0  0  0  0  0  0
  -27.0211  -20.3992   18.0345 C   0  0  0  0  0  0  0  0  0  0  0  0
  -29.5669  -25.6922   28.7135 C   0  0  0  0  0  0  0  0  0  0  0  0
  -29.4180  -24.3527   28.0207 C   0  0  0  0  0  0  0  0  0  0  0  0
  -20.7259  -27.1020   22.1936 C   0  0  0  0  0  0  0  0  0  0  0  0
  -28.2437  -19.5815   18.4476 C   0  0  0  0  0  0  0  0  0  0  0  0
  -25.4368  -28.4713   26.9705 C   0  0  0  0  0  0  0  0  0  0  0  0
  -26.1650  -20.7857   19.2370 C   0  0  0  0  0  0  0  0  0  0  0  0
  -26.3188  -28.5141   25.7186 C   0  0  0  0  0  0  0  0  0  0  0  0
  -24.8315  -27.1895   26.3891 C   0  0  0  0  0  0  0  0  0  0  0  0
  -28.1436  -20.6792   20.7215 C   0  0  0  0  0  0  0  0  0  0  0  0
  -29.5293  -26.6678   27.5569 C   0  0  0  0  0  0  0  0  0  0  0  0
  -28.3672  -24.6043   26.9535 C   0  0  0  0  0  0  0  0  0  0  0  0
  -20.6319  -28.4360   22.9451 C   0  0  1  0  0  0  0  0  0  0  0  0
  -23.5689  -30.5494   21.7900 C   0  0  1  0  0  0  0  0  0  0  0  0
  -29.0493  -20.3110   19.5366 C   0  0  1  0  0  0  0  0  0  0  0  0
  -23.4560  -32.3078   14.4664 C   0  0  0  0  0  0  0  0  0  0  0  0
  -19.4813  -29.9188   18.9975 C   0  0  0  0  0  0  0  0  0  0  0  0
  -20.1162  -30.1495   16.5867 C   0  0  0  0  0  0  0  0  0  0  0  0
  -20.0467  -32.1651   18.0548 C   0  0  0  0  0  0  0  0  0  0  0  0
  -26.1989  -30.0545   15.8359 C   0  0  0  0  0  0  0  0  0  0  0  0
  -28.6864  -26.4003   25.1979 C   0  0  0  0  0  0  0  0  0  0  0  0
  -28.2631  -24.1583   19.2300 C   0  0  0  0  0  0  0  0  0  0  0  0
  -28.5473  -23.7337   20.6644 C   0  0  0  0  0  0  0  0  0  0  0  0
  -27.4362  -25.4353   19.1425 C   0  0  0  0  0  0  0  0  0  1  0  0
  -21.9139  -30.4852   18.3436 C   0  0  1  0  0  0  0  0  0  0  0  0
  -24.2301  -31.5635   15.5433 C   0  0  2  0  0  0  0  0  0  0  0  0
  -20.4051  -30.6636   18.0132 C   0  0  0  0  0  0  0  0  0  0  0  0
  -30.1898  -18.1680   19.9709 N   0  0  0  0  0  0  0  0  0  0  0  0
  -30.2590  -19.5101   19.9812 N   0  0  0  0  0  0  0  0  0  0  0  0
  -25.9199  -27.1705   25.4724 N   0  0  0  0  0  0  0  0  0  0  0  0
  -23.3188  -30.2876   20.3712 N   0  0  0  0  0  0  0  0  0  0  0  0
  -26.9637  -21.4364   20.2763 N   0  0  0  0  0  0  0  0  0  0  0  0
  -31.6991  -21.3234   20.4796 N   0  0  0  0  0  0  0  0  0  0  0  0
  -34.2208  -17.6989   21.4283 N   0  0  0  0  0  0  0  0  0  0  0  0
  -21.5038  -29.3987   22.3088 N   0  0  0  0  0  0  0  0  0  0  0  0
  -22.8114  -31.2018   17.4439 N   0  0  0  0  0  0  0  0  0  0  0  0
  -27.3191  -23.5009   21.4312 N   0  0  0  0  0  0  0  0  0  0  0  0
  -28.4723  -26.0864   26.6438 N   0  3  0  0  0  0  0  0  0  0  0  0
  -25.3408  -30.8143   14.8907 N   0  3  0  0  0  0  0  0  0  0  0  0
  -34.1890  -19.9918   21.4092 O   0  0  0  0  0  0  0  0  0  0  0  0
  -23.4952  -28.7680   23.3380 O   0  0  0  0  0  0  0  0  0  0  0  0
  -21.6091  -31.8680   20.2466 O   0  0  0  0  0  0  0  0  0  0  0  0
  -23.1096  -29.4605   15.9420 O   0  0  0  0  0  0  0  0  0  0  0  0
  -25.1924  -22.6030   21.2018 O   0  0  0  0  0  0  0  0  0  0  0  0
  -32.6584  -12.3756   20.9214 O   0  0  0  0  0  0  0  0  0  0  0  0
  -28.1434  -26.4864   19.7992 O   0  0  0  0  0  0  0  0  0  1  0  0
  -28.9199   -9.0788   23.2790 F   0  0  0  0  0  0  0  0  0  0  0  0
  -30.1341  -12.0868   19.8318 F   0  0  0  0  0  0  0  0  0  0  0  0
  1  2  1  0  0  0  0
  1  5  2  0  0  0  0
  2  6  2  0  0  0  0
  3 10  2  0  0  0  0
  3 18  1  0  0  0  0
  4 11  1  0  0  0  0
  4 18  2  0  0  0  0
  5 20  1  0  0  0  0
  6 22  1  0  0  0  0
  7 12  2  0  0  0  0
  7 21  1  0  0  0  0
  8  9  2  0  0  0  0
  8 25  1  0  0  0  0
  9 26  1  0  0  0  0
 10 27  1  0  0  0  0
 11 27  2  0  0  0  0
 12 28  1  0  0  0  0
 13 14  2  0  0  0  0
 13 29  1  0  0  0  0
 14 30  1  0  0  0  0
 15 23  1  0  0  0  0
 15 28  2  0  0  0  0
 16 24  1  0  0  0  0
 16 26  2  0  0  0  0
 17 30  2  0  0  0  0
 17 31  1  0  0  0  0
 18 32  1  0  0  0  0
 19 32  1  0  0  0  0
 19 33  2  0  0  0  0
 19 34  1  0  0  0  0
 20 22  2  0  0  0  0
 20 39  1  0  0  0  0
 21 23  2  0  0  0  0
 21 40  1  0  0  0  0
 22 55  1  0  0  0  0
 23 41  1  0  0  0  0
 24 25  2  0  0  0  0
 24 63  1  0  0  0  0
 25 72  1  0  0  0  0
 26 79  1  0  0  0  0
 27 87  1  0  0  0  0
 28 88  1  0  0  0  0
 29 31  2  0  0  0  0
 29 87  1  0  0  0  0
 30 89  1  0  0  0  0
 31 90  1  0  0  0  0
 32 70  2  0  0  0  0
 33 71  1  0  0  0  0
 33 75  1  0  0  0  0
 34 76  1  0  0  0  0
 34 82  2  0  0  0  0
 35 56  1  0  0  0  0
 35 77  1  0  0  0  0
 35 83  2  0  0  0  0
 36 67  1  0  0  0  0
 36 73  1  0  0  0  0
 36 84  2  0  0  0  0
 37 68  1  0  0  0  0
 37 78  1  0  0  0  0
 37 85  2  0  0  0  0
 38 74  1  0  0  0  0
 38 79  1  0  0  0  0
 38 86  2  0  0  0  0
 39 42  1  0  0  0  0
 40 56  1  0  0  0  0
 41 73  1  0  0  0  0
 42 46  1  0  0  0  0
 43 47  1  0  0  0  0
 43 49  1  0  0  0  0
 44 45  1  0  0  0  0
 44 53  1  0  0  0  0
 45 54  1  0  0  0  0
 46 55  1  0  0  0  0
 47 57  1  0  0  0  0
 48 50  1  0  0  0  0
 48 51  1  0  0  0  0
 49 74  1  0  0  0  0
 50 72  1  0  0  0  0
 51 72  1  0  0  0  0
 52 57  1  0  0  0  0
 52 74  1  0  0  0  0
 53 80  1  0  0  0  0
 54 80  1  0  0  0  0
 55 77  1  0  0  0  0
 56 73  1  0  0  0  0
 57 71  1  0  0  0  0
 58 68  1  0  0  0  0
 59 69  1  0  0  0  0
 60 69  1  0  0  0  0
 61 69  1  0  0  0  0
 62 81  1  0  0  0  0
 63 80  1  0  0  0  0
 64 65  1  0  0  0  0
 64 66  1  0  0  0  0
 65 79  1  0  0  0  0
 66 88  1  0  0  0  0
 67 69  1  0  0  0  0
 67 78  1  0  0  0  0
 68 81  1  0  0  0  0
 70 71  1  0  0  0  0
M  CHG  2  80   1  81   1
M  ISO  4  38 100  66 101  79 100  88 101
M  END
> <Batch ID>
0027

> <Smiles>
CNC(C)C(=O)NC(C(=O)N1Cc2cc([101O:1][101CH2:1]CC[100N:0](c3ccc(N4CCC4)c(CN4CCCC4)c3)[100C:0](=O)N3CCCC(n4nc(-c5ccc(Oc6ccc(F)cc6F)cc5)c(C(N)=O)c4N)C3)ccc2CC1C(=O)NC1CCCc2ccccc21)C(C)(C)C

> <Shape>
0.213

> <Color>
0.135

> <Negative vol penalty>
0.000

$$$$

  -OEChem-04042321283D

 85 94  0     1  0  0  0  0  0999 V2000
  -23.8801   -8.2639   22.1745 C   0  0  0  0  0  0  0  0  0  0  0  0
  -24.6729   -9.3924   21.9920 C   0  0  0  0  0  0  0  0  0  0  0  0
  -20.3064  -27.3655   23.6678 C   0  0  0  0  0  0  0  0  0  0  0  0
  -19.5751  -27.1074   21.3796 C   0  0  0  0  0  0  0  0  0  0  0  0
  -22.5239   -8.3069   21.8540 C   0  0  0  0  0  0  0  0  0  0  0  0
  -24.1101  -10.5644   21.4879 C   0  0  0  0  0  0  0  0  0  0  0  0
  -25.6289  -16.3101   22.9665 C   0  0  0  0  0  0  0  0  0  0  0  0
  -19.0755  -27.9330   23.9972 C   0  0  0  0  0  0  0  0  0  0  0  0
  -18.3442  -27.6749   21.7091 C   0  0  0  0  0  0  0  0  0  0  0  0
  -26.4468  -17.2533   22.3460 C   0  0  0  0  0  0  0  0  0  0  0  0
  -17.5497  -30.9318   23.6751 C   0  0  0  0  0  0  0  0  0  0  0  0
  -17.5576  -32.0816   24.4646 C   0  0  0  0  0  0  0  0  0  0  0  0
  -24.5097  -18.2299   21.2909 C   0  0  0  0  0  0  0  0  0  0  0  0
  -30.3312  -24.0952   17.8481 C   0  0  0  0  0  0  0  0  0  0  0  0
  -30.8339  -22.2593   19.3360 C   0  0  0  0  0  0  0  0  0  0  0  0
  -16.2648  -30.9324   26.1513 C   0  0  0  0  0  0  0  0  0  0  0  0
  -20.5562  -26.9528   22.3590 C   0  0  0  0  0  0  0  0  0  0  0  0
  -22.1743  -25.0033   22.0608 C   0  0  0  0  0  0  0  0  0  0  0  0
  -21.9421   -9.4829   21.3548 C   0  0  0  0  0  0  0  0  0  0  0  0
  -24.2442  -16.3129   22.7449 C   0  0  0  0  0  0  0  0  0  0  0  0
  -22.7451  -10.6228   21.1592 C   0  0  0  0  0  0  0  0  0  0  0  0
  -23.6762  -17.2872   21.9118 C   0  0  0  0  0  0  0  0  0  0  0  0
  -28.9979  -23.6885   17.7967 C   0  0  0  0  0  0  0  0  0  0  0  0
  -28.5826  -22.5673   18.5151 C   0  0  0  0  0  0  0  0  0  0  0  0
  -29.5006  -21.8526   19.2847 C   0  0  0  0  0  0  0  0  0  0  0  0
  -18.0944  -28.0877   23.0179 C   0  0  0  0  0  0  0  0  0  0  0  0
  -25.8876  -18.2117   21.5058 C   0  0  0  0  0  0  0  0  0  0  0  0
  -16.8993  -29.7822   24.1236 C   0  0  0  0  0  0  0  0  0  0  0  0
  -16.9151  -32.0819   25.7027 C   0  0  0  0  0  0  0  0  0  0  0  0
  -31.2492  -23.3805   18.6177 C   0  0  0  0  0  0  0  0  0  0  0  0
  -16.2569  -29.7825   25.3617 C   0  0  0  0  0  0  0  0  0  0  0  0
  -21.8277  -26.3670   22.0180 C   0  0  0  0  0  0  0  0  0  0  0  0
  -23.4830  -24.9684   21.6456 C   0  0  0  0  0  0  0  0  0  0  0  0
  -21.3838  -23.8694   22.4418 C   0  0  0  0  0  0  0  0  0  0  0  0
  -22.1690  -14.2575   21.4910 C   0  0  0  0  0  0  0  0  0  0  0  0
  -19.9922  -16.4419   22.4969 C   0  0  0  0  0  0  0  0  0  0  0  0
  -19.3144  -19.6764   23.3490 C   0  0  0  0  0  0  0  0  0  0  0  0
  -27.5270  -26.5884   18.1574 C   0  0  0  0  0  0  0  0  0  0  0  0
  -20.4818   -9.4671   20.9781 C   0  0  0  0  0  0  0  0  0  0  0  0
  -23.3725  -15.3052   23.4429 C   0  0  0  0  0  0  0  0  0  0  0  0
  -22.1929  -17.3459   21.6571 C   0  0  0  0  0  0  0  0  0  0  0  0
  -19.8832  -10.8602   20.8016 C   0  0  0  0  0  0  0  0  0  0  0  0
  -26.8092  -28.7105   20.9247 C   0  0  0  0  0  0  0  0  0  0  0  0
  -20.8047  -11.7341   19.9568 C   0  0  0  0  0  0  0  0  0  0  0  0
  -25.4754  -28.1815   21.4550 C   0  0  0  0  0  0  0  0  0  0  0  0
  -28.9532  -19.1441   21.7268 C   0  0  0  0  0  0  0  0  0  0  0  0
  -26.8822  -28.6312   19.4014 C   0  0  0  0  0  0  0  0  0  0  0  0
  -29.2272  -20.6226   21.4520 C   0  0  0  0  0  0  0  0  0  0  0  0
  -25.2684  -26.7689   19.3668 C   0  0  0  0  0  0  0  0  0  0  0  0
  -28.5222  -19.5436   19.4003 C   0  0  0  0  0  0  0  0  0  0  0  0
  -22.1660  -11.9201   20.6380 C   0  0  1  0  0  0  0  0  0  0  0  0
  -22.0369  -15.0820   22.7401 C   0  0  1  0  0  0  0  0  0  0  0  0
  -25.1696  -26.7766   20.9019 C   0  0  2  0  0  0  0  0  0  0  0  0
  -28.0175  -18.7388   20.5972 C   0  0  2  0  0  0  0  0  0  1  0  0
  -27.1512  -22.1339   18.4574 C   0  0  0  0  0  0  0  0  0  0  0  0
  -17.4363  -21.1655   24.0921 C   0  0  0  0  0  0  0  0  0  0  0  0
  -18.8940  -16.4734   19.6503 C   0  0  0  0  0  0  0  0  0  0  0  0
  -17.7033  -18.6040   20.2076 C   0  0  0  0  0  0  0  0  0  0  0  0
  -17.1495  -16.5082   21.4419 C   0  0  0  0  0  0  0  0  0  0  0  0
  -20.6828  -20.3285   25.8909 C   0  0  0  0  0  0  0  0  0  0  0  0
  -28.0355  -24.4718   16.9655 C   0  0  0  0  0  0  0  0  0  0  0  0
  -19.3503  -17.6678   21.8934 C   0  0  1  0  0  0  0  0  0  0  0  0
  -18.5836  -20.2727   24.5384 C   0  0  2  0  0  0  0  0  0  0  0  0
  -18.3025  -17.3113   20.8014 C   0  0  0  0  0  0  0  0  0  0  0  0
  -22.8351  -27.1424   21.6080 N   0  0  0  0  0  0  0  0  0  0  0  0
  -23.8275  -26.2630   21.3896 N   0  0  0  0  0  0  0  0  0  0  0  0
  -29.1096  -20.7414   20.0018 N   0  0  3  0  0  0  0  0  0  0  0  0
  -21.3832  -16.3352   22.3574 N   0  0  0  0  0  0  0  0  0  0  0  0
  -26.5838  -27.2727   18.9417 N   0  0  0  0  0  0  0  0  0  0  0  0
  -24.3613  -23.9569   21.4782 N   0  0  0  0  0  0  0  0  0  0  0  0
  -20.0579  -24.0834   22.8423 N   0  0  0  0  0  0  0  0  0  0  0  0
  -22.0693  -12.8956   21.7027 N   0  0  0  0  0  0  0  0  0  0  0  0
  -18.8120  -18.4380   23.0093 N   0  0  0  0  0  0  0  0  0  0  0  0
  -27.1678  -25.3034   17.7693 N   0  0  0  0  0  0  0  0  0  0  0  0
  -19.5184  -21.0869   25.3656 N   0  3  0  0  0  0  0  0  0  0  0  0
  -21.8449  -22.7028   22.4433 O   0  0  0  0  0  0  0  0  0  0  0  0
  -22.3467  -14.8156   20.4146 O   0  0  0  0  0  0  0  0  0  0  0  0
  -19.2863  -15.6133   23.0772 O   0  0  0  0  0  0  0  0  0  0  0  0
  -20.2362  -20.2531   22.7760 O   0  0  0  0  0  0  0  0  0  0  0  0
  -28.6112  -27.0837   17.8319 O   0  0  0  0  0  0  0  0  0  0  0  0
  -16.8931  -28.6411   23.3390 O   0  0  0  0  0  0  0  0  0  0  0  0
  -26.6838  -19.1331   20.8983 O   0  0  0  0  0  0  0  0  0  1  0  0
  -16.9241  -33.1858   26.4614 F   0  0  0  0  0  0  0  0  0  0  0  0
  -32.5296  -23.7709   18.6668 F   0  0  0  0  0  0  0  0  0  0  0  0
  -15.6314  -28.6808   25.7985 F   0  0  0  0  0  0  0  0  0  0  0  0
  1  2  1  0  0  0  0
  1  5  2  0  0  0  0
  2  6  2  0  0  0  0
  3  8  2  0  0  0  0
  3 17  1  0  0  0  0
  4  9  1  0  0  0  0
  4 17  2  0  0  0  0
  5 19  1  0  0  0  0
  6 21  1  0  0  0  0
  7 10  2  0  0  0  0
  7 20  1  0  0  0  0
  8 26  1  0  0  0  0
  9 26  2  0  0  0  0
 10 27  1  0  0  0  0
 11 12  2  0  0  0  0
 11 28  1  0  0  0  0
 12 29  1  0  0  0  0
 13 22  1  0  0  0  0
 13 27  2  0  0  0  0
 14 23  2  0  0  0  0
 14 30  1  0  0  0  0
 15 25  1  0  0  0  0
 15 30  2  0  0  0  0
 16 29  2  0  0  0  0
 16 31  1  0  0  0  0
 17 32  1  0  0  0  0
 18 32  1  0  0  0  0
 18 33  2  0  0  0  0
 18 34  1  0  0  0  0
 19 21  2  0  0  0  0
 19 39  1  0  0  0  0
 20 22  2  0  0  0  0
 20 40  1  0  0  0  0
 21 51  1  0  0  0  0
 22 41  1  0  0  0  0
 23 24  1  0  0  0  0
 23 61  1  0  0  0  0
 24 25  2  0  0  0  0
 24 55  1  0  0  0  0
 25 67  1  0  0  0  0
 26 81  1  0  0  0  0
 27 82  1  0  0  0  0
 28 31  2  0  0  0  0
 28 81  1  0  0  0  0
 29 83  1  0  0  0  0
 30 84  1  0  0  0  0
 31 85  1  0  0  0  0
 32 65  2  0  0  0  0
 33 66  1  0  0  0  0
 33 70  1  0  0  0  0
 34 71  1  0  0  0  0
 34 76  2  0  0  0  0
 35 52  1  0  0  0  0
 35 72  1  0  0  0  0
 35 77  2  0  0  0  0
 36 62  1  0  0  0  0
 36 68  1  0  0  0  0
 36 78  2  0  0  0  0
 37 63  1  0  0  0  0
 37 73  1  0  0  0  0
 37 79  2  0  0  0  0
 38 69  1  0  0  0  0
 38 74  1  0  0  0  0
 38 80  2  0  0  0  0
 39 42  1  0  0  0  0
 40 52  1  0  0  0  0
 41 68  1  0  0  0  0
 42 44  1  0  0  0  0
 43 45  1  0  0  0  0
 43 47  1  0  0  0  0
 44 51  1  0  0  0  0
 45 53  1  0  0  0  0
 46 48  1  0  0  0  0
 46 54  1  0  0  0  0
 47 69  1  0  0  0  0
 48 67  1  0  0  0  0
 49 53  1  0  0  0  0
 49 69  1  0  0  0  0
 50 54  1  0  0  0  0
 50 67  1  0  0  0  0
 51 72  1  0  0  0  0
 52 68  1  0  0  0  0
 53 66  1  0  0  0  0
 54 82  1  0  0  0  0
 56 63  1  0  0  0  0
 57 64  1  0  0  0  0
 58 64  1  0  0  0  0
 59 64  1  0  0  0  0
 60 75  1  0  0  0  0
 61 74  1  0  0  0  0
 62 64  1  0  0  0  0
 62 73  1  0  0  0  0
 63 75  1  0  0  0  0
 65 66  1  0  0  0  0
M  CHG  1  75   1
M  ISO  4  38 100  54 101  74 100  82 101
M  END
> <Batch ID>
0027

> <Smiles>
CNC(C)C(=O)NC(C(=O)N1Cc2cc([101O:1][101CH:1]3CCN(c4cc(F)cc(C[100NH:0][100C:0](=O)N5CCCC(n6nc(-c7ccc(Oc8ccc(F)cc8F)cc7)c(C(N)=O)c6N)C5)c4C)C3)ccc2CC1C(=O)NC1CCCc2ccccc21)C(C)(C)C

> <Shape>
0.203

> <Color>
0.085

> <Negative vol penalty>
0.000

$$$$

  -OEChem-04042321283D

 87 97  0     1  0  0  0  0  0999 V2000
  -18.6841  -30.6783   31.4151 C   0  0  0  0  0  0  0  0  0  0  0  0
  -18.2905  -29.3554   31.2400 C   0  0  0  0  0  0  0  0  0  0  0  0
  -22.5848  -10.3939   20.2806 C   0  0  0  0  0  0  0  0  0  0  0  0
  -24.3082   -9.5067   21.7228 C   0  0  0  0  0  0  0  0  0  0  0  0
  -18.7222  -31.5435   30.3224 C   0  0  0  0  0  0  0  0  0  0  0  0
  -17.9338  -28.8973   29.9722 C   0  0  0  0  0  0  0  0  0  0  0  0
  -20.7811  -22.9162   25.8313 C   0  0  0  0  0  0  0  0  0  0  0  0
  -21.8365   -9.2305   20.4590 C   0  0  0  0  0  0  0  0  0  0  0  0
  -23.5598   -8.3432   21.9013 C   0  0  0  0  0  0  0  0  0  0  0  0
  -21.3106  -21.9836   24.9391 C   0  0  0  0  0  0  0  0  0  0  0  0
  -19.8085   -7.9109   22.8210 C   0  0  0  0  0  0  0  0  0  0  0  0
  -18.4443   -8.0504   23.0764 C   0  0  0  0  0  0  0  0  0  0  0  0
  -20.5574  -23.3250   23.0733 C   0  0  0  0  0  0  0  0  0  0  0  0
  -27.9435  -19.8454   20.4231 C   0  0  0  0  0  0  0  0  0  0  0  0
  -26.4732  -20.3224   22.7454 C   0  0  0  0  0  0  0  0  0  0  0  0
  -17.9413   -6.7840   21.0812 C   0  0  0  0  0  0  0  0  0  0  0  0
  -23.8207  -10.5320   20.9125 C   0  0  0  0  0  0  0  0  0  0  0  0
  -24.2129  -13.0487   21.0538 C   0  0  0  0  0  0  0  0  0  0  0  0
  -18.3751  -31.0932   29.0389 C   0  0  0  0  0  0  0  0  0  0  0  0
  -20.1505  -24.0658   25.3473 C   0  0  0  0  0  0  0  0  0  0  0  0
  -17.9661  -29.7576   28.8616 C   0  0  0  0  0  0  0  0  0  0  0  0
  -20.0361  -24.2689   23.9622 C   0  0  0  0  0  0  0  0  0  0  0  0
  -26.6842  -20.4396   20.3415 C   0  0  0  0  0  0  0  0  0  0  0  0
  -28.4677  -19.4896   21.6658 C   0  0  0  0  0  0  0  0  0  0  0  0
  -25.9490  -20.6781   21.5027 C   0  0  0  0  0  0  0  0  0  0  0  0
  -22.3239   -8.2051   21.2694 C   0  0  0  0  0  0  0  0  0  0  0  0
  -21.1988  -22.1874   23.5635 C   0  0  0  0  0  0  0  0  0  0  0  0
  -20.2391   -7.2080   21.6957 C   0  0  0  0  0  0  0  0  0  0  0  0
  -17.5108   -7.4869   22.2065 C   0  0  0  0  0  0  0  0  0  0  0  0
  -19.3055   -6.6446   20.8258 C   0  0  0  0  0  0  0  0  0  0  0  0
  -27.7325  -19.7281   22.8270 C   0  0  0  0  0  0  0  0  0  0  0  0
  -24.5946  -11.7334   20.7281 C   0  0  0  0  0  0  0  0  0  0  0  0
  -25.2890  -13.8193   20.6867 C   0  0  0  0  0  0  0  0  0  0  0  0
  -22.9947  -13.5309   21.6361 C   0  0  0  0  0  0  0  0  0  0  0  0
  -30.8243  -14.6438   20.6379 C   0  0  0  0  0  0  0  0  0  0  0  0
  -18.3910  -27.2798   26.1536 C   0  0  0  0  0  0  0  0  0  0  0  0
  -20.2464  -27.8513   23.7785 C   0  0  0  0  0  0  0  0  0  0  0  0
  -22.7216  -28.1679   21.4525 C   0  0  0  0  0  0  0  0  0  0  0  0
  -18.3864  -32.0778   27.8965 C   0  0  0  0  0  0  0  0  0  0  0  0
  -19.5114  -25.0668   26.2711 C   0  0  0  0  0  0  0  0  0  0  0  0
  -19.3190  -25.5029   23.4869 C   0  0  0  0  0  0  0  0  0  0  0  0
  -18.3528  -31.4157   26.5214 C   0  0  0  0  0  0  0  0  0  0  0  0
  -29.3958  -12.6804   17.9777 C   0  0  0  0  0  0  0  0  0  0  0  0
  -17.2892  -30.3230   26.4808 C   0  0  0  0  0  0  0  0  0  0  0  0
  -28.0007  -12.3388   18.4994 C   0  0  0  0  0  0  0  0  0  0  0  0
  -30.4188  -12.7279   19.1083 C   0  0  0  0  0  0  0  0  0  0  0  0
  -28.6554  -13.3211   20.7425 C   0  0  0  0  0  0  0  0  0  0  0  0
  -24.0837  -22.0917   22.4263 C   0  0  0  0  0  0  0  0  0  0  0  0
  -23.4824  -20.6596   21.0067 C   0  0  0  0  0  0  0  0  0  0  0  0
  -29.1491  -16.5164   21.4337 C   0  0  0  0  0  0  0  0  0  0  0  0
  -31.0967  -16.8065   22.1193 C   0  0  0  0  0  0  0  0  0  0  0  0
  -17.5956  -29.2168   27.4976 C   0  0  1  0  0  0  0  0  0  0  0  0
  -30.2956  -15.5364   21.7619 C   0  0  0  0  0  0  0  0  0  0  0  0
  -19.6204  -26.5148   25.7605 C   0  0  1  0  0  0  0  0  0  0  0  0
  -27.5875  -13.2919   19.6348 C   0  0  2  0  0  0  0  0  0  0  0  0
  -22.7283  -21.7376   21.7984 C   0  0  0  0  0  0  0  0  0  1  0  0
  -26.1459  -20.8093   18.9975 C   0  0  0  0  0  0  0  0  0  0  0  0
  -23.7883  -29.8516   19.9279 C   0  0  0  0  0  0  0  0  0  0  0  0
  -17.8580  -27.6507   21.8920 C   0  0  0  0  0  0  0  0  0  0  0  0
  -19.3239  -28.5199   20.0579 C   0  0  0  0  0  0  0  0  0  0  0  0
  -18.8651  -29.9335   22.0614 C   0  0  0  0  0  0  0  0  0  0  0  0
  -25.3536  -27.8680   22.7724 C   0  0  0  0  0  0  0  0  0  0  0  0
  -29.8197  -18.8540   21.7103 C   0  0  0  0  0  0  0  0  0  0  0  0
  -20.3949  -27.9325   22.2803 C   0  0  1  0  0  0  0  0  0  0  0  0
  -23.8329  -29.1902   21.2966 C   0  0  2  0  0  0  0  0  0  0  0  0
  -19.1177  -28.4857   21.5873 C   0  0  0  0  0  0  0  0  0  0  0  0
  -25.8175  -11.6683   20.1950 N   0  0  0  0  0  0  0  0  0  0  0  0
  -26.2136  -12.9525   20.1828 N   0  0  0  0  0  0  0  0  0  0  0  0
  -24.6919  -21.2688   21.4393 N   0  0  0  0  0  0  0  0  0  0  0  0
  -29.9788  -13.6203   20.1821 N   0  0  0  0  0  0  0  0  0  0  0  0
  -19.7217  -26.6620   24.2986 N   0  0  0  0  0  0  0  0  0  0  0  0
  -25.5251  -15.1470   20.7490 N   0  0  0  0  0  0  0  0  0  0  0  0
  -22.9099  -13.6171   23.0324 N   0  0  0  0  0  0  0  0  0  0  0  0
  -18.6376  -28.3456   26.9980 N   0  0  0  0  0  0  0  0  0  0  0  0
  -21.5981  -28.7191   22.0313 N   0  0  0  0  0  0  0  0  0  0  0  0
  -29.8101  -17.5017   22.3095 N   0  3  0  0  0  0  0  0  0  0  0  0
  -25.1631  -28.5385   21.4605 N   0  3  0  0  0  0  0  0  0  0  0  0
  -22.0046  -13.8595   20.9395 O   0  0  0  0  0  0  0  0  0  0  0  0
  -31.9546  -14.8348   20.1641 O   0  0  0  0  0  0  0  0  0  0  0  0
  -17.2985  -26.9309   25.7221 O   0  0  0  0  0  0  0  0  0  0  0  0
  -20.5805  -28.8169   24.4709 O   0  0  0  0  0  0  0  0  0  0  0  0
  -22.8373  -26.9983   21.0932 O   0  0  0  0  0  0  0  0  0  0  0  0
  -21.5938   -7.0697   21.4439 O   0  0  0  0  0  0  0  0  0  0  0  0
  -21.7219  -21.2752   22.6982 O   0  0  0  0  0  0  0  0  0  1  0  0
  -16.2008   -7.6197   22.4528 F   0  0  0  0  0  0  0  0  0  0  0  0
  -19.7132   -5.9672   19.7438 F   0  0  0  0  0  0  0  0  0  0  0  0
  -28.3497  -19.3027   24.3818 Cl  0  0  0  0  0  0  0  0  0  0  0  0
  1  2  1  0  0  0  0
  1  5  2  0  0  0  0
  2  6  2  0  0  0  0
  3  8  2  0  0  0  0
  3 17  1  0  0  0  0
  4  9  1  0  0  0  0
  4 17  2  0  0  0  0
  5 19  1  0  0  0  0
  6 21  1  0  0  0  0
  7 10  2  0  0  0  0
  7 20  1  0  0  0  0
  8 26  1  0  0  0  0
  9 26  2  0  0  0  0
 10 27  1  0  0  0  0
 11 12  2  0  0  0  0
 11 28  1  0  0  0  0
 12 29  1  0  0  0  0
 13 22  1  0  0  0  0
 13 27  2  0  0  0  0
 14 23  1  0  0  0  0
 14 24  2  0  0  0  0
 15 25  1  0  0  0  0
 15 31  2  0  0  0  0
 16 29  2  0  0  0  0
 16 30  1  0  0  0  0
 17 32  1  0  0  0  0
 18 32  1  0  0  0  0
 18 33  2  0  0  0  0
 18 34  1  0  0  0  0
 19 21  2  0  0  0  0
 19 39  1  0  0  0  0
 20 22  2  0  0  0  0
 20 40  1  0  0  0  0
 21 52  1  0  0  0  0
 22 41  1  0  0  0  0
 23 25  2  0  0  0  0
 23 57  1  0  0  0  0
 24 31  1  0  0  0  0
 24 63  1  0  0  0  0
 25 69  1  0  0  0  0
 26 83  1  0  0  0  0
 27 84  1  0  0  0  0
 28 30  2  0  0  0  0
 28 83  1  0  0  0  0
 29 85  1  0  0  0  0
 30 86  1  0  0  0  0
 31 87  1  0  0  0  0
 32 67  2  0  0  0  0
 33 68  1  0  0  0  0
 33 72  1  0  0  0  0
 34 73  1  0  0  0  0
 34 78  2  0  0  0  0
 35 53  1  0  0  0  0
 35 70  1  0  0  0  0
 35 79  2  0  0  0  0
 36 54  1  0  0  0  0
 36 74  1  0  0  0  0
 36 80  2  0  0  0  0
 37 64  1  0  0  0  0
 37 71  1  0  0  0  0
 37 81  2  0  0  0  0
 38 65  1  0  0  0  0
 38 75  1  0  0  0  0
 38 82  2  0  0  0  0
 39 42  1  0  0  0  0
 40 54  1  0  0  0  0
 41 71  1  0  0  0  0
 42 44  1  0  0  0  0
 43 45  1  0  0  0  0
 43 46  1  0  0  0  0
 44 52  1  0  0  0  0
 45 55  1  0  0  0  0
 46 70  1  0  0  0  0
 47 55  1  0  0  0  0
 47 70  1  0  0  0  0
 48 56  1  0  0  0  0
 48 69  1  0  0  0  0
 49 56  1  0  0  0  0
 49 69  1  0  0  0  0
 50 53  1  0  0  0  0
 50 76  1  0  0  0  0
 51 53  1  0  0  0  0
 51 76  1  0  0  0  0
 52 74  1  0  0  0  0
 54 71  1  0  0  0  0
 55 68  1  0  0  0  0
 56 84  1  0  0  0  0
 58 65  1  0  0  0  0
 59 66  1  0  0  0  0
 60 66  1  0  0  0  0
 61 66  1  0  0  0  0
 62 77  1  0  0  0  0
 63 76  1  0  0  0  0
 64 66  1  0  0  0  0
 64 75  1  0  0  0  0
 65 77  1  0  0  0  0
 67 68  1  0  0  0  0
M  CHG  2  76   1  77   1
M  ISO  4  35 100  53 100  56 101  84 101
M  END
> <Batch ID>
0027

> <Smiles>
CNC(C)C(=O)NC(C(=O)N1Cc2cc([101O:1][101CH:1]3CN(c4cc(Cl)c(CN5C[100CH:0]([100C:0](=O)N6CCCC(n7nc(-c8ccc(Oc9ccc(F)cc9F)cc8)c(C(N)=O)c7N)C6)C5)cc4C)C3)ccc2CC1C(=O)NC1CCCc2ccccc21)C(C)(C)C

> <Shape>
0.238

> <Color>
0.175

> <Negative vol penalty>
0.000

$$$$

  -OEChem-04042321283D

 92102  0     1  0  0  0  0  0999 V2000
  -21.1510  -24.3080   12.5040 C   0  0  0  0  0  0  0  0  0  0  0  0
  -20.9751  -24.5108   13.8691 C   0  0  0  0  0  0  0  0  0  0  0  0
  -24.9497  -15.1795   22.2625 C   0  0  0  0  0  0  0  0  0  0  0  0
  -26.3501  -16.7263   23.4805 C   0  0  0  0  0  0  0  0  0  0  0  0
  -22.3083  -23.6870   12.0361 C   0  0  0  0  0  0  0  0  0  0  0  0
  -21.9560  -24.0916   14.7672 C   0  0  0  0  0  0  0  0  0  0  0  0
  -25.1587  -28.7705   19.2104 C   0  0  0  0  0  0  0  0  0  0  0  0
  -25.0856  -27.4328   25.2284 C   0  0  0  0  0  0  0  0  0  0  0  0
  -24.6690  -26.2273   24.6640 C   0  0  0  0  0  0  0  0  0  0  0  0
  -26.0588  -14.3708   22.0145 C   0  0  0  0  0  0  0  0  0  0  0  0
  -27.4591  -15.9175   23.2326 C   0  0  0  0  0  0  0  0  0  0  0  0
  -25.6670  -29.5657   20.2377 C   0  0  0  0  0  0  0  0  0  0  0  0
  -28.5877  -12.0818   20.7540 C   0  0  0  0  0  0  0  0  0  0  0  0
  -28.7539  -11.5851   19.4613 C   0  0  0  0  0  0  0  0  0  0  0  0
  -27.0416  -27.7263   20.9960 C   0  0  0  0  0  0  0  0  0  0  0  0
  -28.8652  -13.8427   18.6081 C   0  0  0  0  0  0  0  0  0  0  0  0
  -25.0954  -16.3573   22.9955 C   0  0  0  0  0  0  0  0  0  0  0  0
  -22.7754  -16.8383   23.9409 C   0  0  0  0  0  0  0  0  0  0  0  0
  -23.3083  -23.2687   12.9282 C   0  0  0  0  0  0  0  0  0  0  0  0
  -25.6019  -27.4533   19.0625 C   0  0  0  0  0  0  0  0  0  0  0  0
  -23.1272  -23.4632   14.3109 C   0  0  0  0  0  0  0  0  0  0  0  0
  -26.5453  -26.9289   19.9613 C   0  0  0  0  0  0  0  0  0  0  0  0
  -24.5223  -28.6350   24.8003 C   0  0  0  0  0  0  0  0  0  0  0  0
  -23.5424  -28.6315   23.8076 C   0  0  0  0  0  0  0  0  0  0  0  0
  -23.1258  -27.4259   23.2430 C   0  0  0  0  0  0  0  0  0  0  0  0
  -23.6891  -26.2238   23.6712 C   0  0  0  0  0  0  0  0  0  0  0  0
  -27.3135  -14.7397   22.4995 C   0  0  0  0  0  0  0  0  0  0  0  0
  -26.6060  -29.0448   21.1284 C   0  0  0  0  0  0  0  0  0  0  0  0
  -28.5601  -13.4590   20.9738 C   0  0  0  0  0  0  0  0  0  0  0  0
  -28.8927  -12.4655   18.3883 C   0  0  0  0  0  0  0  0  0  0  0  0
  -28.6989  -14.3394   19.9008 C   0  0  0  0  0  0  0  0  0  0  0  0
  -23.9502  -17.1935   23.2515 C   0  0  0  0  0  0  0  0  0  0  0  0
  -22.0037  -17.9741   23.9123 C   0  0  0  0  0  0  0  0  0  0  0  0
  -22.4139  -15.5929   24.5526 C   0  0  0  0  0  0  0  0  0  0  0  0
  -25.4026  -24.2542   17.1126 C   0  0  0  0  0  0  0  0  0  0  0  0
  -28.3570  -24.6859   17.8167 C   0  0  0  0  0  0  0  0  0  0  0  0
  -31.5418  -25.7425   18.4313 C   0  0  0  0  0  0  0  0  0  0  0  0
  -23.7461  -23.7091   23.4320 C   0  0  0  0  0  0  0  0  0  0  0  0
  -24.5206  -22.5594   12.3790 C   0  0  0  0  0  0  0  0  0  0  0  0
  -25.0361  -26.5412   18.0081 C   0  0  0  0  0  0  0  0  0  0  0  0
  -26.9673  -25.4958   19.7848 C   0  0  0  0  0  0  0  0  0  0  0  0
  -25.6812  -22.4824   13.3676 C   0  0  0  0  0  0  0  0  0  0  0  0
  -21.8583  -21.6667   20.7884 C   0  0  0  0  0  0  0  0  0  0  0  0
  -27.3886  -32.4769   25.1886 C   0  0  0  0  0  0  0  0  0  0  0  0
  -25.1847  -22.0392   14.7402 C   0  0  0  0  0  0  0  0  0  0  0  0
  -21.5198  -20.4300   21.6175 C   0  0  0  0  0  0  0  0  0  0  0  0
  -28.1442  -31.4790   24.3336 C   0  0  0  0  0  0  0  0  0  0  0  0
  -18.5893  -26.6675   23.1511 C   0  0  0  0  0  0  0  0  0  0  0  0
  -22.1082  -22.8934   21.6566 C   0  0  0  0  0  0  0  0  0  0  0  0
  -23.5463  -21.2834   22.9197 C   0  0  0  0  0  0  0  0  0  0  0  0
  -25.9334  -32.1925   24.8700 C   0  0  0  0  0  0  0  0  0  0  0  0
  -20.0742  -26.4572   23.3666 C   0  0  0  0  0  0  0  0  0  0  0  0
  -19.7104  -28.1903   21.6762 C   0  0  0  0  0  0  0  0  0  0  0  0
  -24.1797  -23.0449   15.3145 C   0  0  1  0  0  0  0  0  0  0  0  0
  -26.0739  -25.5547   17.4433 C   0  0  1  0  0  0  0  0  0  0  0  0
  -22.3369  -20.3355   22.9214 C   0  0  2  0  0  0  0  0  0  0  0  0
  -18.5401  -27.2290   21.7469 C   0  0  1  0  0  0  0  0  0  0  0  0
  -27.3253  -30.2074   24.4995 C   0  0  2  0  0  0  0  0  0  0  0  0
  -22.9401  -29.9224   23.3505 C   0  0  0  0  0  0  0  0  0  0  0  0
  -33.9373  -25.0649   18.1157 C   0  0  0  0  0  0  0  0  0  0  0  0
  -28.0852  -22.6771   20.0959 C   0  0  0  0  0  0  0  0  0  0  0  0
  -30.5731  -22.7532   20.3651 C   0  0  0  0  0  0  0  0  0  0  0  0
  -29.5759  -21.9406   18.2279 C   0  0  0  0  0  0  0  0  0  0  0  0
  -32.1204  -28.1293   16.7798 C   0  0  0  0  0  0  0  0  0  0  0  0
  -24.9885  -29.9173   25.4241 C   0  0  0  0  0  0  0  0  0  0  0  0
  -22.0741  -27.4246   22.1778 C   0  0  0  0  0  0  0  0  0  0  0  0
  -27.5121  -29.2121   23.3693 C   0  0  0  0  0  0  0  0  0  1  0  0
  -29.4815  -24.4057   18.7812 C   0  0  1  0  0  0  0  0  0  0  0  0
  -32.7629  -25.8365   17.5343 C   0  0  2  0  0  0  0  0  0  0  0  0
  -29.4134  -22.9680   19.3692 C   0  0  0  0  0  0  0  0  0  0  0  0
  -23.9310  -18.4562   22.8166 N   0  0  0  0  0  0  0  0  0  0  0  0
  -22.7346  -18.9043   23.2336 N   0  0  0  0  0  0  0  0  0  0  0  0
  -27.1744  -25.2052   18.3575 N   0  0  0  0  0  0  0  0  0  0  0  0
  -23.1322  -22.6720   22.6878 N   0  0  0  0  0  0  0  0  0  0  0  0
  -20.7780  -18.2580   24.4016 N   0  0  0  0  0  0  0  0  0  0  0  0
  -22.7541  -15.3849   25.8962 N   0  0  0  0  0  0  0  0  0  0  0  0
  -23.2809  -24.9872   23.1118 N   0  0  0  0  0  0  0  0  0  0  0  0
  -24.8687  -24.2045   15.8390 N   0  0  0  0  0  0  0  0  0  0  0  0
  -30.7173  -24.7001   18.0640 N   0  0  0  0  0  0  0  0  0  0  0  0
  -20.6979  -27.6688   22.7089 N   0  3  2  0  0  0  0  0  0  0  0  0
  -25.8891  -30.7125   24.5287 N   0  3  1  0  0  0  0  0  0  0  0  0
  -33.1729  -27.2593   17.3650 N   0  3  0  0  0  0  0  0  0  0  0  0
  -21.8218  -14.6848   23.9216 O   0  0  0  0  0  0  0  0  0  0  0  0
  -25.3719  -23.3600   17.9500 O   0  0  0  0  0  0  0  0  0  0  0  0
  -28.5179  -24.4465   16.6167 O   0  0  0  0  0  0  0  0  0  0  0  0
  -31.3414  -26.5141   19.3667 O   0  0  0  0  0  0  0  0  0  0  0  0
  -24.6015  -23.4733   24.2879 O   0  0  0  0  0  0  0  0  0  0  0  0
  -28.3958  -13.9506   22.2579 O   0  0  0  0  0  0  0  0  0  0  0  0
  -27.1015  -29.8281   22.1262 O   0  0  0  0  0  0  0  0  0  1  0  0
  -29.0538  -11.9883   17.1471 F   0  0  0  0  0  0  0  0  0  0  0  0
  -28.6744  -15.6635   20.1059 F   0  0  0  0  0  0  0  0  0  0  0  0
  -18.7548  -26.2172   20.8616 F   0  0  0  0  0  0  0  0  0  0  0  0
  1  2  1  0  0  0  0
  1  5  2  0  0  0  0
  2  6  2  0  0  0  0
  3 10  2  0  0  0  0
  3 17  1  0  0  0  0
  4 11  1  0  0  0  0
  4 17  2  0  0  0  0
  5 19  1  0  0  0  0
  6 21  1  0  0  0  0
  7 12  2  0  0  0  0
  7 20  1  0  0  0  0
  8  9  2  0  0  0  0
  8 23  1  0  0  0  0
  9 26  1  0  0  0  0
 10 27  1  0  0  0  0
 11 27  2  0  0  0  0
 12 28  1  0  0  0  0
 13 14  2  0  0  0  0
 13 29  1  0  0  0  0
 14 30  1  0  0  0  0
 15 22  1  0  0  0  0
 15 28  2  0  0  0  0
 16 30  2  0  0  0  0
 16 31  1  0  0  0  0
 17 32  1  0  0  0  0
 18 32  1  0  0  0  0
 18 33  2  0  0  0  0
 18 34  1  0  0  0  0
 19 21  2  0  0  0  0
 19 39  1  0  0  0  0
 20 22  2  0  0  0  0
 20 40  1  0  0  0  0
 21 54  1  0  0  0  0
 22 41  1  0  0  0  0
 23 24  2  0  0  0  0
 23 65  1  0  0  0  0
 24 25  1  0  0  0  0
 24 59  1  0  0  0  0
 25 26  2  0  0  0  0
 25 66  1  0  0  0  0
 26 77  1  0  0  0  0
 27 88  1  0  0  0  0
 28 89  1  0  0  0  0
 29 31  2  0  0  0  0
 29 88  1  0  0  0  0
 30 90  1  0  0  0  0
 31 91  1  0  0  0  0
 32 71  2  0  0  0  0
 33 72  1  0  0  0  0
 33 75  1  0  0  0  0
 34 76  1  0  0  0  0
 34 83  2  0  0  0  0
 35 55  1  0  0  0  0
 35 78  1  0  0  0  0
 35 84  2  0  0  0  0
 36 68  1  0  0  0  0
 36 73  1  0  0  0  0
 36 85  2  0  0  0  0
 37 69  1  0  0  0  0
 37 79  1  0  0  0  0
 37 86  2  0  0  0  0
 38 74  1  0  0  0  0
 38 77  1  0  0  0  0
 38 87  2  0  0  0  0
 39 42  1  0  0  0  0
 40 55  1  0  0  0  0
 41 73  1  0  0  0  0
 42 45  1  0  0  0  0
 43 46  1  0  0  0  0
 43 49  1  0  0  0  0
 44 47  1  0  0  0  0
 44 51  1  0  0  0  0
 45 54  1  0  0  0  0
 46 56  1  0  0  0  0
 47 58  1  0  0  0  0
 48 52  1  0  0  0  0
 48 57  1  0  0  0  0
 49 74  1  0  0  0  0
 50 56  1  0  0  0  0
 50 74  1  0  0  0  0
 51 81  1  0  0  0  0
 52 80  1  0  0  0  0
 53 57  1  0  0  0  0
 53 80  1  0  0  0  0
 54 78  1  0  0  0  0
 55 73  1  0  0  0  0
 56 72  1  0  0  0  0
 57 92  1  0  0  0  0
 58 67  1  0  0  0  0
 58 81  1  0  0  0  0
 60 69  1  0  0  0  0
 61 70  1  0  0  0  0
 62 70  1  0  0  0  0
 63 70  1  0  0  0  0
 64 82  1  0  0  0  0
 65 81  1  0  0  0  0
 66 80  1  0  0  0  0
 67 89  1  0  0  0  0
 68 70  1  0  0  0  0
 68 79  1  0  0  0  0
 69 82  1  0  0  0  0
 71 72  1  0  0  0  0
M  CHG  3  80   1  81   1  82   1
M  ISO  4  38 100  67 101  77 100  89 101
M  END
> <Batch ID>
0027

> <Smiles>
CNC(C)C(=O)NC(C(=O)N1Cc2cc([101O:1][101CH2:1]C3CCCN3Cc3ccc([100NH:0][100C:0](=O)N4CCCC(n5nc(-c6ccc(Oc7ccc(F)cc7F)cc6)c(C(N)=O)c5N)C4)c(CN4CCC(F)C4)c3C)ccc2CC1C(=O)NC1CCCc2ccccc21)C(C)(C)C

> <Shape>
0.221

> <Color>
0.051

> <Negative vol penalty>
0.000

$$$$

  -OEChem-04042321283D

 89 99  0     1  0  0  0  0  0999 V2000
  -24.7077  -33.0521   23.4710 C   0  0  0  0  0  0  0  0  0  0  0  0
  -24.9848  -31.7611   23.9092 C   0  0  0  0  0  0  0  0  0  0  0  0
  -23.2508   -9.6985   20.0177 C   0  0  0  0  0  0  0  0  0  0  0  0
  -23.8085   -9.9860   22.3508 C   0  0  0  0  0  0  0  0  0  0  0  0
  -23.4135  -33.3909   23.0781 C   0  0  0  0  0  0  0  0  0  0  0  0
  -23.9675  -30.8085   23.9559 C   0  0  0  0  0  0  0  0  0  0  0  0
  -25.4104  -26.3323   22.0780 C   0  0  0  0  0  0  0  0  0  0  0  0
  -22.5547   -8.5303   20.3280 C   0  0  0  0  0  0  0  0  0  0  0  0
  -23.1123   -8.8178   22.6612 C   0  0  0  0  0  0  0  0  0  0  0  0
  -26.1967  -25.5222   22.8960 C   0  0  0  0  0  0  0  0  0  0  0  0
  -19.8947   -7.8757   23.0849 C   0  0  0  0  0  0  0  0  0  0  0  0
  -19.0430   -7.9046   24.1891 C   0  0  0  0  0  0  0  0  0  0  0  0
  -24.2455  -24.2305   23.4822 C   0  0  0  0  0  0  0  0  0  0  0  0
  -30.0332  -20.2701   21.0633 C   0  0  0  0  0  0  0  0  0  0  0  0
  -20.3241   -6.1364   25.2233 C   0  0  0  0  0  0  0  0  0  0  0  0
  -23.8778  -10.4264   21.0291 C   0  0  0  0  0  0  0  0  0  0  0  0
  -24.0851  -12.9435   20.6702 C   0  0  0  0  0  0  0  0  0  0  0  0
  -22.3820  -32.4393   23.1108 C   0  0  0  0  0  0  0  0  0  0  0  0
  -24.0315  -26.1039   21.9642 C   0  0  0  0  0  0  0  0  0  0  0  0
  -22.6581  -31.1353   23.5643 C   0  0  0  0  0  0  0  0  0  0  0  0
  -23.4443  -25.0375   22.6600 C   0  0  0  0  0  0  0  0  0  0  0  0
  -29.6189  -19.7217   22.2771 C   0  0  0  0  0  0  0  0  0  0  0  0
  -29.5250  -18.3375   22.4211 C   0  0  0  0  0  0  0  0  0  0  0  0
  -30.3535  -19.4343   19.9935 C   0  0  0  0  0  0  0  0  0  0  0  0
  -29.8453  -17.5016   21.3513 C   0  0  0  0  0  0  0  0  0  0  0  0
  -22.4854   -8.0900   21.6498 C   0  0  0  0  0  0  0  0  0  0  0  0
  -25.6138  -24.4729   23.6006 C   0  0  0  0  0  0  0  0  0  0  0  0
  -20.9610   -6.9771   23.0497 C   0  0  0  0  0  0  0  0  0  0  0  0
  -19.2578   -7.0350   25.2584 C   0  0  0  0  0  0  0  0  0  0  0  0
  -21.1757   -6.1075   24.1189 C   0  0  0  0  0  0  0  0  0  0  0  0
  -30.2596  -18.0501   20.1375 C   0  0  0  0  0  0  0  0  0  0  0  0
  -24.5975  -11.6329   20.7091 C   0  0  0  0  0  0  0  0  0  0  0  0
  -25.1602  -13.7223   20.3181 C   0  0  0  0  0  0  0  0  0  0  0  0
  -22.7560  -13.4148   20.9294 C   0  0  0  0  0  0  0  0  0  0  0  0
  -21.4168  -27.7793   22.6427 C   0  0  0  0  0  0  0  0  0  0  0  0
  -19.9194  -25.2911   21.1974 C   0  0  0  0  0  0  0  0  0  0  0  0
  -19.9890  -22.0043   20.2814 C   0  0  0  0  0  0  0  0  0  0  0  0
  -30.5230  -15.1347   20.8174 C   0  0  0  0  0  0  0  0  0  0  0  0
  -20.9887  -32.8654   22.7212 C   0  0  0  0  0  0  0  0  0  0  0  0
  -23.2018  -26.9702   21.0567 C   0  0  0  0  0  0  0  0  0  0  0  0
  -21.9720  -24.7378   22.5562 C   0  0  0  0  0  0  0  0  0  0  0  0
  -20.0486  -31.6948   22.4452 C   0  0  0  0  0  0  0  0  0  0  0  0
  -31.0730  -21.5205   16.9864 C   0  0  0  0  0  0  0  0  0  0  0  0
  -31.7993  -20.2340   16.6495 C   0  0  0  0  0  0  0  0  0  0  0  0
  -29.7555  -12.4271   18.6364 C   0  0  0  0  0  0  0  0  0  0  0  0
  -20.1673  -30.6441   23.5447 C   0  0  0  0  0  0  0  0  0  0  0  0
  -28.3030  -12.0869   18.9780 C   0  0  0  0  0  0  0  0  0  0  0  0
  -30.9071  -21.4272   18.4989 C   0  0  0  0  0  0  0  0  0  0  0  0
  -31.1344  -19.2203   17.5736 C   0  0  0  0  0  0  0  0  0  0  0  0
  -30.5491  -12.8350   19.8764 C   0  0  0  0  0  0  0  0  0  0  0  0
  -28.4922  -13.5689   21.0164 C   0  0  0  0  0  0  0  0  0  0  0  0
  -27.5273  -21.4832   24.8980 C   0  0  0  0  0  0  0  0  0  0  0  0
  -27.2317  -21.8656   22.8660 C   0  0  0  0  0  0  0  0  0  0  0  0
  -21.5868  -30.0672   23.6056 C   0  0  1  0  0  0  0  0  0  0  0  0
  -21.7193  -26.9649   21.4167 C   0  0  1  0  0  0  0  0  0  0  0  0
  -27.6359  -13.2147   19.7896 C   0  0  2  0  0  0  0  0  0  0  0  0
  -26.4526  -22.2722   24.1291 C   0  0  0  0  0  0  0  0  0  1  0  0
  -29.0805  -17.7541   23.7258 C   0  0  0  0  0  0  0  0  0  0  0  0
  -18.6041  -20.2459   19.1467 C   0  0  0  0  0  0  0  0  0  0  0  0
  -18.1945  -25.0372   23.7015 C   0  0  0  0  0  0  0  0  0  0  0  0
  -17.5263  -22.7527   22.9250 C   0  0  0  0  0  0  0  0  0  0  0  0
  -16.9553  -24.7527   21.5478 C   0  0  0  0  0  0  0  0  0  0  0  0
  -22.0092  -21.6218   18.1527 C   0  0  0  0  0  0  0  0  0  0  0  0
  -29.2802  -20.6430   23.4117 C   0  0  0  0  0  0  0  0  0  0  0  0
  -19.3563  -23.9684   21.6585 C   0  0  1  0  0  0  0  0  0  0  0  0
  -19.6672  -21.3182   18.9660 C   0  0  2  0  0  0  0  0  0  0  0  0
  -18.0356  -24.1344   22.4619 C   0  0  0  0  0  0  0  0  0  0  0  0
  -25.8971  -11.5782   20.4057 N   0  0  0  0  0  0  0  0  0  0  0  0
  -26.2104  -12.8642   20.1728 N   0  0  0  0  0  0  0  0  0  0  0  0
  -30.7708  -19.9906   18.7693 N   0  0  0  0  0  0  0  0  0  0  0  0
  -21.2018  -25.6171   21.6611 N   0  0  0  0  0  0  0  0  0  0  0  0
  -29.8591  -13.9103   20.5923 N   0  0  0  0  0  0  0  0  0  0  0  0
  -25.3004  -15.0505   20.1217 N   0  0  0  0  0  0  0  0  0  0  0  0
  -21.7719  -12.4801   21.2790 N   0  0  0  0  0  0  0  0  0  0  0  0
  -29.7561  -16.0933   21.4790 N   0  0  0  0  0  0  0  0  0  0  0  0
  -21.7880  -29.1065   22.5421 N   0  0  0  0  0  0  0  0  0  0  0  0
  -19.2292  -23.1404   20.4641 N   0  0  0  0  0  0  0  0  0  0  0  0
  -27.8245  -20.7633   23.6459 N   0  3  0  0  0  0  0  0  0  0  0  0
  -20.8896  -20.6780   18.4031 N   0  3  0  0  0  0  0  0  0  0  0  0
  -22.4463  -14.6269   20.8371 O   0  0  0  0  0  0  0  0  0  0  0  0
  -20.8847  -27.2435   23.6078 O   0  0  0  0  0  0  0  0  0  0  0  0
  -19.2491  -26.0053   20.4476 O   0  0  0  0  0  0  0  0  0  0  0  0
  -20.8276  -21.5734   21.0697 O   0  0  0  0  0  0  0  0  0  0  0  0
  -31.6768  -15.3289   20.4263 O   0  0  0  0  0  0  0  0  0  0  0  0
  -21.8060   -6.9502   21.9530 O   0  0  0  0  0  0  0  0  0  0  0  0
  -26.3788  -23.6811   24.4003 O   0  0  0  0  0  0  0  0  0  1  0  0
  -18.4408   -7.0639   26.3195 F   0  0  0  0  0  0  0  0  0  0  0  0
  -22.1991   -5.2428   24.0914 F   0  0  0  0  0  0  0  0  0  0  0  0
  -30.5676  -17.2472   19.1074 F   0  0  0  0  0  0  0  0  0  0  0  0
  1  2  1  0  0  0  0
  1  5  2  0  0  0  0
  2  6  2  0  0  0  0
  3  8  2  0  0  0  0
  3 16  1  0  0  0  0
  4  9  1  0  0  0  0
  4 16  2  0  0  0  0
  5 18  1  0  0  0  0
  6 20  1  0  0  0  0
  7 10  2  0  0  0  0
  7 19  1  0  0  0  0
  8 26  1  0  0  0  0
  9 26  2  0  0  0  0
 10 27  1  0  0  0  0
 11 12  2  0  0  0  0
 11 28  1  0  0  0  0
 12 29  1  0  0  0  0
 13 21  1  0  0  0  0
 13 27  2  0  0  0  0
 14 22  1  0  0  0  0
 14 24  2  0  0  0  0
 15 29  2  0  0  0  0
 15 30  1  0  0  0  0
 16 32  1  0  0  0  0
 17 32  1  0  0  0  0
 17 33  2  0  0  0  0
 17 34  1  0  0  0  0
 18 20  2  0  0  0  0
 18 39  1  0  0  0  0
 19 21  2  0  0  0  0
 19 40  1  0  0  0  0
 20 54  1  0  0  0  0
 21 41  1  0  0  0  0
 22 23  2  0  0  0  0
 22 64  1  0  0  0  0
 23 25  1  0  0  0  0
 23 58  1  0  0  0  0
 24 31  1  0  0  0  0
 24 70  1  0  0  0  0
 25 31  2  0  0  0  0
 25 75  1  0  0  0  0
 26 85  1  0  0  0  0
 27 86  1  0  0  0  0
 28 30  2  0  0  0  0
 28 85  1  0  0  0  0
 29 87  1  0  0  0  0
 30 88  1  0  0  0  0
 31 89  1  0  0  0  0
 32 68  2  0  0  0  0
 33 69  1  0  0  0  0
 33 73  1  0  0  0  0
 34 74  1  0  0  0  0
 34 80  2  0  0  0  0
 35 55  1  0  0  0  0
 35 76  1  0  0  0  0
 35 81  2  0  0  0  0
 36 65  1  0  0  0  0
 36 71  1  0  0  0  0
 36 82  2  0  0  0  0
 37 66  1  0  0  0  0
 37 77  1  0  0  0  0
 37 83  2  0  0  0  0
 38 72  1  0  0  0  0
 38 75  1  0  0  0  0
 38 84  2  0  0  0  0
 39 42  1  0  0  0  0
 40 55  1  0  0  0  0
 41 71  1  0  0  0  0
 42 46  1  0  0  0  0
 43 44  1  0  0  0  0
 43 48  1  0  0  0  0
 44 49  1  0  0  0  0
 45 47  1  0  0  0  0
 45 50  1  0  0  0  0
 46 54  1  0  0  0  0
 47 56  1  0  0  0  0
 48 70  1  0  0  0  0
 49 70  1  0  0  0  0
 50 72  1  0  0  0  0
 51 56  1  0  0  0  0
 51 72  1  0  0  0  0
 52 57  1  0  0  0  0
 52 78  1  0  0  0  0
 53 57  1  0  0  0  0
 53 78  1  0  0  0  0
 54 76  1  0  0  0  0
 55 71  1  0  0  0  0
 56 69  1  0  0  0  0
 57 86  1  0  0  0  0
 59 66  1  0  0  0  0
 60 67  1  0  0  0  0
 61 67  1  0  0  0  0
 62 67  1  0  0  0  0
 63 79  1  0  0  0  0
 64 78  1  0  0  0  0
 65 67  1  0  0  0  0
 65 77  1  0  0  0  0
 66 79  1  0  0  0  0
 68 69  1  0  0  0  0
M  CHG  2  78   1  79   1
M  ISO  4  38 100  57 101  75 100  86 101
M  END
> <Batch ID>
0027

> <Smiles>
CNC(C)C(=O)NC(C(=O)N1Cc2cc([101O:1][101CH:1]3CN(Cc4cc(N5CCCC5)c(F)c([100NH:0][100C:0](=O)N5CCCC(n6nc(-c7ccc(Oc8ccc(F)cc8F)cc7)c(C(N)=O)c6N)C5)c4C)C3)ccc2CC1C(=O)NC1CCCc2ccccc21)C(C)(C)C

> <Shape>
0.265

> <Color>
0.187

> <Negative vol penalty>
0.000

$$$$

  -OEChem-04042321283D

 85 94  0     1  0  0  0  0  0999 V2000
  -29.4311  -30.8766   26.6045 C   0  0  0  0  0  0  0  0  0  0  0  0
  -29.2222  -30.0158   25.5318 C   0  0  0  0  0  0  0  0  0  0  0  0
  -24.2792   -8.8344   21.3915 C   0  0  0  0  0  0  0  0  0  0  0  0
  -23.9433  -10.6727   22.9228 C   0  0  0  0  0  0  0  0  0  0  0  0
  -28.3462  -31.3349   27.3507 C   0  0  0  0  0  0  0  0  0  0  0  0
  -27.9281  -29.6118   25.2053 C   0  0  0  0  0  0  0  0  0  0  0  0
  -27.0280  -29.8139   20.2259 C   0  0  0  0  0  0  0  0  0  0  0  0
  -29.5869  -20.1607   19.0011 C   0  0  0  0  0  0  0  0  0  0  0  0
  -29.6435  -18.7675   19.0374 C   0  0  0  0  0  0  0  0  0  0  0  0
  -23.7536   -7.9521   22.3354 C   0  0  0  0  0  0  0  0  0  0  0  0
  -23.4177   -9.7905   23.8667 C   0  0  0  0  0  0  0  0  0  0  0  0
  -27.5404  -28.7798   19.4438 C   0  0  0  0  0  0  0  0  0  0  0  0
  -20.6992   -7.0421   23.4650 C   0  0  0  0  0  0  0  0  0  0  0  0
  -19.7750   -6.0954   23.0233 C   0  0  0  0  0  0  0  0  0  0  0  0
  -25.3684  -27.7303   19.4191 C   0  0  0  0  0  0  0  0  0  0  0  0
  -21.2389   -4.3213   23.7627 C   0  0  0  0  0  0  0  0  0  0  0  0
  -24.3741  -10.1947   21.6852 C   0  0  0  0  0  0  0  0  0  0  0  0
  -24.2107  -11.8071   19.7152 C   0  0  0  0  0  0  0  0  0  0  0  0
  -27.0373  -30.9440   27.0272 C   0  0  0  0  0  0  0  0  0  0  0  0
  -25.6823  -29.8084   20.6203 C   0  0  0  0  0  0  0  0  0  0  0  0
  -26.8247  -30.0642   25.9487 C   0  0  0  0  0  0  0  0  0  0  0  0
  -24.8408  -28.7669   20.2041 C   0  0  0  0  0  0  0  0  0  0  0  0
  -28.3865  -20.8022   18.6955 C   0  0  0  0  0  0  0  0  0  0  0  0
  -28.4998  -18.0157   18.7680 C   0  0  0  0  0  0  0  0  0  0  0  0
  -23.3228   -8.4301   23.5730 C   0  0  0  0  0  0  0  0  0  0  0  0
  -26.7113  -27.7363   19.0427 C   0  0  0  0  0  0  0  0  0  0  0  0
  -21.8934   -6.6284   24.0555 C   0  0  0  0  0  0  0  0  0  0  0  0
  -20.0448   -4.7350   23.1722 C   0  0  0  0  0  0  0  0  0  0  0  0
  -22.1631   -5.2680   24.2044 C   0  0  0  0  0  0  0  0  0  0  0  0
  -27.2429  -20.0505   18.4261 C   0  0  0  0  0  0  0  0  0  0  0  0
  -27.2995  -18.6573   18.4624 C   0  0  0  0  0  0  0  0  0  0  0  0
  -24.9175  -11.1065   20.7109 C   0  0  0  0  0  0  0  0  0  0  0  0
  -25.1734  -12.5325   19.0567 C   0  0  0  0  0  0  0  0  0  0  0  0
  -22.8092  -11.8026   19.4125 C   0  0  0  0  0  0  0  0  0  0  0  0
  -24.1630  -29.7089   23.4106 C   0  0  0  0  0  0  0  0  0  0  0  0
  -21.5384  -30.1448   21.5548 C   0  0  0  0  0  0  0  0  0  0  0  0
  -20.0764  -29.8383   18.4863 C   0  0  0  0  0  0  0  0  0  0  0  0
  -29.6743  -15.8102   19.0879 C   0  0  0  0  0  0  0  0  0  0  0  0
  -25.9004  -31.4279   27.8921 C   0  0  0  0  0  0  0  0  0  0  0  0
  -25.1385  -30.9450   21.4417 C   0  0  0  0  0  0  0  0  0  0  0  0
  -23.3839  -28.7246   20.5838 C   0  0  0  0  0  0  0  0  0  0  0  0
  -24.5274  -31.2500   27.2491 C   0  0  0  0  0  0  0  0  0  0  0  0
  -30.2233  -12.2994   19.3121 C   0  0  0  0  0  0  0  0  0  0  0  0
  -24.3945  -29.8525   26.6522 C   0  0  0  0  0  0  0  0  0  0  0  0
  -28.8338  -11.7337   19.6141 C   0  0  0  0  0  0  0  0  0  0  0  0
  -28.8599  -24.4401   19.0578 C   0  0  0  0  0  0  0  0  0  0  0  0
  -30.4545  -13.6385   20.0100 C   0  0  0  0  0  0  0  0  0  0  0  0
  -29.4764  -23.0490   18.9274 C   0  0  0  0  0  0  0  0  0  0  0  0
  -27.1261  -22.9458   18.3596 C   0  0  0  0  0  0  0  0  0  0  0  0
  -28.0329  -14.0879   20.0651 C   0  0  0  0  0  0  0  0  0  0  0  0
  -25.4336  -29.6231   25.5481 C   0  0  1  0  0  0  0  0  0  0  0  0
  -23.8772  -30.5733   22.2153 C   0  0  1  0  0  0  0  0  0  0  0  0
  -27.6451  -24.3708   18.1369 C   0  0  1  0  0  0  0  0  0  0  0  0
  -27.7294  -12.7712   19.3318 C   0  0  2  0  0  0  0  0  0  0  0  0
  -17.9099  -30.2449   17.2870 C   0  0  0  0  0  0  0  0  0  0  0  0
  -20.3402  -27.6752   22.8871 C   0  0  0  0  0  0  0  0  0  0  0  0
  -18.6595  -27.5766   21.0341 C   0  0  0  0  0  0  0  0  0  0  0  0
  -18.7322  -29.5599   22.5454 C   0  0  0  0  0  0  0  0  0  0  0  0
  -21.3418  -31.7381   16.6026 C   0  0  0  0  0  0  0  0  0  0  0  0
  -26.6080  -25.4401   18.4321 C   0  0  0  0  0  0  0  0  0  1  0  0
  -20.5705  -29.2325   20.8408 C   0  0  1  0  0  0  0  0  0  0  0  0
  -19.2706  -30.8176   17.6521 C   0  0  2  0  0  0  0  0  0  0  0  0
  -19.6035  -28.5105   21.8211 C   0  0  0  0  0  0  0  0  0  0  0  0
  -26.2281  -11.3636   20.6904 N   0  0  0  0  0  0  0  0  0  0  0  0
  -26.3524  -12.2337   19.6738 N   0  0  0  0  0  0  0  0  0  0  0  0
  -28.3336  -22.1795   18.6603 N   0  0  3  0  0  0  0  0  0  0  0  0
  -22.9008  -29.8557   21.3931 N   0  0  0  0  0  0  0  0  0  0  0  0
  -29.3715  -14.5721   19.6931 N   0  0  0  0  0  0  0  0  0  0  0  0
  -25.1179  -13.3903   18.0158 N   0  0  0  0  0  0  0  0  0  0  0  0
  -21.9608  -11.0006   20.1880 N   0  0  0  0  0  0  0  0  0  0  0  0
  -28.5612  -16.6006   18.8036 N   0  0  0  0  0  0  0  0  0  0  0  0
  -25.0259  -30.2815   24.3255 N   0  0  0  0  0  0  0  0  0  0  0  0
  -19.9011  -30.0528   19.8370 N   0  0  0  0  0  0  0  0  0  0  0  0
  -19.9963  -31.1445   16.3922 N   0  3  0  0  0  0  0  0  0  0  0  0
  -22.3260  -12.4767   18.4715 O   0  0  0  0  0  0  0  0  0  0  0  0
  -23.6383  -28.6049   23.4972 O   0  0  0  0  0  0  0  0  0  0  0  0
  -21.1021  -31.0837   22.2253 O   0  0  0  0  0  0  0  0  0  0  0  0
  -20.7872  -28.9674   17.9894 O   0  0  0  0  0  0  0  0  0  0  0  0
  -30.8334  -16.1330   18.8153 O   0  0  0  0  0  0  0  0  0  0  0  0
  -22.8096   -7.5695   24.4941 O   0  0  0  0  0  0  0  0  0  0  0  0
  -27.2091  -26.7253   18.2798 O   0  0  0  0  0  0  0  0  0  1  0  0
  -19.1564   -3.8260   22.7494 F   0  0  0  0  0  0  0  0  0  0  0  0
  -23.3081   -4.8646   24.7720 F   0  0  0  0  0  0  0  0  0  0  0  0
  -26.0841  -20.6567   18.1312 F   0  0  0  0  0  0  0  0  0  0  0  0
  -26.1949  -17.9440   18.2009 F   0  0  0  0  0  0  0  0  0  0  0  0
  1  2  1  0  0  0  0
  1  5  2  0  0  0  0
  2  6  2  0  0  0  0
  3 10  2  0  0  0  0
  3 17  1  0  0  0  0
  4 11  1  0  0  0  0
  4 17  2  0  0  0  0
  5 19  1  0  0  0  0
  6 21  1  0  0  0  0
  7 12  2  0  0  0  0
  7 20  1  0  0  0  0
  8  9  2  0  0  0  0
  8 23  1  0  0  0  0
  9 24  1  0  0  0  0
 10 25  1  0  0  0  0
 11 25  2  0  0  0  0
 12 26  1  0  0  0  0
 13 14  2  0  0  0  0
 13 27  1  0  0  0  0
 14 28  1  0  0  0  0
 15 22  1  0  0  0  0
 15 26  2  0  0  0  0
 16 28  2  0  0  0  0
 16 29  1  0  0  0  0
 17 32  1  0  0  0  0
 18 32  1  0  0  0  0
 18 33  2  0  0  0  0
 18 34  1  0  0  0  0
 19 21  2  0  0  0  0
 19 39  1  0  0  0  0
 20 22  2  0  0  0  0
 20 40  1  0  0  0  0
 21 51  1  0  0  0  0
 22 41  1  0  0  0  0
 23 30  2  0  0  0  0
 23 66  1  0  0  0  0
 24 31  2  0  0  0  0
 24 71  1  0  0  0  0
 25 80  1  0  0  0  0
 26 81  1  0  0  0  0
 27 29  2  0  0  0  0
 27 80  1  0  0  0  0
 28 82  1  0  0  0  0
 29 83  1  0  0  0  0
 30 31  1  0  0  0  0
 30 84  1  0  0  0  0
 31 85  1  0  0  0  0
 32 64  2  0  0  0  0
 33 65  1  0  0  0  0
 33 69  1  0  0  0  0
 34 70  1  0  0  0  0
 34 75  2  0  0  0  0
 35 52  1  0  0  0  0
 35 72  1  0  0  0  0
 35 76  2  0  0  0  0
 36 61  1  0  0  0  0
 36 67  1  0  0  0  0
 36 77  2  0  0  0  0
 37 62  1  0  0  0  0
 37 73  1  0  0  0  0
 37 78  2  0  0  0  0
 38 68  1  0  0  0  0
 38 71  1  0  0  0  0
 38 79  2  0  0  0  0
 39 42  1  0  0  0  0
 40 52  1  0  0  0  0
 41 67  1  0  0  0  0
 42 44  1  0  0  0  0
 43 45  1  0  0  0  0
 43 47  1  0  0  0  0
 44 51  1  0  0  0  0
 45 54  1  0  0  0  0
 46 48  1  0  0  0  0
 46 53  1  0  0  0  0
 47 68  1  0  0  0  0
 48 66  1  0  0  0  0
 49 53  1  0  0  0  0
 49 66  1  0  0  0  0
 50 54  1  0  0  0  0
 50 68  1  0  0  0  0
 51 72  1  0  0  0  0
 52 67  1  0  0  0  0
 53 60  1  0  0  0  0
 54 65  1  0  0  0  0
 55 62  1  0  0  0  0
 56 63  1  0  0  0  0
 57 63  1  0  0  0  0
 58 63  1  0  0  0  0
 59 74  1  0  0  0  0
 60 81  1  0  0  0  0
 61 63  1  0  0  0  0
 61 73  1  0  0  0  0
 62 74  1  0  0  0  0
 64 65  1  0  0  0  0
M  CHG  1  74   1
M  ISO  4  38 100  60 101  71 100  81 101
M  END
> <Batch ID>
0027

> <Smiles>
CNC(C)C(=O)NC(C(=O)N1Cc2cc([101O:1][101CH2:1]C3CCN(c4ccc([100NH:0][100C:0](=O)N5CCCC(n6nc(-c7ccc(Oc8ccc(F)cc8F)cc7)c(C(N)=O)c6N)C5)c(F)c4F)C3)ccc2CC1C(=O)NC1CCCc2ccccc21)C(C)(C)C

> <Shape>
0.304

> <Color>
0.097

> <Negative vol penalty>
0.000

$$$$

  -OEChem-04042321283D

 86 95  0     1  0  0  0  0  0999 V2000
  -17.8352  -25.3056   24.8066 C   0  0  0  0  0  0  0  0  0  0  0  0
  -19.1711  -24.9446   24.9491 C   0  0  0  0  0  0  0  0  0  0  0  0
  -26.1804  -11.6513   20.9176 C   0  0  0  0  0  0  0  0  0  0  0  0
  -25.5880  -13.7788   19.9380 C   0  0  0  0  0  0  0  0  0  0  0  0
  -17.4911  -26.4027   24.0180 C   0  0  0  0  0  0  0  0  0  0  0  0
  -20.1637  -25.6799   24.3022 C   0  0  0  0  0  0  0  0  0  0  0  0
  -25.8125  -26.8467   26.3603 C   0  0  0  0  0  0  0  0  0  0  0  0
  -30.9065  -21.9175   23.5491 C   0  0  0  0  0  0  0  0  0  0  0  0
  -31.2094  -20.5628   23.4126 C   0  0  0  0  0  0  0  0  0  0  0  0
  -24.8285  -11.3525   21.0863 C   0  0  0  0  0  0  0  0  0  0  0  0
  -24.2360  -13.4801   20.1067 C   0  0  0  0  0  0  0  0  0  0  0  0
  -27.0469  -26.2536   26.0995 C   0  0  0  0  0  0  0  0  0  0  0  0
  -20.6366  -13.4328   20.6081 C   0  0  0  0  0  0  0  0  0  0  0  0
  -19.8108  -14.4327   21.1218 C   0  0  0  0  0  0  0  0  0  0  0  0
  -27.5002  -27.9420   24.4373 C   0  0  0  0  0  0  0  0  0  0  0  0
  -21.1472  -14.5027   23.1334 C   0  0  0  0  0  0  0  0  0  0  0  0
  -26.5602  -12.8645   20.3435 C   0  0  0  0  0  0  0  0  0  0  0  0
  -28.7590  -12.8821   19.0500 C   0  0  0  0  0  0  0  0  0  0  0  0
  -18.4807  -27.1577   23.3688 C   0  0  0  0  0  0  0  0  0  0  0  0
  -25.4072  -27.9875   25.6527 C   0  0  0  0  0  0  0  0  0  0  0  0
  -19.8324  -26.7873   23.5031 C   0  0  0  0  0  0  0  0  0  0  0  0
  -26.2612  -28.5492   24.6928 C   0  0  0  0  0  0  0  0  0  0  0  0
  -29.6861  -21.8546   21.4649 C   0  0  0  0  0  0  0  0  0  0  0  0
  -29.9892  -20.4999   21.3284 C   0  0  0  0  0  0  0  0  0  0  0  0
  -30.1448  -22.5634   22.5753 C   0  0  0  0  0  0  0  0  0  0  0  0
  -30.7508  -19.8540   22.3023 C   0  0  0  0  0  0  0  0  0  0  0  0
  -23.8563  -12.2669   20.6809 C   0  0  0  0  0  0  0  0  0  0  0  0
  -27.8898  -26.7995   25.1359 C   0  0  0  0  0  0  0  0  0  0  0  0
  -21.7176  -12.9677   21.3570 C   0  0  0  0  0  0  0  0  0  0  0  0
  -20.0662  -14.9676   22.3845 C   0  0  0  0  0  0  0  0  0  0  0  0
  -21.9729  -13.5027   22.6196 C   0  0  0  0  0  0  0  0  0  0  0  0
  -27.9567  -13.1739   20.1694 C   0  0  0  0  0  0  0  0  0  0  0  0
  -29.9974  -13.3782   19.3765 C   0  0  0  0  0  0  0  0  0  0  0  0
  -28.4154  -12.2218   17.8246 C   0  0  0  0  0  0  0  0  0  0  0  0
  -23.0054  -28.6718   23.6863 C   0  0  0  0  0  0  0  0  0  0  0  0
  -24.2123  -31.6762   23.8854 C   0  0  0  0  0  0  0  0  0  0  0  0
  -26.9018  -33.6827   24.5075 C   0  0  0  0  0  0  0  0  0  0  0  0
  -31.8165  -17.7056   23.0738 C   0  0  0  0  0  0  0  0  0  0  0  0
  -18.0566  -28.3068   22.4888 C   0  0  0  0  0  0  0  0  0  0  0  0
  -24.0840  -28.6310   25.9647 C   0  0  0  0  0  0  0  0  0  0  0  0
  -25.8817  -29.7849   23.9198 C   0  0  0  0  0  0  0  0  0  0  0  0
  -19.1971  -29.2594   22.1393 C   0  0  0  0  0  0  0  0  0  0  0  0
  -32.7910  -14.2822   23.1598 C   0  0  0  0  0  0  0  0  0  0  0  0
  -20.4324  -28.4768   21.7055 C   0  0  0  0  0  0  0  0  0  0  0  0
  -31.7384  -13.5838   22.2958 C   0  0  0  0  0  0  0  0  0  0  0  0
  -32.1872  -15.4214   23.9792 C   0  0  0  0  0  0  0  0  0  0  0  0
  -30.3711  -15.7088   22.3395 C   0  0  0  0  0  0  0  0  0  0  0  0
  -30.6481  -24.8899   23.3903 C   0  0  0  0  0  0  0  0  0  0  0  0
  -28.6040  -24.4809   23.1039 C   0  0  0  0  0  0  0  0  0  0  0  0
  -20.9398  -27.5750   22.8372 C   0  0  1  0  0  0  0  0  0  0  0  0
  -23.5530  -29.4901   24.8213 C   0  0  1  0  0  0  0  0  0  0  0  0
  -30.9443  -14.5959   21.4470 C   0  0  2  0  0  0  0  0  0  0  0  0
  -29.3747  -25.7331   23.5462 C   0  0  0  0  0  0  0  0  0  1  0  0
  -28.8684  -22.5456   20.4187 C   0  0  0  0  0  0  0  0  0  0  0  0
  -27.5908  -36.0953   24.5540 C   0  0  0  0  0  0  0  0  0  0  0  0
  -24.3090  -31.7048   20.8358 C   0  0  0  0  0  0  0  0  0  0  0  0
  -25.8447  -33.6775   20.9725 C   0  0  0  0  0  0  0  0  0  0  0  0
  -23.5248  -33.8402   21.8748 C   0  0  0  0  0  0  0  0  0  0  0  0
  -27.5759  -33.5550   27.3865 C   0  0  0  0  0  0  0  0  0  0  0  0
  -25.2448  -32.4666   23.1184 C   0  0  1  0  0  0  0  0  0  0  0  0
  -27.0540  -34.9261   25.3650 C   0  0  2  0  0  0  0  0  0  0  0  0
  -29.4969  -19.7405   20.1358 C   0  0  0  0  0  0  0  0  0  0  0  0
  -24.7374  -32.8979   21.7134 C   0  0  0  0  0  0  0  0  0  0  0  0
  -28.6290  -13.8062   21.1349 N   0  0  0  0  0  0  0  0  0  0  0  0
  -29.8668  -13.9158   20.6232 N   0  0  0  0  0  0  0  0  0  0  0  0
  -29.8529  -23.9141   22.7298 N   0  0  0  0  0  0  0  0  0  0  0  0
  -24.5750  -30.3737   24.2565 N   0  0  0  0  0  0  0  0  0  0  0  0
  -31.4538  -16.3425   23.1083 N   0  0  0  0  0  0  0  0  0  0  0  0
  -31.1745  -13.4027   18.7160 N   0  0  0  0  0  0  0  0  0  0  0  0
  -27.0981  -11.7751   17.6529 N   0  0  0  0  0  0  0  0  0  0  0  0
  -31.0702  -18.4785   22.1848 N   0  0  0  0  0  0  0  0  0  0  0  0
  -21.6670  -28.3538   23.8165 N   0  0  0  0  0  0  0  0  0  0  0  0
  -25.6318  -33.5777   23.9810 N   0  0  0  0  0  0  0  0  0  0  0  0
  -27.9929  -34.6659   26.4927 N   0  3  0  0  0  0  0  0  0  0  0  0
  -29.2559  -12.0188   16.9158 O   0  0  0  0  0  0  0  0  0  0  0  0
  -23.7423  -28.3539   22.7602 O   0  0  0  0  0  0  0  0  0  0  0  0
  -23.1267  -32.1979   24.1518 O   0  0  0  0  0  0  0  0  0  0  0  0
  -27.8191  -32.8863   24.3203 O   0  0  0  0  0  0  0  0  0  0  0  0
  -32.7405  -18.1489   23.7606 O   0  0  0  0  0  0  0  0  0  0  0  0
  -22.5369  -11.9755   20.8452 O   0  0  0  0  0  0  0  0  0  0  0  0
  -29.0950  -26.2221   24.8789 O   0  0  0  0  0  0  0  0  0  1  0  0
  -19.2740  -15.9289   22.8771 F   0  0  0  0  0  0  0  0  0  0  0  0
  -23.0107  -13.0608   23.3433 F   0  0  0  0  0  0  0  0  0  0  0  0
  -28.7680  -20.5027   19.2712 F   0  0  0  0  0  0  0  0  0  0  0  0
  -30.5001  -19.2025   19.3851 F   0  0  0  0  0  0  0  0  0  0  0  0
  -28.6910  -18.6972   20.4807 F   0  0  0  0  0  0  0  0  0  0  0  0
  1  2  1  0  0  0  0
  1  5  2  0  0  0  0
  2  6  2  0  0  0  0
  3 10  2  0  0  0  0
  3 17  1  0  0  0  0
  4 11  1  0  0  0  0
  4 17  2  0  0  0  0
  5 19  1  0  0  0  0
  6 21  1  0  0  0  0
  7 12  2  0  0  0  0
  7 20  1  0  0  0  0
  8  9  2  0  0  0  0
  8 25  1  0  0  0  0
  9 26  1  0  0  0  0
 10 27  1  0  0  0  0
 11 27  2  0  0  0  0
 12 28  1  0  0  0  0
 13 14  2  0  0  0  0
 13 29  1  0  0  0  0
 14 30  1  0  0  0  0
 15 22  1  0  0  0  0
 15 28  2  0  0  0  0
 16 30  2  0  0  0  0
 16 31  1  0  0  0  0
 17 32  1  0  0  0  0
 18 32  1  0  0  0  0
 18 33  2  0  0  0  0
 18 34  1  0  0  0  0
 19 21  2  0  0  0  0
 19 39  1  0  0  0  0
 20 22  2  0  0  0  0
 20 40  1  0  0  0  0
 21 50  1  0  0  0  0
 22 41  1  0  0  0  0
 23 24  1  0  0  0  0
 23 25  2  0  0  0  0
 23 54  1  0  0  0  0
 24 26  2  0  0  0  0
 24 62  1  0  0  0  0
 25 66  1  0  0  0  0
 26 71  1  0  0  0  0
 27 80  1  0  0  0  0
 28 81  1  0  0  0  0
 29 31  2  0  0  0  0
 29 80  1  0  0  0  0
 30 82  1  0  0  0  0
 31 83  1  0  0  0  0
 32 64  2  0  0  0  0
 33 65  1  0  0  0  0
 33 69  1  0  0  0  0
 34 70  1  0  0  0  0
 34 75  2  0  0  0  0
 35 51  1  0  0  0  0
 35 72  1  0  0  0  0
 35 76  2  0  0  0  0
 36 60  1  0  0  0  0
 36 67  1  0  0  0  0
 36 77  2  0  0  0  0
 37 61  1  0  0  0  0
 37 73  1  0  0  0  0
 37 78  2  0  0  0  0
 38 68  1  0  0  0  0
 38 71  1  0  0  0  0
 38 79  2  0  0  0  0
 39 42  1  0  0  0  0
 40 51  1  0  0  0  0
 41 67  1  0  0  0  0
 42 44  1  0  0  0  0
 43 45  1  0  0  0  0
 43 46  1  0  0  0  0
 44 50  1  0  0  0  0
 45 52  1  0  0  0  0
 46 68  1  0  0  0  0
 47 52  1  0  0  0  0
 47 68  1  0  0  0  0
 48 53  1  0  0  0  0
 48 66  1  0  0  0  0
 49 53  1  0  0  0  0
 49 66  1  0  0  0  0
 50 72  1  0  0  0  0
 51 67  1  0  0  0  0
 52 65  1  0  0  0  0
 53 81  1  0  0  0  0
 55 61  1  0  0  0  0
 56 63  1  0  0  0  0
 57 63  1  0  0  0  0
 58 63  1  0  0  0  0
 59 74  1  0  0  0  0
 60 63  1  0  0  0  0
 60 73  1  0  0  0  0
 61 74  1  0  0  0  0
 62 84  1  0  0  0  0
 62 85  1  0  0  0  0
 62 86  1  0  0  0  0
 64 65  1  0  0  0  0
M  CHG  1  74   1
M  ISO  4  38 100  53 101  71 100  81 101
M  END
> <Batch ID>
0027

> <Smiles>
CNC(C)C(=O)NC(C(=O)N1Cc2cc([101O:1][101CH:1]3CN(c4ccc([100NH:0][100C:0](=O)N5CCCC(n6nc(-c7ccc(Oc8ccc(F)cc8F)cc7)c(C(N)=O)c6N)C5)c(C(F)(F)F)c4C)C3)ccc2CC1C(=O)NC1CCCc2ccccc21)C(C)(C)C

> <Shape>
0.277

> <Color>
0.091

> <Negative vol penalty>
0.000

$$$$

  -OEChem-04042321283D

 86 95  0     1  0  0  0  0  0999 V2000
  -25.9898  -35.6994   22.4169 C   0  0  0  0  0  0  0  0  0  0  0  0
  -26.5495  -34.4319   22.2920 C   0  0  0  0  0  0  0  0  0  0  0  0
  -24.7661  -13.3234   21.6227 C   0  0  0  0  0  0  0  0  0  0  0  0
  -26.7382  -12.9430   20.2798 C   0  0  0  0  0  0  0  0  0  0  0  0
  -24.7174  -35.8471   22.9673 C   0  0  0  0  0  0  0  0  0  0  0  0
  -25.8374  -33.3114   22.7185 C   0  0  0  0  0  0  0  0  0  0  0  0
  -26.0344  -29.5012   19.3885 C   0  0  0  0  0  0  0  0  0  0  0  0
  -24.1444  -12.2303   21.0193 C   0  0  0  0  0  0  0  0  0  0  0  0
  -26.1165  -11.8498   19.6764 C   0  0  0  0  0  0  0  0  0  0  0  0
  -27.2019  -28.7397   19.3606 C   0  0  0  0  0  0  0  0  0  0  0  0
  -22.1719   -9.3211   20.0914 C   0  0  0  0  0  0  0  0  0  0  0  0
  -21.4897   -8.4265   20.9160 C   0  0  0  0  0  0  0  0  0  0  0  0
  -26.1166  -27.0385   20.6826 C   0  0  0  0  0  0  0  0  0  0  0  0
  -33.1230  -22.4025   20.4224 C   0  0  0  0  0  0  0  0  0  0  0  0
  -33.9674  -23.1104   18.2722 C   0  0  0  0  0  0  0  0  0  0  0  0
  -23.5384   -7.9650   22.1104 C   0  0  0  0  0  0  0  0  0  0  0  0
  -26.0630  -13.6798   21.2529 C   0  0  0  0  0  0  0  0  0  0  0  0
  -27.4972  -14.8018   23.0395 C   0  0  0  0  0  0  0  0  0  0  0  0
  -23.9854  -34.7270   23.3918 C   0  0  0  0  0  0  0  0  0  0  0  0
  -24.9008  -29.0413   20.0740 C   0  0  0  0  0  0  0  0  0  0  0  0
  -24.5545  -33.4444   23.2763 C   0  0  0  0  0  0  0  0  0  0  0  0
  -24.9352  -27.7950   20.7155 C   0  0  0  0  0  0  0  0  0  0  0  0
  -31.9352  -23.0937   20.1835 C   0  0  0  0  0  0  0  0  0  0  0  0
  -32.7796  -23.8016   18.0334 C   0  0  0  0  0  0  0  0  0  0  0  0
  -24.8195  -11.4935   20.0462 C   0  0  0  0  0  0  0  0  0  0  0  0
  -27.2441  -27.5095   20.0101 C   0  0  0  0  0  0  0  0  0  0  0  0
  -23.5375   -9.5376   20.2763 C   0  0  0  0  0  0  0  0  0  0  0  0
  -22.1729   -7.7485   21.9255 C   0  0  0  0  0  0  0  0  0  0  0  0
  -24.2207   -8.8595   21.2858 C   0  0  0  0  0  0  0  0  0  0  0  0
  -31.7635  -23.7933   18.9890 C   0  0  0  0  0  0  0  0  0  0  0  0
  -34.1391  -22.4109   19.4667 C   0  0  0  0  0  0  0  0  0  0  0  0
  -26.7056  -14.8093   21.8754 C   0  0  0  0  0  0  0  0  0  0  0  0
  -27.8679  -16.1131   23.2111 C   0  0  0  0  0  0  0  0  0  0  0  0
  -27.8645  -13.7073   23.8898 C   0  0  0  0  0  0  0  0  0  0  0  0
  -23.1945  -30.0880   22.5432 C   0  0  0  0  0  0  0  0  0  0  0  0
  -21.2608  -27.6040   21.7600 C   0  0  0  0  0  0  0  0  0  0  0  0
  -20.9224  -24.5560   20.2626 C   0  0  0  0  0  0  0  0  0  0  0  0
  -29.8193  -20.8082   21.1875 C   0  0  0  0  0  0  0  0  0  0  0  0
  -22.6328  -34.9407   24.0240 C   0  0  0  0  0  0  0  0  0  0  0  0
  -23.6406  -29.8625   20.0721 C   0  0  0  0  0  0  0  0  0  0  0  0
  -23.7389  -27.2469   21.4483 C   0  0  0  0  0  0  0  0  0  0  0  0
  -21.7915  -33.6697   24.1067 C   0  0  0  0  0  0  0  0  0  0  0  0
  -26.2427  -20.3226   20.9241 C   0  0  0  0  0  0  0  0  0  0  0  0
  -22.6271  -32.5100   24.6393 C   0  0  0  0  0  0  0  0  0  0  0  0
  -26.1134  -18.8330   21.2474 C   0  0  0  0  0  0  0  0  0  0  0  0
  -32.4413  -25.5537   15.0886 C   0  0  0  0  0  0  0  0  0  0  0  0
  -27.4996  -20.6037   20.1060 C   0  0  0  0  0  0  0  0  0  0  0  0
  -33.6098  -25.1199   15.9795 C   0  0  0  0  0  0  0  0  0  0  0  0
  -31.5904  -24.5482   15.8712 C   0  0  0  0  0  0  0  0  0  0  0  0
  -28.6361  -18.6344   21.0568 C   0  0  0  0  0  0  0  0  0  0  0  0
  -23.8032  -32.2025   23.7046 C   0  0  1  0  0  0  0  0  0  0  0  0
  -22.7097  -29.5312   21.2345 C   0  0  1  0  0  0  0  0  0  0  0  0
  -27.3968  -18.2882   21.9019 C   0  0  2  0  0  0  0  0  0  0  0  0
  -19.2306  -22.7568   19.8176 C   0  0  0  0  0  0  0  0  0  0  0  0
  -21.4921  -26.6735   24.6566 C   0  0  0  0  0  0  0  0  0  0  0  0
  -20.6111  -24.4431   23.9374 C   0  0  0  0  0  0  0  0  0  0  0  0
  -19.1979  -26.4824   23.6796 C   0  0  0  0  0  0  0  0  0  0  0  0
  -21.1903  -24.8679   17.3317 C   0  0  0  0  0  0  0  0  0  0  0  0
  -30.8810  -23.0503   21.2440 C   0  0  0  0  0  0  0  0  0  0  0  0
  -29.5406  -27.2667   19.2779 C   0  0  0  0  0  0  0  0  0  1  0  0
  -30.6936  -26.2832   19.3995 C   0  0  0  0  0  0  0  0  0  0  0  0
  -21.1814  -26.1473   22.1481 C   0  0  1  0  0  0  0  0  0  0  0  0
  -19.8883  -24.0217   19.2882 C   0  0  2  0  0  0  0  0  0  0  0  0
  -20.6440  -25.9475   23.5933 C   0  0  0  0  0  0  0  0  0  0  0  0
  -26.5802  -16.0287   21.3450 N   0  0  0  0  0  0  0  0  0  0  0  0
  -27.2979  -16.7996   22.1796 N   0  0  0  0  0  0  0  0  0  0  0  0
  -32.6487  -24.4928   16.8211 N   0  0  0  0  0  0  0  0  0  0  0  0
  -22.5321  -28.0900   21.4232 N   0  0  0  0  0  0  0  0  0  0  0  0
  -28.6871  -20.0763   20.7929 N   0  0  0  0  0  0  0  0  0  0  0  0
  -28.6227  -16.7344   24.1421 N   0  0  0  0  0  0  0  0  0  0  0  0
  -27.3974  -12.4256   23.5683 N   0  0  0  0  0  0  0  0  0  0  0  0
  -23.3489  -31.4611   22.5477 N   0  0  0  0  0  0  0  0  0  0  0  0
  -20.3822  -25.4932   21.1176 N   0  0  0  0  0  0  0  0  0  0  0  0
  -29.7914  -22.1662   20.8945 N   0  0  0  0  0  0  0  0  0  0  0  0
  -20.5250  -23.7073   17.9779 N   0  3  0  0  0  0  0  0  0  0  0  0
  -28.5720  -13.8640   24.9137 O   0  0  0  0  0  0  0  0  0  0  0  0
  -23.4109  -29.3282   23.4799 O   0  0  0  0  0  0  0  0  0  0  0  0
  -20.2316  -28.2838   21.7489 O   0  0  0  0  0  0  0  0  0  0  0  0
  -22.0915  -24.1770   20.2674 O   0  0  0  0  0  0  0  0  0  0  0  0
  -30.7823  -20.2907   21.7635 O   0  0  0  0  0  0  0  0  0  0  0  0
  -24.2132  -10.4266   19.4574 O   0  0  0  0  0  0  0  0  0  0  0  0
  -28.3826  -26.7644   19.9850 O   0  0  0  0  0  0  0  0  0  1  0  0
  -21.5173   -6.8906   22.7182 F   0  0  0  0  0  0  0  0  0  0  0  0
  -25.5323   -9.0643   21.4690 F   0  0  0  0  0  0  0  0  0  0  0  0
  -30.2568  -24.6652   18.6931 S   0  0  0  0  0  0  0  0  0  0  0  0
  -35.6052  -21.5590   19.7630 Cl  0  0  0  0  0  0  0  0  0  0  0  0
  1  2  1  0  0  0  0
  1  5  2  0  0  0  0
  2  6  2  0  0  0  0
  3  8  2  0  0  0  0
  3 17  1  0  0  0  0
  4  9  1  0  0  0  0
  4 17  2  0  0  0  0
  5 19  1  0  0  0  0
  6 21  1  0  0  0  0
  7 10  2  0  0  0  0
  7 20  1  0  0  0  0
  8 25  1  0  0  0  0
  9 25  2  0  0  0  0
 10 26  1  0  0  0  0
 11 12  2  0  0  0  0
 11 27  1  0  0  0  0
 12 28  1  0  0  0  0
 13 22  1  0  0  0  0
 13 26  2  0  0  0  0
 14 23  2  0  0  0  0
 14 31  1  0  0  0  0
 15 24  1  0  0  0  0
 15 31  2  0  0  0  0
 16 28  2  0  0  0  0
 16 29  1  0  0  0  0
 17 32  1  0  0  0  0
 18 32  1  0  0  0  0
 18 33  2  0  0  0  0
 18 34  1  0  0  0  0
 19 21  2  0  0  0  0
 19 39  1  0  0  0  0
 20 22  2  0  0  0  0
 20 40  1  0  0  0  0
 21 51  1  0  0  0  0
 22 41  1  0  0  0  0
 23 30  1  0  0  0  0
 23 59  1  0  0  0  0
 24 30  2  0  0  0  0
 24 67  1  0  0  0  0
 25 81  1  0  0  0  0
 26 82  1  0  0  0  0
 27 29  2  0  0  0  0
 27 81  1  0  0  0  0
 28 83  1  0  0  0  0
 29 84  1  0  0  0  0
 30 85  1  0  0  0  0
 31 86  1  0  0  0  0
 32 65  2  0  0  0  0
 33 66  1  0  0  0  0
 33 70  1  0  0  0  0
 34 71  1  0  0  0  0
 34 76  2  0  0  0  0
 35 52  1  0  0  0  0
 35 72  1  0  0  0  0
 35 77  2  0  0  0  0
 36 62  1  0  0  0  0
 36 68  1  0  0  0  0
 36 78  2  0  0  0  0
 37 63  1  0  0  0  0
 37 73  1  0  0  0  0
 37 79  2  0  0  0  0
 38 69  1  0  0  0  0
 38 74  1  0  0  0  0
 38 80  2  0  0  0  0
 39 42  1  0  0  0  0
 40 52  1  0  0  0  0
 41 68  1  0  0  0  0
 42 44  1  0  0  0  0
 43 45  1  0  0  0  0
 43 47  1  0  0  0  0
 44 51  1  0  0  0  0
 45 53  1  0  0  0  0
 46 48  1  0  0  0  0
 46 49  1  0  0  0  0
 47 69  1  0  0  0  0
 48 67  1  0  0  0  0
 49 67  1  0  0  0  0
 50 53  1  0  0  0  0
 50 69  1  0  0  0  0
 51 72  1  0  0  0  0
 52 68  1  0  0  0  0
 53 66  1  0  0  0  0
 54 63  1  0  0  0  0
 55 64  1  0  0  0  0
 56 64  1  0  0  0  0
 57 64  1  0  0  0  0
 58 75  1  0  0  0  0
 59 74  1  0  0  0  0
 60 61  1  0  0  0  0
 60 82  1  0  0  0  0
 61 85  1  0  0  0  0
 62 64  1  0  0  0  0
 62 73  1  0  0  0  0
 63 75  1  0  0  0  0
 65 66  1  0  0  0  0
M  CHG  1  75   1
M  ISO  4  38 100  60 101  74 100  82 101
M  END
> <Batch ID>
0027

> <Smiles>
CNC(C)C(=O)NC(C(=O)N1Cc2cc([101O:1][101CH2:1]CSc3c(C[100NH:0][100C:0](=O)N4CCCC(n5nc(-c6ccc(Oc7ccc(F)cc7F)cc6)c(C(N)=O)c5N)C4)cc(Cl)cc3N3CCC3)ccc2CC1C(=O)NC1CCCc2ccccc21)C(C)(C)C

> <Shape>
0.268

> <Color>
0.088

> <Negative vol penalty>
0.000

$$$$

  -OEChem-04042321283D

 90100  0     1  0  0  0  0  0999 V2000
  -31.8054  -33.6520   15.3365 C   0  0  0  0  0  0  0  0  0  0  0  0
  -31.4759  -32.3103   15.5003 C   0  0  0  0  0  0  0  0  0  0  0  0
  -22.7757  -10.0640   20.2139 C   0  0  0  0  0  0  0  0  0  0  0  0
  -23.9022   -9.6315   22.3070 C   0  0  0  0  0  0  0  0  0  0  0  0
  -31.7225  -34.5262   16.4195 C   0  0  0  0  0  0  0  0  0  0  0  0
  -31.0644  -31.8418   16.7475 C   0  0  0  0  0  0  0  0  0  0  0  0
  -26.9281  -27.4632   17.8540 C   0  0  0  0  0  0  0  0  0  0  0  0
  -25.6115  -18.8038   23.4793 C   0  0  0  0  0  0  0  0  0  0  0  0
  -26.6907  -19.4654   24.0653 C   0  0  0  0  0  0  0  0  0  0  0  0
  -22.3635   -8.7326   20.1606 C   0  0  0  0  0  0  0  0  0  0  0  0
  -23.4900   -8.3000   22.2538 C   0  0  0  0  0  0  0  0  0  0  0  0
  -27.0547  -26.1077   18.1547 C   0  0  0  0  0  0  0  0  0  0  0  0
  -20.6772   -6.5378   22.8890 C   0  0  0  0  0  0  0  0  0  0  0  0
  -20.1641   -5.9726   24.0564 C   0  0  0  0  0  0  0  0  0  0  0  0
  -26.8746  -26.6185   20.5054 C   0  0  0  0  0  0  0  0  0  0  0  0
  -21.9158   -4.3091   24.0210 C   0  0  0  0  0  0  0  0  0  0  0  0
  -23.5451  -10.5135   21.2871 C   0  0  0  0  0  0  0  0  0  0  0  0
  -24.7722  -12.5688   20.4052 C   0  0  0  0  0  0  0  0  0  0  0  0
  -31.3005  -34.0701   17.6783 C   0  0  0  0  0  0  0  0  0  0  0  0
  -26.7845  -28.4092   18.8791 C   0  0  0  0  0  0  0  0  0  0  0  0
  -30.9771  -32.7104   17.8487 C   0  0  0  0  0  0  0  0  0  0  0  0
  -26.7438  -27.9851   20.2149 C   0  0  0  0  0  0  0  0  0  0  0  0
  -25.1990  -19.1467   22.1917 C   0  0  0  0  0  0  0  0  0  0  0  0
  -27.3573  -20.4699   23.3637 C   0  0  0  0  0  0  0  0  0  0  0  0
  -26.9447  -20.8128   22.0761 C   0  0  0  0  0  0  0  0  0  0  0  0
  -22.7206   -7.8506   21.1805 C   0  0  0  0  0  0  0  0  0  0  0  0
  -27.0308  -25.6854   19.4806 C   0  0  0  0  0  0  0  0  0  0  0  0
  -21.8096   -5.9886   22.2875 C   0  0  0  0  0  0  0  0  0  0  0  0
  -20.7834   -4.8583   24.6224 C   0  0  0  0  0  0  0  0  0  0  0  0
  -22.4289   -4.8743   22.8536 C   0  0  0  0  0  0  0  0  0  0  0  0
  -25.8655  -20.1512   21.4901 C   0  0  0  0  0  0  0  0  0  0  0  0
  -23.9717  -11.8887   21.3425 C   0  0  0  0  0  0  0  0  0  0  0  0
  -24.8884  -13.8403   20.9114 C   0  0  0  0  0  0  0  0  0  0  0  0
  -25.3583  -12.0937   19.1860 C   0  0  0  0  0  0  0  0  0  0  0  0
  -28.4830  -30.8999   19.8869 C   0  0  0  0  0  0  0  0  0  0  0  0
  -25.9353  -31.3499   21.8437 C   0  0  0  0  0  0  0  0  0  0  0  0
  -23.2422  -30.0030   23.4499 C   0  0  0  0  0  0  0  0  0  0  0  0
  -22.1099  -18.2474   23.1862 C   0  0  0  0  0  0  0  0  0  0  0  0
  -31.2719  -35.0428   18.8306 C   0  0  0  0  0  0  0  0  0  0  0  0
  -26.6224  -29.8649   18.5368 C   0  0  0  0  0  0  0  0  0  0  0  0
  -26.5715  -28.9586   21.3512 C   0  0  0  0  0  0  0  0  0  0  0  0
  -30.4677  -34.5444   20.0286 C   0  0  0  0  0  0  0  0  0  0  0  0
  -29.6950  -22.6417   25.2952 C   0  0  0  0  0  0  0  0  0  0  0  0
  -30.6551  -21.6973   24.6006 C   0  0  0  0  0  0  0  0  0  0  0  0
  -23.6472  -15.7324   25.4252 C   0  0  0  0  0  0  0  0  0  0  0  0
  -30.8336  -33.0996   20.3534 C   0  0  0  0  0  0  0  0  0  0  0  0
  -23.8645  -14.5433   24.4909 C   0  0  0  0  0  0  0  0  0  0  0  0
  -29.0534  -22.8713   19.8588 C   0  0  0  0  0  0  0  0  0  0  0  0
  -28.3724  -21.8868   25.2275 C   0  0  0  0  0  0  0  0  0  0  0  0
  -29.8156  -21.1482   23.4528 C   0  0  0  0  0  0  0  0  0  0  0  0
  -22.4679  -16.5933   24.9826 C   0  0  0  0  0  0  0  0  0  0  0  0
  -28.2522  -21.5888   20.0828 C   0  0  0  0  0  0  0  0  0  0  0  0
  -22.7756  -15.8706   22.6380 C   0  0  0  0  0  0  0  0  0  0  0  0
  -27.6946  -23.1938   21.8101 C   0  0  0  0  0  0  0  0  0  0  0  0
  -30.5027  -32.1695   19.1800 C   0  0  1  0  0  0  0  0  0  0  0  0
  -26.9976  -30.7945   19.6867 C   0  0  1  0  0  0  0  0  0  0  0  0
  -23.9854  -15.0088   23.0295 C   0  0  2  0  0  0  0  0  0  0  0  0
  -28.2411  -23.9313   20.5884 C   0  0  2  0  0  0  0  0  0  1  0  0
  -21.3707  -30.6109   25.0072 C   0  0  0  0  0  0  0  0  0  0  0  0
  -27.8962  -31.3891   24.1811 C   0  0  0  0  0  0  0  0  0  0  0  0
  -25.9557  -31.0411   25.7243 C   0  0  0  0  0  0  0  0  0  0  0  0
  -26.0755  -33.0980   24.3181 C   0  0  0  0  0  0  0  0  0  0  0  0
  -22.3122  -20.1871   21.6775 C   0  0  0  0  0  0  0  0  0  0  0  0
  -21.1860  -29.2533   21.4577 C   0  0  0  0  0  0  0  0  0  0  0  0
  -24.0459  -18.4356   21.5678 C   0  0  0  0  0  0  0  0  0  0  0  0
  -25.5525  -30.8787   23.2259 C   0  0  1  0  0  0  0  0  0  0  0  0
  -21.7992  -30.4622   23.5557 C   0  0  2  0  0  0  0  0  0  0  0  0
  -26.3752  -31.5833   24.3413 C   0  0  0  0  0  0  0  0  0  0  0  0
  -23.6054  -12.6639   22.3666 N   0  0  0  0  0  0  0  0  0  0  0  0
  -24.1784  -13.8443   22.0759 N   0  0  0  0  0  0  0  0  0  0  0  0
  -28.4435  -21.1252   23.9744 N   0  0  0  0  0  0  0  0  0  0  0  0
  -27.5922  -21.8028   21.3672 N   0  0  3  0  0  0  0  0  0  0  0  0
  -26.4233  -30.3718   20.9657 N   0  0  0  0  0  0  0  0  0  0  0  0
  -22.5868  -16.9857   23.5780 N   0  0  0  0  0  0  0  0  0  0  0  0
  -25.5277  -14.9442   20.4696 N   0  0  0  0  0  0  0  0  0  0  0  0
  -26.6422  -11.5339   19.2356 N   0  0  0  0  0  0  0  0  0  0  0  0
  -29.0825  -31.8945   19.1381 N   0  0  0  0  0  0  0  0  0  0  0  0
  -24.1102  -31.0684   23.3369 N   0  0  0  0  0  0  0  0  0  0  0  0
  -22.7626  -18.8729   22.1131 N   0  0  0  0  0  0  0  0  0  0  0  0
  -20.8932  -29.4794   22.8965 N   0  3  0  0  0  0  0  0  0  0  0  0
  -24.7678  -12.1785   18.0825 O   0  0  0  0  0  0  0  0  0  0  0  0
  -29.0435  -30.1363   20.6643 O   0  0  0  0  0  0  0  0  0  0  0  0
  -25.7995  -32.5406   21.5515 O   0  0  0  0  0  0  0  0  0  0  0  0
  -23.5673  -28.8179   23.4696 O   0  0  0  0  0  0  0  0  0  0  0  0
  -21.1613  -18.7884   23.7688 O   0  0  0  0  0  0  0  0  0  0  0  0
  -22.3183   -6.5513   21.1290 O   0  0  0  0  0  0  0  0  0  0  0  0
  -27.1548  -24.3631   19.7769 O   0  0  0  0  0  0  0  0  0  1  0  0
  -20.2914   -4.3166   25.7444 F   0  0  0  0  0  0  0  0  0  0  0  0
  -23.5178   -4.3429   22.2810 F   0  0  0  0  0  0  0  0  0  0  0  0
  -25.4666  -20.4791   20.2519 F   0  0  0  0  0  0  0  0  0  0  0  0
  1  2  1  0  0  0  0
  1  5  2  0  0  0  0
  2  6  2  0  0  0  0
  3 10  2  0  0  0  0
  3 17  1  0  0  0  0
  4 11  1  0  0  0  0
  4 17  2  0  0  0  0
  5 19  1  0  0  0  0
  6 21  1  0  0  0  0
  7 12  2  0  0  0  0
  7 20  1  0  0  0  0
  8  9  1  0  0  0  0
  8 23  2  0  0  0  0
  9 24  2  0  0  0  0
 10 26  1  0  0  0  0
 11 26  2  0  0  0  0
 12 27  1  0  0  0  0
 13 14  2  0  0  0  0
 13 28  1  0  0  0  0
 14 29  1  0  0  0  0
 15 22  1  0  0  0  0
 15 27  2  0  0  0  0
 16 29  2  0  0  0  0
 16 30  1  0  0  0  0
 17 32  1  0  0  0  0
 18 32  1  0  0  0  0
 18 33  2  0  0  0  0
 18 34  1  0  0  0  0
 19 21  2  0  0  0  0
 19 39  1  0  0  0  0
 20 22  2  0  0  0  0
 20 40  1  0  0  0  0
 21 55  1  0  0  0  0
 22 41  1  0  0  0  0
 23 31  1  0  0  0  0
 23 65  1  0  0  0  0
 24 25  1  0  0  0  0
 24 71  1  0  0  0  0
 25 31  2  0  0  0  0
 25 72  1  0  0  0  0
 26 86  1  0  0  0  0
 27 87  1  0  0  0  0
 28 30  2  0  0  0  0
 28 86  1  0  0  0  0
 29 88  1  0  0  0  0
 30 89  1  0  0  0  0
 31 90  1  0  0  0  0
 32 69  2  0  0  0  0
 33 70  1  0  0  0  0
 33 75  1  0  0  0  0
 34 76  1  0  0  0  0
 34 81  2  0  0  0  0
 35 56  1  0  0  0  0
 35 77  1  0  0  0  0
 35 82  2  0  0  0  0
 36 66  1  0  0  0  0
 36 73  1  0  0  0  0
 36 83  2  0  0  0  0
 37 67  1  0  0  0  0
 37 78  1  0  0  0  0
 37 84  2  0  0  0  0
 38 74  1  0  0  0  0
 38 79  1  0  0  0  0
 38 85  2  0  0  0  0
 39 42  1  0  0  0  0
 40 56  1  0  0  0  0
 41 73  1  0  0  0  0
 42 46  1  0  0  0  0
 43 44  1  0  0  0  0
 43 49  1  0  0  0  0
 44 50  1  0  0  0  0
 45 47  1  0  0  0  0
 45 51  1  0  0  0  0
 46 55  1  0  0  0  0
 47 57  1  0  0  0  0
 48 52  1  0  0  0  0
 48 58  1  0  0  0  0
 49 71  1  0  0  0  0
 50 71  1  0  0  0  0
 51 74  1  0  0  0  0
 52 72  1  0  0  0  0
 53 57  1  0  0  0  0
 53 74  1  0  0  0  0
 54 58  1  0  0  0  0
 54 72  1  0  0  0  0
 55 77  1  0  0  0  0
 56 73  1  0  0  0  0
 57 70  1  0  0  0  0
 58 87  1  0  0  0  0
 59 67  1  0  0  0  0
 60 68  1  0  0  0  0
 61 68  1  0  0  0  0
 62 68  1  0  0  0  0
 63 79  1  0  0  0  0
 64 80  1  0  0  0  0
 65 79  1  0  0  0  0
 66 68  1  0  0  0  0
 66 78  1  0  0  0  0
 67 80  1  0  0  0  0
 69 70  1  0  0  0  0
M  CHG  1  80   1
M  ISO  4  38 100  58 101  79 100  87 101
M  END
> <Batch ID>
0027

> <Smiles>
CNC(C)C(=O)NC(C(=O)N1Cc2cc([101O:1][101CH:1]3CCN(c4c(N5CCCC5)ccc(C[100N:0](C)[100C:0](=O)N5CCCC(n6nc(-c7ccc(Oc8ccc(F)cc8F)cc7)c(C(N)=O)c6N)C5)c4F)C3)ccc2CC1C(=O)NC1CCCc2ccccc21)C(C)(C)C

> <Shape>
0.229

> <Color>
0.137

> <Negative vol penalty>
0.000

$$$$
