
  -OEChem-04042321313D

 84 93  0     1  0  0  0  0  0999 V2000
  -25.0095  -31.0094   20.2170 C   0  0  0  0  0  0  0  0  0  0  0  0
  -25.3581  -29.6897   19.9481 C   0  0  0  0  0  0  0  0  0  0  0  0
  -30.5149  -23.3808   20.0467 C   0  0  0  0  0  0  0  0  0  0  0  0
  -29.1547  -22.8545   18.1206 C   0  0  0  0  0  0  0  0  0  0  0  0
  -24.1822  -31.3039   21.3000 C   0  0  0  0  0  0  0  0  0  0  0  0
  -24.8804  -28.6638   20.7627 C   0  0  0  0  0  0  0  0  0  0  0  0
  -23.3534  -22.9927   19.0269 C   0  0  0  0  0  0  0  0  0  0  0  0
  -26.1266  -12.5911   19.9668 C   0  0  0  0  0  0  0  0  0  0  0  0
  -30.9778  -24.5300   19.4058 C   0  0  0  0  0  0  0  0  0  0  0  0
  -29.6175  -24.0038   17.4797 C   0  0  0  0  0  0  0  0  0  0  0  0
  -24.0389  -21.7798   19.0772 C   0  0  0  0  0  0  0  0  0  0  0  0
  -29.8549  -27.6578   18.7821 C   0  0  0  0  0  0  0  0  0  0  0  0
  -29.8986  -28.8395   19.5219 C   0  0  0  0  0  0  0  0  0  0  0  0
  -25.0975  -11.6788   20.1995 C   0  0  0  0  0  0  0  0  0  0  0  0
  -22.9317  -21.2469   21.1530 C   0  0  0  0  0  0  0  0  0  0  0  0
  -32.2835  -28.9774   19.1606 C   0  0  0  0  0  0  0  0  0  0  0  0
  -29.6034  -22.5430   19.4041 C   0  0  0  0  0  0  0  0  0  0  0  0
  -27.9940  -21.2416   20.8952 C   0  0  0  0  0  0  0  0  0  0  0  0
  -23.6864  -30.2801   22.1226 C   0  0  0  0  0  0  0  0  0  0  0  0
  -22.4584  -23.3473   20.0466 C   0  0  0  0  0  0  0  0  0  0  0  0
  -24.0468  -28.9449   21.8585 C   0  0  0  0  0  0  0  0  0  0  0  0
  -22.2340  -22.4638   21.1120 C   0  0  0  0  0  0  0  0  0  0  0  0
  -24.8964  -14.2860   21.1714 C   0  0  0  0  0  0  0  0  0  0  0  0
  -23.8672  -13.3737   21.4041 C   0  0  0  0  0  0  0  0  0  0  0  0
  -26.0261  -13.8947   20.4529 C   0  0  0  0  0  0  0  0  0  0  0  0
  -30.5290  -24.8415   18.1224 C   0  0  0  0  0  0  0  0  0  0  0  0
  -23.8303  -20.9079   20.1418 C   0  0  0  0  0  0  0  0  0  0  0  0
  -31.0255  -27.1358   18.2317 C   0  0  0  0  0  0  0  0  0  0  0  0
  -31.1129  -29.4993   19.7111 C   0  0  0  0  0  0  0  0  0  0  0  0
  -32.2397  -27.7957   18.4209 C   0  0  0  0  0  0  0  0  0  0  0  0
  -23.9678  -12.0701   20.9181 C   0  0  0  0  0  0  0  0  0  0  0  0
  -29.1254  -21.3554   20.0653 C   0  0  0  0  0  0  0  0  0  0  0  0
  -27.9741  -19.9201   21.2693 C   0  0  0  0  0  0  0  0  0  0  0  0
  -27.0457  -22.2409   21.2924 C   0  0  0  0  0  0  0  0  0  0  0  0
  -22.3018  -25.7033   22.1745 C   0  0  0  0  0  0  0  0  0  0  0  0
  -19.4153  -24.3833   22.8437 C   0  0  0  0  0  0  0  0  0  0  0  0
  -17.4080  -21.6239   22.7857 C   0  0  0  0  0  0  0  0  0  0  0  0
  -28.4371  -14.5062   20.0534 C   0  0  0  0  0  0  0  0  0  0  0  0
  -22.8336  -30.6517   23.3098 C   0  0  0  0  0  0  0  0  0  0  0  0
  -21.7067  -24.6475   19.9639 C   0  0  0  0  0  0  0  0  0  0  0  0
  -21.2686  -22.7884   22.2215 C   0  0  0  0  0  0  0  0  0  0  0  0
  -22.0659  -29.4723   23.9012 C   0  0  0  0  0  0  0  0  0  0  0  0
  -31.4514  -16.2850   20.7069 C   0  0  0  0  0  0  0  0  0  0  0  0
  -22.9834  -28.2642   24.0612 C   0  0  0  0  0  0  0  0  0  0  0  0
  -31.0219  -17.7533   20.6665 C   0  0  0  0  0  0  0  0  0  0  0  0
  -30.7049  -15.4470   19.6703 C   0  0  0  0  0  0  0  0  0  0  0  0
  -28.8119  -17.0235   19.6815 C   0  0  0  0  0  0  0  0  0  0  0  0
  -23.5864  -17.8162   21.5817 C   0  0  0  0  0  0  0  0  0  0  0  0
  -24.5250  -17.2276   19.8111 C   0  0  0  0  0  0  0  0  0  0  0  0
  -23.5287  -27.8021   22.7045 C   0  0  1  0  0  0  0  0  0  0  0  0
  -21.2048  -25.1347   21.3197 C   0  0  1  0  0  0  0  0  0  0  0  0
  -29.4895  -17.8948   20.7517 C   0  0  2  0  0  0  0  0  0  0  0  0
  -23.7520  -18.4965   20.2111 C   0  0  0  0  0  0  0  0  0  1  0  0
  -22.6604  -13.8079   22.1766 C   0  0  0  0  0  0  0  0  0  0  0  0
  -15.1138  -20.8428   23.4369 C   0  0  0  0  0  0  0  0  0  0  0  0
  -20.2895  -24.2583   25.7643 C   0  0  0  0  0  0  0  0  0  0  0  0
  -18.4180  -22.6489   26.1832 C   0  0  0  0  0  0  0  0  0  0  0  0
  -17.9173  -24.9688   25.4149 C   0  0  0  0  0  0  0  0  0  0  0  0
  -16.7050  -20.9809   19.9837 C   0  0  0  0  0  0  0  0  0  0  0  0
  -24.7885  -15.6879   21.6948 C   0  0  0  0  0  0  0  0  0  0  0  0
  -18.9218  -23.3142   23.7885 C   0  0  1  0  0  0  0  0  0  0  0  0
  -15.9731  -21.4315   22.3289 C   0  0  2  0  0  0  0  0  0  0  0  0
  -18.9064  -23.7920   25.2680 C   0  0  0  0  0  0  0  0  0  0  0  0
  -29.7772  -20.1986   19.9205 N   0  0  0  0  0  0  0  0  0  0  0  0
  -29.0531  -19.3453   20.6645 N   0  0  0  0  0  0  0  0  0  0  0  0
  -20.5623  -24.0744   22.0989 N   0  0  0  0  0  0  0  0  0  0  0  0
  -29.2588  -15.6280   19.8143 N   0  0  0  0  0  0  0  0  0  0  0  0
  -27.1393  -19.2054   22.0533 N   0  0  0  0  0  0  0  0  0  0  0  0
  -27.2143  -23.5485   20.8169 N   0  0  0  0  0  0  0  0  0  0  0  0
  -27.0835  -14.8049   20.2053 N   0  0  0  0  0  0  0  0  0  0  0  0
  -22.5214  -27.0541   21.9832 N   0  0  0  0  0  0  0  0  0  0  0  0
  -17.6198  -22.8923   23.2832 N   0  0  0  0  0  0  0  0  0  0  0  0
  -23.8490  -16.5259   20.9180 N   0  3  0  0  0  0  0  0  0  0  0  0
  -15.9216  -20.5134   21.1561 N   0  3  0  0  0  0  0  0  0  0  0  0
  -26.0868  -21.9856   22.0598 O   0  0  0  0  0  0  0  0  0  0  0  0
  -22.9035  -24.9711   22.9514 O   0  0  0  0  0  0  0  0  0  0  0  0
  -18.8014  -25.4502   22.7640 O   0  0  0  0  0  0  0  0  0  0  0  0
  -18.2551  -20.7365   22.7123 O   0  0  0  0  0  0  0  0  0  0  0  0
  -28.9037  -13.3679   20.1457 O   0  0  0  0  0  0  0  0  0  0  0  0
  -30.9803  -25.9630   17.4968 O   0  0  0  0  0  0  0  0  0  0  0  0
  -24.4987  -19.7237   20.1937 O   0  0  0  0  0  0  0  0  0  1  0  0
  -31.1545  -30.6349   20.4202 F   0  0  0  0  0  0  0  0  0  0  0  0
  -33.3674  -27.2997   17.8935 F   0  0  0  0  0  0  0  0  0  0  0  0
  -22.7160  -10.9105   21.1816 Cl  0  0  0  0  0  0  0  0  0  0  0  0
  1  2  1  0  0  0  0
  1  5  2  0  0  0  0
  2  6  2  0  0  0  0
  3  9  2  0  0  0  0
  3 17  1  0  0  0  0
  4 10  1  0  0  0  0
  4 17  2  0  0  0  0
  5 19  1  0  0  0  0
  6 21  1  0  0  0  0
  7 11  2  0  0  0  0
  7 20  1  0  0  0  0
  8 14  1  0  0  0  0
  8 25  2  0  0  0  0
  9 26  1  0  0  0  0
 10 26  2  0  0  0  0
 11 27  1  0  0  0  0
 12 13  2  0  0  0  0
 12 28  1  0  0  0  0
 13 29  1  0  0  0  0
 14 31  2  0  0  0  0
 15 22  1  0  0  0  0
 15 27  2  0  0  0  0
 16 29  2  0  0  0  0
 16 30  1  0  0  0  0
 17 32  1  0  0  0  0
 18 32  1  0  0  0  0
 18 33  2  0  0  0  0
 18 34  1  0  0  0  0
 19 21  2  0  0  0  0
 19 39  1  0  0  0  0
 20 22  2  0  0  0  0
 20 40  1  0  0  0  0
 21 50  1  0  0  0  0
 22 41  1  0  0  0  0
 23 24  2  0  0  0  0
 23 25  1  0  0  0  0
 23 60  1  0  0  0  0
 24 31  1  0  0  0  0
 24 54  1  0  0  0  0
 25 70  1  0  0  0  0
 26 80  1  0  0  0  0
 27 81  1  0  0  0  0
 28 30  2  0  0  0  0
 28 80  1  0  0  0  0
 29 82  1  0  0  0  0
 30 83  1  0  0  0  0
 31 84  1  0  0  0  0
 32 64  2  0  0  0  0
 33 65  1  0  0  0  0
 33 68  1  0  0  0  0
 34 69  1  0  0  0  0
 34 75  2  0  0  0  0
 35 51  1  0  0  0  0
 35 71  1  0  0  0  0
 35 76  2  0  0  0  0
 36 61  1  0  0  0  0
 36 66  1  0  0  0  0
 36 77  2  0  0  0  0
 37 62  1  0  0  0  0
 37 72  1  0  0  0  0
 37 78  2  0  0  0  0
 38 67  1  0  0  0  0
 38 70  1  0  0  0  0
 38 79  2  0  0  0  0
 39 42  1  0  0  0  0
 40 51  1  0  0  0  0
 41 66  1  0  0  0  0
 42 44  1  0  0  0  0
 43 45  1  0  0  0  0
 43 46  1  0  0  0  0
 44 50  1  0  0  0  0
 45 52  1  0  0  0  0
 46 67  1  0  0  0  0
 47 52  1  0  0  0  0
 47 67  1  0  0  0  0
 48 53  1  0  0  0  0
 48 73  1  0  0  0  0
 49 53  1  0  0  0  0
 49 73  1  0  0  0  0
 50 71  1  0  0  0  0
 51 66  1  0  0  0  0
 52 65  1  0  0  0  0
 53 81  1  0  0  0  0
 55 62  1  0  0  0  0
 56 63  1  0  0  0  0
 57 63  1  0  0  0  0
 58 63  1  0  0  0  0
 59 74  1  0  0  0  0
 60 73  1  0  0  0  0
 61 63  1  0  0  0  0
 61 72  1  0  0  0  0
 62 74  1  0  0  0  0
 64 65  1  0  0  0  0
M  CHG  2  73   1  74   1
M  ISO  4  38 100  53 101  70 100  81 101
M  END
> <Batch ID>
0028

> <Smiles>
CNC(C)C(=O)NC(C(=O)N1Cc2cc([101O:1][101CH:1]3CN(Cc4c([100NH:0][100C:0](=O)N5CCCC(n6nc(-c7ccc(Oc8ccc(F)cc8F)cc7)c(C(N)=O)c6N)C5)ccc(Cl)c4C)C3)ccc2CC1C(=O)NC1CCCc2ccccc21)C(C)(C)C

> <Shape>
0.222

> <Color>
0.049

> <Negative vol penalty>
0.000

$$$$

  -OEChem-04042321313D

 86 95  0     1  0  0  0  0  0999 V2000
  -33.0476  -32.3396   21.0460 C   0  0  0  0  0  0  0  0  0  0  0  0
  -32.2603  -31.2590   21.4306 C   0  0  0  0  0  0  0  0  0  0  0  0
  -23.0766   -9.8665   19.9394 C   0  0  0  0  0  0  0  0  0  0  0  0
  -23.8360   -9.8722   22.2329 C   0  0  0  0  0  0  0  0  0  0  0  0
  -33.2251  -32.6248   19.6929 C   0  0  0  0  0  0  0  0  0  0  0  0
  -31.6491  -30.4636   20.4621 C   0  0  0  0  0  0  0  0  0  0  0  0
  -32.1133  -25.5157   21.4360 C   0  0  0  0  0  0  0  0  0  0  0  0
  -30.5859  -19.8706   21.4625 C   0  0  0  0  0  0  0  0  0  0  0  0
  -22.3333   -8.7127   20.1883 C   0  0  0  0  0  0  0  0  0  0  0  0
  -23.0927   -8.7184   22.4819 C   0  0  0  0  0  0  0  0  0  0  0  0
  -31.2674  -24.9751   22.4035 C   0  0  0  0  0  0  0  0  0  0  0  0
  -19.8650   -7.9182   23.0832 C   0  0  0  0  0  0  0  0  0  0  0  0
  -30.7651  -19.1364   20.2901 C   0  0  0  0  0  0  0  0  0  0  0  0
  -19.1078   -7.8769   24.2539 C   0  0  0  0  0  0  0  0  0  0  0  0
  -29.8324  -24.1208   20.6628 C   0  0  0  0  0  0  0  0  0  0  0  0
  -20.3503   -5.9396   24.9891 C   0  0  0  0  0  0  0  0  0  0  0  0
  -23.8280  -10.4462   20.9617 C   0  0  0  0  0  0  0  0  0  0  0  0
  -24.1683  -12.9716   20.8436 C   0  0  0  0  0  0  0  0  0  0  0  0
  -32.6236  -31.8266   18.7071 C   0  0  0  0  0  0  0  0  0  0  0  0
  -31.8187  -25.3720   20.0725 C   0  0  0  0  0  0  0  0  0  0  0  0
  -31.8176  -30.7391   19.0945 C   0  0  0  0  0  0  0  0  0  0  0  0
  -30.6774  -24.6583   19.6799 C   0  0  0  0  0  0  0  0  0  0  0  0
  -30.2375  -19.2203   22.6463 C   0  0  0  0  0  0  0  0  0  0  0  0
  -30.0681  -17.8358   22.6577 C   0  0  0  0  0  0  0  0  0  0  0  0
  -30.2472  -17.1016   21.4854 C   0  0  0  0  0  0  0  0  0  0  0  0
  -22.3414   -8.1386   21.4595 C   0  0  0  0  0  0  0  0  0  0  0  0
  -30.1253  -24.2800   22.0170 C   0  0  0  0  0  0  0  0  0  0  0  0
  -20.8647   -6.9701   22.8653 C   0  0  0  0  0  0  0  0  0  0  0  0
  -19.3505   -6.8876   25.2069 C   0  0  0  0  0  0  0  0  0  0  0  0
  -30.5957  -17.7519   20.3016 C   0  0  0  0  0  0  0  0  0  0  0  0
  -21.1074   -5.9809   23.8183 C   0  0  0  0  0  0  0  0  0  0  0  0
  -24.5964  -11.6377   20.7050 C   0  0  0  0  0  0  0  0  0  0  0  0
  -25.2600  -13.7221   20.4811 C   0  0  0  0  0  0  0  0  0  0  0  0
  -22.8974  -13.4864   21.2627 C   0  0  0  0  0  0  0  0  0  0  0  0
  -31.1892  -27.3797   17.6899 C   0  0  0  0  0  0  0  0  0  0  0  0
  -31.2819  -24.6738   15.9033 C   0  0  0  0  0  0  0  0  0  0  0  0
  -30.9747  -21.2775   15.7710 C   0  0  0  0  0  0  0  0  0  0  0  0
  -30.7256  -14.7708   20.6577 C   0  0  0  0  0  0  0  0  0  0  0  0
  -32.8059  -32.2023   17.2579 C   0  0  0  0  0  0  0  0  0  0  0  0
  -32.7555  -25.9381   19.0407 C   0  0  0  0  0  0  0  0  0  0  0  0
  -30.3272  -24.4586   18.2288 C   0  0  0  0  0  0  0  0  0  0  0  0
  -32.4286  -31.0862   16.2872 C   0  0  0  0  0  0  0  0  0  0  0  0
  -29.6131  -12.3581   18.2874 C   0  0  0  0  0  0  0  0  0  0  0  0
  -26.9512  -21.2079   25.0658 C   0  0  0  0  0  0  0  0  0  0  0  0
  -31.0891  -30.4695   16.6773 C   0  0  0  0  0  0  0  0  0  0  0  0
  -28.1735  -12.0654   18.7164 C   0  0  0  0  0  0  0  0  0  0  0  0
  -27.6378  -22.5593   25.0687 C   0  0  0  0  0  0  0  0  0  0  0  0
  -30.5278  -12.5866   19.4893 C   0  0  0  0  0  0  0  0  0  0  0  0
  -28.6202  -13.3088   20.8708 C   0  0  0  0  0  0  0  0  0  0  0  0
  -27.5691  -20.4946   23.8787 C   0  0  0  0  0  0  0  0  0  0  0  0
  -31.1582  -29.8380   18.0730 C   0  0  1  0  0  0  0  0  0  0  0  0
  -32.0854  -26.1737   17.6906 C   0  0  1  0  0  0  0  0  0  0  0  0
  -27.6477  -13.1359   19.6927 C   0  0  2  0  0  0  0  0  0  0  0  0
  -29.0868  -22.1998   24.7751 C   0  0  2  0  0  0  0  0  0  0  0  0
  -29.6958  -17.1427   23.9309 C   0  0  0  0  0  0  0  0  0  0  0  0
  -31.0678  -19.3523   14.1641 C   0  0  0  0  0  0  0  0  0  0  0  0
  -28.5230  -25.4297   14.8417 C   0  0  0  0  0  0  0  0  0  0  0  0
  -28.2713  -23.0779   14.0208 C   0  0  0  0  0  0  0  0  0  0  0  0
  -30.0921  -24.5242   13.1176 C   0  0  0  0  0  0  0  0  0  0  0  0
  -33.2375  -20.0309   17.2150 C   0  0  0  0  0  0  0  0  0  0  0  0
  -30.0519  -20.0341   23.8930 C   0  0  0  0  0  0  0  0  0  0  0  0
  -29.8916  -23.3467   24.1920 C   0  0  0  0  0  0  0  0  0  1  0  0
  -30.2692  -23.6379   15.4788 C   0  0  1  0  0  0  0  0  0  0  0  0
  -31.8533  -20.2103   15.1436 C   0  0  2  0  0  0  0  0  0  0  0  0
  -29.2942  -24.1727   14.3922 C   0  0  0  0  0  0  0  0  0  0  0  0
  -25.8614  -11.5430   20.2869 N   0  0  0  0  0  0  0  0  0  0  0  0
  -26.2375  -12.8269   20.1596 N   0  0  0  0  0  0  0  0  0  0  0  0
  -31.2710  -25.0363   17.2577 N   0  0  0  0  0  0  0  0  0  0  0  0
  -29.9681  -13.6164   20.3674 N   0  0  0  0  0  0  0  0  0  0  0  0
  -25.4697  -15.0537   20.4092 N   0  0  0  0  0  0  0  0  0  0  0  0
  -21.8860  -12.5763   21.5991 N   0  0  0  0  0  0  0  0  0  0  0  0
  -30.0775  -15.6948   21.4767 N   0  0  0  0  0  0  0  0  0  0  0  0
  -31.8322  -28.5586   18.0161 N   0  0  0  0  0  0  0  0  0  0  0  0
  -31.0329  -22.4638   15.0706 N   0  0  0  0  0  0  0  0  0  0  0  0
  -28.9727  -21.0657   23.7655 N   0  3  1  0  0  0  0  0  0  0  0  0
  -32.4209  -19.3216   16.1967 N   0  3  0  0  0  0  0  0  0  0  0  0
  -22.6604  -14.7168   21.3209 O   0  0  0  0  0  0  0  0  0  0  0  0
  -30.0026  -27.2506   17.4125 O   0  0  0  0  0  0  0  0  0  0  0  0
  -32.0588  -25.1389   15.0656 O   0  0  0  0  0  0  0  0  0  0  0  0
  -30.3011  -21.0776   16.7794 O   0  0  0  0  0  0  0  0  0  0  0  0
  -31.8547  -14.9406   20.1904 O   0  0  0  0  0  0  0  0  0  0  0  0
  -21.6161   -7.0129   21.7029 O   0  0  0  0  0  0  0  0  0  0  0  0
  -29.2976  -23.7519   22.9594 O   0  0  0  0  0  0  0  0  0  1  0  0
  -18.6243   -6.8491   26.3318 F   0  0  0  0  0  0  0  0  0  0  0  0
  -30.7684  -17.0576   19.1676 F   0  0  0  0  0  0  0  0  0  0  0  0
  -22.0673   -5.0681   23.6152 F   0  0  0  0  0  0  0  0  0  0  0  0
  1  2  1  0  0  0  0
  1  5  2  0  0  0  0
  2  6  2  0  0  0  0
  3  9  2  0  0  0  0
  3 17  1  0  0  0  0
  4 10  1  0  0  0  0
  4 17  2  0  0  0  0
  5 19  1  0  0  0  0
  6 21  1  0  0  0  0
  7 11  2  0  0  0  0
  7 20  1  0  0  0  0
  8 13  2  0  0  0  0
  8 23  1  0  0  0  0
  9 26  1  0  0  0  0
 10 26  2  0  0  0  0
 11 27  1  0  0  0  0
 12 14  2  0  0  0  0
 12 28  1  0  0  0  0
 13 30  1  0  0  0  0
 14 29  1  0  0  0  0
 15 22  1  0  0  0  0
 15 27  2  0  0  0  0
 16 29  2  0  0  0  0
 16 31  1  0  0  0  0
 17 32  1  0  0  0  0
 18 32  1  0  0  0  0
 18 33  2  0  0  0  0
 18 34  1  0  0  0  0
 19 21  2  0  0  0  0
 19 39  1  0  0  0  0
 20 22  2  0  0  0  0
 20 40  1  0  0  0  0
 21 51  1  0  0  0  0
 22 41  1  0  0  0  0
 23 24  2  0  0  0  0
 23 61  1  0  0  0  0
 24 25  1  0  0  0  0
 24 55  1  0  0  0  0
 25 30  2  0  0  0  0
 25 72  1  0  0  0  0
 26 82  1  0  0  0  0
 27 83  1  0  0  0  0
 28 31  2  0  0  0  0
 28 82  1  0  0  0  0
 29 84  1  0  0  0  0
 30 85  1  0  0  0  0
 31 86  1  0  0  0  0
 32 66  2  0  0  0  0
 33 67  1  0  0  0  0
 33 70  1  0  0  0  0
 34 71  1  0  0  0  0
 34 77  2  0  0  0  0
 35 52  1  0  0  0  0
 35 73  1  0  0  0  0
 35 78  2  0  0  0  0
 36 63  1  0  0  0  0
 36 68  1  0  0  0  0
 36 79  2  0  0  0  0
 37 64  1  0  0  0  0
 37 74  1  0  0  0  0
 37 80  2  0  0  0  0
 38 69  1  0  0  0  0
 38 72  1  0  0  0  0
 38 81  2  0  0  0  0
 39 42  1  0  0  0  0
 40 52  1  0  0  0  0
 41 68  1  0  0  0  0
 42 45  1  0  0  0  0
 43 46  1  0  0  0  0
 43 48  1  0  0  0  0
 44 47  1  0  0  0  0
 44 50  1  0  0  0  0
 45 51  1  0  0  0  0
 46 53  1  0  0  0  0
 47 54  1  0  0  0  0
 48 69  1  0  0  0  0
 49 53  1  0  0  0  0
 49 69  1  0  0  0  0
 50 75  1  0  0  0  0
 51 73  1  0  0  0  0
 52 68  1  0  0  0  0
 53 67  1  0  0  0  0
 54 62  1  0  0  0  0
 54 75  1  0  0  0  0
 56 64  1  0  0  0  0
 57 65  1  0  0  0  0
 58 65  1  0  0  0  0
 59 65  1  0  0  0  0
 60 76  1  0  0  0  0
 61 75  1  0  0  0  0
 62 83  1  0  0  0  0
 63 65  1  0  0  0  0
 63 74  1  0  0  0  0
 64 76  1  0  0  0  0
 66 67  1  0  0  0  0
M  CHG  2  75   1  76   1
M  ISO  4  38 100  62 101  72 100  83 101
M  END
> <Batch ID>
0028

> <Smiles>
CNC(C)C(=O)NC(C(=O)N1Cc2cc([101O:1][101CH2:1]C3CCCN3Cc3ccc(F)c([100NH:0][100C:0](=O)N4CCCC(n5nc(-c6ccc(Oc7ccc(F)cc7F)cc6)c(C(N)=O)c5N)C4)c3C)ccc2CC1C(=O)NC1CCCc2ccccc21)C(C)(C)C

> <Shape>
0.222

> <Color>
0.188

> <Negative vol penalty>
0.000

$$$$

  -OEChem-04042321313D

 84 93  0     1  0  0  0  0  0999 V2000
  -25.7347  -36.3187   16.1645 C   0  0  0  0  0  0  0  0  0  0  0  0
  -26.2402  -35.0242   16.2274 C   0  0  0  0  0  0  0  0  0  0  0  0
  -24.2439   -9.6656   21.0613 C   0  0  0  0  0  0  0  0  0  0  0  0
  -25.0402  -10.4579   23.2003 C   0  0  0  0  0  0  0  0  0  0  0  0
  -25.4598  -37.0163   17.3400 C   0  0  0  0  0  0  0  0  0  0  0  0
  -26.4723  -34.4268   17.4658 C   0  0  0  0  0  0  0  0  0  0  0  0
  -25.8074  -28.5052   18.8794 C   0  0  0  0  0  0  0  0  0  0  0  0
  -29.9964  -21.1818   22.3816 C   0  0  0  0  0  0  0  0  0  0  0  0
  -23.9204   -8.4369   21.6369 C   0  0  0  0  0  0  0  0  0  0  0  0
  -24.7166   -9.2292   23.7759 C   0  0  0  0  0  0  0  0  0  0  0  0
  -26.7200  -27.4557   18.9757 C   0  0  0  0  0  0  0  0  0  0  0  0
  -21.4382   -7.1550   23.5417 C   0  0  0  0  0  0  0  0  0  0  0  0
  -30.9439  -20.1607   22.3086 C   0  0  0  0  0  0  0  0  0  0  0  0
  -20.1999   -6.5967   23.2248 C   0  0  0  0  0  0  0  0  0  0  0  0
  -26.8773  -27.8187   21.3553 C   0  0  0  0  0  0  0  0  0  0  0  0
  -21.3095   -4.6578   22.3047 C   0  0  0  0  0  0  0  0  0  0  0  0
  -24.8039  -10.6761   21.8431 C   0  0  0  0  0  0  0  0  0  0  0  0
  -24.3095  -13.0775   21.1385 C   0  0  0  0  0  0  0  0  0  0  0  0
  -25.6795  -36.4237   18.5935 C   0  0  0  0  0  0  0  0  0  0  0  0
  -25.4305  -29.2277   20.0207 C   0  0  0  0  0  0  0  0  0  0  0  0
  -26.2014  -35.1177   18.6592 C   0  0  0  0  0  0  0  0  0  0  0  0
  -25.9578  -28.8754   21.2713 C   0  0  0  0  0  0  0  0  0  0  0  0
  -28.7277  -20.9965   21.8323 C   0  0  0  0  0  0  0  0  0  0  0  0
  -28.4065  -19.7902   21.2100 C   0  0  0  0  0  0  0  0  0  0  0  0
  -29.3540  -18.7691   21.1370 C   0  0  0  0  0  0  0  0  0  0  0  0
  -24.1567   -8.2187   22.9941 C   0  0  0  0  0  0  0  0  0  0  0  0
  -27.2573  -27.1141   20.2133 C   0  0  0  0  0  0  0  0  0  0  0  0
  -22.6123   -6.4647   23.2401 C   0  0  0  0  0  0  0  0  0  0  0  0
  -20.1356   -5.3481   22.6063 C   0  0  0  0  0  0  0  0  0  0  0  0
  -30.6227  -18.9544   21.6863 C   0  0  0  0  0  0  0  0  0  0  0  0
  -22.5479   -5.2161   22.6217 C   0  0  0  0  0  0  0  0  0  0  0  0
  -25.1388  -11.9453   21.2490 C   0  0  0  0  0  0  0  0  0  0  0  0
  -25.0887  -14.0131   20.5029 C   0  0  0  0  0  0  0  0  0  0  0  0
  -22.9560  -13.2666   21.5719 C   0  0  0  0  0  0  0  0  0  0  0  0
  -25.6874  -32.2587   20.9429 C   0  0  0  0  0  0  0  0  0  0  0  0
  -23.8812  -31.2451   23.4394 C   0  0  0  0  0  0  0  0  0  0  0  0
  -22.8490  -28.6529   25.4045 C   0  0  0  0  0  0  0  0  0  0  0  0
  -29.9291  -16.6850   19.8440 C   0  0  0  0  0  0  0  0  0  0  0  0
  -25.4119  -37.2345   19.8367 C   0  0  0  0  0  0  0  0  0  0  0  0
  -24.4246  -30.3399   19.9040 C   0  0  0  0  0  0  0  0  0  0  0  0
  -25.5703  -29.6065   22.5297 C   0  0  0  0  0  0  0  0  0  0  0  0
  -25.3330  -36.3926   21.1076 C   0  0  0  0  0  0  0  0  0  0  0  0
  -29.5703  -13.5493   18.1960 C   0  0  0  0  0  0  0  0  0  0  0  0
  -26.4922  -35.4028   21.1651 C   0  0  0  0  0  0  0  0  0  0  0  0
  -28.3172  -12.9456   18.8343 C   0  0  0  0  0  0  0  0  0  0  0  0
  -30.4041  -14.3294   19.2109 C   0  0  0  0  0  0  0  0  0  0  0  0
  -28.4145  -14.7493   20.6019 C   0  0  0  0  0  0  0  0  0  0  0  0
  -26.7374  -24.0532   20.8144 C   0  0  0  0  0  0  0  0  0  0  0  0
  -28.7104  -23.6286   20.2766 C   0  0  0  0  0  0  0  0  0  0  0  0
  -26.4431  -34.4266   19.9836 C   0  0  1  0  0  0  0  0  0  0  0  0
  -24.5036  -31.3400   21.0534 C   0  0  1  0  0  0  0  0  0  0  0  0
  -27.5091  -14.0084   19.6043 C   0  0  2  0  0  0  0  0  0  0  0  0
  -27.7496  -24.7714   19.9044 C   0  0  0  0  0  0  0  0  0  1  0  0
  -27.0433  -19.5959   20.6236 C   0  0  0  0  0  0  0  0  0  0  0  0
  -21.4009  -28.1404   27.3889 C   0  0  0  0  0  0  0  0  0  0  0  0
  -26.0093  -32.4099   25.2900 C   0  0  0  0  0  0  0  0  0  0  0  0
  -25.0222  -31.0653   27.1570 C   0  0  0  0  0  0  0  0  0  0  0  0
  -23.6532  -32.8159   26.0238 C   0  0  0  0  0  0  0  0  0  0  0  0
  -21.1158  -26.8510   23.8207 C   0  0  0  0  0  0  0  0  0  0  0  0
  -27.7275  -22.1109   21.9255 C   0  0  0  0  0  0  0  0  0  0  0  0
  -24.1710  -30.6638   24.8021 C   0  0  1  0  0  0  0  0  0  0  0  0
  -21.4677  -28.2315   25.8724 C   0  0  2  0  0  0  0  0  0  0  0  0
  -24.7229  -31.7260   25.7944 C   0  0  0  0  0  0  0  0  0  0  0  0
  -26.3518  -12.1416   20.7253 N   0  0  0  0  0  0  0  0  0  0  0  0
  -26.2904  -13.4079   20.2796 N   0  0  0  0  0  0  0  0  0  0  0  0
  -24.5880  -30.6904   22.3630 N   0  0  0  0  0  0  0  0  0  0  0  0
  -29.5736  -15.3207   19.8984 N   0  0  0  0  0  0  0  0  0  0  0  0
  -24.8562  -15.2862   20.1187 N   0  0  0  0  0  0  0  0  0  0  0  0
  -22.3033  -12.2021   22.2083 N   0  0  0  0  0  0  0  0  0  0  0  0
  -29.0471  -17.5376   20.5070 N   0  0  0  0  0  0  0  0  0  0  0  0
  -25.4429  -33.4060   20.2124 N   0  0  0  0  0  0  0  0  0  0  0  0
  -22.9382  -30.0192   25.2415 N   0  0  0  0  0  0  0  0  0  0  0  0
  -27.5314  -22.8225   20.6435 N   0  3  0  0  0  0  0  0  0  0  0  0
  -21.1127  -26.8997   25.3055 N   0  3  0  0  0  0  0  0  0  0  0  0
  -22.3380  -14.3421   21.3851 O   0  0  0  0  0  0  0  0  0  0  0  0
  -26.7439  -31.9504   21.4817 O   0  0  0  0  0  0  0  0  0  0  0  0
  -23.0528  -32.1528   23.3329 O   0  0  0  0  0  0  0  0  0  0  0  0
  -23.7589  -27.8506   25.2072 O   0  0  0  0  0  0  0  0  0  0  0  0
  -30.9267  -17.0717   19.2297 O   0  0  0  0  0  0  0  0  0  0  0  0
  -23.8409   -7.0199   23.5561 O   0  0  0  0  0  0  0  0  0  0  0  0
  -28.1488  -26.0905   20.3100 O   0  0  0  0  0  0  0  0  0  1  0  0
  -18.9463   -4.8114   22.3034 F   0  0  0  0  0  0  0  0  0  0  0  0
  -31.5429  -17.9815   21.6206 F   0  0  0  0  0  0  0  0  0  0  0  0
  -23.6723   -4.5477   22.3305 F   0  0  0  0  0  0  0  0  0  0  0  0
  1  2  1  0  0  0  0
  1  5  2  0  0  0  0
  2  6  2  0  0  0  0
  3  9  2  0  0  0  0
  3 17  1  0  0  0  0
  4 10  1  0  0  0  0
  4 17  2  0  0  0  0
  5 19  1  0  0  0  0
  6 21  1  0  0  0  0
  7 11  2  0  0  0  0
  7 20  1  0  0  0  0
  8 13  2  0  0  0  0
  8 23  1  0  0  0  0
  9 26  1  0  0  0  0
 10 26  2  0  0  0  0
 11 27  1  0  0  0  0
 12 14  2  0  0  0  0
 12 28  1  0  0  0  0
 13 30  1  0  0  0  0
 14 29  1  0  0  0  0
 15 22  1  0  0  0  0
 15 27  2  0  0  0  0
 16 29  2  0  0  0  0
 16 31  1  0  0  0  0
 17 32  1  0  0  0  0
 18 32  1  0  0  0  0
 18 33  2  0  0  0  0
 18 34  1  0  0  0  0
 19 21  2  0  0  0  0
 19 39  1  0  0  0  0
 20 22  2  0  0  0  0
 20 40  1  0  0  0  0
 21 50  1  0  0  0  0
 22 41  1  0  0  0  0
 23 24  2  0  0  0  0
 23 60  1  0  0  0  0
 24 25  1  0  0  0  0
 24 54  1  0  0  0  0
 25 30  2  0  0  0  0
 25 70  1  0  0  0  0
 26 80  1  0  0  0  0
 27 81  1  0  0  0  0
 28 31  2  0  0  0  0
 28 80  1  0  0  0  0
 29 82  1  0  0  0  0
 30 83  1  0  0  0  0
 31 84  1  0  0  0  0
 32 64  2  0  0  0  0
 33 65  1  0  0  0  0
 33 68  1  0  0  0  0
 34 69  1  0  0  0  0
 34 75  2  0  0  0  0
 35 51  1  0  0  0  0
 35 71  1  0  0  0  0
 35 76  2  0  0  0  0
 36 61  1  0  0  0  0
 36 66  1  0  0  0  0
 36 77  2  0  0  0  0
 37 62  1  0  0  0  0
 37 72  1  0  0  0  0
 37 78  2  0  0  0  0
 38 67  1  0  0  0  0
 38 70  1  0  0  0  0
 38 79  2  0  0  0  0
 39 42  1  0  0  0  0
 40 51  1  0  0  0  0
 41 66  1  0  0  0  0
 42 44  1  0  0  0  0
 43 45  1  0  0  0  0
 43 46  1  0  0  0  0
 44 50  1  0  0  0  0
 45 52  1  0  0  0  0
 46 67  1  0  0  0  0
 47 52  1  0  0  0  0
 47 67  1  0  0  0  0
 48 53  1  0  0  0  0
 48 73  1  0  0  0  0
 49 53  1  0  0  0  0
 49 73  1  0  0  0  0
 50 71  1  0  0  0  0
 51 66  1  0  0  0  0
 52 65  1  0  0  0  0
 53 81  1  0  0  0  0
 55 62  1  0  0  0  0
 56 63  1  0  0  0  0
 57 63  1  0  0  0  0
 58 63  1  0  0  0  0
 59 74  1  0  0  0  0
 60 73  1  0  0  0  0
 61 63  1  0  0  0  0
 61 72  1  0  0  0  0
 62 74  1  0  0  0  0
 64 65  1  0  0  0  0
M  CHG  2  73   1  74   1
M  ISO  4  38 100  53 101  70 100  81 101
M  END
> <Batch ID>
0028

> <Smiles>
CNC(C)C(=O)NC(C(=O)N1Cc2cc([101O:1][101CH:1]3CN(Cc4ccc(F)c([100NH:0][100C:0](=O)N5CCCC(n6nc(-c7ccc(Oc8ccc(F)cc8F)cc7)c(C(N)=O)c6N)C5)c4C)C3)ccc2CC1C(=O)NC1CCCc2ccccc21)C(C)(C)C

> <Shape>
0.295

> <Color>
0.161

> <Negative vol penalty>
0.000

$$$$

  -OEChem-04042321313D

 86 95  0     1  0  0  0  0  0999 V2000
  -28.5864  -36.1745   24.9396 C   0  0  0  0  0  0  0  0  0  0  0  0
  -29.0660  -35.1774   24.0963 C   0  0  0  0  0  0  0  0  0  0  0  0
  -22.8323  -10.9414   19.4310 C   0  0  0  0  0  0  0  0  0  0  0  0
  -23.4948   -9.8397   21.4765 C   0  0  0  0  0  0  0  0  0  0  0  0
  -27.4597  -35.9383   25.7262 C   0  0  0  0  0  0  0  0  0  0  0  0
  -28.4199  -33.9430   24.0400 C   0  0  0  0  0  0  0  0  0  0  0  0
  -26.9052  -28.6375   19.4712 C   0  0  0  0  0  0  0  0  0  0  0  0
  -30.7680  -17.9973   17.2400 C   0  0  0  0  0  0  0  0  0  0  0  0
  -21.8902   -9.9399   19.1966 C   0  0  0  0  0  0  0  0  0  0  0  0
  -22.5526   -8.8382   21.2422 C   0  0  0  0  0  0  0  0  0  0  0  0
  -27.0165  -27.2528   19.3536 C   0  0  0  0  0  0  0  0  0  0  0  0
  -18.7957   -9.1260   20.2896 C   0  0  0  0  0  0  0  0  0  0  0  0
  -30.9027  -19.2289   16.5993 C   0  0  0  0  0  0  0  0  0  0  0  0
  -17.5199   -9.5181   19.8843 C   0  0  0  0  0  0  0  0  0  0  0  0
  -25.0322  -26.9851   20.6989 C   0  0  0  0  0  0  0  0  0  0  0  0
  -17.7823   -8.2582   17.8396 C   0  0  0  0  0  0  0  0  0  0  0  0
  -23.6346  -10.8913   20.5709 C   0  0  0  0  0  0  0  0  0  0  0  0
  -24.4151  -13.1258   21.5226 C   0  0  0  0  0  0  0  0  0  0  0  0
  -26.7938  -34.7037   25.6724 C   0  0  0  0  0  0  0  0  0  0  0  0
  -25.8610  -29.2072   20.2139 C   0  0  0  0  0  0  0  0  0  0  0  0
  -27.2841  -33.6896   24.8277 C   0  0  0  0  0  0  0  0  0  0  0  0
  -24.9084  -28.3774   20.8223 C   0  0  0  0  0  0  0  0  0  0  0  0
  -29.0068  -20.0780   17.8329 C   0  0  0  0  0  0  0  0  0  0  0  0
  -29.7527  -17.8060   18.1771 C   0  0  0  0  0  0  0  0  0  0  0  0
  -21.7503   -8.8883   20.1023 C   0  0  0  0  0  0  0  0  0  0  0  0
  -26.0816  -26.4263   19.9699 C   0  0  0  0  0  0  0  0  0  0  0  0
  -19.5648   -8.3000   19.4699 C   0  0  0  0  0  0  0  0  0  0  0  0
  -17.0132   -9.0842   18.6593 C   0  0  0  0  0  0  0  0  0  0  0  0
  -30.0222  -20.2693   16.8957 C   0  0  0  0  0  0  0  0  0  0  0  0
  -19.0581   -7.8661   18.2449 C   0  0  0  0  0  0  0  0  0  0  0  0
  -28.8721  -18.8464   18.4736 C   0  0  0  0  0  0  0  0  0  0  0  0
  -24.6084  -11.9253   20.8132 C   0  0  0  0  0  0  0  0  0  0  0  0
  -25.6339  -13.7566   21.4686 C   0  0  0  0  0  0  0  0  0  0  0  0
  -23.2389  -13.6259   22.1724 C   0  0  0  0  0  0  0  0  0  0  0  0
  -25.6916  -31.0372   22.8074 C   0  0  0  0  0  0  0  0  0  0  0  0
  -22.5296  -31.0929   22.0857 C   0  0  0  0  0  0  0  0  0  0  0  0
  -19.8838  -29.5904   20.5399 C   0  0  0  0  0  0  0  0  0  0  0  0
  -29.9980  -15.3292   18.2011 C   0  0  0  0  0  0  0  0  0  0  0  0
  -25.6078  -34.4786   26.5766 C   0  0  0  0  0  0  0  0  0  0  0  0
  -25.7397  -30.7034   20.3089 C   0  0  0  0  0  0  0  0  0  0  0  0
  -23.7570  -28.9397   21.6140 C   0  0  0  0  0  0  0  0  0  0  0  0
  -24.7596  -33.2730   26.1799 C   0  0  0  0  0  0  0  0  0  0  0  0
  -30.1579  -12.0931   19.9652 C   0  0  0  0  0  0  0  0  0  0  0  0
  -25.6479  -32.0666   25.8929 C   0  0  0  0  0  0  0  0  0  0  0  0
  -28.6990  -11.8367   20.3391 C   0  0  0  0  0  0  0  0  0  0  0  0
  -26.2226  -22.4778   18.1134 C   0  0  0  0  0  0  0  0  0  0  0  0
  -30.2790  -12.9163   18.6862 C   0  0  0  0  0  0  0  0  0  0  0  0
  -26.6910  -21.0354   17.9339 C   0  0  0  0  0  0  0  0  0  0  0  0
  -28.5511  -22.4027   18.6602 C   0  0  0  0  0  0  0  0  0  0  0  0
  -28.0660  -13.9464   19.1007 C   0  0  0  0  0  0  0  0  0  0  0  0
  -26.5959  -32.3460   24.7205 C   0  0  1  0  0  0  0  0  0  0  0  0
  -24.9301  -31.1616   21.5180 C   0  0  1  0  0  0  0  0  0  0  0  0
  -27.2345  -23.0527   19.1003 C   0  0  1  0  0  0  0  0  0  0  0  0
  -27.9104  -13.1559   20.4086 C   0  0  1  0  0  0  0  0  0  0  0  0
  -17.4176  -29.8527   20.1571 C   0  0  0  0  0  0  0  0  0  0  0  0
  -21.9896  -30.1587   24.9397 C   0  0  0  0  0  0  0  0  0  0  0  0
  -19.6732  -29.5350   24.2232 C   0  0  0  0  0  0  0  0  0  0  0  0
  -20.4169  -31.9130   24.1011 C   0  0  0  0  0  0  0  0  0  0  0  0
  -29.3048  -16.5137   20.2714 C   0  0  0  0  0  0  0  0  0  0  0  0
  -20.2391  -29.7548   17.6064 C   0  0  0  0  0  0  0  0  0  0  0  0
  -27.2828  -24.5706   19.0926 C   0  0  0  0  0  0  0  0  0  1  0  0
  -21.3362  -30.2402   22.4433 C   0  0  1  0  0  0  0  0  0  0  0  0
  -18.8103  -30.1409   19.6184 C   0  0  2  0  0  0  0  0  0  0  0  0
  -20.8767  -30.4508   23.9136 C   0  0  0  0  0  0  0  0  0  0  0  0
  -25.8522  -11.7989   20.3429 N   0  0  0  0  0  0  0  0  0  0  0  0
  -26.4513  -12.9281   20.7576 N   0  0  0  0  0  0  0  0  0  0  0  0
  -28.1372  -21.1068   18.1266 N   0  0  3  0  0  0  0  0  0  0  0  0
  -23.6852  -30.4085   21.6831 N   0  0  0  0  0  0  0  0  0  0  0  0
  -29.4838  -14.1425   18.7611 N   0  0  0  0  0  0  0  0  0  0  0  0
  -26.0755  -14.9337   21.9604 N   0  0  0  0  0  0  0  0  0  0  0  0
  -22.0722  -12.8504   22.1316 N   0  0  0  0  0  0  0  0  0  0  0  0
  -25.8892  -32.2379   23.4622 N   0  0  0  0  0  0  0  0  0  0  0  0
  -20.3107  -30.5356   21.4486 N   0  0  0  0  0  0  0  0  0  0  0  0
  -29.6164  -16.5297   18.8384 N   0  0  0  0  0  0  0  0  0  0  0  0
  -18.9264  -29.5291   18.2645 N   0  3  0  0  0  0  0  0  0  0  0  0
  -23.2185  -14.7354   22.7573 O   0  0  0  0  0  0  0  0  0  0  0  0
  -26.0705  -29.9334   23.1812 O   0  0  0  0  0  0  0  0  0  0  0  0
  -22.4375  -32.3211   22.1540 O   0  0  0  0  0  0  0  0  0  0  0  0
  -20.2992  -28.4362   20.4639 O   0  0  0  0  0  0  0  0  0  0  0  0
  -30.7611  -15.3142   17.2279 O   0  0  0  0  0  0  0  0  0  0  0  0
  -20.8309   -7.9110   19.8741 O   0  0  0  0  0  0  0  0  0  0  0  0
  -26.1882  -25.0743   19.8572 O   0  0  0  0  0  0  0  0  0  1  0  0
  -15.7875   -9.4596   18.2709 F   0  0  0  0  0  0  0  0  0  0  0  0
  -30.1615  -21.4494   16.2751 F   0  0  0  0  0  0  0  0  0  0  0  0
  -19.7918   -7.0715   17.4537 F   0  0  0  0  0  0  0  0  0  0  0  0
  -27.8963  -18.6629   19.3760 F   0  0  0  0  0  0  0  0  0  0  0  0
  1  2  1  0  0  0  0
  1  5  2  0  0  0  0
  2  6  2  0  0  0  0
  3  9  2  0  0  0  0
  3 17  1  0  0  0  0
  4 10  1  0  0  0  0
  4 17  2  0  0  0  0
  5 19  1  0  0  0  0
  6 21  1  0  0  0  0
  7 11  2  0  0  0  0
  7 20  1  0  0  0  0
  8 13  1  0  0  0  0
  8 24  2  0  0  0  0
  9 25  1  0  0  0  0
 10 25  2  0  0  0  0
 11 26  1  0  0  0  0
 12 14  2  0  0  0  0
 12 27  1  0  0  0  0
 13 29  2  0  0  0  0
 14 28  1  0  0  0  0
 15 22  1  0  0  0  0
 15 26  2  0  0  0  0
 16 28  2  0  0  0  0
 16 30  1  0  0  0  0
 17 32  1  0  0  0  0
 18 32  1  0  0  0  0
 18 33  2  0  0  0  0
 18 34  1  0  0  0  0
 19 21  2  0  0  0  0
 19 39  1  0  0  0  0
 20 22  2  0  0  0  0
 20 40  1  0  0  0  0
 21 51  1  0  0  0  0
 22 41  1  0  0  0  0
 23 29  1  0  0  0  0
 23 31  2  0  0  0  0
 23 67  1  0  0  0  0
 24 31  1  0  0  0  0
 24 74  1  0  0  0  0
 25 81  1  0  0  0  0
 26 82  1  0  0  0  0
 27 30  2  0  0  0  0
 27 81  1  0  0  0  0
 28 83  1  0  0  0  0
 29 84  1  0  0  0  0
 30 85  1  0  0  0  0
 31 86  1  0  0  0  0
 32 65  2  0  0  0  0
 33 66  1  0  0  0  0
 33 70  1  0  0  0  0
 34 71  1  0  0  0  0
 34 76  2  0  0  0  0
 35 52  1  0  0  0  0
 35 72  1  0  0  0  0
 35 77  2  0  0  0  0
 36 62  1  0  0  0  0
 36 68  1  0  0  0  0
 36 78  2  0  0  0  0
 37 63  1  0  0  0  0
 37 73  1  0  0  0  0
 37 79  2  0  0  0  0
 38 69  1  0  0  0  0
 38 74  1  0  0  0  0
 38 80  2  0  0  0  0
 39 42  1  0  0  0  0
 40 52  1  0  0  0  0
 41 68  1  0  0  0  0
 42 44  1  0  0  0  0
 43 45  1  0  0  0  0
 43 47  1  0  0  0  0
 44 51  1  0  0  0  0
 45 54  1  0  0  0  0
 46 48  1  0  0  0  0
 46 53  1  0  0  0  0
 47 69  1  0  0  0  0
 48 67  1  0  0  0  0
 49 53  1  0  0  0  0
 49 67  1  0  0  0  0
 50 54  1  0  0  0  0
 50 69  1  0  0  0  0
 51 72  1  0  0  0  0
 52 68  1  0  0  0  0
 53 61  1  0  0  0  0
 54 66  1  0  0  0  0
 55 63  1  0  0  0  0
 56 64  1  0  0  0  0
 57 64  1  0  0  0  0
 58 64  1  0  0  0  0
 59 74  1  0  0  0  0
 60 75  1  0  0  0  0
 61 82  1  0  0  0  0
 62 64  1  0  0  0  0
 62 73  1  0  0  0  0
 63 75  1  0  0  0  0
 65 66  1  0  0  0  0
M  CHG  1  75   1
M  ISO  4  38 100  61 101  74 100  82 101
M  END
> <Batch ID>
0028

> <Smiles>
CNC(C)C(=O)NC(C(=O)N1Cc2cc([101O:1][101CH2:1]C3CCN(c4c(F)ccc([100N:0](C)[100C:0](=O)N5CCCC(n6nc(-c7ccc(Oc8ccc(F)cc8F)cc7)c(C(N)=O)c6N)C5)c4F)C3)ccc2CC1C(=O)NC1CCCc2ccccc21)C(C)(C)C

> <Shape>
0.287

> <Color>
0.123

> <Negative vol penalty>
0.000

$$$$

  -OEChem-04042321313D

 85 94  0     1  0  0  0  0  0999 V2000
  -17.6140  -32.8453   23.0512 C   0  0  0  0  0  0  0  0  0  0  0  0
  -18.9430  -33.0939   23.3789 C   0  0  0  0  0  0  0  0  0  0  0  0
  -26.2678  -13.8099   21.1265 C   0  0  0  0  0  0  0  0  0  0  0  0
  -24.2891  -13.5432   19.7661 C   0  0  0  0  0  0  0  0  0  0  0  0
  -17.1763  -31.5345   22.8662 C   0  0  0  0  0  0  0  0  0  0  0  0
  -19.8349  -32.0318   23.5229 C   0  0  0  0  0  0  0  0  0  0  0  0
  -26.6321  -30.6843   19.9160 C   0  0  0  0  0  0  0  0  0  0  0  0
  -29.5943  -22.6410   15.5084 C   0  0  0  0  0  0  0  0  0  0  0  0
  -29.8509  -23.8517   16.1516 C   0  0  0  0  0  0  0  0  0  0  0  0
  -26.3633  -12.4247   21.2591 C   0  0  0  0  0  0  0  0  0  0  0  0
  -24.3847  -12.1580   19.8986 C   0  0  0  0  0  0  0  0  0  0  0  0
  -27.7699  -30.2575   19.2309 C   0  0  0  0  0  0  0  0  0  0  0  0
  -23.6445   -9.8213   22.2273 C   0  0  0  0  0  0  0  0  0  0  0  0
  -22.4763   -9.1158   22.5158 C   0  0  0  0  0  0  0  0  0  0  0  0
  -27.2138  -27.9554   19.7198 C   0  0  0  0  0  0  0  0  0  0  0  0
  -30.5075  -22.6539   18.1444 C   0  0  0  0  0  0  0  0  0  0  0  0
  -22.7289   -7.8600   20.4673 C   0  0  0  0  0  0  0  0  0  0  0  0
  -25.2307  -14.3692   20.3800 C   0  0  0  0  0  0  0  0  0  0  0  0
  -24.9781  -16.7443   21.2760 C   0  0  0  0  0  0  0  0  0  0  0  0
  -18.0655  -30.4563   22.9985 C   0  0  0  0  0  0  0  0  0  0  0  0
  -25.7715  -29.7463   20.4931 C   0  0  0  0  0  0  0  0  0  0  0  0
  -19.4084  -30.7052   23.3408 C   0  0  0  0  0  0  0  0  0  0  0  0
  -26.0659  -28.3763   20.3965 C   0  0  0  0  0  0  0  0  0  0  0  0
  -29.7942  -21.4366   16.1832 C   0  0  0  0  0  0  0  0  0  0  0  0
  -30.3075  -23.8582   17.4696 C   0  0  0  0  0  0  0  0  0  0  0  0
  -25.4218  -11.5987   20.6452 C   0  0  0  0  0  0  0  0  0  0  0  0
  -28.0601  -28.8965   19.1333 C   0  0  0  0  0  0  0  0  0  0  0  0
  -24.3548   -9.5462   21.0588 C   0  0  0  0  0  0  0  0  0  0  0  0
  -22.0185   -8.1351   21.6358 C   0  0  0  0  0  0  0  0  0  0  0  0
  -30.2508  -21.4431   17.5012 C   0  0  0  0  0  0  0  0  0  0  0  0
  -23.8970   -8.5655   20.1788 C   0  0  0  0  0  0  0  0  0  0  0  0
  -25.1311  -15.8001   20.2431 C   0  0  0  0  0  0  0  0  0  0  0  0
  -24.9351  -17.9557   20.6302 C   0  0  0  0  0  0  0  0  0  0  0  0
  -24.8832  -16.5442   22.6926 C   0  0  0  0  0  0  0  0  0  0  0  0
  -22.6240  -29.1248   22.4380 C   0  0  0  0  0  0  0  0  0  0  0  0
  -22.7595  -26.9769   20.2520 C   0  0  0  0  0  0  0  0  0  0  0  0
  -22.8703  -25.6199   17.4149 C   0  0  0  0  0  0  0  0  0  0  0  0
  -27.0588  -19.8444   15.3601 C   0  0  0  0  0  0  0  0  0  0  0  0
  -17.5353  -29.0538   22.8355 C   0  0  0  0  0  0  0  0  0  0  0  0
  -24.5674  -30.1635   21.2931 C   0  0  0  0  0  0  0  0  0  0  0  0
  -25.1302  -27.4049   21.0626 C   0  0  0  0  0  0  0  0  0  0  0  0
  -18.6297  -28.0080   22.6384 C   0  0  0  0  0  0  0  0  0  0  0  0
  -23.6738  -19.9334   16.4602 C   0  0  0  0  0  0  0  0  0  0  0  0
  -31.9402  -26.3243   19.7369 C   0  0  0  0  0  0  0  0  0  0  0  0
  -19.7494  -28.2090   23.6546 C   0  0  0  0  0  0  0  0  0  0  0  0
  -23.6496  -18.9694   17.6477 C   0  0  0  0  0  0  0  0  0  0  0  0
  -31.2025  -27.5990   19.3559 C   0  0  0  0  0  0  0  0  0  0  0  0
  -31.9339  -25.3098   18.5957 C   0  0  0  0  0  0  0  0  0  0  0  0
  -24.6135  -19.4484   15.3586 C   0  0  0  0  0  0  0  0  0  0  0  0
  -25.9643  -18.1889   16.9904 C   0  0  0  0  0  0  0  0  0  0  0  0
  -29.7769  -26.2577   17.7599 C   0  0  0  0  0  0  0  0  0  0  0  0
  -20.4118  -29.5812   23.4814 C   0  0  1  0  0  0  0  0  0  0  0  0
  -23.3790  -29.1969   21.1433 C   0  0  1  0  0  0  0  0  0  0  0  0
  -25.0732  -18.6639   18.1509 C   0  0  2  0  0  0  0  0  0  0  0  0
  -29.7850  -27.2791   18.8982 C   0  0  2  0  0  0  0  0  0  1  0  0
  -22.3686  -23.7947   15.7674 C   0  0  0  0  0  0  0  0  0  0  0  0
  -23.7815  -24.9742   22.3131 C   0  0  0  0  0  0  0  0  0  0  0  0
  -23.4831  -23.1698   20.6033 C   0  0  0  0  0  0  0  0  0  0  0  0
  -21.5080  -24.4668   21.4031 C   0  0  0  0  0  0  0  0  0  0  0  0
  -21.4411  -27.4814   15.6117 C   0  0  0  0  0  0  0  0  0  0  0  0
  -29.5189  -20.1438   15.4925 C   0  0  0  0  0  0  0  0  0  0  0  0
  -23.1862  -25.5808   19.8751 C   0  0  1  0  0  0  0  0  0  0  0  0
  -21.9275  -25.1382   16.3270 C   0  0  2  0  0  0  0  0  0  0  0  0
  -23.0062  -24.5704   21.0432 C   0  0  0  0  0  0  0  0  0  0  0  0
  -25.1818  -16.3633   19.0330 N   0  0  0  0  0  0  0  0  0  0  0  0
  -25.0599  -17.6744   19.3015 N   0  0  0  0  0  0  0  0  0  0  0  0
  -30.5653  -25.0742   18.1148 N   0  0  1  0  0  0  0  0  0  0  0  0
  -23.7351  -27.8048   20.8204 N   0  0  0  0  0  0  0  0  0  0  0  0
  -25.9470  -19.1781   15.9014 N   0  0  0  0  0  0  0  0  0  0  0  0
  -24.8032  -19.2235   21.0750 N   0  0  0  0  0  0  0  0  0  0  0  0
  -23.6143  -16.3567   23.2574 N   0  0  0  0  0  0  0  0  0  0  0  0
  -21.3174  -29.5663   22.3526 N   0  0  0  0  0  0  0  0  0  0  0  0
  -22.4415  -25.2380   18.6684 N   0  0  0  0  0  0  0  0  0  0  0  0
  -28.2847  -19.5352   15.9366 N   0  0  0  0  0  0  0  0  0  0  0  0
  -21.8822  -26.1214   15.2080 N   0  3  0  0  0  0  0  0  0  0  0  0
  -25.8924  -16.5484   23.4377 O   0  0  0  0  0  0  0  0  0  0  0  0
  -23.1841  -28.6986   23.4411 O   0  0  0  0  0  0  0  0  0  0  0  0
  -21.5920  -27.3248   20.0541 O   0  0  0  0  0  0  0  0  0  0  0  0
  -23.8876  -26.2670   17.1761 O   0  0  0  0  0  0  0  0  0  0  0  0
  -26.9652  -20.6587   14.4354 O   0  0  0  0  0  0  0  0  0  0  0  0
  -25.5148  -10.2469   20.7742 O   0  0  0  0  0  0  0  0  0  0  0  0
  -29.1702  -28.4865   18.4592 O   0  0  0  0  0  0  0  0  0  1  0  0
  -20.8975   -7.4566   21.9138 F   0  0  0  0  0  0  0  0  0  0  0  0
  -30.4448  -20.2910   18.1581 F   0  0  0  0  0  0  0  0  0  0  0  0
  -24.5758   -8.2960   19.0552 F   0  0  0  0  0  0  0  0  0  0  0  0
  1  2  1  0  0  0  0
  1  5  2  0  0  0  0
  2  6  2  0  0  0  0
  3 10  2  0  0  0  0
  3 18  1  0  0  0  0
  4 11  1  0  0  0  0
  4 18  2  0  0  0  0
  5 20  1  0  0  0  0
  6 22  1  0  0  0  0
  7 12  2  0  0  0  0
  7 21  1  0  0  0  0
  8  9  2  0  0  0  0
  8 24  1  0  0  0  0
  9 25  1  0  0  0  0
 10 26  1  0  0  0  0
 11 26  2  0  0  0  0
 12 27  1  0  0  0  0
 13 14  2  0  0  0  0
 13 28  1  0  0  0  0
 14 29  1  0  0  0  0
 15 23  1  0  0  0  0
 15 27  2  0  0  0  0
 16 25  2  0  0  0  0
 16 30  1  0  0  0  0
 17 29  2  0  0  0  0
 17 31  1  0  0  0  0
 18 32  1  0  0  0  0
 19 32  1  0  0  0  0
 19 33  2  0  0  0  0
 19 34  1  0  0  0  0
 20 22  2  0  0  0  0
 20 39  1  0  0  0  0
 21 23  2  0  0  0  0
 21 40  1  0  0  0  0
 22 52  1  0  0  0  0
 23 41  1  0  0  0  0
 24 30  2  0  0  0  0
 24 61  1  0  0  0  0
 25 67  1  0  0  0  0
 26 81  1  0  0  0  0
 27 82  1  0  0  0  0
 28 31  2  0  0  0  0
 28 81  1  0  0  0  0
 29 83  1  0  0  0  0
 30 84  1  0  0  0  0
 31 85  1  0  0  0  0
 32 65  2  0  0  0  0
 33 66  1  0  0  0  0
 33 70  1  0  0  0  0
 34 71  1  0  0  0  0
 34 76  2  0  0  0  0
 35 53  1  0  0  0  0
 35 72  1  0  0  0  0
 35 77  2  0  0  0  0
 36 62  1  0  0  0  0
 36 68  1  0  0  0  0
 36 78  2  0  0  0  0
 37 63  1  0  0  0  0
 37 73  1  0  0  0  0
 37 79  2  0  0  0  0
 38 69  1  0  0  0  0
 38 74  1  0  0  0  0
 38 80  2  0  0  0  0
 39 42  1  0  0  0  0
 40 53  1  0  0  0  0
 41 68  1  0  0  0  0
 42 45  1  0  0  0  0
 43 46  1  0  0  0  0
 43 49  1  0  0  0  0
 44 47  1  0  0  0  0
 44 48  1  0  0  0  0
 45 52  1  0  0  0  0
 46 54  1  0  0  0  0
 47 55  1  0  0  0  0
 48 67  1  0  0  0  0
 49 69  1  0  0  0  0
 50 54  1  0  0  0  0
 50 69  1  0  0  0  0
 51 55  1  0  0  0  0
 51 67  1  0  0  0  0
 52 72  1  0  0  0  0
 53 68  1  0  0  0  0
 54 66  1  0  0  0  0
 55 82  1  0  0  0  0
 56 63  1  0  0  0  0
 57 64  1  0  0  0  0
 58 64  1  0  0  0  0
 59 64  1  0  0  0  0
 60 75  1  0  0  0  0
 61 74  1  0  0  0  0
 62 64  1  0  0  0  0
 62 73  1  0  0  0  0
 63 75  1  0  0  0  0
 65 66  1  0  0  0  0
M  CHG  1  75   1
M  ISO  4  38 100  55 101  74 100  82 101
M  END
> <Batch ID>
0028

> <Smiles>
CNC(C)C(=O)NC(C(=O)N1Cc2cc([101O:1][101CH:1]3CCCN(c4ccc(C[100NH:0][100C:0](=O)N5CCCC(n6nc(-c7ccc(Oc8ccc(F)cc8F)cc7)c(C(N)=O)c6N)C5)c(F)c4)C3)ccc2CC1C(=O)NC1CCCc2ccccc21)C(C)(C)C

> <Shape>
0.208

> <Color>
0.086

> <Negative vol penalty>
0.000

$$$$

  -OEChem-04042321313D

 84 93  0     1  0  0  0  0  0999 V2000
  -30.1246  -35.8323   19.5389 C   0  0  0  0  0  0  0  0  0  0  0  0
  -29.9796  -34.5019   19.1589 C   0  0  0  0  0  0  0  0  0  0  0  0
  -24.5682   -9.3509   22.0444 C   0  0  0  0  0  0  0  0  0  0  0  0
  -23.1229  -10.1774   20.2937 C   0  0  0  0  0  0  0  0  0  0  0  0
  -29.7507  -36.2348   20.8204 C   0  0  0  0  0  0  0  0  0  0  0  0
  -29.4617  -33.5729   20.0605 C   0  0  0  0  0  0  0  0  0  0  0  0
  -25.9115  -28.7572   18.7526 C   0  0  0  0  0  0  0  0  0  0  0  0
  -23.5080   -8.6138   22.5717 C   0  0  0  0  0  0  0  0  0  0  0  0
  -22.0626   -9.4402   20.8210 C   0  0  0  0  0  0  0  0  0  0  0  0
  -26.1938  -27.4026   18.5816 C   0  0  0  0  0  0  0  0  0  0  0  0
  -21.9152   -5.7085   21.8969 C   0  0  0  0  0  0  0  0  0  0  0  0
  -22.1659   -4.3880   22.2696 C   0  0  0  0  0  0  0  0  0  0  0  0
  -25.5903  -26.9927   20.8809 C   0  0  0  0  0  0  0  0  0  0  0  0
  -24.5976  -19.4501   19.0706 C   0  0  0  0  0  0  0  0  0  0  0  0
  -22.8020  -18.7803   17.0433 C   0  0  0  0  0  0  0  0  0  0  0  0
  -21.5254   -4.9074   24.5406 C   0  0  0  0  0  0  0  0  0  0  0  0
  -24.3757  -10.1328   20.9053 C   0  0  0  0  0  0  0  0  0  0  0  0
  -26.4013  -10.4729   19.3924 C   0  0  0  0  0  0  0  0  0  0  0  0
  -29.2188  -35.3121   21.7350 C   0  0  0  0  0  0  0  0  0  0  0  0
  -25.4761  -29.2423   19.9942 C   0  0  0  0  0  0  0  0  0  0  0  0
  -29.0815  -33.9631   21.3559 C   0  0  0  0  0  0  0  0  0  0  0  0
  -25.3006  -28.3535   21.0643 C   0  0  0  0  0  0  0  0  0  0  0  0
  -23.6892  -20.3991   18.6020 C   0  0  0  0  0  0  0  0  0  0  0  0
  -22.7914  -20.0643   17.5883 C   0  0  0  0  0  0  0  0  0  0  0  0
  -24.6083  -18.1661   18.5255 C   0  0  0  0  0  0  0  0  0  0  0  0
  -22.2552   -8.6584   21.9600 C   0  0  0  0  0  0  0  0  0  0  0  0
  -26.0360  -26.5207   19.6466 C   0  0  0  0  0  0  0  0  0  0  0  0
  -21.4697   -6.6286   22.8460 C   0  0  0  0  0  0  0  0  0  0  0  0
  -21.9710   -3.9875   23.5915 C   0  0  0  0  0  0  0  0  0  0  0  0
  -21.2747   -6.2280   24.1678 C   0  0  0  0  0  0  0  0  0  0  0  0
  -23.7105  -17.8313   17.5119 C   0  0  0  0  0  0  0  0  0  0  0  0
  -25.4704  -10.8949   20.3605 C   0  0  0  0  0  0  0  0  0  0  0  0
  -27.2296  -11.5546   19.2181 C   0  0  0  0  0  0  0  0  0  0  0  0
  -26.5077   -9.2156   18.7116 C   0  0  0  0  0  0  0  0  0  0  0  0
  -26.6116  -31.3214   22.1135 C   0  0  0  0  0  0  0  0  0  0  0  0
  -23.7621  -30.7973   23.5721 C   0  0  0  0  0  0  0  0  0  0  0  0
  -21.0926  -28.7270   24.0561 C   0  0  0  0  0  0  0  0  0  0  0  0
  -26.4957  -17.4298   20.0229 C   0  0  0  0  0  0  0  0  0  0  0  0
  -28.8729  -35.7848   23.1248 C   0  0  0  0  0  0  0  0  0  0  0  0
  -25.1501  -30.7018   20.1549 C   0  0  0  0  0  0  0  0  0  0  0  0
  -24.8164  -28.8205   22.4119 C   0  0  0  0  0  0  0  0  0  0  0  0
  -27.9829  -34.8125   23.8949 C   0  0  0  0  0  0  0  0  0  0  0  0
  -28.9581  -15.3623   21.5522 C   0  0  0  0  0  0  0  0  0  0  0  0
  -28.5090  -33.3870   23.7613 C   0  0  0  0  0  0  0  0  0  0  0  0
  -28.4309  -13.9433   21.3267 C   0  0  0  0  0  0  0  0  0  0  0  0
  -27.8260  -16.3514   21.8235 C   0  0  0  0  0  0  0  0  0  0  0  0
  -26.2250  -14.9372   20.5963 C   0  0  0  0  0  0  0  0  0  0  0  0
  -24.1030  -24.1578   18.8211 C   0  0  0  0  0  0  0  0  0  0  0  0
  -25.7614  -22.9180   18.5468 C   0  0  0  0  0  0  0  0  0  0  0  0
  -28.5004  -32.9306   22.2974 C   0  0  1  0  0  0  0  0  0  0  0  0
  -25.2056  -31.1702   21.6057 C   0  0  1  0  0  0  0  0  0  0  0  0
  -27.3236  -13.9172   20.2549 C   0  0  2  0  0  0  0  0  0  0  0  0
  -25.5807  -24.4454   18.5011 C   0  0  0  0  0  0  0  0  0  1  0  0
  -21.8100  -21.0639   17.0704 C   0  0  0  0  0  0  0  0  0  0  0  0
  -18.9397  -28.5544   25.3340 C   0  0  0  0  0  0  0  0  0  0  0  0
  -25.3238  -30.1397   26.1096 C   0  0  0  0  0  0  0  0  0  0  0  0
  -23.2492  -29.0817   27.0288 C   0  0  0  0  0  0  0  0  0  0  0  0
  -23.2673  -31.5144   26.4772 C   0  0  0  0  0  0  0  0  0  0  0  0
  -19.4928  -28.5915   21.5699 C   0  0  0  0  0  0  0  0  0  0  0  0
  -23.6991  -21.7746   19.2012 C   0  0  0  0  0  0  0  0  0  0  0  0
  -23.2524  -29.8184   24.6022 C   0  0  1  0  0  0  0  0  0  0  0  0
  -19.5975  -28.9890   24.0335 C   0  0  2  0  0  0  0  0  0  0  0  0
  -23.7841  -30.1298   26.0297 C   0  0  0  0  0  0  0  0  0  0  0  0
  -25.6866  -12.1470   20.7724 N   0  0  0  0  0  0  0  0  0  0  0  0
  -26.7628  -12.5210   20.0597 N   0  0  0  0  0  0  0  0  0  0  0  0
  -24.5169  -30.2579   22.5209 N   0  0  0  0  0  0  0  0  0  0  0  0
  -26.8166  -16.2737   20.7652 N   0  0  0  0  0  0  0  0  0  0  0  0
  -28.3044  -11.7638   18.4285 N   0  0  0  0  0  0  0  0  0  0  0  0
  -25.5746   -8.2132   19.0098 N   0  0  0  0  0  0  0  0  0  0  0  0
  -25.5463  -17.2271   19.0218 N   0  0  0  0  0  0  0  0  0  0  0  0
  -27.1599  -32.5697   21.8884 N   0  0  0  0  0  0  0  0  0  0  0  0
  -21.7978  -29.8292   24.4909 N   0  0  0  0  0  0  0  0  0  0  0  0
  -24.3108  -22.7886   18.3147 N   0  3  0  0  0  0  0  0  0  0  0  0
  -18.9580  -28.2449   22.9118 N   0  3  0  0  0  0  0  0  0  0  0  0
  -27.4136   -8.9820   17.8760 O   0  0  0  0  0  0  0  0  0  0  0  0
  -27.1581  -30.3760   22.6697 O   0  0  0  0  0  0  0  0  0  0  0  0
  -23.4941  -31.9954   23.6918 O   0  0  0  0  0  0  0  0  0  0  0  0
  -21.5852  -27.6508   23.7250 O   0  0  0  0  0  0  0  0  0  0  0  0
  -27.0440  -18.5134   20.2399 O   0  0  0  0  0  0  0  0  0  0  0  0
  -21.2205   -7.9390   22.4742 O   0  0  0  0  0  0  0  0  0  0  0  0
  -26.3115  -25.1981   19.4826 O   0  0  0  0  0  0  0  0  0  1  0  0
  -22.2103   -2.7190   23.9489 F   0  0  0  0  0  0  0  0  0  0  0  0
  -20.8457   -7.1071   25.0838 F   0  0  0  0  0  0  0  0  0  0  0  0
  -23.6892  -16.2528   16.8094 Cl  0  0  0  0  0  0  0  0  0  0  0  0
  1  2  1  0  0  0  0
  1  5  2  0  0  0  0
  2  6  2  0  0  0  0
  3  8  2  0  0  0  0
  3 17  1  0  0  0  0
  4  9  1  0  0  0  0
  4 17  2  0  0  0  0
  5 19  1  0  0  0  0
  6 21  1  0  0  0  0
  7 10  2  0  0  0  0
  7 20  1  0  0  0  0
  8 26  1  0  0  0  0
  9 26  2  0  0  0  0
 10 27  1  0  0  0  0
 11 12  2  0  0  0  0
 11 28  1  0  0  0  0
 12 29  1  0  0  0  0
 13 22  1  0  0  0  0
 13 27  2  0  0  0  0
 14 23  1  0  0  0  0
 14 25  2  0  0  0  0
 15 24  1  0  0  0  0
 15 31  2  0  0  0  0
 16 29  2  0  0  0  0
 16 30  1  0  0  0  0
 17 32  1  0  0  0  0
 18 32  1  0  0  0  0
 18 33  2  0  0  0  0
 18 34  1  0  0  0  0
 19 21  2  0  0  0  0
 19 39  1  0  0  0  0
 20 22  2  0  0  0  0
 20 40  1  0  0  0  0
 21 50  1  0  0  0  0
 22 41  1  0  0  0  0
 23 24  2  0  0  0  0
 23 60  1  0  0  0  0
 24 54  1  0  0  0  0
 25 31  1  0  0  0  0
 25 70  1  0  0  0  0
 26 80  1  0  0  0  0
 27 81  1  0  0  0  0
 28 30  2  0  0  0  0
 28 80  1  0  0  0  0
 29 82  1  0  0  0  0
 30 83  1  0  0  0  0
 31 84  1  0  0  0  0
 32 64  2  0  0  0  0
 33 65  1  0  0  0  0
 33 68  1  0  0  0  0
 34 69  1  0  0  0  0
 34 75  2  0  0  0  0
 35 51  1  0  0  0  0
 35 71  1  0  0  0  0
 35 76  2  0  0  0  0
 36 61  1  0  0  0  0
 36 66  1  0  0  0  0
 36 77  2  0  0  0  0
 37 62  1  0  0  0  0
 37 72  1  0  0  0  0
 37 78  2  0  0  0  0
 38 67  1  0  0  0  0
 38 70  1  0  0  0  0
 38 79  2  0  0  0  0
 39 42  1  0  0  0  0
 40 51  1  0  0  0  0
 41 66  1  0  0  0  0
 42 44  1  0  0  0  0
 43 45  1  0  0  0  0
 43 46  1  0  0  0  0
 44 50  1  0  0  0  0
 45 52  1  0  0  0  0
 46 67  1  0  0  0  0
 47 52  1  0  0  0  0
 47 67  1  0  0  0  0
 48 53  1  0  0  0  0
 48 73  1  0  0  0  0
 49 53  1  0  0  0  0
 49 73  1  0  0  0  0
 50 71  1  0  0  0  0
 51 66  1  0  0  0  0
 52 65  1  0  0  0  0
 53 81  1  0  0  0  0
 55 62  1  0  0  0  0
 56 63  1  0  0  0  0
 57 63  1  0  0  0  0
 58 63  1  0  0  0  0
 59 74  1  0  0  0  0
 60 73  1  0  0  0  0
 61 63  1  0  0  0  0
 61 72  1  0  0  0  0
 62 74  1  0  0  0  0
 64 65  1  0  0  0  0
M  CHG  2  73   1  74   1
M  ISO  4  38 100  53 101  70 100  81 101
M  END
> <Batch ID>
0028

> <Smiles>
CNC(C)C(=O)NC(C(=O)N1Cc2cc([101O:1][101CH:1]3CN(Cc4cc([100NH:0][100C:0](=O)N5CCCC(n6nc(-c7ccc(Oc8ccc(F)cc8F)cc7)c(C(N)=O)c6N)C5)c(Cl)cc4C)C3)ccc2CC1C(=O)NC1CCCc2ccccc21)C(C)(C)C

> <Shape>
0.245

> <Color>
0.097

> <Negative vol penalty>
0.000

$$$$

  -OEChem-04042321313D

 84 93  0     1  0  0  0  0  0999 V2000
  -26.0440  -30.3038   12.3367 C   0  0  0  0  0  0  0  0  0  0  0  0
  -26.4795  -29.2127   13.0818 C   0  0  0  0  0  0  0  0  0  0  0  0
  -22.9795  -10.0408   19.9347 C   0  0  0  0  0  0  0  0  0  0  0  0
  -24.0774   -9.5048   22.0190 C   0  0  0  0  0  0  0  0  0  0  0  0
  -26.2080  -31.5960   12.8338 C   0  0  0  0  0  0  0  0  0  0  0  0
  -27.0803  -29.4133   14.3241 C   0  0  0  0  0  0  0  0  0  0  0  0
  -25.3475  -26.2262   17.8575 C   0  0  0  0  0  0  0  0  0  0  0  0
  -22.2632   -8.8459   20.0047 C   0  0  0  0  0  0  0  0  0  0  0  0
  -23.3611   -8.3099   22.0891 C   0  0  0  0  0  0  0  0  0  0  0  0
  -25.8420  -24.9228   17.8369 C   0  0  0  0  0  0  0  0  0  0  0  0
  -20.2485   -7.3209   22.9576 C   0  0  0  0  0  0  0  0  0  0  0  0
  -19.6767   -6.9808   24.1835 C   0  0  0  0  0  0  0  0  0  0  0  0
  -27.3704  -25.4809   19.6178 C   0  0  0  0  0  0  0  0  0  0  0  0
  -31.5825  -18.4221   20.8330 C   0  0  0  0  0  0  0  0  0  0  0  0
  -29.1787  -19.7068   21.4277 C   0  0  0  0  0  0  0  0  0  0  0  0
  -20.9834   -4.9491   24.2292 C   0  0  0  0  0  0  0  0  0  0  0  0
  -23.8866  -10.3702   20.9418 C   0  0  0  0  0  0  0  0  0  0  0  0
  -24.2476  -12.8551   21.3918 C   0  0  0  0  0  0  0  0  0  0  0  0
  -26.8023  -31.8120   14.0871 C   0  0  0  0  0  0  0  0  0  0  0  0
  -25.8692  -27.1713   18.7525 C   0  0  0  0  0  0  0  0  0  0  0  0
  -27.2536  -30.7097   14.8378 C   0  0  0  0  0  0  0  0  0  0  0  0
  -26.8790  -26.7949   19.6496 C   0  0  0  0  0  0  0  0  0  0  0  0
  -30.6870  -17.8442   21.7327 C   0  0  0  0  0  0  0  0  0  0  0  0
  -31.2763  -19.6424   20.2306 C   0  0  0  0  0  0  0  0  0  0  0  0
  -29.4850  -18.4866   22.0301 C   0  0  0  0  0  0  0  0  0  0  0  0
  -30.0743  -20.2847   20.5279 C   0  0  0  0  0  0  0  0  0  0  0  0
  -22.4540   -7.9805   21.0819 C   0  0  0  0  0  0  0  0  0  0  0  0
  -26.8556  -24.5507   18.7151 C   0  0  0  0  0  0  0  0  0  0  0  0
  -21.1877   -6.4751   22.3674 C   0  0  0  0  0  0  0  0  0  0  0  0
  -20.0442   -5.7949   24.8194 C   0  0  0  0  0  0  0  0  0  0  0  0
  -21.5551   -5.2892   23.0032 C   0  0  0  0  0  0  0  0  0  0  0  0
  -24.6273  -11.6040   20.8698 C   0  0  0  0  0  0  0  0  0  0  0  0
  -25.2844  -13.6935   21.0622 C   0  0  0  0  0  0  0  0  0  0  0  0
  -23.0637  -13.2262   22.1103 C   0  0  0  0  0  0  0  0  0  0  0  0
  -27.3903  -29.9459   18.4504 C   0  0  0  0  0  0  0  0  0  0  0  0
  -27.0597  -30.0335   21.6762 C   0  0  0  0  0  0  0  0  0  0  0  0
  -26.6275  -28.3137   24.5920 C   0  0  0  0  0  0  0  0  0  0  0  0
  -30.7495  -14.7522   20.6657 C   0  0  0  0  0  0  0  0  0  0  0  0
  -27.0009  -33.2298   14.5617 C   0  0  0  0  0  0  0  0  0  0  0  0
  -25.3064  -28.5659   18.7804 C   0  0  0  0  0  0  0  0  0  0  0  0
  -27.4589  -27.7663   20.6438 C   0  0  0  0  0  0  0  0  0  0  0  0
  -27.3078  -33.3354   16.0533 C   0  0  0  0  0  0  0  0  0  0  0  0
  -29.2253  -12.9977   17.9684 C   0  0  0  0  0  0  0  0  0  0  0  0
  -28.3720  -32.3182   16.4527 C   0  0  0  0  0  0  0  0  0  0  0  0
  -27.8652  -12.5768   18.5279 C   0  0  0  0  0  0  0  0  0  0  0  0
  -30.3169  -12.9386   19.0347 C   0  0  0  0  0  0  0  0  0  0  0  0
  -28.6589  -13.2691   20.8278 C   0  0  0  0  0  0  0  0  0  0  0  0
  -28.9580  -22.5393   20.4964 C   0  0  0  0  0  0  0  0  0  0  0  0
  -29.3333  -21.7166   18.5964 C   0  0  0  0  0  0  0  0  0  0  0  0
  -27.8876  -30.8852   16.2007 C   0  0  1  0  0  0  0  0  0  0  0  0
  -26.2678  -29.5862   19.3822 C   0  0  1  0  0  0  0  0  0  0  0  0
  -27.5152  -13.3662   19.8037 C   0  0  2  0  0  0  0  0  0  0  0  0
  -28.7193  -23.0433   19.0660 C   0  0  0  0  0  0  0  0  0  1  0  0
  -32.2549  -20.2400   19.2726 C   0  0  0  0  0  0  0  0  0  0  0  0
  -28.5114  -17.8872   22.9909 C   0  0  0  0  0  0  0  0  0  0  0  0
  -26.4334  -28.6556   27.0705 C   0  0  0  0  0  0  0  0  0  0  0  0
  -30.0725  -30.4850   21.8473 C   0  0  0  0  0  0  0  0  0  0  0  0
  -29.9561  -29.8731   24.2722 C   0  0  0  0  0  0  0  0  0  0  0  0
  -28.7186  -31.8688   23.4306 C   0  0  0  0  0  0  0  0  0  0  0  0
  -23.9034  -27.1587   24.6551 C   0  0  0  0  0  0  0  0  0  0  0  0
  -31.0368  -16.5374   22.3656 C   0  0  0  0  0  0  0  0  0  0  0  0
  -27.8818  -29.5552   22.8485 C   0  0  1  0  0  0  0  0  0  0  0  0
  -25.6779  -28.5283   25.7568 C   0  0  2  0  0  0  0  0  0  0  0  0
  -29.1479  -30.4275   23.0797 C   0  0  0  0  0  0  0  0  0  0  0  0
  -25.8126  -11.6399   20.2552 N   0  0  0  0  0  0  0  0  0  0  0  0
  -26.1867  -12.9237   20.3889 N   0  0  0  0  0  0  0  0  0  0  0  0
  -29.7533  -21.5020   19.9374 N   0  0  0  0  0  0  0  0  0  0  0  0
  -26.8798  -29.1198   20.6280 N   0  0  0  0  0  0  0  0  0  0  0  0
  -29.9235  -13.7082   20.2174 N   0  0  0  0  0  0  0  0  0  0  0  0
  -25.5031  -15.0068   21.2856 N   0  0  0  0  0  0  0  0  0  0  0  0
  -22.0997  -12.2409   22.3638 N   0  0  0  0  0  0  0  0  0  0  0  0
  -26.9724  -30.4706   17.2423 N   0  0  0  0  0  0  0  0  0  0  0  0
  -26.9744  -29.5046   23.9898 N   0  0  0  0  0  0  0  0  0  0  0  0
  -30.2998  -15.4349   21.7893 N   0  0  0  0  0  0  0  0  0  0  0  0
  -24.7292  -27.3846   25.8692 N   0  3  0  0  0  0  0  0  0  0  0  0
  -22.8590  -14.4004   22.5012 O   0  0  0  0  0  0  0  0  0  0  0  0
  -28.5497  -29.7626   18.8021 O   0  0  0  0  0  0  0  0  0  0  0  0
  -26.5883  -31.1733   21.6931 O   0  0  0  0  0  0  0  0  0  0  0  0
  -27.0249  -27.2012   24.2528 O   0  0  0  0  0  0  0  0  0  0  0  0
  -31.8065  -15.0570   20.1029 O   0  0  0  0  0  0  0  0  0  0  0  0
  -21.7550   -6.8146   21.1506 O   0  0  0  0  0  0  0  0  0  0  0  0
  -27.3405  -23.2794   18.6967 O   0  0  0  0  0  0  0  0  0  1  0  0
  -19.4962   -5.4691   25.9974 F   0  0  0  0  0  0  0  0  0  0  0  0
  -22.4577   -4.4733   22.4417 F   0  0  0  0  0  0  0  0  0  0  0  0
  1  2  1  0  0  0  0
  1  5  2  0  0  0  0
  2  6  2  0  0  0  0
  3  8  2  0  0  0  0
  3 17  1  0  0  0  0
  4  9  1  0  0  0  0
  4 17  2  0  0  0  0
  5 19  1  0  0  0  0
  6 21  1  0  0  0  0
  7 10  2  0  0  0  0
  7 20  1  0  0  0  0
  8 27  1  0  0  0  0
  9 27  2  0  0  0  0
 10 28  1  0  0  0  0
 11 12  2  0  0  0  0
 11 29  1  0  0  0  0
 12 30  1  0  0  0  0
 13 22  1  0  0  0  0
 13 28  2  0  0  0  0
 14 23  2  0  0  0  0
 14 24  1  0  0  0  0
 15 25  2  0  0  0  0
 15 26  1  0  0  0  0
 16 30  2  0  0  0  0
 16 31  1  0  0  0  0
 17 32  1  0  0  0  0
 18 32  1  0  0  0  0
 18 33  2  0  0  0  0
 18 34  1  0  0  0  0
 19 21  2  0  0  0  0
 19 39  1  0  0  0  0
 20 22  2  0  0  0  0
 20 40  1  0  0  0  0
 21 50  1  0  0  0  0
 22 41  1  0  0  0  0
 23 25  1  0  0  0  0
 23 61  1  0  0  0  0
 24 26  2  0  0  0  0
 24 54  1  0  0  0  0
 25 55  1  0  0  0  0
 26 67  1  0  0  0  0
 27 81  1  0  0  0  0
 28 82  1  0  0  0  0
 29 31  2  0  0  0  0
 29 81  1  0  0  0  0
 30 83  1  0  0  0  0
 31 84  1  0  0  0  0
 32 65  2  0  0  0  0
 33 66  1  0  0  0  0
 33 70  1  0  0  0  0
 34 71  1  0  0  0  0
 34 76  2  0  0  0  0
 35 51  1  0  0  0  0
 35 72  1  0  0  0  0
 35 77  2  0  0  0  0
 36 62  1  0  0  0  0
 36 68  1  0  0  0  0
 36 78  2  0  0  0  0
 37 63  1  0  0  0  0
 37 73  1  0  0  0  0
 37 79  2  0  0  0  0
 38 69  1  0  0  0  0
 38 74  1  0  0  0  0
 38 80  2  0  0  0  0
 39 42  1  0  0  0  0
 40 51  1  0  0  0  0
 41 68  1  0  0  0  0
 42 44  1  0  0  0  0
 43 45  1  0  0  0  0
 43 46  1  0  0  0  0
 44 50  1  0  0  0  0
 45 52  1  0  0  0  0
 46 69  1  0  0  0  0
 47 52  1  0  0  0  0
 47 69  1  0  0  0  0
 48 53  1  0  0  0  0
 48 67  1  0  0  0  0
 49 53  1  0  0  0  0
 49 67  1  0  0  0  0
 50 72  1  0  0  0  0
 51 68  1  0  0  0  0
 52 66  1  0  0  0  0
 53 82  1  0  0  0  0
 56 63  1  0  0  0  0
 57 64  1  0  0  0  0
 58 64  1  0  0  0  0
 59 64  1  0  0  0  0
 60 75  1  0  0  0  0
 61 74  1  0  0  0  0
 62 64  1  0  0  0  0
 62 73  1  0  0  0  0
 63 75  1  0  0  0  0
 65 66  1  0  0  0  0
M  CHG  1  75   1
M  ISO  4  38 100  53 101  74 100  82 101
M  END
> <Batch ID>
0028

> <Smiles>
CNC(C)C(=O)NC(C(=O)N1Cc2cc([101O:1][101CH:1]3CN(c4cc(C)c(C[100NH:0][100C:0](=O)N5CCCC(n6nc(-c7ccc(Oc8ccc(F)cc8F)cc7)c(C(N)=O)c6N)C5)cc4C)C3)ccc2CC1C(=O)NC1CCCc2ccccc21)C(C)(C)C

> <Shape>
0.287

> <Color>
0.166

> <Negative vol penalty>
0.000

$$$$

  -OEChem-04042321313D

 87 96  0     1  0  0  0  0  0999 V2000
  -27.3276  -23.9677   17.5883 C   0  0  0  0  0  0  0  0  0  0  0  0
  -26.1591  -24.3795   18.2211 C   0  0  0  0  0  0  0  0  0  0  0  0
  -23.7637  -17.9289   21.5461 C   0  0  0  0  0  0  0  0  0  0  0  0
  -22.9598  -16.0657   22.8574 C   0  0  0  0  0  0  0  0  0  0  0  0
  -28.5668  -24.3687   18.0857 C   0  0  0  0  0  0  0  0  0  0  0  0
  -26.2292  -25.1917   19.3524 C   0  0  0  0  0  0  0  0  0  0  0  0
  -22.9146  -29.0176   19.2054 C   0  0  0  0  0  0  0  0  0  0  0  0
  -24.6902  -17.0918   20.9246 C   0  0  0  0  0  0  0  0  0  0  0  0
  -23.8863  -15.2285   22.2358 C   0  0  0  0  0  0  0  0  0  0  0  0
  -21.5865  -28.7214   19.5092 C   0  0  0  0  0  0  0  0  0  0  0  0
  -24.1874  -13.6025   19.2886 C   0  0  0  0  0  0  0  0  0  0  0  0
  -23.7409  -12.3554   18.8518 C   0  0  0  0  0  0  0  0  0  0  0  0
  -21.8353  -24.3270   22.8685 C   0  0  0  0  0  0  0  0  0  0  0  0
  -21.9125  -29.5772   21.7409 C   0  0  0  0  0  0  0  0  0  0  0  0
  -20.4852  -25.2425   24.6357 C   0  0  0  0  0  0  0  0  0  0  0  0
  -25.3468  -11.2741   20.2971 C   0  0  0  0  0  0  0  0  0  0  0  0
  -22.8985  -17.4159   22.5126 C   0  0  0  0  0  0  0  0  0  0  0  0
  -20.6257  -18.5525   22.7358 C   0  0  0  0  0  0  0  0  0  0  0  0
  -28.6519  -25.1942   19.2180 C   0  0  0  0  0  0  0  0  0  0  0  0
  -23.7560  -29.5867   20.1721 C   0  0  0  0  0  0  0  0  0  0  0  0
  -27.4707  -25.6031   19.8662 C   0  0  0  0  0  0  0  0  0  0  0  0
  -22.8236  -23.8954   23.7817 C   0  0  0  0  0  0  0  0  0  0  0  0
  -23.2501  -29.8820   21.4461 C   0  0  0  0  0  0  0  0  0  0  0  0
  -21.4401  -24.8280   25.5607 C   0  0  0  0  0  0  0  0  0  0  0  0
  -22.6139  -24.1594   25.1514 C   0  0  0  0  0  0  0  0  0  0  0  0
  -20.6844  -24.9944   23.2863 C   0  0  0  0  0  0  0  0  0  0  0  0
  -24.7516  -15.7416   21.2694 C   0  0  0  0  0  0  0  0  0  0  0  0
  -21.0861  -28.9986   20.7779 C   0  0  0  0  0  0  0  0  0  0  0  0
  -25.2137  -13.6855   20.2297 C   0  0  0  0  0  0  0  0  0  0  0  0
  -24.3205  -11.1912   19.3560 C   0  0  0  0  0  0  0  0  0  0  0  0
  -25.7934  -12.5213   20.7339 C   0  0  0  0  0  0  0  0  0  0  0  0
  -21.9416  -18.2803   23.1554 C   0  0  0  0  0  0  0  0  0  0  0  0
  -20.1384  -19.4248   23.6782 C   0  0  0  0  0  0  0  0  0  0  0  0
  -19.9079  -18.0607   21.5962 C   0  0  0  0  0  0  0  0  0  0  0  0
  -26.4395  -28.6878   21.6194 C   0  0  0  0  0  0  0  0  0  0  0  0
  -26.3143  -31.6828   22.8590 C   0  0  0  0  0  0  0  0  0  0  0  0
  -24.4195  -34.3948   23.6967 C   0  0  0  0  0  0  0  0  0  0  0  0
  -23.1165  -23.2064   27.3820 C   0  0  0  0  0  0  0  0  0  0  0  0
  -30.0153  -25.5631   19.7467 C   0  0  0  0  0  0  0  0  0  0  0  0
  -25.1788  -29.9247   19.8204 C   0  0  0  0  0  0  0  0  0  0  0  0
  -23.9546  -23.0946   23.1636 C   0  0  0  0  0  0  0  0  0  0  0  0
  -24.1067  -30.5114   22.5131 C   0  0  0  0  0  0  0  0  0  0  0  0
  -29.9921  -26.7313   20.7291 C   0  0  0  0  0  0  0  0  0  0  0  0
  -25.1742  -22.6734   23.9823 C   0  0  0  0  0  0  0  0  0  0  0  0
  -26.1303  -23.8161   24.3113 C   0  0  0  0  0  0  0  0  0  0  0  0
  -25.4996  -25.0210   24.9980 C   0  0  0  0  0  0  0  0  0  0  0  0
  -20.6289  -20.6636   28.2764 C   0  0  0  0  0  0  0  0  0  0  0  0
  -28.8809  -26.5424   21.7569 C   0  0  0  0  0  0  0  0  0  0  0  0
  -20.6084  -19.7517   27.0488 C   0  0  0  0  0  0  0  0  0  0  0  0
  -24.7437  -24.6763   26.2775 C   0  0  0  0  0  0  0  0  0  0  0  0
  -22.0015  -21.2964   28.4962 C   0  0  0  0  0  0  0  0  0  0  0  0
  -22.5187  -21.0900   26.0930 C   0  0  0  0  0  0  0  0  0  0  0  0
  -27.5049  -26.5047   21.0811 C   0  0  1  0  0  0  0  0  0  0  0  0
  -26.0875  -30.0293   21.0413 C   0  0  1  0  0  0  0  0  0  0  0  0
  -21.1344  -20.4922   25.8067 C   0  0  1  0  0  0  0  0  0  0  0  0
  -21.1811  -25.2221   26.9839 C   0  0  0  0  0  0  0  0  0  0  0  0
  -24.5926  -36.6764   24.7270 C   0  0  0  0  0  0  0  0  0  0  0  0
  -26.5536  -30.4137   25.6234 C   0  0  0  0  0  0  0  0  0  0  0  0
  -25.7762  -32.5801   26.6087 C   0  0  0  0  0  0  0  0  0  0  0  0
  -27.9046  -32.4948   25.3105 C   0  0  0  0  0  0  0  0  0  0  0  0
  -23.4442  -35.7094   21.2310 C   0  0  0  0  0  0  0  0  0  0  0  0
  -18.1606  -26.9588   21.3101 C   0  0  0  0  0  0  0  0  0  0  0  0
  -18.7592  -26.4291   22.6075 C   0  0  0  0  0  0  0  0  0  0  0  0
  -19.1960  -27.6061   20.3978 C   0  0  0  0  0  0  0  0  0  1  0  0
  -25.6992  -32.3060   24.0887 C   0  0  1  0  0  0  0  0  0  0  0  0
  -24.6109  -35.8775   23.4331 C   0  0  2  0  0  0  0  0  0  0  0  0
  -26.4676  -31.9350   25.3885 C   0  0  0  0  0  0  0  0  0  0  0  0
  -22.2695  -18.9274   24.2769 N   0  0  0  0  0  0  0  0  0  0  0  0
  -21.1526  -19.6149   24.5700 N   0  0  0  0  0  0  0  0  0  0  0  0
  -23.5601  -23.8030   26.1698 N   0  0  0  0  0  0  0  0  0  0  0  0
  -25.4928  -30.8175   22.1227 N   0  0  0  0  0  0  0  0  0  0  0  0
  -22.4821  -21.9536   27.2798 N   0  0  0  0  0  0  0  0  0  0  0  0
  -18.9455  -20.0402   23.8227 N   0  0  0  0  0  0  0  0  0  0  0  0
  -20.5582  -17.1714   20.7298 N   0  0  0  0  0  0  0  0  0  0  0  0
  -19.7256  -25.4088   22.3397 N   0  0  0  0  0  0  0  0  0  0  0  0
  -27.0767  -27.8422   20.7315 N   0  0  0  0  0  0  0  0  0  0  0  0
  -25.6256  -33.7393   23.8266 N   0  0  0  0  0  0  0  0  0  0  0  0
  -23.5267  -36.3905   22.5486 N   0  3  0  0  0  0  0  0  0  0  0  0
  -18.7305  -18.4127   21.3444 O   0  0  0  0  0  0  0  0  0  0  0  0
  -26.1554  -28.4389   22.7852 O   0  0  0  0  0  0  0  0  0  0  0  0
  -27.4783  -31.9593   22.5587 O   0  0  0  0  0  0  0  0  0  0  0  0
  -23.3109  -33.8712   23.7826 O   0  0  0  0  0  0  0  0  0  0  0  0
  -23.2760  -23.7622   28.4764 O   0  0  0  0  0  0  0  0  0  0  0  0
  -25.6554  -14.9243   20.6629 O   0  0  0  0  0  0  0  0  0  0  0  0
  -19.7811  -28.7079   21.0794 O   0  0  0  0  0  0  0  0  0  1  0  0
  -23.8905   -9.9936   18.9376 F   0  0  0  0  0  0  0  0  0  0  0  0
  -26.7789  -12.5946   21.6390 F   0  0  0  0  0  0  0  0  0  0  0  0
  1  2  1  0  0  0  0
  1  5  2  0  0  0  0
  2  6  2  0  0  0  0
  3  8  2  0  0  0  0
  3 17  1  0  0  0  0
  4  9  1  0  0  0  0
  4 17  2  0  0  0  0
  5 19  1  0  0  0  0
  6 21  1  0  0  0  0
  7 10  2  0  0  0  0
  7 20  1  0  0  0  0
  8 27  1  0  0  0  0
  9 27  2  0  0  0  0
 10 28  1  0  0  0  0
 11 12  2  0  0  0  0
 11 29  1  0  0  0  0
 12 30  1  0  0  0  0
 13 22  1  0  0  0  0
 13 26  2  0  0  0  0
 14 23  1  0  0  0  0
 14 28  2  0  0  0  0
 15 24  2  0  0  0  0
 15 26  1  0  0  0  0
 16 30  2  0  0  0  0
 16 31  1  0  0  0  0
 17 32  1  0  0  0  0
 18 32  1  0  0  0  0
 18 33  2  0  0  0  0
 18 34  1  0  0  0  0
 19 21  2  0  0  0  0
 19 39  1  0  0  0  0
 20 23  2  0  0  0  0
 20 40  1  0  0  0  0
 21 53  1  0  0  0  0
 22 25  2  0  0  0  0
 22 41  1  0  0  0  0
 23 42  1  0  0  0  0
 24 25  1  0  0  0  0
 24 56  1  0  0  0  0
 25 70  1  0  0  0  0
 26 75  1  0  0  0  0
 27 84  1  0  0  0  0
 28 85  1  0  0  0  0
 29 31  2  0  0  0  0
 29 84  1  0  0  0  0
 30 86  1  0  0  0  0
 31 87  1  0  0  0  0
 32 68  2  0  0  0  0
 33 69  1  0  0  0  0
 33 73  1  0  0  0  0
 34 74  1  0  0  0  0
 34 79  2  0  0  0  0
 35 54  1  0  0  0  0
 35 76  1  0  0  0  0
 35 80  2  0  0  0  0
 36 65  1  0  0  0  0
 36 71  1  0  0  0  0
 36 81  2  0  0  0  0
 37 66  1  0  0  0  0
 37 77  1  0  0  0  0
 37 82  2  0  0  0  0
 38 70  1  0  0  0  0
 38 72  1  0  0  0  0
 38 83  2  0  0  0  0
 39 43  1  0  0  0  0
 40 54  1  0  0  0  0
 41 44  1  0  0  0  0
 42 71  1  0  0  0  0
 43 48  1  0  0  0  0
 44 45  1  0  0  0  0
 45 46  1  0  0  0  0
 46 50  1  0  0  0  0
 47 49  1  0  0  0  0
 47 51  1  0  0  0  0
 48 53  1  0  0  0  0
 49 55  1  0  0  0  0
 50 70  1  0  0  0  0
 51 72  1  0  0  0  0
 52 55  1  0  0  0  0
 52 72  1  0  0  0  0
 53 76  1  0  0  0  0
 54 71  1  0  0  0  0
 55 69  1  0  0  0  0
 57 66  1  0  0  0  0
 58 67  1  0  0  0  0
 59 67  1  0  0  0  0
 60 67  1  0  0  0  0
 61 78  1  0  0  0  0
 62 63  1  0  0  0  0
 62 64  1  0  0  0  0
 63 75  1  0  0  0  0
 64 85  1  0  0  0  0
 65 67  1  0  0  0  0
 65 77  1  0  0  0  0
 66 78  1  0  0  0  0
 68 69  1  0  0  0  0
M  CHG  1  78   1
M  ISO  4  38 100  64 101  70 100  85 101
M  END
> <Batch ID>
0028

> <Smiles>
CNC(C)C(=O)NC(C(=O)N1Cc2cc([101O:1][101CH2:1]CCNc3cc(C)c4c(c3)CCCCC[100N:0]4[100C:0](=O)N3CCCC(n4nc(-c5ccc(Oc6ccc(F)cc6F)cc5)c(C(N)=O)c4N)C3)ccc2CC1C(=O)NC1CCCc2ccccc21)C(C)(C)C

> <Shape>
0.227

> <Color>
0.075

> <Negative vol penalty>
0.000

$$$$

  -OEChem-04042321313D

 89 98  0     1  0  0  0  0  0999 V2000
  -32.3194  -19.9655   27.5618 C   0  0  0  0  0  0  0  0  0  0  0  0
  -30.6105  -32.3188   19.0072 C   0  0  0  0  0  0  0  0  0  0  0  0
  -31.0719  -31.3427   19.8845 C   0  0  0  0  0  0  0  0  0  0  0  0
  -22.6972  -10.1815   20.1470 C   0  0  0  0  0  0  0  0  0  0  0  0
  -24.3513   -9.4320   21.7404 C   0  0  0  0  0  0  0  0  0  0  0  0
  -29.4722  -32.0813   18.2380 C   0  0  0  0  0  0  0  0  0  0  0  0
  -30.3946  -30.1288   19.9939 C   0  0  0  0  0  0  0  0  0  0  0  0
  -32.8591  -24.6174   21.0216 C   0  0  0  0  0  0  0  0  0  0  0  0
  -21.9815   -8.9989   20.3336 C   0  0  0  0  0  0  0  0  0  0  0  0
  -23.6356   -8.2493   21.9270 C   0  0  0  0  0  0  0  0  0  0  0  0
  -33.0000  -23.8540   22.1797 C   0  0  0  0  0  0  0  0  0  0  0  0
  -20.8928   -7.2412   23.6244 C   0  0  0  0  0  0  0  0  0  0  0  0
  -20.7063   -6.7982   24.9338 C   0  0  0  0  0  0  0  0  0  0  0  0
  -32.0274  -16.6104   22.6799 C   0  0  0  0  0  0  0  0  0  0  0  0
  -30.9861  -22.6484   21.6228 C   0  0  0  0  0  0  0  0  0  0  0  0
  -21.8689   -4.7472   24.4055 C   0  0  0  0  0  0  0  0  0  0  0  0
  -23.8821  -10.3980   20.8503 C   0  0  0  0  0  0  0  0  0  0  0  0
  -31.8453  -18.2416   24.4475 C   0  0  0  0  0  0  0  0  0  0  0  0
  -24.1719  -12.9322   20.8924 C   0  0  0  0  0  0  0  0  0  0  0  0
  -28.7861  -30.8601   18.3310 C   0  0  0  0  0  0  0  0  0  0  0  0
  -31.7729  -24.4090   20.1595 C   0  0  0  0  0  0  0  0  0  0  0  0
  -29.2452  -29.8752   19.2263 C   0  0  0  0  0  0  0  0  0  0  0  0
  -32.6533  -17.4454   23.6242 C   0  0  0  0  0  0  0  0  0  0  0  0
  -30.8352  -23.4087   20.4530 C   0  0  0  0  0  0  0  0  0  0  0  0
  -30.6384  -16.5753   22.5513 C   0  0  0  0  0  0  0  0  0  0  0  0
  -22.4507   -8.0328   21.2236 C   0  0  0  0  0  0  0  0  0  0  0  0
  -32.0619  -22.8713   22.4819 C   0  0  0  0  0  0  0  0  0  0  0  0
  -21.5674   -6.4372   22.7055 C   0  0  0  0  0  0  0  0  0  0  0  0
  -21.1943   -5.5512   25.3244 C   0  0  0  0  0  0  0  0  0  0  0  0
  -22.0554   -5.1903   23.0961 C   0  0  0  0  0  0  0  0  0  0  0  0
  -30.4462  -18.1992   24.3179 C   0  0  0  0  0  0  0  0  0  0  0  0
  -29.8475  -17.3702   23.3715 C   0  0  0  0  0  0  0  0  0  0  0  0
  -24.6222  -11.6192   20.6576 C   0  0  0  0  0  0  0  0  0  0  0  0
  -25.2413  -13.7268   20.5586 C   0  0  0  0  0  0  0  0  0  0  0  0
  -32.3922  -19.1654   25.4810 C   0  0  0  0  0  0  0  0  0  0  0  0
  -22.9006  -13.3924   21.3696 C   0  0  0  0  0  0  0  0  0  0  0  0
  -29.3325  -26.1819   19.1571 C   0  0  0  0  0  0  0  0  0  0  0  0
  -28.7665  -23.6246   17.2433 C   0  0  0  0  0  0  0  0  0  0  0  0
  -28.8238  -20.0314   17.5643 C   0  0  0  0  0  0  0  0  0  0  0  0
  -30.6884  -14.8727   20.6953 C   0  0  0  0  0  0  0  0  0  0  0  0
  -27.5330  -30.6674   17.5140 C   0  0  0  0  0  0  0  0  0  0  0  0
  -31.6498  -25.2227   18.9005 C   0  0  0  0  0  0  0  0  0  0  0  0
  -34.1520  -17.3929   23.7416 C   0  0  0  0  0  0  0  0  0  0  0  0
  -29.6621  -23.1317   19.5499 C   0  0  0  0  0  0  0  0  0  0  0  0
  -27.0892  -29.2102   17.4140 C   0  0  0  0  0  0  0  0  0  0  0  0
  -34.8156  -18.7518   23.5630 C   0  0  0  0  0  0  0  0  0  0  0  0
  -29.5720  -12.5984   18.1936 C   0  0  0  0  0  0  0  0  0  0  0  0
  -27.1279  -28.5450   18.7862 C   0  0  0  0  0  0  0  0  0  0  0  0
  -28.1477  -12.2489   18.6309 C   0  0  0  0  0  0  0  0  0  0  0  0
  -34.7617  -19.6019   24.8220 C   0  0  0  0  0  0  0  0  0  0  0  0
  -30.5075  -12.7662   19.3896 C   0  0  0  0  0  0  0  0  0  0  0  0
  -28.6161  -13.3574   20.8533 C   0  0  0  0  0  0  0  0  0  0  0  0
  -28.5520  -28.5361   19.3549 C   0  0  1  0  0  0  0  0  0  0  0  0
  -30.2245  -25.2736   18.3589 C   0  0  1  0  0  0  0  0  0  0  0  0
  -27.6224  -13.2423   19.6859 C   0  0  2  0  0  0  0  0  0  0  0  0
  -29.2117  -18.2458   15.8443 C   0  0  0  0  0  0  0  0  0  0  0  0
  -25.7237  -23.5828   17.0217 C   0  0  0  0  0  0  0  0  0  0  0  0
  -25.8456  -21.0945   16.7727 C   0  0  0  0  0  0  0  0  0  0  0  0
  -26.9254  -22.5704   15.0760 C   0  0  0  0  0  0  0  0  0  0  0  0
  -31.0367  -18.8425   19.1290 C   0  0  0  0  0  0  0  0  0  0  0  0
  -33.3343  -21.4401   25.6186 C   0  0  0  0  0  0  0  0  0  0  0  0
  -33.3231  -22.4027   24.4430 C   0  0  0  0  0  0  0  0  0  1  0  0
  -27.9659  -22.3511   17.3697 C   0  0  1  0  0  0  0  0  0  0  0  0
  -29.8361  -19.0804   16.9517 C   0  0  2  0  0  0  0  0  0  0  0  0
  -26.6264  -22.4125   16.5828 C   0  0  0  0  0  0  0  0  0  0  0  0
  -32.7440  -20.6846   28.3679 N   0  0  0  0  0  0  0  0  0  0  0  0
  -25.8796  -11.5778   20.2091 N   0  0  0  0  0  0  0  0  0  0  0  0
  -31.8162  -19.1316   26.6493 N   0  0  0  0  0  0  0  0  0  0  0  0
  -26.2285  -12.8747   20.1593 N   0  0  0  0  0  0  0  0  0  0  0  0
  -33.4080  -20.0576   25.1430 N   0  0  0  0  0  0  0  0  0  0  0  0
  -29.5820  -23.9581   18.3340 N   0  0  0  0  0  0  0  0  0  0  0  0
  -29.9470  -13.7246   20.3446 N   0  0  0  0  0  0  0  0  0  0  0  0
  -25.4240  -15.0643   20.5704 N   0  0  0  0  0  0  0  0  0  0  0  0
  -22.7195  -13.5406   22.7515 N   0  0  0  0  0  0  0  0  0  0  0  0
  -30.0404  -15.7277   21.5861 N   0  0  0  0  0  0  0  0  0  0  0  0
  -29.3397  -27.4957   18.7291 N   0  0  0  0  0  0  0  0  0  0  0  0
  -28.8526  -21.2688   16.9564 N   0  0  0  0  0  0  0  0  0  0  0  0
  -30.3734  -18.1565   17.9903 N   0  3  0  0  0  0  0  0  0  0  0  0
  -21.9480  -13.6485   20.5947 O   0  0  0  0  0  0  0  0  0  0  0  0
  -28.6845  -25.7242   20.0910 O   0  0  0  0  0  0  0  0  0  0  0  0
  -28.6773  -24.2951   16.2117 O   0  0  0  0  0  0  0  0  0  0  0  0
  -28.0792  -19.7079   18.4870 O   0  0  0  0  0  0  0  0  0  0  0  0
  -31.8039  -15.0956   20.2179 O   0  0  0  0  0  0  0  0  0  0  0  0
  -21.7525   -6.8788   21.4061 O   0  0  0  0  0  0  0  0  0  0  0  0
  -32.1966  -22.1253   23.6120 O   0  0  0  0  0  0  0  0  0  1  0  0
  -21.0164   -5.1265   26.5822 F   0  0  0  0  0  0  0  0  0  0  0  0
  -22.7053   -4.4140   22.2181 F   0  0  0  0  0  0  0  0  0  0  0  0
  -29.6591  -18.9772   25.0806 F   0  0  0  0  0  0  0  0  0  0  0  0
  -28.5129  -17.3540   23.2582 F   0  0  0  0  0  0  0  0  0  0  0  0
  1 66  3  0  0  0  0
  1 68  1  0  0  0  0
  2  3  1  0  0  0  0
  2  6  2  0  0  0  0
  3  7  2  0  0  0  0
  4  9  2  0  0  0  0
  4 17  1  0  0  0  0
  5 10  1  0  0  0  0
  5 17  2  0  0  0  0
  6 20  1  0  0  0  0
  7 22  1  0  0  0  0
  8 11  2  0  0  0  0
  8 21  1  0  0  0  0
  9 26  1  0  0  0  0
 10 26  2  0  0  0  0
 11 27  1  0  0  0  0
 12 13  2  0  0  0  0
 12 28  1  0  0  0  0
 13 29  1  0  0  0  0
 14 23  1  0  0  0  0
 14 25  2  0  0  0  0
 15 24  1  0  0  0  0
 15 27  2  0  0  0  0
 16 29  2  0  0  0  0
 16 30  1  0  0  0  0
 17 33  1  0  0  0  0
 18 23  2  0  0  0  0
 18 31  1  0  0  0  0
 18 35  1  0  0  0  0
 19 33  1  0  0  0  0
 19 34  2  0  0  0  0
 19 36  1  0  0  0  0
 20 22  2  0  0  0  0
 20 41  1  0  0  0  0
 21 24  2  0  0  0  0
 21 42  1  0  0  0  0
 22 53  1  0  0  0  0
 23 43  1  0  0  0  0
 24 44  1  0  0  0  0
 25 32  1  0  0  0  0
 25 75  1  0  0  0  0
 26 84  1  0  0  0  0
 27 85  1  0  0  0  0
 28 30  2  0  0  0  0
 28 84  1  0  0  0  0
 29 86  1  0  0  0  0
 30 87  1  0  0  0  0
 31 32  2  0  0  0  0
 31 88  1  0  0  0  0
 32 89  1  0  0  0  0
 33 67  2  0  0  0  0
 34 69  1  0  0  0  0
 34 73  1  0  0  0  0
 35 68  2  0  0  0  0
 35 70  1  0  0  0  0
 36 74  1  0  0  0  0
 36 79  2  0  0  0  0
 37 54  1  0  0  0  0
 37 76  1  0  0  0  0
 37 80  2  0  0  0  0
 38 63  1  0  0  0  0
 38 71  1  0  0  0  0
 38 81  2  0  0  0  0
 39 64  1  0  0  0  0
 39 77  1  0  0  0  0
 39 82  2  0  0  0  0
 40 72  1  0  0  0  0
 40 75  1  0  0  0  0
 40 83  2  0  0  0  0
 41 45  1  0  0  0  0
 42 54  1  0  0  0  0
 43 46  1  0  0  0  0
 44 71  1  0  0  0  0
 45 48  1  0  0  0  0
 46 50  1  0  0  0  0
 47 49  1  0  0  0  0
 47 51  1  0  0  0  0
 48 53  1  0  0  0  0
 49 55  1  0  0  0  0
 50 70  1  0  0  0  0
 51 72  1  0  0  0  0
 52 55  1  0  0  0  0
 52 72  1  0  0  0  0
 53 76  1  0  0  0  0
 54 71  1  0  0  0  0
 55 69  1  0  0  0  0
 56 64  1  0  0  0  0
 57 65  1  0  0  0  0
 58 65  1  0  0  0  0
 59 65  1  0  0  0  0
 60 78  1  0  0  0  0
 61 62  1  0  0  0  0
 61 70  1  0  0  0  0
 62 85  1  0  0  0  0
 63 65  1  0  0  0  0
 63 77  1  0  0  0  0
 64 78  1  0  0  0  0
 67 69  1  0  0  0  0
M  CHG  1  78   1
M  ISO  4  40 100  62 101  75 100  85 101
M  END
> <Batch ID>
0028

> <Smiles>
CNC(C)C(=O)NC(C(=O)N1Cc2cc([101O:1][101CH2:1]CN3CCCc4cc([100NH:0][100C:0](=O)N5CCCC(n6nc(-c7ccc(Oc8ccc(F)cc8F)cc7)c(C(N)=O)c6N)C5)c(F)c(F)c4C3=NC#N)ccc2CC1C(=O)NC1CCCc2ccccc21)C(C)(C)C

> <Shape>
0.260

> <Color>
0.179

> <Negative vol penalty>
0.000

$$$$

  -OEChem-04042321313D

 84 93  0     1  0  0  0  0  0999 V2000
  -21.8251  -24.9907   13.6116 C   0  0  0  0  0  0  0  0  0  0  0  0
  -21.9240  -23.6033   13.6397 C   0  0  0  0  0  0  0  0  0  0  0  0
  -26.4273  -10.9512   21.6001 C   0  0  0  0  0  0  0  0  0  0  0  0
  -27.8026  -11.0002   21.3706 C   0  0  0  0  0  0  0  0  0  0  0  0
  -29.7417  -12.0742   20.3271 C   0  0  0  0  0  0  0  0  0  0  0  0
  -28.5337  -26.4517   19.3214 C   0  0  0  0  0  0  0  0  0  0  0  0
  -28.9480  -25.4904   21.4988 C   0  0  0  0  0  0  0  0  0  0  0  0
  -22.4409  -25.7526   14.6037 C   0  0  0  0  0  0  0  0  0  0  0  0
  -22.6398  -22.9770   14.6594 C   0  0  0  0  0  0  0  0  0  0  0  0
  -22.6702  -16.9925   18.5965 C   0  0  0  0  0  0  0  0  0  0  0  0
  -25.5916  -11.9085   21.0325 C   0  0  0  0  0  0  0  0  0  0  0  0
  -30.2780  -13.0841   19.5277 C   0  0  0  0  0  0  0  0  0  0  0  0
  -27.9447  -27.5632   19.9241 C   0  0  0  0  0  0  0  0  0  0  0  0
  -28.3589  -26.6019   22.1016 C   0  0  0  0  0  0  0  0  0  0  0  0
  -23.5226  -15.9557   18.9736 C   0  0  0  0  0  0  0  0  0  0  0  0
  -24.9747  -28.3508   21.3323 C   0  0  0  0  0  0  0  0  0  0  0  0
  -23.7733  -28.8163   20.7978 C   0  0  0  0  0  0  0  0  0  0  0  0
  -24.4784  -17.3696   20.6784 C   0  0  0  0  0  0  0  0  0  0  0  0
  -24.8039  -30.9537   20.3434 C   0  0  0  0  0  0  0  0  0  0  0  0
  -28.3597  -12.0096   20.5687 C   0  0  0  0  0  0  0  0  0  0  0  0
  -27.5099  -12.9830   19.9915 C   0  0  0  0  0  0  0  0  0  0  0  0
  -29.0353  -25.4153   20.1087 C   0  0  0  0  0  0  0  0  0  0  0  0
  -31.0011  -24.0990   19.1545 C   0  0  0  0  0  0  0  0  0  0  0  0
  -23.1564  -25.1348   15.6415 C   0  0  0  0  0  0  0  0  0  0  0  0
  -22.7231  -18.2313   19.2514 C   0  0  0  0  0  0  0  0  0  0  0  0
  -23.2668  -23.7314   15.6656 C   0  0  0  0  0  0  0  0  0  0  0  0
  -23.6238  -18.4197   20.3094 C   0  0  0  0  0  0  0  0  0  0  0  0
  -26.1280  -12.9184   20.2333 C   0  0  0  0  0  0  0  0  0  0  0  0
  -29.4423  -14.0413   18.9601 C   0  0  0  0  0  0  0  0  0  0  0  0
  -27.8573  -27.6383   21.3142 C   0  0  0  0  0  0  0  0  0  0  0  0
  -24.4289  -16.1451   20.0128 C   0  0  0  0  0  0  0  0  0  0  0  0
  -26.0906  -29.1867   21.3724 C   0  0  0  0  0  0  0  0  0  0  0  0
  -23.6879  -30.1178   20.3033 C   0  0  0  0  0  0  0  0  0  0  0  0
  -26.0052  -30.4882   20.8779 C   0  0  0  0  0  0  0  0  0  0  0  0
  -28.0671  -13.9924   19.1896 C   0  0  0  0  0  0  0  0  0  0  0  0
  -29.6434  -24.2667   19.4867 C   0  0  0  0  0  0  0  0  0  0  0  0
  -31.0648  -22.8480   18.5911 C   0  0  0  0  0  0  0  0  0  0  0  0
  -32.1060  -24.9939   19.3389 C   0  0  0  0  0  0  0  0  0  0  0  0
  -23.3865  -21.2108   18.3647 C   0  0  0  0  0  0  0  0  0  0  0  0
  -22.4802  -21.9022   21.4016 C   0  0  0  0  0  0  0  0  0  0  0  0
  -22.0662  -20.8331   24.6160 C   0  0  0  0  0  0  0  0  0  0  0  0
  -29.8043  -17.5234   18.6753 C   0  0  0  0  0  0  0  0  0  0  0  0
  -23.8448  -26.0024   16.6652 C   0  0  0  0  0  0  0  0  0  0  0  0
  -21.7784  -19.3309   18.8503 C   0  0  0  0  0  0  0  0  0  0  0  0
  -23.7062  -19.7240   21.0580 C   0  0  0  0  0  0  0  0  0  0  0  0
  -24.2694  -25.2437   17.9200 C   0  0  0  0  0  0  0  0  0  0  0  0
  -27.3832  -19.7107   17.1096 C   0  0  0  0  0  0  0  0  0  0  0  0
  -24.9611  -23.9368   17.5452 C   0  0  0  0  0  0  0  0  0  0  0  0
  -27.8748  -21.0853   17.5667 C   0  0  0  0  0  0  0  0  0  0  0  0
  -27.5535  -18.6684   18.2108 C   0  0  0  0  0  0  0  0  0  0  0  0
  -29.4367  -19.9194   19.1918 C   0  0  0  0  0  0  0  0  0  0  0  0
  -24.0137  -23.0140   16.7691 C   0  0  1  0  0  0  0  0  0  0  0  0
  -22.2739  -20.7183   19.2463 C   0  0  1  0  0  0  0  0  0  0  0  0
  -29.3123  -21.0125   18.1149 C   0  0  2  0  0  0  0  0  0  0  0  0
  -21.3451  -21.6359   26.8816 C   0  0  0  0  0  0  0  0  0  0  0  0
  -25.1458  -23.3489   21.7347 C   0  0  0  0  0  0  0  0  0  0  0  0
  -24.7885  -23.2907   24.2120 C   0  0  0  0  0  0  0  0  0  0  0  0
  -23.1866  -24.5247   22.7512 C   0  0  0  0  0  0  0  0  0  0  0  0
  -19.8377  -18.8886   24.7238 C   0  0  0  0  0  0  0  0  0  0  0  0
  -30.0231  -15.1180   18.1067 C   0  0  0  0  0  0  0  0  0  0  0  0
  -25.1547  -13.9076   19.6626 C   0  0  0  0  0  0  0  0  0  1  0  0
  -23.1860  -21.9965   22.7327 C   0  0  1  0  0  0  0  0  0  0  0  0
  -20.9054  -20.9765   25.5837 C   0  0  2  0  0  0  0  0  0  0  0  0
  -24.0768  -23.2661   22.8425 C   0  0  0  0  0  0  0  0  0  0  0  0
  -28.8983  -23.2071   19.1612 N   0  0  0  0  0  0  0  0  0  0  0  0
  -29.7909  -22.3615   18.6186 N   0  0  0  0  0  0  0  0  0  0  0  0
  -22.7660  -20.7707   20.6244 N   0  0  0  0  0  0  0  0  0  0  0  0
  -28.9475  -18.6367   18.6755 N   0  0  0  0  0  0  0  0  0  0  0  0
  -32.0856  -22.1277   18.0797 N   0  0  0  0  0  0  0  0  0  0  0  0
  -31.8647  -26.2397   19.9340 N   0  0  0  0  0  0  0  0  0  0  0  0
  -23.0854  -22.3679   17.6720 N   0  0  0  0  0  0  0  0  0  0  0  0
  -22.1472  -21.9054   23.7530 N   0  0  0  0  0  0  0  0  0  0  0  0
  -29.2618  -16.3454   18.1765 N   0  0  0  0  0  0  0  0  0  0  0  0
  -20.3319  -19.6394   25.9066 N   0  3  0  0  0  0  0  0  0  0  0  0
  -33.2699  -24.7042   18.9715 O   0  0  0  0  0  0  0  0  0  0  0  0
  -24.4408  -20.5879   18.3176 O   0  0  0  0  0  0  0  0  0  0  0  0
  -21.6984  -22.7957   21.0670 O   0  0  0  0  0  0  0  0  0  0  0  0
  -22.8274  -19.8682   24.6273 O   0  0  0  0  0  0  0  0  0  0  0  0
  -30.9691  -17.5765   19.0844 O   0  0  0  0  0  0  0  0  0  0  0  0
  -27.2828  -28.7228   21.9027 O   0  0  0  0  0  0  0  0  0  0  0  0
  -25.2625  -15.1350   20.3825 O   0  0  0  0  0  0  0  0  0  1  0  0
  -22.5347  -30.5642   19.7887 F   0  0  0  0  0  0  0  0  0  0  0  0
  -27.0742  -31.2955   20.9126 F   0  0  0  0  0  0  0  0  0  0  0  0
  -27.2967  -14.9344   18.6229 F   0  0  0  0  0  0  0  0  0  0  0  0
  1  2  1  0  0  0  0
  1  8  2  0  0  0  0
  2  9  2  0  0  0  0
  3  4  1  0  0  0  0
  3 11  2  0  0  0  0
  4 20  2  0  0  0  0
  5 12  2  0  0  0  0
  5 20  1  0  0  0  0
  6 13  2  0  0  0  0
  6 22  1  0  0  0  0
  7 14  1  0  0  0  0
  7 22  2  0  0  0  0
  8 24  1  0  0  0  0
  9 26  1  0  0  0  0
 10 15  2  0  0  0  0
 10 25  1  0  0  0  0
 11 28  1  0  0  0  0
 12 29  1  0  0  0  0
 13 30  1  0  0  0  0
 14 30  2  0  0  0  0
 15 31  1  0  0  0  0
 16 17  2  0  0  0  0
 16 32  1  0  0  0  0
 17 33  1  0  0  0  0
 18 27  1  0  0  0  0
 18 31  2  0  0  0  0
 19 33  2  0  0  0  0
 19 34  1  0  0  0  0
 20 21  1  0  0  0  0
 21 28  2  0  0  0  0
 21 35  1  0  0  0  0
 22 36  1  0  0  0  0
 23 36  1  0  0  0  0
 23 37  2  0  0  0  0
 23 38  1  0  0  0  0
 24 26  2  0  0  0  0
 24 43  1  0  0  0  0
 25 27  2  0  0  0  0
 25 44  1  0  0  0  0
 26 52  1  0  0  0  0
 27 45  1  0  0  0  0
 28 61  1  0  0  0  0
 29 35  2  0  0  0  0
 29 60  1  0  0  0  0
 30 80  1  0  0  0  0
 31 81  1  0  0  0  0
 32 34  2  0  0  0  0
 32 80  1  0  0  0  0
 33 82  1  0  0  0  0
 34 83  1  0  0  0  0
 35 84  1  0  0  0  0
 36 65  2  0  0  0  0
 37 66  1  0  0  0  0
 37 69  1  0  0  0  0
 38 70  1  0  0  0  0
 38 75  2  0  0  0  0
 39 53  1  0  0  0  0
 39 71  1  0  0  0  0
 39 76  2  0  0  0  0
 40 62  1  0  0  0  0
 40 67  1  0  0  0  0
 40 77  2  0  0  0  0
 41 63  1  0  0  0  0
 41 72  1  0  0  0  0
 41 78  2  0  0  0  0
 42 68  1  0  0  0  0
 42 73  1  0  0  0  0
 42 79  2  0  0  0  0
 43 46  1  0  0  0  0
 44 53  1  0  0  0  0
 45 67  1  0  0  0  0
 46 48  1  0  0  0  0
 47 49  1  0  0  0  0
 47 50  1  0  0  0  0
 48 52  1  0  0  0  0
 49 54  1  0  0  0  0
 50 68  1  0  0  0  0
 51 54  1  0  0  0  0
 51 68  1  0  0  0  0
 52 71  1  0  0  0  0
 53 67  1  0  0  0  0
 54 66  1  0  0  0  0
 55 63  1  0  0  0  0
 56 64  1  0  0  0  0
 57 64  1  0  0  0  0
 58 64  1  0  0  0  0
 59 74  1  0  0  0  0
 60 73  1  0  0  0  0
 61 81  1  0  0  0  0
 62 64  1  0  0  0  0
 62 72  1  0  0  0  0
 63 74  1  0  0  0  0
 65 66  1  0  0  0  0
M  CHG  1  74   1
M  ISO  4  42 100  61 101  73 100  81 101
M  END
> <Batch ID>
0028

> <Smiles>
CNC(C)C(=O)NC(C(=O)N1Cc2cc([101O:1][101CH2:1]c3cccc4ccc(C[100NH:0][100C:0](=O)N5CCCC(n6nc(-c7ccc(Oc8ccc(F)cc8F)cc7)c(C(N)=O)c6N)C5)c(F)c34)ccc2CC1C(=O)NC1CCCc2ccccc21)C(C)(C)C

> <Shape>
0.190

> <Color>
0.075

> <Negative vol penalty>
0.000

$$$$

  -OEChem-04042321313D

 87 96  0     1  0  0  0  0  0999 V2000
  -28.8664  -23.2679   15.2152 C   0  0  0  0  0  0  0  0  0  0  0  0
  -27.8411  -23.7053   16.0476 C   0  0  0  0  0  0  0  0  0  0  0  0
  -25.9478  -13.1564   19.1655 C   0  0  0  0  0  0  0  0  0  0  0  0
  -24.3260  -13.5337   20.9161 C   0  0  0  0  0  0  0  0  0  0  0  0
  -30.1284  -23.0034   15.7455 C   0  0  0  0  0  0  0  0  0  0  0  0
  -28.0770  -23.8774   17.4111 C   0  0  0  0  0  0  0  0  0  0  0  0
  -26.1418  -28.2075   19.1861 C   0  0  0  0  0  0  0  0  0  0  0  0
  -18.9606  -29.2247   22.2839 C   0  0  0  0  0  0  0  0  0  0  0  0
  -26.1228  -11.8460   19.6101 C   0  0  0  0  0  0  0  0  0  0  0  0
  -24.5010  -12.2233   21.3607 C   0  0  0  0  0  0  0  0  0  0  0  0
  -24.7690  -28.2399   19.4269 C   0  0  0  0  0  0  0  0  0  0  0  0
  -23.4749   -9.1316   20.4612 C   0  0  0  0  0  0  0  0  0  0  0  0
  -22.3309   -8.3939   20.7657 C   0  0  0  0  0  0  0  0  0  0  0  0
  -18.2375  -28.0446   22.4568 C   0  0  0  0  0  0  0  0  0  0  0  0
  -25.1792  -27.8902   21.7782 C   0  0  0  0  0  0  0  0  0  0  0  0
  -23.1072   -8.1278   23.0381 C   0  0  0  0  0  0  0  0  0  0  0  0
  -25.0494  -14.0004   19.8186 C   0  0  0  0  0  0  0  0  0  0  0  0
  -23.9422  -15.8114   18.4037 C   0  0  0  0  0  0  0  0  0  0  0  0
  -30.3825  -23.1816   17.1145 C   0  0  0  0  0  0  0  0  0  0  0  0
  -27.0447  -28.0050   20.2398 C   0  0  0  0  0  0  0  0  0  0  0  0
  -29.3433  -23.6138   17.9604 C   0  0  0  0  0  0  0  0  0  0  0  0
  -26.5632  -27.8583   21.5485 C   0  0  0  0  0  0  0  0  0  0  0  0
  -20.3542  -29.1883   22.2370 C   0  0  0  0  0  0  0  0  0  0  0  0
  -21.0247  -27.9717   22.3632 C   0  0  0  0  0  0  0  0  0  0  0  0
  -20.3016  -26.7915   22.5361 C   0  0  0  0  0  0  0  0  0  0  0  0
  -25.3995  -11.3794   20.7077 C   0  0  0  0  0  0  0  0  0  0  0  0
  -24.2873  -28.0783   20.7227 C   0  0  0  0  0  0  0  0  0  0  0  0
  -24.4351   -9.3674   21.4452 C   0  0  0  0  0  0  0  0  0  0  0  0
  -22.1470   -7.8920   22.0541 C   0  0  0  0  0  0  0  0  0  0  0  0
  -24.2512   -8.8655   22.7336 C   0  0  0  0  0  0  0  0  0  0  0  0
  -18.9080  -26.8280   22.5830 C   0  0  0  0  0  0  0  0  0  0  0  0
  -24.8685  -15.3543   19.3601 C   0  0  0  0  0  0  0  0  0  0  0  0
  -24.1696  -17.1636   18.3242 C   0  0  0  0  0  0  0  0  0  0  0  0
  -22.9635  -15.0792   17.6542 C   0  0  0  0  0  0  0  0  0  0  0  0
  -29.1988  -25.7785   20.9514 C   0  0  0  0  0  0  0  0  0  0  0  0
  -29.9226  -27.8081   23.3761 C   0  0  0  0  0  0  0  0  0  0  0  0
  -28.9117  -30.3259   25.4463 C   0  0  0  0  0  0  0  0  0  0  0  0
  -25.1128  -22.0920   20.7669 C   0  0  0  0  0  0  0  0  0  0  0  0
  -31.7499  -22.8376   17.6499 C   0  0  0  0  0  0  0  0  0  0  0  0
  -28.5239  -27.9993   19.9673 C   0  0  0  0  0  0  0  0  0  0  0  0
  -27.4918  -27.6584   22.7174 C   0  0  0  0  0  0  0  0  0  0  0  0
  -32.0195  -23.4042   19.0415 C   0  0  0  0  0  0  0  0  0  0  0  0
  -27.9264  -19.9858   20.1973 C   0  0  0  0  0  0  0  0  0  0  0  0
  -21.1326  -24.4396   18.9972 C   0  0  0  0  0  0  0  0  0  0  0  0
  -30.8319  -23.1445   19.9628 C   0  0  0  0  0  0  0  0  0  0  0  0
  -27.3054  -18.6301   19.8562 C   0  0  0  0  0  0  0  0  0  0  0  0
  -21.9796  -23.1770   19.1231 C   0  0  0  0  0  0  0  0  0  0  0  0
  -27.1185  -20.7249   21.2617 C   0  0  0  0  0  0  0  0  0  0  0  0
  -25.0644  -19.5288   20.6105 C   0  0  0  0  0  0  0  0  0  0  0  0
  -20.5050  -24.8344   20.3254 C   0  0  0  0  0  0  0  0  0  0  0  0
  -22.3886  -23.7187   21.5553 C   0  0  0  0  0  0  0  0  0  0  0  0
  -29.5669  -23.8362   19.4405 C   0  0  1  0  0  0  0  0  0  0  0  0
  -29.3267  -27.2729   21.0420 C   0  0  1  0  0  0  0  0  0  0  0  0
  -25.8129  -18.7704   19.5011 C   0  0  2  0  0  0  0  0  0  0  0  0
  -23.0282  -23.3224   20.2271 C   0  0  1  0  0  0  0  0  0  0  0  0
  -21.1034  -30.4668   22.0491 C   0  0  0  0  0  0  0  0  0  0  0  0
  -29.7111  -31.7508   27.3510 C   0  0  0  0  0  0  0  0  0  0  0  0
  -29.5484  -25.4592   25.2872 C   0  0  0  0  0  0  0  0  0  0  0  0
  -29.4149  -27.1031   27.1708 C   0  0  0  0  0  0  0  0  0  0  0  0
  -31.5006  -26.9312   25.8132 C   0  0  0  0  0  0  0  0  0  0  0  0
  -28.5808  -32.8131   23.8769 C   0  0  0  0  0  0  0  0  0  0  0  0
  -21.0341  -25.4924   22.6707 C   0  0  0  0  0  0  0  0  0  0  0  0
  -22.5239  -27.9366   22.3121 C   0  0  0  0  0  0  0  0  0  1  0  0
  -29.4433  -27.9917   24.7958 C   0  0  1  0  0  0  0  0  0  0  0  0
  -29.5751  -31.6331   25.8410 C   0  0  2  0  0  0  0  0  0  0  0  0
  -29.9590  -26.8731   25.7447 C   0  0  0  0  0  0  0  0  0  0  0  0
  -25.6280  -16.3364   19.8528 N   0  0  0  0  0  0  0  0  0  0  0  0
  -25.1793  -17.4240   19.2033 N   0  0  0  0  0  0  0  0  0  0  0  0
  -28.9291  -27.6540   22.3988 N   0  0  0  0  0  0  0  0  0  0  0  0
  -25.7124  -20.8254   20.8633 N   0  0  0  0  0  0  0  0  0  0  0  0
  -23.6026  -18.1433   17.5887 N   0  0  0  0  0  0  0  0  0  0  0  0
  -22.8631  -13.6962   17.8583 N   0  0  0  0  0  0  0  0  0  0  0  0
  -29.6044  -25.2516   19.7401 N   0  0  0  0  0  0  0  0  0  0  0  0
  -29.8401  -29.3392   25.1896 N   0  0  0  0  0  0  0  0  0  0  0  0
  -23.7792  -22.0981   20.3769 N   0  0  0  0  0  0  0  0  0  0  0  0
  -21.5874  -24.9870   21.3664 N   0  3  2  0  0  0  0  0  0  0  0  0
  -28.7737  -32.7896   25.3497 N   0  3  0  0  0  0  0  0  0  0  0  0
  -22.2117  -15.6323   16.8161 O   0  0  0  0  0  0  0  0  0  0  0  0
  -28.7657  -25.1500   21.9100 O   0  0  0  0  0  0  0  0  0  0  0  0
  -31.1337  -27.8089   23.1419 O   0  0  0  0  0  0  0  0  0  0  0  0
  -27.6920  -30.1924   25.3766 O   0  0  0  0  0  0  0  0  0  0  0  0
  -25.7224  -23.1400   21.0053 O   0  0  0  0  0  0  0  0  0  0  0  0
  -25.5699  -10.1006   21.1416 O   0  0  0  0  0  0  0  0  0  0  0  0
  -22.9478  -28.1089   20.9604 O   0  0  0  0  0  0  0  0  0  1  0  0
  -21.0477   -7.1849   22.3467 F   0  0  0  0  0  0  0  0  0  0  0  0
  -25.1696   -9.0898   23.6834 F   0  0  0  0  0  0  0  0  0  0  0  0
  -17.9766  -25.3899   22.7956 Cl  0  0  0  0  0  0  0  0  0  0  0  0
  1  2  1  0  0  0  0
  1  5  2  0  0  0  0
  2  6  2  0  0  0  0
  3  9  2  0  0  0  0
  3 17  1  0  0  0  0
  4 10  1  0  0  0  0
  4 17  2  0  0  0  0
  5 19  1  0  0  0  0
  6 21  1  0  0  0  0
  7 11  2  0  0  0  0
  7 20  1  0  0  0  0
  8 14  1  0  0  0  0
  8 23  2  0  0  0  0
  9 26  1  0  0  0  0
 10 26  2  0  0  0  0
 11 27  1  0  0  0  0
 12 13  2  0  0  0  0
 12 28  1  0  0  0  0
 13 29  1  0  0  0  0
 14 31  2  0  0  0  0
 15 22  1  0  0  0  0
 15 27  2  0  0  0  0
 16 29  2  0  0  0  0
 16 30  1  0  0  0  0
 17 32  1  0  0  0  0
 18 32  1  0  0  0  0
 18 33  2  0  0  0  0
 18 34  1  0  0  0  0
 19 21  2  0  0  0  0
 19 39  1  0  0  0  0
 20 22  2  0  0  0  0
 20 40  1  0  0  0  0
 21 52  1  0  0  0  0
 22 41  1  0  0  0  0
 23 24  1  0  0  0  0
 23 56  1  0  0  0  0
 24 25  2  0  0  0  0
 24 63  1  0  0  0  0
 25 31  1  0  0  0  0
 25 62  1  0  0  0  0
 26 83  1  0  0  0  0
 27 84  1  0  0  0  0
 28 30  2  0  0  0  0
 28 83  1  0  0  0  0
 29 85  1  0  0  0  0
 30 86  1  0  0  0  0
 31 87  1  0  0  0  0
 32 67  2  0  0  0  0
 33 68  1  0  0  0  0
 33 71  1  0  0  0  0
 34 72  1  0  0  0  0
 34 78  2  0  0  0  0
 35 53  1  0  0  0  0
 35 73  1  0  0  0  0
 35 79  2  0  0  0  0
 36 64  1  0  0  0  0
 36 69  1  0  0  0  0
 36 80  2  0  0  0  0
 37 65  1  0  0  0  0
 37 74  1  0  0  0  0
 37 81  2  0  0  0  0
 38 70  1  0  0  0  0
 38 75  1  0  0  0  0
 38 82  2  0  0  0  0
 39 42  1  0  0  0  0
 40 53  1  0  0  0  0
 41 69  1  0  0  0  0
 42 45  1  0  0  0  0
 43 46  1  0  0  0  0
 43 48  1  0  0  0  0
 44 47  1  0  0  0  0
 44 50  1  0  0  0  0
 45 52  1  0  0  0  0
 46 54  1  0  0  0  0
 47 55  1  0  0  0  0
 48 70  1  0  0  0  0
 49 54  1  0  0  0  0
 49 70  1  0  0  0  0
 50 76  1  0  0  0  0
 51 55  1  0  0  0  0
 51 76  1  0  0  0  0
 52 73  1  0  0  0  0
 53 69  1  0  0  0  0
 54 68  1  0  0  0  0
 55 75  1  0  0  0  0
 57 65  1  0  0  0  0
 58 66  1  0  0  0  0
 59 66  1  0  0  0  0
 60 66  1  0  0  0  0
 61 77  1  0  0  0  0
 62 76  1  0  0  0  0
 63 84  1  0  0  0  0
 64 66  1  0  0  0  0
 64 74  1  0  0  0  0
 65 77  1  0  0  0  0
 67 68  1  0  0  0  0
M  CHG  2  76   1  77   1
M  ISO  4  38 100  63 101  75 100  84 101
M  END
> <Batch ID>
0028

> <Smiles>
CNC(C)C(=O)NC(C(=O)N1Cc2cc([101O:1][101CH2:1]c3c(C)ccc(Cl)c3CN3CCCC([100NH:0][100C:0](=O)N4CCCC(n5nc(-c6ccc(Oc7ccc(F)cc7F)cc6)c(C(N)=O)c5N)C4)C3)ccc2CC1C(=O)NC1CCCc2ccccc21)C(C)(C)C

> <Shape>
0.240

> <Color>
0.058

> <Negative vol penalty>
0.000

$$$$

  -OEChem-04042321313D

 84 93  0     1  0  0  0  0  0999 V2000
  -29.9105  -12.7351   19.8142 C   0  0  0  0  0  0  0  0  0  0  0  0
  -29.7991  -14.1011   20.0529 C   0  0  0  0  0  0  0  0  0  0  0  0
  -18.3238  -28.7880   22.3311 C   0  0  0  0  0  0  0  0  0  0  0  0
  -29.5329  -25.5022   20.0476 C   0  0  0  0  0  0  0  0  0  0  0  0
  -27.7703  -23.9687   20.6631 C   0  0  0  0  0  0  0  0  0  0  0  0
  -28.8051  -12.0151   19.3628 C   0  0  0  0  0  0  0  0  0  0  0  0
  -28.5826  -14.7482   19.8390 C   0  0  0  0  0  0  0  0  0  0  0  0
  -24.6081  -20.1432   22.3717 C   0  0  0  0  0  0  0  0  0  0  0  0
  -19.6795  -29.1038   22.4185 C   0  0  0  0  0  0  0  0  0  0  0  0
  -30.4820  -24.6148   20.5549 C   0  0  0  0  0  0  0  0  0  0  0  0
  -28.7194  -23.0813   21.1704 C   0  0  0  0  0  0  0  0  0  0  0  0
  -23.9421  -21.2876   21.9352 C   0  0  0  0  0  0  0  0  0  0  0  0
  -30.8926  -20.7972   19.9534 C   0  0  0  0  0  0  0  0  0  0  0  0
  -30.7556  -19.4480   19.6273 C   0  0  0  0  0  0  0  0  0  0  0  0
  -17.9134  -27.4557   22.3807 C   0  0  0  0  0  0  0  0  0  0  0  0
  -22.0791  -19.9272   21.2300 C   0  0  0  0  0  0  0  0  0  0  0  0
  -30.5650  -18.9006   21.9728 C   0  0  0  0  0  0  0  0  0  0  0  0
  -28.1770  -25.1791   20.1017 C   0  0  0  0  0  0  0  0  0  0  0  0
  -26.6943  -26.1445   18.2640 C   0  0  0  0  0  0  0  0  0  0  0  0
  -27.5719  -12.6519   19.1525 C   0  0  0  0  0  0  0  0  0  0  0  0
  -24.0181  -18.8789   22.2304 C   0  0  0  0  0  0  0  0  0  0  0  0
  -27.4601  -14.0364   19.3830 C   0  0  0  0  0  0  0  0  0  0  0  0
  -22.7385  -18.7685   21.6678 C   0  0  0  0  0  0  0  0  0  0  0  0
  -20.2147  -26.7552   22.6047 C   0  0  0  0  0  0  0  0  0  0  0  0
  -20.6250  -28.0875   22.5552 C   0  0  0  0  0  0  0  0  0  0  0  0
  -30.0753  -23.4044   21.1163 C   0  0  0  0  0  0  0  0  0  0  0  0
  -22.6787  -21.1795   21.3616 C   0  0  0  0  0  0  0  0  0  0  0  0
  -30.8659  -21.1982   21.2891 C   0  0  0  0  0  0  0  0  0  0  0  0
  -30.5918  -18.4997   20.6370 C   0  0  0  0  0  0  0  0  0  0  0  0
  -30.7021  -20.2499   22.2988 C   0  0  0  0  0  0  0  0  0  0  0  0
  -18.8589  -26.4394   22.5174 C   0  0  0  0  0  0  0  0  0  0  0  0
  -27.1960  -26.0956   19.5784 C   0  0  0  0  0  0  0  0  0  0  0  0
  -25.7950  -27.1825   18.2781 C   0  0  0  0  0  0  0  0  0  0  0  0
  -27.0126  -25.3248   17.1315 C   0  0  0  0  0  0  0  0  0  0  0  0
  -24.7653  -16.2177   20.6608 C   0  0  0  0  0  0  0  0  0  0  0  0
  -22.1970  -15.0265   22.2443 C   0  0  0  0  0  0  0  0  0  0  0  0
  -19.2375  -15.6297   23.8330 C   0  0  0  0  0  0  0  0  0  0  0  0
  -22.5491  -29.7128   22.6101 C   0  0  0  0  0  0  0  0  0  0  0  0
  -26.4178  -11.8409   18.6187 C   0  0  0  0  0  0  0  0  0  0  0  0
  -24.7383  -17.6568   22.7307 C   0  0  0  0  0  0  0  0  0  0  0  0
  -22.0530  -17.4365   21.5119 C   0  0  0  0  0  0  0  0  0  0  0  0
  -25.0649  -12.5303   18.7753 C   0  0  0  0  0  0  0  0  0  0  0  0
  -24.9044  -31.3357   20.4899 C   0  0  0  0  0  0  0  0  0  0  0  0
  -25.1522  -13.9855   18.3263 C   0  0  0  0  0  0  0  0  0  0  0  0
  -25.7097  -30.1802   19.8912 C   0  0  0  0  0  0  0  0  0  0  0  0
  -22.0517  -24.1925   19.4580 C   0  0  0  0  0  0  0  0  0  0  0  0
  -24.5232  -31.0674   21.9446 C   0  0  0  0  0  0  0  0  0  0  0  0
  -24.6459  -28.6336   21.5833 C   0  0  0  0  0  0  0  0  0  0  0  0
  -21.1323  -25.0356   20.3185 C   0  0  0  0  0  0  0  0  0  0  0  0
  -23.0888  -24.3521   21.6240 C   0  0  0  0  0  0  0  0  0  0  0  0
  -26.1508  -14.7693   19.1866 C   0  0  1  0  0  0  0  0  0  0  0  0
  -24.2604  -16.3685   22.0680 C   0  0  1  0  0  0  0  0  0  0  0  0
  -24.9973  -28.8294   20.0994 C   0  0  2  0  0  0  0  0  0  0  0  0
  -22.8305  -23.3833   20.4807 C   0  0  1  0  0  0  0  0  0  1  0  0
  -17.3467  -14.4526   24.9892 C   0  0  0  0  0  0  0  0  0  0  0  0
  -21.0981  -14.1399   19.5394 C   0  0  0  0  0  0  0  0  0  0  0  0
  -18.8588  -13.8526   20.6217 C   0  0  0  0  0  0  0  0  0  0  0  0
  -20.7959  -12.4780   21.3837 C   0  0  0  0  0  0  0  0  0  0  0  0
  -19.7616  -17.0432   26.3798 C   0  0  0  0  0  0  0  0  0  0  0  0
  -21.2415  -25.6712   22.7522 C   0  0  0  0  0  0  0  0  0  0  0  0
  -20.7161  -14.9372   21.9652 C   0  0  1  0  0  0  0  0  0  0  0  0
  -18.6906  -15.1430   25.1628 C   0  0  2  0  0  0  0  0  0  0  0  0
  -20.3807  -13.8770   20.8785 C   0  0  0  0  0  0  0  0  0  0  0  0
  -26.6601  -27.0285   20.3699 N   0  0  0  0  0  0  0  0  0  0  0  0
  -25.8123  -27.6734   19.5504 N   0  0  0  0  0  0  0  0  0  0  0  0
  -22.8005  -16.2703   22.0106 N   0  0  0  0  0  0  0  0  0  0  0  0
  -23.8488  -29.7729   22.0644 N   0  0  0  0  0  0  0  0  0  0  0  0
  -24.9991  -27.7142   17.3261 N   0  0  0  0  0  0  0  0  0  0  0  0
  -27.9585  -24.3028   17.2911 N   0  0  0  0  0  0  0  0  0  0  0  0
  -21.9964  -28.4329   22.6435 N   0  0  0  0  0  0  0  0  0  0  0  0
  -25.5617  -15.1055   20.4650 N   0  0  0  0  0  0  0  0  0  0  0  0
  -20.0719  -14.6982   23.2522 N   0  0  0  0  0  0  0  0  0  0  0  0
  -22.0047  -25.4121   21.4932 N   0  3  2  0  0  0  0  0  0  0  0  0
  -18.5132  -16.2879   26.1002 N   0  3  0  0  0  0  0  0  0  0  0  0
  -26.4864  -25.5040   16.0070 O   0  0  0  0  0  0  0  0  0  0  0  0
  -24.4541  -17.0481   19.8150 O   0  0  0  0  0  0  0  0  0  0  0  0
  -22.7949  -14.0313   22.6613 O   0  0  0  0  0  0  0  0  0  0  0  0
  -18.9500  -16.7250   23.3553 O   0  0  0  0  0  0  0  0  0  0  0  0
  -21.9583  -30.7260   22.9927 O   0  0  0  0  0  0  0  0  0  0  0  0
  -31.0012  -22.5382   21.6112 O   0  0  0  0  0  0  0  0  0  0  0  0
  -22.0267  -22.2948   20.9342 O   0  0  0  0  0  0  0  0  0  1  0  0
  -30.4587  -17.2042   20.3237 F   0  0  0  0  0  0  0  0  0  0  0  0
  -30.6745  -20.6291   23.5838 F   0  0  0  0  0  0  0  0  0  0  0  0
  -18.3082  -24.8037   22.5743 Cl  0  0  0  0  0  0  0  0  0  0  0  0
  1  2  1  0  0  0  0
  1  6  2  0  0  0  0
  2  7  2  0  0  0  0
  3  9  2  0  0  0  0
  3 15  1  0  0  0  0
  4 10  2  0  0  0  0
  4 18  1  0  0  0  0
  5 11  1  0  0  0  0
  5 18  2  0  0  0  0
  6 20  1  0  0  0  0
  7 22  1  0  0  0  0
  8 12  2  0  0  0  0
  8 21  1  0  0  0  0
  9 25  1  0  0  0  0
 10 26  1  0  0  0  0
 11 26  2  0  0  0  0
 12 27  1  0  0  0  0
 13 14  2  0  0  0  0
 13 28  1  0  0  0  0
 14 29  1  0  0  0  0
 15 31  2  0  0  0  0
 16 23  1  0  0  0  0
 16 27  2  0  0  0  0
 17 29  2  0  0  0  0
 17 30  1  0  0  0  0
 18 32  1  0  0  0  0
 19 32  1  0  0  0  0
 19 33  2  0  0  0  0
 19 34  1  0  0  0  0
 20 22  2  0  0  0  0
 20 39  1  0  0  0  0
 21 23  2  0  0  0  0
 21 40  1  0  0  0  0
 22 51  1  0  0  0  0
 23 41  1  0  0  0  0
 24 25  2  0  0  0  0
 24 31  1  0  0  0  0
 24 60  1  0  0  0  0
 25 70  1  0  0  0  0
 26 80  1  0  0  0  0
 27 81  1  0  0  0  0
 28 30  2  0  0  0  0
 28 80  1  0  0  0  0
 29 82  1  0  0  0  0
 30 83  1  0  0  0  0
 31 84  1  0  0  0  0
 32 64  2  0  0  0  0
 33 65  1  0  0  0  0
 33 68  1  0  0  0  0
 34 69  1  0  0  0  0
 34 75  2  0  0  0  0
 35 52  1  0  0  0  0
 35 71  1  0  0  0  0
 35 76  2  0  0  0  0
 36 61  1  0  0  0  0
 36 66  1  0  0  0  0
 36 77  2  0  0  0  0
 37 62  1  0  0  0  0
 37 72  1  0  0  0  0
 37 78  2  0  0  0  0
 38 67  1  0  0  0  0
 38 70  1  0  0  0  0
 38 79  2  0  0  0  0
 39 42  1  0  0  0  0
 40 52  1  0  0  0  0
 41 66  1  0  0  0  0
 42 44  1  0  0  0  0
 43 45  1  0  0  0  0
 43 47  1  0  0  0  0
 44 51  1  0  0  0  0
 45 53  1  0  0  0  0
 46 49  1  0  0  0  0
 46 54  1  0  0  0  0
 47 67  1  0  0  0  0
 48 53  1  0  0  0  0
 48 67  1  0  0  0  0
 49 73  1  0  0  0  0
 50 54  1  0  0  0  0
 50 73  1  0  0  0  0
 51 71  1  0  0  0  0
 52 66  1  0  0  0  0
 53 65  1  0  0  0  0
 54 81  1  0  0  0  0
 55 62  1  0  0  0  0
 56 63  1  0  0  0  0
 57 63  1  0  0  0  0
 58 63  1  0  0  0  0
 59 74  1  0  0  0  0
 60 73  1  0  0  0  0
 61 63  1  0  0  0  0
 61 72  1  0  0  0  0
 62 74  1  0  0  0  0
 64 65  1  0  0  0  0
M  CHG  2  73   1  74   1
M  ISO  4  38 100  54 101  70 100  81 101
M  END
> <Batch ID>
0028

> <Smiles>
CNC(C)C(=O)NC(C(=O)N1Cc2cc([101O:1][101CH:1]3CCN(Cc4c(Cl)cccc4[100NH:0][100C:0](=O)N4CCCC(n5nc(-c6ccc(Oc7ccc(F)cc7F)cc6)c(C(N)=O)c5N)C4)C3)ccc2CC1C(=O)NC1CCCc2ccccc21)C(C)(C)C

> <Shape>
0.220

> <Color>
0.074

> <Negative vol penalty>
0.000

$$$$

  -OEChem-04042321313D

 87 96  0     1  0  0  0  0  0999 V2000
  -29.5222  -36.6720   23.5125 C   0  0  0  0  0  0  0  0  0  0  0  0
  -29.6343  -35.8024   22.4325 C   0  0  0  0  0  0  0  0  0  0  0  0
  -24.7218   -8.8801   20.3558 C   0  0  0  0  0  0  0  0  0  0  0  0
  -23.5042  -10.0052   22.1132 C   0  0  0  0  0  0  0  0  0  0  0  0
  -28.9672  -36.2253   24.7110 C   0  0  0  0  0  0  0  0  0  0  0  0
  -29.1925  -34.4851   22.5506 C   0  0  0  0  0  0  0  0  0  0  0  0
  -26.2439  -29.2183   18.6928 C   0  0  0  0  0  0  0  0  0  0  0  0
  -24.4944  -18.4309   15.8169 C   0  0  0  0  0  0  0  0  0  0  0  0
  -23.7683   -7.8621   20.3468 C   0  0  0  0  0  0  0  0  0  0  0  0
  -22.5506   -8.9872   22.1042 C   0  0  0  0  0  0  0  0  0  0  0  0
  -26.4418  -27.8753   18.3750 C   0  0  0  0  0  0  0  0  0  0  0  0
  -22.2561   -5.8388   23.3009 C   0  0  0  0  0  0  0  0  0  0  0  0
  -24.3946  -19.1710   14.6389 C   0  0  0  0  0  0  0  0  0  0  0  0
  -21.8352   -5.3342   24.5312 C   0  0  0  0  0  0  0  0  0  0  0  0
  -25.4272  -27.2367   20.4683 C   0  0  0  0  0  0  0  0  0  0  0  0
  -19.5673   -5.9973   24.0273 C   0  0  0  0  0  0  0  0  0  0  0  0
  -24.5898   -9.9516   21.2390 C   0  0  0  0  0  0  0  0  0  0  0  0
  -26.9515  -10.8760   21.5141 C   0  0  0  0  0  0  0  0  0  0  0  0
  -28.5095  -34.9046   24.8408 C   0  0  0  0  0  0  0  0  0  0  0  0
  -25.6450  -29.5815   19.9076 C   0  0  0  0  0  0  0  0  0  0  0  0
  -28.6320  -34.0199   23.7524 C   0  0  0  0  0  0  0  0  0  0  0  0
  -25.2205  -28.5849   20.7980 C   0  0  0  0  0  0  0  0  0  0  0  0
  -25.9039  -20.1440   16.7738 C   0  0  0  0  0  0  0  0  0  0  0  0
  -25.8041  -20.8841   15.5957 C   0  0  0  0  0  0  0  0  0  0  0  0
  -25.2490  -18.9174   16.8844 C   0  0  0  0  0  0  0  0  0  0  0  0
  -22.6827   -7.9156   21.2209 C   0  0  0  0  0  0  0  0  0  0  0  0
  -26.0361  -26.8844   19.2641 C   0  0  0  0  0  0  0  0  0  0  0  0
  -21.3326   -6.4228   22.4337 C   0  0  0  0  0  0  0  0  0  0  0  0
  -20.4908   -5.4134   24.8945 C   0  0  0  0  0  0  0  0  0  0  0  0
  -25.0494  -20.3976   14.5282 C   0  0  0  0  0  0  0  0  0  0  0  0
  -19.9882   -6.5020   22.7970 C   0  0  0  0  0  0  0  0  0  0  0  0
  -25.5747  -11.0032   21.2492 C   0  0  0  0  0  0  0  0  0  0  0  0
  -27.4425  -12.1537   21.4008 C   0  0  0  0  0  0  0  0  0  0  0  0
  -26.4766  -23.9960   17.1769 C   0  0  0  0  0  0  0  0  0  0  0  0
  -27.7180   -9.7073   21.8339 C   0  0  0  0  0  0  0  0  0  0  0  0
  -26.5684  -31.2429   22.4553 C   0  0  0  0  0  0  0  0  0  0  0  0
  -23.4806  -30.8301   23.3593 C   0  0  0  0  0  0  0  0  0  0  0  0
  -21.0529  -28.1618   23.2977 C   0  0  0  0  0  0  0  0  0  0  0  0
  -25.2774  -16.7582   18.1965 C   0  0  0  0  0  0  0  0  0  0  0  0
  -27.9601  -34.4542   26.1713 C   0  0  0  0  0  0  0  0  0  0  0  0
  -25.4144  -31.0339   20.2237 C   0  0  0  0  0  0  0  0  0  0  0  0
  -24.5543  -28.9217   22.1062 C   0  0  0  0  0  0  0  0  0  0  0  0
  -27.1726  -33.1488   26.0946 C   0  0  0  0  0  0  0  0  0  0  0  0
  -23.5371  -23.9113   16.9058 C   0  0  0  0  0  0  0  0  0  0  0  0
  -25.3283  -16.4617   22.0219 C   0  0  0  0  0  0  0  0  0  0  0  0
  -27.9358  -32.1122   25.2761 C   0  0  0  0  0  0  0  0  0  0  0  0
  -24.2324  -24.5192   18.1226 C   0  0  0  0  0  0  0  0  0  0  0  0
  -26.2087  -15.2228   22.1685 C   0  0  0  0  0  0  0  0  0  0  0  0
  -24.4866  -23.6501   15.7399 C   0  0  0  0  0  0  0  0  0  0  0  0
  -25.5545  -17.1773   20.6961 C   0  0  0  0  0  0  0  0  0  0  0  0
  -25.3335  -14.8542   19.7960 C   0  0  0  0  0  0  0  0  0  0  0  0
  -28.1414  -32.5907   23.8338 C   0  0  1  0  0  0  0  0  0  0  0  0
  -25.6040  -25.0876   17.7816 C   0  0  1  0  0  0  0  0  0  1  0  0
  -25.2610  -31.3033   21.7174 C   0  0  1  0  0  0  0  0  0  0  0  0
  -26.3695  -14.4375   20.8517 C   0  0  2  0  0  0  0  0  0  0  0  0
  -26.7168  -20.6687   17.9157 C   0  0  0  0  0  0  0  0  0  0  0  0
  -18.5458  -28.2386   23.2190 C   0  0  0  0  0  0  0  0  0  0  0  0
  -23.6678  -30.6252   26.3979 C   0  0  0  0  0  0  0  0  0  0  0  0
  -21.6615  -29.1284   26.3509 C   0  0  0  0  0  0  0  0  0  0  0  0
  -21.4791  -31.4814   25.5429 C   0  0  0  0  0  0  0  0  0  0  0  0
  -20.9613  -26.4643   20.8751 C   0  0  0  0  0  0  0  0  0  0  0  0
  -26.5001  -22.2068   15.4537 C   0  0  0  0  0  0  0  0  0  0  0  0
  -22.7274  -29.7842   24.1452 C   0  0  1  0  0  0  0  0  0  0  0  0
  -19.8237  -28.0719   22.4115 C   0  0  2  0  0  0  0  0  0  0  0  0
  -22.4072  -30.2482   25.5943 C   0  0  0  0  0  0  0  0  0  0  0  0
  -25.2142  -12.2624   20.9875 N   0  0  0  0  0  0  0  0  0  0  0  0
  -26.3716  -12.9381   21.0875 N   0  0  0  0  0  0  0  0  0  0  0  0
  -25.8193  -23.2611   16.1865 N   0  0  0  0  0  0  0  0  0  0  0  0
  -24.3567  -30.3561   22.3726 N   0  0  0  0  0  0  0  0  0  0  0  0
  -25.3969  -16.2960   19.5301 N   0  0  0  0  0  0  0  0  0  0  0  0
  -28.6814  -12.6715   21.5396 N   0  0  0  0  0  0  0  0  0  0  0  0
  -27.8619   -9.3508   23.1817 N   0  0  0  0  0  0  0  0  0  0  0  0
  -25.3368  -18.1487   18.0720 N   0  0  0  0  0  0  0  0  0  0  0  0
  -26.9233  -32.4290   23.0691 N   0  0  0  0  0  0  0  0  0  0  0  0
  -21.5503  -29.4467   23.3521 N   0  0  0  0  0  0  0  0  0  0  0  0
  -19.7763  -26.7504   21.7241 N   0  3  0  0  0  0  0  0  0  0  0  0
  -27.6384  -23.8150   17.5370 O   0  0  0  0  0  0  0  0  0  0  0  0
  -28.2729   -9.0093   20.9516 O   0  0  0  0  0  0  0  0  0  0  0  0
  -27.2072  -30.1972   22.4682 O   0  0  0  0  0  0  0  0  0  0  0  0
  -23.2930  -32.0240   23.6067 O   0  0  0  0  0  0  0  0  0  0  0  0
  -21.5225  -27.1903   23.8860 O   0  0  0  0  0  0  0  0  0  0  0  0
  -25.1469  -15.9790   17.2501 O   0  0  0  0  0  0  0  0  0  0  0  0
  -21.7519   -6.9226   21.2123 O   0  0  0  0  0  0  0  0  0  0  0  0
  -26.2286  -25.5728   18.9567 O   0  0  0  0  0  0  0  0  0  1  0  0
  -20.0865   -4.9274   26.0753 F   0  0  0  0  0  0  0  0  0  0  0  0
  -24.9464  -21.1011   13.3919 F   0  0  0  0  0  0  0  0  0  0  0  0
  -19.0962   -7.0608   21.9676 F   0  0  0  0  0  0  0  0  0  0  0  0
  1  2  1  0  0  0  0
  1  5  2  0  0  0  0
  2  6  2  0  0  0  0
  3  9  2  0  0  0  0
  3 17  1  0  0  0  0
  4 10  1  0  0  0  0
  4 17  2  0  0  0  0
  5 19  1  0  0  0  0
  6 21  1  0  0  0  0
  7 11  2  0  0  0  0
  7 20  1  0  0  0  0
  8 13  1  0  0  0  0
  8 25  2  0  0  0  0
  9 26  1  0  0  0  0
 10 26  2  0  0  0  0
 11 27  1  0  0  0  0
 12 14  2  0  0  0  0
 12 28  1  0  0  0  0
 13 30  2  0  0  0  0
 14 29  1  0  0  0  0
 15 22  1  0  0  0  0
 15 27  2  0  0  0  0
 16 29  2  0  0  0  0
 16 31  1  0  0  0  0
 17 32  1  0  0  0  0
 18 32  1  0  0  0  0
 18 33  2  0  0  0  0
 18 35  1  0  0  0  0
 19 21  2  0  0  0  0
 19 40  1  0  0  0  0
 20 22  2  0  0  0  0
 20 41  1  0  0  0  0
 21 52  1  0  0  0  0
 22 42  1  0  0  0  0
 23 24  2  0  0  0  0
 23 25  1  0  0  0  0
 23 56  1  0  0  0  0
 24 30  1  0  0  0  0
 24 62  1  0  0  0  0
 25 73  1  0  0  0  0
 26 83  1  0  0  0  0
 27 84  1  0  0  0  0
 28 31  2  0  0  0  0
 28 83  1  0  0  0  0
 29 85  1  0  0  0  0
 30 86  1  0  0  0  0
 31 87  1  0  0  0  0
 32 66  2  0  0  0  0
 33 67  1  0  0  0  0
 33 71  1  0  0  0  0
 34 53  1  0  0  0  0
 34 68  1  0  0  0  0
 34 77  2  0  0  0  0
 35 72  1  0  0  0  0
 35 78  2  0  0  0  0
 36 54  1  0  0  0  0
 36 74  1  0  0  0  0
 36 79  2  0  0  0  0
 37 63  1  0  0  0  0
 37 69  1  0  0  0  0
 37 80  2  0  0  0  0
 38 64  1  0  0  0  0
 38 75  1  0  0  0  0
 38 81  2  0  0  0  0
 39 70  1  0  0  0  0
 39 73  1  0  0  0  0
 39 82  2  0  0  0  0
 40 43  1  0  0  0  0
 41 54  1  0  0  0  0
 42 69  1  0  0  0  0
 43 46  1  0  0  0  0
 44 47  1  0  0  0  0
 44 49  1  0  0  0  0
 45 48  1  0  0  0  0
 45 50  1  0  0  0  0
 46 52  1  0  0  0  0
 47 53  1  0  0  0  0
 48 55  1  0  0  0  0
 49 68  1  0  0  0  0
 50 70  1  0  0  0  0
 51 55  1  0  0  0  0
 51 70  1  0  0  0  0
 52 74  1  0  0  0  0
 53 84  1  0  0  0  0
 54 69  1  0  0  0  0
 55 67  1  0  0  0  0
 57 64  1  0  0  0  0
 58 65  1  0  0  0  0
 59 65  1  0  0  0  0
 60 65  1  0  0  0  0
 61 76  1  0  0  0  0
 62 68  1  0  0  0  0
 63 65  1  0  0  0  0
 63 75  1  0  0  0  0
 64 76  1  0  0  0  0
 66 67  1  0  0  0  0
M  CHG  1  76   1
M  ISO  4  39 100  53 101  73 100  84 101
M  END
> <Batch ID>
0028

> <Smiles>
CNC(C)C(=O)NC(C(=O)N1Cc2cc([101O:1][101CH:1]3CCCN(Cc4c(F)ccc([100NH:0][100C:0](=O)N5CCCC(n6nc(-c7ccc(Oc8ccc(F)cc8F)cc7)c(C(N)=O)c6N)C5)c4C)C3=O)ccc2CC1C(=O)NC1CCCc2ccccc21)C(C)(C)C

> <Shape>
0.240

> <Color>
0.106

> <Negative vol penalty>
0.000

$$$$

  -OEChem-04042321313D

 92101  0     1  0  0  0  0  0999 V2000
  -34.0730  -22.6080   23.4434 C   0  0  0  0  0  0  0  0  0  0  0  0
  -33.0490  -22.6129   22.5017 C   0  0  0  0  0  0  0  0  0  0  0  0
  -29.6073  -28.6962   20.9112 C   0  0  0  0  0  0  0  0  0  0  0  0
  -19.5185  -28.5649   23.6089 C   0  0  0  0  0  0  0  0  0  0  0  0
  -20.2995  -26.7926   22.1646 C   0  0  0  0  0  0  0  0  0  0  0  0
  -34.6947  -21.4089   23.7892 C   0  0  0  0  0  0  0  0  0  0  0  0
  -32.6468  -21.4187   21.9045 C   0  0  0  0  0  0  0  0  0  0  0  0
  -27.6087  -20.9524   21.6936 C   0  0  0  0  0  0  0  0  0  0  0  0
  -28.6401  -29.2249   20.0554 C   0  0  0  0  0  0  0  0  0  0  0  0
  -29.6957  -27.3224   21.0963 C   0  0  0  0  0  0  0  0  0  0  0  0
  -18.2043  -28.1348   23.4261 C   0  0  0  0  0  0  0  0  0  0  0  0
  -18.9853  -26.3624   21.9818 C   0  0  0  0  0  0  0  0  0  0  0  0
  -26.9443  -21.6661   20.6970 C   0  0  0  0  0  0  0  0  0  0  0  0
  -16.2000  -25.6800   24.6050 C   0  0  0  0  0  0  0  0  0  0  0  0
  -15.3846  -25.5898   25.7331 C   0  0  0  0  0  0  0  0  0  0  0  0
  -26.8154  -19.6640   19.3576 C   0  0  0  0  0  0  0  0  0  0  0  0
  -13.8596  -27.1905   24.7588 C   0  0  0  0  0  0  0  0  0  0  0  0
  -20.5661  -27.8939   22.9781 C   0  0  0  0  0  0  0  0  0  0  0  0
  -22.8243  -27.9209   24.1646 C   0  0  0  0  0  0  0  0  0  0  0  0
  -34.2934  -20.1981   23.2031 C   0  0  0  0  0  0  0  0  0  0  0  0
  -27.8915  -19.5894   21.5246 C   0  0  0  0  0  0  0  0  0  0  0  0
  -33.2647  -20.2025   22.2419 C   0  0  0  0  0  0  0  0  0  0  0  0
  -27.4811  -18.9347   20.3545 C   0  0  0  0  0  0  0  0  0  0  0  0
  -27.8272  -26.9918   19.5711 C   0  0  0  0  0  0  0  0  0  0  0  0
  -27.7412  -28.3876   19.3648 C   0  0  0  0  0  0  0  0  0  0  0  0
  -28.8113  -26.4760   20.4319 C   0  0  0  0  0  0  0  0  0  0  0  0
  -17.9377  -27.0335   22.6126 C   0  0  0  0  0  0  0  0  0  0  0  0
  -26.5501  -21.0226   19.5276 C   0  0  0  0  0  0  0  0  0  0  0  0
  -15.8452  -26.5255   23.5538 C   0  0  0  0  0  0  0  0  0  0  0  0
  -14.2144  -26.3450   25.8100 C   0  0  0  0  0  0  0  0  0  0  0  0
  -14.6750  -27.2807   23.6307 C   0  0  0  0  0  0  0  0  0  0  0  0
  -21.9239  -28.3381   23.1661 C   0  0  0  0  0  0  0  0  0  0  0  0
  -23.9717  -28.6319   23.9112 C   0  0  0  0  0  0  0  0  0  0  0  0
  -26.4006  -28.3655   17.2416 C   0  0  0  0  0  0  0  0  0  0  0  0
  -25.3630  -28.7828   16.4921 C   0  0  0  0  0  0  0  0  0  0  0  0
  -22.6399  -26.9750   25.2263 C   0  0  0  0  0  0  0  0  0  0  0  0
  -30.5488  -17.8514   21.3765 C   0  0  0  0  0  0  0  0  0  0  0  0
  -28.4594  -15.3703   21.3377 C   0  0  0  0  0  0  0  0  0  0  0  0
  -25.3106  -14.2447   20.6560 C   0  0  0  0  0  0  0  0  0  0  0  0
  -26.3159  -30.3013   18.7286 C   0  0  0  0  0  0  0  0  0  0  0  0
  -35.0273  -18.9338   23.5740 C   0  0  0  0  0  0  0  0  0  0  0  0
  -28.5852  -18.8275   22.6204 C   0  0  0  0  0  0  0  0  0  0  0  0
  -27.7428  -17.4681   20.1330 C   0  0  0  0  0  0  0  0  0  0  0  0
  -26.8533  -26.0347   18.9383 C   0  0  0  0  0  0  0  0  0  0  0  0
  -27.2370  -27.2147   16.7353 C   0  0  0  0  0  0  0  0  0  0  0  0
  -34.2883  -17.6602   23.1712 C   0  0  0  0  0  0  0  0  0  0  0  0
  -24.8778  -32.5942   20.9115 C   0  0  0  0  0  0  0  0  0  0  0  0
  -33.7807  -17.7685   21.7368 C   0  0  0  0  0  0  0  0  0  0  0  0
  -23.8972  -31.5760   21.5080 C   0  0  0  0  0  0  0  0  0  0  0  0
  -26.2305  -31.9831   20.5494 C   0  0  0  0  0  0  0  0  0  0  0  0
  -25.4983  -29.6678   21.0626 C   0  0  0  0  0  0  0  0  0  0  0  0
  -32.7835  -18.9242   21.5903 C   0  0  1  0  0  0  0  0  0  0  0  0
  -29.2771  -17.5622   22.1228 C   0  0  1  0  0  0  0  0  0  0  0  0
  -24.6338  -30.3768   22.1270 C   0  0  2  0  0  0  0  0  0  0  0  0
  -29.0030  -25.3883   23.1098 C   0  0  0  0  0  0  0  0  0  0  0  0
  -30.9079  -24.8314   19.1754 C   0  0  0  0  0  0  0  0  0  0  0  0
  -23.9135  -12.1604   20.6894 C   0  0  0  0  0  0  0  0  0  0  0  0
  -29.8574  -14.3956   18.8068 C   0  0  0  0  0  0  0  0  0  0  0  0
  -27.8848  -12.9169   18.3703 C   0  0  0  0  0  0  0  0  0  0  0  0
  -29.2561  -12.5889   20.4281 C   0  0  0  0  0  0  0  0  0  0  0  0
  -27.3976  -23.1478   16.2266 C   0  0  0  0  0  0  0  0  0  0  0  0
  -24.9149  -22.8734   16.2844 C   0  0  0  0  0  0  0  0  0  0  0  0
  -23.4094  -15.4111   22.6012 C   0  0  0  0  0  0  0  0  0  0  0  0
  -25.8830  -25.0961   16.8425 C   0  0  0  0  0  0  0  0  0  0  0  0
  -29.7119  -24.7423   21.9395 C   0  0  0  0  0  0  0  0  0  0  0  0
  -29.5164  -24.3154   19.4701 C   0  0  0  0  0  0  0  0  0  0  0  0
  -26.2062  -23.1049   18.4313 C   0  0  0  0  0  0  0  0  0  1  0  0
  -27.7337  -14.6005   20.2608 C   0  0  1  0  0  0  0  0  0  0  0  0
  -24.3477  -13.3944   21.4649 C   0  0  2  0  0  0  0  0  0  0  0  0
  -28.6796  -13.6536   19.4695 C   0  0  0  0  0  0  0  0  0  0  0  0
  -26.1129  -23.5722   16.9619 C   0  0  0  0  0  0  0  0  0  0  0  0
  -22.4536  -29.2441   22.3400 N   0  0  0  0  0  0  0  0  0  0  0  0
  -23.6993  -29.4021   22.8190 N   0  0  0  0  0  0  0  0  0  0  0  0
  -26.7635  -28.9762   18.4632 N   0  0  0  0  0  0  0  0  0  0  0  0
  -28.4297  -16.7680   21.2310 N   0  0  0  0  0  0  0  0  0  0  0  0
  -26.0775  -30.6075   20.0869 N   0  0  0  0  0  0  0  0  0  0  0  0
  -25.1769  -28.6673   24.5182 N   0  0  0  0  0  0  0  0  0  0  0  0
  -21.3988  -26.3345   25.3425 N   0  0  0  0  0  0  0  0  0  0  0  0
  -31.4891  -18.5445   22.1145 N   0  0  0  0  0  0  0  0  0  0  0  0
  -26.6244  -13.9214   20.9216 N   0  0  0  0  0  0  0  0  0  0  0  0
  -27.0101  -25.8941   17.4426 N   0  3  2  0  0  0  0  0  0  0  0  0
  -23.1316  -14.1809   21.8161 N   0  3  0  0  0  0  0  0  0  0  0  0
  -28.9554  -25.0513   20.6667 N   0  3  0  0  0  0  0  0  0  0  0  0
  -23.5436  -26.7181   26.0576 O   0  0  0  0  0  0  0  0  0  0  0  0
  -30.6685  -17.4723   20.2173 O   0  0  0  0  0  0  0  0  0  0  0  0
  -29.0255  -14.7544   22.2442 O   0  0  0  0  0  0  0  0  0  0  0  0
  -24.9348  -15.1068   19.8648 O   0  0  0  0  0  0  0  0  0  0  0  0
  -26.1202  -31.1193   17.8217 O   0  0  0  0  0  0  0  0  0  0  0  0
  -16.6554  -26.6134   22.4342 O   0  0  0  0  0  0  0  0  0  0  0  0
  -25.8975  -21.7220   18.5461 O   0  0  0  0  0  0  0  0  0  1  0  0
  -13.4306  -26.2572   26.8927 F   0  0  0  0  0  0  0  0  0  0  0  0
  -14.3284  -28.0938   22.6235 F   0  0  0  0  0  0  0  0  0  0  0  0
  1  2  1  0  0  0  0
  1  6  2  0  0  0  0
  2  7  2  0  0  0  0
  3  9  2  0  0  0  0
  3 10  1  0  0  0  0
  4 11  2  0  0  0  0
  4 18  1  0  0  0  0
  5 12  1  0  0  0  0
  5 18  2  0  0  0  0
  6 20  1  0  0  0  0
  7 22  1  0  0  0  0
  8 13  2  0  0  0  0
  8 21  1  0  0  0  0
  9 25  1  0  0  0  0
 10 26  2  0  0  0  0
 11 27  1  0  0  0  0
 12 27  2  0  0  0  0
 13 28  1  0  0  0  0
 14 15  2  0  0  0  0
 14 29  1  0  0  0  0
 15 30  1  0  0  0  0
 16 23  1  0  0  0  0
 16 28  2  0  0  0  0
 17 30  2  0  0  0  0
 17 31  1  0  0  0  0
 18 32  1  0  0  0  0
 19 32  1  0  0  0  0
 19 33  2  0  0  0  0
 19 36  1  0  0  0  0
 20 22  2  0  0  0  0
 20 41  1  0  0  0  0
 21 23  2  0  0  0  0
 21 42  1  0  0  0  0
 22 52  1  0  0  0  0
 23 43  1  0  0  0  0
 24 25  2  0  0  0  0
 24 26  1  0  0  0  0
 24 44  1  0  0  0  0
 25 74  1  0  0  0  0
 26 83  1  0  0  0  0
 27 89  1  0  0  0  0
 28 90  1  0  0  0  0
 29 31  2  0  0  0  0
 29 89  1  0  0  0  0
 30 91  1  0  0  0  0
 31 92  1  0  0  0  0
 32 72  2  0  0  0  0
 33 73  1  0  0  0  0
 33 77  1  0  0  0  0
 34 35  2  0  0  0  0
 34 45  1  0  0  0  0
 34 74  1  0  0  0  0
 36 78  1  0  0  0  0
 36 84  2  0  0  0  0
 37 53  1  0  0  0  0
 37 79  1  0  0  0  0
 37 85  2  0  0  0  0
 38 68  1  0  0  0  0
 38 75  1  0  0  0  0
 38 86  2  0  0  0  0
 39 69  1  0  0  0  0
 39 80  1  0  0  0  0
 39 87  2  0  0  0  0
 40 74  1  0  0  0  0
 40 76  1  0  0  0  0
 40 88  2  0  0  0  0
 41 46  1  0  0  0  0
 42 53  1  0  0  0  0
 43 75  1  0  0  0  0
 44 81  1  0  0  0  0
 45 81  1  0  0  0  0
 46 48  1  0  0  0  0
 47 49  1  0  0  0  0
 47 50  1  0  0  0  0
 48 52  1  0  0  0  0
 49 54  1  0  0  0  0
 50 76  1  0  0  0  0
 51 54  1  0  0  0  0
 51 76  1  0  0  0  0
 52 79  1  0  0  0  0
 53 75  1  0  0  0  0
 54 73  1  0  0  0  0
 55 65  1  0  0  0  0
 56 66  1  0  0  0  0
 57 69  1  0  0  0  0
 58 70  1  0  0  0  0
 59 70  1  0  0  0  0
 60 70  1  0  0  0  0
 61 71  1  0  0  0  0
 62 71  1  0  0  0  0
 63 82  1  0  0  0  0
 64 71  1  0  0  0  0
 64 81  1  0  0  0  0
 65 83  1  0  0  0  0
 66 83  1  0  0  0  0
 67 71  1  0  0  0  0
 67 90  1  0  0  0  0
 68 70  1  0  0  0  0
 68 80  1  0  0  0  0
 69 82  1  0  0  0  0
 72 73  1  0  0  0  0
M  CHG  3  81   1  82   1  83   1
M  ISO  4  40 100  67 101  74 100  90 101
M  END
> <Batch ID>
0028

> <Smiles>
C=C1CN(CC(C)(C)[101CH2:1][101O:1]c2ccc3c(c2)CN(C(=O)C(NC(=O)C(C)NC)C(C)(C)C)C(C(=O)NC2CCCc4ccccc42)C3)Cc2c(N(CC)CC)cccc2[100N:0]1[100C:0](=O)N1CCCC(n2nc(-c3ccc(Oc4ccc(F)cc4F)cc3)c(C(N)=O)c2N)C1

> <Shape>
0.250

> <Color>
0.051

> <Negative vol penalty>
0.000

$$$$

  -OEChem-04042321313D

 83 92  0     1  0  0  0  0  0999 V2000
  -20.8676  -34.3102   26.8899 C   0  0  0  0  0  0  0  0  0  0  0  0
  -22.1761  -34.0521   26.4941 C   0  0  0  0  0  0  0  0  0  0  0  0
  -26.6657  -22.6795   15.6096 C   0  0  0  0  0  0  0  0  0  0  0  0
  -21.5765  -17.9347   23.8390 C   0  0  0  0  0  0  0  0  0  0  0  0
  -20.9943  -18.8090   21.6633 C   0  0  0  0  0  0  0  0  0  0  0  0
  -19.8679  -33.3697   26.6447 C   0  0  0  0  0  0  0  0  0  0  0  0
  -22.4858  -32.8528   25.8536 C   0  0  0  0  0  0  0  0  0  0  0  0
  -26.8818  -30.1505   20.8848 C   0  0  0  0  0  0  0  0  0  0  0  0
  -27.6796  -23.6372   15.6288 C   0  0  0  0  0  0  0  0  0  0  0  0
  -26.6513  -21.6599   16.5615 C   0  0  0  0  0  0  0  0  0  0  0  0
  -20.4139  -18.4903   24.3734 C   0  0  0  0  0  0  0  0  0  0  0  0
  -19.8317  -19.3645   22.1976 C   0  0  0  0  0  0  0  0  0  0  0  0
  -27.7940  -29.1118   20.7039 C   0  0  0  0  0  0  0  0  0  0  0  0
  -18.9777  -22.0842   24.0155 C   0  0  0  0  0  0  0  0  0  0  0  0
  -18.6624  -23.3951   23.6582 C   0  0  0  0  0  0  0  0  0  0  0  0
  -25.9707  -27.5955   20.2619 C   0  0  0  0  0  0  0  0  0  0  0  0
  -28.6647  -22.5557   17.5516 C   0  0  0  0  0  0  0  0  0  0  0  0
  -16.5770  -22.6336   22.7050 C   0  0  0  0  0  0  0  0  0  0  0  0
  -21.8667  -18.0941   22.4840 C   0  0  0  0  0  0  0  0  0  0  0  0
  -23.2187  -16.2368   21.3750 C   0  0  0  0  0  0  0  0  0  0  0  0
  -20.1638  -32.1625   25.9923 C   0  0  0  0  0  0  0  0  0  0  0  0
  -25.5042  -29.9167   20.7660 C   0  0  0  0  0  0  0  0  0  0  0  0
  -21.4894  -31.8947   25.6006 C   0  0  0  0  0  0  0  0  0  0  0  0
  -25.0432  -28.6334   20.4391 C   0  0  0  0  0  0  0  0  0  0  0  0
  -28.6791  -23.5753   16.5998 C   0  0  0  0  0  0  0  0  0  0  0  0
  -27.6508  -21.5980   17.5324 C   0  0  0  0  0  0  0  0  0  0  0  0
  -19.5416  -19.2051   23.5527 C   0  0  0  0  0  0  0  0  0  0  0  0
  -27.3384  -27.8334   20.3953 C   0  0  0  0  0  0  0  0  0  0  0  0
  -18.0928  -21.0480   23.7175 C   0  0  0  0  0  0  0  0  0  0  0  0
  -17.4620  -23.6698   23.0030 C   0  0  0  0  0  0  0  0  0  0  0  0
  -16.8924  -21.3227   23.0623 C   0  0  0  0  0  0  0  0  0  0  0  0
  -23.0677  -17.5210   21.9316 C   0  0  0  0  0  0  0  0  0  0  0  0
  -24.5381  -16.1790   20.9978 C   0  0  0  0  0  0  0  0  0  0  0  0
  -30.0226  -25.6226   18.9471 C   0  0  0  0  0  0  0  0  0  0  0  0
  -22.2526  -15.1897   21.2132 C   0  0  0  0  0  0  0  0  0  0  0  0
  -23.0139  -30.1393   22.7288 C   0  0  0  0  0  0  0  0  0  0  0  0
  -21.3302  -29.4598   20.0407 C   0  0  0  0  0  0  0  0  0  0  0  0
  -21.2842  -28.0672   16.9253 C   0  0  0  0  0  0  0  0  0  0  0  0
  -28.5511  -20.3562   19.5308 C   0  0  0  0  0  0  0  0  0  0  0  0
  -19.0586  -31.1561   25.7913 C   0  0  0  0  0  0  0  0  0  0  0  0
  -24.5346  -31.0536   20.9378 C   0  0  0  0  0  0  0  0  0  0  0  0
  -23.5756  -28.3346   20.2805 C   0  0  0  0  0  0  0  0  0  0  0  0
  -19.3999  -30.0719   24.7723 C   0  0  0  0  0  0  0  0  0  0  0  0
  -28.8397  -17.9484   22.1378 C   0  0  0  0  0  0  0  0  0  0  0  0
  -20.7984  -29.5196   25.0287 C   0  0  0  0  0  0  0  0  0  0  0  0
  -27.4070  -17.4443   22.3260 C   0  0  0  0  0  0  0  0  0  0  0  0
  -28.8781  -19.4418   21.8182 C   0  0  0  0  0  0  0  0  0  0  0  0
  -28.7324  -26.7348   17.7210 C   0  0  0  0  0  0  0  0  0  0  0  0
  -26.6029  -19.3528   20.8774 C   0  0  0  0  0  0  0  0  0  0  0  0
  -21.8602  -30.6161   24.8811 C   0  0  1  0  0  0  0  0  0  0  0  0
  -29.2238  -26.9237   19.1759 C   0  0  1  0  0  0  0  0  0  1  0  0
  -23.1272  -30.5891   21.2996 C   0  0  1  0  0  0  0  0  0  0  0  0
  -26.5096  -17.8403   21.1371 C   0  0  2  0  0  0  0  0  0  0  0  0
  -19.7540  -27.6316   14.9847 C   0  0  0  0  0  0  0  0  0  0  0  0
  -20.0225  -27.1776   21.5872 C   0  0  0  0  0  0  0  0  0  0  0  0
  -19.2610  -26.2251   19.4006 C   0  0  0  0  0  0  0  0  0  0  0  0
  -18.4629  -28.4749   20.1245 C   0  0  0  0  0  0  0  0  0  0  0  0
  -22.9482  -29.6956   15.0983 C   0  0  0  0  0  0  0  0  0  0  0  0
  -29.7702  -24.6065   16.6200 C   0  0  0  0  0  0  0  0  0  0  0  0
  -20.8583  -28.1944   19.3660 C   0  0  1  0  0  0  0  0  0  0  0  0
  -20.7658  -28.5877   15.5969 C   0  0  2  0  0  0  0  0  0  0  0  0
  -19.6788  -27.5229   20.1244 C   0  0  0  0  0  0  0  0  0  0  0  0
  -24.2008  -18.2279   21.9120 N   0  0  0  0  0  0  0  0  0  0  0  0
  -25.0763  -17.3850   21.3385 N   0  0  0  0  0  0  0  0  0  0  0  0
  -29.5858  -25.5605   17.6698 N   0  0  0  0  0  0  0  0  0  0  0  0
  -22.6665  -29.4780   20.4645 N   0  0  0  0  0  0  0  0  0  0  0  0
  -28.0080  -19.7417   20.6789 N   0  0  0  0  0  0  0  0  0  0  0  0
  -25.2788  -15.2147   20.4113 N   0  0  0  0  0  0  0  0  0  0  0  0
  -20.9420  -15.4157   21.6555 N   0  0  0  0  0  0  0  0  0  0  0  0
  -27.6354  -20.5626   18.4996 N   0  0  0  0  0  0  0  0  0  0  0  0
  -22.1235  -30.8797   23.4827 N   0  0  0  0  0  0  0  0  0  0  0  0
  -20.5524  -28.5571   17.9864 N   0  0  0  0  0  0  0  0  0  0  0  0
  -21.8903  -28.7615   14.6344 N   0  3  0  0  0  0  0  0  0  0  0  0
  -30.7441  -24.9125   19.6088 O   0  0  0  0  0  0  0  0  0  0  0  0
  -22.5470  -14.0805   20.7069 O   0  0  0  0  0  0  0  0  0  0  0  0
  -23.6835  -29.1898   23.1182 O   0  0  0  0  0  0  0  0  0  0  0  0
  -20.5441  -30.4001   20.1800 O   0  0  0  0  0  0  0  0  0  0  0  0
  -22.2401  -27.2996   17.0128 O   0  0  0  0  0  0  0  0  0  0  0  0
  -29.7467  -20.6511   19.4568 O   0  0  0  0  0  0  0  0  0  0  0  0
  -18.4069  -19.7472   24.0736 O   0  0  0  0  0  0  0  0  0  0  0  0
  -28.2267  -26.8177   20.2189 O   0  0  0  0  0  0  0  0  0  1  0  0
  -17.1586  -24.9289   22.6613 F   0  0  0  0  0  0  0  0  0  0  0  0
  -16.0377  -20.3315   22.7745 F   0  0  0  0  0  0  0  0  0  0  0  0
  1  2  1  0  0  0  0
  1  6  2  0  0  0  0
  2  7  2  0  0  0  0
  3  9  2  0  0  0  0
  3 10  1  0  0  0  0
  4 11  2  0  0  0  0
  4 19  1  0  0  0  0
  5 12  1  0  0  0  0
  5 19  2  0  0  0  0
  6 21  1  0  0  0  0
  7 23  1  0  0  0  0
  8 13  2  0  0  0  0
  8 22  1  0  0  0  0
  9 25  1  0  0  0  0
 10 26  2  0  0  0  0
 11 27  1  0  0  0  0
 12 27  2  0  0  0  0
 13 28  1  0  0  0  0
 14 15  2  0  0  0  0
 14 29  1  0  0  0  0
 15 30  1  0  0  0  0
 16 24  1  0  0  0  0
 16 28  2  0  0  0  0
 17 25  2  0  0  0  0
 17 26  1  0  0  0  0
 18 30  2  0  0  0  0
 18 31  1  0  0  0  0
 19 32  1  0  0  0  0
 20 32  1  0  0  0  0
 20 33  2  0  0  0  0
 20 35  1  0  0  0  0
 21 23  2  0  0  0  0
 21 40  1  0  0  0  0
 22 24  2  0  0  0  0
 22 41  1  0  0  0  0
 23 50  1  0  0  0  0
 24 42  1  0  0  0  0
 25 59  1  0  0  0  0
 26 70  1  0  0  0  0
 27 80  1  0  0  0  0
 28 81  1  0  0  0  0
 29 31  2  0  0  0  0
 29 80  1  0  0  0  0
 30 82  1  0  0  0  0
 31 83  1  0  0  0  0
 32 63  2  0  0  0  0
 33 64  1  0  0  0  0
 33 68  1  0  0  0  0
 34 51  1  0  0  0  0
 34 65  1  0  0  0  0
 34 74  2  0  0  0  0
 35 69  1  0  0  0  0
 35 75  2  0  0  0  0
 36 52  1  0  0  0  0
 36 71  1  0  0  0  0
 36 76  2  0  0  0  0
 37 60  1  0  0  0  0
 37 66  1  0  0  0  0
 37 77  2  0  0  0  0
 38 61  1  0  0  0  0
 38 72  1  0  0  0  0
 38 78  2  0  0  0  0
 39 67  1  0  0  0  0
 39 70  1  0  0  0  0
 39 79  2  0  0  0  0
 40 43  1  0  0  0  0
 41 52  1  0  0  0  0
 42 66  1  0  0  0  0
 43 45  1  0  0  0  0
 44 46  1  0  0  0  0
 44 47  1  0  0  0  0
 45 50  1  0  0  0  0
 46 53  1  0  0  0  0
 47 67  1  0  0  0  0
 48 51  1  0  0  0  0
 48 65  1  0  0  0  0
 49 53  1  0  0  0  0
 49 67  1  0  0  0  0
 50 71  1  0  0  0  0
 51 81  1  0  0  0  0
 52 66  1  0  0  0  0
 53 64  1  0  0  0  0
 54 61  1  0  0  0  0
 55 62  1  0  0  0  0
 56 62  1  0  0  0  0
 57 62  1  0  0  0  0
 58 73  1  0  0  0  0
 59 65  1  0  0  0  0
 60 62  1  0  0  0  0
 60 72  1  0  0  0  0
 61 73  1  0  0  0  0
 63 64  1  0  0  0  0
M  CHG  1  73   1
M  ISO  4  39 100  51 101  70 100  81 101
M  END
> <Batch ID>
0028

> <Smiles>
CNC(C)C(=O)NC(C(=O)N1Cc2cc([101O:1][101CH:1]3CN(Cc4cccc([100NH:0][100C:0](=O)N5CCCC(n6nc(-c7ccc(Oc8ccc(F)cc8F)cc7)c(C(N)=O)c6N)C5)c4)C3=O)ccc2CC1C(=O)NC1CCCc2ccccc21)C(C)(C)C

> <Shape>
0.172

> <Color>
0.141

> <Negative vol penalty>
0.000

$$$$

  -OEChem-04042321313D

 85 94  0     1  0  0  0  0  0999 V2000
  -24.9589  -16.9574   25.7663 C   0  0  0  0  0  0  0  0  0  0  0  0
  -25.9252  -17.8490   25.3115 C   0  0  0  0  0  0  0  0  0  0  0  0
  -26.3876  -12.5672   21.5516 C   0  0  0  0  0  0  0  0  0  0  0  0
  -25.9661  -13.3947   19.3212 C   0  0  0  0  0  0  0  0  0  0  0  0
  -23.6193  -17.1535   25.4334 C   0  0  0  0  0  0  0  0  0  0  0  0
  -25.5524  -18.9367   24.5227 C   0  0  0  0  0  0  0  0  0  0  0  0
  -28.0781  -24.5158   24.5144 C   0  0  0  0  0  0  0  0  0  0  0  0
  -29.2262  -23.1014   16.1286 C   0  0  0  0  0  0  0  0  0  0  0  0
  -28.2677  -22.0882   16.1114 C   0  0  0  0  0  0  0  0  0  0  0  0
  -25.1595  -11.9061   21.5385 C   0  0  0  0  0  0  0  0  0  0  0  0
  -24.7379  -12.7335   19.3080 C   0  0  0  0  0  0  0  0  0  0  0  0
  -29.0220  -25.1169   23.6829 C   0  0  0  0  0  0  0  0  0  0  0  0
  -23.8763   -9.0601   20.2398 C   0  0  0  0  0  0  0  0  0  0  0  0
  -23.8432   -7.7446   20.7024 C   0  0  0  0  0  0  0  0  0  0  0  0
  -27.2432  -26.1191   22.3982 C   0  0  0  0  0  0  0  0  0  0  0  0
  -30.1184  -22.2222   18.1945 C   0  0  0  0  0  0  0  0  0  0  0  0
  -22.2633   -8.3861   22.4139 C   0  0  0  0  0  0  0  0  0  0  0  0
  -26.7909  -13.3115   20.4430 C   0  0  0  0  0  0  0  0  0  0  0  0
  -29.3025  -13.4883   20.0330 C   0  0  0  0  0  0  0  0  0  0  0  0
  -23.2287  -18.2496   24.6481 C   0  0  0  0  0  0  0  0  0  0  0  0
  -26.7071  -24.7034   24.2871 C   0  0  0  0  0  0  0  0  0  0  0  0
  -24.2064  -19.1469   24.1779 C   0  0  0  0  0  0  0  0  0  0  0  0
  -26.2839  -25.5214   23.2299 C   0  0  0  0  0  0  0  0  0  0  0  0
  -30.1516  -23.1684   17.1702 C   0  0  0  0  0  0  0  0  0  0  0  0
  -28.2345  -21.1420   17.1357 C   0  0  0  0  0  0  0  0  0  0  0  0
  -29.1599  -21.2090   18.1773 C   0  0  0  0  0  0  0  0  0  0  0  0
  -24.3346  -11.9892   20.4167 C   0  0  0  0  0  0  0  0  0  0  0  0
  -28.6046  -25.9163   22.6228 C   0  0  0  0  0  0  0  0  0  0  0  0
  -23.1029  -10.0387   20.8643 C   0  0  0  0  0  0  0  0  0  0  0  0
  -23.0367   -7.4076   21.7894 C   0  0  0  0  0  0  0  0  0  0  0  0
  -22.2964   -9.7017   21.9514 C   0  0  0  0  0  0  0  0  0  0  0  0
  -28.0592  -13.9951   20.4562 C   0  0  0  0  0  0  0  0  0  0  0  0
  -30.1846  -14.5190   20.2477 C   0  0  0  0  0  0  0  0  0  0  0  0
  -30.1322  -26.4057   18.0811 C   0  0  0  0  0  0  0  0  0  0  0  0
  -29.6308  -12.2010   19.4938 C   0  0  0  0  0  0  0  0  0  0  0  0
  -24.2693  -22.7919   23.5752 C   0  0  0  0  0  0  0  0  0  0  0  0
  -22.5330  -25.5022   23.9772 C   0  0  0  0  0  0  0  0  0  0  0  0
  -22.4460  -28.9138   23.9781 C   0  0  0  0  0  0  0  0  0  0  0  0
  -29.5353  -20.4513   20.5504 C   0  0  0  0  0  0  0  0  0  0  0  0
  -21.7745  -18.3936   24.2748 C   0  0  0  0  0  0  0  0  0  0  0  0
  -25.7020  -24.0697   25.2094 C   0  0  0  0  0  0  0  0  0  0  0  0
  -24.8241  -25.7709   22.9555 C   0  0  0  0  0  0  0  0  0  0  0  0
  -21.4158  -19.7803   23.7467 C   0  0  0  0  0  0  0  0  0  0  0  0
  -30.8809  -18.3252   23.0695 C   0  0  0  0  0  0  0  0  0  0  0  0
  -22.4420  -20.2412   22.7166 C   0  0  0  0  0  0  0  0  0  0  0  0
  -30.4283  -16.9267   22.6434 C   0  0  0  0  0  0  0  0  0  0  0  0
  -29.8161  -19.3802   22.7750 C   0  0  0  0  0  0  0  0  0  0  0  0
  -31.1628  -25.3354   19.5671 C   0  0  0  0  0  0  0  0  0  0  0  0
  -28.8742  -18.0004   20.9644 C   0  0  0  0  0  0  0  0  0  0  0  0
  -23.8384  -20.3526   23.3406 C   0  0  1  0  0  0  0  0  0  0  0  0
  -30.3816  -26.6773   19.5837 C   0  0  2  0  0  0  0  0  0  0  0  0
  -24.3238  -23.9129   24.5742 C   0  0  1  0  0  0  0  0  0  0  0  0
  -29.9397  -16.9136   21.1817 C   0  0  2  0  0  0  0  0  0  0  0  0
  -27.1961  -20.0684   17.0918 C   0  0  0  0  0  0  0  0  0  0  0  0
  -20.8762  -30.8443   24.3042 C   0  0  0  0  0  0  0  0  0  0  0  0
  -21.3558  -25.0100   21.2055 C   0  0  0  0  0  0  0  0  0  0  0  0
  -20.5655  -27.3856   21.1957 C   0  0  0  0  0  0  0  0  0  0  0  0
  -19.7074  -25.7946   22.9147 C   0  0  0  0  0  0  0  0  0  0  0  0
  -23.9947  -29.9339   26.2846 C   0  0  0  0  0  0  0  0  0  0  0  0
  -31.1831  -24.2592   17.1878 C   0  0  0  0  0  0  0  0  0  0  0  0
  -29.1406  -26.7303   20.4535 C   0  0  0  0  0  0  0  0  0  1  0  0
  -22.0880  -26.6301   23.0778 C   0  0  1  0  0  0  0  0  0  0  0  0
  -21.8700  -29.9065   24.9717 C   0  0  2  0  0  0  0  0  0  0  0  0
  -20.9567  -26.1990   22.1022 C   0  0  0  0  0  0  0  0  0  0  0  0
  -28.1401  -15.2502   20.9060 N   0  0  0  0  0  0  0  0  0  0  0  0
  -29.4448  -15.5406   20.7667 N   0  0  0  0  0  0  0  0  0  0  0  0
  -30.8709  -25.2757   18.1447 N   0  0  0  0  0  0  0  0  0  0  0  0
  -23.8797  -25.1241   23.8814 N   0  0  0  0  0  0  0  0  0  0  0  0
  -29.4047  -19.3111   21.3711 N   0  0  0  0  0  0  0  0  0  0  0  0
  -31.5130  -14.6420   20.0415 N   0  0  0  0  0  0  0  0  0  0  0  0
  -28.6040  -11.2597   19.3394 N   0  0  0  0  0  0  0  0  0  0  0  0
  -29.1428  -20.2568   19.2265 N   0  0  0  0  0  0  0  0  0  0  0  0
  -23.9469  -21.5650   24.1233 N   0  0  0  0  0  0  0  0  0  0  0  0
  -21.7285  -27.7365   23.9580 N   0  0  0  0  0  0  0  0  0  0  0  0
  -22.9584  -30.7269   25.5745 N   0  3  0  0  0  0  0  0  0  0  0  0
  -29.5269  -26.9459   17.1841 O   0  0  0  0  0  0  0  0  0  0  0  0
  -30.8029  -11.8888   19.1742 O   0  0  0  0  0  0  0  0  0  0  0  0
  -24.5010  -23.0231   22.3943 O   0  0  0  0  0  0  0  0  0  0  0  0
  -21.7174  -24.9808   24.7418 O   0  0  0  0  0  0  0  0  0  0  0  0
  -23.4315  -29.1597   23.2861 O   0  0  0  0  0  0  0  0  0  0  0  0
  -29.9894  -21.5137   20.9829 O   0  0  0  0  0  0  0  0  0  0  0  0
  -23.1362  -11.3441   20.4034 O   0  0  0  0  0  0  0  0  0  0  0  0
  -29.5238  -26.5037   21.8093 O   0  0  0  0  0  0  0  0  0  1  0  0
  -23.0039   -6.1440   22.2325 F   0  0  0  0  0  0  0  0  0  0  0  0
  -21.5503  -10.6372   22.5547 F   0  0  0  0  0  0  0  0  0  0  0  0
  1  2  1  0  0  0  0
  1  5  2  0  0  0  0
  2  6  2  0  0  0  0
  3 10  2  0  0  0  0
  3 18  1  0  0  0  0
  4 11  1  0  0  0  0
  4 18  2  0  0  0  0
  5 20  1  0  0  0  0
  6 22  1  0  0  0  0
  7 12  2  0  0  0  0
  7 21  1  0  0  0  0
  8  9  2  0  0  0  0
  8 24  1  0  0  0  0
  9 25  1  0  0  0  0
 10 27  1  0  0  0  0
 11 27  2  0  0  0  0
 12 28  1  0  0  0  0
 13 14  2  0  0  0  0
 13 29  1  0  0  0  0
 14 30  1  0  0  0  0
 15 23  1  0  0  0  0
 15 28  2  0  0  0  0
 16 24  2  0  0  0  0
 16 26  1  0  0  0  0
 17 30  2  0  0  0  0
 17 31  1  0  0  0  0
 18 32  1  0  0  0  0
 19 32  1  0  0  0  0
 19 33  2  0  0  0  0
 19 35  1  0  0  0  0
 20 22  2  0  0  0  0
 20 40  1  0  0  0  0
 21 23  2  0  0  0  0
 21 41  1  0  0  0  0
 22 50  1  0  0  0  0
 23 42  1  0  0  0  0
 24 60  1  0  0  0  0
 25 26  2  0  0  0  0
 25 54  1  0  0  0  0
 26 72  1  0  0  0  0
 27 82  1  0  0  0  0
 28 83  1  0  0  0  0
 29 31  2  0  0  0  0
 29 82  1  0  0  0  0
 30 84  1  0  0  0  0
 31 85  1  0  0  0  0
 32 65  2  0  0  0  0
 33 66  1  0  0  0  0
 33 70  1  0  0  0  0
 34 51  1  0  0  0  0
 34 67  1  0  0  0  0
 34 76  2  0  0  0  0
 35 71  1  0  0  0  0
 35 77  2  0  0  0  0
 36 52  1  0  0  0  0
 36 73  1  0  0  0  0
 36 78  2  0  0  0  0
 37 62  1  0  0  0  0
 37 68  1  0  0  0  0
 37 79  2  0  0  0  0
 38 63  1  0  0  0  0
 38 74  1  0  0  0  0
 38 80  2  0  0  0  0
 39 69  1  0  0  0  0
 39 72  1  0  0  0  0
 39 81  2  0  0  0  0
 40 43  1  0  0  0  0
 41 52  1  0  0  0  0
 42 68  1  0  0  0  0
 43 45  1  0  0  0  0
 44 46  1  0  0  0  0
 44 47  1  0  0  0  0
 45 50  1  0  0  0  0
 46 53  1  0  0  0  0
 47 69  1  0  0  0  0
 48 51  1  0  0  0  0
 48 67  1  0  0  0  0
 49 53  1  0  0  0  0
 49 69  1  0  0  0  0
 50 73  1  0  0  0  0
 51 61  1  0  0  0  0
 52 68  1  0  0  0  0
 53 66  1  0  0  0  0
 55 63  1  0  0  0  0
 56 64  1  0  0  0  0
 57 64  1  0  0  0  0
 58 64  1  0  0  0  0
 59 75  1  0  0  0  0
 60 67  1  0  0  0  0
 61 83  1  0  0  0  0
 62 64  1  0  0  0  0
 62 74  1  0  0  0  0
 63 75  1  0  0  0  0
 65 66  1  0  0  0  0
M  CHG  1  75   1
M  ISO  4  39 100  61 101  72 100  83 101
M  END
> <Batch ID>
0028

> <Smiles>
CNC(C)C(=O)NC(C(=O)N1Cc2cc([101O:1][101CH2:1]C3CN(Cc4ccc(C)c([100NH:0][100C:0](=O)N5CCCC(n6nc(-c7ccc(Oc8ccc(F)cc8F)cc7)c(C(N)=O)c6N)C5)c4)C3=O)ccc2CC1C(=O)NC1CCCc2ccccc21)C(C)(C)C

> <Shape>
0.241

> <Color>
0.067

> <Negative vol penalty>
0.000

$$$$

  -OEChem-04042321313D

 87 96  0     1  0  0  0  0  0999 V2000
  -29.4056  -33.5380   26.7559 C   0  0  0  0  0  0  0  0  0  0  0  0
  -29.5107  -32.4984   25.8374 C   0  0  0  0  0  0  0  0  0  0  0  0
  -24.7881   -8.3375   21.5829 C   0  0  0  0  0  0  0  0  0  0  0  0
  -23.1657   -9.7297   20.4574 C   0  0  0  0  0  0  0  0  0  0  0  0
  -28.1652  -33.8578   27.3063 C   0  0  0  0  0  0  0  0  0  0  0  0
  -28.3753  -31.7771   25.4697 C   0  0  0  0  0  0  0  0  0  0  0  0
  -27.1593  -29.3798   19.9669 C   0  0  0  0  0  0  0  0  0  0  0  0
  -23.7843   -7.8384   22.4127 C   0  0  0  0  0  0  0  0  0  0  0  0
  -22.1617   -9.2305   21.2873 C   0  0  0  0  0  0  0  0  0  0  0  0
  -27.3004  -28.0915   19.4531 C   0  0  0  0  0  0  0  0  0  0  0  0
  -21.2957   -5.5576   22.2173 C   0  0  0  0  0  0  0  0  0  0  0  0
  -21.2606   -4.1805   22.4360 C   0  0  0  0  0  0  0  0  0  0  0  0
  -24.9848  -27.6426   19.9588 C   0  0  0  0  0  0  0  0  0  0  0  0
  -26.7522  -18.3975   19.1231 C   0  0  0  0  0  0  0  0  0  0  0  0
  -21.5484   -4.5496   24.8062 C   0  0  0  0  0  0  0  0  0  0  0  0
  -24.2971  -18.4195   17.7984 C   0  0  0  0  0  0  0  0  0  0  0  0
  -24.4789   -9.2832   20.6052 C   0  0  0  0  0  0  0  0  0  0  0  0
  -25.9300   -9.2799   18.5072 C   0  0  0  0  0  0  0  0  0  0  0  0
  -27.0125  -33.1464   26.9377 C   0  0  0  0  0  0  0  0  0  0  0  0
  -25.9307  -29.8063   20.4914 C   0  0  0  0  0  0  0  0  0  0  0  0
  -27.1185  -32.0868   26.0166 C   0  0  0  0  0  0  0  0  0  0  0  0
  -24.8300  -28.9377   20.4764 C   0  0  0  0  0  0  0  0  0  0  0  0
  -26.0305  -19.5859   19.0116 C   0  0  0  0  0  0  0  0  0  0  0  0
  -26.2464  -17.2201   18.5721 C   0  0  0  0  0  0  0  0  0  0  0  0
  -22.4711   -8.2848   22.2649 C   0  0  0  0  0  0  0  0  0  0  0  0
  -26.2139  -27.2217   19.4516 C   0  0  0  0  0  0  0  0  0  0  0  0
  -21.4573   -6.4308   23.2930 C   0  0  0  0  0  0  0  0  0  0  0  0
  -21.3869   -3.6764   23.7304 C   0  0  0  0  0  0  0  0  0  0  0  0
  -24.8029  -19.5969   18.3493 C   0  0  0  0  0  0  0  0  0  0  0  0
  -25.0188  -17.2311   17.9099 C   0  0  0  0  0  0  0  0  0  0  0  0
  -21.5836   -5.9267   24.5875 C   0  0  0  0  0  0  0  0  0  0  0  0
  -25.5155   -9.7996   19.7481 C   0  0  0  0  0  0  0  0  0  0  0  0
  -26.9347  -10.1232   18.1000 C   0  0  0  0  0  0  0  0  0  0  0  0
  -25.4496   -8.1370   17.7869 C   0  0  0  0  0  0  0  0  0  0  0  0
  -24.9260  -30.7757   23.3470 C   0  0  0  0  0  0  0  0  0  0  0  0
  -22.1737  -31.3819   21.7408 C   0  0  0  0  0  0  0  0  0  0  0  0
  -20.1760  -30.7057   19.0577 C   0  0  0  0  0  0  0  0  0  0  0  0
  -28.2144  -15.8326   19.3124 C   0  0  0  0  0  0  0  0  0  0  0  0
  -25.7014  -33.4977   27.5952 C   0  0  0  0  0  0  0  0  0  0  0  0
  -25.7876  -31.2081   21.0175 C   0  0  0  0  0  0  0  0  0  0  0  0
  -23.4841  -29.3538   21.0092 C   0  0  0  0  0  0  0  0  0  0  0  0
  -24.4846  -32.9287   26.8700 C   0  0  0  0  0  0  0  0  0  0  0  0
  -30.3298  -13.0177   19.8406 C   0  0  0  0  0  0  0  0  0  0  0  0
  -28.9319  -22.2701   16.9498 C   0  0  0  0  0  0  0  0  0  0  0  0
  -24.7099  -31.4613   26.5196 C   0  0  0  0  0  0  0  0  0  0  0  0
  -28.9418  -23.7324   17.3830 C   0  0  0  0  0  0  0  0  0  0  0  0
  -29.3740  -11.8253   19.7578 C   0  0  0  0  0  0  0  0  0  0  0  0
  -29.6762  -14.2226   20.5150 C   0  0  0  0  0  0  0  0  0  0  0  0
  -27.4344  -13.4426   19.8556 C   0  0  0  0  0  0  0  0  0  0  0  0
  -28.4792  -21.3510   18.0741 C   0  0  0  0  0  0  0  0  0  0  0  0
  -27.1382  -23.2223   19.0744 C   0  0  0  0  0  0  0  0  0  0  0  0
  -25.9057  -31.2973   25.5739 C   0  0  1  0  0  0  0  0  0  0  0  0
  -24.6281  -31.3634   21.9967 C   0  0  1  0  0  0  0  0  0  0  0  0
  -27.5814  -24.1568   17.9474 C   0  0  1  0  0  0  0  0  0  0  0  0
  -28.0266  -12.2260   19.1257 C   0  0  2  0  0  0  0  0  0  0  0  0
  -17.9710  -31.3315   18.0362 C   0  0  0  0  0  0  0  0  0  0  0  0
  -20.7287  -29.6930   23.8311 C   0  0  0  0  0  0  0  0  0  0  0  0
  -18.7727  -29.5643   22.2736 C   0  0  0  0  0  0  0  0  0  0  0  0
  -19.5197  -31.7752   23.1548 C   0  0  0  0  0  0  0  0  0  0  0  0
  -21.4711  -31.7088   16.5929 C   0  0  0  0  0  0  0  0  0  0  0  0
  -26.5770  -20.8508   19.6052 C   0  0  0  0  0  0  0  0  0  0  0  0
  -27.6325  -25.6006   18.4438 C   0  0  0  0  0  0  0  0  0  1  0  0
  -20.9275  -30.5928   21.4193 C   0  0  1  0  0  0  0  0  0  0  0  0
  -19.4638  -31.6192   18.0766 C   0  0  2  0  0  0  0  0  0  0  0  0
  -20.0129  -30.3975   22.6614 C   0  0  0  0  0  0  0  0  0  0  0  0
  -26.2011  -10.8887   20.1058 N   0  0  0  0  0  0  0  0  0  0  0  0
  -27.0565  -11.0601   19.0836 N   0  0  0  0  0  0  0  0  0  0  0  0
  -23.3962  -30.7323   21.5186 N   0  0  0  0  0  0  0  0  0  0  0  0
  -28.4068  -14.5467   19.8605 N   0  0  0  0  0  0  0  0  0  0  0  0
  -27.7172  -10.1472   17.0002 N   0  0  0  0  0  0  0  0  0  0  0  0
  -24.4120   -7.3807   18.3489 N   0  0  0  0  0  0  0  0  0  0  0  0
  -26.9814  -16.0141   18.6869 N   0  0  0  0  0  0  0  0  0  0  0  0
  -25.5338  -31.6557   24.2220 N   0  0  0  0  0  0  0  0  0  0  0  0
  -20.2841  -31.2818   20.3058 N   0  0  0  0  0  0  0  0  0  0  0  0
  -27.1263  -21.7970   18.5728 N   0  3  2  0  0  0  0  0  0  0  0  0
  -20.0150  -31.4358   16.7042 N   0  3  0  0  0  0  0  0  0  0  0  0
  -25.9375   -7.7869   16.6856 O   0  0  0  0  0  0  0  0  0  0  0  0
  -24.6252  -29.6105   23.5785 O   0  0  0  0  0  0  0  0  0  0  0  0
  -22.0666  -32.5347   22.1663 O   0  0  0  0  0  0  0  0  0  0  0  0
  -20.5914  -29.5909   18.7489 O   0  0  0  0  0  0  0  0  0  0  0  0
  -29.0903  -16.6996   19.3683 O   0  0  0  0  0  0  0  0  0  0  0  0
  -21.4912   -7.7978   23.0743 O   0  0  0  0  0  0  0  0  0  0  0  0
  -26.3491  -25.9634   18.9513 O   0  0  0  0  0  0  0  0  0  1  0  0
  -21.3516   -2.3540   23.9405 F   0  0  0  0  0  0  0  0  0  0  0  0
  -24.1018  -20.7339   18.2379 F   0  0  0  0  0  0  0  0  0  0  0  0
  -24.5232  -16.1057   17.3759 F   0  0  0  0  0  0  0  0  0  0  0  0
  -21.7378   -6.7607   25.6251 F   0  0  0  0  0  0  0  0  0  0  0  0
  1  2  1  0  0  0  0
  1  5  2  0  0  0  0
  2  6  2  0  0  0  0
  3  8  2  0  0  0  0
  3 17  1  0  0  0  0
  4  9  1  0  0  0  0
  4 17  2  0  0  0  0
  5 19  1  0  0  0  0
  6 21  1  0  0  0  0
  7 10  2  0  0  0  0
  7 20  1  0  0  0  0
  8 25  1  0  0  0  0
  9 25  2  0  0  0  0
 10 26  1  0  0  0  0
 11 12  2  0  0  0  0
 11 27  1  0  0  0  0
 12 28  1  0  0  0  0
 13 22  1  0  0  0  0
 13 26  2  0  0  0  0
 14 23  1  0  0  0  0
 14 24  2  0  0  0  0
 15 28  2  0  0  0  0
 15 31  1  0  0  0  0
 16 29  1  0  0  0  0
 16 30  2  0  0  0  0
 17 32  1  0  0  0  0
 18 32  1  0  0  0  0
 18 33  2  0  0  0  0
 18 34  1  0  0  0  0
 19 21  2  0  0  0  0
 19 39  1  0  0  0  0
 20 22  2  0  0  0  0
 20 40  1  0  0  0  0
 21 52  1  0  0  0  0
 22 41  1  0  0  0  0
 23 29  2  0  0  0  0
 23 61  1  0  0  0  0
 24 30  1  0  0  0  0
 24 72  1  0  0  0  0
 25 82  1  0  0  0  0
 26 83  1  0  0  0  0
 27 31  2  0  0  0  0
 27 82  1  0  0  0  0
 28 84  1  0  0  0  0
 29 85  1  0  0  0  0
 30 86  1  0  0  0  0
 31 87  1  0  0  0  0
 32 66  2  0  0  0  0
 33 67  1  0  0  0  0
 33 70  1  0  0  0  0
 34 71  1  0  0  0  0
 34 77  2  0  0  0  0
 35 53  1  0  0  0  0
 35 73  1  0  0  0  0
 35 78  2  0  0  0  0
 36 63  1  0  0  0  0
 36 68  1  0  0  0  0
 36 79  2  0  0  0  0
 37 64  1  0  0  0  0
 37 74  1  0  0  0  0
 37 80  2  0  0  0  0
 38 69  1  0  0  0  0
 38 72  1  0  0  0  0
 38 81  2  0  0  0  0
 39 42  1  0  0  0  0
 40 53  1  0  0  0  0
 41 68  1  0  0  0  0
 42 45  1  0  0  0  0
 43 47  1  0  0  0  0
 43 48  1  0  0  0  0
 44 46  1  0  0  0  0
 44 50  1  0  0  0  0
 45 52  1  0  0  0  0
 46 54  1  0  0  0  0
 47 55  1  0  0  0  0
 48 69  1  0  0  0  0
 49 55  1  0  0  0  0
 49 69  1  0  0  0  0
 50 75  1  0  0  0  0
 51 54  1  0  0  0  0
 51 75  1  0  0  0  0
 52 73  1  0  0  0  0
 53 68  1  0  0  0  0
 54 62  1  0  0  0  0
 55 67  1  0  0  0  0
 56 64  1  0  0  0  0
 57 65  1  0  0  0  0
 58 65  1  0  0  0  0
 59 65  1  0  0  0  0
 60 76  1  0  0  0  0
 61 75  1  0  0  0  0
 62 83  1  0  0  0  0
 63 65  1  0  0  0  0
 63 74  1  0  0  0  0
 64 76  1  0  0  0  0
 66 67  1  0  0  0  0
M  CHG  2  75   1  76   1
M  ISO  4  38 100  62 101  72 100  83 101
M  END
> <Batch ID>
0028

> <Smiles>
CNC(C)C(=O)NC(C(=O)N1Cc2cc([101O:1][101CH2:1]C3CCCN(Cc4cc([100NH:0][100C:0](=O)N5CCCC(n6nc(-c7ccc(Oc8ccc(F)cc8F)cc7)c(C(N)=O)c6N)C5)c(F)cc4F)C3)ccc2CC1C(=O)NC1CCCc2ccccc21)C(C)(C)C

> <Shape>
0.282

> <Color>
0.094

> <Negative vol penalty>
0.000

$$$$

  -OEChem-04042321313D

 85 94  0     1  0  0  0  0  0999 V2000
  -19.2462  -27.7708   23.3028 C   0  0  0  0  0  0  0  0  0  0  0  0
  -20.5205  -27.2125   23.3001 C   0  0  0  0  0  0  0  0  0  0  0  0
  -32.6785  -18.3925   22.2456 C   0  0  0  0  0  0  0  0  0  0  0  0
  -23.2766  -10.2791   22.2652 C   0  0  0  0  0  0  0  0  0  0  0  0
  -23.5590   -9.5937   19.9658 C   0  0  0  0  0  0  0  0  0  0  0  0
  -18.3925  -27.5617   22.2205 C   0  0  0  0  0  0  0  0  0  0  0  0
  -20.9413  -26.4439   22.2154 C   0  0  0  0  0  0  0  0  0  0  0  0
  -26.6099  -26.1053   19.9222 C   0  0  0  0  0  0  0  0  0  0  0  0
  -31.6644  -19.3501   22.2512 C   0  0  0  0  0  0  0  0  0  0  0  0
  -32.3592  -17.0391   22.1354 C   0  0  0  0  0  0  0  0  0  0  0  0
  -22.4916   -9.1513   22.5050 C   0  0  0  0  0  0  0  0  0  0  0  0
  -22.7740   -8.4658   20.2056 C   0  0  0  0  0  0  0  0  0  0  0  0
  -27.6375  -25.1789   20.0942 C   0  0  0  0  0  0  0  0  0  0  0  0
  -19.3083   -8.1665   21.9384 C   0  0  0  0  0  0  0  0  0  0  0  0
  -18.1265   -8.3416   22.6582 C   0  0  0  0  0  0  0  0  0  0  0  0
  -26.9494  -24.0500   18.0764 C   0  0  0  0  0  0  0  0  0  0  0  0
  -18.9310   -6.8159   24.3501 C   0  0  0  0  0  0  0  0  0  0  0  0
  -23.8103  -10.5003   20.9956 C   0  0  0  0  0  0  0  0  0  0  0  0
  -24.2381  -13.0129   20.8873 C   0  0  0  0  0  0  0  0  0  0  0  0
  -18.8066  -26.7982   21.1177 C   0  0  0  0  0  0  0  0  0  0  0  0
  -25.7361  -26.0044   18.8300 C   0  0  0  0  0  0  0  0  0  0  0  0
  -20.0919  -26.2233   21.1179 C   0  0  0  0  0  0  0  0  0  0  0  0
  -25.9131  -24.9779   17.8914 C   0  0  0  0  0  0  0  0  0  0  0  0
  -30.3309  -18.9545   22.1467 C   0  0  0  0  0  0  0  0  0  0  0  0
  -30.0116  -17.6011   22.0365 C   0  0  0  0  0  0  0  0  0  0  0  0
  -31.0257  -16.6434   22.0309 C   0  0  0  0  0  0  0  0  0  0  0  0
  -22.2403   -8.2447   21.4752 C   0  0  0  0  0  0  0  0  0  0  0  0
  -27.8056  -24.1494   19.1728 C   0  0  0  0  0  0  0  0  0  0  0  0
  -20.3015   -7.3161   22.4243 C   0  0  0  0  0  0  0  0  0  0  0  0
  -17.9378   -7.6663   23.8641 C   0  0  0  0  0  0  0  0  0  0  0  0
  -20.1128   -6.6409   23.6302 C   0  0  0  0  0  0  0  0  0  0  0  0
  -24.6208  -11.6654   20.7471 C   0  0  0  0  0  0  0  0  0  0  0  0
  -25.3572  -13.7263   20.5336 C   0  0  0  0  0  0  0  0  0  0  0  0
  -30.5434  -14.9053   24.2784 C   0  0  0  0  0  0  0  0  0  0  0  0
  -30.4932  -14.4377   23.0291 C   0  0  0  0  0  0  0  0  0  0  0  0
  -22.9832  -13.5699   21.3005 C   0  0  0  0  0  0  0  0  0  0  0  0
  -22.6071  -25.5563   18.4947 C   0  0  0  0  0  0  0  0  0  0  0  0
  -23.2634  -26.0738   15.3604 C   0  0  0  0  0  0  0  0  0  0  0  0
  -25.5577  -26.0256   12.8343 C   0  0  0  0  0  0  0  0  0  0  0  0
  -30.8025  -14.6152   20.6420 C   0  0  0  0  0  0  0  0  0  0  0  0
  -17.8314  -26.5605   19.9920 C   0  0  0  0  0  0  0  0  0  0  0  0
  -24.6491  -27.0273   18.6442 C   0  0  0  0  0  0  0  0  0  0  0  0
  -25.0146  -24.8374   16.6908 C   0  0  0  0  0  0  0  0  0  0  0  0
  -18.4895  -26.0452   18.7147 C   0  0  0  0  0  0  0  0  0  0  0  0
  -29.6609  -12.2471   18.3448 C   0  0  0  0  0  0  0  0  0  0  0  0
  -19.4638  -24.9158   19.0343 C   0  0  0  0  0  0  0  0  0  0  0  0
  -28.2174  -11.9840   18.7726 C   0  0  0  0  0  0  0  0  0  0  0  0
  -30.5726  -12.3949   19.5575 C   0  0  0  0  0  0  0  0  0  0  0  0
  -28.6956  -13.2103   20.9487 C   0  0  0  0  0  0  0  0  0  0  0  0
  -27.8092  -21.4414   20.8061 C   0  0  0  0  0  0  0  0  0  0  0  0
  -29.6284  -20.9267   19.9184 C   0  0  0  0  0  0  0  0  0  0  0  0
  -20.5938  -25.4042   19.9487 C   0  0  1  0  0  0  0  0  0  0  0  0
  -23.5000  -26.5268   17.7745 C   0  0  1  0  0  0  0  0  0  0  0  0
  -27.7282  -13.0605   19.7573 C   0  0  2  0  0  0  0  0  0  0  0  0
  -28.4790  -21.8523   19.4828 C   0  0  0  0  0  0  0  0  0  1  0  0
  -28.5794  -17.1814   21.9245 C   0  0  0  0  0  0  0  0  0  0  0  0
  -25.7888  -26.4649   10.3745 C   0  0  0  0  0  0  0  0  0  0  0  0
  -21.8575  -23.4333   14.7591 C   0  0  0  0  0  0  0  0  0  0  0  0
  -22.9297  -23.4578   12.4968 C   0  0  0  0  0  0  0  0  0  0  0  0
  -21.3503  -25.2762   13.1462 C   0  0  0  0  0  0  0  0  0  0  0  0
  -27.5584  -28.1592   13.2855 C   0  0  0  0  0  0  0  0  0  0  0  0
  -29.2599  -20.0051   22.1552 C   0  0  0  0  0  0  0  0  0  0  0  0
  -23.6513  -25.2012   14.1911 C   0  0  1  0  0  0  0  0  0  0  0  0
  -25.9082  -27.0520   11.7723 C   0  0  2  0  0  0  0  0  0  0  0  0
  -22.4631  -24.3434   13.6719 C   0  0  0  0  0  0  0  0  0  0  0  0
  -25.8843  -11.5283   20.3362 N   0  0  0  0  0  0  0  0  0  0  0  0
  -26.3052  -12.7989   20.2151 N   0  0  0  0  0  0  0  0  0  0  0  0
  -23.9625  -25.8585   16.5565 N   0  0  0  0  0  0  0  0  0  0  0  0
  -30.0715  -13.4228   20.4704 N   0  0  0  0  0  0  0  0  0  0  0  0
  -25.6129  -15.0501   20.4670 N   0  0  0  0  0  0  0  0  0  0  0  0
  -22.0188  -13.8436   20.3210 N   0  0  0  0  0  0  0  0  0  0  0  0
  -21.5714  -26.1528   19.1882 N   0  0  0  0  0  0  0  0  0  0  0  0
  -24.2271  -26.0926   13.1900 N   0  0  0  0  0  0  0  0  0  0  0  0
  -30.7176  -15.2328   21.9169 N   0  0  0  0  0  0  0  0  0  0  0  0
  -28.6765  -20.2489   20.8178 N   0  3  0  0  0  0  0  0  0  0  0  0
  -27.3050  -27.5362   11.9609 N   0  3  0  0  0  0  0  0  0  0  0  0
  -22.7309  -13.8328   22.5008 O   0  0  0  0  0  0  0  0  0  0  0  0
  -22.8397  -24.3552   18.4249 O   0  0  0  0  0  0  0  0  0  0  0  0
  -22.3777  -26.9201   15.2157 O   0  0  0  0  0  0  0  0  0  0  0  0
  -26.3809  -25.2402   13.2991 O   0  0  0  0  0  0  0  0  0  0  0  0
  -31.4993  -15.0881   19.7347 O   0  0  0  0  0  0  0  0  0  0  0  0
  -21.4746   -7.1440   21.7089 O   0  0  0  0  0  0  0  0  0  0  0  0
  -28.8075  -23.2434   19.3387 O   0  0  0  0  0  0  0  0  0  1  0  0
  -16.8035   -7.8357   24.5560 F   0  0  0  0  0  0  0  0  0  0  0  0
  -21.0639   -5.8235   24.1027 F   0  0  0  0  0  0  0  0  0  0  0  0
  1  2  1  0  0  0  0
  1  6  2  0  0  0  0
  2  7  2  0  0  0  0
  3  9  1  0  0  0  0
  3 10  2  0  0  0  0
  4 11  2  0  0  0  0
  4 18  1  0  0  0  0
  5 12  1  0  0  0  0
  5 18  2  0  0  0  0
  6 20  1  0  0  0  0
  7 22  1  0  0  0  0
  8 13  2  0  0  0  0
  8 21  1  0  0  0  0
  9 24  2  0  0  0  0
 10 26  1  0  0  0  0
 11 27  1  0  0  0  0
 12 27  2  0  0  0  0
 13 28  1  0  0  0  0
 14 15  2  0  0  0  0
 14 29  1  0  0  0  0
 15 30  1  0  0  0  0
 16 23  1  0  0  0  0
 16 28  2  0  0  0  0
 17 30  2  0  0  0  0
 17 31  1  0  0  0  0
 18 32  1  0  0  0  0
 19 32  1  0  0  0  0
 19 33  2  0  0  0  0
 19 36  1  0  0  0  0
 20 22  2  0  0  0  0
 20 41  1  0  0  0  0
 21 23  2  0  0  0  0
 21 42  1  0  0  0  0
 22 52  1  0  0  0  0
 23 43  1  0  0  0  0
 24 25  1  0  0  0  0
 24 62  1  0  0  0  0
 25 26  2  0  0  0  0
 25 56  1  0  0  0  0
 26 74  1  0  0  0  0
 27 82  1  0  0  0  0
 28 83  1  0  0  0  0
 29 31  2  0  0  0  0
 29 82  1  0  0  0  0
 30 84  1  0  0  0  0
 31 85  1  0  0  0  0
 32 66  2  0  0  0  0
 33 67  1  0  0  0  0
 33 70  1  0  0  0  0
 34 35  2  0  0  0  0
 35 74  1  0  0  0  0
 36 71  1  0  0  0  0
 36 77  2  0  0  0  0
 37 53  1  0  0  0  0
 37 72  1  0  0  0  0
 37 78  2  0  0  0  0
 38 63  1  0  0  0  0
 38 68  1  0  0  0  0
 38 79  2  0  0  0  0
 39 64  1  0  0  0  0
 39 73  1  0  0  0  0
 39 80  2  0  0  0  0
 40 69  1  0  0  0  0
 40 74  1  0  0  0  0
 40 81  2  0  0  0  0
 41 44  1  0  0  0  0
 42 53  1  0  0  0  0
 43 68  1  0  0  0  0
 44 46  1  0  0  0  0
 45 47  1  0  0  0  0
 45 48  1  0  0  0  0
 46 52  1  0  0  0  0
 47 54  1  0  0  0  0
 48 69  1  0  0  0  0
 49 54  1  0  0  0  0
 49 69  1  0  0  0  0
 50 55  1  0  0  0  0
 50 75  1  0  0  0  0
 51 55  1  0  0  0  0
 51 75  1  0  0  0  0
 52 72  1  0  0  0  0
 53 68  1  0  0  0  0
 54 67  1  0  0  0  0
 55 83  1  0  0  0  0
 57 64  1  0  0  0  0
 58 65  1  0  0  0  0
 59 65  1  0  0  0  0
 60 65  1  0  0  0  0
 61 76  1  0  0  0  0
 62 75  1  0  0  0  0
 63 65  1  0  0  0  0
 63 73  1  0  0  0  0
 64 76  1  0  0  0  0
 66 67  1  0  0  0  0
M  CHG  2  75   1  76   1
M  ISO  4  40 100  55 101  74 100  83 101
M  END
> <Batch ID>
0028

> <Smiles>
C=C[100N:0](c1cccc(CN2C[101CH:1]([101O:1]c3ccc4c(c3)CN(C(=O)C(NC(=O)C(C)NC)C(C)(C)C)C(C(=O)NC3CCCc5ccccc53)C4)C2)c1C)[100C:0](=O)N1CCCC(n2nc(-c3ccc(Oc4ccc(F)cc4F)cc3)c(C(N)=O)c2N)C1

> <Shape>
0.261

> <Color>
0.180

> <Negative vol penalty>
0.000

$$$$

  -OEChem-04042321313D

 83 92  0     1  0  0  0  0  0999 V2000
  -18.0677  -28.5628   18.7768 C   0  0  0  0  0  0  0  0  0  0  0  0
  -19.2899  -27.9005   18.8301 C   0  0  0  0  0  0  0  0  0  0  0  0
  -31.1048  -19.2389   20.1307 C   0  0  0  0  0  0  0  0  0  0  0  0
  -23.1711   -9.7394   20.1175 C   0  0  0  0  0  0  0  0  0  0  0  0
  -23.8439   -9.9963   22.4237 C   0  0  0  0  0  0  0  0  0  0  0  0
  -17.8828  -29.7414   19.4985 C   0  0  0  0  0  0  0  0  0  0  0  0
  -20.3284  -28.4169   19.6042 C   0  0  0  0  0  0  0  0  0  0  0  0
  -22.6617  -24.8573   22.3483 C   0  0  0  0  0  0  0  0  0  0  0  0
  -30.3250  -20.0998   20.9029 C   0  0  0  0  0  0  0  0  0  0  0  0
  -30.9660  -17.8580   20.2703 C   0  0  0  0  0  0  0  0  0  0  0  0
  -22.4559   -8.5902   20.4541 C   0  0  0  0  0  0  0  0  0  0  0  0
  -23.1285   -8.8471   22.7604 C   0  0  0  0  0  0  0  0  0  0  0  0
  -23.5736  -24.0377   21.6847 C   0  0  0  0  0  0  0  0  0  0  0  0
  -19.9074   -7.9970   23.3277 C   0  0  0  0  0  0  0  0  0  0  0  0
  -19.1087   -8.0440   24.4703 C   0  0  0  0  0  0  0  0  0  0  0  0
  -25.3900  -25.3698   22.5482 C   0  0  0  0  0  0  0  0  0  0  0  0
  -20.3833   -6.2328   25.4358 C   0  0  0  0  0  0  0  0  0  0  0  0
  -23.8652  -10.4424   21.1023 C   0  0  0  0  0  0  0  0  0  0  0  0
  -24.1299  -12.9546   20.7462 C   0  0  0  0  0  0  0  0  0  0  0  0
  -18.9163  -30.2673   20.2895 C   0  0  0  0  0  0  0  0  0  0  0  0
  -23.1072  -25.9477   23.1092 C   0  0  0  0  0  0  0  0  0  0  0  0
  -20.1576  -29.6043   20.3361 C   0  0  0  0  0  0  0  0  0  0  0  0
  -24.4818  -26.2002   23.2226 C   0  0  0  0  0  0  0  0  0  0  0  0
  -29.4064  -19.5798   21.8148 C   0  0  0  0  0  0  0  0  0  0  0  0
  -29.2676  -18.1989   21.9544 C   0  0  0  0  0  0  0  0  0  0  0  0
  -30.0474  -17.3380   21.1821 C   0  0  0  0  0  0  0  0  0  0  0  0
  -22.4345   -8.1441   21.7755 C   0  0  0  0  0  0  0  0  0  0  0  0
  -24.9378  -24.2956   21.7822 C   0  0  0  0  0  0  0  0  0  0  0  0
  -20.9440   -7.0678   23.2391 C   0  0  0  0  0  0  0  0  0  0  0  0
  -19.3466   -7.1620   25.5243 C   0  0  0  0  0  0  0  0  0  0  0  0
  -21.1819   -6.1857   24.2931 C   0  0  0  0  0  0  0  0  0  0  0  0
  -24.6047  -11.6293   20.7551 C   0  0  0  0  0  0  0  0  0  0  0  0
  -25.2103  -13.7037   20.3485 C   0  0  0  0  0  0  0  0  0  0  0  0
  -22.8287  -13.4630   21.0687 C   0  0  0  0  0  0  0  0  0  0  0  0
  -22.7009  -29.0971   22.9680 C   0  0  0  0  0  0  0  0  0  0  0  0
  -24.3180  -29.0399   25.7794 C   0  0  0  0  0  0  0  0  0  0  0  0
  -26.5045  -27.4104   27.8315 C   0  0  0  0  0  0  0  0  0  0  0  0
  -30.6296  -14.9556   20.6063 C   0  0  0  0  0  0  0  0  0  0  0  0
  -18.6848  -31.5694   21.0145 C   0  0  0  0  0  0  0  0  0  0  0  0
  -22.1121  -26.8063   23.8407 C   0  0  0  0  0  0  0  0  0  0  0  0
  -25.0126  -27.3460   24.0434 C   0  0  0  0  0  0  0  0  0  0  0  0
  -19.7133  -31.8494   22.1073 C   0  0  0  0  0  0  0  0  0  0  0  0
  -29.6830  -12.2849   18.4503 C   0  0  0  0  0  0  0  0  0  0  0  0
  -21.1248  -31.5878   21.5916 C   0  0  0  0  0  0  0  0  0  0  0  0
  -28.2384  -11.9853   18.8570 C   0  0  0  0  0  0  0  0  0  0  0  0
  -30.5446  -12.6618   19.6542 C   0  0  0  0  0  0  0  0  0  0  0  0
  -28.5648  -13.4486   20.8914 C   0  0  0  0  0  0  0  0  0  0  0  0
  -26.4556  -21.7260   22.8284 C   0  0  0  0  0  0  0  0  0  0  0  0
  -27.0690  -21.3124   20.8751 C   0  0  0  0  0  0  0  0  0  0  0  0
  -21.3000  -30.1199   21.1841 C   0  0  1  0  0  0  0  0  0  0  0  0
  -22.6494  -28.1959   24.1692 C   0  0  1  0  0  0  0  0  0  0  0  0
  -27.6430  -13.1272   19.7038 C   0  0  2  0  0  0  0  0  0  0  0  0
  -25.8773  -22.0970   21.4512 C   0  0  0  0  0  0  0  0  0  1  0  0
  -28.2806  -17.6456   22.9341 C   0  0  0  0  0  0  0  0  0  0  0  0
  -27.6630  -27.6290   30.0467 C   0  0  0  0  0  0  0  0  0  0  0  0
  -26.2461  -31.0708   24.5679 C   0  0  0  0  0  0  0  0  0  0  0  0
  -27.8579  -30.5333   26.4068 C   0  0  0  0  0  0  0  0  0  0  0  0
  -25.6285  -31.5114   26.9509 C   0  0  0  0  0  0  0  0  0  0  0  0
  -25.2262  -24.9529   28.8734 C   0  0  0  0  0  0  0  0  0  0  0  0
  -28.5803  -20.5282   22.6328 C   0  0  0  0  0  0  0  0  0  0  0  0
  -25.7725  -29.1086   26.1777 C   0  0  1  0  0  0  0  0  0  0  0  0
  -26.4453  -27.0880   29.3137 C   0  0  2  0  0  0  0  0  0  0  0  0
  -26.3665  -30.5355   26.0087 C   0  0  0  0  0  0  0  0  0  0  0  0
  -25.8868  -11.5385   20.3918 N   0  0  0  0  0  0  0  0  0  0  0  0
  -26.2268  -12.8161   20.1508 N   0  0  0  0  0  0  0  0  0  0  0  0
  -23.9996  -28.1606   24.7347 N   0  0  0  0  0  0  0  0  0  0  0  0
  -29.9202  -13.7524   20.4063 N   0  0  0  0  0  0  0  0  0  0  0  0
  -25.3804  -15.0284   20.1521 N   0  0  0  0  0  0  0  0  0  0  0  0
  -21.8346  -12.5554   21.4590 N   0  0  0  0  0  0  0  0  0  0  0  0
  -29.9226  -15.9321   21.3071 N   0  0  0  0  0  0  0  0  0  0  0  0
  -21.4773  -29.2880   22.3550 N   0  0  0  0  0  0  0  0  0  0  0  0
  -25.8483  -28.5871   27.5381 N   0  0  0  0  0  0  0  0  0  0  0  0
  -27.1774  -20.6200   22.1726 N   0  3  0  0  0  0  0  0  0  0  0  0
  -26.3886  -25.6133   29.5212 N   0  3  0  0  0  0  0  0  0  0  0  0
  -22.5510  -14.6841   20.9966 O   0  0  0  0  0  0  0  0  0  0  0  0
  -23.7713  -29.5844   22.6238 O   0  0  0  0  0  0  0  0  0  0  0  0
  -23.4935  -29.7353   26.3781 O   0  0  0  0  0  0  0  0  0  0  0  0
  -27.0788  -26.6923   27.0160 O   0  0  0  0  0  0  0  0  0  0  0  0
  -31.7695  -15.1182   20.1632 O   0  0  0  0  0  0  0  0  0  0  0  0
  -21.7365   -7.0228   22.1044 O   0  0  0  0  0  0  0  0  0  0  0  0
  -25.8301  -23.4976   21.1350 O   0  0  0  0  0  0  0  0  0  1  0  0
  -18.5806   -7.2083   26.6221 F   0  0  0  0  0  0  0  0  0  0  0  0
  -22.1770   -5.2917   24.2143 F   0  0  0  0  0  0  0  0  0  0  0  0
  1  2  1  0  0  0  0
  1  6  2  0  0  0  0
  2  7  2  0  0  0  0
  3  9  2  0  0  0  0
  3 10  1  0  0  0  0
  4 11  2  0  0  0  0
  4 18  1  0  0  0  0
  5 12  1  0  0  0  0
  5 18  2  0  0  0  0
  6 20  1  0  0  0  0
  7 22  1  0  0  0  0
  8 13  2  0  0  0  0
  8 21  1  0  0  0  0
  9 24  1  0  0  0  0
 10 26  2  0  0  0  0
 11 27  1  0  0  0  0
 12 27  2  0  0  0  0
 13 28  1  0  0  0  0
 14 15  2  0  0  0  0
 14 29  1  0  0  0  0
 15 30  1  0  0  0  0
 16 23  1  0  0  0  0
 16 28  2  0  0  0  0
 17 30  2  0  0  0  0
 17 31  1  0  0  0  0
 18 32  1  0  0  0  0
 19 32  1  0  0  0  0
 19 33  2  0  0  0  0
 19 34  1  0  0  0  0
 20 22  2  0  0  0  0
 20 39  1  0  0  0  0
 21 23  2  0  0  0  0
 21 40  1  0  0  0  0
 22 50  1  0  0  0  0
 23 41  1  0  0  0  0
 24 25  2  0  0  0  0
 24 60  1  0  0  0  0
 25 26  1  0  0  0  0
 25 54  1  0  0  0  0
 26 70  1  0  0  0  0
 27 80  1  0  0  0  0
 28 81  1  0  0  0  0
 29 31  2  0  0  0  0
 29 80  1  0  0  0  0
 30 82  1  0  0  0  0
 31 83  1  0  0  0  0
 32 64  2  0  0  0  0
 33 65  1  0  0  0  0
 33 68  1  0  0  0  0
 34 69  1  0  0  0  0
 34 75  2  0  0  0  0
 35 51  1  0  0  0  0
 35 71  1  0  0  0  0
 35 76  2  0  0  0  0
 36 61  1  0  0  0  0
 36 66  1  0  0  0  0
 36 77  2  0  0  0  0
 37 62  1  0  0  0  0
 37 72  1  0  0  0  0
 37 78  2  0  0  0  0
 38 67  1  0  0  0  0
 38 70  1  0  0  0  0
 38 79  2  0  0  0  0
 39 42  1  0  0  0  0
 40 51  1  0  0  0  0
 41 66  1  0  0  0  0
 42 44  1  0  0  0  0
 43 45  1  0  0  0  0
 43 46  1  0  0  0  0
 44 50  1  0  0  0  0
 45 52  1  0  0  0  0
 46 67  1  0  0  0  0
 47 52  1  0  0  0  0
 47 67  1  0  0  0  0
 48 53  1  0  0  0  0
 48 73  1  0  0  0  0
 49 53  1  0  0  0  0
 49 73  1  0  0  0  0
 50 71  1  0  0  0  0
 51 66  1  0  0  0  0
 52 65  1  0  0  0  0
 53 81  1  0  0  0  0
 55 62  1  0  0  0  0
 56 63  1  0  0  0  0
 57 63  1  0  0  0  0
 58 63  1  0  0  0  0
 59 74  1  0  0  0  0
 60 73  1  0  0  0  0
 61 63  1  0  0  0  0
 61 72  1  0  0  0  0
 62 74  1  0  0  0  0
 64 65  1  0  0  0  0
M  CHG  2  73   1  74   1
M  ISO  4  38 100  53 101  70 100  81 101
M  END
> <Batch ID>
0028

> <Smiles>
CNC(C)C(=O)NC(C(=O)N1Cc2cc([101O:1][101CH:1]3CN(Cc4cccc([100NH:0][100C:0](=O)N5CCCC(n6nc(-c7ccc(Oc8ccc(F)cc8F)cc7)c(C(N)=O)c6N)C5)c4C)C3)ccc2CC1C(=O)NC1CCCc2ccccc21)C(C)(C)C

> <Shape>
0.256

> <Color>
0.224

> <Negative vol penalty>
0.000

$$$$

  -OEChem-04042321313D

 86 94  0     1  0  0  0  0  0999 V2000
  -32.3633  -32.5669   22.0234 C   0  0  0  0  0  0  0  0  0  0  0  0
  -31.7151  -31.4020   21.6257 C   0  0  0  0  0  0  0  0  0  0  0  0
  -22.9779  -10.0363   19.9193 C   0  0  0  0  0  0  0  0  0  0  0  0
  -24.1274   -9.7187   22.0205 C   0  0  0  0  0  0  0  0  0  0  0  0
  -31.8405  -33.3339   23.0638 C   0  0  0  0  0  0  0  0  0  0  0  0
  -30.5441  -31.0027   22.2690 C   0  0  0  0  0  0  0  0  0  0  0  0
  -26.9557  -29.5106   19.0222 C   0  0  0  0  0  0  0  0  0  0  0  0
  -22.2946   -8.8356   20.1116 C   0  0  0  0  0  0  0  0  0  0  0  0
  -23.4440   -8.5180   22.2129 C   0  0  0  0  0  0  0  0  0  0  0  0
  -27.0822  -28.2342   18.4759 C   0  0  0  0  0  0  0  0  0  0  0  0
  -20.3748   -7.5363   23.2310 C   0  0  0  0  0  0  0  0  0  0  0  0
  -19.8347   -7.2950   24.4942 C   0  0  0  0  0  0  0  0  0  0  0  0
  -25.4706  -27.4006   20.0655 C   0  0  0  0  0  0  0  0  0  0  0  0
  -29.1423  -20.2241   20.7170 C   0  0  0  0  0  0  0  0  0  0  0  0
  -29.7491  -19.4326   18.5165 C   0  0  0  0  0  0  0  0  0  0  0  0
  -21.1947   -5.3083   24.6963 C   0  0  0  0  0  0  0  0  0  0  0  0
  -23.8944  -10.4778   20.8737 C   0  0  0  0  0  0  0  0  0  0  0  0
  -24.1983  -13.0014   21.0898 C   0  0  0  0  0  0  0  0  0  0  0  0
  -30.6573  -32.9489   23.7137 C   0  0  0  0  0  0  0  0  0  0  0  0
  -26.0924  -29.7398   20.1032 C   0  0  0  0  0  0  0  0  0  0  0  0
  -30.0057  -31.7645   23.3200 C   0  0  0  0  0  0  0  0  0  0  0  0
  -25.3330  -28.6814   20.6221 C   0  0  0  0  0  0  0  0  0  0  0  0
  -29.2649  -17.8515   20.2779 C   0  0  0  0  0  0  0  0  0  0  0  0
  -29.5060  -20.4873   19.3964 C   0  0  0  0  0  0  0  0  0  0  0  0
  -22.5276   -8.0765   21.2584 C   0  0  0  0  0  0  0  0  0  0  0  0
  -26.3418  -27.1783   18.9994 C   0  0  0  0  0  0  0  0  0  0  0  0
  -21.3249   -6.6636   22.7004 C   0  0  0  0  0  0  0  0  0  0  0  0
  -20.2446   -6.1810   25.2268 C   0  0  0  0  0  0  0  0  0  0  0  0
  -29.0218  -18.9061   21.1578 C   0  0  0  0  0  0  0  0  0  0  0  0
  -21.7348   -5.5496   23.4330 C   0  0  0  0  0  0  0  0  0  0  0  0
  -29.6285  -18.1147   18.9573 C   0  0  0  0  0  0  0  0  0  0  0  0
  -24.6010  -11.7178   20.6753 C   0  0  0  0  0  0  0  0  0  0  0  0
  -25.2066  -13.8316   20.6647 C   0  0  0  0  0  0  0  0  0  0  0  0
  -23.0184  -13.4072   21.7961 C   0  0  0  0  0  0  0  0  0  0  0  0
  -26.4644  -30.7333   23.0996 C   0  0  0  0  0  0  0  0  0  0  0  0
  -23.2211  -30.6773   23.1090 C   0  0  0  0  0  0  0  0  0  0  0  0
  -20.3413  -29.4200   21.7775 C   0  0  0  0  0  0  0  0  0  0  0  0
  -30.8309  -14.6191   20.4112 C   0  0  0  0  0  0  0  0  0  0  0  0
  -30.1561  -33.7851   24.8645 C   0  0  0  0  0  0  0  0  0  0  0  0
  -25.9472  -31.1279   20.6639 C   0  0  0  0  0  0  0  0  0  0  0  0
  -24.3769  -28.8790   21.7690 C   0  0  0  0  0  0  0  0  0  0  0  0
  -28.7072  -33.4917   25.2450 C   0  0  0  0  0  0  0  0  0  0  0  0
  -29.1069  -12.9867   17.5713 C   0  0  0  0  0  0  0  0  0  0  0  0
  -28.4721  -31.9869   25.3311 C   0  0  0  0  0  0  0  0  0  0  0  0
  -27.7780  -12.5574   18.1907 C   0  0  0  0  0  0  0  0  0  0  0  0
  -30.2236  -13.0457   18.6092 C   0  0  0  0  0  0  0  0  0  0  0  0
  -28.5785  -13.4704   20.4057 C   0  0  0  0  0  0  0  0  0  0  0  0
  -28.7198  -31.3115   23.9768 C   0  0  1  0  0  0  0  0  0  0  0  0
  -25.4230  -31.1419   22.0965 C   0  0  1  0  0  0  0  0  0  0  0  0
  -27.4217  -13.4458   19.3953 C   0  0  2  0  0  0  0  0  0  0  0  0
  -17.8459  -29.5341   22.0178 C   0  0  0  0  0  0  0  0  0  0  0  0
  -23.3832  -28.9235   25.6006 C   0  0  0  0  0  0  0  0  0  0  0  0
  -20.9858  -28.3021   25.2342 C   0  0  0  0  0  0  0  0  0  0  0  0
  -21.6031  -30.6786   25.6742 C   0  0  0  0  0  0  0  0  0  0  0  0
  -31.4147  -16.6446   21.6904 C   0  0  0  0  0  0  0  0  0  0  0  0
  -20.0064  -30.4437   19.0209 C   0  0  0  0  0  0  0  0  0  0  0  0
  -29.1276  -16.4524   20.7861 C   0  0  0  0  0  0  0  0  0  0  0  0
  -29.3105  -23.6811   17.4297 C   0  0  0  0  0  0  0  0  0  0  0  0
  -27.9569  -24.0884   18.0136 C   0  0  0  0  0  0  0  0  0  0  0  0
  -29.5843  -22.1860   17.5705 C   0  0  0  0  0  0  0  0  0  0  0  0
  -27.7258  -25.5897   17.8963 C   0  0  0  0  0  0  0  0  0  1  0  0
  -22.1706  -29.6443   23.4381 C   0  0  1  0  0  0  0  0  0  0  0  0
  -19.0671  -30.0998   21.3096 C   0  0  2  0  0  0  0  0  0  0  0  0
  -22.0551  -29.3827   24.9664 C   0  0  0  0  0  0  0  0  0  0  0  0
  -25.7736  -11.7266   20.0358 N   0  0  0  0  0  0  0  0  0  0  0  0
  -26.1163  -13.0261   20.0452 N   0  0  0  0  0  0  0  0  0  0  0  0
  -24.2748  -30.2533   22.2869 N   0  0  0  0  0  0  0  0  0  0  0  0
  -29.8420  -13.8611   19.7628 N   0  0  0  0  0  0  0  0  0  0  0  0
  -25.3948  -15.1646   20.7640 N   0  0  0  0  0  0  0  0  0  0  0  0
  -22.0853  -12.4258   22.1574 N   0  0  0  0  0  0  0  0  0  0  0  0
  -29.6274  -21.7970   18.9600 N   0  0  0  0  0  0  0  0  0  0  0  0
  -27.5955  -31.5270   23.0914 N   0  0  0  0  0  0  0  0  0  0  0  0
  -20.9346  -30.1063   22.8159 N   0  0  0  0  0  0  0  0  0  0  0  0
  -30.4239  -15.8181   21.0157 N   0  0  0  0  0  0  0  0  0  0  0  0
  -18.8885  -29.9117   19.8421 N   0  3  0  0  0  0  0  0  0  0  0  0
  -22.7902  -14.6067   22.0835 O   0  0  0  0  0  0  0  0  0  0  0  0
  -26.2565  -29.7701   23.8281 O   0  0  0  0  0  0  0  0  0  0  0  0
  -23.1070  -31.8203   23.5586 O   0  0  0  0  0  0  0  0  0  0  0  0
  -20.7656  -28.3819   21.2748 O   0  0  0  0  0  0  0  0  0  0  0  0
  -32.0120  -14.2502   20.4396 O   0  0  0  0  0  0  0  0  0  0  0  0
  -21.8608   -6.9049   21.4465 O   0  0  0  0  0  0  0  0  0  0  0  0
  -26.4639  -25.9313   18.4684 O   0  0  0  0  0  0  0  0  0  1  0  0
  -19.7269   -5.9503   26.4405 F   0  0  0  0  0  0  0  0  0  0  0  0
  -28.6741  -18.6644   22.4296 F   0  0  0  0  0  0  0  0  0  0  0  0
  -22.6481   -4.7083   22.9291 F   0  0  0  0  0  0  0  0  0  0  0  0
  -29.9369  -16.8357   17.8398 Cl  0  0  0  0  0  0  0  0  0  0  0  0
  1  2  1  0  0  0  0
  1  5  2  0  0  0  0
  2  6  2  0  0  0  0
  3  8  2  0  0  0  0
  3 17  1  0  0  0  0
  4  9  1  0  0  0  0
  4 17  2  0  0  0  0
  5 19  1  0  0  0  0
  6 21  1  0  0  0  0
  7 10  2  0  0  0  0
  7 20  1  0  0  0  0
  8 25  1  0  0  0  0
  9 25  2  0  0  0  0
 10 26  1  0  0  0  0
 11 12  2  0  0  0  0
 11 27  1  0  0  0  0
 12 28  1  0  0  0  0
 13 22  1  0  0  0  0
 13 26  2  0  0  0  0
 14 24  1  0  0  0  0
 14 29  2  0  0  0  0
 15 24  2  0  0  0  0
 15 31  1  0  0  0  0
 16 28  2  0  0  0  0
 16 30  1  0  0  0  0
 17 32  1  0  0  0  0
 18 32  1  0  0  0  0
 18 33  2  0  0  0  0
 18 34  1  0  0  0  0
 19 21  2  0  0  0  0
 19 39  1  0  0  0  0
 20 22  2  0  0  0  0
 20 40  1  0  0  0  0
 21 48  1  0  0  0  0
 22 41  1  0  0  0  0
 23 29  1  0  0  0  0
 23 31  2  0  0  0  0
 23 57  1  0  0  0  0
 24 71  1  0  0  0  0
 25 81  1  0  0  0  0
 26 82  1  0  0  0  0
 27 30  2  0  0  0  0
 27 81  1  0  0  0  0
 28 83  1  0  0  0  0
 29 84  1  0  0  0  0
 30 85  1  0  0  0  0
 31 86  1  0  0  0  0
 32 65  2  0  0  0  0
 33 66  1  0  0  0  0
 33 69  1  0  0  0  0
 34 70  1  0  0  0  0
 34 76  2  0  0  0  0
 35 49  1  0  0  0  0
 35 72  1  0  0  0  0
 35 77  2  0  0  0  0
 36 62  1  0  0  0  0
 36 67  1  0  0  0  0
 36 78  2  0  0  0  0
 37 63  1  0  0  0  0
 37 73  1  0  0  0  0
 37 79  2  0  0  0  0
 38 68  1  0  0  0  0
 38 74  1  0  0  0  0
 38 80  2  0  0  0  0
 39 42  1  0  0  0  0
 40 49  1  0  0  0  0
 41 67  1  0  0  0  0
 42 44  1  0  0  0  0
 43 45  1  0  0  0  0
 43 46  1  0  0  0  0
 44 48  1  0  0  0  0
 45 50  1  0  0  0  0
 46 68  1  0  0  0  0
 47 50  1  0  0  0  0
 47 68  1  0  0  0  0
 48 72  1  0  0  0  0
 49 67  1  0  0  0  0
 50 66  1  0  0  0  0
 51 63  1  0  0  0  0
 52 64  1  0  0  0  0
 53 64  1  0  0  0  0
 54 64  1  0  0  0  0
 55 74  1  0  0  0  0
 56 75  1  0  0  0  0
 57 74  1  0  0  0  0
 58 59  1  0  0  0  0
 58 60  1  0  0  0  0
 59 61  1  0  0  0  0
 60 71  1  0  0  0  0
 61 82  1  0  0  0  0
 62 64  1  0  0  0  0
 62 73  1  0  0  0  0
 63 75  1  0  0  0  0
 65 66  1  0  0  0  0
M  CHG  1  75   1
M  ISO  4  38 100  61 101  74 100  82 101
M  END
> <Batch ID>
0028

> <Smiles>
CNC(C)C(=O)NC(C(=O)N1Cc2cc([101O:1][101CH2:1]CCCNc3cc(F)c(C[100N:0](C)[100C:0](=O)N4CCCC(n5nc(-c6ccc(Oc7ccc(F)cc7F)cc6)c(C(N)=O)c5N)C4)c(Cl)c3)ccc2CC1C(=O)NC1CCCc2ccccc21)C(C)(C)C

> <Shape>
0.372

> <Color>
0.231

> <Negative vol penalty>
0.000

$$$$

  -OEChem-04042321313D

 90100  0     1  0  0  0  0  0999 V2000
  -17.0968  -32.9168   22.0334 C   0  0  0  0  0  0  0  0  0  0  0  0
  -18.4305  -33.1966   22.3132 C   0  0  0  0  0  0  0  0  0  0  0  0
  -21.7522  -13.6076   21.5775 C   0  0  0  0  0  0  0  0  0  0  0  0
  -21.9811  -13.9502   19.1969 C   0  0  0  0  0  0  0  0  0  0  0  0
  -16.5922  -31.6367   22.2585 C   0  0  0  0  0  0  0  0  0  0  0  0
  -19.2602  -32.1966   22.8193 C   0  0  0  0  0  0  0  0  0  0  0  0
  -26.0447  -29.4628   20.0764 C   0  0  0  0  0  0  0  0  0  0  0  0
  -20.3993  -13.9364   21.4948 C   0  0  0  0  0  0  0  0  0  0  0  0
  -20.6280  -14.2790   19.1142 C   0  0  0  0  0  0  0  0  0  0  0  0
  -27.1711  -28.7888   19.6041 C   0  0  0  0  0  0  0  0  0  0  0  0
  -17.5235  -12.4315   20.5471 C   0  0  0  0  0  0  0  0  0  0  0  0
  -16.6163  -11.6196   21.2278 C   0  0  0  0  0  0  0  0  0  0  0  0
  -26.4808  -26.7905   20.7781 C   0  0  0  0  0  0  0  0  0  0  0  0
  -27.7615  -23.0900   15.9612 C   0  0  0  0  0  0  0  0  0  0  0  0
  -15.8944  -13.5203   22.5328 C   0  0  0  0  0  0  0  0  0  0  0  0
  -22.5432  -13.6146   20.4286 C   0  0  0  0  0  0  0  0  0  0  0  0
  -24.5150  -11.9966   20.3843 C   0  0  0  0  0  0  0  0  0  0  0  0
  -17.4185  -30.6180   22.7585 C   0  0  0  0  0  0  0  0  0  0  0  0
  -25.1230  -28.7979   20.8898 C   0  0  0  0  0  0  0  0  0  0  0  0
  -18.7658  -30.9020   23.0525 C   0  0  0  0  0  0  0  0  0  0  0  0
  -25.3442  -27.4568   21.2440 C   0  0  0  0  0  0  0  0  0  0  0  0
  -29.0809  -21.2269   15.1706 C   0  0  0  0  0  0  0  0  0  0  0  0
  -28.9297  -23.8034   16.2295 C   0  0  0  0  0  0  0  0  0  0  0  0
  -19.8371  -14.2721   20.2631 C   0  0  0  0  0  0  0  0  0  0  0  0
  -27.3887  -27.4560   19.9543 C   0  0  0  0  0  0  0  0  0  0  0  0
  -17.6162  -13.7878   20.8593 C   0  0  0  0  0  0  0  0  0  0  0  0
  -15.8017  -12.1640   22.2206 C   0  0  0  0  0  0  0  0  0  0  0  0
  -27.8371  -21.8017   15.4318 C   0  0  0  0  0  0  0  0  0  0  0  0
  -16.8017  -14.3322   21.8521 C   0  0  0  0  0  0  0  0  0  0  0  0
  -30.2491  -21.9404   15.4389 C   0  0  0  0  0  0  0  0  0  0  0  0
  -30.1735  -23.2286   15.9684 C   0  0  0  0  0  0  0  0  0  0  0  0
  -23.9411  -13.2756   20.5134 C   0  0  0  0  0  0  0  0  0  0  0  0
  -25.8628  -12.2074   20.5434 C   0  0  0  0  0  0  0  0  0  0  0  0
  -23.8860  -10.7311   20.1422 C   0  0  0  0  0  0  0  0  0  0  0  0
  -21.9080  -28.9723   22.8157 C   0  0  0  0  0  0  0  0  0  0  0  0
  -21.9700  -26.2355   21.4313 C   0  0  0  0  0  0  0  0  0  0  0  0
  -22.2293  -23.5038   19.4046 C   0  0  0  0  0  0  0  0  0  0  0  0
  -29.3712  -16.9839   19.6905 C   0  0  0  0  0  0  0  0  0  0  0  0
  -16.8160  -29.2623   23.0301 C   0  0  0  0  0  0  0  0  0  0  0  0
  -23.9277  -29.5025   21.4717 C   0  0  0  0  0  0  0  0  0  0  0  0
  -24.3438  -26.7920   22.1496 C   0  0  0  0  0  0  0  0  0  0  0  0
  -17.8556  -28.1598   23.2152 C   0  0  0  0  0  0  0  0  0  0  0  0
  -28.9647  -15.1376   22.7075 C   0  0  0  0  0  0  0  0  0  0  0  0
  -18.9640  -28.6236   24.1549 C   0  0  0  0  0  0  0  0  0  0  0  0
  -27.6829  -14.3356   22.4757 C   0  0  0  0  0  0  0  0  0  0  0  0
  -29.5085  -16.5651   15.9893 C   0  0  0  0  0  0  0  0  0  0  0  0
  -28.8841  -16.5255   22.0757 C   0  0  0  0  0  0  0  0  0  0  0  0
  -27.2476  -15.7326   20.4122 C   0  0  0  0  0  0  0  0  0  0  0  0
  -29.7967  -25.7194   17.6108 C   0  0  0  0  0  0  0  0  0  0  0  0
  -27.7103  -25.7045   17.3383 C   0  0  0  0  0  0  0  0  0  0  0  0
  -30.0365  -17.4917   14.9052 C   0  0  0  0  0  0  0  0  0  0  0  0
  -29.3148  -18.7554   16.8714 C   0  0  0  0  0  0  0  0  0  0  0  0
  -19.7035  -29.8373   23.5792 C   0  0  1  0  0  0  0  0  0  0  0  0
  -22.6915  -28.5934   21.5935 C   0  0  1  0  0  0  0  0  0  0  0  0
  -27.3027  -14.3052   20.9831 C   0  0  2  0  0  0  0  0  0  0  0  0
  -29.7205  -17.3508   17.2720 C   0  0  1  0  0  0  0  0  0  0  0  0
  -28.6708  -26.6625   18.0577 C   0  0  0  0  0  0  0  0  0  1  0  0
  -21.0191  -21.3984   18.7720 C   0  0  0  0  0  0  0  0  0  0  0  0
  -22.8400  -24.9508   24.0574 C   0  0  0  0  0  0  0  0  0  0  0  0
  -22.4780  -22.7108   22.9994 C   0  0  0  0  0  0  0  0  0  0  0  0
  -20.5609  -24.2831   23.2737 C   0  0  0  0  0  0  0  0  0  0  0  0
  -21.9918  -24.3515   16.5790 C   0  0  0  0  0  0  0  0  0  0  0  0
  -29.1617  -19.8493   14.6047 C   0  0  0  0  0  0  0  0  0  0  0  0
  -22.3276  -24.7743   21.5331 C   0  0  1  0  0  0  0  0  0  0  0  0
  -21.2435  -22.8660   18.4424 C   0  0  2  0  0  0  0  0  0  0  0  0
  -22.0694  -24.1986   22.9541 C   0  0  0  0  0  0  0  0  0  0  0  0
  -24.8499  -14.2283   20.7374 N   0  0  0  0  0  0  0  0  0  0  0  0
  -26.0086  -13.5476   20.7504 N   0  0  0  0  0  0  0  0  0  0  0  0
  -28.8516  -25.0875   16.7572 N   0  0  0  0  0  0  0  0  0  0  0  0
  -22.9777  -27.1565   21.7425 N   0  0  0  0  0  0  0  0  0  0  0  0
  -28.5213  -16.4263   20.6599 N   0  0  0  0  0  0  0  0  0  0  0  0
  -26.9257  -11.3753   20.5250 N   0  0  0  0  0  0  0  0  0  0  0  0
  -22.4918  -10.6936   20.0035 N   0  0  0  0  0  0  0  0  0  0  0  0
  -20.6293  -29.4222   22.5472 N   0  0  0  0  0  0  0  0  0  0  0  0
  -21.5895  -24.0986   20.4715 N   0  0  0  0  0  0  0  0  0  0  0  0
  -28.9562  -16.8401   18.3722 N   0  0  0  0  0  0  0  0  0  0  0  0
  -29.9014  -18.8904   15.4812 N   0  3  2  0  0  0  0  0  0  0  0  0
  -21.7493  -22.9614   17.0438 N   0  3  0  0  0  0  0  0  0  0  0  0
  -24.5393   -9.6629   20.0678 O   0  0  0  0  0  0  0  0  0  0  0  0
  -22.4239  -28.8635   23.9219 O   0  0  0  0  0  0  0  0  0  0  0  0
  -20.8274  -26.5546   21.0909 O   0  0  0  0  0  0  0  0  0  0  0  0
  -23.4454  -23.4739   19.2294 O   0  0  0  0  0  0  0  0  0  0  0  0
  -30.4248  -17.5621   19.9781 O   0  0  0  0  0  0  0  0  0  0  0  0
  -18.5168  -14.5927   20.1820 O   0  0  0  0  0  0  0  0  0  0  0  0
  -28.4880  -26.8026   19.4861 O   0  0  0  0  0  0  0  0  0  1  0  0
  -14.9295  -11.3845   22.8731 F   0  0  0  0  0  0  0  0  0  0  0  0
  -26.7090  -21.1240   15.1772 F   0  0  0  0  0  0  0  0  0  0  0  0
  -16.8854  -15.6348   22.1556 F   0  0  0  0  0  0  0  0  0  0  0  0
  -31.4489  -21.3964   15.1914 F   0  0  0  0  0  0  0  0  0  0  0  0
  -31.3025  -23.9053   16.2224 F   0  0  0  0  0  0  0  0  0  0  0  0
  1  2  1  0  0  0  0
  1  5  2  0  0  0  0
  2  6  2  0  0  0  0
  3  8  2  0  0  0  0
  3 16  1  0  0  0  0
  4  9  1  0  0  0  0
  4 16  2  0  0  0  0
  5 18  1  0  0  0  0
  6 20  1  0  0  0  0
  7 10  2  0  0  0  0
  7 19  1  0  0  0  0
  8 24  1  0  0  0  0
  9 24  2  0  0  0  0
 10 25  1  0  0  0  0
 11 12  2  0  0  0  0
 11 26  1  0  0  0  0
 12 27  1  0  0  0  0
 13 21  1  0  0  0  0
 13 25  2  0  0  0  0
 14 23  1  0  0  0  0
 14 28  2  0  0  0  0
 15 27  2  0  0  0  0
 15 29  1  0  0  0  0
 16 32  1  0  0  0  0
 17 32  1  0  0  0  0
 17 33  2  0  0  0  0
 17 34  1  0  0  0  0
 18 20  2  0  0  0  0
 18 39  1  0  0  0  0
 19 21  2  0  0  0  0
 19 40  1  0  0  0  0
 20 53  1  0  0  0  0
 21 41  1  0  0  0  0
 22 28  1  0  0  0  0
 22 30  2  0  0  0  0
 22 63  1  0  0  0  0
 23 31  2  0  0  0  0
 23 69  1  0  0  0  0
 24 84  1  0  0  0  0
 25 85  1  0  0  0  0
 26 29  2  0  0  0  0
 26 84  1  0  0  0  0
 27 86  1  0  0  0  0
 28 87  1  0  0  0  0
 29 88  1  0  0  0  0
 30 31  1  0  0  0  0
 30 89  1  0  0  0  0
 31 90  1  0  0  0  0
 32 67  2  0  0  0  0
 33 68  1  0  0  0  0
 33 72  1  0  0  0  0
 34 73  1  0  0  0  0
 34 79  2  0  0  0  0
 35 54  1  0  0  0  0
 35 74  1  0  0  0  0
 35 80  2  0  0  0  0
 36 64  1  0  0  0  0
 36 70  1  0  0  0  0
 36 81  2  0  0  0  0
 37 65  1  0  0  0  0
 37 75  1  0  0  0  0
 37 82  2  0  0  0  0
 38 71  1  0  0  0  0
 38 76  1  0  0  0  0
 38 83  2  0  0  0  0
 39 42  1  0  0  0  0
 40 54  1  0  0  0  0
 41 70  1  0  0  0  0
 42 44  1  0  0  0  0
 43 45  1  0  0  0  0
 43 47  1  0  0  0  0
 44 53  1  0  0  0  0
 45 55  1  0  0  0  0
 46 51  1  0  0  0  0
 46 56  1  0  0  0  0
 47 71  1  0  0  0  0
 48 55  1  0  0  0  0
 48 71  1  0  0  0  0
 49 57  1  0  0  0  0
 49 69  1  0  0  0  0
 50 57  1  0  0  0  0
 50 69  1  0  0  0  0
 51 77  1  0  0  0  0
 52 56  1  0  0  0  0
 52 77  1  0  0  0  0
 53 74  1  0  0  0  0
 54 70  1  0  0  0  0
 55 68  1  0  0  0  0
 56 76  1  0  0  0  0
 57 85  1  0  0  0  0
 58 65  1  0  0  0  0
 59 66  1  0  0  0  0
 60 66  1  0  0  0  0
 61 66  1  0  0  0  0
 62 78  1  0  0  0  0
 63 77  1  0  0  0  0
 64 66  1  0  0  0  0
 64 75  1  0  0  0  0
 65 78  1  0  0  0  0
 67 68  1  0  0  0  0
M  CHG  2  77   1  78   1
M  ISO  4  38 100  57 101  76 100  85 101
M  END
> <Batch ID>
0028

> <Smiles>
CNC(C)C(=O)NC(C(=O)N1Cc2cc([101O:1][101CH:1]3CN(c4cc(F)c(CN5CCC([100NH:0][100C:0](=O)N6CCCC(n7nc(-c8ccc(Oc9ccc(F)cc9F)cc8)c(C(N)=O)c7N)C6)C5)c(F)c4F)C3)ccc2CC1C(=O)NC1CCCc2ccccc21)C(C)(C)C

> <Shape>
0.195

> <Color>
0.106

> <Negative vol penalty>
0.000

$$$$

  -OEChem-04042321313D

 90 99  0     1  0  0  0  0  0999 V2000
  -28.2140  -24.5737   16.6709 C   0  0  0  0  0  0  0  0  0  0  0  0
  -27.1315  -24.6445   17.5419 C   0  0  0  0  0  0  0  0  0  0  0  0
  -28.2550  -14.6443   20.9397 C   0  0  0  0  0  0  0  0  0  0  0  0
  -26.0368  -15.5012   20.5129 C   0  0  0  0  0  0  0  0  0  0  0  0
  -29.3796  -25.2860   16.9500 C   0  0  0  0  0  0  0  0  0  0  0  0
  -27.2144  -25.4269   18.6932 C   0  0  0  0  0  0  0  0  0  0  0  0
  -23.0572  -28.2183   19.4486 C   0  0  0  0  0  0  0  0  0  0  0  0
  -27.7881  -13.3431   20.7541 C   0  0  0  0  0  0  0  0  0  0  0  0
  -25.5698  -14.2000   20.3273 C   0  0  0  0  0  0  0  0  0  0  0  0
  -21.9425  -27.5699   19.9782 C   0  0  0  0  0  0  0  0  0  0  0  0
  -24.6711  -11.5760   22.2607 C   0  0  0  0  0  0  0  0  0  0  0  0
  -23.4680  -11.2257   22.8734 C   0  0  0  0  0  0  0  0  0  0  0  0
  -22.4781  -28.4452   22.1614 C   0  0  0  0  0  0  0  0  0  0  0  0
  -23.0545  -24.9328   24.3131 C   0  0  0  0  0  0  0  0  0  0  0  0
  -24.9949  -23.9078   25.3238 C   0  0  0  0  0  0  0  0  0  0  0  0
  -22.5109  -10.7310   20.7109 C   0  0  0  0  0  0  0  0  0  0  0  0
  -27.3793  -15.7233   20.8192 C   0  0  0  0  0  0  0  0  0  0  0  0
  -28.3833  -17.9319   20.0305 C   0  0  0  0  0  0  0  0  0  0  0  0
  -29.4733  -26.0852   18.1003 C   0  0  0  0  0  0  0  0  0  0  0  0
  -23.8984  -28.9774   20.2748 C   0  0  0  0  0  0  0  0  0  0  0  0
  -28.3828  -26.1495   18.9886 C   0  0  0  0  0  0  0  0  0  0  0  0
  -23.6015  -29.1044   21.6393 C   0  0  0  0  0  0  0  0  0  0  0  0
  -22.6957  -23.7050   23.7569 C   0  0  0  0  0  0  0  0  0  0  0  0
  -23.4864  -22.5786   23.9841 C   0  0  0  0  0  0  0  0  0  0  0  0
  -24.6360  -22.6800   24.7676 C   0  0  0  0  0  0  0  0  0  0  0  0
  -26.4455  -13.1209   20.4479 C   0  0  0  0  0  0  0  0  0  0  0  0
  -21.6544  -27.6809   21.3353 C   0  0  0  0  0  0  0  0  0  0  0  0
  -24.7942  -11.5039   20.8731 C   0  0  0  0  0  0  0  0  0  0  0  0
  -22.3879  -10.8031   22.0985 C   0  0  0  0  0  0  0  0  0  0  0  0
  -24.2042  -25.0342   25.0965 C   0  0  0  0  0  0  0  0  0  0  0  0
  -23.7141  -11.0814   20.0982 C   0  0  0  0  0  0  0  0  0  0  0  0
  -27.8609  -17.0677   21.0113 C   0  0  0  0  0  0  0  0  0  0  0  0
  -28.6944  -19.0809   20.7157 C   0  0  0  0  0  0  0  0  0  0  0  0
  -28.5705  -17.7154   18.6256 C   0  0  0  0  0  0  0  0  0  0  0  0
  -26.9587  -28.8124   21.1179 C   0  0  0  0  0  0  0  0  0  0  0  0
  -26.3093  -31.6418   22.5652 C   0  0  0  0  0  0  0  0  0  0  0  0
  -23.9821  -33.7278   23.9363 C   0  0  0  0  0  0  0  0  0  0  0  0
  -26.6268  -21.5061   25.7702 C   0  0  0  0  0  0  0  0  0  0  0  0
  -30.7709  -26.7996   18.3841 C   0  0  0  0  0  0  0  0  0  0  0  0
  -25.0819  -29.6926   19.6830 C   0  0  0  0  0  0  0  0  0  0  0  0
  -24.4615  -29.9240   22.5650 C   0  0  0  0  0  0  0  0  0  0  0  0
  -30.6427  -27.9019   19.4323 C   0  0  0  0  0  0  0  0  0  0  0  0
  -22.6611  -19.6501   21.8265 C   0  0  0  0  0  0  0  0  0  0  0  0
  -22.4214  -19.0881   23.2131 C   0  0  0  0  0  0  0  0  0  0  0  0
  -29.9996  -20.6122   25.0615 C   0  0  0  0  0  0  0  0  0  0  0  0
  -29.8511  -27.4034   20.6371 C   0  0  0  0  0  0  0  0  0  0  0  0
  -29.8819  -19.6853   23.8494 C   0  0  0  0  0  0  0  0  0  0  0  0
  -23.5509  -20.8570   22.1016 C   0  0  0  0  0  0  0  0  0  0  0  0
  -22.2569  -20.3439   24.0613 C   0  0  0  0  0  0  0  0  0  0  0  0
  -28.8432  -20.4155   26.0402 C   0  0  0  0  0  0  0  0  0  0  0  0
  -27.3861  -19.5876   24.2345 C   0  0  0  0  0  0  0  0  0  0  0  0
  -28.4255  -27.0069   20.2349 C   0  0  1  0  0  0  0  0  0  0  0  0
  -26.1593  -30.0184   20.7128 C   0  0  1  0  0  0  0  0  0  0  0  0
  -28.4938  -19.7950   23.1887 C   0  0  2  0  0  0  0  0  0  0  0  0
  -17.9414  -23.8187   20.4794 C   0  0  0  0  0  0  0  0  0  0  0  0
  -23.7582  -35.9544   25.0720 C   0  0  0  0  0  0  0  0  0  0  0  0
  -27.4257  -30.4393   25.1377 C   0  0  0  0  0  0  0  0  0  0  0  0
  -26.3256  -32.2991   26.4022 C   0  0  0  0  0  0  0  0  0  0  0  0
  -28.0943  -32.8126   24.7197 C   0  0  0  0  0  0  0  0  0  0  0  0
  -22.2196  -34.7706   21.7998 C   0  0  0  0  0  0  0  0  0  0  0  0
  -19.6974  -24.1918   24.5894 C   0  0  0  0  0  0  0  0  0  0  0  0
  -21.4545  -23.6278   22.9175 C   0  0  0  0  0  0  0  0  0  0  0  0
  -18.9876  -23.6202   21.5679 C   0  0  0  0  0  0  0  0  0  0  0  0
  -20.1580  -25.8357   21.2240 C   0  0  0  0  0  0  0  0  0  1  0  0
  -25.8148  -32.0557   23.9302 C   0  0  1  0  0  0  0  0  0  0  0  0
  -23.7223  -35.2113   23.7457 C   0  0  2  0  0  0  0  0  0  0  0  0
  -19.4463  -24.9260   22.2230 C   0  0  2  0  0  0  0  0  0  0  0  0
  -26.8998  -31.8846   25.0306 C   0  0  0  0  0  0  0  0  0  0  0  0
  -27.8400  -17.6203   22.2271 N   0  0  0  0  0  0  0  0  0  0  0  0
  -28.3531  -18.8441   22.0148 N   0  0  0  0  0  0  0  0  0  0  0  0
  -23.1220  -21.3413   23.4196 N   0  0  0  0  0  0  0  0  0  0  0  0
  -25.6109  -30.5991   21.9401 N   0  0  0  0  0  0  0  0  0  0  0  0
  -27.5603  -20.5375   25.3445 N   0  0  0  0  0  0  0  0  0  0  0  0
  -29.2240  -20.2605   20.3277 N   0  0  0  0  0  0  0  0  0  0  0  0
  -28.1972  -16.4775   18.0847 N   0  0  0  0  0  0  0  0  0  0  0  0
  -25.4568  -21.5513   25.0128 N   0  0  0  0  0  0  0  0  0  0  0  0
  -27.6013  -28.1848   20.0678 N   0  0  0  0  0  0  0  0  0  0  0  0
  -25.3180  -33.4201   23.7880 N   0  0  0  0  0  0  0  0  0  0  0  0
  -22.3861  -35.4271   23.1220 N   0  3  0  0  0  0  0  0  0  0  0  0
  -20.4010  -24.6214   23.3295 N   0  3  1  0  0  0  0  0  0  0  0  0
  -29.0697  -18.5879   17.8751 O   0  0  0  0  0  0  0  0  0  0  0  0
  -26.9914  -28.4770   22.2960 O   0  0  0  0  0  0  0  0  0  0  0  0
  -27.2750  -32.2271   22.0688 O   0  0  0  0  0  0  0  0  0  0  0  0
  -23.0899  -32.9231   24.1950 O   0  0  0  0  0  0  0  0  0  0  0  0
  -26.8603  -22.2597   26.7186 O   0  0  0  0  0  0  0  0  0  0  0  0
  -25.9896  -11.8514   20.2665 O   0  0  0  0  0  0  0  0  0  0  0  0
  -20.5672  -27.0484   21.8550 O   0  0  0  0  0  0  0  0  0  1  0  0
  -21.2331  -10.4652   22.6870 F   0  0  0  0  0  0  0  0  0  0  0  0
  -24.5499  -26.2128   25.6308 F   0  0  0  0  0  0  0  0  0  0  0  0
  -23.8267  -11.0089   18.7649 F   0  0  0  0  0  0  0  0  0  0  0  0
  1  2  1  0  0  0  0
  1  5  2  0  0  0  0
  2  6  2  0  0  0  0
  3  8  2  0  0  0  0
  3 17  1  0  0  0  0
  4  9  1  0  0  0  0
  4 17  2  0  0  0  0
  5 19  1  0  0  0  0
  6 21  1  0  0  0  0
  7 10  2  0  0  0  0
  7 20  1  0  0  0  0
  8 26  1  0  0  0  0
  9 26  2  0  0  0  0
 10 27  1  0  0  0  0
 11 12  2  0  0  0  0
 11 28  1  0  0  0  0
 12 29  1  0  0  0  0
 13 22  1  0  0  0  0
 13 27  2  0  0  0  0
 14 23  1  0  0  0  0
 14 30  2  0  0  0  0
 15 25  2  0  0  0  0
 15 30  1  0  0  0  0
 16 29  2  0  0  0  0
 16 31  1  0  0  0  0
 17 32  1  0  0  0  0
 18 32  1  0  0  0  0
 18 33  2  0  0  0  0
 18 34  1  0  0  0  0
 19 21  2  0  0  0  0
 19 39  1  0  0  0  0
 20 22  2  0  0  0  0
 20 40  1  0  0  0  0
 21 52  1  0  0  0  0
 22 41  1  0  0  0  0
 23 24  2  0  0  0  0
 23 62  1  0  0  0  0
 24 25  1  0  0  0  0
 24 71  1  0  0  0  0
 25 76  1  0  0  0  0
 26 86  1  0  0  0  0
 27 87  1  0  0  0  0
 28 31  2  0  0  0  0
 28 86  1  0  0  0  0
 29 88  1  0  0  0  0
 30 89  1  0  0  0  0
 31 90  1  0  0  0  0
 32 69  2  0  0  0  0
 33 70  1  0  0  0  0
 33 74  1  0  0  0  0
 34 75  1  0  0  0  0
 34 81  2  0  0  0  0
 35 53  1  0  0  0  0
 35 77  1  0  0  0  0
 35 82  2  0  0  0  0
 36 65  1  0  0  0  0
 36 72  1  0  0  0  0
 36 83  2  0  0  0  0
 37 66  1  0  0  0  0
 37 78  1  0  0  0  0
 37 84  2  0  0  0  0
 38 73  1  0  0  0  0
 38 76  1  0  0  0  0
 38 85  2  0  0  0  0
 39 42  1  0  0  0  0
 40 53  1  0  0  0  0
 41 72  1  0  0  0  0
 42 46  1  0  0  0  0
 43 44  1  0  0  0  0
 43 48  1  0  0  0  0
 44 49  1  0  0  0  0
 45 47  1  0  0  0  0
 45 50  1  0  0  0  0
 46 52  1  0  0  0  0
 47 54  1  0  0  0  0
 48 71  1  0  0  0  0
 49 71  1  0  0  0  0
 50 73  1  0  0  0  0
 51 54  1  0  0  0  0
 51 73  1  0  0  0  0
 52 77  1  0  0  0  0
 53 72  1  0  0  0  0
 54 70  1  0  0  0  0
 55 63  1  0  0  0  0
 56 66  1  0  0  0  0
 57 68  1  0  0  0  0
 58 68  1  0  0  0  0
 59 68  1  0  0  0  0
 60 79  1  0  0  0  0
 61 80  1  0  0  0  0
 62 80  1  0  0  0  0
 63 67  1  0  0  0  0
 64 67  1  0  0  0  0
 64 87  1  0  0  0  0
 65 68  1  0  0  0  0
 65 78  1  0  0  0  0
 66 79  1  0  0  0  0
 67 80  1  0  0  0  0
 69 70  1  0  0  0  0
M  CHG  2  79   1  80   1
M  ISO  4  38 100  64 101  76 100  87 101
M  END
> <Batch ID>
0028

> <Smiles>
CCC(N(C)Cc1cc(F)cc([100NH:0][100C:0](=O)N2CCCC(n3nc(-c4ccc(Oc5ccc(F)cc5F)cc4)c(C(N)=O)c3N)C2)c1N1CCCC1)[101CH2:1][101O:1]c1ccc2c(c1)CN(C(=O)C(NC(=O)C(C)NC)C(C)(C)C)C(C(=O)NC1CCCc3ccccc31)C2

> <Shape>
0.275

> <Color>
0.077

> <Negative vol penalty>
0.000

$$$$

  -OEChem-04042321313D

 85 94  0     1  0  0  0  0  0999 V2000
  -16.8019  -30.1978   24.8508 C   0  0  0  0  0  0  0  0  0  0  0  0
  -16.9817  -29.3872   23.7346 C   0  0  0  0  0  0  0  0  0  0  0  0
  -22.7870  -10.1111   22.2604 C   0  0  0  0  0  0  0  0  0  0  0  0
  -22.6932   -9.9203   19.8538 C   0  0  0  0  0  0  0  0  0  0  0  0
  -17.6562  -31.2773   25.0719 C   0  0  0  0  0  0  0  0  0  0  0  0
  -18.0154  -29.6563   22.8382 C   0  0  0  0  0  0  0  0  0  0  0  0
  -21.3175  -25.5690   19.6924 C   0  0  0  0  0  0  0  0  0  0  0  0
  -22.2976   -8.8107   22.3826 C   0  0  0  0  0  0  0  0  0  0  0  0
  -22.2038   -8.6199   19.9760 C   0  0  0  0  0  0  0  0  0  0  0  0
  -21.2297  -25.1011   18.3820 C   0  0  0  0  0  0  0  0  0  0  0  0
  -23.5039   -5.6616   22.1354 C   0  0  0  0  0  0  0  0  0  0  0  0
  -24.1288   -4.8173   23.0532 C   0  0  0  0  0  0  0  0  0  0  0  0
  -22.9020  -26.7022   17.7046 C   0  0  0  0  0  0  0  0  0  0  0  0
  -23.6306  -19.8339   16.1136 C   0  0  0  0  0  0  0  0  0  0  0  0
  -25.6291  -18.4852   16.2689 C   0  0  0  0  0  0  0  0  0  0  0  0
  -22.0414   -4.5661   24.2433 C   0  0  0  0  0  0  0  0  0  0  0  0
  -22.9848  -10.6660   20.9960 C   0  0  0  0  0  0  0  0  0  0  0  0
  -24.8378  -12.4065   20.7850 C   0  0  0  0  0  0  0  0  0  0  0  0
  -18.7068  -31.5539   24.1829 C   0  0  0  0  0  0  0  0  0  0  0  0
  -22.1919  -26.6161   20.0172 C   0  0  0  0  0  0  0  0  0  0  0  0
  -18.8837  -30.7412   23.0469 C   0  0  0  0  0  0  0  0  0  0  0  0
  -23.0010  -27.1798   19.0203 C   0  0  0  0  0  0  0  0  0  0  0  0
  -24.1524  -20.4780   14.9918 C   0  0  0  0  0  0  0  0  0  0  0  0
  -25.4125  -20.1256   14.5085 C   0  0  0  0  0  0  0  0  0  0  0  0
  -24.3689  -18.8375   16.7522 C   0  0  0  0  0  0  0  0  0  0  0  0
  -22.0060   -8.0650   21.2404 C   0  0  0  0  0  0  0  0  0  0  0  0
  -22.0199  -25.6697   17.3873 C   0  0  0  0  0  0  0  0  0  0  0  0
  -22.1478   -5.9582   22.2716 C   0  0  0  0  0  0  0  0  0  0  0  0
  -23.3975   -4.2695   24.1071 C   0  0  0  0  0  0  0  0  0  0  0  0
  -26.1509  -19.1292   15.1471 C   0  0  0  0  0  0  0  0  0  0  0  0
  -21.4165   -5.4104   23.3256 C   0  0  0  0  0  0  0  0  0  0  0  0
  -23.4898  -12.0094   20.8692 C   0  0  0  0  0  0  0  0  0  0  0  0
  -24.7866  -13.7748   20.6777 C   0  0  0  0  0  0  0  0  0  0  0  0
  -26.0296  -11.6097   20.8022 C   0  0  0  0  0  0  0  0  0  0  0  0
  -21.8391  -29.5564   21.1721 C   0  0  0  0  0  0  0  0  0  0  0  0
  -25.0818  -29.5001   21.2373 C   0  0  0  0  0  0  0  0  0  0  0  0
  -27.9818  -28.1836   20.0112 C   0  0  0  0  0  0  0  0  0  0  0  0
  -22.6051  -18.4117   18.4998 C   0  0  0  0  0  0  0  0  0  0  0  0
  -19.5754  -32.7601   24.4385 C   0  0  0  0  0  0  0  0  0  0  0  0
  -22.2943  -27.0913   21.4406 C   0  0  0  0  0  0  0  0  0  0  0  0
  -23.9705  -28.2925   19.3210 C   0  0  0  0  0  0  0  0  0  0  0  0
  -20.8769  -32.7535   23.6409 C   0  0  0  0  0  0  0  0  0  0  0  0
  -20.9219  -16.9850   21.2941 C   0  0  0  0  0  0  0  0  0  0  0  0
  -20.6080  -32.3926   22.1834 C   0  0  0  0  0  0  0  0  0  0  0  0
  -21.5508  -15.5960   21.4258 C   0  0  0  0  0  0  0  0  0  0  0  0
  -20.7671  -17.4013   19.8325 C   0  0  0  0  0  0  0  0  0  0  0  0
  -22.6223  -15.9261   19.1608 C   0  0  0  0  0  0  0  0  0  0  0  0
  -22.8875  -23.9439   14.1388 C   0  0  0  0  0  0  0  0  0  0  0  0
  -23.5877  -23.3083   16.0011 C   0  0  0  0  0  0  0  0  0  0  0  0
  -20.0088  -30.9860   22.0648 C   0  0  1  0  0  0  0  0  0  0  0  0
  -22.8448  -28.5092   21.5589 C   0  0  1  0  0  0  0  0  0  0  0  0
  -22.8581  -15.4903   20.6163 C   0  0  2  0  0  0  0  0  0  0  0  0
  -23.1067  -24.6726   15.4766 C   0  0  0  0  0  0  0  0  0  1  0  0
  -27.0497  -21.8339   13.6791 C   0  0  0  0  0  0  0  0  0  0  0  0
  -30.4750  -28.3636   20.2320 C   0  0  0  0  0  0  0  0  0  0  0  0
  -25.0345  -32.0930   19.6296 C   0  0  0  0  0  0  0  0  0  0  0  0
  -27.4466  -31.7127   19.0770 C   0  0  0  0  0  0  0  0  0  0  0  0
  -26.7470  -32.0259   21.4509 C   0  0  0  0  0  0  0  0  0  0  0  0
  -28.2246  -25.3653   20.8813 C   0  0  0  0  0  0  0  0  0  0  0  0
  -25.9886  -20.8023   13.3081 C   0  0  0  0  0  0  0  0  0  0  0  0
  -23.3398  -21.5461   14.3213 C   0  0  0  0  0  0  0  0  0  0  0  0
  -26.1772  -29.8668   20.2654 C   0  0  1  0  0  0  0  0  0  0  0  0
  -29.2198  -27.6497   20.7089 C   0  0  2  0  0  0  0  0  0  0  0  0
  -26.3317  -31.4049   20.0993 C   0  0  0  0  0  0  0  0  0  0  0  0
  -22.6441  -13.0421   20.8198 N   0  0  0  0  0  0  0  0  0  0  0  0
  -23.4627  -14.1015   20.7035 N   0  0  0  0  0  0  0  0  0  0  0  0
  -24.0296  -28.7269   20.7265 N   0  0  0  0  0  0  0  0  0  0  0  0
  -22.0463  -17.2796   19.1297 N   0  0  0  0  0  0  0  0  0  0  0  0
  -25.7454  -14.7184   20.5649 N   0  0  0  0  0  0  0  0  0  0  0  0
  -25.9018  -10.2188   20.9181 N   0  0  0  0  0  0  0  0  0  0  0  0
  -23.8390  -18.1828   17.8917 N   0  0  0  0  0  0  0  0  0  0  0  0
  -21.0407  -29.9827   22.2162 N   0  0  0  0  0  0  0  0  0  0  0  0
  -27.3825  -29.1924   20.7353 N   0  0  0  0  0  0  0  0  0  0  0  0
  -23.8334  -22.9121   14.6021 N   0  3  0  0  0  0  0  0  0  0  0  0
  -29.3775  -26.1922   20.4409 N   0  3  0  0  0  0  0  0  0  0  0  0
  -27.1747  -12.1174   20.7337 O   0  0  0  0  0  0  0  0  0  0  0  0
  -21.7921  -29.9497   20.0124 O   0  0  0  0  0  0  0  0  0  0  0  0
  -25.1605  -29.8796   22.4084 O   0  0  0  0  0  0  0  0  0  0  0  0
  -27.5881  -27.7516   18.9300 O   0  0  0  0  0  0  0  0  0  0  0  0
  -22.0443  -19.5103   18.5232 O   0  0  0  0  0  0  0  0  0  0  0  0
  -21.5286   -6.7960   21.3592 O   0  0  0  0  0  0  0  0  0  0  0  0
  -21.9356  -25.2153   16.1073 O   0  0  0  0  0  0  0  0  0  1  0  0
  -23.9974   -3.4576   24.9875 F   0  0  0  0  0  0  0  0  0  0  0  0
  -27.3617  -18.7814   14.6891 F   0  0  0  0  0  0  0  0  0  0  0  0
  -20.1131   -5.6908   23.4609 F   0  0  0  0  0  0  0  0  0  0  0  0
  1  2  1  0  0  0  0
  1  5  2  0  0  0  0
  2  6  2  0  0  0  0
  3  8  2  0  0  0  0
  3 17  1  0  0  0  0
  4  9  1  0  0  0  0
  4 17  2  0  0  0  0
  5 19  1  0  0  0  0
  6 21  1  0  0  0  0
  7 10  2  0  0  0  0
  7 20  1  0  0  0  0
  8 26  1  0  0  0  0
  9 26  2  0  0  0  0
 10 27  1  0  0  0  0
 11 12  2  0  0  0  0
 11 28  1  0  0  0  0
 12 29  1  0  0  0  0
 13 22  1  0  0  0  0
 13 27  2  0  0  0  0
 14 23  1  0  0  0  0
 14 25  2  0  0  0  0
 15 25  1  0  0  0  0
 15 30  2  0  0  0  0
 16 29  2  0  0  0  0
 16 31  1  0  0  0  0
 17 32  1  0  0  0  0
 18 32  1  0  0  0  0
 18 33  2  0  0  0  0
 18 34  1  0  0  0  0
 19 21  2  0  0  0  0
 19 39  1  0  0  0  0
 20 22  2  0  0  0  0
 20 40  1  0  0  0  0
 21 50  1  0  0  0  0
 22 41  1  0  0  0  0
 23 24  2  0  0  0  0
 23 61  1  0  0  0  0
 24 30  1  0  0  0  0
 24 60  1  0  0  0  0
 25 71  1  0  0  0  0
 26 81  1  0  0  0  0
 27 82  1  0  0  0  0
 28 31  2  0  0  0  0
 28 81  1  0  0  0  0
 29 83  1  0  0  0  0
 30 84  1  0  0  0  0
 31 85  1  0  0  0  0
 32 65  2  0  0  0  0
 33 66  1  0  0  0  0
 33 69  1  0  0  0  0
 34 70  1  0  0  0  0
 34 76  2  0  0  0  0
 35 51  1  0  0  0  0
 35 72  1  0  0  0  0
 35 77  2  0  0  0  0
 36 62  1  0  0  0  0
 36 67  1  0  0  0  0
 36 78  2  0  0  0  0
 37 63  1  0  0  0  0
 37 73  1  0  0  0  0
 37 79  2  0  0  0  0
 38 68  1  0  0  0  0
 38 71  1  0  0  0  0
 38 80  2  0  0  0  0
 39 42  1  0  0  0  0
 40 51  1  0  0  0  0
 41 67  1  0  0  0  0
 42 44  1  0  0  0  0
 43 45  1  0  0  0  0
 43 46  1  0  0  0  0
 44 50  1  0  0  0  0
 45 52  1  0  0  0  0
 46 68  1  0  0  0  0
 47 52  1  0  0  0  0
 47 68  1  0  0  0  0
 48 53  1  0  0  0  0
 48 74  1  0  0  0  0
 49 53  1  0  0  0  0
 49 74  1  0  0  0  0
 50 72  1  0  0  0  0
 51 67  1  0  0  0  0
 52 66  1  0  0  0  0
 53 82  1  0  0  0  0
 54 60  1  0  0  0  0
 55 63  1  0  0  0  0
 56 64  1  0  0  0  0
 57 64  1  0  0  0  0
 58 64  1  0  0  0  0
 59 75  1  0  0  0  0
 61 74  1  0  0  0  0
 62 64  1  0  0  0  0
 62 73  1  0  0  0  0
 63 75  1  0  0  0  0
 65 66  1  0  0  0  0
M  CHG  2  74   1  75   1
M  ISO  4  38 100  53 101  71 100  82 101
M  END
> <Batch ID>
0028

> <Smiles>
CCc1c(F)cc([100NH:0][100C:0](=O)N2CCCC(n3nc(-c4ccc(Oc5ccc(F)cc5F)cc4)c(C(N)=O)c3N)C2)cc1CN1C[101CH:1]([101O:1]c2ccc3c(c2)CN(C(=O)C(NC(=O)C(C)NC)C(C)(C)C)C(C(=O)NC2CCCc4ccccc42)C3)C1

> <Shape>
0.222

> <Color>
0.083

> <Negative vol penalty>
0.000

$$$$

  -OEChem-04042321313D

 84 93  0     1  0  0  0  0  0999 V2000
  -29.1497  -22.1999   13.0126 C   0  0  0  0  0  0  0  0  0  0  0  0
  -28.8776  -21.7905   14.3141 C   0  0  0  0  0  0  0  0  0  0  0  0
  -23.0548   -9.9822   19.8648 C   0  0  0  0  0  0  0  0  0  0  0  0
  -23.8717   -9.8155   22.1324 C   0  0  0  0  0  0  0  0  0  0  0  0
  -29.9761  -23.3001   12.7876 C   0  0  0  0  0  0  0  0  0  0  0  0
  -29.4327  -22.4804   15.3913 C   0  0  0  0  0  0  0  0  0  0  0  0
  -26.8547  -23.4572   20.8598 C   0  0  0  0  0  0  0  0  0  0  0  0
  -32.1772  -16.4092   22.6944 C   0  0  0  0  0  0  0  0  0  0  0  0
  -22.3052   -8.8205   20.0494 C   0  0  0  0  0  0  0  0  0  0  0  0
  -23.1221   -8.6538   22.3170 C   0  0  0  0  0  0  0  0  0  0  0  0
  -26.9919  -22.8150   22.0897 C   0  0  0  0  0  0  0  0  0  0  0  0
  -19.9016   -7.8425   22.9426 C   0  0  0  0  0  0  0  0  0  0  0  0
  -19.1737   -7.7241   24.1265 C   0  0  0  0  0  0  0  0  0  0  0  0
  -32.8329  -17.2075   23.6317 C   0  0  0  0  0  0  0  0  0  0  0  0
  -28.6167  -24.4659   22.7636 C   0  0  0  0  0  0  0  0  0  0  0  0
  -20.4125   -5.7273   24.6883 C   0  0  0  0  0  0  0  0  0  0  0  0
  -23.8381  -10.4797   20.9063 C   0  0  0  0  0  0  0  0  0  0  0  0
  -24.2036  -13.0038   20.9612 C   0  0  0  0  0  0  0  0  0  0  0  0
  -30.5339  -24.0096   13.8628 C   0  0  0  0  0  0  0  0  0  0  0  0
  -27.6067  -24.6042   20.5680 C   0  0  0  0  0  0  0  0  0  0  0  0
  -30.2685  -23.5902   15.1803 C   0  0  0  0  0  0  0  0  0  0  0  0
  -28.4852  -25.1222   21.5303 C   0  0  0  0  0  0  0  0  0  0  0  0
  -30.7058  -18.0723   24.3831 C   0  0  0  0  0  0  0  0  0  0  0  0
  -30.7859  -16.4426   22.6014 C   0  0  0  0  0  0  0  0  0  0  0  0
  -22.3388   -8.1563   21.2755 C   0  0  0  0  0  0  0  0  0  0  0  0
  -27.8752  -23.3177   23.0407 C   0  0  0  0  0  0  0  0  0  0  0  0
  -20.8849   -6.9034   22.6314 C   0  0  0  0  0  0  0  0  0  0  0  0
  -19.4292   -6.6665   24.9994 C   0  0  0  0  0  0  0  0  0  0  0  0
  -21.1404   -5.8458   23.5043 C   0  0  0  0  0  0  0  0  0  0  0  0
  -32.0972  -18.0390   24.4760 C   0  0  0  0  0  0  0  0  0  0  0  0
  -30.0501  -17.2741   23.4457 C   0  0  0  0  0  0  0  0  0  0  0  0
  -24.6131  -11.6794   20.7160 C   0  0  0  0  0  0  0  0  0  0  0  0
  -25.2943  -13.7681   20.6254 C   0  0  0  0  0  0  0  0  0  0  0  0
  -22.9495  -13.4989   21.4489 C   0  0  0  0  0  0  0  0  0  0  0  0
  -29.7985  -25.3559   18.3920 C   0  0  0  0  0  0  0  0  0  0  0  0
  -29.5089  -28.3147   19.6895 C   0  0  0  0  0  0  0  0  0  0  0  0
  -28.6491  -30.2255   22.3833 C   0  0  0  0  0  0  0  0  0  0  0  0
  -30.7739  -14.7503   20.7353 C   0  0  0  0  0  0  0  0  0  0  0  0
  -31.4593  -25.1637   13.5689 C   0  0  0  0  0  0  0  0  0  0  0  0
  -27.4274  -25.3007   19.2469 C   0  0  0  0  0  0  0  0  0  0  0  0
  -29.3006  -26.3623   21.2739 C   0  0  0  0  0  0  0  0  0  0  0  0
  -31.7060  -26.0686   14.7733 C   0  0  0  0  0  0  0  0  0  0  0  0
  -29.5753  -12.5252   18.2274 C   0  0  0  0  0  0  0  0  0  0  0  0
  -32.0140  -25.2350   16.0131 C   0  0  0  0  0  0  0  0  0  0  0  0
  -28.1437  -12.2158   18.6714 C   0  0  0  0  0  0  0  0  0  0  0  0
  -30.5224  -12.6579   19.4186 C   0  0  0  0  0  0  0  0  0  0  0  0
  -28.6583  -13.2965   20.8973 C   0  0  0  0  0  0  0  0  0  0  0  0
  -29.7990  -20.9445   23.8580 C   0  0  0  0  0  0  0  0  0  0  0  0
  -29.3238  -21.2716   25.8654 C   0  0  0  0  0  0  0  0  0  0  0  0
  -30.8319  -24.3279   16.3755 C   0  0  1  0  0  0  0  0  0  0  0  0
  -28.6229  -26.1660   18.8605 C   0  0  1  0  0  0  0  0  0  0  0  0
  -27.6546  -13.2180   19.7353 C   0  0  2  0  0  0  0  0  0  0  0  0
  -29.2984  -22.1815   24.6248 C   0  0  0  0  0  0  0  0  0  1  0  0
  -28.5561  -32.6108   23.1573 C   0  0  0  0  0  0  0  0  0  0  0  0
  -32.5355  -28.3045   20.0765 C   0  0  0  0  0  0  0  0  0  0  0  0
  -32.2686  -30.2193   21.6672 C   0  0  0  0  0  0  0  0  0  0  0  0
  -31.5929  -30.4798   19.2801 C   0  0  0  0  0  0  0  0  0  0  0  0
  -25.7181  -30.1057   22.7754 C   0  0  0  0  0  0  0  0  0  0  0  0
  -29.9198  -18.9677   25.2950 C   0  0  0  0  0  0  0  0  0  0  0  0
  -30.1802  -29.0567   20.8199 C   0  0  1  0  0  0  0  0  0  0  0  0
  -27.7909  -31.4721   22.5012 C   0  0  2  0  0  0  0  0  0  0  0  0
  -31.6305  -29.4906   20.4653 C   0  0  0  0  0  0  0  0  0  0  0  0
  -25.8661  -11.6032   20.2596 N   0  0  0  0  0  0  0  0  0  0  0  0
  -26.2533  -12.8894   20.2152 N   0  0  0  0  0  0  0  0  0  0  0  0
  -29.0947  -27.0038   19.9648 N   0  0  0  0  0  0  0  0  0  0  0  0
  -29.9965  -13.6269   20.3826 N   0  0  0  0  0  0  0  0  0  0  0  0
  -25.5169  -15.0995   20.6438 N   0  0  0  0  0  0  0  0  0  0  0  0
  -21.9368  -12.5765   21.7451 N   0  0  0  0  0  0  0  0  0  0  0  0
  -30.1570  -15.6189   21.6350 N   0  0  0  0  0  0  0  0  0  0  0  0
  -29.7939  -25.0900   17.0360 N   0  0  0  0  0  0  0  0  0  0  0  0
  -29.2935  -30.1623   21.1659 N   0  0  0  0  0  0  0  0  0  0  0  0
  -30.2678  -20.3976   25.1446 N   0  3  0  0  0  0  0  0  0  0  0  0
  -26.5768  -31.1897   23.3180 N   0  3  0  0  0  0  0  0  0  0  0  0
  -22.7279  -14.7241   21.6014 O   0  0  0  0  0  0  0  0  0  0  0  0
  -30.6476  -24.9997   19.2006 O   0  0  0  0  0  0  0  0  0  0  0  0
  -29.3513  -28.8799   18.6045 O   0  0  0  0  0  0  0  0  0  0  0  0
  -28.7417  -29.3930   23.2827 O   0  0  0  0  0  0  0  0  0  0  0  0
  -31.8927  -14.9427   20.2523 O   0  0  0  0  0  0  0  0  0  0  0  0
  -21.6073   -7.0228   21.4560 O   0  0  0  0  0  0  0  0  0  0  0  0
  -28.0115  -22.6924   24.2417 O   0  0  0  0  0  0  0  0  0  1  0  0
  -18.7312   -6.5537   26.1370 F   0  0  0  0  0  0  0  0  0  0  0  0
  -22.0846   -4.9411   23.2114 F   0  0  0  0  0  0  0  0  0  0  0  0
  -32.9505  -19.0115   25.6199 Cl  0  0  0  0  0  0  0  0  0  0  0  0
  -28.3195  -17.3126   23.3311 Cl  0  0  0  0  0  0  0  0  0  0  0  0
  1  2  1  0  0  0  0
  1  5  2  0  0  0  0
  2  6  2  0  0  0  0
  3  9  2  0  0  0  0
  3 17  1  0  0  0  0
  4 10  1  0  0  0  0
  4 17  2  0  0  0  0
  5 19  1  0  0  0  0
  6 21  1  0  0  0  0
  7 11  2  0  0  0  0
  7 20  1  0  0  0  0
  8 14  1  0  0  0  0
  8 24  2  0  0  0  0
  9 25  1  0  0  0  0
 10 25  2  0  0  0  0
 11 26  1  0  0  0  0
 12 13  2  0  0  0  0
 12 27  1  0  0  0  0
 13 28  1  0  0  0  0
 14 30  2  0  0  0  0
 15 22  1  0  0  0  0
 15 26  2  0  0  0  0
 16 28  2  0  0  0  0
 16 29  1  0  0  0  0
 17 32  1  0  0  0  0
 18 32  1  0  0  0  0
 18 33  2  0  0  0  0
 18 34  1  0  0  0  0
 19 21  2  0  0  0  0
 19 39  1  0  0  0  0
 20 22  2  0  0  0  0
 20 40  1  0  0  0  0
 21 50  1  0  0  0  0
 22 41  1  0  0  0  0
 23 30  1  0  0  0  0
 23 31  2  0  0  0  0
 23 59  1  0  0  0  0
 24 31  1  0  0  0  0
 24 69  1  0  0  0  0
 25 79  1  0  0  0  0
 26 80  1  0  0  0  0
 27 29  2  0  0  0  0
 27 79  1  0  0  0  0
 28 81  1  0  0  0  0
 29 82  1  0  0  0  0
 30 83  1  0  0  0  0
 31 84  1  0  0  0  0
 32 63  2  0  0  0  0
 33 64  1  0  0  0  0
 33 67  1  0  0  0  0
 34 68  1  0  0  0  0
 34 74  2  0  0  0  0
 35 51  1  0  0  0  0
 35 70  1  0  0  0  0
 35 75  2  0  0  0  0
 36 60  1  0  0  0  0
 36 65  1  0  0  0  0
 36 76  2  0  0  0  0
 37 61  1  0  0  0  0
 37 71  1  0  0  0  0
 37 77  2  0  0  0  0
 38 66  1  0  0  0  0
 38 69  1  0  0  0  0
 38 78  2  0  0  0  0
 39 42  1  0  0  0  0
 40 51  1  0  0  0  0
 41 65  1  0  0  0  0
 42 44  1  0  0  0  0
 43 45  1  0  0  0  0
 43 46  1  0  0  0  0
 44 50  1  0  0  0  0
 45 52  1  0  0  0  0
 46 66  1  0  0  0  0
 47 52  1  0  0  0  0
 47 66  1  0  0  0  0
 48 53  1  0  0  0  0
 48 72  1  0  0  0  0
 49 53  1  0  0  0  0
 49 72  1  0  0  0  0
 50 70  1  0  0  0  0
 51 65  1  0  0  0  0
 52 64  1  0  0  0  0
 53 80  1  0  0  0  0
 54 61  1  0  0  0  0
 55 62  1  0  0  0  0
 56 62  1  0  0  0  0
 57 62  1  0  0  0  0
 58 73  1  0  0  0  0
 59 72  1  0  0  0  0
 60 62  1  0  0  0  0
 60 71  1  0  0  0  0
 61 73  1  0  0  0  0
 63 64  1  0  0  0  0
M  CHG  2  72   1  73   1
M  ISO  4  38 100  53 101  69 100  80 101
M  END
> <Batch ID>
0028

> <Smiles>
CNC(C)C(=O)NC(C(=O)N1Cc2cc([101O:1][101CH:1]3CN(Cc4c(Cl)ccc([100NH:0][100C:0](=O)N5CCCC(n6nc(-c7ccc(Oc8ccc(F)cc8F)cc7)c(C(N)=O)c6N)C5)c4Cl)C3)ccc2CC1C(=O)NC1CCCc2ccccc21)C(C)(C)C

> <Shape>
0.252

> <Color>
0.203

> <Negative vol penalty>
0.000

$$$$

  -OEChem-04042321313D

 85 94  0     1  0  0  0  0  0999 V2000
  -34.3569  -10.2818   20.1406 C   0  0  0  0  0  0  0  0  0  0  0  0
  -33.9479  -11.6102   20.0812 C   0  0  0  0  0  0  0  0  0  0  0  0
  -25.5045  -21.4619   12.6612 C   0  0  0  0  0  0  0  0  0  0  0  0
  -27.7377  -30.1747   19.9937 C   0  0  0  0  0  0  0  0  0  0  0  0
  -26.1271  -28.4071   20.3379 C   0  0  0  0  0  0  0  0  0  0  0  0
  -33.5172   -9.2733   19.6696 C   0  0  0  0  0  0  0  0  0  0  0  0
  -32.6993  -11.9310   19.5497 C   0  0  0  0  0  0  0  0  0  0  0  0
  -28.9820  -16.4517   21.3526 C   0  0  0  0  0  0  0  0  0  0  0  0
  -26.5372  -22.2713   13.1344 C   0  0  0  0  0  0  0  0  0  0  0  0
  -26.7893  -31.1166   20.3924 C   0  0  0  0  0  0  0  0  0  0  0  0
  -25.1786  -29.3489   20.7366 C   0  0  0  0  0  0  0  0  0  0  0  0
  -28.7558  -17.7346   20.8557 C   0  0  0  0  0  0  0  0  0  0  0  0
  -25.4814  -32.2607   23.2929 C   0  0  0  0  0  0  0  0  0  0  0  0
  -24.6021  -20.8878   13.5566 C   0  0  0  0  0  0  0  0  0  0  0  0
  -25.8889  -33.2543   24.1830 C   0  0  0  0  0  0  0  0  0  0  0  0
  -26.8568  -16.9130   19.6157 C   0  0  0  0  0  0  0  0  0  0  0  0
  -25.3115  -34.9466   22.5582 C   0  0  0  0  0  0  0  0  0  0  0  0
  -27.4066  -28.8200   19.9664 C   0  0  0  0  0  0  0  0  0  0  0  0
  -29.3065  -27.1671   20.3741 C   0  0  0  0  0  0  0  0  0  0  0  0
  -32.2537   -9.5811   19.1410 C   0  0  0  0  0  0  0  0  0  0  0  0
  -28.1524  -15.3859   20.9755 C   0  0  0  0  0  0  0  0  0  0  0  0
  -31.8424  -10.9258   19.0700 C   0  0  0  0  0  0  0  0  0  0  0  0
  -27.0730  -15.6180   20.1112 C   0  0  0  0  0  0  0  0  0  0  0  0
  -25.7651  -21.9326   15.3986 C   0  0  0  0  0  0  0  0  0  0  0  0
  -26.6675  -22.5067   14.5031 C   0  0  0  0  0  0  0  0  0  0  0  0
  -25.5097  -30.7037   20.7638 C   0  0  0  0  0  0  0  0  0  0  0  0
  -27.6949  -17.9648   19.9849 C   0  0  0  0  0  0  0  0  0  0  0  0
  -24.9890  -32.6101   22.0354 C   0  0  0  0  0  0  0  0  0  0  0  0
  -25.8039  -34.5973   23.8157 C   0  0  0  0  0  0  0  0  0  0  0  0
  -24.7324  -21.1231   14.9253 C   0  0  0  0  0  0  0  0  0  0  0  0
  -24.9040  -33.9530   21.6681 C   0  0  0  0  0  0  0  0  0  0  0  0
  -28.3857  -27.8466   19.5541 C   0  0  0  0  0  0  0  0  0  0  0  0
  -30.0057  -26.3605   19.5099 C   0  0  0  0  0  0  0  0  0  0  0  0
  -28.0412  -21.9465   18.1616 C   0  0  0  0  0  0  0  0  0  0  0  0
  -29.5112  -27.2569   21.7903 C   0  0  0  0  0  0  0  0  0  0  0  0
  -28.5892  -12.6390   19.4368 C   0  0  0  0  0  0  0  0  0  0  0  0
  -25.4891  -12.1395   20.2505 C   0  0  0  0  0  0  0  0  0  0  0  0
  -22.4684  -13.4742   21.1110 C   0  0  0  0  0  0  0  0  0  0  0  0
  -28.6949  -23.9695   14.1929 C   0  0  0  0  0  0  0  0  0  0  0  0
  -31.4003   -8.4610   18.6008 C   0  0  0  0  0  0  0  0  0  0  0  0
  -28.3936  -14.0133   21.5413 C   0  0  0  0  0  0  0  0  0  0  0  0
  -26.1410  -14.5118   19.6915 C   0  0  0  0  0  0  0  0  0  0  0  0
  -28.9809  -20.8073   18.4837 C   0  0  0  0  0  0  0  0  0  0  0  0
  -29.9390   -8.8524   18.3969 C   0  0  0  0  0  0  0  0  0  0  0  0
  -31.4359  -26.1135   14.9461 C   0  0  0  0  0  0  0  0  0  0  0  0
  -29.8411  -10.1990   17.6871 C   0  0  0  0  0  0  0  0  0  0  0  0
  -31.0514  -26.7347   16.2908 C   0  0  0  0  0  0  0  0  0  0  0  0
  -30.2204  -25.9251   14.0401 C   0  0  0  0  0  0  0  0  0  0  0  0
  -28.7189  -25.8097   15.9897 C   0  0  0  0  0  0  0  0  0  0  0  0
  -27.0774  -19.9808   17.2612 C   0  0  0  0  0  0  0  0  0  0  0  0
  -30.4851  -11.3115   18.5233 C   0  0  1  0  0  0  0  0  0  0  0  0
  -27.7958  -12.9007   20.6856 C   0  0  1  0  0  0  0  0  0  0  0  0
  -29.9008  -25.9590   16.9616 C   0  0  2  0  0  0  0  0  0  0  0  0
  -28.1222  -19.5621   18.2790 C   0  0  2  0  0  0  0  0  0  1  0  0
  -20.1139  -12.8168   21.6780 C   0  0  0  0  0  0  0  0  0  0  0  0
  -24.9323  -11.5983   17.2997 C   0  0  0  0  0  0  0  0  0  0  0  0
  -22.4923  -11.8914   17.7782 C   0  0  0  0  0  0  0  0  0  0  0  0
  -23.7659  -10.0523   18.8821 C   0  0  0  0  0  0  0  0  0  0  0  0
  -22.6596  -14.6753   23.8091 C   0  0  0  0  0  0  0  0  0  0  0  0
  -25.8841  -22.1706   16.8762 C   0  0  0  0  0  0  0  0  0  0  0  0
  -24.1545  -12.4413   19.6128 C   0  0  1  0  0  0  0  0  0  0  0  0
  -21.4970  -13.1321   22.2262 C   0  0  2  0  0  0  0  0  0  0  0  0
  -23.8548  -11.5165   18.3994 C   0  0  0  0  0  0  0  0  0  0  0  0
  -28.4884  -27.5019   18.2678 N   0  0  0  0  0  0  0  0  0  0  0  0
  -29.4820  -26.5969   18.2729 N   0  0  0  0  0  0  0  0  0  0  0  0
  -26.9658  -21.4085   17.4621 N   0  0  0  0  0  0  0  0  0  0  0  0
  -26.4220  -13.1861   20.2667 N   0  0  0  0  0  0  0  0  0  0  0  0
  -29.1733  -25.1786   14.7408 N   0  0  0  0  0  0  0  0  0  0  0  0
  -31.0115  -25.4792   19.6949 N   0  0  0  0  0  0  0  0  0  0  0  0
  -28.7056  -28.1355   22.5275 N   0  0  0  0  0  0  0  0  0  0  0  0
  -27.7233  -23.3318   14.9636 N   0  0  0  0  0  0  0  0  0  0  0  0
  -29.6016  -11.7123   19.5972 N   0  0  0  0  0  0  0  0  0  0  0  0
  -23.1646  -12.3641   20.6818 N   0  0  0  0  0  0  0  0  0  0  0  0
  -21.3767  -14.2736   23.1768 N   0  3  0  0  0  0  0  0  0  0  0  0
  -28.2500  -23.1175   18.4427 O   0  0  0  0  0  0  0  0  0  0  0  0
  -30.3938  -26.5903   22.3821 O   0  0  0  0  0  0  0  0  0  0  0  0
  -28.3031  -13.2328   18.4037 O   0  0  0  0  0  0  0  0  0  0  0  0
  -25.6938  -11.0187   20.7233 O   0  0  0  0  0  0  0  0  0  0  0  0
  -22.5942  -14.6117   20.6628 O   0  0  0  0  0  0  0  0  0  0  0  0
  -29.1356  -23.5183   13.1326 O   0  0  0  0  0  0  0  0  0  0  0  0
  -24.5841  -31.6225   21.1532 O   0  0  0  0  0  0  0  0  0  0  0  0
  -27.4723  -19.2159   19.4979 O   0  0  0  0  0  0  0  0  0  1  0  0
  -26.1938  -35.5514   24.6712 F   0  0  0  0  0  0  0  0  0  0  0  0
  -23.8597  -20.5666   15.7771 F   0  0  0  0  0  0  0  0  0  0  0  0
  -24.4307  -34.2948   20.4619 F   0  0  0  0  0  0  0  0  0  0  0  0
  1  2  1  0  0  0  0
  1  6  2  0  0  0  0
  2  7  2  0  0  0  0
  3  9  2  0  0  0  0
  3 14  1  0  0  0  0
  4 10  2  0  0  0  0
  4 18  1  0  0  0  0
  5 11  1  0  0  0  0
  5 18  2  0  0  0  0
  6 20  1  0  0  0  0
  7 22  1  0  0  0  0
  8 12  2  0  0  0  0
  8 21  1  0  0  0  0
  9 25  1  0  0  0  0
 10 26  1  0  0  0  0
 11 26  2  0  0  0  0
 12 27  1  0  0  0  0
 13 15  2  0  0  0  0
 13 28  1  0  0  0  0
 14 30  2  0  0  0  0
 15 29  1  0  0  0  0
 16 23  1  0  0  0  0
 16 27  2  0  0  0  0
 17 29  2  0  0  0  0
 17 31  1  0  0  0  0
 18 32  1  0  0  0  0
 19 32  1  0  0  0  0
 19 33  2  0  0  0  0
 19 35  1  0  0  0  0
 20 22  2  0  0  0  0
 20 40  1  0  0  0  0
 21 23  2  0  0  0  0
 21 41  1  0  0  0  0
 22 51  1  0  0  0  0
 23 42  1  0  0  0  0
 24 25  2  0  0  0  0
 24 30  1  0  0  0  0
 24 60  1  0  0  0  0
 25 71  1  0  0  0  0
 26 81  1  0  0  0  0
 27 82  1  0  0  0  0
 28 31  2  0  0  0  0
 28 81  1  0  0  0  0
 29 83  1  0  0  0  0
 30 84  1  0  0  0  0
 31 85  1  0  0  0  0
 32 64  2  0  0  0  0
 33 65  1  0  0  0  0
 33 69  1  0  0  0  0
 34 43  1  0  0  0  0
 34 66  1  0  0  0  0
 34 75  2  0  0  0  0
 35 70  1  0  0  0  0
 35 76  2  0  0  0  0
 36 52  1  0  0  0  0
 36 72  1  0  0  0  0
 36 77  2  0  0  0  0
 37 61  1  0  0  0  0
 37 67  1  0  0  0  0
 37 78  2  0  0  0  0
 38 62  1  0  0  0  0
 38 73  1  0  0  0  0
 38 79  2  0  0  0  0
 39 68  1  0  0  0  0
 39 71  1  0  0  0  0
 39 80  2  0  0  0  0
 40 44  1  0  0  0  0
 41 52  1  0  0  0  0
 42 67  1  0  0  0  0
 43 54  1  0  0  0  0
 44 46  1  0  0  0  0
 45 47  1  0  0  0  0
 45 48  1  0  0  0  0
 46 51  1  0  0  0  0
 47 53  1  0  0  0  0
 48 68  1  0  0  0  0
 49 53  1  0  0  0  0
 49 68  1  0  0  0  0
 50 54  1  0  0  0  0
 50 66  1  0  0  0  0
 51 72  1  0  0  0  0
 52 67  1  0  0  0  0
 53 65  1  0  0  0  0
 54 82  1  0  0  0  0
 55 62  1  0  0  0  0
 56 63  1  0  0  0  0
 57 63  1  0  0  0  0
 58 63  1  0  0  0  0
 59 74  1  0  0  0  0
 60 66  1  0  0  0  0
 61 63  1  0  0  0  0
 61 73  1  0  0  0  0
 62 74  1  0  0  0  0
 64 65  1  0  0  0  0
M  CHG  1  74   1
M  ISO  4  39 100  54 101  71 100  82 101
M  END
> <Batch ID>
0028

> <Smiles>
CNC(C)C(=O)NC(C(=O)N1Cc2cc([101O:1][101CH:1]3CC(=O)N(Cc4c(F)cccc4[100NH:0][100C:0](=O)N4CCCC(n5nc(-c6ccc(Oc7ccc(F)cc7F)cc6)c(C(N)=O)c5N)C4)C3)ccc2CC1C(=O)NC1CCCc2ccccc21)C(C)(C)C

> <Shape>
0.236

> <Color>
0.059

> <Negative vol penalty>
0.000

$$$$

  -OEChem-04042321313D

 85 94  0     1  0  0  0  0  0999 V2000
  -17.6414  -26.3381   22.6082 C   0  0  0  0  0  0  0  0  0  0  0  0
  -18.8497  -25.9849   22.0160 C   0  0  0  0  0  0  0  0  0  0  0  0
  -24.1234  -13.8455   19.4831 C   0  0  0  0  0  0  0  0  0  0  0  0
  -26.2158  -14.2610   20.6171 C   0  0  0  0  0  0  0  0  0  0  0  0
  -17.3567  -27.6791   22.8624 C   0  0  0  0  0  0  0  0  0  0  0  0
  -19.7736  -26.9727   21.6767 C   0  0  0  0  0  0  0  0  0  0  0  0
  -26.4368  -26.9154   24.4134 C   0  0  0  0  0  0  0  0  0  0  0  0
  -30.5860  -23.8729   21.1216 C   0  0  0  0  0  0  0  0  0  0  0  0
  -30.1862  -22.9315   20.1732 C   0  0  0  0  0  0  0  0  0  0  0  0
  -24.2799  -12.4759   19.6959 C   0  0  0  0  0  0  0  0  0  0  0  0
  -26.3724  -12.8914   20.8300 C   0  0  0  0  0  0  0  0  0  0  0  0
  -27.7943  -26.8557   24.7295 C   0  0  0  0  0  0  0  0  0  0  0  0
  -23.8554  -10.2854   22.2365 C   0  0  0  0  0  0  0  0  0  0  0  0
  -22.7470   -9.5685   22.6871 C   0  0  0  0  0  0  0  0  0  0  0  0
  -28.1713  -28.9329   23.5501 C   0  0  0  0  0  0  0  0  0  0  0  0
  -30.2006  -21.2139   21.8722 C   0  0  0  0  0  0  0  0  0  0  0  0
  -22.8408   -8.1814   20.7111 C   0  0  0  0  0  0  0  0  0  0  0  0
  -25.0914  -14.7380   19.9436 C   0  0  0  0  0  0  0  0  0  0  0  0
  -23.8761  -16.9690   20.1752 C   0  0  0  0  0  0  0  0  0  0  0  0
  -18.2817  -28.6830   22.5349 C   0  0  0  0  0  0  0  0  0  0  0  0
  -25.9382  -27.9933   23.6767 C   0  0  0  0  0  0  0  0  0  0  0  0
  -19.5005  -28.3285   21.9256 C   0  0  0  0  0  0  0  0  0  0  0  0
  -26.8103  -29.0045   23.2411 C   0  0  0  0  0  0  0  0  0  0  0  0
  -30.7932  -23.4849   22.4453 C   0  0  0  0  0  0  0  0  0  0  0  0
  -29.9935  -21.6020   20.5485 C   0  0  0  0  0  0  0  0  0  0  0  0
  -25.4044  -11.9988   20.3694 C   0  0  0  0  0  0  0  0  0  0  0  0
  -28.6594  -27.8618   24.2987 C   0  0  0  0  0  0  0  0  0  0  0  0
  -24.4565   -9.9503   21.0231 C   0  0  0  0  0  0  0  0  0  0  0  0
  -22.2397   -8.5165   21.9244 C   0  0  0  0  0  0  0  0  0  0  0  0
  -23.9493   -8.8983   20.2605 C   0  0  0  0  0  0  0  0  0  0  0  0
  -30.6004  -22.1553   22.8206 C   0  0  0  0  0  0  0  0  0  0  0  0
  -24.9305  -16.1529   19.7235 C   0  0  0  0  0  0  0  0  0  0  0  0
  -24.1873  -18.2223   19.7073 C   0  0  0  0  0  0  0  0  0  0  0  0
  -32.4242  -24.3609   24.0977 C   0  0  0  0  0  0  0  0  0  0  0  0
  -22.7188  -16.6249   20.9486 C   0  0  0  0  0  0  0  0  0  0  0  0
  -22.9481  -29.6429   22.1229 C   0  0  0  0  0  0  0  0  0  0  0  0
  -24.6482  -31.8717   23.3690 C   0  0  0  0  0  0  0  0  0  0  0  0
  -26.5837  -33.9743   25.2317 C   0  0  0  0  0  0  0  0  0  0  0  0
  -29.3387  -20.8653   18.2301 C   0  0  0  0  0  0  0  0  0  0  0  0
  -17.9095  -30.1228   22.7857 C   0  0  0  0  0  0  0  0  0  0  0  0
  -24.4941  -28.0675   23.2607 C   0  0  0  0  0  0  0  0  0  0  0  0
  -26.2355  -30.1273   22.4214 C   0  0  0  0  0  0  0  0  0  0  0  0
  -32.6193  -25.2790   25.2908 C   0  0  0  0  0  0  0  0  0  0  0  0
  -19.1002  -31.0769   22.7383 C   0  0  0  0  0  0  0  0  0  0  0  0
  -32.0148  -26.6529   25.1201 C   0  0  0  0  0  0  0  0  0  0  0  0
  -26.4966  -20.4183   16.1326 C   0  0  0  0  0  0  0  0  0  0  0  0
  -19.9655  -30.7904   21.5152 C   0  0  0  0  0  0  0  0  0  0  0  0
  -25.6735  -19.3524   16.8596 C   0  0  0  0  0  0  0  0  0  0  0  0
  -27.9970  -20.1613   16.2606 C   0  0  0  0  0  0  0  0  0  0  0  0
  -27.6590  -18.9219   18.3627 C   0  0  0  0  0  0  0  0  0  0  0  0
  -30.4176  -25.7284   23.4666 C   0  0  0  0  0  0  0  0  0  0  0  0
  -20.5387  -29.3690   21.5657 C   0  0  1  0  0  0  0  0  0  0  0  0
  -23.9469  -29.5059   23.2342 C   0  0  1  0  0  0  0  0  0  0  0  0
  -26.1432  -19.1745   18.3167 C   0  0  2  0  0  0  0  0  0  0  0  0
  -30.5505  -26.5039   24.7689 C   0  0  2  0  0  0  0  0  0  1  0  0
  -26.7959  -36.3843   25.8982 C   0  0  0  0  0  0  0  0  0  0  0  0
  -25.7660  -32.5327   20.6091 C   0  0  0  0  0  0  0  0  0  0  0  0
  -26.8057  -34.5836   21.5995 C   0  0  0  0  0  0  0  0  0  0  0  0
  -24.3255  -34.3173   21.6064 C   0  0  0  0  0  0  0  0  0  0  0  0
  -26.2524  -33.3302   28.1013 C   0  0  0  0  0  0  0  0  0  0  0  0
  -25.7282  -32.9036   23.1639 C   0  0  1  0  0  0  0  0  0  0  0  0
  -26.2226  -35.0247   26.2665 C   0  0  2  0  0  0  0  0  0  0  0  0
  -25.6622  -33.5585   21.7553 C   0  0  0  0  0  0  0  0  0  0  0  0
  -25.8432  -16.8307   19.0224 N   0  0  0  0  0  0  0  0  0  0  0  0
  -25.3632  -18.0859   19.0299 N   0  0  0  0  0  0  0  0  0  0  0  0
  -31.2078  -24.4875   23.4034 N   0  0  0  0  0  0  0  0  0  0  0  0
  -24.9490  -30.5575   22.9910 N   0  0  0  0  0  0  0  0  0  0  0  0
  -28.3695  -20.0074   17.6685 N   0  0  0  0  0  0  0  0  0  0  0  0
  -23.5670  -19.4166   19.8133 N   0  0  0  0  0  0  0  0  0  0  0  0
  -22.8034  -16.6968   22.3457 N   0  0  0  0  0  0  0  0  0  0  0  0
  -29.5873  -20.6461   19.5846 N   0  0  0  0  0  0  0  0  0  0  0  0
  -21.6568  -29.3072   22.4824 N   0  0  0  0  0  0  0  0  0  0  0  0
  -25.6051  -33.8485   24.2686 N   0  0  0  0  0  0  0  0  0  0  0  0
  -26.7529  -34.6377   27.6043 N   0  3  0  0  0  0  0  0  0  0  0  0
  -33.3069  -23.5342   23.8521 O   0  0  0  0  0  0  0  0  0  0  0  0
  -21.6468  -16.2487   20.4170 O   0  0  0  0  0  0  0  0  0  0  0  0
  -23.3201  -30.0264   21.0201 O   0  0  0  0  0  0  0  0  0  0  0  0
  -23.5643  -32.2196   23.8460 O   0  0  0  0  0  0  0  0  0  0  0  0
  -27.6311  -33.3324   25.2716 O   0  0  0  0  0  0  0  0  0  0  0  0
  -29.8866  -21.7486   17.5656 O   0  0  0  0  0  0  0  0  0  0  0  0
  -25.5574  -10.6625   20.5775 O   0  0  0  0  0  0  0  0  0  0  0  0
  -29.9826  -27.7996   24.6146 O   0  0  0  0  0  0  0  0  0  1  0  0
  -21.1762   -7.8272   22.3580 F   0  0  0  0  0  0  0  0  0  0  0  0
  -24.5232   -8.5710   19.0946 F   0  0  0  0  0  0  0  0  0  0  0  0
  -30.8458  -21.6322   24.4489 Cl  0  0  0  0  0  0  0  0  0  0  0  0
  1  2  1  0  0  0  0
  1  5  2  0  0  0  0
  2  6  2  0  0  0  0
  3 10  2  0  0  0  0
  3 18  1  0  0  0  0
  4 11  1  0  0  0  0
  4 18  2  0  0  0  0
  5 20  1  0  0  0  0
  6 22  1  0  0  0  0
  7 12  2  0  0  0  0
  7 21  1  0  0  0  0
  8  9  2  0  0  0  0
  8 24  1  0  0  0  0
  9 25  1  0  0  0  0
 10 26  1  0  0  0  0
 11 26  2  0  0  0  0
 12 27  1  0  0  0  0
 13 14  2  0  0  0  0
 13 28  1  0  0  0  0
 14 29  1  0  0  0  0
 15 23  1  0  0  0  0
 15 27  2  0  0  0  0
 16 25  2  0  0  0  0
 16 31  1  0  0  0  0
 17 29  2  0  0  0  0
 17 30  1  0  0  0  0
 18 32  1  0  0  0  0
 19 32  1  0  0  0  0
 19 33  2  0  0  0  0
 19 35  1  0  0  0  0
 20 22  2  0  0  0  0
 20 40  1  0  0  0  0
 21 23  2  0  0  0  0
 21 41  1  0  0  0  0
 22 52  1  0  0  0  0
 23 42  1  0  0  0  0
 24 31  2  0  0  0  0
 24 66  1  0  0  0  0
 25 71  1  0  0  0  0
 26 81  1  0  0  0  0
 27 82  1  0  0  0  0
 28 30  2  0  0  0  0
 28 81  1  0  0  0  0
 29 83  1  0  0  0  0
 30 84  1  0  0  0  0
 31 85  1  0  0  0  0
 32 64  2  0  0  0  0
 33 65  1  0  0  0  0
 33 69  1  0  0  0  0
 34 43  1  0  0  0  0
 34 66  1  0  0  0  0
 34 75  2  0  0  0  0
 35 70  1  0  0  0  0
 35 76  2  0  0  0  0
 36 53  1  0  0  0  0
 36 72  1  0  0  0  0
 36 77  2  0  0  0  0
 37 61  1  0  0  0  0
 37 67  1  0  0  0  0
 37 78  2  0  0  0  0
 38 62  1  0  0  0  0
 38 73  1  0  0  0  0
 38 79  2  0  0  0  0
 39 68  1  0  0  0  0
 39 71  1  0  0  0  0
 39 80  2  0  0  0  0
 40 44  1  0  0  0  0
 41 53  1  0  0  0  0
 42 67  1  0  0  0  0
 43 45  1  0  0  0  0
 44 47  1  0  0  0  0
 45 55  1  0  0  0  0
 46 48  1  0  0  0  0
 46 49  1  0  0  0  0
 47 52  1  0  0  0  0
 48 54  1  0  0  0  0
 49 68  1  0  0  0  0
 50 54  1  0  0  0  0
 50 68  1  0  0  0  0
 51 55  1  0  0  0  0
 51 66  1  0  0  0  0
 52 72  1  0  0  0  0
 53 67  1  0  0  0  0
 54 65  1  0  0  0  0
 55 82  1  0  0  0  0
 56 62  1  0  0  0  0
 57 63  1  0  0  0  0
 58 63  1  0  0  0  0
 59 63  1  0  0  0  0
 60 74  1  0  0  0  0
 61 63  1  0  0  0  0
 61 73  1  0  0  0  0
 62 74  1  0  0  0  0
 64 65  1  0  0  0  0
M  CHG  1  74   1
M  ISO  4  39 100  55 101  71 100  82 101
M  END
> <Batch ID>
0028

> <Smiles>
CNC(C)C(=O)NC(C(=O)N1Cc2cc([101O:1][101CH:1]3CCC(=O)N(c4ccc([100NH:0][100C:0](=O)N5CCCC(n6nc(-c7ccc(Oc8ccc(F)cc8F)cc7)c(C(N)=O)c6N)C5)cc4Cl)C3)ccc2CC1C(=O)NC1CCCc2ccccc21)C(C)(C)C

> <Shape>
0.235

> <Color>
0.101

> <Negative vol penalty>
0.000

$$$$

  -OEChem-04042321313D

 81 89  0     1  0  0  0  0  0999 V2000
  -30.1281  -35.8047   21.0617 C   0  0  0  0  0  0  0  0  0  0  0  0
  -30.1041  -34.4140   21.0355 C   0  0  0  0  0  0  0  0  0  0  0  0
  -26.2725  -13.3025   21.4086 C   0  0  0  0  0  0  0  0  0  0  0  0
  -27.3352  -12.8783   19.2808 C   0  0  0  0  0  0  0  0  0  0  0  0
  -29.1939  -36.5026   21.8260 C   0  0  0  0  0  0  0  0  0  0  0  0
  -29.1465  -33.7203   21.7746 C   0  0  0  0  0  0  0  0  0  0  0  0
  -27.0136  -29.9558   19.1432 C   0  0  0  0  0  0  0  0  0  0  0  0
  -25.8310  -11.9801   21.4518 C   0  0  0  0  0  0  0  0  0  0  0  0
  -26.8938  -11.5558   19.3239 C   0  0  0  0  0  0  0  0  0  0  0  0
  -27.7488  -28.7793   19.0050 C   0  0  0  0  0  0  0  0  0  0  0  0
  -24.1189   -8.8108   21.9496 C   0  0  0  0  0  0  0  0  0  0  0  0
  -22.7962   -8.5790   22.3269 C   0  0  0  0  0  0  0  0  0  0  0  0
  -26.4607  -27.7732   20.7793 C   0  0  0  0  0  0  0  0  0  0  0  0
  -29.5696  -24.2643   17.6621 C   0  0  0  0  0  0  0  0  0  0  0  0
  -31.3601  -23.5587   19.6818 C   0  0  0  0  0  0  0  0  0  0  0  0
  -22.0307   -9.9009   20.4551 C   0  0  0  0  0  0  0  0  0  0  0  0
  -27.0246  -13.7516   20.3231 C   0  0  0  0  0  0  0  0  0  0  0  0
  -28.6925  -15.6266   20.7814 C   0  0  0  0  0  0  0  0  0  0  0  0
  -28.2184  -35.8174   22.5672 C   0  0  0  0  0  0  0  0  0  0  0  0
  -26.0020  -30.0537   20.1094 C   0  0  0  0  0  0  0  0  0  0  0  0
  -28.1992  -34.4097   22.5506 C   0  0  0  0  0  0  0  0  0  0  0  0
  -25.7124  -28.9512   20.9259 C   0  0  0  0  0  0  0  0  0  0  0  0
  -30.1743  -23.0074   17.6503 C   0  0  0  0  0  0  0  0  0  0  0  0
  -29.8603  -25.1685   18.6838 C   0  0  0  0  0  0  0  0  0  0  0  0
  -31.0695  -22.6546   18.6601 C   0  0  0  0  0  0  0  0  0  0  0  0
  -26.1416  -11.1067   20.4095 C   0  0  0  0  0  0  0  0  0  0  0  0
  -27.4744  -27.6887   19.8251 C   0  0  0  0  0  0  0  0  0  0  0  0
  -24.3975   -9.5877   20.8251 C   0  0  0  0  0  0  0  0  0  0  0  0
  -21.7521   -9.1241   21.5797 C   0  0  0  0  0  0  0  0  0  0  0  0
  -30.7555  -24.8156   19.6936 C   0  0  0  0  0  0  0  0  0  0  0  0
  -23.3534  -10.1327   20.0778 C   0  0  0  0  0  0  0  0  0  0  0  0
  -27.4804  -15.1177   20.2777 C   0  0  0  0  0  0  0  0  0  0  0  0
  -28.6486  -16.9684   20.4910 C   0  0  0  0  0  0  0  0  0  0  0  0
  -29.7625  -14.9472   21.4517 C   0  0  0  0  0  0  0  0  0  0  0  0
  -25.5119  -31.8764   22.6670 C   0  0  0  0  0  0  0  0  0  0  0  0
  -22.6397  -30.3693   22.7080 C   0  0  0  0  0  0  0  0  0  0  0  0
  -20.7863  -27.6417   21.8295 C   0  0  0  0  0  0  0  0  0  0  0  0
  -27.5724  -21.1500   16.9552 C   0  0  0  0  0  0  0  0  0  0  0  0
  -27.2592  -36.6139   23.4159 C   0  0  0  0  0  0  0  0  0  0  0  0
  -25.2002  -31.3208   20.2277 C   0  0  0  0  0  0  0  0  0  0  0  0
  -24.6230  -28.9983   21.9649 C   0  0  0  0  0  0  0  0  0  0  0  0
  -26.0423  -35.8139   23.8738 C   0  0  0  0  0  0  0  0  0  0  0  0
  -24.8397  -19.8556   18.8349 C   0  0  0  0  0  0  0  0  0  0  0  0
  -26.4700  -34.4511   24.4091 C   0  0  0  0  0  0  0  0  0  0  0  0
  -25.3810  -18.5472   19.4138 C   0  0  0  0  0  0  0  0  0  0  0  0
  -25.3727  -20.1131   17.4273 C   0  0  0  0  0  0  0  0  0  0  0  0
  -27.3832  -18.7625   17.8829 C   0  0  0  0  0  0  0  0  0  0  0  0
  -27.1604  -33.6222   23.3193 C   0  0  1  0  0  0  0  0  0  0  0  0
  -24.5379  -31.4835   21.5924 C   0  0  1  0  0  0  0  0  0  0  0  0
  -26.9177  -18.4872   19.3230 C   0  0  2  0  0  0  0  0  0  0  0  0
  -31.7293  -21.3150   18.6687 C   0  0  0  0  0  0  0  0  0  0  0  0
  -18.4782  -26.6788   22.0361 C   0  0  0  0  0  0  0  0  0  0  0  0
  -23.2132  -29.6238   25.6107 C   0  0  0  0  0  0  0  0  0  0  0  0
  -21.3893  -27.9153   25.4592 C   0  0  0  0  0  0  0  0  0  0  0  0
  -20.8577  -30.3343   25.1619 C   0  0  0  0  0  0  0  0  0  0  0  0
  -20.4083  -27.6166   18.8943 C   0  0  0  0  0  0  0  0  0  0  0  0
  -29.8465  -22.0559   16.5467 C   0  0  0  0  0  0  0  0  0  0  0  0
  -29.2093  -26.5203   18.6934 C   0  0  0  0  0  0  0  0  0  1  0  0
  -22.1042  -29.1059   23.3373 C   0  0  1  0  0  0  0  0  0  0  0  0
  -19.4174  -27.5191   21.1849 C   0  0  2  0  0  0  0  0  0  0  0  0
  -21.9130  -29.2443   24.8741 C   0  0  0  0  0  0  0  0  0  0  0  0
  -26.7219  -16.0595   19.7105 N   0  0  0  0  0  0  0  0  0  0  0  0
  -27.4591  -17.1736   19.8561 N   0  0  0  0  0  0  0  0  0  0  0  0
  -23.8712  -30.2615   22.0464 N   0  0  0  0  0  0  0  0  0  0  0  0
  -26.8359  -20.0438   17.4102 N   0  0  0  0  0  0  0  0  0  0  0  0
  -29.5118  -17.9808   20.7195 N   0  0  0  0  0  0  0  0  0  0  0  0
  -29.6455  -13.5676   21.6691 N   0  0  0  0  0  0  0  0  0  0  0  0
  -26.1803  -33.0593   22.4153 N   0  0  0  0  0  0  0  0  0  0  0  0
  -20.8835  -28.7736   22.6108 N   0  0  0  0  0  0  0  0  0  0  0  0
  -28.9540  -21.0032   16.9779 N   0  0  0  0  0  0  0  0  0  0  0  0
  -19.5320  -26.8820   19.8426 N   0  3  0  0  0  0  0  0  0  0  0  0
  -30.7844  -15.5488   21.8607 O   0  0  0  0  0  0  0  0  0  0  0  0
  -25.6458  -31.1601   23.6522 O   0  0  0  0  0  0  0  0  0  0  0  0
  -21.9859  -31.4118   22.7940 O   0  0  0  0  0  0  0  0  0  0  0  0
  -21.6789  -26.8139   21.6600 O   0  0  0  0  0  0  0  0  0  0  0  0
  -27.0385  -22.1932   16.5633 O   0  0  0  0  0  0  0  0  0  0  0  0
  -25.7112   -9.8162   20.4513 O   0  0  0  0  0  0  0  0  0  0  0  0
  -28.1909  -26.5394   19.6928 O   0  0  0  0  0  0  0  0  0  1  0  0
  -20.4819   -8.9001   21.9412 F   0  0  0  0  0  0  0  0  0  0  0  0
  -31.0411  -25.6778   20.6795 F   0  0  0  0  0  0  0  0  0  0  0  0
  -23.6148  -10.8789   18.9959 F   0  0  0  0  0  0  0  0  0  0  0  0
  1  2  1  0  0  0  0
  1  5  2  0  0  0  0
  2  6  2  0  0  0  0
  3  8  2  0  0  0  0
  3 17  1  0  0  0  0
  4  9  1  0  0  0  0
  4 17  2  0  0  0  0
  5 19  1  0  0  0  0
  6 21  1  0  0  0  0
  7 10  2  0  0  0  0
  7 20  1  0  0  0  0
  8 26  1  0  0  0  0
  9 26  2  0  0  0  0
 10 27  1  0  0  0  0
 11 12  2  0  0  0  0
 11 28  1  0  0  0  0
 12 29  1  0  0  0  0
 13 22  1  0  0  0  0
 13 27  2  0  0  0  0
 14 23  2  0  0  0  0
 14 24  1  0  0  0  0
 15 25  2  0  0  0  0
 15 30  1  0  0  0  0
 16 29  2  0  0  0  0
 16 31  1  0  0  0  0
 17 32  1  0  0  0  0
 18 32  1  0  0  0  0
 18 33  2  0  0  0  0
 18 34  1  0  0  0  0
 19 21  2  0  0  0  0
 19 39  1  0  0  0  0
 20 22  2  0  0  0  0
 20 40  1  0  0  0  0
 21 48  1  0  0  0  0
 22 41  1  0  0  0  0
 23 25  1  0  0  0  0
 23 57  1  0  0  0  0
 24 30  2  0  0  0  0
 24 58  1  0  0  0  0
 25 51  1  0  0  0  0
 26 77  1  0  0  0  0
 27 78  1  0  0  0  0
 28 31  2  0  0  0  0
 28 77  1  0  0  0  0
 29 79  1  0  0  0  0
 30 80  1  0  0  0  0
 31 81  1  0  0  0  0
 32 62  2  0  0  0  0
 33 63  1  0  0  0  0
 33 66  1  0  0  0  0
 34 67  1  0  0  0  0
 34 72  2  0  0  0  0
 35 49  1  0  0  0  0
 35 68  1  0  0  0  0
 35 73  2  0  0  0  0
 36 59  1  0  0  0  0
 36 64  1  0  0  0  0
 36 74  2  0  0  0  0
 37 60  1  0  0  0  0
 37 69  1  0  0  0  0
 37 75  2  0  0  0  0
 38 65  1  0  0  0  0
 38 70  1  0  0  0  0
 38 76  2  0  0  0  0
 39 42  1  0  0  0  0
 40 49  1  0  0  0  0
 41 64  1  0  0  0  0
 42 44  1  0  0  0  0
 43 45  1  0  0  0  0
 43 46  1  0  0  0  0
 44 48  1  0  0  0  0
 45 50  1  0  0  0  0
 46 65  1  0  0  0  0
 47 50  1  0  0  0  0
 47 65  1  0  0  0  0
 48 68  1  0  0  0  0
 49 64  1  0  0  0  0
 50 63  1  0  0  0  0
 52 60  1  0  0  0  0
 53 61  1  0  0  0  0
 54 61  1  0  0  0  0
 55 61  1  0  0  0  0
 56 71  1  0  0  0  0
 57 70  1  0  0  0  0
 58 78  1  0  0  0  0
 59 61  1  0  0  0  0
 59 69  1  0  0  0  0
 60 71  1  0  0  0  0
 62 63  1  0  0  0  0
M  CHG  1  71   1
M  ISO  4  38 100  58 101  70 100  78 101
M  END
> <Batch ID>
0028

> <Smiles>
CNC(C)C(=O)NC(C(=O)N1Cc2cc([101O:1][101CH2:1]c3cc(C[100NH:0][100C:0](=O)N4CCCC(n5nc(-c6ccc(Oc7ccc(F)cc7F)cc6)c(C(N)=O)c5N)C4)c(C)cc3F)ccc2CC1C(=O)NC1CCCc2ccccc21)C(C)(C)C

> <Shape>
0.307

> <Color>
0.084

> <Negative vol penalty>
0.000

$$$$

  -OEChem-04042321313D

 85 94  0     1  0  0  0  0  0999 V2000
  -26.2624  -36.5680   25.1953 C   0  0  0  0  0  0  0  0  0  0  0  0
  -27.0759  -35.7464   24.4217 C   0  0  0  0  0  0  0  0  0  0  0  0
  -23.7515   -9.8698   21.7573 C   0  0  0  0  0  0  0  0  0  0  0  0
  -24.4078  -11.1103   23.7239 C   0  0  0  0  0  0  0  0  0  0  0  0
  -25.1712  -36.0270   25.8740 C   0  0  0  0  0  0  0  0  0  0  0  0
  -26.7994  -34.3830   24.3272 C   0  0  0  0  0  0  0  0  0  0  0  0
  -27.2438  -28.9016   19.7366 C   0  0  0  0  0  0  0  0  0  0  0  0
  -23.2437   -8.8542   22.5674 C   0  0  0  0  0  0  0  0  0  0  0  0
  -23.8999  -10.0947   24.5340 C   0  0  0  0  0  0  0  0  0  0  0  0
  -27.7392  -27.6008   19.6570 C   0  0  0  0  0  0  0  0  0  0  0  0
  -24.4550   -6.2525   24.3529 C   0  0  0  0  0  0  0  0  0  0  0  0
  -24.7612   -4.9359   24.0088 C   0  0  0  0  0  0  0  0  0  0  0  0
  -25.7809  -26.7908   20.8095 C   0  0  0  0  0  0  0  0  0  0  0  0
  -30.5349  -20.8692   20.9451 C   0  0  0  0  0  0  0  0  0  0  0  0
  -31.1144  -18.6124   20.3065 C   0  0  0  0  0  0  0  0  0  0  0  0
  -22.4064   -4.4508   23.7697 C   0  0  0  0  0  0  0  0  0  0  0  0
  -24.3336  -10.9979   22.3356 C   0  0  0  0  0  0  0  0  0  0  0  0
  -24.1692  -13.1759   21.0177 C   0  0  0  0  0  0  0  0  0  0  0  0
  -24.8756  -34.6579   25.7800 C   0  0  0  0  0  0  0  0  0  0  0  0
  -26.0163  -29.1585   20.3640 C   0  0  0  0  0  0  0  0  0  0  0  0
  -25.7041  -33.8228   25.0063 C   0  0  0  0  0  0  0  0  0  0  0  0
  -25.2709  -28.0954   20.8935 C   0  0  0  0  0  0  0  0  0  0  0  0
  -29.1818  -20.5326   20.9070 C   0  0  0  0  0  0  0  0  0  0  0  0
  -28.7950  -19.2359   20.5686 C   0  0  0  0  0  0  0  0  0  0  0  0
  -29.7613  -18.2757   20.2684 C   0  0  0  0  0  0  0  0  0  0  0  0
  -23.3179   -8.9667   23.9557 C   0  0  0  0  0  0  0  0  0  0  0  0
  -27.0092  -26.5456   20.1961 C   0  0  0  0  0  0  0  0  0  0  0  0
  -23.1245   -6.6683   24.4055 C   0  0  0  0  0  0  0  0  0  0  0  0
  -23.7369   -4.0351   23.7172 C   0  0  0  0  0  0  0  0  0  0  0  0
  -31.5012  -19.9091   20.6448 C   0  0  0  0  0  0  0  0  0  0  0  0
  -22.1003   -5.7674   24.1138 C   0  0  0  0  0  0  0  0  0  0  0  0
  -24.8589  -12.0471   21.4993 C   0  0  0  0  0  0  0  0  0  0  0  0
  -25.1028  -13.8584   20.2767 C   0  0  0  0  0  0  0  0  0  0  0  0
  -22.8065  -13.5722   21.2219 C   0  0  0  0  0  0  0  0  0  0  0  0
  -25.1010  -30.8523   22.8932 C   0  0  0  0  0  0  0  0  0  0  0  0
  -22.1301  -30.0480   21.8688 C   0  0  0  0  0  0  0  0  0  0  0  0
  -20.1588  -27.8923   20.1041 C   0  0  0  0  0  0  0  0  0  0  0  0
  -30.2401  -15.8953   19.5969 C   0  0  0  0  0  0  0  0  0  0  0  0
  -23.7131  -34.1104   26.5697 C   0  0  0  0  0  0  0  0  0  0  0  0
  -25.4831  -30.5639   20.4180 C   0  0  0  0  0  0  0  0  0  0  0  0
  -23.9380  -28.3156   21.5593 C   0  0  0  0  0  0  0  0  0  0  0  0
  -23.2687  -32.7221   26.1163 C   0  0  0  0  0  0  0  0  0  0  0  0
  -29.7195  -12.4835   18.7218 C   0  0  0  0  0  0  0  0  0  0  0  0
  -24.4758  -31.8064   25.9397 C   0  0  0  0  0  0  0  0  0  0  0  0
  -28.3518  -12.1587   19.3268 C   0  0  0  0  0  0  0  0  0  0  0  0
  -27.5007  -23.7192   18.2872 C   0  0  0  0  0  0  0  0  0  0  0  0
  -30.5247  -13.4268   19.6138 C   0  0  0  0  0  0  0  0  0  0  0  0
  -28.4609  -14.3357   20.6057 C   0  0  0  0  0  0  0  0  0  0  0  0
  -28.3755  -22.7003   18.9894 C   0  0  0  0  0  0  0  0  0  0  0  0
  -26.3776  -23.1418   20.3361 C   0  0  0  0  0  0  0  0  0  0  0  0
  -25.4221  -32.3433   24.8591 C   0  0  1  0  0  0  0  0  0  0  0  0
  -24.4647  -30.7742   21.5343 C   0  0  1  0  0  0  0  0  0  0  0  0
  -27.5873  -13.4403   19.7120 C   0  0  2  0  0  0  0  0  0  0  0  0
  -26.6923  -24.3182   19.4252 C   0  0  1  0  0  0  0  0  0  1  0  0
  -27.3420  -18.8789   20.5290 C   0  0  0  0  0  0  0  0  0  0  0  0
  -17.7645  -27.4741   19.4800 C   0  0  0  0  0  0  0  0  0  0  0  0
  -21.5879  -28.9795   24.6749 C   0  0  0  0  0  0  0  0  0  0  0  0
  -19.6110  -27.7526   23.7502 C   0  0  0  0  0  0  0  0  0  0  0  0
  -19.6867  -30.2442   23.6547 C   0  0  0  0  0  0  0  0  0  0  0  0
  -20.7419  -28.1704   17.2159 C   0  0  0  0  0  0  0  0  0  0  0  0
  -28.1633  -21.5839   21.2361 C   0  0  0  0  0  0  0  0  0  0  0  0
  -21.1852  -28.8991   22.1259 C   0  0  1  0  0  0  0  0  0  0  0  0
  -19.0718  -28.1359   19.0729 C   0  0  2  0  0  0  0  0  0  0  0  0
  -20.5437  -28.9646   23.5407 C   0  0  0  0  0  0  0  0  0  0  0  0
  -26.1323  -12.0108   21.0979 N   0  0  0  0  0  0  0  0  0  0  0  0
  -26.2501  -13.1252   20.3561 N   0  0  0  0  0  0  0  0  0  0  0  0
  -23.4622  -29.7085   21.5928 N   0  0  0  0  0  0  0  0  0  0  0  0
  -29.7387  -14.6203   19.9341 N   0  0  0  0  0  0  0  0  0  0  0  0
  -25.0460  -15.0080   19.5713 N   0  0  0  0  0  0  0  0  0  0  0  0
  -21.9843  -12.7557   22.0104 N   0  0  0  0  0  0  0  0  0  0  0  0
  -29.3909  -16.9530   19.9207 N   0  0  0  0  0  0  0  0  0  0  0  0
  -24.8986  -32.0562   23.5407 N   0  0  0  0  0  0  0  0  0  0  0  0
  -20.2207  -28.9110   21.0313 N   0  0  0  0  0  0  0  0  0  0  0  0
  -27.4532  -22.1095   20.0301 N   0  3  2  0  0  0  0  0  0  0  0  0
  -19.4825  -27.5897   17.7485 N   0  3  0  0  0  0  0  0  0  0  0  0
  -22.3276  -14.6107   20.7066 O   0  0  0  0  0  0  0  0  0  0  0  0
  -25.7277  -29.8910   23.3231 O   0  0  0  0  0  0  0  0  0  0  0  0
  -21.7006  -31.2038   21.9042 O   0  0  0  0  0  0  0  0  0  0  0  0
  -20.8784  -26.8961   20.0908 O   0  0  0  0  0  0  0  0  0  0  0  0
  -31.3297  -16.0366   19.0358 O   0  0  0  0  0  0  0  0  0  0  0  0
  -22.8222   -7.9759   24.7465 O   0  0  0  0  0  0  0  0  0  0  0  0
  -27.4908  -25.2750   20.1203 O   0  0  0  0  0  0  0  0  0  1  0  0
  -24.0311   -2.7712   23.3852 F   0  0  0  0  0  0  0  0  0  0  0  0
  -32.8005  -20.2328   20.6793 F   0  0  0  0  0  0  0  0  0  0  0  0
  -20.8203   -6.1614   24.1615 F   0  0  0  0  0  0  0  0  0  0  0  0
  1  2  1  0  0  0  0
  1  5  2  0  0  0  0
  2  6  2  0  0  0  0
  3  8  2  0  0  0  0
  3 17  1  0  0  0  0
  4  9  1  0  0  0  0
  4 17  2  0  0  0  0
  5 19  1  0  0  0  0
  6 21  1  0  0  0  0
  7 10  2  0  0  0  0
  7 20  1  0  0  0  0
  8 26  1  0  0  0  0
  9 26  2  0  0  0  0
 10 27  1  0  0  0  0
 11 12  2  0  0  0  0
 11 28  1  0  0  0  0
 12 29  1  0  0  0  0
 13 22  1  0  0  0  0
 13 27  2  0  0  0  0
 14 23  1  0  0  0  0
 14 30  2  0  0  0  0
 15 25  2  0  0  0  0
 15 30  1  0  0  0  0
 16 29  2  0  0  0  0
 16 31  1  0  0  0  0
 17 32  1  0  0  0  0
 18 32  1  0  0  0  0
 18 33  2  0  0  0  0
 18 34  1  0  0  0  0
 19 21  2  0  0  0  0
 19 39  1  0  0  0  0
 20 22  2  0  0  0  0
 20 40  1  0  0  0  0
 21 51  1  0  0  0  0
 22 41  1  0  0  0  0
 23 24  2  0  0  0  0
 23 61  1  0  0  0  0
 24 25  1  0  0  0  0
 24 55  1  0  0  0  0
 25 71  1  0  0  0  0
 26 81  1  0  0  0  0
 27 82  1  0  0  0  0
 28 31  2  0  0  0  0
 28 81  1  0  0  0  0
 29 83  1  0  0  0  0
 30 84  1  0  0  0  0
 31 85  1  0  0  0  0
 32 65  2  0  0  0  0
 33 66  1  0  0  0  0
 33 69  1  0  0  0  0
 34 70  1  0  0  0  0
 34 76  2  0  0  0  0
 35 52  1  0  0  0  0
 35 72  1  0  0  0  0
 35 77  2  0  0  0  0
 36 62  1  0  0  0  0
 36 67  1  0  0  0  0
 36 78  2  0  0  0  0
 37 63  1  0  0  0  0
 37 73  1  0  0  0  0
 37 79  2  0  0  0  0
 38 68  1  0  0  0  0
 38 71  1  0  0  0  0
 38 80  2  0  0  0  0
 39 42  1  0  0  0  0
 40 52  1  0  0  0  0
 41 67  1  0  0  0  0
 42 44  1  0  0  0  0
 43 45  1  0  0  0  0
 43 47  1  0  0  0  0
 44 51  1  0  0  0  0
 45 53  1  0  0  0  0
 46 49  1  0  0  0  0
 46 54  1  0  0  0  0
 47 68  1  0  0  0  0
 48 53  1  0  0  0  0
 48 68  1  0  0  0  0
 49 74  1  0  0  0  0
 50 54  1  0  0  0  0
 50 74  1  0  0  0  0
 51 72  1  0  0  0  0
 52 67  1  0  0  0  0
 53 66  1  0  0  0  0
 54 82  1  0  0  0  0
 56 63  1  0  0  0  0
 57 64  1  0  0  0  0
 58 64  1  0  0  0  0
 59 64  1  0  0  0  0
 60 75  1  0  0  0  0
 61 74  1  0  0  0  0
 62 64  1  0  0  0  0
 62 73  1  0  0  0  0
 63 75  1  0  0  0  0
 65 66  1  0  0  0  0
M  CHG  2  74   1  75   1
M  ISO  4  38 100  54 101  71 100  82 101
M  END
> <Batch ID>
0028

> <Smiles>
CNC(C)C(=O)NC(C(=O)N1Cc2cc([101O:1][101CH:1]3CCN(Cc4cc(F)cc([100NH:0][100C:0](=O)N5CCCC(n6nc(-c7ccc(Oc8ccc(F)cc8F)cc7)c(C(N)=O)c6N)C5)c4C)C3)ccc2CC1C(=O)NC1CCCc2ccccc21)C(C)(C)C

> <Shape>
0.348

> <Color>
0.130

> <Negative vol penalty>
0.000

$$$$

  -OEChem-04042321313D

 86 95  0     1  0  0  0  0  0999 V2000
  -31.1980  -24.4523   16.7243 C   0  0  0  0  0  0  0  0  0  0  0  0
  -30.1150  -24.3272   17.5886 C   0  0  0  0  0  0  0  0  0  0  0  0
  -24.4411   -8.4317   20.4940 C   0  0  0  0  0  0  0  0  0  0  0  0
  -23.0891  -10.3726   20.9860 C   0  0  0  0  0  0  0  0  0  0  0  0
  -32.0302  -25.5679   16.8083 C   0  0  0  0  0  0  0  0  0  0  0  0
  -29.8643  -25.3171   18.5382 C   0  0  0  0  0  0  0  0  0  0  0  0
  -24.9663  -26.5806   18.7805 C   0  0  0  0  0  0  0  0  0  0  0  0
  -23.5724  -19.2939   21.5282 C   0  0  0  0  0  0  0  0  0  0  0  0
  -24.3853  -18.1915   21.2643 C   0  0  0  0  0  0  0  0  0  0  0  0
  -23.4033   -7.6015   20.9171 C   0  0  0  0  0  0  0  0  0  0  0  0
  -22.0512   -9.5423   21.4091 C   0  0  0  0  0  0  0  0  0  0  0  0
  -24.1188  -25.7146   19.4700 C   0  0  0  0  0  0  0  0  0  0  0  0
  -22.1181   -6.5187   23.8497 C   0  0  0  0  0  0  0  0  0  0  0  0
  -22.4439   -5.4480   24.6822 C   0  0  0  0  0  0  0  0  0  0  0  0
  -24.2080  -27.1683   21.3931 C   0  0  0  0  0  0  0  0  0  0  0  0
  -25.8593  -18.8481   23.0625 C   0  0  0  0  0  0  0  0  0  0  0  0
  -21.5687   -3.9057   23.0414 C   0  0  0  0  0  0  0  0  0  0  0  0
  -24.2841   -9.8173   20.5285 C   0  0  0  0  0  0  0  0  0  0  0  0
  -25.9486  -10.7137   18.8157 C   0  0  0  0  0  0  0  0  0  0  0  0
  -31.7838  -26.5766   17.7529 C   0  0  0  0  0  0  0  0  0  0  0  0
  -25.4506  -27.7433   19.3969 C   0  0  0  0  0  0  0  0  0  0  0  0
  -30.6947  -26.4466   18.6357 C   0  0  0  0  0  0  0  0  0  0  0  0
  -25.0595  -28.0486   20.7084 C   0  0  0  0  0  0  0  0  0  0  0  0
  -23.9030  -20.1734   22.5592 C   0  0  0  0  0  0  0  0  0  0  0  0
  -25.5288  -17.9686   22.0315 C   0  0  0  0  0  0  0  0  0  0  0  0
  -22.2083   -8.1567   21.3746 C   0  0  0  0  0  0  0  0  0  0  0  0
  -23.7417  -26.0069   20.7775 C   0  0  0  0  0  0  0  0  0  0  0  0
  -21.5174   -6.2829   22.6130 C   0  0  0  0  0  0  0  0  0  0  0  0
  -22.1693   -4.1416   24.2781 C   0  0  0  0  0  0  0  0  0  0  0  0
  -21.2428   -4.9764   22.2089 C   0  0  0  0  0  0  0  0  0  0  0  0
  -25.0464  -19.9504   23.3264 C   0  0  0  0  0  0  0  0  0  0  0  0
  -25.3561  -10.6755   20.0921 C   0  0  0  0  0  0  0  0  0  0  0  0
  -26.9102  -11.6895   18.9125 C   0  0  0  0  0  0  0  0  0  0  0  0
  -23.5332  -22.6225   22.7091 C   0  0  0  0  0  0  0  0  0  0  0  0
  -25.6557   -9.9366   17.6469 C   0  0  0  0  0  0  0  0  0  0  0  0
  -28.3329  -28.8383   20.1700 C   0  0  0  0  0  0  0  0  0  0  0  0
  -26.6739  -31.5052   20.9812 C   0  0  0  0  0  0  0  0  0  0  0  0
  -23.5666  -32.2681   22.6483 C   0  0  0  0  0  0  0  0  0  0  0  0
  -27.5234  -16.4819   22.4285 C   0  0  0  0  0  0  0  0  0  0  0  0
  -32.7388  -27.7409   17.8373 C   0  0  0  0  0  0  0  0  0  0  0  0
  -26.3427  -28.6808   18.6303 C   0  0  0  0  0  0  0  0  0  0  0  0
  -25.5355  -29.2945   21.4081 C   0  0  0  0  0  0  0  0  0  0  0  0
  -32.1849  -28.9273   18.6222 C   0  0  0  0  0  0  0  0  0  0  0  0
  -20.8058  -22.1147   23.6544 C   0  0  0  0  0  0  0  0  0  0  0  0
  -29.8173  -13.7797   22.0928 C   0  0  0  0  0  0  0  0  0  0  0  0
  -31.5542  -28.4554   19.9285 C   0  0  0  0  0  0  0  0  0  0  0  0
  -21.1791  -23.4817   23.1228 C   0  0  0  0  0  0  0  0  0  0  0  0
  -28.9892  -12.6826   21.4200 C   0  0  0  0  0  0  0  0  0  0  0  0
  -21.5935  -21.0426   22.9217 C   0  0  0  0  0  0  0  0  0  0  0  0
  -28.9871  -14.5859   23.0900 C   0  0  0  0  0  0  0  0  0  0  0  0
  -26.9108  -14.0449   21.8794 C   0  0  0  0  0  0  0  0  0  0  0  0
  -30.3755  -27.5113   19.6626 C   0  0  1  0  0  0  0  0  0  0  0  0
  -22.6655  -23.7080   23.3547 C   0  0  2  0  0  0  0  0  0  0  0  0
  -27.1877  -29.5739   19.5335 C   0  0  1  0  0  0  0  0  0  0  0  0
  -27.6874  -13.2478   20.8188 C   0  0  2  0  0  0  0  0  0  0  0  0
  -22.0429  -34.2503   22.4321 C   0  0  0  0  0  0  0  0  0  0  0  0
  -28.2471  -32.6075   23.3518 C   0  0  0  0  0  0  0  0  0  0  0  0
  -26.1045  -33.5401   24.2506 C   0  0  0  0  0  0  0  0  0  0  0  0
  -26.9794  -34.3266   22.0509 C   0  0  0  0  0  0  0  0  0  0  0  0
  -21.2350  -30.5545   22.0267 C   0  0  0  0  0  0  0  0  0  0  0  0
  -23.0669  -25.1017   22.8706 C   0  0  0  0  0  0  0  0  0  1  0  0
  -25.9985  -32.0038   22.2358 C   0  0  1  0  0  0  0  0  0  0  0  0
  -22.3021  -32.8128   22.0089 C   0  0  2  0  0  0  0  0  0  0  0  0
  -26.8349  -33.0917   22.9668 C   0  0  0  0  0  0  0  0  0  0  0  0
  -25.8963  -11.5569   20.9379 N   0  0  0  0  0  0  0  0  0  0  0  0
  -26.8384  -12.1581   20.1914 N   0  0  0  0  0  0  0  0  0  0  0  0
  -23.0376  -21.3068   22.8056 N   0  0  0  0  0  0  0  0  0  0  0  0
  -26.4112  -30.1764   20.6189 N   0  0  0  0  0  0  0  0  0  0  0  0
  -27.7719  -15.0932   22.4490 N   0  0  0  0  0  0  0  0  0  0  0  0
  -27.8019  -12.1839   18.0277 N   0  0  0  0  0  0  0  0  0  0  0  0
  -24.6368   -8.9771   17.7205 N   0  0  0  0  0  0  0  0  0  0  0  0
  -26.3541  -16.8486   21.7629 N   0  0  0  0  0  0  0  0  0  0  0  0
  -29.2050  -28.2637   19.2651 N   0  0  0  0  0  0  0  0  0  0  0  0
  -24.6663  -32.4431   21.8352 N   0  0  0  0  0  0  0  0  0  0  0  0
  -21.1254  -31.9875   22.4030 N   0  3  0  0  0  0  0  0  0  0  0  0
  -24.6207  -22.9272   22.2121 O   0  0  0  0  0  0  0  0  0  0  0  0
  -26.2902  -10.0772   16.5740 O   0  0  0  0  0  0  0  0  0  0  0  0
  -28.4196  -28.7963   21.3916 O   0  0  0  0  0  0  0  0  0  0  0  0
  -27.4020  -32.2688   20.3420 O   0  0  0  0  0  0  0  0  0  0  0  0
  -23.5782  -31.7435   23.7597 O   0  0  0  0  0  0  0  0  0  0  0  0
  -28.3051  -17.2887   22.9384 O   0  0  0  0  0  0  0  0  0  0  0  0
  -21.1952   -7.3468   21.7873 O   0  0  0  0  0  0  0  0  0  0  0  0
  -22.9151  -25.1630   21.4530 O   0  0  0  0  0  0  0  0  0  1  0  0
  -22.4837   -3.1134   25.0770 F   0  0  0  0  0  0  0  0  0  0  0  0
  -20.6670   -4.7436   21.0214 F   0  0  0  0  0  0  0  0  0  0  0  0
  -25.4925  -21.0145   24.6124 Cl  0  0  0  0  0  0  0  0  0  0  0  0
  1  2  1  0  0  0  0
  1  5  2  0  0  0  0
  2  6  2  0  0  0  0
  3 10  2  0  0  0  0
  3 18  1  0  0  0  0
  4 11  1  0  0  0  0
  4 18  2  0  0  0  0
  5 20  1  0  0  0  0
  6 22  1  0  0  0  0
  7 12  2  0  0  0  0
  7 21  1  0  0  0  0
  8  9  2  0  0  0  0
  8 24  1  0  0  0  0
  9 25  1  0  0  0  0
 10 26  1  0  0  0  0
 11 26  2  0  0  0  0
 12 27  1  0  0  0  0
 13 14  2  0  0  0  0
 13 28  1  0  0  0  0
 14 29  1  0  0  0  0
 15 23  1  0  0  0  0
 15 27  2  0  0  0  0
 16 25  2  0  0  0  0
 16 31  1  0  0  0  0
 17 29  2  0  0  0  0
 17 30  1  0  0  0  0
 18 32  1  0  0  0  0
 19 32  1  0  0  0  0
 19 33  2  0  0  0  0
 19 35  1  0  0  0  0
 20 22  2  0  0  0  0
 20 40  1  0  0  0  0
 21 23  2  0  0  0  0
 21 41  1  0  0  0  0
 22 52  1  0  0  0  0
 23 42  1  0  0  0  0
 24 31  2  0  0  0  0
 24 67  1  0  0  0  0
 25 72  1  0  0  0  0
 26 82  1  0  0  0  0
 27 83  1  0  0  0  0
 28 30  2  0  0  0  0
 28 82  1  0  0  0  0
 29 84  1  0  0  0  0
 30 85  1  0  0  0  0
 31 86  1  0  0  0  0
 32 65  2  0  0  0  0
 33 66  1  0  0  0  0
 33 70  1  0  0  0  0
 34 53  1  0  0  0  0
 34 67  1  0  0  0  0
 34 76  2  0  0  0  0
 35 71  1  0  0  0  0
 35 77  2  0  0  0  0
 36 54  1  0  0  0  0
 36 73  1  0  0  0  0
 36 78  2  0  0  0  0
 37 62  1  0  0  0  0
 37 68  1  0  0  0  0
 37 79  2  0  0  0  0
 38 63  1  0  0  0  0
 38 74  1  0  0  0  0
 38 80  2  0  0  0  0
 39 69  1  0  0  0  0
 39 72  1  0  0  0  0
 39 81  2  0  0  0  0
 40 43  1  0  0  0  0
 41 54  1  0  0  0  0
 42 68  1  0  0  0  0
 43 46  1  0  0  0  0
 44 47  1  0  0  0  0
 44 49  1  0  0  0  0
 45 48  1  0  0  0  0
 45 50  1  0  0  0  0
 46 52  1  0  0  0  0
 47 53  1  0  0  0  0
 48 55  1  0  0  0  0
 49 67  1  0  0  0  0
 50 69  1  0  0  0  0
 51 55  1  0  0  0  0
 51 69  1  0  0  0  0
 52 73  1  0  0  0  0
 53 61  1  0  0  0  0
 54 68  1  0  0  0  0
 55 66  1  0  0  0  0
 56 63  1  0  0  0  0
 57 64  1  0  0  0  0
 58 64  1  0  0  0  0
 59 64  1  0  0  0  0
 60 75  1  0  0  0  0
 61 83  1  0  0  0  0
 62 64  1  0  0  0  0
 62 74  1  0  0  0  0
 63 75  1  0  0  0  0
 65 66  1  0  0  0  0
M  CHG  1  75   1
M  ISO  4  39 100  61 101  72 100  83 101
M  END
> <Batch ID>
0028

> <Smiles>
CNC(C)C(=O)NC(C(=O)N1Cc2cc([101O:1][101CH2:1]C3CCCN(c4ccc([100NH:0][100C:0](=O)N5CCCC(n6nc(-c7ccc(Oc8ccc(F)cc8F)cc7)c(C(N)=O)c6N)C5)cc4Cl)C3=O)ccc2CC1C(=O)NC1CCCc2ccccc21)C(C)(C)C

> <Shape>
0.239

> <Color>
0.095

> <Negative vol penalty>
0.000

$$$$

  -OEChem-04042321313D

 89 99  0     1  0  0  0  0  0999 V2000
  -24.0297  -17.9658   19.2122 C   0  0  0  0  0  0  0  0  0  0  0  0
  -23.6322  -19.2505   19.5686 C   0  0  0  0  0  0  0  0  0  0  0  0
  -24.5007  -13.0494   19.3109 C   0  0  0  0  0  0  0  0  0  0  0  0
  -25.0355  -13.1349   21.6655 C   0  0  0  0  0  0  0  0  0  0  0  0
  -25.3460  -17.5597   19.4278 C   0  0  0  0  0  0  0  0  0  0  0  0
  -24.5504  -20.1294   20.1419 C   0  0  0  0  0  0  0  0  0  0  0  0
  -24.3011  -24.7757   18.1432 C   0  0  0  0  0  0  0  0  0  0  0  0
  -20.2814  -23.4242   24.5145 C   0  0  0  0  0  0  0  0  0  0  0  0
  -20.1939  -24.7923   24.2570 C   0  0  0  0  0  0  0  0  0  0  0  0
  -25.8199  -12.6990   19.0240 C   0  0  0  0  0  0  0  0  0  0  0  0
  -26.3547  -12.7844   21.3785 C   0  0  0  0  0  0  0  0  0  0  0  0
  -23.2589  -25.5974   18.5702 C   0  0  0  0  0  0  0  0  0  0  0  0
  -29.9490  -12.2642   21.2354 C   0  0  0  0  0  0  0  0  0  0  0  0
  -30.9630  -12.9756   21.8767 C   0  0  0  0  0  0  0  0  0  0  0  0
  -24.7721  -26.7262   20.0719 C   0  0  0  0  0  0  0  0  0  0  0  0
  -30.1606  -15.0225   20.8748 C   0  0  0  0  0  0  0  0  0  0  0  0
  -24.1084  -13.2674   20.6317 C   0  0  0  0  0  0  0  0  0  0  0  0
  -21.6750  -12.7586   21.2038 C   0  0  0  0  0  0  0  0  0  0  0  0
  -26.2833  -18.4373   19.9952 C   0  0  0  0  0  0  0  0  0  0  0  0
  -25.5864  -24.9160   18.6862 C   0  0  0  0  0  0  0  0  0  0  0  0
  -25.8801  -19.7342   20.3666 C   0  0  0  0  0  0  0  0  0  0  0  0
  -25.8295  -25.9067   19.6483 C   0  0  0  0  0  0  0  0  0  0  0  0
  -19.2083  -22.5870   24.2090 C   0  0  0  0  0  0  0  0  0  0  0  0
  -19.0334  -25.3232   23.6941 C   0  0  0  0  0  0  0  0  0  0  0  0
  -26.7470  -12.5665   20.0578 C   0  0  0  0  0  0  0  0  0  0  0  0
  -23.4936  -26.5709   19.5368 C   0  0  0  0  0  0  0  0  0  0  0  0
  -29.0409  -12.9319   20.4136 C   0  0  0  0  0  0  0  0  0  0  0  0
  -31.0688  -14.3547   21.6965 C   0  0  0  0  0  0  0  0  0  0  0  0
  -29.1467  -14.3110   20.2334 C   0  0  0  0  0  0  0  0  0  0  0  0
  -18.0478  -23.1180   23.6461 C   0  0  0  0  0  0  0  0  0  0  0  0
  -17.9603  -24.4861   23.3886 C   0  0  0  0  0  0  0  0  0  0  0  0
  -22.7459  -13.6300   20.9287 C   0  0  0  0  0  0  0  0  0  0  0  0
  -20.6026  -13.5895   21.4181 C   0  0  0  0  0  0  0  0  0  0  0  0
  -21.6518  -11.3261   21.2606 C   0  0  0  0  0  0  0  0  0  0  0  0
  -27.5330  -23.0389   20.3567 C   0  0  0  0  0  0  0  0  0  0  0  0
  -29.6201  -25.4861   19.9358 C   0  0  0  0  0  0  0  0  0  0  0  0
  -30.1039  -28.8095   19.3294 C   0  0  0  0  0  0  0  0  0  0  0  0
  -20.2703  -19.1818   23.2811 C   0  0  0  0  0  0  0  0  0  0  0  0
  -27.6828  -17.9375   20.2525 C   0  0  0  0  0  0  0  0  0  0  0  0
  -26.7059  -24.0396   18.1956 C   0  0  0  0  0  0  0  0  0  0  0  0
  -27.1959  -26.1115   20.2479 C   0  0  0  0  0  0  0  0  0  0  0  0
  -28.6887  -19.0540   20.5202 C   0  0  0  0  0  0  0  0  0  0  0  0
  -18.8933  -17.8892   20.1939 C   0  0  0  0  0  0  0  0  0  0  0  0
  -28.1195  -20.0574   21.5182 C   0  0  0  0  0  0  0  0  0  0  0  0
  -19.6341  -16.5570   20.0648 C   0  0  0  0  0  0  0  0  0  0  0  0
  -18.1533  -28.7104   22.6640 C   0  0  0  0  0  0  0  0  0  0  0  0
  -19.4333  -28.9433   23.4788 C   0  0  0  0  0  0  0  0  0  0  0  0
  -18.8970  -26.8932   21.0386 C   0  0  0  0  0  0  0  0  0  0  0  0
  -21.0416  -27.2825   22.4045 C   0  0  0  0  0  0  0  0  0  0  0  0
  -19.8019  -18.9738   20.7651 C   0  0  0  0  0  0  0  0  0  0  0  0
  -21.1684  -17.2968   21.9459 C   0  0  0  0  0  0  0  0  0  0  0  0
  -26.8532  -20.7248   20.9682 C   0  0  1  0  0  0  0  0  0  0  0  0
  -27.8575  -23.9284   19.1901 C   0  0  1  0  0  0  0  0  0  0  0  0
  -20.3414  -27.4478   21.0348 C   0  0  0  0  0  0  0  0  0  0  0  0
  -20.2972  -16.1533   21.3950 C   0  0  2  0  0  0  0  0  0  0  0  0
  -18.1457  -27.2043   22.3496 C   0  0  1  0  0  0  0  0  0  0  0  0
  -20.0955  -27.5591   23.5911 C   0  0  2  0  0  0  0  0  0  0  0  0
  -31.9208  -30.5224   19.0800 C   0  0  0  0  0  0  0  0  0  0  0  0
  -30.0137  -25.5056   22.9615 C   0  0  0  0  0  0  0  0  0  0  0  0
  -31.0502  -27.7740   22.7420 C   0  0  0  0  0  0  0  0  0  0  0  0
  -32.1120  -25.8071   21.6346 C   0  0  0  0  0  0  0  0  0  0  0  0
  -29.3003  -29.4263   16.5486 C   0  0  0  0  0  0  0  0  0  0  0  0
  -19.3051  -21.1246   24.4856 C   0  0  0  0  0  0  0  0  0  0  0  0
  -21.1611  -26.8250   19.9251 C   0  0  0  0  0  0  0  0  0  1  0  0
  -29.9593  -26.7448   20.6971 C   0  0  1  0  0  0  0  0  0  0  0  0
  -31.0187  -29.5335   18.3581 C   0  0  2  0  0  0  0  0  0  0  0  0
  -30.7575  -26.4530   21.9991 C   0  0  0  0  0  0  0  0  0  0  0  0
  -22.3865  -14.9159   20.9642 N   0  0  0  0  0  0  0  0  0  0  0  0
  -21.0777  -14.8586   21.2640 N   0  0  0  0  0  0  0  0  0  0  0  0
  -18.9504  -26.6607   23.4436 N   0  0  0  0  0  0  0  0  0  0  0  0
  -28.2564  -25.2255   19.7401 N   0  0  0  0  0  0  0  0  0  0  0  0
  -20.3863  -18.5341   22.0400 N   0  0  0  0  0  0  0  0  0  0  0  0
  -19.3089  -13.3510   21.7213 N   0  0  0  0  0  0  0  0  0  0  0  0
  -22.8421  -10.6283   21.0148 N   0  0  0  0  0  0  0  0  0  0  0  0
  -27.1987  -21.7457   20.0024 N   0  0  0  0  0  0  0  0  0  0  0  0
  -30.6514  -27.6177   19.7549 N   0  0  0  0  0  0  0  0  0  0  0  0
  -19.5189  -20.3507   23.2830 N   0  0  0  0  0  0  0  0  0  0  0  0
  -30.2158  -30.2800   17.3487 N   0  3  0  0  0  0  0  0  0  0  0  0
  -20.6027  -10.6834   21.5054 O   0  0  0  0  0  0  0  0  0  0  0  0
  -27.5836  -23.4918   21.4943 O   0  0  0  0  0  0  0  0  0  0  0  0
  -30.5317  -24.7645   19.5236 O   0  0  0  0  0  0  0  0  0  0  0  0
  -29.0143  -29.2582   19.6787 O   0  0  0  0  0  0  0  0  0  0  0  0
  -20.7932  -18.7476   24.3131 O   0  0  0  0  0  0  0  0  0  0  0  0
  -28.0343  -12.2243   19.7781 O   0  0  0  0  0  0  0  0  0  0  0  0
  -22.4780  -27.3739   19.9558 O   0  0  0  0  0  0  0  0  0  1  0  0
  -32.0416  -15.0380   22.3137 F   0  0  0  0  0  0  0  0  0  0  0  0
  -28.2765  -14.9581   19.4461 F   0  0  0  0  0  0  0  0  0  0  0  0
  -17.0116  -22.3214   23.3491 F   0  0  0  0  0  0  0  0  0  0  0  0
  -16.8404  -24.9857   22.8469 F   0  0  0  0  0  0  0  0  0  0  0  0
  1  2  1  0  0  0  0
  1  5  2  0  0  0  0
  2  6  2  0  0  0  0
  3 10  2  0  0  0  0
  3 17  1  0  0  0  0
  4 11  1  0  0  0  0
  4 17  2  0  0  0  0
  5 19  1  0  0  0  0
  6 21  1  0  0  0  0
  7 12  2  0  0  0  0
  7 20  1  0  0  0  0
  8  9  2  0  0  0  0
  8 23  1  0  0  0  0
  9 24  1  0  0  0  0
 10 25  1  0  0  0  0
 11 25  2  0  0  0  0
 12 26  1  0  0  0  0
 13 14  2  0  0  0  0
 13 27  1  0  0  0  0
 14 28  1  0  0  0  0
 15 22  1  0  0  0  0
 15 26  2  0  0  0  0
 16 28  2  0  0  0  0
 16 29  1  0  0  0  0
 17 32  1  0  0  0  0
 18 32  1  0  0  0  0
 18 33  2  0  0  0  0
 18 34  1  0  0  0  0
 19 21  2  0  0  0  0
 19 39  1  0  0  0  0
 20 22  2  0  0  0  0
 20 40  1  0  0  0  0
 21 52  1  0  0  0  0
 22 41  1  0  0  0  0
 23 30  2  0  0  0  0
 23 63  1  0  0  0  0
 24 31  2  0  0  0  0
 24 70  1  0  0  0  0
 25 84  1  0  0  0  0
 26 85  1  0  0  0  0
 27 29  2  0  0  0  0
 27 84  1  0  0  0  0
 28 86  1  0  0  0  0
 29 87  1  0  0  0  0
 30 31  1  0  0  0  0
 30 88  1  0  0  0  0
 31 89  1  0  0  0  0
 32 68  2  0  0  0  0
 33 69  1  0  0  0  0
 33 73  1  0  0  0  0
 34 74  1  0  0  0  0
 34 79  2  0  0  0  0
 35 53  1  0  0  0  0
 35 75  1  0  0  0  0
 35 80  2  0  0  0  0
 36 65  1  0  0  0  0
 36 71  1  0  0  0  0
 36 81  2  0  0  0  0
 37 66  1  0  0  0  0
 37 76  1  0  0  0  0
 37 82  2  0  0  0  0
 38 72  1  0  0  0  0
 38 77  1  0  0  0  0
 38 83  2  0  0  0  0
 39 42  1  0  0  0  0
 40 53  1  0  0  0  0
 41 71  1  0  0  0  0
 42 44  1  0  0  0  0
 43 45  1  0  0  0  0
 43 50  1  0  0  0  0
 44 52  1  0  0  0  0
 45 55  1  0  0  0  0
 46 47  1  0  0  0  0
 46 56  1  0  0  0  0
 47 57  1  0  0  0  0
 48 54  1  0  0  0  0
 48 56  1  0  0  0  0
 49 54  1  0  0  0  0
 49 57  1  0  0  0  0
 50 72  1  0  0  0  0
 51 55  1  0  0  0  0
 51 72  1  0  0  0  0
 52 75  1  0  0  0  0
 53 71  1  0  0  0  0
 54 64  1  0  0  0  0
 55 69  1  0  0  0  0
 56 70  1  0  0  0  0
 57 70  1  0  0  0  0
 58 66  1  0  0  0  0
 59 67  1  0  0  0  0
 60 67  1  0  0  0  0
 61 67  1  0  0  0  0
 62 78  1  0  0  0  0
 63 77  1  0  0  0  0
 64 85  1  0  0  0  0
 65 67  1  0  0  0  0
 65 76  1  0  0  0  0
 66 78  1  0  0  0  0
 68 69  1  0  0  0  0
M  CHG  1  78   1
M  ISO  4  38 100  64 101  77 100  85 101
M  END
> <Batch ID>
0028

> <Smiles>
CNC(C)C(=O)NC(C(=O)N1Cc2cc([101O:1][101CH2:1]C3CC4CCC(C3)N4c3ccc(C[100NH:0][100C:0](=O)N4CCCC(n5nc(-c6ccc(Oc7ccc(F)cc7F)cc6)c(C(N)=O)c5N)C4)c(F)c3F)ccc2CC1C(=O)NC1CCCc2ccccc21)C(C)(C)C

> <Shape>
0.218

> <Color>
0.084

> <Negative vol penalty>
0.000

$$$$

  -OEChem-04042321313D

 91101  0     1  0  0  0  0  0999 V2000
  -17.9967  -26.3106   24.6166 C   0  0  0  0  0  0  0  0  0  0  0  0
  -19.1519  -26.5158   23.8691 C   0  0  0  0  0  0  0  0  0  0  0  0
  -23.2806   -9.5746   19.8562 C   0  0  0  0  0  0  0  0  0  0  0  0
  -24.8417   -8.5760   21.4064 C   0  0  0  0  0  0  0  0  0  0  0  0
  -17.0416  -27.3217   24.7134 C   0  0  0  0  0  0  0  0  0  0  0  0
  -19.3522  -27.7320   23.2171 C   0  0  0  0  0  0  0  0  0  0  0  0
  -25.0558  -25.7560   20.1594 C   0  0  0  0  0  0  0  0  0  0  0  0
  -27.4024  -25.4804   20.6639 C   0  0  0  0  0  0  0  0  0  0  0  0
  -24.0589  -29.5034   23.8127 C   0  0  0  0  0  0  0  0  0  0  0  0
  -22.2210   -9.2020   20.6833 C   0  0  0  0  0  0  0  0  0  0  0  0
  -23.7821   -8.2034   22.2335 C   0  0  0  0  0  0  0  0  0  0  0  0
  -25.1552  -27.1184   20.4415 C   0  0  0  0  0  0  0  0  0  0  0  0
  -27.5018  -26.8428   20.9460 C   0  0  0  0  0  0  0  0  0  0  0  0
  -25.0595  -28.9277   23.0310 C   0  0  0  0  0  0  0  0  0  0  0  0
  -21.4355   -5.7715   22.3332 C   0  0  0  0  0  0  0  0  0  0  0  0
  -21.4423   -4.4766   22.8515 C   0  0  0  0  0  0  0  0  0  0  0  0
  -24.9433  -30.7999   21.5142 C   0  0  0  0  0  0  0  0  0  0  0  0
  -26.6466  -18.5232   18.8764 C   0  0  0  0  0  0  0  0  0  0  0  0
  -29.0634  -17.6431   19.9567 C   0  0  0  0  0  0  0  0  0  0  0  0
  -21.4691   -5.3744   25.0943 C   0  0  0  0  0  0  0  0  0  0  0  0
  -24.5910   -9.2615   20.2177 C   0  0  0  0  0  0  0  0  0  0  0  0
  -25.8978   -9.2580   18.0269 C   0  0  0  0  0  0  0  0  0  0  0  0
  -26.1794  -24.9370   20.2706 C   0  0  0  0  0  0  0  0  0  0  0  0
  -17.2349  -28.5545   24.0702 C   0  0  0  0  0  0  0  0  0  0  0  0
  -23.4843  -30.7284   23.4445 C   0  0  0  0  0  0  0  0  0  0  0  0
  -18.3983  -28.7601   23.3043 C   0  0  0  0  0  0  0  0  0  0  0  0
  -23.9373  -31.3903   22.2944 C   0  0  0  0  0  0  0  0  0  0  0  0
  -27.0291  -17.1893   18.7349 C   0  0  0  0  0  0  0  0  0  0  0  0
  -27.4725  -19.4171   19.5579 C   0  0  0  0  0  0  0  0  0  0  0  0
  -28.2375  -16.7493   19.2751 C   0  0  0  0  0  0  0  0  0  0  0  0
  -22.4718   -8.5164   21.8719 C   0  0  0  0  0  0  0  0  0  0  0  0
  -26.3781  -27.6618   20.8348 C   0  0  0  0  0  0  0  0  0  1  0  0
  -25.4999  -29.5746   21.8800 C   0  0  0  0  0  0  0  0  0  0  0  0
  -21.4456   -6.8679   23.1954 C   0  0  0  0  0  0  0  0  0  0  0  0
  -21.4591   -4.2780   24.2320 C   0  0  0  0  0  0  0  0  0  0  0  0
  -21.4624   -6.6694   24.5760 C   0  0  0  0  0  0  0  0  0  0  0  0
  -28.6809  -18.9771   20.0981 C   0  0  0  0  0  0  0  0  0  0  0  0
  -25.6859   -9.6456   19.3635 C   0  0  0  0  0  0  0  0  0  0  0  0
  -27.0656   -9.8857   17.6683 C   0  0  0  0  0  0  0  0  0  0  0  0
  -25.1094   -8.4066   17.1847 C   0  0  0  0  0  0  0  0  0  0  0  0
  -20.5589  -31.6855   22.6511 C   0  0  0  0  0  0  0  0  0  0  0  0
  -21.9326  -34.6239   22.6859 C   0  0  0  0  0  0  0  0  0  0  0  0
  -24.7732  -36.4973   22.4252 C   0  0  0  0  0  0  0  0  0  0  0  0
  -29.8161  -14.8171   19.6232 C   0  0  0  0  0  0  0  0  0  0  0  0
  -16.1524  -29.6003   24.1651 C   0  0  0  0  0  0  0  0  0  0  0  0
  -22.4246  -31.3491   24.3130 C   0  0  0  0  0  0  0  0  0  0  0  0
  -23.3672  -32.7171   21.8665 C   0  0  0  0  0  0  0  0  0  0  0  0
  -16.6150  -30.9951   23.7516 C   0  0  0  0  0  0  0  0  0  0  0  0
  -31.1624  -11.5222   19.5319 C   0  0  0  0  0  0  0  0  0  0  0  0
  -17.4011  -30.9315   22.4459 C   0  0  0  0  0  0  0  0  0  0  0  0
  -29.9306  -10.6322   19.3506 C   0  0  0  0  0  0  0  0  0  0  0  0
  -26.3985  -22.5861   21.1877 C   0  0  0  0  0  0  0  0  0  0  0  0
  -26.9684  -23.0421   18.7872 C   0  0  0  0  0  0  0  0  0  0  0  0
  -30.8696  -12.7184   20.4359 C   0  0  0  0  0  0  0  0  0  0  0  0
  -26.2573  -21.0991   20.8637 C   0  0  0  0  0  0  0  0  0  0  0  0
  -26.8313  -21.5506   18.4770 C   0  0  0  0  0  0  0  0  0  0  0  0
  -28.4757  -12.6348   19.8604 C   0  0  0  0  0  0  0  0  0  0  0  0
  -26.0718  -23.4552   19.9637 C   0  0  0  0  0  0  0  0  0  0  0  0
  -18.6632  -30.0747   22.6030 C   0  0  1  0  0  0  0  0  0  0  0  0
  -21.5496  -32.3500   23.5647 C   0  0  1  0  0  0  0  0  0  0  0  0
  -28.7037  -11.4519   18.9052 C   0  0  2  0  0  0  0  0  0  0  0  0
  -26.1252  -16.2541   17.9991 C   0  0  0  0  0  0  0  0  0  0  0  0
  -25.5747  -38.8751   22.4583 C   0  0  0  0  0  0  0  0  0  0  0  0
  -20.8530  -35.0246   19.8604 C   0  0  0  0  0  0  0  0  0  0  0  0
  -22.4421  -36.9416   19.6000 C   0  0  0  0  0  0  0  0  0  0  0  0
  -20.6610  -37.0284   21.3444 C   0  0  0  0  0  0  0  0  0  0  0  0
  -26.4914  -36.0073   24.7846 C   0  0  0  0  0  0  0  0  0  0  0  0
  -22.6383  -35.4863   21.6675 C   0  0  1  0  0  0  0  0  0  0  0  0
  -25.3193  -37.6238   23.2839 C   0  0  2  0  0  0  0  0  0  0  0  0
  -21.6582  -36.0943   20.6248 C   0  0  0  0  0  0  0  0  0  0  0  0
  -26.6425  -10.4567   19.8230 N   0  0  0  0  0  0  0  0  0  0  0  0
  -27.4668  -10.5837   18.7692 N   0  0  0  0  0  0  0  0  0  0  0  0
  -27.0613  -20.7495   19.6843 N   0  0  0  0  0  0  0  0  0  0  0  0
  -22.3289  -33.2803   22.7453 N   0  0  0  0  0  0  0  0  0  0  0  0
  -29.6974  -13.4497   19.9500 N   0  0  0  0  0  0  0  0  0  0  0  0
  -27.7783   -9.9031   16.5219 N   0  0  0  0  0  0  0  0  0  0  0  0
  -25.3856   -7.0326   17.1776 N   0  0  0  0  0  0  0  0  0  0  0  0
  -28.6439  -15.3985   19.1410 N   0  0  0  0  0  0  0  0  0  0  0  0
  -19.6959  -30.8177   23.2927 N   0  0  0  0  0  0  0  0  0  0  0  0
  -23.3945  -36.4772   22.4255 N   0  0  0  0  0  0  0  0  0  0  0  0
  -26.6012  -37.2129   23.9234 N   0  3  0  0  0  0  0  0  0  0  0  0
  -24.1982   -8.8534   16.4474 O   0  0  0  0  0  0  0  0  0  0  0  0
  -20.5752  -31.9423   21.4530 O   0  0  0  0  0  0  0  0  0  0  0  0
  -21.0669  -35.1256   23.4073 O   0  0  0  0  0  0  0  0  0  0  0  0
  -25.4973  -35.7159   21.8123 O   0  0  0  0  0  0  0  0  0  0  0  0
  -30.8862  -15.4206   19.7352 O   0  0  0  0  0  0  0  0  0  0  0  0
  -26.4760  -29.0146   21.1148 O   0  0  0  0  0  0  0  0  0  1  0  0
  -21.4381   -8.1530   22.6793 O   0  0  0  0  0  0  0  0  0  0  0  0
  -21.4640   -3.0344   24.7296 F   0  0  0  0  0  0  0  0  0  0  0  0
  -21.4710   -7.7188   25.4094 F   0  0  0  0  0  0  0  0  0  0  0  0
  -29.7327  -20.0509   20.9498 Cl  0  0  0  0  0  0  0  0  0  0  0  0
  1  2  1  0  0  0  0
  1  5  2  0  0  0  0
  2  6  2  0  0  0  0
  3 10  2  0  0  0  0
  3 21  1  0  0  0  0
  4 11  1  0  0  0  0
  4 21  2  0  0  0  0
  5 24  1  0  0  0  0
  6 26  1  0  0  0  0
  7 12  2  0  0  0  0
  7 23  1  0  0  0  0
  8 13  1  0  0  0  0
  8 23  2  0  0  0  0
  9 14  2  0  0  0  0
  9 25  1  0  0  0  0
 10 31  1  0  0  0  0
 11 31  2  0  0  0  0
 12 32  1  0  0  0  0
 13 32  2  0  0  0  0
 14 33  1  0  0  0  0
 15 16  2  0  0  0  0
 15 34  1  0  0  0  0
 16 35  1  0  0  0  0
 17 27  1  0  0  0  0
 17 33  2  0  0  0  0
 18 28  2  0  0  0  0
 18 29  1  0  0  0  0
 19 30  2  0  0  0  0
 19 37  1  0  0  0  0
 20 35  2  0  0  0  0
 20 36  1  0  0  0  0
 21 38  1  0  0  0  0
 22 38  1  0  0  0  0
 22 39  2  0  0  0  0
 22 40  1  0  0  0  0
 23 58  1  0  0  0  0
 24 26  2  0  0  0  0
 24 45  1  0  0  0  0
 25 27  2  0  0  0  0
 25 46  1  0  0  0  0
 26 59  1  0  0  0  0
 27 47  1  0  0  0  0
 28 30  1  0  0  0  0
 28 62  1  0  0  0  0
 29 37  2  0  0  0  0
 29 73  1  0  0  0  0
 30 78  1  0  0  0  0
 31 88  1  0  0  0  0
 32 87  1  0  0  0  0
 33 87  1  0  0  0  0
 34 36  2  0  0  0  0
 34 88  1  0  0  0  0
 35 89  1  0  0  0  0
 36 90  1  0  0  0  0
 37 91  1  0  0  0  0
 38 71  2  0  0  0  0
 39 72  1  0  0  0  0
 39 76  1  0  0  0  0
 40 77  1  0  0  0  0
 40 82  2  0  0  0  0
 41 60  1  0  0  0  0
 41 79  1  0  0  0  0
 41 83  2  0  0  0  0
 42 68  1  0  0  0  0
 42 74  1  0  0  0  0
 42 84  2  0  0  0  0
 43 69  1  0  0  0  0
 43 80  1  0  0  0  0
 43 85  2  0  0  0  0
 44 75  1  0  0  0  0
 44 78  1  0  0  0  0
 44 86  2  0  0  0  0
 45 48  1  0  0  0  0
 46 60  1  0  0  0  0
 47 74  1  0  0  0  0
 48 50  1  0  0  0  0
 49 51  1  0  0  0  0
 49 54  1  0  0  0  0
 50 59  1  0  0  0  0
 51 61  1  0  0  0  0
 52 55  1  0  0  0  0
 52 58  1  0  0  0  0
 53 56  1  0  0  0  0
 53 58  1  0  0  0  0
 54 75  1  0  0  0  0
 55 73  1  0  0  0  0
 56 73  1  0  0  0  0
 57 61  1  0  0  0  0
 57 75  1  0  0  0  0
 59 79  1  0  0  0  0
 60 74  1  0  0  0  0
 61 72  1  0  0  0  0
 63 69  1  0  0  0  0
 64 70  1  0  0  0  0
 65 70  1  0  0  0  0
 66 70  1  0  0  0  0
 67 81  1  0  0  0  0
 68 70  1  0  0  0  0
 68 80  1  0  0  0  0
 69 81  1  0  0  0  0
 71 72  1  0  0  0  0
M  CHG  1  81   1
M  ISO  4  32 101  44 100  78 100  87 101
M  END
> <Batch ID>
0028

> <Smiles>
CNC(C)C(=O)NC(C(=O)N1Cc2cc([101O:1][101c:1]3ccc(C4CCN(c5cc(C)c([100NH:0][100C:0](=O)N6CCCC(n7nc(-c8ccc(Oc9ccc(F)cc9F)cc8)c(C(N)=O)c7N)C6)cc5Cl)CC4)cc3)ccc2CC1C(=O)NC1CCCc2ccccc21)C(C)(C)C

> <Shape>
0.281

> <Color>
0.102

> <Negative vol penalty>
0.000

$$$$

  -OEChem-04042321313D

 85 94  0     1  0  0  0  0  0999 V2000
  -25.2573  -38.2277   19.4708 C   0  0  0  0  0  0  0  0  0  0  0  0
  -25.5309  -37.0955   18.7100 C   0  0  0  0  0  0  0  0  0  0  0  0
  -23.3589  -10.7025   22.1481 C   0  0  0  0  0  0  0  0  0  0  0  0
  -23.9109   -9.0719   20.4530 C   0  0  0  0  0  0  0  0  0  0  0  0
  -25.4521  -38.2023   20.8511 C   0  0  0  0  0  0  0  0  0  0  0  0
  -26.0004  -35.9376   19.3290 C   0  0  0  0  0  0  0  0  0  0  0  0
  -25.7054  -28.8013   18.7799 C   0  0  0  0  0  0  0  0  0  0  0  0
  -30.6841  -22.0862   18.9286 C   0  0  0  0  0  0  0  0  0  0  0  0
  -22.0067  -10.3906   22.0079 C   0  0  0  0  0  0  0  0  0  0  0  0
  -22.5587   -8.7599   20.3128 C   0  0  0  0  0  0  0  0  0  0  0  0
  -26.5452  -27.6900   18.7201 C   0  0  0  0  0  0  0  0  0  0  0  0
  -20.2434   -6.9276   21.9567 C   0  0  0  0  0  0  0  0  0  0  0  0
  -31.2235  -23.3628   19.0861 C   0  0  0  0  0  0  0  0  0  0  0  0
  -19.8940   -5.5786   21.8959 C   0  0  0  0  0  0  0  0  0  0  0  0
  -26.7686  -27.7371   21.1216 C   0  0  0  0  0  0  0  0  0  0  0  0
  -28.5089  -23.0556   18.5211 C   0  0  0  0  0  0  0  0  0  0  0  0
  -18.9357   -5.9254   19.7054 C   0  0  0  0  0  0  0  0  0  0  0  0
  -24.3111  -10.0432   21.3706 C   0  0  0  0  0  0  0  0  0  0  0  0
  -26.6326   -9.7667   22.3913 C   0  0  0  0  0  0  0  0  0  0  0  0
  -25.9151  -37.0405   21.4886 C   0  0  0  0  0  0  0  0  0  0  0  0
  -25.3991  -29.3965   20.0121 C   0  0  0  0  0  0  0  0  0  0  0  0
  -26.2028  -35.8971   20.7190 C   0  0  0  0  0  0  0  0  0  0  0  0
  -25.9226  -28.8543   21.1946 C   0  0  0  0  0  0  0  0  0  0  0  0
  -29.0484  -24.3322   18.6787 C   0  0  0  0  0  0  0  0  0  0  0  0
  -29.3268  -21.9326   18.6460 C   0  0  0  0  0  0  0  0  0  0  0  0
  -21.6065   -9.4193   21.0902 C   0  0  0  0  0  0  0  0  0  0  0  0
  -27.0793  -27.1595   19.8908 C   0  0  0  0  0  0  0  0  0  0  0  0
  -19.9389   -7.7756   20.8918 C   0  0  0  0  0  0  0  0  0  0  0  0
  -19.2402   -5.0775   20.7703 C   0  0  0  0  0  0  0  0  0  0  0  0
  -30.4057  -24.4858   18.9612 C   0  0  0  0  0  0  0  0  0  0  0  0
  -19.2851   -7.2745   19.7662 C   0  0  0  0  0  0  0  0  0  0  0  0
  -25.7081  -10.3654   21.5146 C   0  0  0  0  0  0  0  0  0  0  0  0
  -27.8141  -10.4222   22.1443 C   0  0  0  0  0  0  0  0  0  0  0  0
  -26.4406   -8.7123   23.3437 C   0  0  0  0  0  0  0  0  0  0  0  0
  -25.8800  -32.2624   21.3000 C   0  0  0  0  0  0  0  0  0  0  0  0
  -24.0522  -31.0619   23.6959 C   0  0  0  0  0  0  0  0  0  0  0  0
  -22.8784  -28.3153   25.3467 C   0  0  0  0  0  0  0  0  0  0  0  0
  -29.1423  -15.7102   20.2305 C   0  0  0  0  0  0  0  0  0  0  0  0
  -26.1552  -37.0759   22.9772 C   0  0  0  0  0  0  0  0  0  0  0  0
  -24.4702  -30.5784   20.0620 C   0  0  0  0  0  0  0  0  0  0  0  0
  -25.6084  -29.4439   22.5444 C   0  0  0  0  0  0  0  0  0  0  0  0
  -26.2990  -35.6914   23.6040 C   0  0  0  0  0  0  0  0  0  0  0  0
  -30.1738  -12.7298   18.6871 C   0  0  0  0  0  0  0  0  0  0  0  0
  -27.2396  -34.8243   22.7733 C   0  0  0  0  0  0  0  0  0  0  0  0
  -29.2280  -11.7137   19.3267 C   0  0  0  0  0  0  0  0  0  0  0  0
  -28.8455  -18.3119   17.8786 C   0  0  0  0  0  0  0  0  0  0  0  0
  -29.7913  -19.1103   20.0776 C   0  0  0  0  0  0  0  0  0  0  0  0
  -29.4628  -14.0416   18.3499 C   0  0  0  0  0  0  0  0  0  0  0  0
  -29.5655  -16.9744   18.0742 C   0  0  0  0  0  0  0  0  0  0  0  0
  -30.5127  -17.7725   20.2155 C   0  0  0  0  0  0  0  0  0  0  0  0
  -27.7999  -13.6308   20.1344 C   0  0  0  0  0  0  0  0  0  0  0  0
  -26.6900  -34.6143   21.3571 C   0  0  1  0  0  0  0  0  0  0  0  0
  -24.6379  -31.4173   21.3252 C   0  0  1  0  0  0  0  0  0  0  0  0
  -28.4993  -12.3234   20.5376 C   0  0  1  0  0  0  0  0  0  0  0  0
  -29.5683  -19.4507   18.6018 C   0  0  0  0  0  0  0  0  0  0  0  0
  -21.4334  -27.6521   27.2882 C   0  0  0  0  0  0  0  0  0  0  0  0
  -26.2873  -31.8394   25.6219 C   0  0  0  0  0  0  0  0  0  0  0  0
  -25.2427  -30.3371   27.3307 C   0  0  0  0  0  0  0  0  0  0  0  0
  -23.9779  -32.3038   26.4618 C   0  0  0  0  0  0  0  0  0  0  0  0
  -20.9981  -26.8472   23.5951 C   0  0  0  0  0  0  0  0  0  0  0  0
  -28.1716  -25.5313   18.5448 C   0  0  0  0  0  0  0  0  0  1  0  0
  -24.3250  -30.2946   24.9670 C   0  0  1  0  0  0  0  0  0  0  0  0
  -21.4798  -27.9301   25.7938 C   0  0  2  0  0  0  0  0  0  0  0  0
  -24.9659  -31.1836   26.0699 C   0  0  0  0  0  0  0  0  0  0  0  0
  -26.2551  -11.3274   20.7667 N   0  0  0  0  0  0  0  0  0  0  0  0
  -27.5361  -11.3382   21.1728 N   0  0  0  0  0  0  0  0  0  0  0  0
  -24.7003  -30.6027   22.5405 N   0  0  0  0  0  0  0  0  0  0  0  0
  -28.7496  -14.5635   19.5240 N   0  0  0  0  0  0  0  0  0  0  0  0
  -29.7992  -16.7129   19.5017 N   0  0  0  0  0  0  0  0  0  0  0  0
  -29.0532  -10.2986   22.6656 N   0  0  0  0  0  0  0  0  0  0  0  0
  -25.1630   -8.1501   23.4695 N   0  0  0  0  0  0  0  0  0  0  0  0
  -28.7921  -20.6660   18.4901 N   0  0  0  0  0  0  0  0  0  0  0  0
  -25.6374  -33.6212   21.3656 N   0  0  0  0  0  0  0  0  0  0  0  0
  -23.0586  -29.6823   25.3540 N   0  0  0  0  0  0  0  0  0  0  0  0
  -21.0242  -26.7073   25.0739 N   0  3  0  0  0  0  0  0  0  0  0  0
  -27.3706   -8.2927   24.0734 O   0  0  0  0  0  0  0  0  0  0  0  0
  -26.9773  -31.7218   21.2280 O   0  0  0  0  0  0  0  0  0  0  0  0
  -23.2865  -32.0285   23.7256 O   0  0  0  0  0  0  0  0  0  0  0  0
  -23.7275  -27.4862   25.0268 O   0  0  0  0  0  0  0  0  0  0  0  0
  -28.9191  -15.8313   21.4415 O   0  0  0  0  0  0  0  0  0  0  0  0
  -20.2871   -9.1144   20.9533 O   0  0  0  0  0  0  0  0  0  0  0  0
  -27.9054  -26.0678   19.8349 O   0  0  0  0  0  0  0  0  0  1  0  0
  -18.9061   -3.7817   20.7114 F   0  0  0  0  0  0  0  0  0  0  0  0
  -30.9335  -25.7085   19.1127 F   0  0  0  0  0  0  0  0  0  0  0  0
  -18.9910   -8.0840   18.7395 F   0  0  0  0  0  0  0  0  0  0  0  0
  1  2  1  0  0  0  0
  1  5  2  0  0  0  0
  2  6  2  0  0  0  0
  3  9  2  0  0  0  0
  3 18  1  0  0  0  0
  4 10  1  0  0  0  0
  4 18  2  0  0  0  0
  5 20  1  0  0  0  0
  6 22  1  0  0  0  0
  7 11  2  0  0  0  0
  7 21  1  0  0  0  0
  8 13  2  0  0  0  0
  8 25  1  0  0  0  0
  9 26  1  0  0  0  0
 10 26  2  0  0  0  0
 11 27  1  0  0  0  0
 12 14  2  0  0  0  0
 12 28  1  0  0  0  0
 13 30  1  0  0  0  0
 14 29  1  0  0  0  0
 15 23  1  0  0  0  0
 15 27  2  0  0  0  0
 16 24  1  0  0  0  0
 16 25  2  0  0  0  0
 17 29  2  0  0  0  0
 17 31  1  0  0  0  0
 18 32  1  0  0  0  0
 19 32  1  0  0  0  0
 19 33  2  0  0  0  0
 19 34  1  0  0  0  0
 20 22  2  0  0  0  0
 20 39  1  0  0  0  0
 21 23  2  0  0  0  0
 21 40  1  0  0  0  0
 22 52  1  0  0  0  0
 23 41  1  0  0  0  0
 24 30  2  0  0  0  0
 24 61  1  0  0  0  0
 25 72  1  0  0  0  0
 26 81  1  0  0  0  0
 27 82  1  0  0  0  0
 28 31  2  0  0  0  0
 28 81  1  0  0  0  0
 29 83  1  0  0  0  0
 30 84  1  0  0  0  0
 31 85  1  0  0  0  0
 32 65  2  0  0  0  0
 33 66  1  0  0  0  0
 33 70  1  0  0  0  0
 34 71  1  0  0  0  0
 34 76  2  0  0  0  0
 35 53  1  0  0  0  0
 35 73  1  0  0  0  0
 35 77  2  0  0  0  0
 36 62  1  0  0  0  0
 36 67  1  0  0  0  0
 36 78  2  0  0  0  0
 37 63  1  0  0  0  0
 37 74  1  0  0  0  0
 37 79  2  0  0  0  0
 38 68  1  0  0  0  0
 38 69  1  0  0  0  0
 38 80  2  0  0  0  0
 39 42  1  0  0  0  0
 40 53  1  0  0  0  0
 41 67  1  0  0  0  0
 42 44  1  0  0  0  0
 43 45  1  0  0  0  0
 43 48  1  0  0  0  0
 44 52  1  0  0  0  0
 45 54  1  0  0  0  0
 46 49  1  0  0  0  0
 46 55  1  0  0  0  0
 47 50  1  0  0  0  0
 47 55  1  0  0  0  0
 48 68  1  0  0  0  0
 49 69  1  0  0  0  0
 50 69  1  0  0  0  0
 51 54  1  0  0  0  0
 51 68  1  0  0  0  0
 52 73  1  0  0  0  0
 53 67  1  0  0  0  0
 54 66  1  0  0  0  0
 55 72  1  0  0  0  0
 56 63  1  0  0  0  0
 57 64  1  0  0  0  0
 58 64  1  0  0  0  0
 59 64  1  0  0  0  0
 60 75  1  0  0  0  0
 61 82  1  0  0  0  0
 62 64  1  0  0  0  0
 62 74  1  0  0  0  0
 63 75  1  0  0  0  0
 65 66  1  0  0  0  0
M  CHG  1  75   1
M  ISO  4  38 100  61 101  69 100  82 101
M  END
> <Batch ID>
0028

> <Smiles>
CNC(C)C(=O)NC(C(=O)N1Cc2cc([101O:1][101CH2:1]c3cc(NC4CC[100N:0]([100C:0](=O)N5CCCC(n6nc(-c7ccc(Oc8ccc(F)cc8F)cc7)c(C(N)=O)c6N)C5)CC4)ccc3F)ccc2CC1C(=O)NC1CCCc2ccccc21)C(C)(C)C

> <Shape>
0.281

> <Color>
0.112

> <Negative vol penalty>
0.000

$$$$

  -OEChem-04042321313D

 86 95  0     1  0  0  0  0  0999 V2000
  -28.8682  -12.3703   19.1579 C   0  0  0  0  0  0  0  0  0  0  0  0
  -28.6689  -13.6995   18.7986 C   0  0  0  0  0  0  0  0  0  0  0  0
  -29.8665  -26.5832   19.4674 C   0  0  0  0  0  0  0  0  0  0  0  0
  -28.1775  -24.8557   19.4865 C   0  0  0  0  0  0  0  0  0  0  0  0
  -27.8490  -11.6602   19.7911 C   0  0  0  0  0  0  0  0  0  0  0  0
  -27.4499  -14.3190   19.0714 C   0  0  0  0  0  0  0  0  0  0  0  0
  -26.5612  -20.1814   20.6038 C   0  0  0  0  0  0  0  0  0  0  0  0
  -30.8352  -25.6399   19.8101 C   0  0  0  0  0  0  0  0  0  0  0  0
  -29.1463  -23.9124   19.8291 C   0  0  0  0  0  0  0  0  0  0  0  0
  -26.1761  -21.2970   19.8614 C   0  0  0  0  0  0  0  0  0  0  0  0
  -31.2363  -20.9845   20.3558 C   0  0  0  0  0  0  0  0  0  0  0  0
  -31.2249  -19.7661   19.6769 C   0  0  0  0  0  0  0  0  0  0  0  0
  -23.8894  -20.9592   20.5512 C   0  0  0  0  0  0  0  0  0  0  0  0
  -18.1428  -26.7255   22.7730 C   0  0  0  0  0  0  0  0  0  0  0  0
  -19.7234  -28.5448   22.9425 C   0  0  0  0  0  0  0  0  0  0  0  0
  -31.5576  -20.9286   17.5852 C   0  0  0  0  0  0  0  0  0  0  0  0
  -28.5376  -26.1911   19.3057 C   0  0  0  0  0  0  0  0  0  0  0  0
  -27.1367  -27.5414   17.6560 C   0  0  0  0  0  0  0  0  0  0  0  0
  -26.6203  -12.2743   20.0805 C   0  0  0  0  0  0  0  0  0  0  0  0
  -25.6099  -19.4387   21.3178 C   0  0  0  0  0  0  0  0  0  0  0  0
  -26.4128  -13.6161   19.7079 C   0  0  0  0  0  0  0  0  0  0  0  0
  -24.2653  -19.8362   21.3039 C   0  0  0  0  0  0  0  0  0  0  0  0
  -19.0946  -25.9614   22.0979 C   0  0  0  0  0  0  0  0  0  0  0  0
  -20.6753  -27.7807   22.2675 C   0  0  0  0  0  0  0  0  0  0  0  0
  -30.4751  -24.3045   19.9909 C   0  0  0  0  0  0  0  0  0  0  0  0
  -24.8397  -21.6843   19.8327 C   0  0  0  0  0  0  0  0  0  0  0  0
  -31.4082  -22.1750   19.6495 C   0  0  0  0  0  0  0  0  0  0  0  0
  -20.3609  -26.4890   21.8452 C   0  0  0  0  0  0  0  0  0  0  0  0
  -31.3855  -19.7381   18.2916 C   0  0  0  0  0  0  0  0  0  0  0  0
  -31.5689  -22.1470   18.2642 C   0  0  0  0  0  0  0  0  0  0  0  0
  -18.4571  -28.0173   23.1952 C   0  0  0  0  0  0  0  0  0  0  0  0
  -27.5364  -27.1652   18.9523 C   0  0  0  0  0  0  0  0  0  0  0  0
  -26.1658  -28.4917   17.8583 C   0  0  0  0  0  0  0  0  0  0  0  0
  -27.6013  -27.0737   16.3828 C   0  0  0  0  0  0  0  0  0  0  0  0
  -24.5605  -16.4404   21.2064 C   0  0  0  0  0  0  0  0  0  0  0  0
  -22.9163  -17.3288   23.8577 C   0  0  0  0  0  0  0  0  0  0  0  0
  -21.5393  -19.8466   25.7047 C   0  0  0  0  0  0  0  0  0  0  0  0
  -22.4159  -29.5986   22.3769 C   0  0  0  0  0  0  0  0  0  0  0  0
  -25.5317  -11.4522   20.7240 C   0  0  0  0  0  0  0  0  0  0  0  0
  -26.0454  -18.2537   22.1353 C   0  0  0  0  0  0  0  0  0  0  0  0
  -23.2082  -19.0847   22.0697 C   0  0  0  0  0  0  0  0  0  0  0  0
  -24.4022  -12.2925   21.3143 C   0  0  0  0  0  0  0  0  0  0  0  0
  -24.8052  -31.8467   20.9932 C   0  0  0  0  0  0  0  0  0  0  0  0
  -23.9626  -13.3668   20.3246 C   0  0  0  0  0  0  0  0  0  0  0  0
  -22.5265  -24.9720   17.7029 C   0  0  0  0  0  0  0  0  0  0  0  0
  -25.7368  -30.9362   20.1898 C   0  0  0  0  0  0  0  0  0  0  0  0
  -23.1235  -23.6186   17.3010 C   0  0  0  0  0  0  0  0  0  0  0  0
  -22.1860  -23.4622   19.5296 C   0  0  0  0  0  0  0  0  0  0  0  0
  -24.3320  -31.1780   22.2827 C   0  0  0  0  0  0  0  0  0  0  0  0
  -24.6594  -28.9406   21.3050 C   0  0  0  0  0  0  0  0  0  0  0  0
  -25.1131  -14.3303   20.0092 C   0  0  1  0  0  0  0  0  0  0  0  0
  -24.9135  -17.2684   22.4095 C   0  0  1  0  0  0  0  0  0  0  0  0
  -22.4179  -24.9419   19.2271 C   0  0  2  0  0  0  0  0  0  0  0  0
  -25.1105  -29.5458   19.9657 C   0  0  2  0  0  0  0  0  0  0  0  0
  -23.1425  -22.7657   18.5696 C   0  0  2  0  0  0  0  0  0  1  0  0
  -18.7390  -24.5807   21.6538 C   0  0  0  0  0  0  0  0  0  0  0  0
  -20.2274  -20.2595   27.8037 C   0  0  0  0  0  0  0  0  0  0  0  0
  -20.3870  -16.3367   22.4692 C   0  0  0  0  0  0  0  0  0  0  0  0
  -19.0451  -17.6132   24.1538 C   0  0  0  0  0  0  0  0  0  0  0  0
  -20.5389  -15.7590   24.8977 C   0  0  0  0  0  0  0  0  0  0  0  0
  -23.6980  -21.5051   26.8658 C   0  0  0  0  0  0  0  0  0  0  0  0
  -21.3196  -25.8417   19.7673 C   0  0  0  0  0  0  0  0  0  0  0  0
  -21.5601  -17.9374   24.1207 C   0  0  1  0  0  0  0  0  0  0  0  0
  -21.6143  -20.1657   27.1869 C   0  0  2  0  0  0  0  0  0  0  0  0
  -20.4021  -16.9248   23.8943 C   0  0  0  0  0  0  0  0  0  0  0  0
  -26.8738  -27.8229   19.9075 N   0  0  0  0  0  0  0  0  0  0  0  0
  -26.0479  -28.6220   19.2108 N   0  0  0  0  0  0  0  0  0  0  0  0
  -23.6829  -17.9293   22.8489 N   0  0  0  0  0  0  0  0  0  0  0  0
  -23.7464  -29.8675   21.9921 N   0  0  0  0  0  0  0  0  0  0  0  0
  -25.4101  -29.2202   17.0095 N   0  0  0  0  0  0  0  0  0  0  0  0
  -28.6036  -26.0945   16.3559 N   0  0  0  0  0  0  0  0  0  0  0  0
  -21.9570  -28.3314   22.0188 N   0  0  0  0  0  0  0  0  0  0  0  0
  -25.2929  -15.2742   21.0914 N   0  0  0  0  0  0  0  0  0  0  0  0
  -21.6153  -18.4901   25.4698 N   0  0  0  0  0  0  0  0  0  0  0  0
  -22.3133  -21.4641   27.4025 N   0  3  0  0  0  0  0  0  0  0  0  0
  -27.1529  -27.5231   15.3009 O   0  0  0  0  0  0  0  0  0  0  0  0
  -23.6873  -16.8299   20.4399 O   0  0  0  0  0  0  0  0  0  0  0  0
  -23.2851  -16.3610   24.5277 O   0  0  0  0  0  0  0  0  0  0  0  0
  -21.4210  -20.7138   24.8418 O   0  0  0  0  0  0  0  0  0  0  0  0
  -21.7249  -30.4410   22.9556 O   0  0  0  0  0  0  0  0  0  0  0  0
  -31.4201  -23.3837   20.3251 O   0  0  0  0  0  0  0  0  0  0  0  0
  -24.4610  -22.7724   19.1084 O   0  0  0  0  0  0  0  0  0  1  0  0
  -21.2946  -25.7342   21.1810 O   0  0  0  0  0  0  0  0  0  0  0  0
  -31.3761  -18.5679   17.6399 F   0  0  0  0  0  0  0  0  0  0  0  0
  -31.7357  -23.2873   17.5803 F   0  0  0  0  0  0  0  0  0  0  0  0
  -17.2825  -28.9600   24.0281 Cl  0  0  0  0  0  0  0  0  0  0  0  0
  1  2  1  0  0  0  0
  1  5  2  0  0  0  0
  2  6  2  0  0  0  0
  3  8  2  0  0  0  0
  3 17  1  0  0  0  0
  4  9  1  0  0  0  0
  4 17  2  0  0  0  0
  5 19  1  0  0  0  0
  6 21  1  0  0  0  0
  7 10  2  0  0  0  0
  7 20  1  0  0  0  0
  8 25  1  0  0  0  0
  9 25  2  0  0  0  0
 10 26  1  0  0  0  0
 11 12  2  0  0  0  0
 11 27  1  0  0  0  0
 12 29  1  0  0  0  0
 13 22  1  0  0  0  0
 13 26  2  0  0  0  0
 14 23  2  0  0  0  0
 14 31  1  0  0  0  0
 15 24  1  0  0  0  0
 15 31  2  0  0  0  0
 16 29  2  0  0  0  0
 16 30  1  0  0  0  0
 17 32  1  0  0  0  0
 18 32  1  0  0  0  0
 18 33  2  0  0  0  0
 18 34  1  0  0  0  0
 19 21  2  0  0  0  0
 19 39  1  0  0  0  0
 20 22  2  0  0  0  0
 20 40  1  0  0  0  0
 21 51  1  0  0  0  0
 22 41  1  0  0  0  0
 23 28  1  0  0  0  0
 23 56  1  0  0  0  0
 24 28  2  0  0  0  0
 24 72  1  0  0  0  0
 25 81  1  0  0  0  0
 26 82  1  0  0  0  0
 27 30  2  0  0  0  0
 27 81  1  0  0  0  0
 28 83  1  0  0  0  0
 29 84  1  0  0  0  0
 30 85  1  0  0  0  0
 31 86  1  0  0  0  0
 32 66  2  0  0  0  0
 33 67  1  0  0  0  0
 33 70  1  0  0  0  0
 34 71  1  0  0  0  0
 34 76  2  0  0  0  0
 35 52  1  0  0  0  0
 35 73  1  0  0  0  0
 35 77  2  0  0  0  0
 36 63  1  0  0  0  0
 36 68  1  0  0  0  0
 36 78  2  0  0  0  0
 37 64  1  0  0  0  0
 37 74  1  0  0  0  0
 37 79  2  0  0  0  0
 38 69  1  0  0  0  0
 38 72  1  0  0  0  0
 38 80  2  0  0  0  0
 39 42  1  0  0  0  0
 40 52  1  0  0  0  0
 41 68  1  0  0  0  0
 42 44  1  0  0  0  0
 43 46  1  0  0  0  0
 43 49  1  0  0  0  0
 44 51  1  0  0  0  0
 45 47  1  0  0  0  0
 45 53  1  0  0  0  0
 46 54  1  0  0  0  0
 47 55  1  0  0  0  0
 48 53  1  0  0  0  0
 48 55  1  0  0  0  0
 49 69  1  0  0  0  0
 50 54  1  0  0  0  0
 50 69  1  0  0  0  0
 51 73  1  0  0  0  0
 52 68  1  0  0  0  0
 53 62  1  0  0  0  0
 54 67  1  0  0  0  0
 55 82  1  0  0  0  0
 57 64  1  0  0  0  0
 58 65  1  0  0  0  0
 59 65  1  0  0  0  0
 60 65  1  0  0  0  0
 61 75  1  0  0  0  0
 62 83  1  0  0  0  0
 63 65  1  0  0  0  0
 63 74  1  0  0  0  0
 64 75  1  0  0  0  0
 66 67  1  0  0  0  0
M  CHG  1  75   1
M  ISO  4  38 100  55 101  72 100  82 101
M  END
> <Batch ID>
0028

> <Smiles>
CNC(C)C(=O)NC(C(=O)N1Cc2cc([101O:1][101CH:1]3CCC(COc4c(C)cc(Cl)cc4[100NH:0][100C:0](=O)N4CCCC(n5nc(-c6ccc(Oc7ccc(F)cc7F)cc6)c(C(N)=O)c5N)C4)C3)ccc2CC1C(=O)NC1CCCc2ccccc21)C(C)(C)C

> <Shape>
0.213

> <Color>
0.071

> <Negative vol penalty>
0.000

$$$$

  -OEChem-04042321313D

 97108  0     1  0  0  0  0  0999 V2000
  -19.9430  -24.1564   22.8855 C   0  0  0  0  0  0  0  0  0  0  0  0
  -20.9110  -24.4811   21.9405 C   0  0  0  0  0  0  0  0  0  0  0  0
  -23.0415  -13.6115   19.4577 C   0  0  0  0  0  0  0  0  0  0  0  0
  -23.8772  -15.0183   17.6802 C   0  0  0  0  0  0  0  0  0  0  0  0
  -19.1686  -25.1620   23.4624 C   0  0  0  0  0  0  0  0  0  0  0  0
  -21.1043  -25.8118   21.5711 C   0  0  0  0  0  0  0  0  0  0  0  0
  -26.0033  -27.0762   21.3563 C   0  0  0  0  0  0  0  0  0  0  0  0
  -21.8727  -13.3868   18.7305 C   0  0  0  0  0  0  0  0  0  0  0  0
  -22.7083  -14.7936   16.9529 C   0  0  0  0  0  0  0  0  0  0  0  0
  -26.7177  -26.6675   20.2309 C   0  0  0  0  0  0  0  0  0  0  0  0
  -19.5199  -15.9182   16.9518 C   0  0  0  0  0  0  0  0  0  0  0  0
  -18.9093  -17.0186   16.3502 C   0  0  0  0  0  0  0  0  0  0  0  0
  -26.4871  -28.8766   19.2898 C   0  0  0  0  0  0  0  0  0  0  0  0
  -31.5068  -24.2465   20.2038 C   0  0  0  0  0  0  0  0  0  0  0  0
  -30.2929  -22.2579   18.6693 C   0  0  0  0  0  0  0  0  0  0  0  0
  -19.1796  -15.9843   14.1836 C   0  0  0  0  0  0  0  0  0  0  0  0
  -24.0438  -14.4272   18.9326 C   0  0  0  0  0  0  0  0  0  0  0  0
  -26.1801  -13.6965   20.1199 C   0  0  0  0  0  0  0  0  0  0  0  0
  -19.3592  -26.5066   23.1070 C   0  0  0  0  0  0  0  0  0  0  0  0
  -25.5153  -28.3873   21.4522 C   0  0  0  0  0  0  0  0  0  0  0  0
  -20.3308  -26.8362   22.1428 C   0  0  0  0  0  0  0  0  0  0  0  0
  -25.7691  -29.3002   20.4186 C   0  0  0  0  0  0  0  0  0  0  0  0
  -31.6551  -24.2478   18.8168 C   0  0  0  0  0  0  0  0  0  0  0  0
  -30.7516  -23.2508   20.8235 C   0  0  0  0  0  0  0  0  0  0  0  0
  -31.0481  -23.2536   18.0496 C   0  0  0  0  0  0  0  0  0  0  0  0
  -30.1446  -22.2566   20.0562 C   0  0  0  0  0  0  0  0  0  0  0  0
  -21.7060  -13.9779   17.4781 C   0  0  0  0  0  0  0  0  0  0  0  0
  -26.9571  -27.5669   19.1962 C   0  0  0  0  0  0  0  0  0  0  0  0
  -19.9604  -14.8508   16.1692 C   0  0  0  0  0  0  0  0  0  0  0  0
  -18.7391  -17.0516   14.9662 C   0  0  0  0  0  0  0  0  0  0  0  0
  -19.7903  -14.8838   14.7852 C   0  0  0  0  0  0  0  0  0  0  0  0
  -25.2512  -14.6601   19.6836 C   0  0  0  0  0  0  0  0  0  0  0  0
  -27.1400  -14.4208   20.7836 C   0  0  0  0  0  0  0  0  0  0  0  0
  -26.1757  -12.2739   19.9413 C   0  0  0  0  0  0  0  0  0  0  0  0
  -22.6271  -29.6944   21.6839 C   0  0  0  0  0  0  0  0  0  0  0  0
  -24.3243  -32.4313   22.0730 C   0  0  0  0  0  0  0  0  0  0  0  0
  -25.6615  -35.5662   22.2500 C   0  0  0  0  0  0  0  0  0  0  0  0
  -28.7072  -20.1786   20.0432 C   0  0  0  0  0  0  0  0  0  0  0  0
  -18.4656  -27.5539   23.7229 C   0  0  0  0  0  0  0  0  0  0  0  0
  -24.7696  -28.8201   22.6847 C   0  0  0  0  0  0  0  0  0  0  0  0
  -25.2842  -30.7247   20.4819 C   0  0  0  0  0  0  0  0  0  0  0  0
  -18.9892  -28.9777   23.5530 C   0  0  0  0  0  0  0  0  0  0  0  0
  -26.9891  -24.3108   11.4569 C   0  0  0  0  0  0  0  0  0  0  0  0
  -27.5752  -25.6034   12.0333 C   0  0  0  0  0  0  0  0  0  0  0  0
  -26.9207  -18.6710   23.0862 C   0  0  0  0  0  0  0  0  0  0  0  0
  -31.7493  -27.9122   15.4522 C   0  0  0  0  0  0  0  0  0  0  0  0
  -19.4389  -29.2131   22.1145 C   0  0  0  0  0  0  0  0  0  0  0  0
  -30.4874  -28.5404   16.0345 C   0  0  0  0  0  0  0  0  0  0  0  0
  -27.0560  -17.1877   22.7504 C   0  0  0  0  0  0  0  0  0  0  0  0
  -27.9659  -23.1984   11.8289 C   0  0  0  0  0  0  0  0  0  0  0  0
  -28.8833  -25.2093   12.7133 C   0  0  0  0  0  0  0  0  0  0  0  0
  -32.0805  -22.8639   14.5281 C   0  0  0  0  0  0  0  0  0  0  0  0
  -27.9827  -19.5184   22.3968 C   0  0  0  0  0  0  0  0  0  0  0  0
  -32.4677  -23.1354   15.9827 C   0  0  0  0  0  0  0  0  0  0  0  0
  -27.2671  -18.1834   20.4064 C   0  0  0  0  0  0  0  0  0  0  0  0
  -30.0634  -23.3045   15.7399 C   0  0  0  0  0  0  0  0  0  0  0  0
  -32.5605  -27.1858   16.5143 C   0  0  0  0  0  0  0  0  0  0  0  0
  -30.4704  -26.7796   17.8437 C   0  0  0  0  0  0  0  0  0  0  0  0
  -20.5873  -28.2706   21.7343 C   0  0  1  0  0  0  0  0  0  0  0  0
  -23.8762  -30.0336   22.4472 C   0  0  1  0  0  0  0  0  0  0  0  0
  -29.6412  -27.5036   16.7816 C   0  0  1  0  0  0  0  0  0  0  0  0
  -27.4538  -16.9350   21.2827 C   0  0  2  0  0  0  0  0  0  0  0  0
  -28.6732  -23.7455   13.0556 C   0  0  0  0  0  0  0  0  0  0  0  0
  -30.7484  -23.5818   14.4064 C   0  0  2  0  0  0  0  0  0  0  0  0
  -30.6097  -23.2740   22.3109 C   0  0  0  0  0  0  0  0  0  0  0  0
  -25.0846  -37.9783   21.8678 C   0  0  0  0  0  0  0  0  0  0  0  0
  -24.5440  -32.0039   19.0598 C   0  0  0  0  0  0  0  0  0  0  0  0
  -24.9153  -34.4669   18.8078 C   0  0  0  0  0  0  0  0  0  0  0  0
  -22.7690  -33.6217   19.7573 C   0  0  0  0  0  0  0  0  0  0  0  0
  -26.1706  -36.2570   25.0824 C   0  0  0  0  0  0  0  0  0  0  0  0
  -32.4729  -25.3305   18.1766 C   0  0  0  0  0  0  0  0  0  0  0  0
  -28.4213  -28.1653   17.4201 C   0  0  0  0  0  0  0  0  0  1  0  0
  -24.8771  -33.4873   21.1466 C   0  0  1  0  0  0  0  0  0  0  0  0
  -25.1465  -36.8467   22.8819 C   0  0  2  0  0  0  0  0  0  0  0  0
  -24.2934  -33.3794   19.7095 C   0  0  0  0  0  0  0  0  0  0  0  0
  -25.5903  -15.9018   20.0402 N   0  0  0  0  0  0  0  0  0  0  0  0
  -26.7430  -15.7234   20.7076 N   0  0  0  0  0  0  0  0  0  0  0  0
  -31.1843  -23.2398   16.6779 N   0  0  3  0  0  0  0  0  0  0  0  0
  -24.5543  -31.0981   21.7047 N   0  0  0  0  0  0  0  0  0  0  0  0
  -28.0203  -19.3242   20.9401 N   0  0  0  0  0  0  0  0  0  0  0  0
  -28.2765  -14.0641   21.4189 N   0  0  0  0  0  0  0  0  0  0  0  0
  -26.8025  -11.7411   18.8066 N   0  0  0  0  0  0  0  0  0  0  0  0
  -29.3734  -21.2365   20.6674 N   0  0  0  0  0  0  0  0  0  0  0  0
  -21.8349  -28.7420   22.2961 N   0  0  0  0  0  0  0  0  0  0  0  0
  -24.6310  -34.7700   21.7967 N   0  0  0  0  0  0  0  0  0  0  0  0
  -31.6884  -26.1610   17.1980 N   0  3  2  0  0  0  0  0  0  0  0  0
  -29.9594  -23.0613   13.2771 N   0  3  0  0  0  0  0  0  0  0  0  0
  -26.0367  -37.2666   24.0009 N   0  3  0  0  0  0  0  0  0  0  0  0
  -25.6178  -11.4994   20.7551 O   0  0  0  0  0  0  0  0  0  0  0  0
  -22.3983  -30.2563   20.6192 O   0  0  0  0  0  0  0  0  0  0  0  0
  -23.7172  -32.7766   23.0898 O   0  0  0  0  0  0  0  0  0  0  0  0
  -26.8584  -35.3005   22.1635 O   0  0  0  0  0  0  0  0  0  0  0  0
  -28.7097  -19.9742   18.8274 O   0  0  0  0  0  0  0  0  0  0  0  0
  -20.5657  -13.7587   16.7680 O   0  0  0  0  0  0  0  0  0  0  0  0
  -27.6535  -27.1704   18.0963 O   0  0  0  0  0  0  0  0  0  1  0  0
  -18.1514  -18.1077   14.3888 F   0  0  0  0  0  0  0  0  0  0  0  0
  -20.2104  -13.8609   14.0283 F   0  0  0  0  0  0  0  0  0  0  0  0
  1  2  1  0  0  0  0
  1  5  2  0  0  0  0
  2  6  2  0  0  0  0
  3  8  2  0  0  0  0
  3 17  1  0  0  0  0
  4  9  1  0  0  0  0
  4 17  2  0  0  0  0
  5 19  1  0  0  0  0
  6 21  1  0  0  0  0
  7 10  2  0  0  0  0
  7 20  1  0  0  0  0
  8 27  1  0  0  0  0
  9 27  2  0  0  0  0
 10 28  1  0  0  0  0
 11 12  2  0  0  0  0
 11 29  1  0  0  0  0
 12 30  1  0  0  0  0
 13 22  1  0  0  0  0
 13 28  2  0  0  0  0
 14 23  1  0  0  0  0
 14 24  2  0  0  0  0
 15 25  1  0  0  0  0
 15 26  2  0  0  0  0
 16 30  2  0  0  0  0
 16 31  1  0  0  0  0
 17 32  1  0  0  0  0
 18 32  1  0  0  0  0
 18 33  2  0  0  0  0
 18 34  1  0  0  0  0
 19 21  2  0  0  0  0
 19 39  1  0  0  0  0
 20 22  2  0  0  0  0
 20 40  1  0  0  0  0
 21 59  1  0  0  0  0
 22 41  1  0  0  0  0
 23 25  2  0  0  0  0
 23 71  1  0  0  0  0
 24 26  1  0  0  0  0
 24 65  1  0  0  0  0
 25 78  1  0  0  0  0
 26 83  1  0  0  0  0
 27 94  1  0  0  0  0
 28 95  1  0  0  0  0
 29 31  2  0  0  0  0
 29 94  1  0  0  0  0
 30 96  1  0  0  0  0
 31 97  1  0  0  0  0
 32 76  2  0  0  0  0
 33 77  1  0  0  0  0
 33 81  1  0  0  0  0
 34 82  1  0  0  0  0
 34 89  2  0  0  0  0
 35 60  1  0  0  0  0
 35 84  1  0  0  0  0
 35 90  2  0  0  0  0
 36 73  1  0  0  0  0
 36 79  1  0  0  0  0
 36 91  2  0  0  0  0
 37 74  1  0  0  0  0
 37 85  1  0  0  0  0
 37 92  2  0  0  0  0
 38 80  1  0  0  0  0
 38 83  1  0  0  0  0
 38 93  2  0  0  0  0
 39 42  1  0  0  0  0
 40 60  1  0  0  0  0
 41 79  1  0  0  0  0
 42 47  1  0  0  0  0
 43 44  1  0  0  0  0
 43 50  1  0  0  0  0
 44 51  1  0  0  0  0
 45 49  1  0  0  0  0
 45 53  1  0  0  0  0
 46 48  1  0  0  0  0
 46 57  1  0  0  0  0
 47 59  1  0  0  0  0
 48 61  1  0  0  0  0
 49 62  1  0  0  0  0
 50 63  1  0  0  0  0
 51 63  1  0  0  0  0
 52 54  1  0  0  0  0
 52 64  1  0  0  0  0
 53 80  1  0  0  0  0
 54 78  1  0  0  0  0
 55 62  1  0  0  0  0
 55 80  1  0  0  0  0
 56 64  1  0  0  0  0
 56 78  1  0  0  0  0
 57 86  1  0  0  0  0
 58 61  1  0  0  0  0
 58 86  1  0  0  0  0
 59 84  1  0  0  0  0
 60 79  1  0  0  0  0
 61 72  1  0  0  0  0
 62 77  1  0  0  0  0
 63 87  1  0  0  0  0
 64 87  1  0  0  0  0
 66 74  1  0  0  0  0
 67 75  1  0  0  0  0
 68 75  1  0  0  0  0
 69 75  1  0  0  0  0
 70 88  1  0  0  0  0
 71 86  1  0  0  0  0
 72 95  1  0  0  0  0
 73 75  1  0  0  0  0
 73 85  1  0  0  0  0
 74 88  1  0  0  0  0
 76 77  1  0  0  0  0
M  CHG  3  86   1  87   1  88   1
M  ISO  4  38 100  72 101  83 100  95 101
M  END
> <Batch ID>
0028

> <Smiles>
CNC(C)C(=O)NC(C(=O)N1Cc2cc([101O:1][101CH2:1]C3CCCN(Cc4cc(C)c([100NH:0][100C:0](=O)N5CCCC(n6nc(-c7ccc(Oc8ccc(F)cc8F)cc7)c(C(N)=O)c6N)C5)cc4N4CCC(NC5CCCC5)C4)C3)ccc2CC1C(=O)NC1CCCc2ccccc21)C(C)(C)C

> <Shape>
0.244

> <Color>
0.135

> <Negative vol penalty>
0.000

$$$$

  -OEChem-04042321313D

 85 94  0     1  0  0  0  0  0999 V2000
  -24.9603  -35.4878   22.5165 C   0  0  0  0  0  0  0  0  0  0  0  0
  -25.6973  -34.3266   22.3071 C   0  0  0  0  0  0  0  0  0  0  0  0
  -24.3364  -13.5763   20.1185 C   0  0  0  0  0  0  0  0  0  0  0  0
  -26.1729  -13.6266   21.6875 C   0  0  0  0  0  0  0  0  0  0  0  0
  -23.7245  -35.4215   23.1585 C   0  0  0  0  0  0  0  0  0  0  0  0
  -25.1992  -33.0984   22.7405 C   0  0  0  0  0  0  0  0  0  0  0  0
  -25.7323  -29.4511   19.2680 C   0  0  0  0  0  0  0  0  0  0  0  0
  -29.5323  -24.6988   24.1943 C   0  0  0  0  0  0  0  0  0  0  0  0
  -24.4194  -12.1849   20.0658 C   0  0  0  0  0  0  0  0  0  0  0  0
  -26.2559  -12.2352   21.6348 C   0  0  0  0  0  0  0  0  0  0  0  0
  -26.9976  -28.8817   19.1318 C   0  0  0  0  0  0  0  0  0  0  0  0
  -23.4576   -9.5585   21.9657 C   0  0  0  0  0  0  0  0  0  0  0  0
  -28.4591  -23.8936   24.5756 C   0  0  0  0  0  0  0  0  0  0  0  0
  -22.2675   -8.8348   22.0395 C   0  0  0  0  0  0  0  0  0  0  0  0
  -26.2872  -26.9993   20.4626 C   0  0  0  0  0  0  0  0  0  0  0  0
  -29.4686  -23.7351   21.9798 C   0  0  0  0  0  0  0  0  0  0  0  0
  -22.7196   -7.8702   19.8710 C   0  0  0  0  0  0  0  0  0  0  0  0
  -25.2131  -14.2971   20.9292 C   0  0  0  0  0  0  0  0  0  0  0  0
  -24.3519  -16.5073   21.8678 C   0  0  0  0  0  0  0  0  0  0  0  0
  -23.2066  -34.1907   23.5914 C   0  0  0  0  0  0  0  0  0  0  0  0
  -24.7366  -28.8030   20.0129 C   0  0  0  0  0  0  0  0  0  0  0  0
  -23.9558  -33.0157   23.3901 C   0  0  0  0  0  0  0  0  0  0  0  0
  -25.0093  -27.5614   20.6046 C   0  0  0  0  0  0  0  0  0  0  0  0
  -30.0370  -24.6196   22.8964 C   0  0  0  0  0  0  0  0  0  0  0  0
  -28.3954  -22.9298   22.3611 C   0  0  0  0  0  0  0  0  0  0  0  0
  -25.3792  -11.5144   20.8240 C   0  0  0  0  0  0  0  0  0  0  0  0
  -27.2761  -27.6570   19.7315 C   0  0  0  0  0  0  0  0  0  0  0  0
  -24.2787   -9.4381   20.8445 C   0  0  0  0  0  0  0  0  0  0  0  0
  -21.8985   -7.9906   20.9921 C   0  0  0  0  0  0  0  0  0  0  0  0
  -27.8906  -23.0091   23.6591 C   0  0  0  0  0  0  0  0  0  0  0  0
  -23.9097   -8.5940   19.7972 C   0  0  0  0  0  0  0  0  0  0  0  0
  -25.1282  -15.7345   20.9836 C   0  0  0  0  0  0  0  0  0  0  0  0
  -24.6199  -17.8071   21.5137 C   0  0  0  0  0  0  0  0  0  0  0  0
  -31.4597  -26.3299   20.1261 C   0  0  0  0  0  0  0  0  0  0  0  0
  -23.4676  -16.0879   22.9156 C   0  0  0  0  0  0  0  0  0  0  0  0
  -23.0769  -29.5081   22.6306 C   0  0  0  0  0  0  0  0  0  0  0  0
  -21.4951  -26.7739   21.8927 C   0  0  0  0  0  0  0  0  0  0  0  0
  -22.3506  -23.4728   20.7144 C   0  0  0  0  0  0  0  0  0  0  0  0
  -28.1994  -21.8317   20.1023 C   0  0  0  0  0  0  0  0  0  0  0  0
  -21.8877  -34.1749   24.3229 C   0  0  0  0  0  0  0  0  0  0  0  0
  -23.3686  -29.4176   20.1281 C   0  0  0  0  0  0  0  0  0  0  0  0
  -23.9687  -26.8153   21.3978 C   0  0  0  0  0  0  0  0  0  0  0  0
  -30.8814  -27.4759   19.3281 C   0  0  0  0  0  0  0  0  0  0  0  0
  -21.2599  -32.7866   24.4170 C   0  0  0  0  0  0  0  0  0  0  0  0
  -27.0563  -19.6912   17.4968 C   0  0  0  0  0  0  0  0  0  0  0  0
  -22.3008  -31.7582   24.8479 C   0  0  0  0  0  0  0  0  0  0  0  0
  -26.3889  -18.5346   18.2444 C   0  0  0  0  0  0  0  0  0  0  0  0
  -28.2959  -20.2005   18.2302 C   0  0  0  0  0  0  0  0  0  0  0  0
  -27.4142  -19.3990   20.3865 C   0  0  0  0  0  0  0  0  0  0  0  0
  -29.8986  -27.4280   21.5265 C   0  0  0  0  0  0  0  0  0  0  0  0
  -23.4379  -31.6615   23.8236 C   0  0  1  0  0  0  0  0  0  0  0  0
  -22.5881  -28.9159   21.3391 C   0  0  1  0  0  0  0  0  0  0  0  0
  -26.1240  -18.8951   19.7193 C   0  0  2  0  0  0  0  0  0  0  0  0
  -29.6159  -27.8482   20.0960 C   0  0  2  0  0  0  0  0  0  1  0  0
  -21.0074  -21.8115   19.3979 C   0  0  0  0  0  0  0  0  0  0  0  0
  -20.7613  -25.6363   24.6272 C   0  0  0  0  0  0  0  0  0  0  0  0
  -20.9090  -23.3424   23.6351 C   0  0  0  0  0  0  0  0  0  0  0  0
  -19.2238  -24.9666   22.7720 C   0  0  0  0  0  0  0  0  0  0  0  0
  -24.4320  -23.2752   18.6197 C   0  0  0  0  0  0  0  0  0  0  0  0
  -31.1927  -25.4861   22.4867 C   0  0  0  0  0  0  0  0  0  0  0  0
  -21.6693  -25.3132   22.2320 C   0  0  1  0  0  0  0  0  0  0  0  0
  -22.0696  -22.8982   19.3377 C   0  0  2  0  0  0  0  0  0  0  0  0
  -20.6631  -24.8324   23.3154 C   0  0  0  0  0  0  0  0  0  0  0  0
  -25.8362  -16.4809   20.1318 N   0  0  0  0  0  0  0  0  0  0  0  0
  -25.5057  -17.7364   20.4790 N   0  0  0  0  0  0  0  0  0  0  0  0
  -30.8537  -26.3524   21.3782 N   0  0  0  0  0  0  0  0  0  0  0  0
  -22.6483  -27.4603   21.4869 N   0  0  0  0  0  0  0  0  0  0  0  0
  -27.9680  -20.5262   19.6199 N   0  0  0  0  0  0  0  0  0  0  0  0
  -24.1819  -18.9920   21.9896 N   0  0  0  0  0  0  0  0  0  0  0  0
  -23.3080  -14.7146   23.1454 N   0  0  0  0  0  0  0  0  0  0  0  0
  -27.8184  -22.0323   21.4287 N   0  0  0  0  0  0  0  0  0  0  0  0
  -23.0185  -30.8880   22.6746 N   0  0  0  0  0  0  0  0  0  0  0  0
  -21.5801  -24.5875   20.9695 N   0  0  0  0  0  0  0  0  0  0  0  0
  -23.3107  -22.3107   18.7584 N   0  3  0  0  0  0  0  0  0  0  0  0
  -32.3317  -25.5748   19.7222 O   0  0  0  0  0  0  0  0  0  0  0  0
  -22.8252  -16.9064   23.6162 O   0  0  0  0  0  0  0  0  0  0  0  0
  -23.4760  -28.7677   23.5219 O   0  0  0  0  0  0  0  0  0  0  0  0
  -20.3757  -27.2851   21.9776 O   0  0  0  0  0  0  0  0  0  0  0  0
  -23.1690  -22.9799   21.4876 O   0  0  0  0  0  0  0  0  0  0  0  0
  -28.6736  -22.7148   19.3830 O   0  0  0  0  0  0  0  0  0  0  0  0
  -25.4603  -10.1566   20.7731 O   0  0  0  0  0  0  0  0  0  0  0  0
  -28.5105  -27.0994   19.6006 O   0  0  0  0  0  0  0  0  0  1  0  0
  -20.7563   -7.2945   21.0638 F   0  0  0  0  0  0  0  0  0  0  0  0
  -26.8598  -22.2396   24.0370 F   0  0  0  0  0  0  0  0  0  0  0  0
  -24.6950   -8.4733   18.7180 F   0  0  0  0  0  0  0  0  0  0  0  0
  1  2  1  0  0  0  0
  1  5  2  0  0  0  0
  2  6  2  0  0  0  0
  3  9  2  0  0  0  0
  3 18  1  0  0  0  0
  4 10  1  0  0  0  0
  4 18  2  0  0  0  0
  5 20  1  0  0  0  0
  6 22  1  0  0  0  0
  7 11  2  0  0  0  0
  7 21  1  0  0  0  0
  8 13  2  0  0  0  0
  8 24  1  0  0  0  0
  9 26  1  0  0  0  0
 10 26  2  0  0  0  0
 11 27  1  0  0  0  0
 12 14  2  0  0  0  0
 12 28  1  0  0  0  0
 13 30  1  0  0  0  0
 14 29  1  0  0  0  0
 15 23  1  0  0  0  0
 15 27  2  0  0  0  0
 16 24  2  0  0  0  0
 16 25  1  0  0  0  0
 17 29  2  0  0  0  0
 17 31  1  0  0  0  0
 18 32  1  0  0  0  0
 19 32  1  0  0  0  0
 19 33  2  0  0  0  0
 19 35  1  0  0  0  0
 20 22  2  0  0  0  0
 20 40  1  0  0  0  0
 21 23  2  0  0  0  0
 21 41  1  0  0  0  0
 22 51  1  0  0  0  0
 23 42  1  0  0  0  0
 24 60  1  0  0  0  0
 25 30  2  0  0  0  0
 25 71  1  0  0  0  0
 26 81  1  0  0  0  0
 27 82  1  0  0  0  0
 28 31  2  0  0  0  0
 28 81  1  0  0  0  0
 29 83  1  0  0  0  0
 30 84  1  0  0  0  0
 31 85  1  0  0  0  0
 32 64  2  0  0  0  0
 33 65  1  0  0  0  0
 33 69  1  0  0  0  0
 34 43  1  0  0  0  0
 34 66  1  0  0  0  0
 34 75  2  0  0  0  0
 35 70  1  0  0  0  0
 35 76  2  0  0  0  0
 36 52  1  0  0  0  0
 36 72  1  0  0  0  0
 36 77  2  0  0  0  0
 37 61  1  0  0  0  0
 37 67  1  0  0  0  0
 37 78  2  0  0  0  0
 38 62  1  0  0  0  0
 38 73  1  0  0  0  0
 38 79  2  0  0  0  0
 39 68  1  0  0  0  0
 39 71  1  0  0  0  0
 39 80  2  0  0  0  0
 40 44  1  0  0  0  0
 41 52  1  0  0  0  0
 42 67  1  0  0  0  0
 43 54  1  0  0  0  0
 44 46  1  0  0  0  0
 45 47  1  0  0  0  0
 45 48  1  0  0  0  0
 46 51  1  0  0  0  0
 47 53  1  0  0  0  0
 48 68  1  0  0  0  0
 49 53  1  0  0  0  0
 49 68  1  0  0  0  0
 50 54  1  0  0  0  0
 50 66  1  0  0  0  0
 51 72  1  0  0  0  0
 52 67  1  0  0  0  0
 53 65  1  0  0  0  0
 54 82  1  0  0  0  0
 55 62  1  0  0  0  0
 56 63  1  0  0  0  0
 57 63  1  0  0  0  0
 58 63  1  0  0  0  0
 59 74  1  0  0  0  0
 60 66  1  0  0  0  0
 61 63  1  0  0  0  0
 61 73  1  0  0  0  0
 62 74  1  0  0  0  0
 64 65  1  0  0  0  0
M  CHG  1  74   1
M  ISO  4  39 100  54 101  71 100  82 101
M  END
> <Batch ID>
0028

> <Smiles>
CNC(C)C(=O)NC(C(=O)N1Cc2cc([101O:1][101CH:1]3CC(=O)N(Cc4ccc(F)c([100NH:0][100C:0](=O)N5CCCC(n6nc(-c7ccc(Oc8ccc(F)cc8F)cc7)c(C(N)=O)c6N)C5)c4)C3)ccc2CC1C(=O)NC1CCCc2ccccc21)C(C)(C)C

> <Shape>
0.235

> <Color>
0.102

> <Negative vol penalty>
0.000

$$$$

  -OEChem-04042321313D

 85 94  0     1  0  0  0  0  0999 V2000
  -19.3983  -29.4517   16.0522 C   0  0  0  0  0  0  0  0  0  0  0  0
  -20.3811  -28.4672   16.0701 C   0  0  0  0  0  0  0  0  0  0  0  0
  -23.0985   -9.8347   19.8979 C   0  0  0  0  0  0  0  0  0  0  0  0
  -23.8911   -9.7734   22.1794 C   0  0  0  0  0  0  0  0  0  0  0  0
  -19.7366  -30.7777   16.3194 C   0  0  0  0  0  0  0  0  0  0  0  0
  -21.7030  -28.8083   16.3542 C   0  0  0  0  0  0  0  0  0  0  0  0
  -25.8070  -25.4250   19.3900 C   0  0  0  0  0  0  0  0  0  0  0  0
  -31.4484  -18.5047   20.2289 C   0  0  0  0  0  0  0  0  0  0  0  0
  -31.2387  -19.5629   19.3447 C   0  0  0  0  0  0  0  0  0  0  0  0
  -22.3859   -8.6552   20.1138 C   0  0  0  0  0  0  0  0  0  0  0  0
  -23.1784   -8.5940   22.3953 C   0  0  0  0  0  0  0  0  0  0  0  0
  -26.8390  -24.5925   18.9592 C   0  0  0  0  0  0  0  0  0  0  0  0
  -19.9792   -7.6958   23.0106 C   0  0  0  0  0  0  0  0  0  0  0  0
  -19.2404   -7.5933   24.1892 C   0  0  0  0  0  0  0  0  0  0  0  0
  -28.4063  -26.4066   19.2277 C   0  0  0  0  0  0  0  0  0  0  0  0
  -28.9878  -19.8186   20.1844 C   0  0  0  0  0  0  0  0  0  0  0  0
  -20.5379   -5.6602   24.8344 C   0  0  0  0  0  0  0  0  0  0  0  0
  -23.8512  -10.3938   20.9307 C   0  0  0  0  0  0  0  0  0  0  0  0
  -24.1312  -12.9292   20.9024 C   0  0  0  0  0  0  0  0  0  0  0  0
  -21.0616  -31.1337   16.6164 C   0  0  0  0  0  0  0  0  0  0  0  0
  -26.0654  -26.7599   19.7330 C   0  0  0  0  0  0  0  0  0  0  0  0
  -22.0595  -30.1404   16.6243 C   0  0  0  0  0  0  0  0  0  0  0  0
  -27.3762  -27.2532   19.6650 C   0  0  0  0  0  0  0  0  0  0  0  0
  -30.4277  -18.1033   21.0908 C   0  0  0  0  0  0  0  0  0  0  0  0
  -30.0085  -20.2199   19.3225 C   0  0  0  0  0  0  0  0  0  0  0  0
  -22.4259   -8.0348   21.3625 C   0  0  0  0  0  0  0  0  0  0  0  0
  -28.1384  -25.0840   18.8752 C   0  0  0  0  0  0  0  0  0  0  0  0
  -20.9973   -6.7805   22.7438 C   0  0  0  0  0  0  0  0  0  0  0  0
  -19.5197   -6.5755   25.1012 C   0  0  0  0  0  0  0  0  0  0  0  0
  -21.2767   -5.7626   23.6557 C   0  0  0  0  0  0  0  0  0  0  0  0
  -29.1975  -18.7603   21.0686 C   0  0  0  0  0  0  0  0  0  0  0  0
  -24.5880  -11.6119   20.7082 C   0  0  0  0  0  0  0  0  0  0  0  0
  -25.1999  -13.7182   20.5533 C   0  0  0  0  0  0  0  0  0  0  0  0
  -30.7209  -21.8169   17.4921 C   0  0  0  0  0  0  0  0  0  0  0  0
  -22.8550  -13.3979   21.3578 C   0  0  0  0  0  0  0  0  0  0  0  0
  -25.1135  -29.5844   18.6286 C   0  0  0  0  0  0  0  0  0  0  0  0
  -26.7534  -30.7033   21.1939 C   0  0  0  0  0  0  0  0  0  0  0  0
  -29.2183  -30.2019   23.5003 C   0  0  0  0  0  0  0  0  0  0  0  0
  -30.6601  -14.8622   20.7062 C   0  0  0  0  0  0  0  0  0  0  0  0
  -21.3873  -32.5873   16.8521 C   0  0  0  0  0  0  0  0  0  0  0  0
  -24.9457  -27.6374   20.2214 C   0  0  0  0  0  0  0  0  0  0  0  0
  -27.7097  -28.6730   20.0412 C   0  0  0  0  0  0  0  0  0  0  0  0
  -30.0148  -22.8845   16.6857 C   0  0  0  0  0  0  0  0  0  0  0  0
  -22.7458  -32.8078   17.5126 C   0  0  0  0  0  0  0  0  0  0  0  0
  -29.5450  -12.5426   18.2458 C   0  0  0  0  0  0  0  0  0  0  0  0
  -23.8155  -31.9627   16.8283 C   0  0  0  0  0  0  0  0  0  0  0  0
  -28.1214  -12.1980   18.6866 C   0  0  0  0  0  0  0  0  0  0  0  0
  -30.4739  -12.7401   19.4418 C   0  0  0  0  0  0  0  0  0  0  0  0
  -28.5756  -13.3719   20.8808 C   0  0  0  0  0  0  0  0  0  0  0  0
  -28.5074  -21.9678   18.3024 C   0  0  0  0  0  0  0  0  0  0  0  0
  -23.5002  -30.4671   16.9526 C   0  0  1  0  0  0  0  0  0  0  0  0
  -25.2364  -29.1256   20.0541 C   0  0  1  0  0  0  0  0  0  0  0  0
  -27.5889  -13.2183   19.7106 C   0  0  2  0  0  0  0  0  0  0  0  0
  -28.8085  -23.2405   17.5354 C   0  0  1  0  0  0  0  0  0  1  0  0
  -30.3507  -31.3107   25.4460 C   0  0  0  0  0  0  0  0  0  0  0  0
  -28.2807  -32.5136   19.2703 C   0  0  0  0  0  0  0  0  0  0  0  0
  -29.9862  -32.8685   21.0686 C   0  0  0  0  0  0  0  0  0  0  0  0
  -27.6278  -33.5980   21.4273 C   0  0  0  0  0  0  0  0  0  0  0  0
  -28.4031  -28.0435   25.3538 C   0  0  0  0  0  0  0  0  0  0  0  0
  -30.6927  -16.9654   22.0231 C   0  0  0  0  0  0  0  0  0  0  0  0
  -28.1788  -31.1306   21.4482 C   0  0  1  0  0  0  0  0  0  0  0  0
  -29.2364  -30.3726   25.0086 C   0  0  2  0  0  0  0  0  0  0  0  0
  -28.5121  -32.5014   20.7946 C   0  0  0  0  0  0  0  0  0  0  0  0
  -25.8486  -11.5626   20.2695 N   0  0  0  0  0  0  0  0  0  0  0  0
  -26.1930  -12.8589   20.1851 N   0  0  0  0  0  0  0  0  0  0  0  0
  -29.7938  -21.3022   18.4166 N   0  0  0  0  0  0  0  0  0  0  0  0
  -26.5795  -29.4936   20.5068 N   0  0  0  0  0  0  0  0  0  0  0  0
  -29.9119  -13.7208   20.3737 N   0  0  0  0  0  0  0  0  0  0  0  0
  -25.3776  -15.0562   20.5282 N   0  0  0  0  0  0  0  0  0  0  0  0
  -21.8699  -12.4523   21.6739 N   0  0  0  0  0  0  0  0  0  0  0  0
  -23.8398  -29.9872   18.2750 N   0  0  0  0  0  0  0  0  0  0  0  0
  -28.3628  -31.0979   22.8951 N   0  0  0  0  0  0  0  0  0  0  0  0
  -30.0512  -15.7437   21.5910 N   0  0  0  0  0  0  0  0  0  0  0  0
  -29.4409  -29.0562   25.6765 N   0  3  0  0  0  0  0  0  0  0  0  0
  -31.8762  -21.4849   17.2681 O   0  0  0  0  0  0  0  0  0  0  0  0
  -22.5905  -14.6193   21.4652 O   0  0  0  0  0  0  0  0  0  0  0  0
  -26.1014  -29.5750   17.9035 O   0  0  0  0  0  0  0  0  0  0  0  0
  -25.8283  -31.4130   21.5966 O   0  0  0  0  0  0  0  0  0  0  0  0
  -29.8982  -29.3604   22.9170 O   0  0  0  0  0  0  0  0  0  0  0  0
  -31.7849  -15.0822   20.2442 O   0  0  0  0  0  0  0  0  0  0  0  0
  -21.7304   -6.8840   21.5735 O   0  0  0  0  0  0  0  0  0  0  0  0
  -29.1475  -24.2738   18.4545 O   0  0  0  0  0  0  0  0  0  1  0  0
  -18.8112   -6.4782   26.2337 F   0  0  0  0  0  0  0  0  0  0  0  0
  -22.2544   -4.8810   23.4055 F   0  0  0  0  0  0  0  0  0  0  0  0
  -27.9113  -18.2911   22.1200 Cl  0  0  0  0  0  0  0  0  0  0  0  0
  1  2  1  0  0  0  0
  1  5  2  0  0  0  0
  2  6  2  0  0  0  0
  3 10  2  0  0  0  0
  3 18  1  0  0  0  0
  4 11  1  0  0  0  0
  4 18  2  0  0  0  0
  5 20  1  0  0  0  0
  6 22  1  0  0  0  0
  7 12  2  0  0  0  0
  7 21  1  0  0  0  0
  8  9  2  0  0  0  0
  8 24  1  0  0  0  0
  9 25  1  0  0  0  0
 10 26  1  0  0  0  0
 11 26  2  0  0  0  0
 12 27  1  0  0  0  0
 13 14  2  0  0  0  0
 13 28  1  0  0  0  0
 14 29  1  0  0  0  0
 15 23  1  0  0  0  0
 15 27  2  0  0  0  0
 16 25  2  0  0  0  0
 16 31  1  0  0  0  0
 17 29  2  0  0  0  0
 17 30  1  0  0  0  0
 18 32  1  0  0  0  0
 19 32  1  0  0  0  0
 19 33  2  0  0  0  0
 19 35  1  0  0  0  0
 20 22  2  0  0  0  0
 20 40  1  0  0  0  0
 21 23  2  0  0  0  0
 21 41  1  0  0  0  0
 22 51  1  0  0  0  0
 23 42  1  0  0  0  0
 24 31  2  0  0  0  0
 24 60  1  0  0  0  0
 25 66  1  0  0  0  0
 26 81  1  0  0  0  0
 27 82  1  0  0  0  0
 28 30  2  0  0  0  0
 28 81  1  0  0  0  0
 29 83  1  0  0  0  0
 30 84  1  0  0  0  0
 31 85  1  0  0  0  0
 32 64  2  0  0  0  0
 33 65  1  0  0  0  0
 33 69  1  0  0  0  0
 34 43  1  0  0  0  0
 34 66  1  0  0  0  0
 34 75  2  0  0  0  0
 35 70  1  0  0  0  0
 35 76  2  0  0  0  0
 36 52  1  0  0  0  0
 36 71  1  0  0  0  0
 36 77  2  0  0  0  0
 37 61  1  0  0  0  0
 37 67  1  0  0  0  0
 37 78  2  0  0  0  0
 38 62  1  0  0  0  0
 38 72  1  0  0  0  0
 38 79  2  0  0  0  0
 39 68  1  0  0  0  0
 39 73  1  0  0  0  0
 39 80  2  0  0  0  0
 40 44  1  0  0  0  0
 41 52  1  0  0  0  0
 42 67  1  0  0  0  0
 43 54  1  0  0  0  0
 44 46  1  0  0  0  0
 45 47  1  0  0  0  0
 45 48  1  0  0  0  0
 46 51  1  0  0  0  0
 47 53  1  0  0  0  0
 48 68  1  0  0  0  0
 49 53  1  0  0  0  0
 49 68  1  0  0  0  0
 50 54  1  0  0  0  0
 50 66  1  0  0  0  0
 51 71  1  0  0  0  0
 52 67  1  0  0  0  0
 53 65  1  0  0  0  0
 54 82  1  0  0  0  0
 55 62  1  0  0  0  0
 56 63  1  0  0  0  0
 57 63  1  0  0  0  0
 58 63  1  0  0  0  0
 59 74  1  0  0  0  0
 60 73  1  0  0  0  0
 61 63  1  0  0  0  0
 61 72  1  0  0  0  0
 62 74  1  0  0  0  0
 64 65  1  0  0  0  0
M  CHG  1  74   1
M  ISO  4  39 100  54 101  73 100  82 101
M  END
> <Batch ID>
0028

> <Smiles>
CNC(C)C(=O)NC(C(=O)N1Cc2cc([101O:1][101CH:1]3CC(=O)N(c4ccc(C[100NH:0][100C:0](=O)N5CCCC(n6nc(-c7ccc(Oc8ccc(F)cc8F)cc7)c(C(N)=O)c6N)C5)c(Cl)c4)C3)ccc2CC1C(=O)NC1CCCc2ccccc21)C(C)(C)C

> <Shape>
0.301

> <Color>
0.215

> <Negative vol penalty>
0.000

$$$$

  -OEChem-04042321313D

 85 94  0     1  0  0  0  0  0999 V2000
  -24.9653  -35.4897   22.5145 C   0  0  0  0  0  0  0  0  0  0  0  0
  -25.7014  -34.3277   22.3058 C   0  0  0  0  0  0  0  0  0  0  0  0
  -24.3361  -13.5737   20.1179 C   0  0  0  0  0  0  0  0  0  0  0  0
  -26.1718  -13.6247   21.6878 C   0  0  0  0  0  0  0  0  0  0  0  0
  -23.7292  -35.4246   23.1560 C   0  0  0  0  0  0  0  0  0  0  0  0
  -25.2021  -33.1001   22.7395 C   0  0  0  0  0  0  0  0  0  0  0  0
  -25.7336  -29.4511   19.2686 C   0  0  0  0  0  0  0  0  0  0  0  0
  -27.8854  -23.0060   23.6581 C   0  0  0  0  0  0  0  0  0  0  0  0
  -24.4195  -12.1823   20.0656 C   0  0  0  0  0  0  0  0  0  0  0  0
  -26.2552  -12.2333   21.6355 C   0  0  0  0  0  0  0  0  0  0  0  0
  -26.9984  -28.8806   19.1330 C   0  0  0  0  0  0  0  0  0  0  0  0
  -23.4574   -9.5560   21.9655 C   0  0  0  0  0  0  0  0  0  0  0  0
  -28.4529  -23.8890   24.5767 C   0  0  0  0  0  0  0  0  0  0  0  0
  -22.2674   -8.8321   22.0389 C   0  0  0  0  0  0  0  0  0  0  0  0
  -26.2860  -26.9993   20.4643 C   0  0  0  0  0  0  0  0  0  0  0  0
  -29.4655  -23.7343   21.9818 C   0  0  0  0  0  0  0  0  0  0  0  0
  -22.7208   -7.8672   19.8708 C   0  0  0  0  0  0  0  0  0  0  0  0
  -25.2123  -14.2949   20.9290 C   0  0  0  0  0  0  0  0  0  0  0  0
  -24.3501  -16.5051   21.8667 C   0  0  0  0  0  0  0  0  0  0  0  0
  -23.2101  -34.1943   23.5892 C   0  0  0  0  0  0  0  0  0  0  0  0
  -24.7370  -28.8041   20.0134 C   0  0  0  0  0  0  0  0  0  0  0  0
  -23.9584  -33.0187   23.3886 C   0  0  0  0  0  0  0  0  0  0  0  0
  -25.0085  -27.5624   20.6056 C   0  0  0  0  0  0  0  0  0  0  0  0
  -30.0330  -24.6174   22.9004 C   0  0  0  0  0  0  0  0  0  0  0  0
  -28.3917  -22.9286   22.3606 C   0  0  0  0  0  0  0  0  0  0  0  0
  -25.3790  -11.5121   20.8244 C   0  0  0  0  0  0  0  0  0  0  0  0
  -27.2757  -27.6559   19.7333 C   0  0  0  0  0  0  0  0  0  0  0  0
  -24.2791   -9.4356   20.8448 C   0  0  0  0  0  0  0  0  0  0  0  0
  -21.8991   -7.9876   20.9915 C   0  0  0  0  0  0  0  0  0  0  0  0
  -29.5266  -24.6948   24.1979 C   0  0  0  0  0  0  0  0  0  0  0  0
  -23.9108   -8.5912   19.7974 C   0  0  0  0  0  0  0  0  0  0  0  0
  -25.1270  -15.7322   20.9830 C   0  0  0  0  0  0  0  0  0  0  0  0
  -24.6180  -17.8048   21.5124 C   0  0  0  0  0  0  0  0  0  0  0  0
  -31.4580  -26.3255   20.1300 C   0  0  0  0  0  0  0  0  0  0  0  0
  -23.4654  -16.0857   22.9141 C   0  0  0  0  0  0  0  0  0  0  0  0
  -23.0770  -29.5115   22.6301 C   0  0  0  0  0  0  0  0  0  0  0  0
  -21.4932  -26.7783   21.8927 C   0  0  0  0  0  0  0  0  0  0  0  0
  -22.3465  -23.4761   20.7159 C   0  0  0  0  0  0  0  0  0  0  0  0
  -28.1972  -21.8300   20.1020 C   0  0  0  0  0  0  0  0  0  0  0  0
  -21.8909  -34.1800   24.3202 C   0  0  0  0  0  0  0  0  0  0  0  0
  -23.3695  -29.4199   20.1277 C   0  0  0  0  0  0  0  0  0  0  0  0
  -23.9670  -26.8175   21.3987 C   0  0  0  0  0  0  0  0  0  0  0  0
  -30.8810  -27.4717   19.3314 C   0  0  0  0  0  0  0  0  0  0  0  0
  -21.2620  -32.7923   24.4146 C   0  0  0  0  0  0  0  0  0  0  0  0
  -27.0559  -19.6887   17.4963 C   0  0  0  0  0  0  0  0  0  0  0  0
  -22.3019  -31.7631   24.8463 C   0  0  0  0  0  0  0  0  0  0  0  0
  -26.3885  -18.5321   18.2439 C   0  0  0  0  0  0  0  0  0  0  0  0
  -28.2950  -20.1984   18.2303 C   0  0  0  0  0  0  0  0  0  0  0  0
  -27.4124  -19.3972   20.3863 C   0  0  0  0  0  0  0  0  0  0  0  0
  -29.8974  -27.4254   21.5294 C   0  0  0  0  0  0  0  0  0  0  0  0
  -23.4392  -31.6651   23.8224 C   0  0  1  0  0  0  0  0  0  0  0  0
  -22.5881  -28.9193   21.3386 C   0  0  1  0  0  0  0  0  0  0  0  0
  -26.1227  -18.8929   19.7186 C   0  0  2  0  0  0  0  0  0  0  0  0
  -29.6155  -27.8453   20.0986 C   0  0  2  0  0  0  0  0  0  1  0  0
  -21.0024  -21.8153   19.3996 C   0  0  0  0  0  0  0  0  0  0  0  0
  -20.7574  -25.6424   24.6274 C   0  0  0  0  0  0  0  0  0  0  0  0
  -20.9036  -23.3480   23.6362 C   0  0  0  0  0  0  0  0  0  0  0  0
  -19.2201  -24.9732   22.7718 C   0  0  0  0  0  0  0  0  0  0  0  0
  -24.4285  -23.2760   18.6221 C   0  0  0  0  0  0  0  0  0  0  0  0
  -31.1895  -25.4828   22.4909 C   0  0  0  0  0  0  0  0  0  0  0  0
  -21.6661  -25.3176   22.2326 C   0  0  1  0  0  0  0  0  0  0  0  0
  -22.0655  -22.9011   19.3394 C   0  0  2  0  0  0  0  0  0  0  0  0
  -20.6590  -24.8380   23.3158 C   0  0  0  0  0  0  0  0  0  0  0  0
  -25.8352  -16.4787   20.1314 N   0  0  0  0  0  0  0  0  0  0  0  0
  -25.5043  -17.7342   20.4782 N   0  0  0  0  0  0  0  0  0  0  0  0
  -30.8516  -26.3490   21.3819 N   0  0  0  0  0  0  0  0  0  0  0  0
  -22.6471  -27.4637   21.4870 N   0  0  0  0  0  0  0  0  0  0  0  0
  -27.9663  -20.5243   19.6197 N   0  0  0  0  0  0  0  0  0  0  0  0
  -24.1794  -18.9898   21.9878 N   0  0  0  0  0  0  0  0  0  0  0  0
  -23.3059  -14.7124   23.1440 N   0  0  0  0  0  0  0  0  0  0  0  0
  -27.8155  -22.0308   21.4281 N   0  0  0  0  0  0  0  0  0  0  0  0
  -23.0197  -30.8915   22.6736 N   0  0  0  0  0  0  0  0  0  0  0  0
  -21.5768  -24.5915   20.9704 N   0  0  0  0  0  0  0  0  0  0  0  0
  -23.3063  -22.3125   18.7608 N   0  3  0  0  0  0  0  0  0  0  0  0
  -32.3297  -25.5695   19.7268 O   0  0  0  0  0  0  0  0  0  0  0  0
  -22.8223  -16.9041   23.6142 O   0  0  0  0  0  0  0  0  0  0  0  0
  -23.4751  -28.7712   23.5218 O   0  0  0  0  0  0  0  0  0  0  0  0
  -20.3742  -27.2905   21.9770 O   0  0  0  0  0  0  0  0  0  0  0  0
  -23.1641  -22.9828   21.4897 O   0  0  0  0  0  0  0  0  0  0  0  0
  -28.6716  -22.7130   19.3827 O   0  0  0  0  0  0  0  0  0  0  0  0
  -25.4605  -10.1544   20.7738 O   0  0  0  0  0  0  0  0  0  0  0  0
  -28.5097  -27.0972   19.6032 O   0  0  0  0  0  0  0  0  0  1  0  0
  -20.7570   -7.2913   21.0628 F   0  0  0  0  0  0  0  0  0  0  0  0
  -30.0644  -25.5410   25.0872 F   0  0  0  0  0  0  0  0  0  0  0  0
  -24.6966   -8.4705   18.7187 F   0  0  0  0  0  0  0  0  0  0  0  0
  1  2  1  0  0  0  0
  1  5  2  0  0  0  0
  2  6  2  0  0  0  0
  3  9  2  0  0  0  0
  3 18  1  0  0  0  0
  4 10  1  0  0  0  0
  4 18  2  0  0  0  0
  5 20  1  0  0  0  0
  6 22  1  0  0  0  0
  7 11  2  0  0  0  0
  7 21  1  0  0  0  0
  8 13  2  0  0  0  0
  8 25  1  0  0  0  0
  9 26  1  0  0  0  0
 10 26  2  0  0  0  0
 11 27  1  0  0  0  0
 12 14  2  0  0  0  0
 12 28  1  0  0  0  0
 13 30  1  0  0  0  0
 14 29  1  0  0  0  0
 15 23  1  0  0  0  0
 15 27  2  0  0  0  0
 16 24  1  0  0  0  0
 16 25  2  0  0  0  0
 17 29  2  0  0  0  0
 17 31  1  0  0  0  0
 18 32  1  0  0  0  0
 19 32  1  0  0  0  0
 19 33  2  0  0  0  0
 19 35  1  0  0  0  0
 20 22  2  0  0  0  0
 20 40  1  0  0  0  0
 21 23  2  0  0  0  0
 21 41  1  0  0  0  0
 22 51  1  0  0  0  0
 23 42  1  0  0  0  0
 24 30  2  0  0  0  0
 24 60  1  0  0  0  0
 25 71  1  0  0  0  0
 26 81  1  0  0  0  0
 27 82  1  0  0  0  0
 28 31  2  0  0  0  0
 28 81  1  0  0  0  0
 29 83  1  0  0  0  0
 30 84  1  0  0  0  0
 31 85  1  0  0  0  0
 32 64  2  0  0  0  0
 33 65  1  0  0  0  0
 33 69  1  0  0  0  0
 34 43  1  0  0  0  0
 34 66  1  0  0  0  0
 34 75  2  0  0  0  0
 35 70  1  0  0  0  0
 35 76  2  0  0  0  0
 36 52  1  0  0  0  0
 36 72  1  0  0  0  0
 36 77  2  0  0  0  0
 37 61  1  0  0  0  0
 37 67  1  0  0  0  0
 37 78  2  0  0  0  0
 38 62  1  0  0  0  0
 38 73  1  0  0  0  0
 38 79  2  0  0  0  0
 39 68  1  0  0  0  0
 39 71  1  0  0  0  0
 39 80  2  0  0  0  0
 40 44  1  0  0  0  0
 41 52  1  0  0  0  0
 42 67  1  0  0  0  0
 43 54  1  0  0  0  0
 44 46  1  0  0  0  0
 45 47  1  0  0  0  0
 45 48  1  0  0  0  0
 46 51  1  0  0  0  0
 47 53  1  0  0  0  0
 48 68  1  0  0  0  0
 49 53  1  0  0  0  0
 49 68  1  0  0  0  0
 50 54  1  0  0  0  0
 50 66  1  0  0  0  0
 51 72  1  0  0  0  0
 52 67  1  0  0  0  0
 53 65  1  0  0  0  0
 54 82  1  0  0  0  0
 55 62  1  0  0  0  0
 56 63  1  0  0  0  0
 57 63  1  0  0  0  0
 58 63  1  0  0  0  0
 59 74  1  0  0  0  0
 60 66  1  0  0  0  0
 61 63  1  0  0  0  0
 61 73  1  0  0  0  0
 62 74  1  0  0  0  0
 64 65  1  0  0  0  0
M  CHG  1  74   1
M  ISO  4  39 100  54 101  71 100  82 101
M  END
> <Batch ID>
0028

> <Smiles>
CNC(C)C(=O)NC(C(=O)N1Cc2cc([101O:1][101CH:1]3CC(=O)N(Cc4cc([100NH:0][100C:0](=O)N5CCCC(n6nc(-c7ccc(Oc8ccc(F)cc8F)cc7)c(C(N)=O)c6N)C5)ccc4F)C3)ccc2CC1C(=O)NC1CCCc2ccccc21)C(C)(C)C

> <Shape>
0.235

> <Color>
0.102

> <Negative vol penalty>
0.000

$$$$

  -OEChem-04042321313D

 87 96  0     1  0  0  0  0  0999 V2000
  -24.1113  -31.4402   21.7388 C   0  0  0  0  0  0  0  0  0  0  0  0
  -23.4058  -30.2483   21.6082 C   0  0  0  0  0  0  0  0  0  0  0  0
  -30.3801  -10.9326   16.8416 C   0  0  0  0  0  0  0  0  0  0  0  0
  -29.2034  -12.8946   16.0651 C   0  0  0  0  0  0  0  0  0  0  0  0
  -25.3618  -31.5782   21.1378 C   0  0  0  0  0  0  0  0  0  0  0  0
  -23.9499  -29.1940   20.8756 C   0  0  0  0  0  0  0  0  0  0  0  0
  -23.3324  -23.2098   22.0217 C   0  0  0  0  0  0  0  0  0  0  0  0
  -21.1364  -13.8990   20.9226 C   0  0  0  0  0  0  0  0  0  0  0  0
  -30.6624  -10.5795   15.5221 C   0  0  0  0  0  0  0  0  0  0  0  0
  -29.4857  -12.5416   14.7455 C   0  0  0  0  0  0  0  0  0  0  0  0
  -22.4890  -22.2351   21.4903 C   0  0  0  0  0  0  0  0  0  0  0  0
  -29.5868  -11.9675   11.1580 C   0  0  0  0  0  0  0  0  0  0  0  0
  -19.9617  -14.5134   20.4889 C   0  0  0  0  0  0  0  0  0  0  0  0
  -28.5513  -12.0553   10.2276 C   0  0  0  0  0  0  0  0  0  0  0  0
  -24.2283  -21.5761   19.9541 C   0  0  0  0  0  0  0  0  0  0  0  0
  -27.2661  -10.4592   11.5075 C   0  0  0  0  0  0  0  0  0  0  0  0
  -29.6506  -12.0901   17.1131 C   0  0  0  0  0  0  0  0  0  0  0  0
  -30.1390  -13.2602   19.3267 C   0  0  0  0  0  0  0  0  0  0  0  0
  -25.9258  -30.5217   20.4055 C   0  0  0  0  0  0  0  0  0  0  0  0
  -24.6286  -23.3825   21.5150 C   0  0  0  0  0  0  0  0  0  0  0  0
  -25.2085  -29.3185   20.2630 C   0  0  0  0  0  0  0  0  0  0  0  0
  -25.0871  -22.5520   20.4825 C   0  0  0  0  0  0  0  0  0  0  0  0
  -22.4391  -15.5677   19.7582 C   0  0  0  0  0  0  0  0  0  0  0  0
  -22.3752  -14.4262   20.5573 C   0  0  0  0  0  0  0  0  0  0  0  0
  -21.2643  -16.1820   19.3244 C   0  0  0  0  0  0  0  0  0  0  0  0
  -30.2152  -11.3840   14.4740 C   0  0  0  0  0  0  0  0  0  0  0  0
  -22.9358  -21.4200   20.4544 C   0  0  0  0  0  0  0  0  0  0  0  0
  -29.4620  -11.1255   12.2631 C   0  0  0  0  0  0  0  0  0  0  0  0
  -27.3909  -11.3012   10.4024 C   0  0  0  0  0  0  0  0  0  0  0  0
  -20.0256  -15.6548   19.6898 C   0  0  0  0  0  0  0  0  0  0  0  0
  -28.3017  -10.3714   12.4378 C   0  0  0  0  0  0  0  0  0  0  0  0
  -29.3582  -12.4550   18.4760 C   0  0  0  0  0  0  0  0  0  0  0  0
  -29.4320  -13.3030   20.5034 C   0  0  0  0  0  0  0  0  0  0  0  0
  -31.3915  -13.9114   19.0756 C   0  0  0  0  0  0  0  0  0  0  0  0
  -26.1775  -25.7576   20.0785 C   0  0  0  0  0  0  0  0  0  0  0  0
  -28.7150  -23.7575   20.3669 C   0  0  0  0  0  0  0  0  0  0  0  0
  -29.8602  -20.5609   20.7091 C   0  0  0  0  0  0  0  0  0  0  0  0
  -23.6389  -12.6438   21.8113 C   0  0  0  0  0  0  0  0  0  0  0  0
  -27.2595  -30.7343   19.7342 C   0  0  0  0  0  0  0  0  0  0  0  0
  -25.5354  -24.4206   22.1172 C   0  0  0  0  0  0  0  0  0  0  0  0
  -26.4768  -22.6834   19.9170 C   0  0  0  0  0  0  0  0  0  0  0  0
  -27.9310  -29.4377   19.2890 C   0  0  0  0  0  0  0  0  0  0  0  0
  -25.8286  -16.3250   18.3981 C   0  0  0  0  0  0  0  0  0  0  0  0
  -25.5362  -17.5720   19.2079 C   0  0  0  0  0  0  0  0  0  0  0  0
  -26.3467  -10.7338   23.1139 C   0  0  0  0  0  0  0  0  0  0  0  0
  -26.9310  -28.5387   18.5687 C   0  0  0  0  0  0  0  0  0  0  0  0
  -27.4990  -11.0364   22.1533 C   0  0  0  0  0  0  0  0  0  0  0  0
  -24.4417  -15.7292   18.1849 C   0  0  0  0  0  0  0  0  0  0  0  0
  -24.4345  -17.1081   20.1539 C   0  0  0  0  0  0  0  0  0  0  0  0
  -25.0071  -10.6502   22.3842 C   0  0  0  0  0  0  0  0  0  0  0  0
  -25.8362  -12.1135   20.5841 C   0  0  0  0  0  0  0  0  0  0  0  0
  -25.7763  -28.1433   19.4971 C   0  0  1  0  0  0  0  0  0  0  0  0
  -26.6570  -24.8517   21.1773 C   0  0  1  0  0  0  0  0  0  0  0  0
  -27.1969  -12.2716   21.2822 C   0  0  2  0  0  0  0  0  0  0  0  0
  -31.9854  -19.2373   20.8786 C   0  0  0  0  0  0  0  0  0  0  0  0
  -29.1579  -24.0890   17.3662 C   0  0  0  0  0  0  0  0  0  0  0  0
  -30.6341  -22.0679   17.4314 C   0  0  0  0  0  0  0  0  0  0  0  0
  -31.2494  -24.1024   18.7372 C   0  0  0  0  0  0  0  0  0  0  0  0
  -29.1511  -19.5475   23.3978 C   0  0  0  0  0  0  0  0  0  0  0  0
  -20.9630  -19.6722   17.9842 C   0  0  0  0  0  0  0  0  0  0  0  0
  -20.4098  -18.4375   18.6853 C   0  0  0  0  0  0  0  0  0  0  0  0
  -22.2971  -20.1347   18.5581 C   0  0  0  0  0  0  0  0  0  1  0  0
  -29.3190  -22.6671   19.5152 C   0  0  1  0  0  0  0  0  0  0  0  0
  -30.8868  -19.9538   21.6482 C   0  0  2  0  0  0  0  0  0  0  0  0
  -30.0632  -23.2302   18.2716 C   0  0  0  0  0  0  0  0  0  0  0  0
  -28.2407  -12.0176   19.0625 N   0  0  0  0  0  0  0  0  0  0  0  0
  -28.3143  -12.5498   20.2943 N   0  0  0  0  0  0  0  0  0  0  0  0
  -23.6894  -16.0999   19.3899 N   0  0  0  0  0  0  0  0  0  0  0  0
  -27.3236  -23.7172   20.5349 N   0  0  0  0  0  0  0  0  0  0  0  0
  -24.7870  -11.8562   21.5830 N   0  0  0  0  0  0  0  0  0  0  0  0
  -29.6635  -13.9109   21.6863 N   0  0  0  0  0  0  0  0  0  0  0  0
  -31.9800  -13.7634   17.8123 N   0  0  0  0  0  0  0  0  0  0  0  0
  -23.5531  -13.7833   21.0121 N   0  0  0  0  0  0  0  0  0  0  0  0
  -21.3064  -17.3175   18.5305 N   0  0  0  0  0  0  0  0  0  0  0  0
  -26.1948  -27.0995   20.4079 N   0  0  0  0  0  0  0  0  0  0  0  0
  -30.1586  -21.8722   20.4049 N   0  0  0  0  0  0  0  0  0  0  0  0
  -30.2365  -18.9726   22.5621 N   0  3  0  0  0  0  0  0  0  0  0  0
  -31.9796  -14.5905   19.9511 O   0  0  0  0  0  0  0  0  0  0  0  0
  -25.8198  -25.2749   19.0105 O   0  0  0  0  0  0  0  0  0  0  0  0
  -29.4514  -24.6093   20.8705 O   0  0  0  0  0  0  0  0  0  0  0  0
  -28.8924  -19.9333   20.2847 O   0  0  0  0  0  0  0  0  0  0  0  0
  -22.8077  -12.3450   22.6726 O   0  0  0  0  0  0  0  0  0  0  0  0
  -30.4907  -11.0400   13.1862 O   0  0  0  0  0  0  0  0  0  0  0  0
  -22.1143  -20.4684   19.9335 O   0  0  0  0  0  0  0  0  0  1  0  0
  -26.3959  -11.3868    9.5098 F   0  0  0  0  0  0  0  0  0  0  0  0
  -18.8895  -16.2372   19.2802 F   0  0  0  0  0  0  0  0  0  0  0  0
  -28.1756   -9.5616   13.4981 F   0  0  0  0  0  0  0  0  0  0  0  0
  1  2  1  0  0  0  0
  1  5  2  0  0  0  0
  2  6  2  0  0  0  0
  3  9  2  0  0  0  0
  3 17  1  0  0  0  0
  4 10  1  0  0  0  0
  4 17  2  0  0  0  0
  5 19  1  0  0  0  0
  6 21  1  0  0  0  0
  7 11  2  0  0  0  0
  7 20  1  0  0  0  0
  8 13  1  0  0  0  0
  8 24  2  0  0  0  0
  9 26  1  0  0  0  0
 10 26  2  0  0  0  0
 11 27  1  0  0  0  0
 12 14  2  0  0  0  0
 12 28  1  0  0  0  0
 13 30  2  0  0  0  0
 14 29  1  0  0  0  0
 15 22  1  0  0  0  0
 15 27  2  0  0  0  0
 16 29  2  0  0  0  0
 16 31  1  0  0  0  0
 17 32  1  0  0  0  0
 18 32  1  0  0  0  0
 18 33  2  0  0  0  0
 18 34  1  0  0  0  0
 19 21  2  0  0  0  0
 19 39  1  0  0  0  0
 20 22  2  0  0  0  0
 20 40  1  0  0  0  0
 21 52  1  0  0  0  0
 22 41  1  0  0  0  0
 23 24  1  0  0  0  0
 23 25  2  0  0  0  0
 23 68  1  0  0  0  0
 24 73  1  0  0  0  0
 25 30  1  0  0  0  0
 25 74  1  0  0  0  0
 26 83  1  0  0  0  0
 27 84  1  0  0  0  0
 28 31  2  0  0  0  0
 28 83  1  0  0  0  0
 29 85  1  0  0  0  0
 30 86  1  0  0  0  0
 31 87  1  0  0  0  0
 32 66  2  0  0  0  0
 33 67  1  0  0  0  0
 33 71  1  0  0  0  0
 34 72  1  0  0  0  0
 34 78  2  0  0  0  0
 35 53  1  0  0  0  0
 35 75  1  0  0  0  0
 35 79  2  0  0  0  0
 36 63  1  0  0  0  0
 36 69  1  0  0  0  0
 36 80  2  0  0  0  0
 37 64  1  0  0  0  0
 37 76  1  0  0  0  0
 37 81  2  0  0  0  0
 38 70  1  0  0  0  0
 38 73  1  0  0  0  0
 38 82  2  0  0  0  0
 39 42  1  0  0  0  0
 40 53  1  0  0  0  0
 41 69  1  0  0  0  0
 42 46  1  0  0  0  0
 43 44  1  0  0  0  0
 43 48  1  0  0  0  0
 44 49  1  0  0  0  0
 45 47  1  0  0  0  0
 45 50  1  0  0  0  0
 46 52  1  0  0  0  0
 47 54  1  0  0  0  0
 48 68  1  0  0  0  0
 49 68  1  0  0  0  0
 50 70  1  0  0  0  0
 51 54  1  0  0  0  0
 51 70  1  0  0  0  0
 52 75  1  0  0  0  0
 53 69  1  0  0  0  0
 54 67  1  0  0  0  0
 55 64  1  0  0  0  0
 56 65  1  0  0  0  0
 57 65  1  0  0  0  0
 58 65  1  0  0  0  0
 59 77  1  0  0  0  0
 60 61  1  0  0  0  0
 60 62  1  0  0  0  0
 61 74  1  0  0  0  0
 62 84  1  0  0  0  0
 63 65  1  0  0  0  0
 63 76  1  0  0  0  0
 64 77  1  0  0  0  0
 66 67  1  0  0  0  0
M  CHG  1  77   1
M  ISO  4  38 100  62 101  73 100  84 101
M  END
> <Batch ID>
0028

> <Smiles>
CNC(C)C(=O)NC(C(=O)N1Cc2cc([101O:1][101CH2:1]CCNc3c(F)ccc([100NH:0][100C:0](=O)N4CCCC(n5nc(-c6ccc(Oc7ccc(F)cc7F)cc6)c(C(N)=O)c5N)C4)c3N3CCCC3)ccc2CC1C(=O)NC1CCCc2ccccc21)C(C)(C)C

> <Shape>
0.208

> <Color>
0.070

> <Negative vol penalty>
0.000

$$$$

  -OEChem-04042321313D

 86 95  0     1  0  0  0  0  0999 V2000
  -22.0156  -25.3471   11.4127 C   0  0  0  0  0  0  0  0  0  0  0  0
  -22.5611  -24.7816   12.5608 C   0  0  0  0  0  0  0  0  0  0  0  0
  -31.1147  -23.1746   20.8875 C   0  0  0  0  0  0  0  0  0  0  0  0
  -26.1692  -13.3974   19.4313 C   0  0  0  0  0  0  0  0  0  0  0  0
  -26.3848  -12.6063   21.7039 C   0  0  0  0  0  0  0  0  0  0  0  0
  -21.8418  -26.7282   11.3323 C   0  0  0  0  0  0  0  0  0  0  0  0
  -22.9342  -25.5969   13.6287 C   0  0  0  0  0  0  0  0  0  0  0  0
  -21.4317  -23.7521   18.0990 C   0  0  0  0  0  0  0  0  0  0  0  0
  -30.7487  -22.0901   21.6847 C   0  0  0  0  0  0  0  0  0  0  0  0
  -24.9266  -12.7717   19.3314 C   0  0  0  0  0  0  0  0  0  0  0  0
  -25.1421  -11.9806   21.6040 C   0  0  0  0  0  0  0  0  0  0  0  0
  -22.1816  -22.7098   18.6422 C   0  0  0  0  0  0  0  0  0  0  0  0
  -23.8811   -9.1455   20.2614 C   0  0  0  0  0  0  0  0  0  0  0  0
  -30.4217  -23.4369   19.7057 C   0  0  0  0  0  0  0  0  0  0  0  0
  -23.7712   -7.8419   20.7452 C   0  0  0  0  0  0  0  0  0  0  0  0
  -23.3074  -24.2803   20.0861 C   0  0  0  0  0  0  0  0  0  0  0  0
  -22.0800   -8.5658   22.3114 C   0  0  0  0  0  0  0  0  0  0  0  0
  -26.8984  -13.3146   20.6176 C   0  0  0  0  0  0  0  0  0  0  0  0
  -29.3226  -13.7165   19.9324 C   0  0  0  0  0  0  0  0  0  0  0  0
  -22.2040  -27.5599   12.4035 C   0  0  0  0  0  0  0  0  0  0  0  0
  -21.6221  -25.0701   18.5383 C   0  0  0  0  0  0  0  0  0  0  0  0
  -22.7664  -26.9905   13.5619 C   0  0  0  0  0  0  0  0  0  0  0  0
  -22.5569  -25.3372   19.5487 C   0  0  0  0  0  0  0  0  0  0  0  0
  -28.9967  -21.5299   20.1182 C   0  0  0  0  0  0  0  0  0  0  0  0
  -29.6898  -21.2678   21.3000 C   0  0  0  0  0  0  0  0  0  0  0  0
  -24.4130  -12.0633   20.4177 C   0  0  0  0  0  0  0  0  0  0  0  0
  -23.1216  -22.9742   19.6338 C   0  0  0  0  0  0  0  0  0  0  0  0
  -23.0906  -10.1593   20.8026 C   0  0  0  0  0  0  0  0  0  0  0  0
  -22.8706   -7.5520   21.7702 C   0  0  0  0  0  0  0  0  0  0  0  0
  -29.3627  -22.6145   19.3210 C   0  0  0  0  0  0  0  0  0  0  0  0
  -22.1900   -9.8695   21.8275 C   0  0  0  0  0  0  0  0  0  0  0  0
  -28.1823  -13.9602   20.7213 C   0  0  0  0  0  0  0  0  0  0  0  0
  -30.2713  -14.5792   20.4245 C   0  0  0  0  0  0  0  0  0  0  0  0
  -29.5076  -12.7930   18.8514 C   0  0  0  0  0  0  0  0  0  0  0  0
  -22.5672  -27.7773   17.1667 C   0  0  0  0  0  0  0  0  0  0  0  0
  -21.7926  -29.0514   20.0475 C   0  0  0  0  0  0  0  0  0  0  0  0
  -21.3327  -28.5776   23.3957 C   0  0  0  0  0  0  0  0  0  0  0  0
  -29.9361  -19.7917   23.3266 C   0  0  0  0  0  0  0  0  0  0  0  0
  -22.0410  -29.0516   12.2517 C   0  0  0  0  0  0  0  0  0  0  0  0
  -20.7863  -26.1795   17.9612 C   0  0  0  0  0  0  0  0  0  0  0  0
  -22.7849  -26.7319   20.0695 C   0  0  0  0  0  0  0  0  0  0  0  0
  -22.1151  -29.8102   13.5744 C   0  0  0  0  0  0  0  0  0  0  0  0
  -31.5584  -16.8287   24.4516 C   0  0  0  0  0  0  0  0  0  0  0  0
  -27.1918  -18.4750   19.0073 C   0  0  0  0  0  0  0  0  0  0  0  0
  -23.3015  -29.3259   14.4018 C   0  0  0  0  0  0  0  0  0  0  0  0
  -30.9850  -15.7356   23.5469 C   0  0  0  0  0  0  0  0  0  0  0  0
  -25.7832  -19.0261   18.8085 C   0  0  0  0  0  0  0  0  0  0  0  0
  -28.2518  -19.5628   18.8655 C   0  0  0  0  0  0  0  0  0  0  0  0
  -30.5080  -17.8795   24.8070 C   0  0  0  0  0  0  0  0  0  0  0  0
  -29.2399  -17.3828   22.7541 C   0  0  0  0  0  0  0  0  0  0  0  0
  -26.5952  -21.3031   19.5509 C   0  0  0  0  0  0  0  0  0  0  0  0
  -23.1605  -27.8394   14.7511 C   0  0  1  0  0  0  0  0  0  0  0  0
  -21.4271  -27.5549   18.1197 C   0  0  1  0  0  0  0  0  0  0  0  0
  -30.2776  -16.3363   22.3163 C   0  0  2  0  0  0  0  0  0  0  0  0
  -25.4895  -20.2353   19.7202 C   0  0  2  0  0  0  0  0  0  0  0  0
  -25.3963  -19.7976   21.1959 C   0  0  0  0  0  0  0  0  0  0  0  0
  -20.7392  -29.8143   25.4971 C   0  0  0  0  0  0  0  0  0  0  0  0
  -24.5969  -30.2510   20.1307 C   0  0  0  0  0  0  0  0  0  0  0  0
  -24.2819  -30.6407   22.5836 C   0  0  0  0  0  0  0  0  0  0  0  0
  -22.7862  -31.7743   20.9403 C   0  0  0  0  0  0  0  0  0  0  0  0
  -18.9210  -26.9179   23.8294 C   0  0  0  0  0  0  0  0  0  0  0  0
  -24.1348  -20.8461   19.3166 C   0  0  0  0  0  0  0  0  0  1  0  0
  -22.5292  -29.2916   21.3431 C   0  0  1  0  0  0  0  0  0  0  0  0
  -20.2107  -28.9980   24.3278 C   0  0  2  0  0  0  0  0  0  0  0  0
  -23.5459  -30.4633   21.2385 C   0  0  0  0  0  0  0  0  0  0  0  0
  -28.3861  -14.9037   21.6445 N   0  0  0  0  0  0  0  0  0  0  0  0
  -29.6654  -15.2604   21.4389 N   0  0  0  0  0  0  0  0  0  0  0  0
  -27.9313  -20.7160   19.7154 N   0  0  2  0  0  0  0  0  0  0  0  0
  -21.9477  -27.7837   19.4691 N   0  0  0  0  0  0  0  0  0  0  0  0
  -29.8833  -18.4069   23.5919 N   0  0  0  0  0  0  0  0  0  0  0  0
  -31.5564  -14.8139   20.0842 N   0  0  0  0  0  0  0  0  0  0  0  0
  -29.9626  -11.5008   19.1472 N   0  0  0  0  0  0  0  0  0  0  0  0
  -29.3368  -20.1721   22.1263 N   0  0  0  0  0  0  0  0  0  0  0  0
  -22.2177  -27.6622   15.8347 N   0  0  0  0  0  0  0  0  0  0  0  0
  -21.5057  -29.4781   22.3660 N   0  0  0  0  0  0  0  0  0  0  0  0
  -19.5109  -27.7991   24.8698 N   0  3  0  0  0  0  0  0  0  0  0  0
  -29.2919  -13.1095   17.6570 O   0  0  0  0  0  0  0  0  0  0  0  0
  -23.6812  -28.0358   17.6071 O   0  0  0  0  0  0  0  0  0  0  0  0
  -21.0992  -29.9530   19.5699 O   0  0  0  0  0  0  0  0  0  0  0  0
  -21.9923  -27.5547   23.5663 O   0  0  0  0  0  0  0  0  0  0  0  0
  -30.4972  -20.5785   24.0936 O   0  0  0  0  0  0  0  0  0  0  0  0
  -23.2004  -11.4529   20.3206 O   0  0  0  0  0  0  0  0  0  0  0  0
  -23.8554  -21.9588   20.1653 O   0  0  0  0  0  0  0  0  0  1  0  0
  -22.7639   -6.2998   22.2336 F   0  0  0  0  0  0  0  0  0  0  0  0
  -28.7042  -22.8766   18.1830 F   0  0  0  0  0  0  0  0  0  0  0  0
  -21.4270  -10.8391   22.3506 F   0  0  0  0  0  0  0  0  0  0  0  0
  1  2  1  0  0  0  0
  1  6  2  0  0  0  0
  2  7  2  0  0  0  0
  3  9  2  0  0  0  0
  3 14  1  0  0  0  0
  4 10  2  0  0  0  0
  4 18  1  0  0  0  0
  5 11  1  0  0  0  0
  5 18  2  0  0  0  0
  6 20  1  0  0  0  0
  7 22  1  0  0  0  0
  8 12  2  0  0  0  0
  8 21  1  0  0  0  0
  9 25  1  0  0  0  0
 10 26  1  0  0  0  0
 11 26  2  0  0  0  0
 12 27  1  0  0  0  0
 13 15  2  0  0  0  0
 13 28  1  0  0  0  0
 14 30  2  0  0  0  0
 15 29  1  0  0  0  0
 16 23  1  0  0  0  0
 16 27  2  0  0  0  0
 17 29  2  0  0  0  0
 17 31  1  0  0  0  0
 18 32  1  0  0  0  0
 19 32  1  0  0  0  0
 19 33  2  0  0  0  0
 19 34  1  0  0  0  0
 20 22  2  0  0  0  0
 20 39  1  0  0  0  0
 21 23  2  0  0  0  0
 21 40  1  0  0  0  0
 22 52  1  0  0  0  0
 23 41  1  0  0  0  0
 24 25  2  0  0  0  0
 24 30  1  0  0  0  0
 24 68  1  0  0  0  0
 25 73  1  0  0  0  0
 26 82  1  0  0  0  0
 27 83  1  0  0  0  0
 28 31  2  0  0  0  0
 28 82  1  0  0  0  0
 29 84  1  0  0  0  0
 30 85  1  0  0  0  0
 31 86  1  0  0  0  0
 32 66  2  0  0  0  0
 33 67  1  0  0  0  0
 33 71  1  0  0  0  0
 34 72  1  0  0  0  0
 34 77  2  0  0  0  0
 35 53  1  0  0  0  0
 35 74  1  0  0  0  0
 35 78  2  0  0  0  0
 36 63  1  0  0  0  0
 36 69  1  0  0  0  0
 36 79  2  0  0  0  0
 37 64  1  0  0  0  0
 37 75  1  0  0  0  0
 37 80  2  0  0  0  0
 38 70  1  0  0  0  0
 38 73  1  0  0  0  0
 38 81  2  0  0  0  0
 39 42  1  0  0  0  0
 40 53  1  0  0  0  0
 41 69  1  0  0  0  0
 42 45  1  0  0  0  0
 43 46  1  0  0  0  0
 43 49  1  0  0  0  0
 44 47  1  0  0  0  0
 44 48  1  0  0  0  0
 45 52  1  0  0  0  0
 46 54  1  0  0  0  0
 47 55  1  0  0  0  0
 48 68  1  0  0  0  0
 49 70  1  0  0  0  0
 50 54  1  0  0  0  0
 50 70  1  0  0  0  0
 51 55  1  0  0  0  0
 51 68  1  0  0  0  0
 52 74  1  0  0  0  0
 53 69  1  0  0  0  0
 54 67  1  0  0  0  0
 55 56  1  0  0  0  0
 55 62  1  0  0  0  0
 57 64  1  0  0  0  0
 58 65  1  0  0  0  0
 59 65  1  0  0  0  0
 60 65  1  0  0  0  0
 61 76  1  0  0  0  0
 62 83  1  0  0  0  0
 63 65  1  0  0  0  0
 63 75  1  0  0  0  0
 64 76  1  0  0  0  0
 66 67  1  0  0  0  0
M  CHG  1  76   1
M  ISO  4  38 100  62 101  73 100  83 101
M  END
> <Batch ID>
0028

> <Smiles>
CNC(C)C(=O)NC(C(=O)N1Cc2cc([101O:1][101CH2:1]C3(C)CCCN(c4c(F)cccc4[100NH:0][100C:0](=O)N4CCCC(n5nc(-c6ccc(Oc7ccc(F)cc7F)cc6)c(C(N)=O)c5N)C4)C3)ccc2CC1C(=O)NC1CCCc2ccccc21)C(C)(C)C

> <Shape>
0.237

> <Color>
0.070

> <Negative vol penalty>
0.000

$$$$

  -OEChem-04042321313D

 87 96  0     1  0  0  0  0  0999 V2000
  -25.7139  -32.0463   17.6573 C   0  0  0  0  0  0  0  0  0  0  0  0
  -26.1860  -31.0596   18.5170 C   0  0  0  0  0  0  0  0  0  0  0  0
  -23.0061   -9.8190   19.9997 C   0  0  0  0  0  0  0  0  0  0  0  0
  -23.6810   -9.9648   22.3149 C   0  0  0  0  0  0  0  0  0  0  0  0
  -24.6066  -32.8126   18.0187 C   0  0  0  0  0  0  0  0  0  0  0  0
  -25.5516  -30.8394   19.7391 C   0  0  0  0  0  0  0  0  0  0  0  0
  -24.8508  -25.9180   20.7051 C   0  0  0  0  0  0  0  0  0  0  0  0
  -22.2329   -8.6965   20.2957 C   0  0  0  0  0  0  0  0  0  0  0  0
  -22.9077   -8.8422   22.6110 C   0  0  0  0  0  0  0  0  0  0  0  0
  -25.9539  -25.1941   21.1555 C   0  0  0  0  0  0  0  0  0  0  0  0
  -23.1592   -5.4867   22.2823 C   0  0  0  0  0  0  0  0  0  0  0  0
  -23.7292   -4.5013   23.0883 C   0  0  0  0  0  0  0  0  0  0  0  0
  -29.4700  -19.8818   23.4629 C   0  0  0  0  0  0  0  0  0  0  0  0
  -25.1408  -25.3751   23.4194 C   0  0  0  0  0  0  0  0  0  0  0  0
  -28.1067  -19.5509   21.4778 C   0  0  0  0  0  0  0  0  0  0  0  0
  -21.9695   -4.8130   24.7141 C   0  0  0  0  0  0  0  0  0  0  0  0
  -23.7302  -10.4531   21.0093 C   0  0  0  0  0  0  0  0  0  0  0  0
  -30.1810  -18.7358   23.1323 C   0  0  0  0  0  0  0  0  0  0  0  0
  -24.1216  -12.9594   20.7384 C   0  0  0  0  0  0  0  0  0  0  0  0
  -23.9524  -32.5952   19.2416 C   0  0  0  0  0  0  0  0  0  0  0  0
  -23.8884  -26.3860   21.6112 C   0  0  0  0  0  0  0  0  0  0  0  0
  -24.4353  -31.6044   20.1177 C   0  0  0  0  0  0  0  0  0  0  0  0
  -24.0251  -26.1025   22.9776 C   0  0  0  0  0  0  0  0  0  0  0  0
  -29.8561  -17.9963   21.9890 C   0  0  0  0  0  0  0  0  0  0  0  0
  -28.4258  -20.2858   22.6277 C   0  0  0  0  0  0  0  0  0  0  0  0
  -22.1837   -8.2081   21.6013 C   0  0  0  0  0  0  0  0  0  0  0  0
  -26.1006  -24.9251   22.5131 C   0  0  0  0  0  0  0  0  0  0  0  0
  -21.9943   -6.1353   22.6922 C   0  0  0  0  0  0  0  0  0  0  0  0
  -23.1344   -4.1644   24.3041 C   0  0  0  0  0  0  0  0  0  0  0  0
  -28.8271  -18.4016   21.1486 C   0  0  0  0  0  0  0  0  0  0  0  0
  -21.3994   -5.7985   23.9081 C   0  0  0  0  0  0  0  0  0  0  0  0
  -24.5296  -11.6124   20.7040 C   0  0  0  0  0  0  0  0  0  0  0  0
  -25.2397  -13.6663   20.3689 C   0  0  0  0  0  0  0  0  0  0  0  0
  -31.2960  -18.0845   23.8151 C   0  0  0  0  0  0  0  0  0  0  0  0
  -22.8460  -13.5212   21.0743 C   0  0  0  0  0  0  0  0  0  0  0  0
  -32.0157  -18.5827   24.8254 C   0  0  0  0  0  0  0  0  0  0  0  0
  -22.8282  -29.2556   22.4743 C   0  0  0  0  0  0  0  0  0  0  0  0
  -20.6818  -27.5201   24.1782 C   0  0  0  0  0  0  0  0  0  0  0  0
  -19.9050  -24.5726   25.7130 C   0  0  0  0  0  0  0  0  0  0  0  0
  -30.7302  -14.6102   20.6986 C   0  0  0  0  0  0  0  0  0  0  0  0
  -22.7882  -33.4805   19.6095 C   0  0  0  0  0  0  0  0  0  0  0  0
  -22.6903  -27.1424   21.1063 C   0  0  0  0  0  0  0  0  0  0  0  0
  -23.0093  -26.5651   23.9890 C   0  0  0  0  0  0  0  0  0  0  0  0
  -31.5228  -16.7499   23.1467 C   0  0  0  0  0  0  0  0  0  0  0  0
  -21.9443  -32.9315   20.7570 C   0  0  0  0  0  0  0  0  0  0  0  0
  -29.6387  -12.0921   18.4305 C   0  0  0  0  0  0  0  0  0  0  0  0
  -22.8387  -32.4572   21.8980 C   0  0  0  0  0  0  0  0  0  0  0  0
  -28.1812  -11.8498   18.8267 C   0  0  0  0  0  0  0  0  0  0  0  0
  -30.5147  -12.3770   19.6485 C   0  0  0  0  0  0  0  0  0  0  0  0
  -28.5766  -13.2270   20.9114 C   0  0  0  0  0  0  0  0  0  0  0  0
  -23.7590  -31.3189   21.4410 C   0  0  1  0  0  0  0  0  0  0  0  0
  -30.7891  -16.8360   21.7946 C   0  0  1  0  0  0  0  0  0  0  0  0
  -22.0385  -28.0125   22.1766 C   0  0  1  0  0  0  0  0  0  0  0  0
  -27.6436  -12.9906   19.7114 C   0  0  2  0  0  0  0  0  0  0  0  0
  -33.1463  -17.8174   25.4526 C   0  0  0  0  0  0  0  0  0  0  0  0
  -31.7435  -19.9421   25.4042 C   0  0  0  0  0  0  0  0  0  0  0  0
  -18.0949  -23.4673   27.0543 C   0  0  0  0  0  0  0  0  0  0  0  0
  -21.5358  -29.1115   26.6375 C   0  0  0  0  0  0  0  0  0  0  0  0
  -20.4370  -27.3691   28.0605 C   0  0  0  0  0  0  0  0  0  0  0  0
  -19.0739  -28.7097   26.4581 C   0  0  0  0  0  0  0  0  0  0  0  0
  -19.5073  -22.4746   23.6638 C   0  0  0  0  0  0  0  0  0  0  0  0
  -27.9557  -22.2483   24.0950 C   0  0  0  0  0  0  0  0  0  0  0  0
  -26.9958  -23.4258   24.1277 C   0  0  0  0  0  0  0  0  0  1  0  0
  -20.6426  -26.9369   25.5701 C   0  0  1  0  0  0  0  0  0  0  0  0
  -18.6578  -23.7087   25.6623 C   0  0  2  0  0  0  0  0  0  0  0  0
  -20.4427  -28.0246   26.6630 C   0  0  0  0  0  0  0  0  0  0  0  0
  -25.8071  -11.4697   20.3412 N   0  0  0  0  0  0  0  0  0  0  0  0
  -26.2115  -12.7361   20.1441 N   0  0  0  0  0  0  0  0  0  0  0  0
  -21.8587  -27.3064   23.4468 N   0  0  0  0  0  0  0  0  0  0  0  0
  -29.9505  -13.4699   20.4441 N   0  0  0  0  0  0  0  0  0  0  0  0
  -25.4766  -14.9867   20.2174 N   0  0  0  0  0  0  0  0  0  0  0  0
  -21.8062  -12.6520   21.4313 N   0  0  0  0  0  0  0  0  0  0  0  0
  -27.7001  -21.4246   22.9356 N   0  0  0  0  0  0  0  0  0  0  0  0
  -23.0271  -30.0720   21.3772 N   0  0  0  0  0  0  0  0  0  0  0  0
  -19.6071  -25.9094   25.5531 N   0  0  0  0  0  0  0  0  0  0  0  0
  -30.1172  -15.6015   21.4551 N   0  0  0  0  0  0  0  0  0  0  0  0
  -18.9672  -22.3880   25.0450 N   0  3  0  0  0  0  0  0  0  0  0  0
  -22.6300  -14.7565   21.0425 O   0  0  0  0  0  0  0  0  0  0  0  0
  -23.2262  -29.4599   23.6151 O   0  0  0  0  0  0  0  0  0  0  0  0
  -19.7014  -28.1363   23.7529 O   0  0  0  0  0  0  0  0  0  0  0  0
  -21.0304  -24.1085   25.8815 O   0  0  0  0  0  0  0  0  0  0  0  0
  -31.8851  -14.7378   20.2780 O   0  0  0  0  0  0  0  0  0  0  0  0
  -21.4291   -7.1129   21.8906 O   0  0  0  0  0  0  0  0  0  0  0  0
  -27.1768  -24.2193   22.9555 O   0  0  0  0  0  0  0  0  0  1  0  0
  -23.6811   -3.2170   25.0773 F   0  0  0  0  0  0  0  0  0  0  0  0
  -28.5313  -17.7162   20.0373 F   0  0  0  0  0  0  0  0  0  0  0  0
  -20.2796   -6.4173   24.3066 F   0  0  0  0  0  0  0  0  0  0  0  0
  1  2  1  0  0  0  0
  1  5  2  0  0  0  0
  2  6  2  0  0  0  0
  3  8  2  0  0  0  0
  3 17  1  0  0  0  0
  4  9  1  0  0  0  0
  4 17  2  0  0  0  0
  5 20  1  0  0  0  0
  6 22  1  0  0  0  0
  7 10  2  0  0  0  0
  7 21  1  0  0  0  0
  8 26  1  0  0  0  0
  9 26  2  0  0  0  0
 10 27  1  0  0  0  0
 11 12  2  0  0  0  0
 11 28  1  0  0  0  0
 12 29  1  0  0  0  0
 13 18  1  0  0  0  0
 13 25  2  0  0  0  0
 14 23  1  0  0  0  0
 14 27  2  0  0  0  0
 15 25  1  0  0  0  0
 15 30  2  0  0  0  0
 16 29  2  0  0  0  0
 16 31  1  0  0  0  0
 17 32  1  0  0  0  0
 18 24  2  0  0  0  0
 18 34  1  0  0  0  0
 19 32  1  0  0  0  0
 19 33  2  0  0  0  0
 19 35  1  0  0  0  0
 20 22  2  0  0  0  0
 20 41  1  0  0  0  0
 21 23  2  0  0  0  0
 21 42  1  0  0  0  0
 22 51  1  0  0  0  0
 23 43  1  0  0  0  0
 24 30  1  0  0  0  0
 24 52  1  0  0  0  0
 25 73  1  0  0  0  0
 26 83  1  0  0  0  0
 27 84  1  0  0  0  0
 28 31  2  0  0  0  0
 28 83  1  0  0  0  0
 29 85  1  0  0  0  0
 30 86  1  0  0  0  0
 31 87  1  0  0  0  0
 32 67  2  0  0  0  0
 33 68  1  0  0  0  0
 33 71  1  0  0  0  0
 34 36  2  0  0  0  0
 34 44  1  0  0  0  0
 35 72  1  0  0  0  0
 35 78  2  0  0  0  0
 36 55  1  0  0  0  0
 36 56  1  0  0  0  0
 37 53  1  0  0  0  0
 37 74  1  0  0  0  0
 37 79  2  0  0  0  0
 38 64  1  0  0  0  0
 38 69  1  0  0  0  0
 38 80  2  0  0  0  0
 39 65  1  0  0  0  0
 39 75  1  0  0  0  0
 39 81  2  0  0  0  0
 40 70  1  0  0  0  0
 40 76  1  0  0  0  0
 40 82  2  0  0  0  0
 41 45  1  0  0  0  0
 42 53  1  0  0  0  0
 43 69  1  0  0  0  0
 44 52  1  0  0  0  0
 45 47  1  0  0  0  0
 46 48  1  0  0  0  0
 46 49  1  0  0  0  0
 47 51  1  0  0  0  0
 48 54  1  0  0  0  0
 49 70  1  0  0  0  0
 50 54  1  0  0  0  0
 50 70  1  0  0  0  0
 51 74  1  0  0  0  0
 52 76  1  0  0  0  0
 53 69  1  0  0  0  0
 54 68  1  0  0  0  0
 57 65  1  0  0  0  0
 58 66  1  0  0  0  0
 59 66  1  0  0  0  0
 60 66  1  0  0  0  0
 61 77  1  0  0  0  0
 62 63  1  0  0  0  0
 62 73  1  0  0  0  0
 63 84  1  0  0  0  0
 64 66  1  0  0  0  0
 64 75  1  0  0  0  0
 65 77  1  0  0  0  0
 67 68  1  0  0  0  0
M  CHG  1  77   1
M  ISO  4  40 100  63 101  76 100  84 101
M  END
> <Batch ID>
0028

> <Smiles>
CNC(C)C(=O)NC(C(=O)N1Cc2cc([101O:1][101CH2:1]CNc3cc(F)c4c(c3)C(=C(C)C)CC4[100NH:0][100C:0](=O)N3CCCC(n4nc(-c5ccc(Oc6ccc(F)cc6F)cc5)c(C(N)=O)c4N)C3)ccc2CC1C(=O)NC1CCCc2ccccc21)C(C)(C)C

> <Shape>
0.263

> <Color>
0.206

> <Negative vol penalty>
0.000

$$$$

  -OEChem-04042321313D

 84 93  0     1  0  0  0  0  0999 V2000
  -20.7999  -33.1861   25.3556 C   0  0  0  0  0  0  0  0  0  0  0  0
  -22.0414  -32.7009   24.9574 C   0  0  0  0  0  0  0  0  0  0  0  0
  -25.1647  -13.9309   21.6377 C   0  0  0  0  0  0  0  0  0  0  0  0
  -25.9147  -13.1510   19.4775 C   0  0  0  0  0  0  0  0  0  0  0  0
  -19.6738  -32.3681   25.2731 C   0  0  0  0  0  0  0  0  0  0  0  0
  -22.1577  -31.3968   24.4774 C   0  0  0  0  0  0  0  0  0  0  0  0
  -25.9525  -29.4097   20.1005 C   0  0  0  0  0  0  0  0  0  0  0  0
  -30.7184  -22.0596   15.6386 C   0  0  0  0  0  0  0  0  0  0  0  0
  -24.6937  -12.6523   21.9358 C   0  0  0  0  0  0  0  0  0  0  0  0
  -25.4436  -11.8724   19.7756 C   0  0  0  0  0  0  0  0  0  0  0  0
  -27.1884  -28.7666   20.1516 C   0  0  0  0  0  0  0  0  0  0  0  0
  -21.9997  -10.7534   21.1867 C   0  0  0  0  0  0  0  0  0  0  0  0
  -31.7217  -22.5737   16.4600 C   0  0  0  0  0  0  0  0  0  0  0  0
  -20.7332  -10.6478   21.7614 C   0  0  0  0  0  0  0  0  0  0  0  0
  -26.0832  -26.6364   19.9070 C   0  0  0  0  0  0  0  0  0  0  0  0
  -29.0401  -22.9538   17.1288 C   0  0  0  0  0  0  0  0  0  0  0  0
  -21.7010   -9.5735   23.6969 C   0  0  0  0  0  0  0  0  0  0  0  0
  -25.7752  -14.1803   20.4085 C   0  0  0  0  0  0  0  0  0  0  0  0
  -27.5456  -16.0163   20.3593 C   0  0  0  0  0  0  0  0  0  0  0  0
  -19.7748  -31.0566   24.7828 C   0  0  0  0  0  0  0  0  0  0  0  0
  -24.7698  -28.6690   19.9630 C   0  0  0  0  0  0  0  0  0  0  0  0
  -21.0322  -30.5601   24.3895 C   0  0  0  0  0  0  0  0  0  0  0  0
  -24.8337  -27.2727   19.8519 C   0  0  0  0  0  0  0  0  0  0  0  0
  -29.3776  -22.2498   15.9730 C   0  0  0  0  0  0  0  0  0  0  0  0
  -30.0434  -23.4678   17.9503 C   0  0  0  0  0  0  0  0  0  0  0  0
  -24.8331  -11.6230   21.0048 C   0  0  0  0  0  0  0  0  0  0  0  0
  -27.2537  -27.3795   20.0578 C   0  0  0  0  0  0  0  0  0  0  0  0
  -23.1169  -10.2690   21.8670 C   0  0  0  0  0  0  0  0  0  0  0  0
  -20.5838  -10.0580   23.0165 C   0  0  0  0  0  0  0  0  0  0  0  0
  -31.3843  -23.2777   17.6159 C   0  0  0  0  0  0  0  0  0  0  0  0
  -22.9676   -9.6791   23.1221 C   0  0  0  0  0  0  0  0  0  0  0  0
  -26.2615  -15.5010   20.0997 C   0  0  0  0  0  0  0  0  0  0  0  0
  -27.5030  -17.3024   19.8792 C   0  0  0  0  0  0  0  0  0  0  0  0
  -28.6759  -15.3885   20.9789 C   0  0  0  0  0  0  0  0  0  0  0  0
  -22.1661  -28.2504   21.7376 C   0  0  0  0  0  0  0  0  0  0  0  0
  -21.1362  -26.6000   19.1419 C   0  0  0  0  0  0  0  0  0  0  0  0
  -21.9265  -24.8357   16.3295 C   0  0  0  0  0  0  0  0  0  0  0  0
  -26.0817  -20.9771   15.9267 C   0  0  0  0  0  0  0  0  0  0  0  0
  -18.5377  -30.1942   24.7566 C   0  0  0  0  0  0  0  0  0  0  0  0
  -23.4466  -29.3797   19.8827 C   0  0  0  0  0  0  0  0  0  0  0  0
  -23.5948  -26.4330   19.6828 C   0  0  0  0  0  0  0  0  0  0  0  0
  -18.6816  -28.9492   23.8851 C   0  0  0  0  0  0  0  0  0  0  0  0
  -23.5926  -20.1062   18.3188 C   0  0  0  0  0  0  0  0  0  0  0  0
  -20.0060  -28.2482   24.1700 C   0  0  0  0  0  0  0  0  0  0  0  0
  -24.1681  -18.8699   19.0120 C   0  0  0  0  0  0  0  0  0  0  0  0
  -29.8517  -25.1298   21.2368 C   0  0  0  0  0  0  0  0  0  0  0  0
  -23.9366  -20.1305   16.8312 C   0  0  0  0  0  0  0  0  0  0  0  0
  -30.6823  -24.7390   20.0145 C   0  0  0  0  0  0  0  0  0  0  0  0
  -25.9488  -18.7614   17.2186 C   0  0  0  0  0  0  0  0  0  0  0  0
  -28.3318  -24.4185   19.5216 C   0  0  0  0  0  0  0  0  0  0  0  0
  -21.1946  -29.1594   23.8402 C   0  0  1  0  0  0  0  0  0  0  0  0
  -22.2661  -28.4889   20.2575 C   0  0  1  0  0  0  0  0  0  0  0  0
  -25.6756  -18.7208   18.7319 C   0  0  2  0  0  0  0  0  0  0  0  0
  -28.4799  -25.4348   20.6530 C   0  0  2  0  0  0  0  0  0  1  0  0
  -20.8713  -23.5786   14.4312 C   0  0  0  0  0  0  0  0  0  0  0  0
  -20.5665  -24.2579   21.0127 C   0  0  0  0  0  0  0  0  0  0  0  0
  -20.4354  -22.7733   19.0010 C   0  0  0  0  0  0  0  0  0  0  0  0
  -18.8158  -24.6513   19.2707 C   0  0  0  0  0  0  0  0  0  0  0  0
  -23.0899  -26.6674   14.3170 C   0  0  0  0  0  0  0  0  0  0  0  0
  -28.3052  -21.6999   15.0944 C   0  0  0  0  0  0  0  0  0  0  0  0
  -21.2214  -25.1636   18.6853 C   0  0  1  0  0  0  0  0  0  0  0  0
  -21.4042  -24.9212   14.9068 C   0  0  2  0  0  0  0  0  0  0  0  0
  -20.2832  -24.2269   19.4976 C   0  0  0  0  0  0  0  0  0  0  0  0
  -25.4614  -16.3875   19.5013 N   0  0  0  0  0  0  0  0  0  0  0  0
  -26.2448  -17.4728   19.3810 N   0  0  0  0  0  0  0  0  0  0  0  0
  -29.7076  -24.1638   19.0926 N   0  0  3  0  0  0  0  0  0  0  0  0
  -22.3243  -27.1739   19.6160 N   0  0  0  0  0  0  0  0  0  0  0  0
  -25.3811  -19.9866   16.6344 N   0  0  0  0  0  0  0  0  0  0  0  0
  -28.4193  -18.2929   19.8389 N   0  0  0  0  0  0  0  0  0  0  0  0
  -28.5483  -14.0624   21.4141 N   0  0  0  0  0  0  0  0  0  0  0  0
  -21.4200  -29.1986   22.4112 N   0  0  0  0  0  0  0  0  0  0  0  0
  -20.9580  -25.1750   17.2504 N   0  0  0  0  0  0  0  0  0  0  0  0
  -27.4485  -20.7665   15.7911 N   0  0  0  0  0  0  0  0  0  0  0  0
  -22.4904  -25.3503   13.9811 N   0  3  0  0  0  0  0  0  0  0  0  0
  -29.7617  -15.9911   21.1565 O   0  0  0  0  0  0  0  0  0  0  0  0
  -22.7232  -27.2772   22.2318 O   0  0  0  0  0  0  0  0  0  0  0  0
  -20.0568  -27.1933   19.0734 O   0  0  0  0  0  0  0  0  0  0  0  0
  -23.0774  -24.4977   16.5974 O   0  0  0  0  0  0  0  0  0  0  0  0
  -25.5310  -21.9780   15.4556 O   0  0  0  0  0  0  0  0  0  0  0  0
  -24.3738  -10.3752   21.2954 O   0  0  0  0  0  0  0  0  0  0  0  0
  -28.4587  -26.7492   20.1080 O   0  0  0  0  0  0  0  0  0  1  0  0
  -19.3677   -9.9580   23.5690 F   0  0  0  0  0  0  0  0  0  0  0  0
  -32.3567  -23.7677   18.3979 F   0  0  0  0  0  0  0  0  0  0  0  0
  -24.0373   -9.2129   23.7811 F   0  0  0  0  0  0  0  0  0  0  0  0
  1  2  1  0  0  0  0
  1  5  2  0  0  0  0
  2  6  2  0  0  0  0
  3  9  2  0  0  0  0
  3 18  1  0  0  0  0
  4 10  1  0  0  0  0
  4 18  2  0  0  0  0
  5 20  1  0  0  0  0
  6 22  1  0  0  0  0
  7 11  2  0  0  0  0
  7 21  1  0  0  0  0
  8 13  2  0  0  0  0
  8 24  1  0  0  0  0
  9 26  1  0  0  0  0
 10 26  2  0  0  0  0
 11 27  1  0  0  0  0
 12 14  2  0  0  0  0
 12 28  1  0  0  0  0
 13 30  1  0  0  0  0
 14 29  1  0  0  0  0
 15 23  1  0  0  0  0
 15 27  2  0  0  0  0
 16 24  2  0  0  0  0
 16 25  1  0  0  0  0
 17 29  2  0  0  0  0
 17 31  1  0  0  0  0
 18 32  1  0  0  0  0
 19 32  1  0  0  0  0
 19 33  2  0  0  0  0
 19 34  1  0  0  0  0
 20 22  2  0  0  0  0
 20 39  1  0  0  0  0
 21 23  2  0  0  0  0
 21 40  1  0  0  0  0
 22 51  1  0  0  0  0
 23 41  1  0  0  0  0
 24 60  1  0  0  0  0
 25 30  2  0  0  0  0
 25 66  1  0  0  0  0
 26 80  1  0  0  0  0
 27 81  1  0  0  0  0
 28 31  2  0  0  0  0
 28 80  1  0  0  0  0
 29 82  1  0  0  0  0
 30 83  1  0  0  0  0
 31 84  1  0  0  0  0
 32 64  2  0  0  0  0
 33 65  1  0  0  0  0
 33 69  1  0  0  0  0
 34 70  1  0  0  0  0
 34 75  2  0  0  0  0
 35 52  1  0  0  0  0
 35 71  1  0  0  0  0
 35 76  2  0  0  0  0
 36 61  1  0  0  0  0
 36 67  1  0  0  0  0
 36 77  2  0  0  0  0
 37 62  1  0  0  0  0
 37 72  1  0  0  0  0
 37 78  2  0  0  0  0
 38 68  1  0  0  0  0
 38 73  1  0  0  0  0
 38 79  2  0  0  0  0
 39 42  1  0  0  0  0
 40 52  1  0  0  0  0
 41 67  1  0  0  0  0
 42 44  1  0  0  0  0
 43 45  1  0  0  0  0
 43 47  1  0  0  0  0
 44 51  1  0  0  0  0
 45 53  1  0  0  0  0
 46 48  1  0  0  0  0
 46 54  1  0  0  0  0
 47 68  1  0  0  0  0
 48 66  1  0  0  0  0
 49 53  1  0  0  0  0
 49 68  1  0  0  0  0
 50 54  1  0  0  0  0
 50 66  1  0  0  0  0
 51 71  1  0  0  0  0
 52 67  1  0  0  0  0
 53 65  1  0  0  0  0
 54 81  1  0  0  0  0
 55 62  1  0  0  0  0
 56 63  1  0  0  0  0
 57 63  1  0  0  0  0
 58 63  1  0  0  0  0
 59 74  1  0  0  0  0
 60 73  1  0  0  0  0
 61 63  1  0  0  0  0
 61 72  1  0  0  0  0
 62 74  1  0  0  0  0
 64 65  1  0  0  0  0
M  CHG  1  74   1
M  ISO  4  38 100  54 101  73 100  81 101
M  END
> <Batch ID>
0028

> <Smiles>
CNC(C)C(=O)NC(C(=O)N1Cc2cc([101O:1][101CH:1]3CCN(c4cc(C[100NH:0][100C:0](=O)N5CCCC(n6nc(-c7ccc(Oc8ccc(F)cc8F)cc7)c(C(N)=O)c6N)C5)ccc4F)C3)ccc2CC1C(=O)NC1CCCc2ccccc21)C(C)(C)C

> <Shape>
0.204

> <Color>
0.079

> <Negative vol penalty>
0.000

$$$$

  -OEChem-04042321313D

 85 94  0     1  0  0  0  0  0999 V2000
  -22.0806  -30.7230   15.2079 C   0  0  0  0  0  0  0  0  0  0  0  0
  -23.0461  -29.7391   15.3955 C   0  0  0  0  0  0  0  0  0  0  0  0
  -23.1183   -9.7981   20.7292 C   0  0  0  0  0  0  0  0  0  0  0  0
  -23.8196  -10.3779   22.9673 C   0  0  0  0  0  0  0  0  0  0  0  0
  -21.9481  -31.7541   16.1370 C   0  0  0  0  0  0  0  0  0  0  0  0
  -23.8804  -29.7863   16.5119 C   0  0  0  0  0  0  0  0  0  0  0  0
  -26.0968  -25.0209   19.6557 C   0  0  0  0  0  0  0  0  0  0  0  0
  -22.3794   -8.7298   21.2374 C   0  0  0  0  0  0  0  0  0  0  0  0
  -23.0807   -9.3096   23.4755 C   0  0  0  0  0  0  0  0  0  0  0  0
  -27.3270  -24.3656   19.6223 C   0  0  0  0  0  0  0  0  0  0  0  0
  -19.8461   -8.6336   24.1832 C   0  0  0  0  0  0  0  0  0  0  0  0
  -19.0601   -8.8697   25.3110 C   0  0  0  0  0  0  0  0  0  0  0  0
  -28.0862  -25.7092   21.4764 C   0  0  0  0  0  0  0  0  0  0  0  0
  -29.5793  -19.6143   20.9312 C   0  0  0  0  0  0  0  0  0  0  0  0
  -31.0992  -17.6725   19.6266 C   0  0  0  0  0  0  0  0  0  0  0  0
  -20.3009   -7.1908   26.5271 C   0  0  0  0  0  0  0  0  0  0  0  0
  -23.8385  -10.6222   21.5941 C   0  0  0  0  0  0  0  0  0  0  0  0
  -24.1591  -13.0462   20.8667 C   0  0  0  0  0  0  0  0  0  0  0  0
  -22.7746  -31.8086   17.2703 C   0  0  0  0  0  0  0  0  0  0  0  0
  -25.8556  -26.0345   20.5943 C   0  0  0  0  0  0  0  0  0  0  0  0
  -23.7596  -30.8199   17.4563 C   0  0  0  0  0  0  0  0  0  0  0  0
  -26.8513  -26.3740   21.5213 C   0  0  0  0  0  0  0  0  0  0  0  0
  -30.4958  -19.9897   19.9491 C   0  0  0  0  0  0  0  0  0  0  0  0
  -30.1827  -17.2972   20.6088 C   0  0  0  0  0  0  0  0  0  0  0  0
  -22.3606   -8.4856   22.6106 C   0  0  0  0  0  0  0  0  0  0  0  0
  -28.3229  -24.7117   20.5309 C   0  0  0  0  0  0  0  0  0  0  0  0
  -20.8595   -7.6760   24.2273 C   0  0  0  0  0  0  0  0  0  0  0  0
  -19.2875   -8.1483   26.4830 C   0  0  0  0  0  0  0  0  0  0  0  0
  -29.4227  -18.2680   21.2611 C   0  0  0  0  0  0  0  0  0  0  0  0
  -21.0869   -6.9547   25.3993 C   0  0  0  0  0  0  0  0  0  0  0  0
  -31.2557  -19.0188   19.2967 C   0  0  0  0  0  0  0  0  0  0  0  0
  -24.6024  -11.7255   21.0696 C   0  0  0  0  0  0  0  0  0  0  0  0
  -25.2529  -13.7008   20.3552 C   0  0  0  0  0  0  0  0  0  0  0  0
  -31.7994  -22.1505   19.7492 C   0  0  0  0  0  0  0  0  0  0  0  0
  -22.8735  -13.6290   21.1180 C   0  0  0  0  0  0  0  0  0  0  0  0
  -25.1796  -29.1357   20.4228 C   0  0  0  0  0  0  0  0  0  0  0  0
  -24.8290  -28.8389   23.6339 C   0  0  0  0  0  0  0  0  0  0  0  0
  -25.5952  -27.1289   26.4862 C   0  0  0  0  0  0  0  0  0  0  0  0
  -30.7026  -14.8419   20.3901 C   0  0  0  0  0  0  0  0  0  0  0  0
  -22.6255  -32.9688   18.2224 C   0  0  0  0  0  0  0  0  0  0  0  0
  -24.5140  -26.7133   20.6346 C   0  0  0  0  0  0  0  0  0  0  0  0
  -26.6353  -27.4412   22.5619 C   0  0  0  0  0  0  0  0  0  0  0  0
  -31.4864  -23.5287   19.2096 C   0  0  0  0  0  0  0  0  0  0  0  0
  -23.2989  -32.7388   19.5729 C   0  0  0  0  0  0  0  0  0  0  0  0
  -29.6718  -11.9050   18.6612 C   0  0  0  0  0  0  0  0  0  0  0  0
  -24.7052  -32.1803   19.3800 C   0  0  0  0  0  0  0  0  0  0  0  0
  -28.2246  -11.7051   19.1170 C   0  0  0  0  0  0  0  0  0  0  0  0
  -30.5539  -12.4351   19.7902 C   0  0  0  0  0  0  0  0  0  0  0  0
  -28.6056  -13.4459   20.9091 C   0  0  0  0  0  0  0  0  0  0  0  0
  -29.5368  -22.1481   19.0714 C   0  0  0  0  0  0  0  0  0  0  0  0
  -24.6668  -30.8230   18.6675 C   0  0  1  0  0  0  0  0  0  0  0  0
  -24.5584  -28.0856   21.2996 C   0  0  1  0  0  0  0  0  0  0  0  0
  -27.6647  -12.9746   19.7882 C   0  0  2  0  0  0  0  0  0  0  0  0
  -29.9701  -23.5915   19.2366 C   0  0  1  0  0  0  0  0  0  1  0  0
  -25.1903  -27.1469   28.9627 C   0  0  0  0  0  0  0  0  0  0  0  0
  -26.7982  -31.1499   23.9366 C   0  0  0  0  0  0  0  0  0  0  0  0
  -27.0800  -30.5034   26.3389 C   0  0  0  0  0  0  0  0  0  0  0  0
  -24.8467  -31.2308   25.4986 C   0  0  0  0  0  0  0  0  0  0  0  0
  -24.3030  -24.4674   26.4114 C   0  0  0  0  0  0  0  0  0  0  0  0
  -25.7467  -28.9659   24.8258 C   0  0  1  0  0  0  0  0  0  0  0  0
  -24.7231  -26.6142   27.6171 C   0  0  2  0  0  0  0  0  0  0  0  0
  -26.1230  -30.4437   25.1292 C   0  0  0  0  0  0  0  0  0  0  0  0
  -25.8784  -11.5499   20.7158 N   0  0  0  0  0  0  0  0  0  0  0  0
  -26.2461  -12.7687   20.2853 N   0  0  0  0  0  0  0  0  0  0  0  0
  -30.6304  -21.3760   19.6357 N   0  0  0  0  0  0  0  0  0  0  0  0
  -25.3090  -28.0803   22.5569 N   0  0  0  0  0  0  0  0  0  0  0  0
  -29.9630  -13.6405   20.3756 N   0  0  0  0  0  0  0  0  0  0  0  0
  -25.4523  -14.9770   19.9629 N   0  0  0  0  0  0  0  0  0  0  0  0
  -21.8621  -12.8145   21.6452 N   0  0  0  0  0  0  0  0  0  0  0  0
  -30.0258  -15.9290   20.9423 N   0  0  0  0  0  0  0  0  0  0  0  0
  -24.2818  -29.7778   19.5915 N   0  0  0  0  0  0  0  0  0  0  0  0
  -25.0812  -28.2803   25.9283 N   0  0  0  0  0  0  0  0  0  0  0  0
  -24.7596  -25.1251   27.6628 N   0  3  0  0  0  0  0  0  0  0  0  0
  -32.9159  -21.8380   20.1376 O   0  0  0  0  0  0  0  0  0  0  0  0
  -22.6241  -14.8325   20.8668 O   0  0  0  0  0  0  0  0  0  0  0  0
  -26.3842  -29.3487   20.4960 O   0  0  0  0  0  0  0  0  0  0  0  0
  -23.7240  -29.3864   23.6604 O   0  0  0  0  0  0  0  0  0  0  0  0
  -26.6310  -26.5679   26.1355 O   0  0  0  0  0  0  0  0  0  0  0  0
  -31.8415  -14.9086   19.9206 O   0  0  0  0  0  0  0  0  0  0  0  0
  -21.6395   -7.4434   23.1069 O   0  0  0  0  0  0  0  0  0  0  0  0
  -29.5247  -24.0741   20.5000 O   0  0  0  0  0  0  0  0  0  1  0  0
  -18.5336   -8.3763   27.5665 F   0  0  0  0  0  0  0  0  0  0  0  0
  -28.5389  -17.9187   22.2068 F   0  0  0  0  0  0  0  0  0  0  0  0
  -22.0597   -6.0344   25.4481 F   0  0  0  0  0  0  0  0  0  0  0  0
  -32.4027  -19.4404   18.0753 Cl  0  0  0  0  0  0  0  0  0  0  0  0
  1  2  1  0  0  0  0
  1  5  2  0  0  0  0
  2  6  2  0  0  0  0
  3  8  2  0  0  0  0
  3 17  1  0  0  0  0
  4  9  1  0  0  0  0
  4 17  2  0  0  0  0
  5 19  1  0  0  0  0
  6 21  1  0  0  0  0
  7 10  2  0  0  0  0
  7 20  1  0  0  0  0
  8 25  1  0  0  0  0
  9 25  2  0  0  0  0
 10 26  1  0  0  0  0
 11 12  2  0  0  0  0
 11 27  1  0  0  0  0
 12 28  1  0  0  0  0
 13 22  1  0  0  0  0
 13 26  2  0  0  0  0
 14 23  1  0  0  0  0
 14 29  2  0  0  0  0
 15 24  2  0  0  0  0
 15 31  1  0  0  0  0
 16 28  2  0  0  0  0
 16 30  1  0  0  0  0
 17 32  1  0  0  0  0
 18 32  1  0  0  0  0
 18 33  2  0  0  0  0
 18 35  1  0  0  0  0
 19 21  2  0  0  0  0
 19 40  1  0  0  0  0
 20 22  2  0  0  0  0
 20 41  1  0  0  0  0
 21 51  1  0  0  0  0
 22 42  1  0  0  0  0
 23 31  2  0  0  0  0
 23 65  1  0  0  0  0
 24 29  1  0  0  0  0
 24 70  1  0  0  0  0
 25 80  1  0  0  0  0
 26 81  1  0  0  0  0
 27 30  2  0  0  0  0
 27 80  1  0  0  0  0
 28 82  1  0  0  0  0
 29 83  1  0  0  0  0
 30 84  1  0  0  0  0
 31 85  1  0  0  0  0
 32 63  2  0  0  0  0
 33 64  1  0  0  0  0
 33 68  1  0  0  0  0
 34 43  1  0  0  0  0
 34 65  1  0  0  0  0
 34 74  2  0  0  0  0
 35 69  1  0  0  0  0
 35 75  2  0  0  0  0
 36 52  1  0  0  0  0
 36 71  1  0  0  0  0
 36 76  2  0  0  0  0
 37 60  1  0  0  0  0
 37 66  1  0  0  0  0
 37 77  2  0  0  0  0
 38 61  1  0  0  0  0
 38 72  1  0  0  0  0
 38 78  2  0  0  0  0
 39 67  1  0  0  0  0
 39 70  1  0  0  0  0
 39 79  2  0  0  0  0
 40 44  1  0  0  0  0
 41 52  1  0  0  0  0
 42 66  1  0  0  0  0
 43 54  1  0  0  0  0
 44 46  1  0  0  0  0
 45 47  1  0  0  0  0
 45 48  1  0  0  0  0
 46 51  1  0  0  0  0
 47 53  1  0  0  0  0
 48 67  1  0  0  0  0
 49 53  1  0  0  0  0
 49 67  1  0  0  0  0
 50 54  1  0  0  0  0
 50 65  1  0  0  0  0
 51 71  1  0  0  0  0
 52 66  1  0  0  0  0
 53 64  1  0  0  0  0
 54 81  1  0  0  0  0
 55 61  1  0  0  0  0
 56 62  1  0  0  0  0
 57 62  1  0  0  0  0
 58 62  1  0  0  0  0
 59 73  1  0  0  0  0
 60 62  1  0  0  0  0
 60 72  1  0  0  0  0
 61 73  1  0  0  0  0
 63 64  1  0  0  0  0
M  CHG  1  73   1
M  ISO  4  39 100  54 101  70 100  81 101
M  END
> <Batch ID>
0028

> <Smiles>
CNC(C)C(=O)NC(C(=O)N1Cc2cc([101O:1][101CH:1]3CC(=O)N(c4cc(F)c([100NH:0][100C:0](=O)N5CCCC(n6nc(-c7ccc(Oc8ccc(F)cc8F)cc7)c(C(N)=O)c6N)C5)cc4Cl)C3)ccc2CC1C(=O)NC1CCCc2ccccc21)C(C)(C)C

> <Shape>
0.273

> <Color>
0.185

> <Negative vol penalty>
0.000

$$$$

  -OEChem-04042321313D

 86 95  0     1  0  0  0  0  0999 V2000
  -16.5464  -29.1792   24.0174 C   0  0  0  0  0  0  0  0  0  0  0  0
  -16.8920  -28.7122   22.7533 C   0  0  0  0  0  0  0  0  0  0  0  0
  -25.9130  -13.3872   19.7662 C   0  0  0  0  0  0  0  0  0  0  0  0
  -25.6944  -15.7484   20.2288 C   0  0  0  0  0  0  0  0  0  0  0  0
  -17.3975  -30.0523   24.6935 C   0  0  0  0  0  0  0  0  0  0  0  0
  -18.0887  -29.1189   22.1642 C   0  0  0  0  0  0  0  0  0  0  0  0
  -24.0210  -24.8400   19.4210 C   0  0  0  0  0  0  0  0  0  0  0  0
  -24.5541  -13.2105   20.0262 C   0  0  0  0  0  0  0  0  0  0  0  0
  -24.3354  -15.5717   20.4887 C   0  0  0  0  0  0  0  0  0  0  0  0
  -25.2003  -24.1955   19.0469 C   0  0  0  0  0  0  0  0  0  0  0  0
  -21.6239  -13.7132   18.4155 C   0  0  0  0  0  0  0  0  0  0  0  0
  -20.8906  -12.9274   17.5264 C   0  0  0  0  0  0  0  0  0  0  0  0
  -26.4672  -26.1884   19.5679 C   0  0  0  0  0  0  0  0  0  0  0  0
  -33.1880  -23.0667   19.8432 C   0  0  0  0  0  0  0  0  0  0  0  0
  -33.5334  -21.0985   21.2010 C   0  0  0  0  0  0  0  0  0  0  0  0
  -20.3323  -11.4136   19.3246 C   0  0  0  0  0  0  0  0  0  0  0  0
  -26.4832  -14.6562   19.8676 C   0  0  0  0  0  0  0  0  0  0  0  0
  -28.5662  -14.5639   18.3978 C   0  0  0  0  0  0  0  0  0  0  0  0
  -18.6097  -30.4624   24.1164 C   0  0  0  0  0  0  0  0  0  0  0  0
  -24.0622  -26.1576   19.8852 C   0  0  0  0  0  0  0  0  0  0  0  0
  -18.9562  -29.9994   22.8327 C   0  0  0  0  0  0  0  0  0  0  0  0
  -25.2907  -26.8350   19.9558 C   0  0  0  0  0  0  0  0  0  0  0  0
  -31.3281  -21.6140   20.3598 C   0  0  0  0  0  0  0  0  0  0  0  0
  -31.8329  -22.7543   19.7350 C   0  0  0  0  0  0  0  0  0  0  0  0
  -32.1783  -20.7861   21.0929 C   0  0  0  0  0  0  0  0  0  0  0  0
  -23.7653  -14.3027   20.3874 C   0  0  0  0  0  0  0  0  0  0  0  0
  -26.4204  -24.8682   19.1199 C   0  0  0  0  0  0  0  0  0  0  0  0
  -21.7114  -13.3491   19.7592 C   0  0  0  0  0  0  0  0  0  0  0  0
  -20.2448  -11.7777   17.9809 C   0  0  0  0  0  0  0  0  0  0  0  0
  -34.0383  -22.2388   20.5762 C   0  0  0  0  0  0  0  0  0  0  0  0
  -21.0656  -12.1993   20.2137 C   0  0  0  0  0  0  0  0  0  0  0  0
  -27.8871  -14.8394   19.5997 C   0  0  0  0  0  0  0  0  0  0  0  0
  -29.8713  -14.9061   18.6546 C   0  0  0  0  0  0  0  0  0  0  0  0
  -30.2607  -23.1658   17.8510 C   0  0  0  0  0  0  0  0  0  0  0  0
  -28.0623  -14.0452   17.1598 C   0  0  0  0  0  0  0  0  0  0  0  0
  -22.1479  -29.1041   21.2005 C   0  0  0  0  0  0  0  0  0  0  0  0
  -24.7474  -28.9352   22.8204 C   0  0  0  0  0  0  0  0  0  0  0  0
  -27.5192  -28.1508   24.6479 C   0  0  0  0  0  0  0  0  0  0  0  0
  -32.4136  -18.7091   22.4990 C   0  0  0  0  0  0  0  0  0  0  0  0
  -19.4749  -31.4446   24.8657 C   0  0  0  0  0  0  0  0  0  0  0  0
  -22.8095  -26.9114   20.2406 C   0  0  0  0  0  0  0  0  0  0  0  0
  -25.2828  -28.2631   20.4283 C   0  0  0  0  0  0  0  0  0  0  0  0
  -29.3984  -24.2321   17.1949 C   0  0  0  0  0  0  0  0  0  0  0  0
  -20.9015  -31.5322   24.3297 C   0  0  0  0  0  0  0  0  0  0  0  0
  -33.0257  -15.2108   22.2451 C   0  0  0  0  0  0  0  0  0  0  0  0
  -20.8944  -31.6391   22.8081 C   0  0  0  0  0  0  0  0  0  0  0  0
  -31.8424  -14.6944   21.4234 C   0  0  0  0  0  0  0  0  0  0  0  0
  -29.4892  -25.5674   19.3590 C   0  0  0  0  0  0  0  0  0  0  0  0
  -32.6097  -16.3319   23.1958 C   0  0  0  0  0  0  0  0  0  0  0  0
  -30.9268  -25.0524   19.2948 C   0  0  0  0  0  0  0  0  0  0  0  0
  -30.7140  -16.9332   21.7419 C   0  0  0  0  0  0  0  0  0  0  0  0
  -20.2574  -30.3983   22.1709 C   0  0  1  0  0  0  0  0  0  0  0  0
  -23.0066  -27.8917   21.4108 C   0  0  1  0  0  0  0  0  0  0  0  0
  -31.0967  -15.8473   20.7231 C   0  0  2  0  0  0  0  0  0  0  0  0
  -28.6174  -25.0397   18.2214 C   0  0  2  0  0  0  0  0  0  1  0  0
  -29.8732  -21.2793   20.2442 C   0  0  0  0  0  0  0  0  0  0  0  0
  -28.8715  -28.9357   26.6107 C   0  0  0  0  0  0  0  0  0  0  0  0
  -25.9345  -31.1623   21.1073 C   0  0  0  0  0  0  0  0  0  0  0  0
  -27.8585  -31.2696   22.7058 C   0  0  0  0  0  0  0  0  0  0  0  0
  -25.5493  -31.7790   23.5002 C   0  0  0  0  0  0  0  0  0  0  0  0
  -27.0369  -25.6368   26.1332 C   0  0  0  0  0  0  0  0  0  0  0  0
  -26.1778  -29.3887   22.9677 C   0  0  1  0  0  0  0  0  0  0  0  0
  -27.7388  -28.0339   26.1454 C   0  0  2  0  0  0  0  0  0  0  0  0
  -26.3734  -30.8755   22.5572 C   0  0  0  0  0  0  0  0  0  0  0  0
  -28.6941  -15.3194   20.5496 N   0  0  0  0  0  0  0  0  0  0  0  0
  -29.8938  -15.3481   19.9447 N   0  0  0  0  0  0  0  0  0  0  0  0
  -30.9750  -23.6228   18.9744 N   0  0  0  0  0  0  0  0  0  0  0  0
  -24.3761  -28.4069   21.5781 N   0  0  0  0  0  0  0  0  0  0  0  0
  -31.9130  -17.3905   22.4617 N   0  0  0  0  0  0  0  0  0  0  0  0
  -30.9905  -14.8688   17.9006 N   0  0  0  0  0  0  0  0  0  0  0  0
  -26.6960  -13.7469   17.0671 N   0  0  0  0  0  0  0  0  0  0  0  0
  -31.6871  -19.6234   21.7368 N   0  0  0  0  0  0  0  0  0  0  0  0
  -21.1896  -29.2913   22.1782 N   0  0  0  0  0  0  0  0  0  0  0  0
  -26.5599  -29.0937   24.3444 N   0  0  0  0  0  0  0  0  0  0  0  0
  -28.0758  -26.6292   26.5114 N   0  3  0  0  0  0  0  0  0  0  0  0
  -30.3315  -22.0478   17.3409 O   0  0  0  0  0  0  0  0  0  0  0  0
  -28.8047  -13.8364   16.1705 O   0  0  0  0  0  0  0  0  0  0  0  0
  -22.3407  -29.8189   20.2240 O   0  0  0  0  0  0  0  0  0  0  0  0
  -23.9766  -29.0504   23.7775 O   0  0  0  0  0  0  0  0  0  0  0  0
  -28.1394  -27.4761   23.8290 O   0  0  0  0  0  0  0  0  0  0  0  0
  -33.4290  -19.0000   23.1365 O   0  0  0  0  0  0  0  0  0  0  0  0
  -22.4391  -14.1306   20.6409 O   0  0  0  0  0  0  0  0  0  0  0  0
  -27.5684  -24.2316   18.7574 O   0  0  0  0  0  0  0  0  0  1  0  0
  -19.5395  -11.0241   17.1272 F   0  0  0  0  0  0  0  0  0  0  0  0
  -35.3397  -22.5390   20.6796 F   0  0  0  0  0  0  0  0  0  0  0  0
  -21.1451  -11.8451   21.5037 F   0  0  0  0  0  0  0  0  0  0  0  0
  1  2  1  0  0  0  0
  1  5  2  0  0  0  0
  2  6  2  0  0  0  0
  3  8  2  0  0  0  0
  3 17  1  0  0  0  0
  4  9  1  0  0  0  0
  4 17  2  0  0  0  0
  5 19  1  0  0  0  0
  6 21  1  0  0  0  0
  7 10  2  0  0  0  0
  7 20  1  0  0  0  0
  8 26  1  0  0  0  0
  9 26  2  0  0  0  0
 10 27  1  0  0  0  0
 11 12  2  0  0  0  0
 11 28  1  0  0  0  0
 12 29  1  0  0  0  0
 13 22  1  0  0  0  0
 13 27  2  0  0  0  0
 14 24  1  0  0  0  0
 14 30  2  0  0  0  0
 15 25  2  0  0  0  0
 15 30  1  0  0  0  0
 16 29  2  0  0  0  0
 16 31  1  0  0  0  0
 17 32  1  0  0  0  0
 18 32  1  0  0  0  0
 18 33  2  0  0  0  0
 18 35  1  0  0  0  0
 19 21  2  0  0  0  0
 19 40  1  0  0  0  0
 20 22  2  0  0  0  0
 20 41  1  0  0  0  0
 21 52  1  0  0  0  0
 22 42  1  0  0  0  0
 23 24  2  0  0  0  0
 23 25  1  0  0  0  0
 23 56  1  0  0  0  0
 24 67  1  0  0  0  0
 25 72  1  0  0  0  0
 26 82  1  0  0  0  0
 27 83  1  0  0  0  0
 28 31  2  0  0  0  0
 28 82  1  0  0  0  0
 29 84  1  0  0  0  0
 30 85  1  0  0  0  0
 31 86  1  0  0  0  0
 32 65  2  0  0  0  0
 33 66  1  0  0  0  0
 33 70  1  0  0  0  0
 34 43  1  0  0  0  0
 34 67  1  0  0  0  0
 34 76  2  0  0  0  0
 35 71  1  0  0  0  0
 35 77  2  0  0  0  0
 36 53  1  0  0  0  0
 36 73  1  0  0  0  0
 36 78  2  0  0  0  0
 37 62  1  0  0  0  0
 37 68  1  0  0  0  0
 37 79  2  0  0  0  0
 38 63  1  0  0  0  0
 38 74  1  0  0  0  0
 38 80  2  0  0  0  0
 39 69  1  0  0  0  0
 39 72  1  0  0  0  0
 39 81  2  0  0  0  0
 40 44  1  0  0  0  0
 41 53  1  0  0  0  0
 42 68  1  0  0  0  0
 43 55  1  0  0  0  0
 44 46  1  0  0  0  0
 45 47  1  0  0  0  0
 45 49  1  0  0  0  0
 46 52  1  0  0  0  0
 47 54  1  0  0  0  0
 48 50  1  0  0  0  0
 48 55  1  0  0  0  0
 49 69  1  0  0  0  0
 50 67  1  0  0  0  0
 51 54  1  0  0  0  0
 51 69  1  0  0  0  0
 52 73  1  0  0  0  0
 53 68  1  0  0  0  0
 54 66  1  0  0  0  0
 55 83  1  0  0  0  0
 57 63  1  0  0  0  0
 58 64  1  0  0  0  0
 59 64  1  0  0  0  0
 60 64  1  0  0  0  0
 61 75  1  0  0  0  0
 62 64  1  0  0  0  0
 62 74  1  0  0  0  0
 63 75  1  0  0  0  0
 65 66  1  0  0  0  0
M  CHG  1  75   1
M  ISO  4  39 100  55 101  72 100  83 101
M  END
> <Batch ID>
0028

> <Smiles>
CNC(C)C(=O)NC(C(=O)N1Cc2cc([101O:1][101CH:1]3CCN(c4cc(F)cc([100NH:0][100C:0](=O)N5CCCC(n6nc(-c7ccc(Oc8ccc(F)cc8F)cc7)c(C(N)=O)c6N)C5)c4C)C(=O)C3)ccc2CC1C(=O)NC1CCCc2ccccc21)C(C)(C)C

> <Shape>
0.239

> <Color>
0.063

> <Negative vol penalty>
0.000

$$$$

  -OEChem-04042321313D

 92102  0     1  0  0  0  0  0999 V2000
  -19.3961   -8.3062   21.3078 C   0  0  0  0  0  0  0  0  0  0  0  0
  -18.9365   -9.3992   22.0354 C   0  0  0  0  0  0  0  0  0  0  0  0
  -29.3396  -25.0724   20.4124 C   0  0  0  0  0  0  0  0  0  0  0  0
  -27.5225  -24.4433   21.8751 C   0  0  0  0  0  0  0  0  0  0  0  0
  -20.7457   -8.2124   20.9706 C   0  0  0  0  0  0  0  0  0  0  0  0
  -19.8265  -10.3986   22.4273 C   0  0  0  0  0  0  0  0  0  0  0  0
  -18.7930  -17.2339   20.5245 C   0  0  0  0  0  0  0  0  0  0  0  0
  -30.1933  -24.2121   21.1029 C   0  0  0  0  0  0  0  0  0  0  0  0
  -28.3762  -23.5830   22.5656 C   0  0  0  0  0  0  0  0  0  0  0  0
  -18.5297  -18.6002   20.4235 C   0  0  0  0  0  0  0  0  0  0  0  0
  -29.6866  -20.4985   22.1308 C   0  0  0  0  0  0  0  0  0  0  0  0
  -29.2117  -19.2226   22.4345 C   0  0  0  0  0  0  0  0  0  0  0  0
  -20.6196  -19.0955   21.5343 C   0  0  0  0  0  0  0  0  0  0  0  0
  -19.8889  -27.1341   22.6582 C   0  0  0  0  0  0  0  0  0  0  0  0
  -19.4375  -29.4870   22.9699 C   0  0  0  0  0  0  0  0  0  0  0  0
  -29.5107  -19.6719   24.7894 C   0  0  0  0  0  0  0  0  0  0  0  0
  -28.0042  -25.1880   20.7985 C   0  0  0  0  0  0  0  0  0  0  0  0
  -26.7857  -26.0261   18.7200 C   0  0  0  0  0  0  0  0  0  0  0  0
  -21.6509   -9.2160   21.3502 C   0  0  0  0  0  0  0  0  0  0  0  0
  -19.9793  -16.7925   21.1179 C   0  0  0  0  0  0  0  0  0  0  0  0
  -21.1897  -10.3175   22.0960 C   0  0  0  0  0  0  0  0  0  0  0  0
  -20.8946  -17.7285   21.6266 C   0  0  0  0  0  0  0  0  0  0  0  0
  -18.5715  -26.8353   23.0057 C   0  0  0  0  0  0  0  0  0  0  0  0
  -18.1201  -29.1882   23.3174 C   0  0  0  0  0  0  0  0  0  0  0  0
  -20.3220  -28.4600   22.6403 C   0  0  0  0  0  0  0  0  0  0  0  0
  -29.7116  -23.4674   22.1795 C   0  0  0  0  0  0  0  0  0  0  0  0
  -19.4406  -19.5286   20.9275 C   0  0  0  0  0  0  0  0  0  0  0  0
  -30.0737  -21.3610   23.1564 C   0  0  0  0  0  0  0  0  0  0  0  0
  -29.1237  -18.8093   23.7638 C   0  0  0  0  0  0  0  0  0  0  0  0
  -29.9857  -20.9478   24.4857 C   0  0  0  0  0  0  0  0  0  0  0  0
  -17.6871  -27.8623   23.3352 C   0  0  0  0  0  0  0  0  0  0  0  0
  -27.1220  -26.0769   20.0860 C   0  0  0  0  0  0  0  0  0  0  0  0
  -25.9227  -27.0793   18.5394 C   0  0  0  0  0  0  0  0  0  0  0  0
  -27.2149  -25.1088   17.7050 C   0  0  0  0  0  0  0  0  0  0  0  0
  -22.0811  -13.9018   22.2015 C   0  0  0  0  0  0  0  0  0  0  0  0
  -24.0163  -16.1620   21.0619 C   0  0  0  0  0  0  0  0  0  0  0  0
  -26.5261  -13.5945   20.7054 C   0  0  0  0  0  0  0  0  0  0  0  0
  -22.2507  -30.0250   22.2196 C   0  0  0  0  0  0  0  0  0  0  0  0
  -23.1090   -9.0473   21.0033 C   0  0  0  0  0  0  0  0  0  0  0  0
  -20.2709  -15.3277   21.3044 C   0  0  0  0  0  0  0  0  0  0  0  0
  -22.1412  -17.2089   22.2859 C   0  0  0  0  0  0  0  0  0  0  0  0
  -23.9190  -10.3346   21.1340 C   0  0  0  0  0  0  0  0  0  0  0  0
  -15.4147  -32.3959   24.1870 C   0  0  0  0  0  0  0  0  0  0  0  0
  -16.6532  -32.1651   25.0441 C   0  0  0  0  0  0  0  0  0  0  0  0
  -14.9232  -31.0749   23.6076 C   0  0  0  0  0  0  0  0  0  0  0  0
  -24.8939  -31.4190   20.2838 C   0  0  0  0  0  0  0  0  0  0  0  0
  -16.4938  -24.8341   19.6068 C   0  0  0  0  0  0  0  0  0  0  0  0
  -23.5990  -11.0354   22.4506 C   0  0  0  0  0  0  0  0  0  0  0  0
  -16.6102  -23.3154   19.5294 C   0  0  0  0  0  0  0  0  0  0  0  0
  -25.7313  -30.2020   19.8840 C   0  0  0  0  0  0  0  0  0  0  0  0
  -17.7532  -31.4479   24.2629 C   0  0  0  0  0  0  0  0  0  0  0  0
  -16.0251  -30.3652   22.8239 C   0  0  0  0  0  0  0  0  0  0  0  0
  -24.3306  -31.2803   21.6970 C   0  0  0  0  0  0  0  0  0  0  0  0
  -24.4237  -28.8229   21.5500 C   0  0  0  0  0  0  0  0  0  0  0  0
  -16.6032  -25.3368   21.0382 C   0  0  0  0  0  0  0  0  0  0  0  0
  -17.9895  -23.3338   21.6438 C   0  0  0  0  0  0  0  0  0  0  0  0
  -22.1198  -11.4341   22.5180 C   0  0  1  0  0  0  0  0  0  0  0  0
  -21.7698  -14.9802   21.2056 C   0  0  1  0  0  0  0  0  0  0  0  0
  -17.8920  -22.8183   20.2069 C   0  0  1  0  0  0  0  0  0  0  0  0
  -24.9588  -28.8875   20.1101 C   0  0  2  0  0  0  0  0  0  0  0  0
  -28.8766  -13.7202   19.8356 C   0  0  0  0  0  0  0  0  0  0  0  0
  -22.7669  -15.3470   18.4001 C   0  0  0  0  0  0  0  0  0  0  0  0
  -24.7779  -13.9181   17.9731 C   0  0  0  0  0  0  0  0  0  0  0  0
  -25.0332  -16.3879   18.2134 C   0  0  0  0  0  0  0  0  0  0  0  0
  -27.6308  -12.4208   23.1875 C   0  0  0  0  0  0  0  0  0  0  0  0
  -18.1089  -25.4082   23.0233 C   0  0  0  0  0  0  0  0  0  0  0  0
  -17.9542  -21.2921   20.1848 C   0  0  0  0  0  0  0  0  0  1  0  0
  -24.5243  -14.9897   20.2575 C   0  0  1  0  0  0  0  0  0  0  0  0
  -27.9947  -13.7018   21.0744 C   0  0  2  0  0  0  0  0  0  0  0  0
  -24.2599  -15.1570   18.7345 C   0  0  0  0  0  0  0  0  0  0  0  0
  -26.5218  -27.0829   20.7278 N   0  0  0  0  0  0  0  0  0  0  0  0
  -25.7997  -27.6739   19.7607 N   0  0  0  0  0  0  0  0  0  0  0  0
  -17.2340  -30.2211   23.6476 N   0  0  0  0  0  0  0  0  0  0  0  0
  -22.6909  -16.0923   21.5086 N   0  0  0  0  0  0  0  0  0  0  0  0
  -23.6084  -30.0138   21.8359 N   0  0  0  0  0  0  0  0  0  0  0  0
  -25.2648  -27.5455   17.4568 N   0  0  0  0  0  0  0  0  0  0  0  0
  -28.1033  -24.0853   18.0619 N   0  0  0  0  0  0  0  0  0  0  0  0
  -21.6601  -28.7635   22.2869 N   0  0  0  0  0  0  0  0  0  0  0  0
  -21.8795  -12.6205   21.7248 N   0  0  0  0  0  0  0  0  0  0  0  0
  -25.9325  -14.8351   20.6060 N   0  0  0  0  0  0  0  0  0  0  0  0
  -17.8927  -24.8417   21.6467 N   0  3  2  0  0  0  0  0  0  0  0  0
  -28.4011  -12.5465   21.9235 N   0  3  0  0  0  0  0  0  0  0  0  0
  -26.8350  -25.2043   16.5133 O   0  0  0  0  0  0  0  0  0  0  0  0
  -22.4767  -14.2082   23.3201 O   0  0  0  0  0  0  0  0  0  0  0  0
  -24.7715  -17.1134   21.2786 O   0  0  0  0  0  0  0  0  0  0  0  0
  -25.9628  -12.5180   20.5199 O   0  0  0  0  0  0  0  0  0  0  0  0
  -21.6483  -31.0781   22.4436 O   0  0  0  0  0  0  0  0  0  0  0  0
  -30.5443  -22.6277   22.8533 O   0  0  0  0  0  0  0  0  0  0  0  0
  -19.1796  -20.8611   20.8220 O   0  0  0  0  0  0  0  0  0  1  0  0
  -28.6661  -17.5847   24.0554 F   0  0  0  0  0  0  0  0  0  0  0  0
  -30.3549  -21.7724   25.4754 F   0  0  0  0  0  0  0  0  0  0  0  0
  -16.4201  -27.5737   23.6688 F   0  0  0  0  0  0  0  0  0  0  0  0
  1  2  1  0  0  0  0
  1  5  2  0  0  0  0
  2  6  2  0  0  0  0
  3  8  2  0  0  0  0
  3 17  1  0  0  0  0
  4  9  1  0  0  0  0
  4 17  2  0  0  0  0
  5 19  1  0  0  0  0
  6 21  1  0  0  0  0
  7 10  2  0  0  0  0
  7 20  1  0  0  0  0
  8 26  1  0  0  0  0
  9 26  2  0  0  0  0
 10 27  1  0  0  0  0
 11 12  2  0  0  0  0
 11 28  1  0  0  0  0
 12 29  1  0  0  0  0
 13 22  1  0  0  0  0
 13 27  2  0  0  0  0
 14 23  1  0  0  0  0
 14 25  2  0  0  0  0
 15 24  2  0  0  0  0
 15 25  1  0  0  0  0
 16 29  2  0  0  0  0
 16 30  1  0  0  0  0
 17 32  1  0  0  0  0
 18 32  1  0  0  0  0
 18 33  2  0  0  0  0
 18 34  1  0  0  0  0
 19 21  2  0  0  0  0
 19 39  1  0  0  0  0
 20 22  2  0  0  0  0
 20 40  1  0  0  0  0
 21 57  1  0  0  0  0
 22 41  1  0  0  0  0
 23 31  2  0  0  0  0
 23 66  1  0  0  0  0
 24 31  1  0  0  0  0
 24 73  1  0  0  0  0
 25 78  1  0  0  0  0
 26 88  1  0  0  0  0
 27 89  1  0  0  0  0
 28 30  2  0  0  0  0
 28 88  1  0  0  0  0
 29 90  1  0  0  0  0
 30 91  1  0  0  0  0
 31 92  1  0  0  0  0
 32 71  2  0  0  0  0
 33 72  1  0  0  0  0
 33 76  1  0  0  0  0
 34 77  1  0  0  0  0
 34 83  2  0  0  0  0
 35 58  1  0  0  0  0
 35 79  1  0  0  0  0
 35 84  2  0  0  0  0
 36 68  1  0  0  0  0
 36 74  1  0  0  0  0
 36 85  2  0  0  0  0
 37 69  1  0  0  0  0
 37 80  1  0  0  0  0
 37 86  2  0  0  0  0
 38 75  1  0  0  0  0
 38 78  1  0  0  0  0
 38 87  2  0  0  0  0
 39 42  1  0  0  0  0
 40 58  1  0  0  0  0
 41 74  1  0  0  0  0
 42 48  1  0  0  0  0
 43 44  1  0  0  0  0
 43 45  1  0  0  0  0
 44 51  1  0  0  0  0
 45 52  1  0  0  0  0
 46 50  1  0  0  0  0
 46 53  1  0  0  0  0
 47 49  1  0  0  0  0
 47 55  1  0  0  0  0
 48 57  1  0  0  0  0
 49 59  1  0  0  0  0
 50 60  1  0  0  0  0
 51 73  1  0  0  0  0
 52 73  1  0  0  0  0
 53 75  1  0  0  0  0
 54 60  1  0  0  0  0
 54 75  1  0  0  0  0
 55 81  1  0  0  0  0
 56 59  1  0  0  0  0
 56 81  1  0  0  0  0
 57 79  1  0  0  0  0
 58 74  1  0  0  0  0
 59 67  1  0  0  0  0
 60 72  1  0  0  0  0
 61 69  1  0  0  0  0
 62 70  1  0  0  0  0
 63 70  1  0  0  0  0
 64 70  1  0  0  0  0
 65 82  1  0  0  0  0
 66 81  1  0  0  0  0
 67 89  1  0  0  0  0
 68 70  1  0  0  0  0
 68 80  1  0  0  0  0
 69 82  1  0  0  0  0
 71 72  1  0  0  0  0
M  CHG  2  81   1  82   1
M  ISO  4  38 100  67 101  78 100  89 101
M  END
> <Batch ID>
0028

> <Smiles>
CNC(C)C(=O)NC(C(=O)N1Cc2cc([101O:1][101CH2:1]C3CCCN(Cc4cc([100NH:0][100C:0](=O)N5CCCC(n6nc(-c7ccc(Oc8ccc(F)cc8F)cc7)c(C(N)=O)c6N)C5)cc(N5CCCCC5)c4F)C3)ccc2CC1C(=O)NC1CCCc2ccccc21)C(C)(C)C

> <Shape>
0.235

> <Color>
0.085

> <Negative vol penalty>
0.000

$$$$

  -OEChem-04042321313D

 83 92  0     1  0  0  0  0  0999 V2000
  -27.3939  -24.4044   17.4747 C   0  0  0  0  0  0  0  0  0  0  0  0
  -26.2329  -24.7812   18.1422 C   0  0  0  0  0  0  0  0  0  0  0  0
  -26.3516  -17.8738   21.0103 C   0  0  0  0  0  0  0  0  0  0  0  0
  -26.1610  -20.2667   21.2836 C   0  0  0  0  0  0  0  0  0  0  0  0
  -28.6374  -24.8080   17.9593 C   0  0  0  0  0  0  0  0  0  0  0  0
  -26.3148  -25.5609   19.2953 C   0  0  0  0  0  0  0  0  0  0  0  0
  -22.9472  -29.3428   19.3265 C   0  0  0  0  0  0  0  0  0  0  0  0
  -27.5769  -18.0449   20.3661 C   0  0  0  0  0  0  0  0  0  0  0  0
  -27.3863  -20.4379   20.6394 C   0  0  0  0  0  0  0  0  0  0  0  0
  -21.6295  -29.0195   19.6475 C   0  0  0  0  0  0  0  0  0  0  0  0
  -30.5848  -17.8759   18.3295 C   0  0  0  0  0  0  0  0  0  0  0  0
  -30.8137  -17.1454   17.1635 C   0  0  0  0  0  0  0  0  0  0  0  0
  -21.9887  -29.8141   21.8966 C   0  0  0  0  0  0  0  0  0  0  0  0
  -16.7067  -22.6281   21.5441 C   0  0  0  0  0  0  0  0  0  0  0  0
  -18.7537  -23.9115   21.5590 C   0  0  0  0  0  0  0  0  0  0  0  0
  -28.9042  -18.2018   16.1267 C   0  0  0  0  0  0  0  0  0  0  0  0
  -25.6436  -18.9846   21.4691 C   0  0  0  0  0  0  0  0  0  0  0  0
  -24.1592  -18.6338   23.5138 C   0  0  0  0  0  0  0  0  0  0  0  0
  -28.7341  -25.6011   19.1135 C   0  0  0  0  0  0  0  0  0  0  0  0
  -23.8001  -29.8951   20.2929 C   0  0  0  0  0  0  0  0  0  0  0  0
  -27.5608  -25.9744   19.7966 C   0  0  0  0  0  0  0  0  0  0  0  0
  -23.3160  -30.1460   21.5847 C   0  0  0  0  0  0  0  0  0  0  0  0
  -16.0322  -23.6971   22.1340 C   0  0  0  0  0  0  0  0  0  0  0  0
  -18.0791  -24.9805   22.1489 C   0  0  0  0  0  0  0  0  0  0  0  0
  -18.0675  -22.7353   21.2567 C   0  0  0  0  0  0  0  0  0  0  0  0
  -28.0942  -19.3269   20.1806 C   0  0  0  0  0  0  0  0  0  0  0  0
  -21.1509  -29.2524   20.9334 C   0  0  0  0  0  0  0  0  0  0  0  0
  -29.5154  -18.7693   18.3942 C   0  0  0  0  0  0  0  0  0  0  0  0
  -29.9735  -17.3084   16.0621 C   0  0  0  0  0  0  0  0  0  0  0  0
  -28.6752  -18.9322   17.2928 C   0  0  0  0  0  0  0  0  0  0  0  0
  -16.7184  -24.8732   22.4364 C   0  0  0  0  0  0  0  0  0  0  0  0
  -24.3776  -18.8085   22.1341 C   0  0  0  0  0  0  0  0  0  0  0  0
  -22.7963  -18.5124   23.6330 C   0  0  0  0  0  0  0  0  0  0  0  0
  -25.1039  -18.5855   24.5913 C   0  0  0  0  0  0  0  0  0  0  0  0
  -26.5239  -28.9918   21.6600 C   0  0  0  0  0  0  0  0  0  0  0  0
  -26.3835  -31.9473   22.9897 C   0  0  0  0  0  0  0  0  0  0  0  0
  -24.4698  -34.6069   23.9441 C   0  0  0  0  0  0  0  0  0  0  0  0
  -18.2210  -20.4130   20.2924 C   0  0  0  0  0  0  0  0  0  0  0  0
  -30.1029  -25.9734   19.6259 C   0  0  0  0  0  0  0  0  0  0  0  0
  -25.2110  -30.2632   19.9234 C   0  0  0  0  0  0  0  0  0  0  0  0
  -24.1853  -30.7558   22.6528 C   0  0  0  0  0  0  0  0  0  0  0  0
  -30.0837  -27.1119   20.6427 C   0  0  0  0  0  0  0  0  0  0  0  0
  -18.9403  -17.0463   21.2008 C   0  0  0  0  0  0  0  0  0  0  0  0
  -28.9960  -26.8776   21.6861 C   0  0  0  0  0  0  0  0  0  0  0  0
  -20.3945  -17.1014   21.6745 C   0  0  0  0  0  0  0  0  0  0  0  0
  -18.6912  -17.9878   20.0238 C   0  0  0  0  0  0  0  0  0  0  0  0
  -20.5614  -19.4340   20.7165 C   0  0  0  0  0  0  0  0  0  0  0  0
  -18.2338  -27.4703   22.4765 C   0  0  0  0  0  0  0  0  0  0  0  0
  -20.0509  -26.5339   21.9775 C   0  0  0  0  0  0  0  0  0  0  0  0
  -27.6073  -26.8405   21.0367 C   0  0  1  0  0  0  0  0  0  0  0  0
  -26.1425  -30.3446   21.1288 C   0  0  1  0  0  0  0  0  0  0  0  0
  -20.8454  -18.5507   21.9423 C   0  0  2  0  0  0  0  0  0  0  0  0
  -19.6682  -27.9865   22.2955 C   0  0  0  0  0  0  0  0  0  1  0  0
  -14.5771  -23.5793   22.4396 C   0  0  0  0  0  0  0  0  0  0  0  0
  -24.6331  -36.8596   25.0376 C   0  0  0  0  0  0  0  0  0  0  0  0
  -26.6951  -30.6013   25.7102 C   0  0  0  0  0  0  0  0  0  0  0  0
  -25.9088  -32.7270   26.7740 C   0  0  0  0  0  0  0  0  0  0  0  0
  -28.0117  -32.7094   25.4323 C   0  0  0  0  0  0  0  0  0  0  0  0
  -23.4278  -35.9793   21.5379 C   0  0  0  0  0  0  0  0  0  0  0  0
  -25.7850  -32.5256   24.2491 C   0  0  1  0  0  0  0  0  0  0  0  0
  -24.6360  -36.0992   23.7207 C   0  0  2  0  0  0  0  0  0  0  0  0
  -26.5841  -32.1275   25.5220 C   0  0  0  0  0  0  0  0  0  0  0  0
  -23.2443  -18.7994   21.4274 N   0  0  0  0  0  0  0  0  0  0  0  0
  -22.3006  -18.6174   22.3668 N   0  0  0  0  0  0  0  0  0  0  0  0
  -18.7653  -26.1520   22.4490 N   0  0  0  0  0  0  0  0  0  0  0  0
  -25.5591  -31.0925   22.2444 N   0  0  0  0  0  0  0  0  0  0  0  0
  -19.1390  -19.3431   20.3516 N   0  0  0  0  0  0  0  0  0  0  0  0
  -21.9856  -18.3271   24.6964 N   0  0  0  0  0  0  0  0  0  0  0  0
  -26.4659  -18.7274   24.2927 N   0  0  0  0  0  0  0  0  0  0  0  0
  -18.7526  -21.6496   20.6570 N   0  0  0  0  0  0  0  0  0  0  0  0
  -27.1544  -28.1815   20.7352 N   0  0  0  0  0  0  0  0  0  0  0  0
  -25.6869  -33.9648   24.0309 N   0  0  0  0  0  0  0  0  0  0  0  0
  -23.5276  -36.6227   22.8732 N   0  3  0  0  0  0  0  0  0  0  0  0
  -24.7519  -18.4051   25.7817 O   0  0  0  0  0  0  0  0  0  0  0  0
  -26.2666  -28.7050   22.8233 O   0  0  0  0  0  0  0  0  0  0  0  0
  -27.5375  -32.2487   22.6748 O   0  0  0  0  0  0  0  0  0  0  0  0
  -23.3703  -34.0656   24.0363 O   0  0  0  0  0  0  0  0  0  0  0  0
  -17.0428  -20.2401   19.9703 O   0  0  0  0  0  0  0  0  0  0  0  0
  -29.2899  -19.4943   19.5522 O   0  0  0  0  0  0  0  0  0  0  0  0
  -19.8654  -28.9371   21.2495 O   0  0  0  0  0  0  0  0  0  1  0  0
  -30.1944  -16.6080   14.9419 F   0  0  0  0  0  0  0  0  0  0  0  0
  -27.6470  -19.7899   17.3485 F   0  0  0  0  0  0  0  0  0  0  0  0
  -16.0684  -25.9009   23.0033 F   0  0  0  0  0  0  0  0  0  0  0  0
  1  2  1  0  0  0  0
  1  5  2  0  0  0  0
  2  6  2  0  0  0  0
  3  8  2  0  0  0  0
  3 17  1  0  0  0  0
  4  9  1  0  0  0  0
  4 17  2  0  0  0  0
  5 19  1  0  0  0  0
  6 21  1  0  0  0  0
  7 10  2  0  0  0  0
  7 20  1  0  0  0  0
  8 26  1  0  0  0  0
  9 26  2  0  0  0  0
 10 27  1  0  0  0  0
 11 12  2  0  0  0  0
 11 28  1  0  0  0  0
 12 29  1  0  0  0  0
 13 22  1  0  0  0  0
 13 27  2  0  0  0  0
 14 23  2  0  0  0  0
 14 25  1  0  0  0  0
 15 24  1  0  0  0  0
 15 25  2  0  0  0  0
 16 29  2  0  0  0  0
 16 30  1  0  0  0  0
 17 32  1  0  0  0  0
 18 32  1  0  0  0  0
 18 33  2  0  0  0  0
 18 34  1  0  0  0  0
 19 21  2  0  0  0  0
 19 39  1  0  0  0  0
 20 22  2  0  0  0  0
 20 40  1  0  0  0  0
 21 50  1  0  0  0  0
 22 41  1  0  0  0  0
 23 31  1  0  0  0  0
 23 54  1  0  0  0  0
 24 31  2  0  0  0  0
 24 65  1  0  0  0  0
 25 70  1  0  0  0  0
 26 79  1  0  0  0  0
 27 80  1  0  0  0  0
 28 30  2  0  0  0  0
 28 79  1  0  0  0  0
 29 81  1  0  0  0  0
 30 82  1  0  0  0  0
 31 83  1  0  0  0  0
 32 63  2  0  0  0  0
 33 64  1  0  0  0  0
 33 68  1  0  0  0  0
 34 69  1  0  0  0  0
 34 74  2  0  0  0  0
 35 51  1  0  0  0  0
 35 71  1  0  0  0  0
 35 75  2  0  0  0  0
 36 60  1  0  0  0  0
 36 66  1  0  0  0  0
 36 76  2  0  0  0  0
 37 61  1  0  0  0  0
 37 72  1  0  0  0  0
 37 77  2  0  0  0  0
 38 67  1  0  0  0  0
 38 70  1  0  0  0  0
 38 78  2  0  0  0  0
 39 42  1  0  0  0  0
 40 51  1  0  0  0  0
 41 66  1  0  0  0  0
 42 44  1  0  0  0  0
 43 45  1  0  0  0  0
 43 46  1  0  0  0  0
 44 50  1  0  0  0  0
 45 52  1  0  0  0  0
 46 67  1  0  0  0  0
 47 52  1  0  0  0  0
 47 67  1  0  0  0  0
 48 53  1  0  0  0  0
 48 65  1  0  0  0  0
 49 53  1  0  0  0  0
 49 65  1  0  0  0  0
 50 71  1  0  0  0  0
 51 66  1  0  0  0  0
 52 64  1  0  0  0  0
 53 80  1  0  0  0  0
 55 61  1  0  0  0  0
 56 62  1  0  0  0  0
 57 62  1  0  0  0  0
 58 62  1  0  0  0  0
 59 73  1  0  0  0  0
 60 62  1  0  0  0  0
 60 72  1  0  0  0  0
 61 73  1  0  0  0  0
 63 64  1  0  0  0  0
M  CHG  1  73   1
M  ISO  4  38 100  53 101  70 100  80 101
M  END
> <Batch ID>
0028

> <Smiles>
CNC(C)C(=O)NC(C(=O)N1Cc2cc([101O:1][101CH:1]3CN(c4cc([100NH:0][100C:0](=O)N5CCCC(n6nc(-c7ccc(Oc8ccc(F)cc8F)cc7)c(C(N)=O)c6N)C5)cc(C)c4F)C3)ccc2CC1C(=O)NC1CCCc2ccccc21)C(C)(C)C

> <Shape>
0.245

> <Color>
0.065

> <Negative vol penalty>
0.000

$$$$

  -OEChem-04042321313D

 83 92  0     1  0  0  0  0  0999 V2000
  -19.4058  -18.5473   36.3857 C   0  0  0  0  0  0  0  0  0  0  0  0
  -20.4462  -18.1114   35.5714 C   0  0  0  0  0  0  0  0  0  0  0  0
  -23.0752   -9.8686   19.9404 C   0  0  0  0  0  0  0  0  0  0  0  0
  -23.8348   -9.8749   22.2339 C   0  0  0  0  0  0  0  0  0  0  0  0
  -18.3958  -19.3489   35.8553 C   0  0  0  0  0  0  0  0  0  0  0  0
  -20.4765  -18.4760   34.2259 C   0  0  0  0  0  0  0  0  0  0  0  0
  -25.4439  -19.6408   30.8385 C   0  0  0  0  0  0  0  0  0  0  0  0
  -22.3309   -8.7157   20.1900 C   0  0  0  0  0  0  0  0  0  0  0  0
  -23.0904   -8.7219   22.4836 C   0  0  0  0  0  0  0  0  0  0  0  0
  -26.1646  -18.8640   29.9324 C   0  0  0  0  0  0  0  0  0  0  0  0
  -19.8619   -7.9251   23.0854 C   0  0  0  0  0  0  0  0  0  0  0  0
  -19.1047   -7.8852   24.2562 C   0  0  0  0  0  0  0  0  0  0  0  0
  -24.9180  -19.8409   28.1128 C   0  0  0  0  0  0  0  0  0  0  0  0
  -29.9037  -17.4620   23.1494 C   0  0  0  0  0  0  0  0  0  0  0  0
  -20.3453   -5.9472   24.9924 C   0  0  0  0  0  0  0  0  0  0  0  0
  -32.0526  -16.6247   22.5683 C   0  0  0  0  0  0  0  0  0  0  0  0
  -23.8272  -10.4482   20.9624 C   0  0  0  0  0  0  0  0  0  0  0  0
  -24.1700  -12.9733   20.8429 C   0  0  0  0  0  0  0  0  0  0  0  0
  -18.4190  -19.7314   34.5048 C   0  0  0  0  0  0  0  0  0  0  0  0
  -24.4457  -20.5169   30.3887 C   0  0  0  0  0  0  0  0  0  0  0  0
  -19.4652  -19.2823   33.6765 C   0  0  0  0  0  0  0  0  0  0  0  0
  -24.1879  -20.6295   29.0150 C   0  0  0  0  0  0  0  0  0  0  0  0
  -30.5179  -18.3316   24.0437 C   0  0  0  0  0  0  0  0  0  0  0  0
  -30.6786  -16.5890   22.3938 C   0  0  0  0  0  0  0  0  0  0  0  0
  -22.3385   -8.1423   21.4616 C   0  0  0  0  0  0  0  0  0  0  0  0
  -25.8997  -18.9618   28.5695 C   0  0  0  0  0  0  0  0  0  0  0  0
  -20.8607   -6.9760   22.8681 C   0  0  0  0  0  0  0  0  0  0  0  0
  -19.3464   -6.8963   25.2097 C   0  0  0  0  0  0  0  0  0  0  0  0
  -21.1024   -5.9871   23.8216 C   0  0  0  0  0  0  0  0  0  0  0  0
  -24.5968  -11.6389   20.7050 C   0  0  0  0  0  0  0  0  0  0  0  0
  -31.8992  -18.2892   24.1444 C   0  0  0  0  0  0  0  0  0  0  0  0
  -25.2624  -13.7224   20.4800 C   0  0  0  0  0  0  0  0  0  0  0  0
  -22.8996  -13.4894   21.2618 C   0  0  0  0  0  0  0  0  0  0  0  0
  -21.3085  -20.7628   30.8369 C   0  0  0  0  0  0  0  0  0  0  0  0
  -21.6768  -23.5111   29.1536 C   0  0  0  0  0  0  0  0  0  0  0  0
  -23.5066  -25.3049   26.8995 C   0  0  0  0  0  0  0  0  0  0  0  0
  -30.7290  -14.7661   20.6558 C   0  0  0  0  0  0  0  0  0  0  0  0
  -17.2799  -20.5599   33.9654 C   0  0  0  0  0  0  0  0  0  0  0  0
  -23.6957  -21.3675   31.3767 C   0  0  0  0  0  0  0  0  0  0  0  0
  -23.1405  -21.5699   28.4792 C   0  0  0  0  0  0  0  0  0  0  0  0
  -17.5848  -21.2111   32.6188 C   0  0  0  0  0  0  0  0  0  0  0  0
  -29.6141  -12.3531   18.2869 C   0  0  0  0  0  0  0  0  0  0  0  0
  -18.2140  -20.1991   31.6666 C   0  0  0  0  0  0  0  0  0  0  0  0
  -28.1743  -12.0620   18.7162 C   0  0  0  0  0  0  0  0  0  0  0  0
  -30.5291  -12.5814   19.4887 C   0  0  0  0  0  0  0  0  0  0  0  0
  -28.6222  -13.3062   20.8698 C   0  0  0  0  0  0  0  0  0  0  0  0
  -28.5528  -19.6593   26.9960 C   0  0  0  0  0  0  0  0  0  0  0  0
  -28.7208  -17.6576   26.4237 C   0  0  0  0  0  0  0  0  0  0  0  0
  -19.5463  -19.6771   32.2179 C   0  0  1  0  0  0  0  0  0  0  0  0
  -22.3474  -21.8482   30.8490 C   0  0  1  0  0  0  0  0  0  0  0  0
  -27.6495  -13.1335   19.6918 C   0  0  2  0  0  0  0  0  0  0  0  0
  -28.0287  -18.3494   27.6111 C   0  0  0  0  0  0  0  0  0  1  0  0
  -32.6140  -19.2003   25.0877 C   0  0  0  0  0  0  0  0  0  0  0  0
  -23.5369  -27.5045   25.6920 C   0  0  0  0  0  0  0  0  0  0  0  0
  -19.4869  -22.5096   27.2796 C   0  0  0  0  0  0  0  0  0  0  0  0
  -20.2159  -24.2352   25.6186 C   0  0  0  0  0  0  0  0  0  0  0  0
  -19.3435  -24.9412   27.8464 C   0  0  0  0  0  0  0  0  0  0  0  0
  -26.0900  -26.0727   28.1226 C   0  0  0  0  0  0  0  0  0  0  0  0
  -29.6866  -19.2752   24.8619 C   0  0  0  0  0  0  0  0  0  0  0  0
  -21.6343  -23.8828   27.6910 C   0  0  1  0  0  0  0  0  0  0  0  0
  -24.0047  -26.7387   26.9198 C   0  0  2  0  0  0  0  0  0  0  0  0
  -20.1886  -23.8730   27.1188 C   0  0  0  0  0  0  0  0  0  0  0  0
  -32.6852  -17.4553   23.4272 N   0  0  0  0  0  0  0  0  0  0  0  0
  -25.8617  -11.5427   20.2869 N   0  0  0  0  0  0  0  0  0  0  0  0
  -26.2390  -12.8261   20.1589 N   0  0  0  0  0  0  0  0  0  0  0  0
  -22.4296  -22.3758   29.4855 N   0  0  0  0  0  0  0  0  0  0  0  0
  -29.9703  -13.6122   20.3662 N   0  0  0  0  0  0  0  0  0  0  0  0
  -25.4733  -15.0538   20.4073 N   0  0  0  0  0  0  0  0  0  0  0  0
  -21.8873  -12.5805   21.5987 N   0  0  0  0  0  0  0  0  0  0  0  0
  -30.0818  -15.6912   21.4743 N   0  0  0  0  0  0  0  0  0  0  0  0
  -20.5946  -20.6541   32.0151 N   0  0  0  0  0  0  0  0  0  0  0  0
  -22.3133  -25.1690   27.5769 N   0  0  0  0  0  0  0  0  0  0  0  0
  -29.5615  -18.8601   26.2763 N   0  3  0  0  0  0  0  0  0  0  0  0
  -25.4942  -26.7693   26.9534 N   0  3  0  0  0  0  0  0  0  0  0  0
  -22.6638  -14.7201   21.3193 O   0  0  0  0  0  0  0  0  0  0  0  0
  -21.1641  -20.0758   29.8324 O   0  0  0  0  0  0  0  0  0  0  0  0
  -21.0703  -24.2066   29.9722 O   0  0  0  0  0  0  0  0  0  0  0  0
  -24.1135  -24.3969   26.3357 O   0  0  0  0  0  0  0  0  0  0  0  0
  -31.8582  -14.9345   20.1884 O   0  0  0  0  0  0  0  0  0  0  0  0
  -21.6121   -7.0175   21.7056 O   0  0  0  0  0  0  0  0  0  0  0  0
  -26.6012  -18.2043   27.6830 O   0  0  0  0  0  0  0  0  0  1  0  0
  -18.6203   -6.8590   26.3346 F   0  0  0  0  0  0  0  0  0  0  0  0
  -22.0615   -5.0733   23.6189 F   0  0  0  0  0  0  0  0  0  0  0  0
  1  2  1  0  0  0  0
  1  5  2  0  0  0  0
  2  6  2  0  0  0  0
  3  8  2  0  0  0  0
  3 17  1  0  0  0  0
  4  9  1  0  0  0  0
  4 17  2  0  0  0  0
  5 19  1  0  0  0  0
  6 21  1  0  0  0  0
  7 10  2  0  0  0  0
  7 20  1  0  0  0  0
  8 25  1  0  0  0  0
  9 25  2  0  0  0  0
 10 26  1  0  0  0  0
 11 12  2  0  0  0  0
 11 27  1  0  0  0  0
 12 28  1  0  0  0  0
 13 22  1  0  0  0  0
 13 26  2  0  0  0  0
 14 23  1  0  0  0  0
 14 24  2  0  0  0  0
 15 28  2  0  0  0  0
 15 29  1  0  0  0  0
 16 24  1  0  0  0  0
 16 63  2  0  0  0  0
 17 30  1  0  0  0  0
 18 30  1  0  0  0  0
 18 32  2  0  0  0  0
 18 33  1  0  0  0  0
 19 21  2  0  0  0  0
 19 38  1  0  0  0  0
 20 22  2  0  0  0  0
 20 39  1  0  0  0  0
 21 49  1  0  0  0  0
 22 40  1  0  0  0  0
 23 31  2  0  0  0  0
 23 59  1  0  0  0  0
 24 70  1  0  0  0  0
 25 80  1  0  0  0  0
 26 81  1  0  0  0  0
 27 29  2  0  0  0  0
 27 80  1  0  0  0  0
 28 82  1  0  0  0  0
 29 83  1  0  0  0  0
 30 64  2  0  0  0  0
 31 53  1  0  0  0  0
 31 63  1  0  0  0  0
 32 65  1  0  0  0  0
 32 68  1  0  0  0  0
 33 69  1  0  0  0  0
 33 75  2  0  0  0  0
 34 50  1  0  0  0  0
 34 71  1  0  0  0  0
 34 76  2  0  0  0  0
 35 60  1  0  0  0  0
 35 66  1  0  0  0  0
 35 77  2  0  0  0  0
 36 61  1  0  0  0  0
 36 72  1  0  0  0  0
 36 78  2  0  0  0  0
 37 67  1  0  0  0  0
 37 70  1  0  0  0  0
 37 79  2  0  0  0  0
 38 41  1  0  0  0  0
 39 50  1  0  0  0  0
 40 66  1  0  0  0  0
 41 43  1  0  0  0  0
 42 44  1  0  0  0  0
 42 45  1  0  0  0  0
 43 49  1  0  0  0  0
 44 51  1  0  0  0  0
 45 67  1  0  0  0  0
 46 51  1  0  0  0  0
 46 67  1  0  0  0  0
 47 52  1  0  0  0  0
 47 73  1  0  0  0  0
 48 52  1  0  0  0  0
 48 73  1  0  0  0  0
 49 71  1  0  0  0  0
 50 66  1  0  0  0  0
 51 65  1  0  0  0  0
 52 81  1  0  0  0  0
 54 61  1  0  0  0  0
 55 62  1  0  0  0  0
 56 62  1  0  0  0  0
 57 62  1  0  0  0  0
 58 74  1  0  0  0  0
 59 73  1  0  0  0  0
 60 62  1  0  0  0  0
 60 72  1  0  0  0  0
 61 74  1  0  0  0  0
 64 65  1  0  0  0  0
M  CHG  2  73   1  74   1
M  ISO  4  37 100  52 101  70 100  81 101
M  END
> <Batch ID>
0028

> <Smiles>
CNC(C)C(=O)NC(C(=O)N1Cc2cc([101O:1][101CH:1]3CN(Cc4cc([100NH:0][100C:0](=O)N5CCCC(n6nc(-c7ccc(Oc8ccc(F)cc8F)cc7)c(C(N)=O)c6N)C5)cnc4C)C3)ccc2CC1C(=O)NC1CCCc2ccccc21)C(C)(C)C

> <Shape>
0.166

> <Color>
0.184

> <Negative vol penalty>
0.000

$$$$

  -OEChem-04042321313D

 86 95  0     1  0  0  0  0  0999 V2000
  -19.1620  -32.8305   16.4359 C   0  0  0  0  0  0  0  0  0  0  0  0
  -19.6199  -31.5636   16.7832 C   0  0  0  0  0  0  0  0  0  0  0  0
  -23.5193   -9.8076   21.7877 C   0  0  0  0  0  0  0  0  0  0  0  0
  -24.1630  -11.0393   23.7640 C   0  0  0  0  0  0  0  0  0  0  0  0
  -20.0528  -33.9017   16.3810 C   0  0  0  0  0  0  0  0  0  0  0  0
  -20.9692  -31.3669   17.0748 C   0  0  0  0  0  0  0  0  0  0  0  0
  -23.3189  -27.4891   21.1916 C   0  0  0  0  0  0  0  0  0  0  0  0
  -22.9155   -8.8382   22.5885 C   0  0  0  0  0  0  0  0  0  0  0  0
  -23.5592  -10.0699   24.5648 C   0  0  0  0  0  0  0  0  0  0  0  0
  -23.8688  -26.2136   21.0716 C   0  0  0  0  0  0  0  0  0  0  0  0
  -20.0257   -8.4724   24.3054 C   0  0  0  0  0  0  0  0  0  0  0  0
  -18.7594   -8.0211   23.9334 C   0  0  0  0  0  0  0  0  0  0  0  0
  -26.0775  -27.1800   20.9907 C   0  0  0  0  0  0  0  0  0  0  0  0
  -27.5573  -20.5070   19.4655 C   0  0  0  0  0  0  0  0  0  0  0  0
  -19.6211   -5.7733   23.7275 C   0  0  0  0  0  0  0  0  0  0  0  0
  -24.1431  -10.9081   22.3754 C   0  0  0  0  0  0  0  0  0  0  0  0
  -24.1697  -13.0696   21.0208 C   0  0  0  0  0  0  0  0  0  0  0  0
  -21.4120  -33.7199   16.6814 C   0  0  0  0  0  0  0  0  0  0  0  0
  -24.1449  -28.6223   21.2010 C   0  0  0  0  0  0  0  0  0  0  0  0
  -21.8793  -32.4363   17.0225 C   0  0  0  0  0  0  0  0  0  0  0  0
  -25.5358  -28.4686   21.1135 C   0  0  0  0  0  0  0  0  0  0  0  0
  -28.9465  -19.2523   21.5339 C   0  0  0  0  0  0  0  0  0  0  0  0
  -29.1982  -18.8971   20.2087 C   0  0  0  0  0  0  0  0  0  0  0  0
  -27.3055  -20.8622   20.7906 C   0  0  0  0  0  0  0  0  0  0  0  0
  -22.9354   -8.9694   23.9770 C   0  0  0  0  0  0  0  0  0  0  0  0
  -25.2481  -26.0590   20.9682 C   0  0  0  0  0  0  0  0  0  0  0  0
  -21.0897   -7.5742   24.3885 C   0  0  0  0  0  0  0  0  0  0  0  0
  -18.5571   -6.6715   23.6444 C   0  0  0  0  0  0  0  0  0  0  0  0
  -28.5036  -19.5244   19.1745 C   0  0  0  0  0  0  0  0  0  0  0  0
  -20.8874   -6.2247   24.0995 C   0  0  0  0  0  0  0  0  0  0  0  0
  -28.0001  -20.2349   21.8248 C   0  0  0  0  0  0  0  0  0  0  0  0
  -24.7675  -11.9096   21.5488 C   0  0  0  0  0  0  0  0  0  0  0  0
  -25.1748  -13.6820   20.3128 C   0  0  0  0  0  0  0  0  0  0  0  0
  -22.8261  -13.5506   21.1581 C   0  0  0  0  0  0  0  0  0  0  0  0
  -24.4686  -31.1777   19.3386 C   0  0  0  0  0  0  0  0  0  0  0  0
  -26.5353  -32.1206   21.6542 C   0  0  0  0  0  0  0  0  0  0  0  0
  -28.6306  -31.2417   24.2006 C   0  0  0  0  0  0  0  0  0  0  0  0
  -30.4716  -15.3802   19.8599 C   0  0  0  0  0  0  0  0  0  0  0  0
  -22.3456  -34.8984   16.5625 C   0  0  0  0  0  0  0  0  0  0  0  0
  -23.5379  -29.9895   21.3580 C   0  0  0  0  0  0  0  0  0  0  0  0
  -26.4675  -29.6517   21.1392 C   0  0  0  0  0  0  0  0  0  0  0  0
  -23.6909  -34.6815   17.2504 C   0  0  0  0  0  0  0  0  0  0  0  0
  -29.7573  -12.0048   18.9806 C   0  0  0  0  0  0  0  0  0  0  0  0
  -24.2589  -33.3118   16.8924 C   0  0  0  0  0  0  0  0  0  0  0  0
  -28.3494  -11.7733   19.5321 C   0  0  0  0  0  0  0  0  0  0  0  0
  -24.7736  -23.1183   22.2395 C   0  0  0  0  0  0  0  0  0  0  0  0
  -30.5815  -12.9058   19.8977 C   0  0  0  0  0  0  0  0  0  0  0  0
  -26.0351  -22.2753   22.4258 C   0  0  0  0  0  0  0  0  0  0  0  0
  -28.5395  -13.9629   20.7843 C   0  0  0  0  0  0  0  0  0  0  0  0
  -25.5977  -22.5504   20.0586 C   0  0  0  0  0  0  0  0  0  0  0  0
  -23.3312  -32.1880   17.3697 C   0  0  1  0  0  0  0  0  0  0  0  0
  -24.4386  -31.1062   20.8391 C   0  0  1  0  0  0  0  0  0  0  0  0
  -27.6518  -13.1057   19.8660 C   0  0  2  0  0  0  0  0  0  0  0  0
  -24.9260  -23.6826   20.8345 C   0  0  2  0  0  0  0  0  0  1  0  0
  -29.6809  -18.5930   22.6551 C   0  0  0  0  0  0  0  0  0  0  0  0
  -30.2106  -32.2293   25.8815 C   0  0  0  0  0  0  0  0  0  0  0  0
  -28.6166  -32.5205   19.4593 C   0  0  0  0  0  0  0  0  0  0  0  0
  -30.3793  -32.5722   21.2365 C   0  0  0  0  0  0  0  0  0  0  0  0
  -28.5881  -34.3081   21.2080 C   0  0  0  0  0  0  0  0  0  0  0  0
  -27.0361  -30.2174   26.4738 C   0  0  0  0  0  0  0  0  0  0  0  0
  -30.2078  -17.8479   19.8762 C   0  0  0  0  0  0  0  0  0  0  0  0
  -28.0140  -31.9461   21.9032 C   0  0  1  0  0  0  0  0  0  0  0  0
  -28.7828  -31.7808   25.6115 C   0  0  2  0  0  0  0  0  0  0  0  0
  -28.8821  -32.8143   20.9493 C   0  0  0  0  0  0  0  0  0  0  0  0
  -26.0527  -11.7898   21.2054 N   0  0  0  0  0  0  0  0  0  0  0  0
  -26.2708  -12.8825   20.4540 N   0  0  0  0  0  0  0  0  0  0  0  0
  -26.3695  -21.8343   21.0750 N   0  0  3  0  0  0  0  0  0  0  0  0
  -25.8256  -30.9682   21.2879 N   0  0  0  0  0  0  0  0  0  0  0  0
  -29.8646  -14.1530   20.1739 N   0  0  0  0  0  0  0  0  0  0  0  0
  -25.2192  -14.8209   19.5894 N   0  0  0  0  0  0  0  0  0  0  0  0
  -21.9218  -12.7986   21.9204 N   0  0  0  0  0  0  0  0  0  0  0  0
  -23.4827  -31.9780   18.7936 N   0  0  0  0  0  0  0  0  0  0  0  0
  -28.2247  -32.2222   23.3202 N   0  0  0  0  0  0  0  0  0  0  0  0
  -29.7212  -16.5136   20.1480 N   0  0  0  0  0  0  0  0  0  0  0  0
  -28.4229  -30.7329   26.6081 N   0  3  0  0  0  0  0  0  0  0  0  0
  -22.4344  -14.6073   20.6072 O   0  0  0  0  0  0  0  0  0  0  0  0
  -25.3239  -30.5542   18.7210 O   0  0  0  0  0  0  0  0  0  0  0  0
  -26.0272  -33.2368   21.7871 O   0  0  0  0  0  0  0  0  0  0  0  0
  -28.8534  -30.0689   23.9080 O   0  0  0  0  0  0  0  0  0  0  0  0
  -31.5966  -15.4597   19.3549 O   0  0  0  0  0  0  0  0  0  0  0  0
  -22.3461   -8.0237   24.7587 O   0  0  0  0  0  0  0  0  0  0  0  0
  -25.7874  -24.8152   20.8504 O   0  0  0  0  0  0  0  0  0  1  0  0
  -17.3407   -6.2380   23.2887 F   0  0  0  0  0  0  0  0  0  0  0  0
  -28.7384  -19.1913   17.8973 F   0  0  0  0  0  0  0  0  0  0  0  0
  -21.9054   -5.3569   24.1787 F   0  0  0  0  0  0  0  0  0  0  0  0
  -27.7583  -20.5757   23.0996 F   0  0  0  0  0  0  0  0  0  0  0  0
  1  2  1  0  0  0  0
  1  5  2  0  0  0  0
  2  6  2  0  0  0  0
  3  8  2  0  0  0  0
  3 16  1  0  0  0  0
  4  9  1  0  0  0  0
  4 16  2  0  0  0  0
  5 18  1  0  0  0  0
  6 20  1  0  0  0  0
  7 10  2  0  0  0  0
  7 19  1  0  0  0  0
  8 25  1  0  0  0  0
  9 25  2  0  0  0  0
 10 26  1  0  0  0  0
 11 12  2  0  0  0  0
 11 27  1  0  0  0  0
 12 28  1  0  0  0  0
 13 21  1  0  0  0  0
 13 26  2  0  0  0  0
 14 24  1  0  0  0  0
 14 29  2  0  0  0  0
 15 28  2  0  0  0  0
 15 30  1  0  0  0  0
 16 32  1  0  0  0  0
 17 32  1  0  0  0  0
 17 33  2  0  0  0  0
 17 34  1  0  0  0  0
 18 20  2  0  0  0  0
 18 39  1  0  0  0  0
 19 21  2  0  0  0  0
 19 40  1  0  0  0  0
 20 51  1  0  0  0  0
 21 41  1  0  0  0  0
 22 23  2  0  0  0  0
 22 31  1  0  0  0  0
 22 55  1  0  0  0  0
 23 29  1  0  0  0  0
 23 61  1  0  0  0  0
 24 31  2  0  0  0  0
 24 67  1  0  0  0  0
 25 81  1  0  0  0  0
 26 82  1  0  0  0  0
 27 30  2  0  0  0  0
 27 81  1  0  0  0  0
 28 83  1  0  0  0  0
 29 84  1  0  0  0  0
 30 85  1  0  0  0  0
 31 86  1  0  0  0  0
 32 65  2  0  0  0  0
 33 66  1  0  0  0  0
 33 70  1  0  0  0  0
 34 71  1  0  0  0  0
 34 76  2  0  0  0  0
 35 52  1  0  0  0  0
 35 72  1  0  0  0  0
 35 77  2  0  0  0  0
 36 62  1  0  0  0  0
 36 68  1  0  0  0  0
 36 78  2  0  0  0  0
 37 63  1  0  0  0  0
 37 73  1  0  0  0  0
 37 79  2  0  0  0  0
 38 69  1  0  0  0  0
 38 74  1  0  0  0  0
 38 80  2  0  0  0  0
 39 42  1  0  0  0  0
 40 52  1  0  0  0  0
 41 68  1  0  0  0  0
 42 44  1  0  0  0  0
 43 45  1  0  0  0  0
 43 47  1  0  0  0  0
 44 51  1  0  0  0  0
 45 53  1  0  0  0  0
 46 48  1  0  0  0  0
 46 54  1  0  0  0  0
 47 69  1  0  0  0  0
 48 67  1  0  0  0  0
 49 53  1  0  0  0  0
 49 69  1  0  0  0  0
 50 54  1  0  0  0  0
 50 67  1  0  0  0  0
 51 72  1  0  0  0  0
 52 68  1  0  0  0  0
 53 66  1  0  0  0  0
 54 82  1  0  0  0  0
 56 63  1  0  0  0  0
 57 64  1  0  0  0  0
 58 64  1  0  0  0  0
 59 64  1  0  0  0  0
 60 75  1  0  0  0  0
 61 74  1  0  0  0  0
 62 64  1  0  0  0  0
 62 73  1  0  0  0  0
 63 75  1  0  0  0  0
 65 66  1  0  0  0  0
M  CHG  1  75   1
M  ISO  4  38 100  54 101  74 100  82 101
M  END
> <Batch ID>
0028

> <Smiles>
CNC(C)C(=O)NC(C(=O)N1Cc2cc([101O:1][101CH:1]3CCN(c4cc(F)c(C[100NH:0][100C:0](=O)N5CCCC(n6nc(-c7ccc(Oc8ccc(F)cc8F)cc7)c(C(N)=O)c6N)C5)c(C)c4F)C3)ccc2CC1C(=O)NC1CCCc2ccccc21)C(C)(C)C

> <Shape>
0.245

> <Color>
0.135

> <Negative vol penalty>
0.000

$$$$

  -OEChem-04042321313D

 85 94  0     1  0  0  0  0  0999 V2000
  -21.6320  -11.9517   21.5853 C   0  0  0  0  0  0  0  0  0  0  0  0
  -21.6830  -13.3014   21.9184 C   0  0  0  0  0  0  0  0  0  0  0  0
  -31.4973  -25.9756   20.5445 C   0  0  0  0  0  0  0  0  0  0  0  0
  -30.7310  -26.6704   22.7278 C   0  0  0  0  0  0  0  0  0  0  0  0
  -22.7816  -11.3010   21.1392 C   0  0  0  0  0  0  0  0  0  0  0  0
  -22.8840  -14.0011   21.8066 C   0  0  0  0  0  0  0  0  0  0  0  0
  -22.2971  -18.5308   19.6198 C   0  0  0  0  0  0  0  0  0  0  0  0
  -32.8172  -26.1976   20.9370 C   0  0  0  0  0  0  0  0  0  0  0  0
  -32.0509  -26.8923   23.1205 C   0  0  0  0  0  0  0  0  0  0  0  0
  -21.7810  -19.5571   20.4098 C   0  0  0  0  0  0  0  0  0  0  0  0
  -35.2416  -27.2980   24.8155 C   0  0  0  0  0  0  0  0  0  0  0  0
  -35.6337  -26.8289   26.0693 C   0  0  0  0  0  0  0  0  0  0  0  0
  -24.0108  -20.4168   20.7388 C   0  0  0  0  0  0  0  0  0  0  0  0
  -19.4994  -26.0327   22.8216 C   0  0  0  0  0  0  0  0  0  0  0  0
  -35.0828  -24.5744   25.3980 C   0  0  0  0  0  0  0  0  0  0  0  0
  -19.4823  -28.4407   23.0173 C   0  0  0  0  0  0  0  0  0  0  0  0
  -30.4542  -26.2121   21.4398 C   0  0  0  0  0  0  0  0  0  0  0  0
  -28.3561  -24.7887   21.1574 C   0  0  0  0  0  0  0  0  0  0  0  0
  -23.9951  -11.9954   21.0127 C   0  0  0  0  0  0  0  0  0  0  0  0
  -23.6773  -18.4333   19.3920 C   0  0  0  0  0  0  0  0  0  0  0  0
  -24.0512  -13.3588   21.3597 C   0  0  0  0  0  0  0  0  0  0  0  0
  -24.5416  -19.3898   19.9435 C   0  0  0  0  0  0  0  0  0  0  0  0
  -20.6501  -26.1047   22.0366 C   0  0  0  0  0  0  0  0  0  0  0  0
  -21.2170  -27.3446   21.7420 C   0  0  0  0  0  0  0  0  0  0  0  0
  -33.0941  -26.6559   22.2250 C   0  0  0  0  0  0  0  0  0  0  0  0
  -22.6382  -20.4987   20.9718 C   0  0  0  0  0  0  0  0  0  0  0  0
  -34.7701  -26.4052   23.8530 C   0  0  0  0  0  0  0  0  0  0  0  0
  -35.5543  -25.4671   26.3605 C   0  0  0  0  0  0  0  0  0  0  0  0
  -18.9154  -27.2007   23.3120 C   0  0  0  0  0  0  0  0  0  0  0  0
  -20.6330  -28.5127   22.2323 C   0  0  0  0  0  0  0  0  0  0  0  0
  -34.6907  -25.0434   24.1443 C   0  0  0  0  0  0  0  0  0  0  0  0
  -29.0904  -25.9835   21.0347 C   0  0  0  0  0  0  0  0  0  0  0  0
  -27.1234  -25.0878   20.6305 C   0  0  0  0  0  0  0  0  0  0  0  0
  -21.7191  -23.8240   22.3223 C   0  0  0  0  0  0  0  0  0  0  0  0
  -28.7527  -23.5219   21.6992 C   0  0  0  0  0  0  0  0  0  0  0  0
  -25.9113  -16.2686   20.0458 C   0  0  0  0  0  0  0  0  0  0  0  0
  -27.7851  -18.2379   18.2757 C   0  0  0  0  0  0  0  0  0  0  0  0
  -28.3564  -21.3762   17.0627 C   0  0  0  0  0  0  0  0  0  0  0  0
  -22.7476  -28.4901   20.1014 C   0  0  0  0  0  0  0  0  0  0  0  0
  -25.2223  -11.2380   20.5712 C   0  0  0  0  0  0  0  0  0  0  0  0
  -24.2155  -17.3357   18.5155 C   0  0  0  0  0  0  0  0  0  0  0  0
  -26.0292  -19.3413   19.7126 C   0  0  0  0  0  0  0  0  0  0  0  0
  -26.3679  -12.1422   20.1237 C   0  0  0  0  0  0  0  0  0  0  0  0
  -25.5542  -29.1196   18.0030 C   0  0  0  0  0  0  0  0  0  0  0  0
  -26.5778  -13.2733   21.1255 C   0  0  0  0  0  0  0  0  0  0  0  0
  -26.6640  -28.2615   18.6147 C   0  0  0  0  0  0  0  0  0  0  0  0
  -21.6796  -23.1643   20.0326 C   0  0  0  0  0  0  0  0  0  0  0  0
  -24.6464  -29.7209   19.0744 C   0  0  0  0  0  0  0  0  0  0  0  0
  -21.4355  -24.6563   20.1302 C   0  0  0  0  0  0  0  0  0  0  0  0
  -25.1922  -27.8955   20.6363 C   0  0  0  0  0  0  0  0  0  0  0  0
  -25.3295  -14.1580   21.2281 C   0  0  1  0  0  0  0  0  0  0  0  0
  -22.3453  -22.8357   21.3561 C   0  0  2  0  0  0  0  0  0  1  0  0
  -25.6888  -17.0343   18.7722 C   0  0  1  0  0  0  0  0  0  0  0  0
  -26.0935  -27.2157   19.5926 C   0  0  2  0  0  0  0  0  0  0  0  0
  -29.9882  -22.6857   15.6771 C   0  0  0  0  0  0  0  0  0  0  0  0
  -29.7346  -18.2867   20.6224 C   0  0  0  0  0  0  0  0  0  0  0  0
  -30.8160  -20.2960   19.5919 C   0  0  0  0  0  0  0  0  0  0  0  0
  -30.8141  -18.1197   18.3726 C   0  0  0  0  0  0  0  0  0  0  0  0
  -26.2915  -22.0406   15.0493 C   0  0  0  0  0  0  0  0  0  0  0  0
  -28.6616  -19.4309   18.5716 C   0  0  1  0  0  0  0  0  0  0  0  0
  -28.7049  -21.8698   15.6700 C   0  0  2  0  0  0  0  0  0  0  0  0
  -29.9788  -19.0334   19.2958 C   0  0  0  0  0  0  0  0  0  0  0  0
  -28.3834  -26.9681   20.4738 N   0  0  0  0  0  0  0  0  0  0  0  0
  -27.1918  -26.3925   20.2392 N   0  0  0  0  0  0  0  0  0  0  0  0
  -21.2299  -24.8956   21.5478 N   0  0  0  0  0  0  0  0  0  0  0  0
  -26.5077  -18.2455   18.8537 N   0  0  0  0  0  0  0  0  0  0  0  0
  -24.1398  -28.6710   19.9610 N   0  0  0  0  0  0  0  0  0  0  0  0
  -25.9985  -24.3593   20.4683 N   0  0  0  0  0  0  0  0  0  0  0  0
  -30.0553  -23.3871   22.1984 N   0  0  0  0  0  0  0  0  0  0  0  0
  -22.3847  -27.4408   20.9452 N   0  0  0  0  0  0  0  0  0  0  0  0
  -25.2516  -15.0554   20.0954 N   0  0  0  0  0  0  0  0  0  0  0  0
  -28.8624  -20.1155   17.2991 N   0  0  0  0  0  0  0  0  0  0  0  0
  -27.6078  -22.7241   15.1337 N   0  3  0  0  0  0  0  0  0  0  0  0
  -21.7110  -23.6574   23.5329 O   0  0  0  0  0  0  0  0  0  0  0  0
  -27.9802  -22.5339   21.7244 O   0  0  0  0  0  0  0  0  0  0  0  0
  -26.6295  -16.7427   20.9182 O   0  0  0  0  0  0  0  0  0  0  0  0
  -28.2153  -17.3360   17.5525 O   0  0  0  0  0  0  0  0  0  0  0  0
  -27.7040  -22.0438   17.8622 O   0  0  0  0  0  0  0  0  0  0  0  0
  -21.9371  -29.1952   19.4949 O   0  0  0  0  0  0  0  0  0  0  0  0
  -34.3819  -26.8724   22.6085 O   0  0  0  0  0  0  0  0  0  0  0  0
  -22.1372  -21.5011   21.7438 O   0  0  0  0  0  0  0  0  0  1  0  0
  -35.9323  -25.0166   27.5640 F   0  0  0  0  0  0  0  0  0  0  0  0
  -17.8109  -27.1316   24.0667 F   0  0  0  0  0  0  0  0  0  0  0  0
  -21.1680  -29.7107   21.9565 F   0  0  0  0  0  0  0  0  0  0  0  0
  -34.2397  -24.1808   23.2233 F   0  0  0  0  0  0  0  0  0  0  0  0
  1  2  1  0  0  0  0
  1  5  2  0  0  0  0
  2  6  2  0  0  0  0
  3  8  2  0  0  0  0
  3 17  1  0  0  0  0
  4  9  1  0  0  0  0
  4 17  2  0  0  0  0
  5 19  1  0  0  0  0
  6 21  1  0  0  0  0
  7 10  2  0  0  0  0
  7 20  1  0  0  0  0
  8 25  1  0  0  0  0
  9 25  2  0  0  0  0
 10 26  1  0  0  0  0
 11 12  2  0  0  0  0
 11 27  1  0  0  0  0
 12 28  1  0  0  0  0
 13 22  1  0  0  0  0
 13 26  2  0  0  0  0
 14 23  1  0  0  0  0
 14 29  2  0  0  0  0
 15 28  2  0  0  0  0
 15 31  1  0  0  0  0
 16 29  1  0  0  0  0
 16 30  2  0  0  0  0
 17 32  1  0  0  0  0
 18 32  1  0  0  0  0
 18 33  2  0  0  0  0
 18 35  1  0  0  0  0
 19 21  2  0  0  0  0
 19 40  1  0  0  0  0
 20 22  2  0  0  0  0
 20 41  1  0  0  0  0
 21 51  1  0  0  0  0
 22 42  1  0  0  0  0
 23 24  2  0  0  0  0
 23 65  1  0  0  0  0
 24 30  1  0  0  0  0
 24 70  1  0  0  0  0
 25 80  1  0  0  0  0
 26 81  1  0  0  0  0
 27 31  2  0  0  0  0
 27 80  1  0  0  0  0
 28 82  1  0  0  0  0
 29 83  1  0  0  0  0
 30 84  1  0  0  0  0
 31 85  1  0  0  0  0
 32 63  2  0  0  0  0
 33 64  1  0  0  0  0
 33 68  1  0  0  0  0
 34 52  1  0  0  0  0
 34 65  1  0  0  0  0
 34 74  2  0  0  0  0
 35 69  1  0  0  0  0
 35 75  2  0  0  0  0
 36 53  1  0  0  0  0
 36 71  1  0  0  0  0
 36 76  2  0  0  0  0
 37 60  1  0  0  0  0
 37 66  1  0  0  0  0
 37 77  2  0  0  0  0
 38 61  1  0  0  0  0
 38 72  1  0  0  0  0
 38 78  2  0  0  0  0
 39 67  1  0  0  0  0
 39 70  1  0  0  0  0
 39 79  2  0  0  0  0
 40 43  1  0  0  0  0
 41 53  1  0  0  0  0
 42 66  1  0  0  0  0
 43 45  1  0  0  0  0
 44 46  1  0  0  0  0
 44 48  1  0  0  0  0
 45 51  1  0  0  0  0
 46 54  1  0  0  0  0
 47 49  1  0  0  0  0
 47 52  1  0  0  0  0
 48 67  1  0  0  0  0
 49 65  1  0  0  0  0
 50 54  1  0  0  0  0
 50 67  1  0  0  0  0
 51 71  1  0  0  0  0
 52 81  1  0  0  0  0
 53 66  1  0  0  0  0
 54 64  1  0  0  0  0
 55 61  1  0  0  0  0
 56 62  1  0  0  0  0
 57 62  1  0  0  0  0
 58 62  1  0  0  0  0
 59 73  1  0  0  0  0
 60 62  1  0  0  0  0
 60 72  1  0  0  0  0
 61 73  1  0  0  0  0
 63 64  1  0  0  0  0
M  CHG  1  73   1
M  ISO  4  39 100  52 101  70 100  81 101
M  END
> <Batch ID>
0028

> <Smiles>
CNC(C)C(=O)NC(C(=O)N1Cc2cc([101O:1][101CH:1]3CCN(c4cc(F)cc(F)c4[100NH:0][100C:0](=O)N4CCCC(n5nc(-c6ccc(Oc7ccc(F)cc7F)cc6)c(C(N)=O)c5N)C4)C3=O)ccc2CC1C(=O)NC1CCCc2ccccc21)C(C)(C)C

> <Shape>
0.199

> <Color>
0.066

> <Negative vol penalty>
0.000

$$$$

  -OEChem-04042321313D

 90 99  0     1  0  0  0  0  0999 V2000
  -31.2670  -10.2818   21.7055 C   0  0  0  0  0  0  0  0  0  0  0  0
  -31.7141  -11.5696   21.9832 C   0  0  0  0  0  0  0  0  0  0  0  0
  -21.5748  -26.4922   21.9701 C   0  0  0  0  0  0  0  0  0  0  0  0
  -20.2532  -28.0153   23.3007 C   0  0  0  0  0  0  0  0  0  0  0  0
  -30.2599  -10.0831   20.7619 C   0  0  0  0  0  0  0  0  0  0  0  0
  -31.1551  -12.6594   21.3167 C   0  0  0  0  0  0  0  0  0  0  0  0
  -27.7315  -19.0638   24.1959 C   0  0  0  0  0  0  0  0  0  0  0  0
  -20.6730  -25.4654   22.2496 C   0  0  0  0  0  0  0  0  0  0  0  0
  -19.3513  -26.9886   23.5802 C   0  0  0  0  0  0  0  0  0  0  0  0
  -26.9656  -20.1639   24.5823 C   0  0  0  0  0  0  0  0  0  0  0  0
  -17.6251  -24.4670   21.1788 C   0  0  0  0  0  0  0  0  0  0  0  0
  -17.2177  -23.6558   20.1198 C   0  0  0  0  0  0  0  0  0  0  0  0
  -25.8192  -20.1270   22.4534 C   0  0  0  0  0  0  0  0  0  0  0  0
  -26.5082  -27.6912   22.2344 C   0  0  0  0  0  0  0  0  0  0  0  0
  -18.1154  -21.7217   21.2559 C   0  0  0  0  0  0  0  0  0  0  0  0
  -21.3649  -27.7671   22.4957 C   0  0  0  0  0  0  0  0  0  0  0  0
  -22.6368  -29.3400   20.9413 C   0  0  0  0  0  0  0  0  0  0  0  0
  -29.6816  -11.1718   20.0905 C   0  0  0  0  0  0  0  0  0  0  0  0
  -27.5332  -18.4809   22.9412 C   0  0  0  0  0  0  0  0  0  0  0  0
  -30.1403  -12.4750   20.3623 C   0  0  0  0  0  0  0  0  0  0  0  0
  -26.5747  -19.0172   22.0657 C   0  0  0  0  0  0  0  0  0  0  0  0
  -26.6374  -27.7689   24.6456 C   0  0  0  0  0  0  0  0  0  0  0  0
  -26.2657  -27.1049   23.4766 C   0  0  0  0  0  0  0  0  0  0  0  0
  -27.1225  -28.9414   22.1611 C   0  0  0  0  0  0  0  0  0  0  0  0
  -27.2516  -29.0192   24.5724 C   0  0  0  0  0  0  0  0  0  0  0  0
  -19.5612  -25.7136   23.0546 C   0  0  0  0  0  0  0  0  0  0  0  0
  -26.0120  -20.6943   23.7131 C   0  0  0  0  0  0  0  0  0  0  0  0
  -18.2778  -23.9055   22.2764 C   0  0  0  0  0  0  0  0  0  0  0  0
  -17.4628  -22.2832   20.1583 C   0  0  0  0  0  0  0  0  0  0  0  0
  -18.5228  -22.5329   22.3149 C   0  0  0  0  0  0  0  0  0  0  0  0
  -27.4942  -29.6054   23.3302 C   0  0  0  0  0  0  0  0  0  0  0  0
  -22.2965  -28.8280   22.2077 C   0  0  0  0  0  0  0  0  0  0  0  0
  -23.5548  -30.3270   21.2054 C   0  0  0  0  0  0  0  0  0  0  0  0
  -22.1653  -28.9577   19.6424 C   0  0  0  0  0  0  0  0  0  0  0  0
  -28.5143  -15.7893   20.5187 C   0  0  0  0  0  0  0  0  0  0  0  0
  -25.4612  -16.0496   20.3729 C   0  0  0  0  0  0  0  0  0  0  0  0
  -22.4300  -16.0501   21.2183 C   0  0  0  0  0  0  0  0  0  0  0  0
  -27.1457  -30.9914   26.1184 C   0  0  0  0  0  0  0  0  0  0  0  0
  -28.6287  -10.9035   19.0445 C   0  0  0  0  0  0  0  0  0  0  0  0
  -28.3781  -17.3330   22.4590 C   0  0  0  0  0  0  0  0  0  0  0  0
  -26.4199  -18.3790   20.7123 C   0  0  0  0  0  0  0  0  0  0  0  0
  -27.8276  -12.1430   18.6546 C   0  0  0  0  0  0  0  0  0  0  0  0
  -24.8585  -33.4569   24.5746 C   0  0  0  0  0  0  0  0  0  0  0  0
  -28.7595  -13.3254   18.4089 C   0  0  0  0  0  0  0  0  0  0  0  0
  -23.9187  -32.5785   23.7510 C   0  0  0  0  0  0  0  0  0  0  0  0
  -25.4032  -32.7170   25.7926 C   0  0  0  0  0  0  0  0  0  0  0  0
  -24.7091  -25.2178   22.6625 C   0  0  0  0  0  0  0  0  0  0  0  0
  -25.9630  -24.6668   24.2584 C   0  0  0  0  0  0  0  0  0  0  0  0
  -25.1351  -30.5458   24.6285 C   0  0  0  0  0  0  0  0  0  0  0  0
  -29.5414  -13.6847   19.6781 C   0  0  1  0  0  0  0  0  0  0  0  0
  -27.6014  -16.3425   21.5732 C   0  0  1  0  0  0  0  0  0  0  0  0
  -24.6895  -24.0435   23.6580 C   0  0  0  0  0  0  0  0  0  0  0  0
  -24.6046  -31.2551   23.3736 C   0  0  1  0  0  0  0  0  0  0  0  0
  -26.3766  -27.1385   25.9786 C   0  0  0  0  0  0  0  0  0  0  0  0
  -19.9516  -15.8242   21.5403 C   0  0  0  0  0  0  0  0  0  0  0  0
  -25.7448  -17.6943   17.8198 C   0  0  0  0  0  0  0  0  0  0  0  0
  -23.2645  -17.5282   17.5218 C   0  0  0  0  0  0  0  0  0  0  0  0
  -24.6617  -15.4618   17.5081 C   0  0  0  0  0  0  0  0  0  0  0  0
  -28.7916  -29.2127   26.5171 C   0  0  0  0  0  0  0  0  0  0  0  0
  -22.7156  -13.3673   22.4349 C   0  0  0  0  0  0  0  0  0  0  0  0
  -30.0443  -29.5290   20.6455 C   0  0  0  0  0  0  0  0  0  0  0  0
  -24.8258  -22.6535   23.0711 C   0  0  0  0  0  0  0  0  0  1  0  0
  -24.2770  -16.6834   19.6879 C   0  0  1  0  0  0  0  0  0  0  0  0
  -21.2657  -15.0843   21.3445 C   0  0  2  0  0  0  0  0  0  0  0  0
  -24.4980  -16.8529   18.1583 C   0  0  0  0  0  0  0  0  0  0  0  0
  -22.9455  -29.4390   23.2024 N   0  0  0  0  0  0  0  0  0  0  0  0
  -23.7030  -30.3451   22.5611 N   0  0  0  0  0  0  0  0  0  0  0  0
  -25.6469  -25.8483   23.5290 N   0  0  0  0  0  0  0  0  0  0  0  0
  -26.4587  -16.9138   20.8404 N   0  0  0  0  0  0  0  0  0  0  0  0
  -25.9995  -31.4317   25.4252 N   0  0  0  0  0  0  0  0  0  0  0  0
  -24.2417  -31.1723   20.4078 N   0  0  0  0  0  0  0  0  0  0  0  0
  -21.2224  -27.9248   19.5512 N   0  0  0  0  0  0  0  0  0  0  0  0
  -27.3697  -29.5390   20.8881 N   0  0  0  0  0  0  0  0  0  0  0  0
  -28.7016  -14.4225   20.5973 N   0  0  0  0  0  0  0  0  0  0  0  0
  -23.1187  -15.8683   20.0376 N   0  0  0  0  0  0  0  0  0  0  0  0
  -27.6433  -29.7212   25.7701 N   0  0  0  0  0  0  0  0  0  0  0  0
  -21.4708  -14.1750   22.5073 N   0  3  0  0  0  0  0  0  0  0  0  0
  -22.5804  -29.5045   18.5925 O   0  0  0  0  0  0  0  0  0  0  0  0
  -29.0118  -16.5457   19.6928 O   0  0  0  0  0  0  0  0  0  0  0  0
  -25.5060  -14.8214   20.4868 O   0  0  0  0  0  0  0  0  0  0  0  0
  -22.6992  -16.8851   22.0790 O   0  0  0  0  0  0  0  0  0  0  0  0
  -27.6589  -31.6590   27.0248 O   0  0  0  0  0  0  0  0  0  0  0  0
  -28.6191  -27.4157   20.1259 O   0  0  0  0  0  0  0  0  0  0  0  0
  -28.5048  -29.3659   18.5358 O   0  0  0  0  0  0  0  0  0  0  0  0
  -18.6809  -24.7121   23.3274 O   0  0  0  0  0  0  0  0  0  0  0  0
  -25.2645  -21.7655   24.0984 O   0  0  0  0  0  0  0  0  0  1  0  0
  -17.0702  -21.5041   19.1419 F   0  0  0  0  0  0  0  0  0  0  0  0
  -19.1483  -21.9876   23.3672 F   0  0  0  0  0  0  0  0  0  0  0  0
  -28.0850  -30.8078   23.2577 F   0  0  0  0  0  0  0  0  0  0  0  0
  -28.5874  -28.8465   19.8865 S   0  0  0  0  0  0  0  0  0  0  0  0
  1  2  1  0  0  0  0
  1  5  2  0  0  0  0
  2  6  2  0  0  0  0
  3  8  2  0  0  0  0
  3 16  1  0  0  0  0
  4  9  1  0  0  0  0
  4 16  2  0  0  0  0
  5 18  1  0  0  0  0
  6 20  1  0  0  0  0
  7 10  2  0  0  0  0
  7 19  1  0  0  0  0
  8 26  1  0  0  0  0
  9 26  2  0  0  0  0
 10 27  1  0  0  0  0
 11 12  2  0  0  0  0
 11 28  1  0  0  0  0
 12 29  1  0  0  0  0
 13 21  1  0  0  0  0
 13 27  2  0  0  0  0
 14 23  1  0  0  0  0
 14 24  2  0  0  0  0
 15 29  2  0  0  0  0
 15 30  1  0  0  0  0
 16 32  1  0  0  0  0
 17 32  1  0  0  0  0
 17 33  2  0  0  0  0
 17 34  1  0  0  0  0
 18 20  2  0  0  0  0
 18 39  1  0  0  0  0
 19 21  2  0  0  0  0
 19 40  1  0  0  0  0
 20 50  1  0  0  0  0
 21 41  1  0  0  0  0
 22 23  2  0  0  0  0
 22 25  1  0  0  0  0
 22 54  1  0  0  0  0
 23 68  1  0  0  0  0
 24 31  1  0  0  0  0
 24 73  1  0  0  0  0
 25 31  2  0  0  0  0
 25 76  1  0  0  0  0
 26 85  1  0  0  0  0
 27 86  1  0  0  0  0
 28 30  2  0  0  0  0
 28 85  1  0  0  0  0
 29 87  1  0  0  0  0
 30 88  1  0  0  0  0
 31 89  1  0  0  0  0
 32 66  2  0  0  0  0
 33 67  1  0  0  0  0
 33 71  1  0  0  0  0
 34 72  1  0  0  0  0
 34 78  2  0  0  0  0
 35 51  1  0  0  0  0
 35 74  1  0  0  0  0
 35 79  2  0  0  0  0
 36 63  1  0  0  0  0
 36 69  1  0  0  0  0
 36 80  2  0  0  0  0
 37 64  1  0  0  0  0
 37 75  1  0  0  0  0
 37 81  2  0  0  0  0
 38 70  1  0  0  0  0
 38 76  1  0  0  0  0
 38 82  2  0  0  0  0
 39 42  1  0  0  0  0
 40 51  1  0  0  0  0
 41 69  1  0  0  0  0
 42 44  1  0  0  0  0
 43 45  1  0  0  0  0
 43 46  1  0  0  0  0
 44 50  1  0  0  0  0
 45 53  1  0  0  0  0
 46 70  1  0  0  0  0
 47 52  1  0  0  0  0
 47 68  1  0  0  0  0
 48 52  1  0  0  0  0
 48 68  1  0  0  0  0
 49 53  1  0  0  0  0
 49 70  1  0  0  0  0
 50 74  1  0  0  0  0
 51 69  1  0  0  0  0
 52 62  1  0  0  0  0
 53 67  1  0  0  0  0
 55 64  1  0  0  0  0
 56 65  1  0  0  0  0
 57 65  1  0  0  0  0
 58 65  1  0  0  0  0
 59 76  1  0  0  0  0
 60 77  1  0  0  0  0
 61 90  1  0  0  0  0
 62 86  1  0  0  0  0
 63 65  1  0  0  0  0
 63 75  1  0  0  0  0
 64 77  1  0  0  0  0
 66 67  1  0  0  0  0
 73 90  1  0  0  0  0
 83 90  2  0  0  0  0
 84 90  2  0  0  0  0
M  CHG  1  77   1
M  ISO  4  38 100  62 101  76 100  86 101
M  END
> <Batch ID>
0028

> <Smiles>
CNC(C)C(=O)NC(C(=O)N1Cc2cc([101O:1][101CH2:1]C3CN(c4cc(NS(C)(=O)=O)c(F)c([100N:0](C)[100C:0](=O)N5CCCC(n6nc(-c7ccc(Oc8ccc(F)cc8F)cc7)c(C(N)=O)c6N)C5)c4C)C3)ccc2CC1C(=O)NC1CCCc2ccccc21)C(C)(C)C

> <Shape>
0.228

> <Color>
0.056

> <Negative vol penalty>
0.000

$$$$

  -OEChem-04042321313D

 86 95  0     1  0  0  0  0  0999 V2000
  -27.7933  -37.3147   20.9318 C   0  0  0  0  0  0  0  0  0  0  0  0
  -28.2471  -36.0429   20.5969 C   0  0  0  0  0  0  0  0  0  0  0  0
  -24.3552  -12.5011   24.1866 C   0  0  0  0  0  0  0  0  0  0  0  0
  -24.1584  -14.8626   23.7154 C   0  0  0  0  0  0  0  0  0  0  0  0
  -26.8646  -37.4740   21.9594 C   0  0  0  0  0  0  0  0  0  0  0  0
  -27.7731  -34.9298   21.2902 C   0  0  0  0  0  0  0  0  0  0  0  0
  -26.7605  -29.3337   19.0177 C   0  0  0  0  0  0  0  0  0  0  0  0
  -23.9042  -12.7231   25.4876 C   0  0  0  0  0  0  0  0  0  0  0  0
  -23.7073  -15.0846   25.0165 C   0  0  0  0  0  0  0  0  0  0  0  0
  -27.5169  -28.1627   19.0365 C   0  0  0  0  0  0  0  0  0  0  0  0
  -20.8251  -14.7333   26.7457 C   0  0  0  0  0  0  0  0  0  0  0  0
  -19.7203  -15.5681   26.9133 C   0  0  0  0  0  0  0  0  0  0  0  0
  -26.2836  -27.4041   20.9659 C   0  0  0  0  0  0  0  0  0  0  0  0
  -28.5613  -20.4451   19.8378 C   0  0  0  0  0  0  0  0  0  0  0  0
  -21.0526  -17.0588   28.2698 C   0  0  0  0  0  0  0  0  0  0  0  0
  -24.4824  -13.5709   23.3004 C   0  0  0  0  0  0  0  0  0  0  0  0
  -24.1664  -13.0512   20.8230 C   0  0  0  0  0  0  0  0  0  0  0  0
  -26.3717  -36.3614   22.6592 C   0  0  0  0  0  0  0  0  0  0  0  0
  -25.7656  -29.5539   19.9811 C   0  0  0  0  0  0  0  0  0  0  0  0
  -26.8379  -35.0745   22.3291 C   0  0  0  0  0  0  0  0  0  0  0  0
  -25.5142  -28.5776   20.9557 C   0  0  0  0  0  0  0  0  0  0  0  0
  -29.4220  -19.3537   19.7207 C   0  0  0  0  0  0  0  0  0  0  0  0
  -27.8212  -20.8712   18.7348 C   0  0  0  0  0  0  0  0  0  0  0  0
  -27.9421  -20.2060   17.5148 C   0  0  0  0  0  0  0  0  0  0  0  0
  -28.8028  -19.1146   17.3977 C   0  0  0  0  0  0  0  0  0  0  0  0
  -29.5428  -18.6885   18.5007 C   0  0  0  0  0  0  0  0  0  0  0  0
  -23.5802  -14.0148   25.9026 C   0  0  0  0  0  0  0  0  0  0  0  0
  -27.2805  -27.1990   20.0124 C   0  0  0  0  0  0  0  0  0  0  0  0
  -22.0436  -15.0612   27.3401 C   0  0  0  0  0  0  0  0  0  0  0  0
  -19.8340  -16.7309   27.6754 C   0  0  0  0  0  0  0  0  0  0  0  0
  -22.1574  -16.2239   28.1022 C   0  0  0  0  0  0  0  0  0  0  0  0
  -24.9489  -13.3423   21.9565 C   0  0  0  0  0  0  0  0  0  0  0  0
  -25.0757  -12.9240   19.8015 C   0  0  0  0  0  0  0  0  0  0  0  0
  -22.7447  -12.9085   20.7041 C   0  0  0  0  0  0  0  0  0  0  0  0
  -25.2867  -31.7217   22.2560 C   0  0  0  0  0  0  0  0  0  0  0  0
  -22.4474  -30.1866   22.5786 C   0  0  0  0  0  0  0  0  0  0  0  0
  -20.6340  -27.3279   22.1472 C   0  0  0  0  0  0  0  0  0  0  0  0
  -30.5862  -15.1068   18.9525 C   0  0  0  0  0  0  0  0  0  0  0  0
  -25.4043  -36.5878   23.7939 C   0  0  0  0  0  0  0  0  0  0  0  0
  -24.9403  -30.8104   19.9310 C   0  0  0  0  0  0  0  0  0  0  0  0
  -24.4440  -28.7568   22.0001 C   0  0  0  0  0  0  0  0  0  0  0  0
  -24.6696  -35.3226   24.2295 C   0  0  0  0  0  0  0  0  0  0  0  0
  -29.6195  -11.6802   18.9663 C   0  0  0  0  0  0  0  0  0  0  0  0
  -25.6476  -34.1614   24.3773 C   0  0  0  0  0  0  0  0  0  0  0  0
  -28.2423  -11.6913   19.6320 C   0  0  0  0  0  0  0  0  0  0  0  0
  -30.5559  -12.7131   19.5895 C   0  0  0  0  0  0  0  0  0  0  0  0
  -28.6445  -14.0983   20.2976 C   0  0  0  0  0  0  0  0  0  0  0  0
  -26.6348  -24.4660   18.6339 C   0  0  0  0  0  0  0  0  0  0  0  0
  -28.5855  -23.8191   19.0066 C   0  0  0  0  0  0  0  0  0  0  0  0
  -26.3287  -33.8403   23.0414 C   0  0  1  0  0  0  0  0  0  0  0  0
  -24.3008  -31.1591   21.2715 C   0  0  1  0  0  0  0  0  0  0  0  0
  -27.6474  -13.1119   19.6659 C   0  0  2  0  0  0  0  0  0  0  0  0
  -27.9576  -25.2171   18.8683 C   0  0  0  0  0  0  0  0  0  1  0  0
  -30.2034  -18.9181   20.9169 C   0  0  0  0  0  0  0  0  0  0  0  0
  -27.1478  -20.6656   16.3333 C   0  0  0  0  0  0  0  0  0  0  0  0
  -28.9320  -18.4006   16.0891 C   0  0  0  0  0  0  0  0  0  0  0  0
  -18.3504  -26.3652   22.5420 C   0  0  0  0  0  0  0  0  0  0  0  0
  -23.0909  -29.8832   25.5457 C   0  0  0  0  0  0  0  0  0  0  0  0
  -21.3000  -28.1392   25.6844 C   0  0  0  0  0  0  0  0  0  0  0  0
  -20.7133  -30.4792   25.0496 C   0  0  0  0  0  0  0  0  0  0  0  0
  -20.2011  -26.8678   19.2559 C   0  0  0  0  0  0  0  0  0  0  0  0
  -30.4666  -17.5182   18.3779 C   0  0  0  0  0  0  0  0  0  0  0  0
  -26.9020  -22.0470   18.8877 C   0  0  0  0  0  0  0  0  0  0  0  0
  -21.9500  -29.0195   23.3967 C   0  0  1  0  0  0  0  0  0  0  0  0
  -19.2559  -27.0886   21.5573 C   0  0  2  0  0  0  0  0  0  0  0  0
  -21.7851  -29.3774   24.9007 C   0  0  0  0  0  0  0  0  0  0  0  0
  -26.2548  -13.3968   21.6814 N   0  0  0  0  0  0  0  0  0  0  0  0
  -26.2999  -13.1380   20.3634 N   0  0  0  0  0  0  0  0  0  0  0  0
  -23.6680  -30.0049   21.9131 N   0  0  0  0  0  0  0  0  0  0  0  0
  -29.9329  -14.0389   19.5895 N   0  0  0  0  0  0  0  0  0  0  0  0
  -24.9395  -12.6510   18.4865 N   0  0  0  0  0  0  0  0  0  0  0  0
  -21.9585  -13.0714   21.8529 N   0  0  0  0  0  0  0  0  0  0  0  0
  -25.4330  -33.0939   22.1840 N   0  0  0  0  0  0  0  0  0  0  0  0
  -20.7228  -28.5633   22.7530 N   0  0  0  0  0  0  0  0  0  0  0  0
  -29.9241  -16.3277   18.9938 N   0  0  0  0  0  0  0  0  0  0  0  0
  -27.4303  -23.2805   18.2650 N   0  3  0  0  0  0  0  0  0  0  0  0
  -19.3581  -26.2643   20.3199 N   0  3  0  0  0  0  0  0  0  0  0  0
  -22.1894  -12.6282   19.6148 O   0  0  0  0  0  0  0  0  0  0  0  0
  -25.8703  -30.9670   23.0251 O   0  0  0  0  0  0  0  0  0  0  0  0
  -21.7741  -31.2189   22.5260 O   0  0  0  0  0  0  0  0  0  0  0  0
  -21.5400  -26.5000   22.0807 O   0  0  0  0  0  0  0  0  0  0  0  0
  -31.6762  -14.9803   18.3843 O   0  0  0  0  0  0  0  0  0  0  0  0
  -23.1397  -14.2317   27.1721 O   0  0  0  0  0  0  0  0  0  0  0  0
  -28.0178  -26.0554   20.0334 O   0  0  0  0  0  0  0  0  0  1  0  0
  -18.7735  -17.5333   27.8350 F   0  0  0  0  0  0  0  0  0  0  0  0
  -23.3257  -16.5448   28.6747 F   0  0  0  0  0  0  0  0  0  0  0  0
  1  2  1  0  0  0  0
  1  5  2  0  0  0  0
  2  6  2  0  0  0  0
  3  8  2  0  0  0  0
  3 16  1  0  0  0  0
  4  9  1  0  0  0  0
  4 16  2  0  0  0  0
  5 18  1  0  0  0  0
  6 20  1  0  0  0  0
  7 10  2  0  0  0  0
  7 19  1  0  0  0  0
  8 27  1  0  0  0  0
  9 27  2  0  0  0  0
 10 28  1  0  0  0  0
 11 12  2  0  0  0  0
 11 29  1  0  0  0  0
 12 30  1  0  0  0  0
 13 21  1  0  0  0  0
 13 28  2  0  0  0  0
 14 22  2  0  0  0  0
 14 23  1  0  0  0  0
 15 30  2  0  0  0  0
 15 31  1  0  0  0  0
 16 32  1  0  0  0  0
 17 32  1  0  0  0  0
 17 33  2  0  0  0  0
 17 34  1  0  0  0  0
 18 20  2  0  0  0  0
 18 39  1  0  0  0  0
 19 21  2  0  0  0  0
 19 40  1  0  0  0  0
 20 50  1  0  0  0  0
 21 41  1  0  0  0  0
 22 26  1  0  0  0  0
 22 54  1  0  0  0  0
 23 24  2  0  0  0  0
 23 63  1  0  0  0  0
 24 25  1  0  0  0  0
 24 55  1  0  0  0  0
 25 26  2  0  0  0  0
 25 56  1  0  0  0  0
 26 62  1  0  0  0  0
 27 83  1  0  0  0  0
 28 84  1  0  0  0  0
 29 31  2  0  0  0  0
 29 83  1  0  0  0  0
 30 85  1  0  0  0  0
 31 86  1  0  0  0  0
 32 67  2  0  0  0  0
 33 68  1  0  0  0  0
 33 71  1  0  0  0  0
 34 72  1  0  0  0  0
 34 78  2  0  0  0  0
 35 51  1  0  0  0  0
 35 73  1  0  0  0  0
 35 79  2  0  0  0  0
 36 64  1  0  0  0  0
 36 69  1  0  0  0  0
 36 80  2  0  0  0  0
 37 65  1  0  0  0  0
 37 74  1  0  0  0  0
 37 81  2  0  0  0  0
 38 70  1  0  0  0  0
 38 75  1  0  0  0  0
 38 82  2  0  0  0  0
 39 42  1  0  0  0  0
 40 51  1  0  0  0  0
 41 69  1  0  0  0  0
 42 44  1  0  0  0  0
 43 45  1  0  0  0  0
 43 46  1  0  0  0  0
 44 50  1  0  0  0  0
 45 52  1  0  0  0  0
 46 70  1  0  0  0  0
 47 52  1  0  0  0  0
 47 70  1  0  0  0  0
 48 53  1  0  0  0  0
 48 76  1  0  0  0  0
 49 53  1  0  0  0  0
 49 76  1  0  0  0  0
 50 73  1  0  0  0  0
 51 69  1  0  0  0  0
 52 68  1  0  0  0  0
 53 84  1  0  0  0  0
 57 65  1  0  0  0  0
 58 66  1  0  0  0  0
 59 66  1  0  0  0  0
 60 66  1  0  0  0  0
 61 77  1  0  0  0  0
 62 75  1  0  0  0  0
 63 76  1  0  0  0  0
 64 66  1  0  0  0  0
 64 74  1  0  0  0  0
 65 77  1  0  0  0  0
 67 68  1  0  0  0  0
M  CHG  2  76   1  77   1
M  ISO  4  38 100  53 101  75 100  84 101
M  END
> <Batch ID>
0028

> <Smiles>
CNC(C)C(=O)NC(C(=O)N1Cc2cc([101O:1][101CH:1]3CN(Cc4cc(C)c(C[100NH:0][100C:0](=O)N5CCCC(n6nc(-c7ccc(Oc8ccc(F)cc8F)cc7)c(C(N)=O)c6N)C5)c(C)c4C)C3)ccc2CC1C(=O)NC1CCCc2ccccc21)C(C)(C)C

> <Shape>
0.285

> <Color>
0.100

> <Negative vol penalty>
0.000

$$$$

  -OEChem-04042321313D

 84 93  0     1  0  0  0  0  0999 V2000
  -22.5875  -24.2605   18.8938 C   0  0  0  0  0  0  0  0  0  0  0  0
  -22.9058  -22.9286   19.1386 C   0  0  0  0  0  0  0  0  0  0  0  0
  -29.6880  -11.7811   18.6065 C   0  0  0  0  0  0  0  0  0  0  0  0
  -26.5309  -26.0080   17.6159 C   0  0  0  0  0  0  0  0  0  0  0  0
  -26.1685  -25.6385   19.9758 C   0  0  0  0  0  0  0  0  0  0  0  0
  -22.2835  -25.1102   19.9567 C   0  0  0  0  0  0  0  0  0  0  0  0
  -22.9214  -22.4457   20.4467 C   0  0  0  0  0  0  0  0  0  0  0  0
  -20.6205  -17.9562   20.8879 C   0  0  0  0  0  0  0  0  0  0  0  0
  -30.0634  -13.0614   19.0132 C   0  0  0  0  0  0  0  0  0  0  0  0
  -25.6374  -27.0786   17.6463 C   0  0  0  0  0  0  0  0  0  0  0  0
  -25.2749  -26.7091   20.0062 C   0  0  0  0  0  0  0  0  0  0  0  0
  -21.3327  -16.8321   20.4721 C   0  0  0  0  0  0  0  0  0  0  0  0
  -25.4355  -30.0833   20.1029 C   0  0  0  0  0  0  0  0  0  0  0  0
  -28.4178  -11.2952   18.9168 C   0  0  0  0  0  0  0  0  0  0  0  0
  -25.5489  -30.9905   21.1563 C   0  0  0  0  0  0  0  0  0  0  0  0
  -21.9008  -16.3508   22.7666 C   0  0  0  0  0  0  0  0  0  0  0  0
  -23.2881  -30.4804   21.8390 C   0  0  0  0  0  0  0  0  0  0  0  0
  -26.7965  -25.2879   18.7807 C   0  0  0  0  0  0  0  0  0  0  0  0
  -29.1086  -24.2269   18.9705 C   0  0  0  0  0  0  0  0  0  0  0  0
  -22.2860  -24.6351   21.2776 C   0  0  0  0  0  0  0  0  0  0  0  0
  -20.5520  -18.2927   22.2475 C   0  0  0  0  0  0  0  0  0  0  0  0
  -22.6185  -23.2901   21.5283 C   0  0  0  0  0  0  0  0  0  0  0  0
  -21.1849  -17.4782   23.1973 C   0  0  0  0  0  0  0  0  0  0  0  0
  -29.1688  -13.8558   19.7303 C   0  0  0  0  0  0  0  0  0  0  0  0
  -27.8986  -13.3699   20.0407 C   0  0  0  0  0  0  0  0  0  0  0  0
  -25.0094  -27.4292   18.8414 C   0  0  0  0  0  0  0  0  0  0  0  0
  -21.9755  -16.0308   21.4112 C   0  0  0  0  0  0  0  0  0  0  0  0
  -24.2483  -29.3748   19.9174 C   0  0  0  0  0  0  0  0  0  0  0  0
  -24.4753  -31.1890   22.0244 C   0  0  0  0  0  0  0  0  0  0  0  0
  -27.5232  -12.0895   19.6339 C   0  0  0  0  0  0  0  0  0  0  0  0
  -23.1747  -29.5733   20.7854 C   0  0  0  0  0  0  0  0  0  0  0  0
  -27.7190  -24.1815   18.7498 C   0  0  0  0  0  0  0  0  0  0  0  0
  -29.5212  -22.9244   18.8308 C   0  0  0  0  0  0  0  0  0  0  0  0
  -29.9511  -25.3465   19.2747 C   0  0  0  0  0  0  0  0  0  0  0  0
  -21.4845  -20.7808   23.9921 C   0  0  0  0  0  0  0  0  0  0  0  0
  -19.9118  -19.2152   26.3581 C   0  0  0  0  0  0  0  0  0  0  0  0
  -18.7286  -16.2599   27.5882 C   0  0  0  0  0  0  0  0  0  0  0  0
  -28.9120  -17.5980   19.9287 C   0  0  0  0  0  0  0  0  0  0  0  0
  -21.9970  -25.6029   22.3977 C   0  0  0  0  0  0  0  0  0  0  0  0
  -19.7574  -19.4935   22.6822 C   0  0  0  0  0  0  0  0  0  0  0  0
  -21.1250  -17.7847   24.6707 C   0  0  0  0  0  0  0  0  0  0  0  0
  -21.6701  -24.9202   23.7233 C   0  0  0  0  0  0  0  0  0  0  0  0
  -27.0675  -18.8606   17.0824 C   0  0  0  0  0  0  0  0  0  0  0  0
  -22.6736  -23.8086   24.0131 C   0  0  0  0  0  0  0  0  0  0  0  0
  -27.1909  -20.3718   17.2861 C   0  0  0  0  0  0  0  0  0  0  0  0
  -26.9086  -18.1344   18.4149 C   0  0  0  0  0  0  0  0  0  0  0  0
  -28.1154  -19.9226   19.6063 C   0  0  0  0  0  0  0  0  0  0  0  0
  -24.6776  -13.8650   19.8977 C   0  0  0  0  0  0  0  0  0  0  0  0
  -25.0358  -15.7634   20.6915 C   0  0  0  0  0  0  0  0  0  0  0  0
  -22.6219  -22.7229   22.9313 C   0  0  1  0  0  0  0  0  0  0  0  0
  -20.1836  -20.0307   24.0449 C   0  0  1  0  0  0  0  0  0  0  0  0
  -28.3014  -20.7120   18.2977 C   0  0  2  0  0  0  0  0  0  0  0  0
  -23.7785  -15.0965   20.1066 C   0  0  0  0  0  0  0  0  0  1  0  0
  -17.5194  -15.2908   29.5620 C   0  0  0  0  0  0  0  0  0  0  0  0
  -22.4635  -19.4192   28.0184 C   0  0  0  0  0  0  0  0  0  0  0  0
  -21.5350  -17.6563   29.5344 C   0  0  0  0  0  0  0  0  0  0  0  0
  -20.3532  -19.8398   29.2929 C   0  0  0  0  0  0  0  0  0  0  0  0
  -16.4851  -15.3229   25.9007 C   0  0  0  0  0  0  0  0  0  0  0  0
  -29.5937  -15.2229   20.1551 C   0  0  0  0  0  0  0  0  0  0  0  0
  -26.9216  -14.2084   20.8109 C   0  0  0  0  0  0  0  0  0  0  0  0
  -20.2889  -18.1783   27.3884 C   0  0  1  0  0  0  0  0  0  0  0  0
  -17.3779  -15.8781   28.1664 C   0  0  2  0  0  0  0  0  0  0  0  0
  -21.1631  -18.7684   28.5307 C   0  0  0  0  0  0  0  0  0  0  0  0
  -27.2783  -22.9478   18.4895 N   0  0  0  0  0  0  0  0  0  0  0  0
  -28.3975  -22.2059   18.5457 N   0  0  0  0  0  0  0  0  0  0  0  0
  -20.3409  -18.9731   25.0454 N   0  0  0  0  0  0  0  0  0  0  0  0
  -28.0072  -18.4872   19.3253 N   0  0  0  0  0  0  0  0  0  0  0  0
  -30.7320  -22.3349   18.9252 N   0  0  0  0  0  0  0  0  0  0  0  0
  -29.3641  -26.6146   19.3824 N   0  0  0  0  0  0  0  0  0  0  0  0
  -21.4755  -21.8629   23.1328 N   0  0  0  0  0  0  0  0  0  0  0  0
  -19.0381  -17.5795   27.8416 N   0  0  0  0  0  0  0  0  0  0  0  0
  -28.7369  -16.2555   19.6160 N   0  0  0  0  0  0  0  0  0  0  0  0
  -25.8432  -14.7656   19.9654 N   0  3  0  0  0  0  0  0  0  0  0  0
  -16.7090  -14.8690   27.2974 N   0  3  0  0  0  0  0  0  0  0  0  0
  -31.1903  -25.2284   19.4299 O   0  0  0  0  0  0  0  0  0  0  0  0
  -22.4262  -20.4064   24.6811 O   0  0  0  0  0  0  0  0  0  0  0  0
  -19.2543  -20.2000   26.7038 O   0  0  0  0  0  0  0  0  0  0  0  0
  -19.4398  -15.4659   26.9764 O   0  0  0  0  0  0  0  0  0  0  0  0
  -29.8133  -17.9733   20.6862 O   0  0  0  0  0  0  0  0  0  0  0  0
  -24.1376  -28.4740   18.8715 O   0  0  0  0  0  0  0  0  0  0  0  0
  -22.6719  -14.9334   21.0081 O   0  0  0  0  0  0  0  0  0  1  0  0
  -24.5849  -32.0590   23.0370 F   0  0  0  0  0  0  0  0  0  0  0  0
  -26.3054  -11.6125   19.9281 F   0  0  0  0  0  0  0  0  0  0  0  0
  -22.0321  -28.8946   20.6130 F   0  0  0  0  0  0  0  0  0  0  0  0
  1  2  1  0  0  0  0
  1  6  2  0  0  0  0
  2  7  2  0  0  0  0
  3  9  2  0  0  0  0
  3 14  1  0  0  0  0
  4 10  2  0  0  0  0
  4 18  1  0  0  0  0
  5 11  1  0  0  0  0
  5 18  2  0  0  0  0
  6 20  1  0  0  0  0
  7 22  1  0  0  0  0
  8 12  2  0  0  0  0
  8 21  1  0  0  0  0
  9 24  1  0  0  0  0
 10 26  1  0  0  0  0
 11 26  2  0  0  0  0
 12 27  1  0  0  0  0
 13 15  2  0  0  0  0
 13 28  1  0  0  0  0
 14 30  2  0  0  0  0
 15 29  1  0  0  0  0
 16 23  1  0  0  0  0
 16 27  2  0  0  0  0
 17 29  2  0  0  0  0
 17 31  1  0  0  0  0
 18 32  1  0  0  0  0
 19 32  1  0  0  0  0
 19 33  2  0  0  0  0
 19 34  1  0  0  0  0
 20 22  2  0  0  0  0
 20 39  1  0  0  0  0
 21 23  2  0  0  0  0
 21 40  1  0  0  0  0
 22 50  1  0  0  0  0
 23 41  1  0  0  0  0
 24 25  2  0  0  0  0
 24 59  1  0  0  0  0
 25 30  1  0  0  0  0
 25 60  1  0  0  0  0
 26 80  1  0  0  0  0
 27 81  1  0  0  0  0
 28 31  2  0  0  0  0
 28 80  1  0  0  0  0
 29 82  1  0  0  0  0
 30 83  1  0  0  0  0
 31 84  1  0  0  0  0
 32 64  2  0  0  0  0
 33 65  1  0  0  0  0
 33 68  1  0  0  0  0
 34 69  1  0  0  0  0
 34 75  2  0  0  0  0
 35 51  1  0  0  0  0
 35 70  1  0  0  0  0
 35 76  2  0  0  0  0
 36 61  1  0  0  0  0
 36 66  1  0  0  0  0
 36 77  2  0  0  0  0
 37 62  1  0  0  0  0
 37 71  1  0  0  0  0
 37 78  2  0  0  0  0
 38 67  1  0  0  0  0
 38 72  1  0  0  0  0
 38 79  2  0  0  0  0
 39 42  1  0  0  0  0
 40 51  1  0  0  0  0
 41 66  1  0  0  0  0
 42 44  1  0  0  0  0
 43 45  1  0  0  0  0
 43 46  1  0  0  0  0
 44 50  1  0  0  0  0
 45 52  1  0  0  0  0
 46 67  1  0  0  0  0
 47 52  1  0  0  0  0
 47 67  1  0  0  0  0
 48 53  1  0  0  0  0
 48 73  1  0  0  0  0
 49 53  1  0  0  0  0
 49 73  1  0  0  0  0
 50 70  1  0  0  0  0
 51 66  1  0  0  0  0
 52 65  1  0  0  0  0
 53 81  1  0  0  0  0
 54 62  1  0  0  0  0
 55 63  1  0  0  0  0
 56 63  1  0  0  0  0
 57 63  1  0  0  0  0
 58 74  1  0  0  0  0
 59 72  1  0  0  0  0
 60 73  1  0  0  0  0
 61 63  1  0  0  0  0
 61 71  1  0  0  0  0
 62 74  1  0  0  0  0
 64 65  1  0  0  0  0
M  CHG  2  73   1  74   1
M  ISO  4  38 100  53 101  72 100  81 101
M  END
> <Batch ID>
0028

> <Smiles>
CNC(C)C(=O)NC(C(=O)N1Cc2cc([101O:1][101CH:1]3CN(Cc4c(F)cccc4C[100NH:0][100C:0](=O)N4CCCC(n5nc(-c6ccc(Oc7ccc(F)cc7F)cc6)c(C(N)=O)c5N)C4)C3)ccc2CC1C(=O)NC1CCCc2ccccc21)C(C)(C)C

> <Shape>
0.208

> <Color>
0.082

> <Negative vol penalty>
0.000

$$$$

  -OEChem-04042321313D

 83 92  0     1  0  0  0  0  0999 V2000
  -27.5399  -31.4437   25.0315 C   0  0  0  0  0  0  0  0  0  0  0  0
  -27.2698  -30.0803   24.9713 C   0  0  0  0  0  0  0  0  0  0  0  0
  -32.9214  -17.0988   23.5104 C   0  0  0  0  0  0  0  0  0  0  0  0
  -23.0150   -9.9690   19.8979 C   0  0  0  0  0  0  0  0  0  0  0  0
  -23.8342   -9.8260   22.1662 C   0  0  0  0  0  0  0  0  0  0  0  0
  -27.8999  -32.1336   23.8746 C   0  0  0  0  0  0  0  0  0  0  0  0
  -27.3586  -29.4062   23.7539 C   0  0  0  0  0  0  0  0  0  0  0  0
  -32.2067  -17.9708   24.3311 C   0  0  0  0  0  0  0  0  0  0  0  0
  -29.7853  -24.9797   24.1566 C   0  0  0  0  0  0  0  0  0  0  0  0
  -32.2467  -16.2891   22.6004 C   0  0  0  0  0  0  0  0  0  0  0  0
  -22.2471   -8.8228   20.1029 C   0  0  0  0  0  0  0  0  0  0  0  0
  -23.0663   -8.6798   22.3713 C   0  0  0  0  0  0  0  0  0  0  0  0
  -29.0705  -23.9079   24.6897 C   0  0  0  0  0  0  0  0  0  0  0  0
  -19.8346   -7.9313   23.0166 C   0  0  0  0  0  0  0  0  0  0  0  0
  -19.1075   -7.8439   24.2037 C   0  0  0  0  0  0  0  0  0  0  0  0
  -28.6789  -23.0690   22.4621 C   0  0  0  0  0  0  0  0  0  0  0  0
  -20.3150   -5.8367   24.7955 C   0  0  0  0  0  0  0  0  0  0  0  0
  -23.8086  -10.4706   20.9295 C   0  0  0  0  0  0  0  0  0  0  0  0
  -24.2151  -12.9890   20.9424 C   0  0  0  0  0  0  0  0  0  0  0  0
  -28.0025  -31.4657   22.6442 C   0  0  0  0  0  0  0  0  0  0  0  0
  -29.9432  -25.1103   22.7694 C   0  0  0  0  0  0  0  0  0  0  0  0
  -30.8096  -18.0430   24.2449 C   0  0  0  0  0  0  0  0  0  0  0  0
  -27.7190  -30.0881   22.5792 C   0  0  0  0  0  0  0  0  0  0  0  0
  -29.3982  -24.1420   21.9141 C   0  0  0  0  0  0  0  0  0  0  0  0
  -30.1261  -17.2109   23.3412 C   0  0  0  0  0  0  0  0  0  0  0  0
  -30.8560  -16.3466   22.5130 C   0  0  0  0  0  0  0  0  0  0  0  0
  -22.2727   -8.1782   21.3396 C   0  0  0  0  0  0  0  0  0  0  0  0
  -28.5147  -22.9540   23.8423 C   0  0  0  0  0  0  0  0  0  0  0  0
  -20.8018   -6.9713   22.7188 C   0  0  0  0  0  0  0  0  0  0  0  0
  -19.3478   -6.7967   25.0932 C   0  0  0  0  0  0  0  0  0  0  0  0
  -21.0420   -5.9240   23.6083 C   0  0  0  0  0  0  0  0  0  0  0  0
  -24.6025  -11.6543   20.7181 C   0  0  0  0  0  0  0  0  0  0  0  0
  -25.3172  -13.7299   20.5920 C   0  0  0  0  0  0  0  0  0  0  0  0
  -22.9703  -13.5122   21.4245 C   0  0  0  0  0  0  0  0  0  0  0  0
  -29.0823  -27.2760   20.6078 C   0  0  0  0  0  0  0  0  0  0  0  0
  -30.8549  -25.4256   18.6188 C   0  0  0  0  0  0  0  0  0  0  0  0
  -32.1889  -22.3597   17.9350 C   0  0  0  0  0  0  0  0  0  0  0  0
  -30.8123  -14.6245   20.6748 C   0  0  0  0  0  0  0  0  0  0  0  0
  -28.3491  -32.2633   21.4120 C   0  0  0  0  0  0  0  0  0  0  0  0
  -30.7398  -26.2578   22.2115 C   0  0  0  0  0  0  0  0  0  0  0  0
  -28.6265  -17.2836   23.2045 C   0  0  0  0  0  0  0  0  0  0  0  0
  -29.5565  -24.2255   20.4186 C   0  0  0  0  0  0  0  0  0  0  0  0
  -30.0582  -18.9708   25.1601 C   0  0  0  0  0  0  0  0  0  0  0  0
  -28.7851  -31.4004   20.2306 C   0  0  0  0  0  0  0  0  0  0  0  0
  -29.5720  -12.3787   18.2060 C   0  0  0  0  0  0  0  0  0  0  0  0
  -27.8301  -30.2254   20.0465 C   0  0  0  0  0  0  0  0  0  0  0  0
  -28.1367  -12.0998   18.6579 C   0  0  0  0  0  0  0  0  0  0  0  0
  -30.5239  -12.5153   19.3930 C   0  0  0  0  0  0  0  0  0  0  0  0
  -28.6738  -13.2082   20.8648 C   0  0  0  0  0  0  0  0  0  0  0  0
  -27.9388  -17.8886   24.4234 C   0  0  0  0  0  0  0  0  0  0  0  0
  -27.8287  -29.3168   21.2818 C   0  0  1  0  0  0  0  0  0  0  0  0
  -30.4001  -26.5698   20.7573 C   0  0  1  0  0  0  0  0  0  0  0  0
  -27.6663  -13.1271   19.7063 C   0  0  2  0  0  0  0  0  0  0  0  0
  -33.5576  -21.1456   16.2174 C   0  0  0  0  0  0  0  0  0  0  0  0
  -28.4244  -25.2936   16.7788 C   0  0  0  0  0  0  0  0  0  0  0  0
  -29.4982  -23.3545   15.6146 C   0  0  0  0  0  0  0  0  0  0  0  0
  -30.6104  -25.5873   15.6001 C   0  0  0  0  0  0  0  0  0  0  0  0
  -34.3265  -21.7613   19.8924 C   0  0  0  0  0  0  0  0  0  0  0  0
  -27.8580  -19.9777   25.7946 C   0  0  0  0  0  0  0  0  0  0  0  0
  -28.1986  -21.4484   25.6560 C   0  0  0  0  0  0  0  0  0  1  0  0
  -30.5757  -24.2338   17.7352 C   0  0  1  0  0  0  0  0  0  0  0  0
  -33.5857  -21.9402   17.5138 C   0  0  2  0  0  0  0  0  0  0  0  0
  -29.7724  -24.6165   16.4602 C   0  0  0  0  0  0  0  0  0  0  0  0
  -25.8530  -11.5503   20.2605 N   0  0  0  0  0  0  0  0  0  0  0  0
  -26.2609  -12.8291   20.1943 N   0  0  0  0  0  0  0  0  0  0  0  0
  -30.3385  -25.3693   19.9211 N   0  0  0  0  0  0  0  0  0  0  0  0
  -30.0159  -13.5084   20.3420 N   0  0  0  0  0  0  0  0  0  0  0  0
  -25.5615  -15.0576   20.5883 N   0  0  0  0  0  0  0  0  0  0  0  0
  -21.9434  -12.6113   21.7378 N   0  0  0  0  0  0  0  0  0  0  0  0
  -30.2116  -15.5176   21.5615 N   0  0  0  0  0  0  0  0  0  0  0  0
  -29.0055  -28.4746   21.2911 N   0  0  0  0  0  0  0  0  0  0  0  0
  -31.8688  -23.6153   17.4635 N   0  0  0  0  0  0  0  0  0  0  0  0
  -28.6140  -19.1941   24.7598 N   0  3  1  0  0  0  0  0  0  0  0  0
  -34.2133  -21.0956   18.5692 N   0  3  0  0  0  0  0  0  0  0  0  0
  -22.7689  -14.7432   21.5575 O   0  0  0  0  0  0  0  0  0  0  0  0
  -28.2008  -26.7715   19.9220 O   0  0  0  0  0  0  0  0  0  0  0  0
  -31.5131  -26.3684   18.1723 O   0  0  0  0  0  0  0  0  0  0  0  0
  -31.4538  -21.6436   18.6112 O   0  0  0  0  0  0  0  0  0  0  0  0
  -31.9330  -14.7909   20.1865 O   0  0  0  0  0  0  0  0  0  0  0  0
  -21.5233   -7.0598   21.5401 O   0  0  0  0  0  0  0  0  0  0  0  0
  -27.8160  -21.9072   24.3600 O   0  0  0  0  0  0  0  0  0  1  0  0
  -18.6507   -6.7138   26.2340 F   0  0  0  0  0  0  0  0  0  0  0  0
  -21.9708   -4.9995   23.3283 F   0  0  0  0  0  0  0  0  0  0  0  0
  1  2  1  0  0  0  0
  1  6  2  0  0  0  0
  2  7  2  0  0  0  0
  3  8  1  0  0  0  0
  3 10  2  0  0  0  0
  4 11  2  0  0  0  0
  4 18  1  0  0  0  0
  5 12  1  0  0  0  0
  5 18  2  0  0  0  0
  6 20  1  0  0  0  0
  7 23  1  0  0  0  0
  8 22  2  0  0  0  0
  9 13  2  0  0  0  0
  9 21  1  0  0  0  0
 10 26  1  0  0  0  0
 11 27  1  0  0  0  0
 12 27  2  0  0  0  0
 13 28  1  0  0  0  0
 14 15  2  0  0  0  0
 14 29  1  0  0  0  0
 15 30  1  0  0  0  0
 16 24  1  0  0  0  0
 16 28  2  0  0  0  0
 17 30  2  0  0  0  0
 17 31  1  0  0  0  0
 18 32  1  0  0  0  0
 19 32  1  0  0  0  0
 19 33  2  0  0  0  0
 19 34  1  0  0  0  0
 20 23  2  0  0  0  0
 20 39  1  0  0  0  0
 21 24  2  0  0  0  0
 21 40  1  0  0  0  0
 22 25  1  0  0  0  0
 22 43  1  0  0  0  0
 23 51  1  0  0  0  0
 24 42  1  0  0  0  0
 25 26  2  0  0  0  0
 25 41  1  0  0  0  0
 26 70  1  0  0  0  0
 27 80  1  0  0  0  0
 28 81  1  0  0  0  0
 29 31  2  0  0  0  0
 29 80  1  0  0  0  0
 30 82  1  0  0  0  0
 31 83  1  0  0  0  0
 32 64  2  0  0  0  0
 33 65  1  0  0  0  0
 33 68  1  0  0  0  0
 34 69  1  0  0  0  0
 34 75  2  0  0  0  0
 35 52  1  0  0  0  0
 35 71  1  0  0  0  0
 35 76  2  0  0  0  0
 36 61  1  0  0  0  0
 36 66  1  0  0  0  0
 36 77  2  0  0  0  0
 37 62  1  0  0  0  0
 37 72  1  0  0  0  0
 37 78  2  0  0  0  0
 38 67  1  0  0  0  0
 38 70  1  0  0  0  0
 38 79  2  0  0  0  0
 39 44  1  0  0  0  0
 40 52  1  0  0  0  0
 41 50  1  0  0  0  0
 42 66  1  0  0  0  0
 43 73  1  0  0  0  0
 44 46  1  0  0  0  0
 45 47  1  0  0  0  0
 45 48  1  0  0  0  0
 46 51  1  0  0  0  0
 47 53  1  0  0  0  0
 48 67  1  0  0  0  0
 49 53  1  0  0  0  0
 49 67  1  0  0  0  0
 50 73  1  0  0  0  0
 51 71  1  0  0  0  0
 52 66  1  0  0  0  0
 53 65  1  0  0  0  0
 54 62  1  0  0  0  0
 55 63  1  0  0  0  0
 56 63  1  0  0  0  0
 57 63  1  0  0  0  0
 58 74  1  0  0  0  0
 59 60  1  0  0  0  0
 59 73  1  0  0  0  0
 60 81  1  0  0  0  0
 61 63  1  0  0  0  0
 61 72  1  0  0  0  0
 62 74  1  0  0  0  0
 64 65  1  0  0  0  0
M  CHG  2  73   1  74   1
M  ISO  4  38 100  60 101  70 100  81 101
M  END
> <Batch ID>
0028

> <Smiles>
CNC(C)C(=O)NC(C(=O)N1Cc2cc([101O:1][101CH2:1]CN3CCc4c(cccc4[100NH:0][100C:0](=O)N4CCCC(n5nc(-c6ccc(Oc7ccc(F)cc7F)cc6)c(C(N)=O)c5N)C4)C3)ccc2CC1C(=O)NC1CCCc2ccccc21)C(C)(C)C

> <Shape>
0.291

> <Color>
0.209

> <Negative vol penalty>
0.000

$$$$

  -OEChem-04042321313D

 83 92  0     1  0  0  0  0  0999 V2000
  -21.3411  -12.7363   20.3342 C   0  0  0  0  0  0  0  0  0  0  0  0
  -21.4323  -14.0526   20.7750 C   0  0  0  0  0  0  0  0  0  0  0  0
  -21.6714  -25.5441   23.2604 C   0  0  0  0  0  0  0  0  0  0  0  0
  -23.9870  -30.7886   21.8894 C   0  0  0  0  0  0  0  0  0  0  0  0
  -23.9766  -28.8341   23.3096 C   0  0  0  0  0  0  0  0  0  0  0  0
  -22.4927  -11.9583   20.2226 C   0  0  0  0  0  0  0  0  0  0  0  0
  -22.6751  -14.5915   21.1056 C   0  0  0  0  0  0  0  0  0  0  0  0
  -23.3383  -19.2450   19.2214 C   0  0  0  0  0  0  0  0  0  0  0  0
  -22.0110  -24.4051   22.5173 C   0  0  0  0  0  0  0  0  0  0  0  0
  -20.3337  -25.8897   23.4663 C   0  0  0  0  0  0  0  0  0  0  0  0
  -25.2254  -31.1615   22.4117 C   0  0  0  0  0  0  0  0  0  0  0  0
  -25.2151  -29.2071   23.8319 C   0  0  0  0  0  0  0  0  0  0  0  0
  -22.7127  -20.2972   19.8887 C   0  0  0  0  0  0  0  0  0  0  0  0
  -28.2236  -32.8179   23.6326 C   0  0  0  0  0  0  0  0  0  0  0  0
  -28.4034  -34.1547   23.9878 C   0  0  0  0  0  0  0  0  0  0  0  0
  -24.7975  -20.8405   20.9740 C   0  0  0  0  0  0  0  0  0  0  0  0
  -26.5854  -33.9790   25.5694 C   0  0  0  0  0  0  0  0  0  0  0  0
  -23.3625  -29.6249   22.3384 C   0  0  0  0  0  0  0  0  0  0  0  0
  -19.6894  -23.9188   22.2128 C   0  0  0  0  0  0  0  0  0  0  0  0
  -21.8440  -28.4245   20.6768 C   0  0  0  0  0  0  0  0  0  0  0  0
  -23.7515  -12.4909   20.5427 C   0  0  0  0  0  0  0  0  0  0  0  0
  -24.6979  -18.9754   19.4341 C   0  0  0  0  0  0  0  0  0  0  0  0
  -23.8446  -13.8195   20.9994 C   0  0  0  0  0  0  0  0  0  0  0  0
  -25.4386  -19.7859   20.3063 C   0  0  0  0  0  0  0  0  0  0  0  0
  -21.0163  -23.5778   21.9930 C   0  0  0  0  0  0  0  0  0  0  0  0
  -19.3525  -25.0806   22.9135 C   0  0  0  0  0  0  0  0  0  0  0  0
  -25.8395  -30.3708   23.3829 C   0  0  0  0  0  0  0  0  0  0  0  0
  -23.4416  -21.0933   20.7673 C   0  0  0  0  0  0  0  0  0  0  0  0
  -27.2247  -32.0616   24.2458 C   0  0  0  0  0  0  0  0  0  0  0  0
  -27.5843  -34.7353   24.9562 C   0  0  0  0  0  0  0  0  0  0  0  0
  -26.4056  -32.6421   25.2141 C   0  0  0  0  0  0  0  0  0  0  0  0
  -22.0830  -29.2394   21.7996 C   0  0  0  0  0  0  0  0  0  0  0  0
  -20.4751  -28.3624   20.5828 C   0  0  0  0  0  0  0  0  0  0  0  0
  -18.4559  -23.2132   21.8718 C   0  0  0  0  0  0  0  0  0  0  0  0
  -22.7760  -27.7811   19.7976 C   0  0  0  0  0  0  0  0  0  0  0  0
  -18.3347  -22.1251   21.1058 C   0  0  0  0  0  0  0  0  0  0  0  0
  -26.3430  -16.5095   20.5816 C   0  0  0  0  0  0  0  0  0  0  0  0
  -28.8967  -18.2850   19.6604 C   0  0  0  0  0  0  0  0  0  0  0  0
  -30.1773  -21.3674   18.9495 C   0  0  0  0  0  0  0  0  0  0  0  0
  -17.2296  -26.1886   23.6768 C   0  0  0  0  0  0  0  0  0  0  0  0
  -24.9626  -11.5968   20.4514 C   0  0  0  0  0  0  0  0  0  0  0  0
  -25.3643  -17.8533   18.6863 C   0  0  0  0  0  0  0  0  0  0  0  0
  -26.9055  -19.5508   20.5539 C   0  0  0  0  0  0  0  0  0  0  0  0
  -17.3258  -23.9617   22.5273 C   0  0  0  0  0  0  0  0  0  0  0  0
  -26.2850  -12.3593   20.4638 C   0  0  0  0  0  0  0  0  0  0  0  0
  -18.2900  -29.6763   24.4974 C   0  0  0  0  0  0  0  0  0  0  0  0
  -26.2846  -13.4106   21.5691 C   0  0  0  0  0  0  0  0  0  0  0  0
  -18.2610  -30.3484   23.1284 C   0  0  0  0  0  0  0  0  0  0  0  0
  -17.3611  -28.4765   24.5410 C   0  0  0  0  0  0  0  0  0  0  0  0
  -17.7101  -28.0791   22.1139 C   0  0  0  0  0  0  0  0  0  0  0  0
  -25.1776  -14.4475   21.3438 C   0  0  1  0  0  0  0  0  0  0  0  0
  -26.6318  -17.3496   19.3698 C   0  0  1  0  0  0  0  0  0  0  0  0
  -18.5361  -29.3763   21.9649 C   0  0  2  0  0  0  0  0  0  0  0  0
  -17.0021  -21.4900   20.8288 C   0  0  0  0  0  0  0  0  0  0  0  0
  -19.5229  -21.4622   20.4697 C   0  0  0  0  0  0  0  0  0  0  0  0
  -32.3054  -22.5056   18.2617 C   0  0  0  0  0  0  0  0  0  0  0  0
  -29.9746  -17.9793   22.4985 C   0  0  0  0  0  0  0  0  0  0  0  0
  -31.5490  -19.8687   22.0294 C   0  0  0  0  0  0  0  0  0  0  0  0
  -31.6981  -17.7637   20.6991 C   0  0  0  0  0  0  0  0  0  0  0  0
  -28.9630  -22.3810   16.4481 C   0  0  0  0  0  0  0  0  0  0  0  0
  -21.4404  -22.3863   21.2060 C   0  0  0  0  0  0  0  0  0  1  0  0
  -29.7580  -19.3385   20.3141 C   0  0  1  0  0  0  0  0  0  0  0  0
  -31.0105  -21.8675   17.7832 C   0  0  2  0  0  0  0  0  0  0  0  0
  -30.7168  -18.7411   21.3823 C   0  0  0  0  0  0  0  0  0  0  0  0
  -20.9563  -29.6646   22.3774 N   0  0  0  0  0  0  0  0  0  0  0  0
  -19.9961  -29.1149   21.6146 N   0  0  0  0  0  0  0  0  0  0  0  0
  -17.9493  -25.2010   23.0182 N   0  0  0  0  0  0  0  0  0  0  0  0
  -27.5104  -18.4376   19.8039 N   0  0  0  0  0  0  0  0  0  0  0  0
  -17.6480  -27.5219   23.4752 N   0  0  0  0  0  0  0  0  0  0  0  0
  -19.6465  -27.7382   19.7190 N   0  0  0  0  0  0  0  0  0  0  0  0
  -24.1465  -27.9493   20.0377 N   0  0  0  0  0  0  0  0  0  0  0  0
  -25.5714  -15.3931   20.3214 N   0  0  0  0  0  0  0  0  0  0  0  0
  -30.4351  -20.0423   19.2303 N   0  0  0  0  0  0  0  0  0  0  0  0
  -30.2489  -22.8806   16.9993 N   0  3  0  0  0  0  0  0  0  0  0  0
  -22.4045  -27.0914   18.8179 O   0  0  0  0  0  0  0  0  0  0  0  0
  -26.7886  -16.8483   21.6717 O   0  0  0  0  0  0  0  0  0  0  0  0
  -29.4340  -17.3646   19.0392 O   0  0  0  0  0  0  0  0  0  0  0  0
  -29.3804  -22.0820   19.5535 O   0  0  0  0  0  0  0  0  0  0  0  0
  -16.2358  -25.9086   24.3582 O   0  0  0  0  0  0  0  0  0  0  0  0
  -27.0480  -30.7343   23.8926 O   0  0  0  0  0  0  0  0  0  0  0  0
  -22.8231  -22.1377   21.4313 O   0  0  0  0  0  0  0  0  0  1  0  0
  -27.7580  -36.0186   25.2983 F   0  0  0  0  0  0  0  0  0  0  0  0
  -25.4451  -31.9203   25.8075 F   0  0  0  0  0  0  0  0  0  0  0  0
  1  2  1  0  0  0  0
  1  6  2  0  0  0  0
  2  7  2  0  0  0  0
  3  9  2  0  0  0  0
  3 10  1  0  0  0  0
  4 11  2  0  0  0  0
  4 18  1  0  0  0  0
  5 12  1  0  0  0  0
  5 18  2  0  0  0  0
  6 21  1  0  0  0  0
  7 23  1  0  0  0  0
  8 13  2  0  0  0  0
  8 22  1  0  0  0  0
  9 25  1  0  0  0  0
 10 26  2  0  0  0  0
 11 27  1  0  0  0  0
 12 27  2  0  0  0  0
 13 28  1  0  0  0  0
 14 15  2  0  0  0  0
 14 29  1  0  0  0  0
 15 30  1  0  0  0  0
 16 24  1  0  0  0  0
 16 28  2  0  0  0  0
 17 30  2  0  0  0  0
 17 31  1  0  0  0  0
 18 32  1  0  0  0  0
 19 25  2  0  0  0  0
 19 26  1  0  0  0  0
 19 34  1  0  0  0  0
 20 32  1  0  0  0  0
 20 33  2  0  0  0  0
 20 35  1  0  0  0  0
 21 23  2  0  0  0  0
 21 41  1  0  0  0  0
 22 24  2  0  0  0  0
 22 42  1  0  0  0  0
 23 51  1  0  0  0  0
 24 43  1  0  0  0  0
 25 61  1  0  0  0  0
 26 67  1  0  0  0  0
 27 80  1  0  0  0  0
 28 81  1  0  0  0  0
 29 31  2  0  0  0  0
 29 80  1  0  0  0  0
 30 82  1  0  0  0  0
 31 83  1  0  0  0  0
 32 65  2  0  0  0  0
 33 66  1  0  0  0  0
 33 70  1  0  0  0  0
 34 36  2  0  0  0  0
 34 44  1  0  0  0  0
 35 71  1  0  0  0  0
 35 75  2  0  0  0  0
 36 54  1  0  0  0  0
 36 55  1  0  0  0  0
 37 52  1  0  0  0  0
 37 72  1  0  0  0  0
 37 76  2  0  0  0  0
 38 62  1  0  0  0  0
 38 68  1  0  0  0  0
 38 77  2  0  0  0  0
 39 63  1  0  0  0  0
 39 73  1  0  0  0  0
 39 78  2  0  0  0  0
 40 67  1  0  0  0  0
 40 69  1  0  0  0  0
 40 79  2  0  0  0  0
 41 45  1  0  0  0  0
 42 52  1  0  0  0  0
 43 68  1  0  0  0  0
 44 67  1  0  0  0  0
 45 47  1  0  0  0  0
 46 48  1  0  0  0  0
 46 49  1  0  0  0  0
 47 51  1  0  0  0  0
 48 53  1  0  0  0  0
 49 69  1  0  0  0  0
 50 53  1  0  0  0  0
 50 69  1  0  0  0  0
 51 72  1  0  0  0  0
 52 68  1  0  0  0  0
 53 66  1  0  0  0  0
 56 63  1  0  0  0  0
 57 64  1  0  0  0  0
 58 64  1  0  0  0  0
 59 64  1  0  0  0  0
 60 74  1  0  0  0  0
 61 81  1  0  0  0  0
 62 64  1  0  0  0  0
 62 73  1  0  0  0  0
 63 74  1  0  0  0  0
 65 66  1  0  0  0  0
M  CHG  1  74   1
M  ISO  4  40 100  61 101  67 100  81 101
M  END
> <Batch ID>
0028

> <Smiles>
CNC(C)C(=O)NC(C(=O)N1Cc2cc([101O:1][101CH2:1]c3cccc4c3C(=C(C)C)C[100N:0]4[100C:0](=O)N3CCCC(n4nc(-c5ccc(Oc6ccc(F)cc6F)cc5)c(C(N)=O)c4N)C3)ccc2CC1C(=O)NC1CCCc2ccccc21)C(C)(C)C

> <Shape>
0.258

> <Color>
0.057

> <Negative vol penalty>
0.000

$$$$

  -OEChem-04042321313D

 84 93  0     1  0  0  0  0  0999 V2000
  -28.9112  -33.8492   25.4448 C   0  0  0  0  0  0  0  0  0  0  0  0
  -28.8876  -32.5769   24.8827 C   0  0  0  0  0  0  0  0  0  0  0  0
  -23.7590   -9.8706   22.2441 C   0  0  0  0  0  0  0  0  0  0  0  0
  -23.1699   -9.9349   19.9019 C   0  0  0  0  0  0  0  0  0  0  0  0
  -27.7223  -34.4508   25.8554 C   0  0  0  0  0  0  0  0  0  0  0  0
  -27.6752  -31.9048   24.7320 C   0  0  0  0  0  0  0  0  0  0  0  0
  -27.2220  -29.7102   20.1907 C   0  0  0  0  0  0  0  0  0  0  0  0
  -23.1485   -8.6221   22.3634 C   0  0  0  0  0  0  0  0  0  0  0  0
  -22.5594   -8.6864   20.0212 C   0  0  0  0  0  0  0  0  0  0  0  0
  -27.9035  -28.5102   19.9926 C   0  0  0  0  0  0  0  0  0  0  0  0
  -20.0100   -7.4027   22.6587 C   0  0  0  0  0  0  0  0  0  0  0  0
  -19.1828   -7.1893   23.7613 C   0  0  0  0  0  0  0  0  0  0  0  0
  -25.8568  -27.2918   20.3748 C   0  0  0  0  0  0  0  0  0  0  0  0
  -28.7408  -21.0423   19.7897 C   0  0  0  0  0  0  0  0  0  0  0  0
  -26.4753  -21.1339   18.9553 C   0  0  0  0  0  0  0  0  0  0  0  0
  -20.6006   -5.3667   24.4722 C   0  0  0  0  0  0  0  0  0  0  0  0
  -23.7696  -10.5270   21.0134 C   0  0  0  0  0  0  0  0  0  0  0  0
  -25.7426  -12.0789   20.5588 C   0  0  0  0  0  0  0  0  0  0  0  0
  -26.4936  -33.7898   25.7008 C   0  0  0  0  0  0  0  0  0  0  0  0
  -25.8528  -29.7096   20.4936 C   0  0  0  0  0  0  0  0  0  0  0  0
  -26.4689  -32.4976   25.1422 C   0  0  0  0  0  0  0  0  0  0  0  0
  -25.1597  -28.4933   20.5737 C   0  0  0  0  0  0  0  0  0  0  0  0
  -28.9068  -19.7884   19.2016 C   0  0  0  0  0  0  0  0  0  0  0  0
  -26.6413  -19.8801   18.3670 C   0  0  0  0  0  0  0  0  0  0  0  0
  -27.8570  -19.2073   18.4902 C   0  0  0  0  0  0  0  0  0  0  0  0
  -27.5251  -21.7150   19.6666 C   0  0  0  0  0  0  0  0  0  0  0  0
  -22.5487   -8.0300   21.2520 C   0  0  0  0  0  0  0  0  0  0  0  0
  -27.2215  -27.3006   20.0875 C   0  0  0  0  0  0  0  0  0  0  0  0
  -21.1325   -6.5980   22.4627 C   0  0  0  0  0  0  0  0  0  0  0  0
  -19.4781   -6.1713   24.6681 C   0  0  0  0  0  0  0  0  0  0  0  0
  -21.4278   -5.5801   23.3695 C   0  0  0  0  0  0  0  0  0  0  0  0
  -24.3996  -11.8170   20.8896 C   0  0  0  0  0  0  0  0  0  0  0  0
  -25.8384  -13.4490   20.5715 C   0  0  0  0  0  0  0  0  0  0  0  0
  -26.8083  -11.1654   20.2662 C   0  0  0  0  0  0  0  0  0  0  0  0
  -24.1001  -30.6891   22.9578 C   0  0  0  0  0  0  0  0  0  0  0  0
  -21.6276  -29.8924   21.0152 C   0  0  0  0  0  0  0  0  0  0  0  0
  -20.4917  -28.0421   18.3821 C   0  0  0  0  0  0  0  0  0  0  0  0
  -23.8189  -18.4812   19.2509 C   0  0  0  0  0  0  0  0  0  0  0  0
  -25.2399  -34.4610   26.2030 C   0  0  0  0  0  0  0  0  0  0  0  0
  -25.1265  -31.0137   20.6781 C   0  0  0  0  0  0  0  0  0  0  0  0
  -23.6853  -28.4391   20.8765 C   0  0  0  0  0  0  0  0  0  0  0  0
  -23.9561  -33.8348   25.6645 C   0  0  0  0  0  0  0  0  0  0  0  0
  -22.5974  -16.9607   22.2296 C   0  0  0  0  0  0  0  0  0  0  0  0
  -24.0169  -32.3145   25.7744 C   0  0  0  0  0  0  0  0  0  0  0  0
  -23.0626  -15.5080   22.1161 C   0  0  0  0  0  0  0  0  0  0  0  0
  -22.2016  -17.5344   20.8708 C   0  0  0  0  0  0  0  0  0  0  0  0
  -23.6965  -15.9569   19.7087 C   0  0  0  0  0  0  0  0  0  0  0  0
  -26.5209  -24.0183   19.7965 C   0  0  0  0  0  0  0  0  0  0  0  0
  -28.3826  -23.8147   20.7559 C   0  0  0  0  0  0  0  0  0  0  0  0
  -25.1708  -31.7467   24.9393 C   0  0  1  0  0  0  0  0  0  0  0  0
  -23.8420  -30.8728   21.4891 C   0  0  1  0  0  0  0  0  0  0  0  0
  -24.1593  -15.3524   21.0454 C   0  0  2  0  0  0  0  0  0  0  0  0
  -27.4012  -24.9854   20.6006 C   0  0  0  0  0  0  0  0  0  1  0  0
  -30.2184  -19.0889   19.3487 C   0  0  0  0  0  0  0  0  0  0  0  0
  -28.0345  -17.8626   17.8602 C   0  0  0  0  0  0  0  0  0  0  0  0
  -18.4154  -27.5764   17.0519 C   0  0  0  0  0  0  0  0  0  0  0  0
  -20.5605  -28.1625   23.2909 C   0  0  0  0  0  0  0  0  0  0  0  0
  -19.0755  -27.0181   21.6316 C   0  0  0  0  0  0  0  0  0  0  0  0
  -18.8133  -29.4614   22.0603 C   0  0  0  0  0  0  0  0  0  0  0  0
  -21.7321  -29.0284   15.8826 C   0  0  0  0  0  0  0  0  0  0  0  0
  -25.5016  -19.2796   17.6107 C   0  0  0  0  0  0  0  0  0  0  0  0
  -20.8239  -28.6387   20.7670 C   0  0  1  0  0  0  0  0  0  0  0  0
  -19.6736  -28.4235   17.1615 C   0  0  2  0  0  0  0  0  0  0  0  0
  -19.8465  -28.3208   21.9336 C   0  0  0  0  0  0  0  0  0  0  0  0
  -23.6930  -12.9312   21.0974 N   0  0  0  0  0  0  0  0  0  0  0  0
  -24.5955  -13.9066   20.8967 N   0  0  0  0  0  0  0  0  0  0  0  0
  -27.3598  -22.9651   20.2525 N   0  0  0  0  0  0  0  0  0  0  0  0
  -23.0209  -29.7407   21.0550 N   0  0  0  0  0  0  0  0  0  0  0  0
  -23.2853  -17.3564   19.9014 N   0  0  0  0  0  0  0  0  0  0  0  0
  -26.8638  -14.2949   20.3360 N   0  0  0  0  0  0  0  0  0  0  0  0
  -26.5373   -9.7907   20.2974 N   0  0  0  0  0  0  0  0  0  0  0  0
  -24.8146  -31.7205   23.5368 N   0  0  0  0  0  0  0  0  0  0  0  0
  -20.1724  -28.8207   19.4744 N   0  0  0  0  0  0  0  0  0  0  0  0
  -24.8473  -18.2248   18.3523 N   0  0  0  0  0  0  0  0  0  0  0  0
  -20.4766  -28.2350   15.9202 N   0  3  0  0  0  0  0  0  0  0  0  0
  -27.9705  -11.5562   20.0014 O   0  0  0  0  0  0  0  0  0  0  0  0
  -23.6808  -29.6866   23.5242 O   0  0  0  0  0  0  0  0  0  0  0  0
  -21.0411  -30.9677   21.1609 O   0  0  0  0  0  0  0  0  0  0  0  0
  -21.3274  -27.1411   18.3689 O   0  0  0  0  0  0  0  0  0  0  0  0
  -23.4129  -19.6294   19.4597 O   0  0  0  0  0  0  0  0  0  0  0  0
  -21.9532   -6.8116   21.3680 O   0  0  0  0  0  0  0  0  0  0  0  0
  -27.8845  -26.1278   19.8952 O   0  0  0  0  0  0  0  0  0  1  0  0
  -18.6845   -5.9675   25.7277 F   0  0  0  0  0  0  0  0  0  0  0  0
  -22.5054   -4.8046   23.1872 F   0  0  0  0  0  0  0  0  0  0  0  0
  1  2  1  0  0  0  0
  1  5  2  0  0  0  0
  2  6  2  0  0  0  0
  3  8  2  0  0  0  0
  3 17  1  0  0  0  0
  4  9  1  0  0  0  0
  4 17  2  0  0  0  0
  5 19  1  0  0  0  0
  6 21  1  0  0  0  0
  7 10  2  0  0  0  0
  7 20  1  0  0  0  0
  8 27  1  0  0  0  0
  9 27  2  0  0  0  0
 10 28  1  0  0  0  0
 11 12  2  0  0  0  0
 11 29  1  0  0  0  0
 12 30  1  0  0  0  0
 13 22  1  0  0  0  0
 13 28  2  0  0  0  0
 14 23  2  0  0  0  0
 14 26  1  0  0  0  0
 15 24  1  0  0  0  0
 15 26  2  0  0  0  0
 16 30  2  0  0  0  0
 16 31  1  0  0  0  0
 17 32  1  0  0  0  0
 18 32  1  0  0  0  0
 18 33  2  0  0  0  0
 18 34  1  0  0  0  0
 19 21  2  0  0  0  0
 19 39  1  0  0  0  0
 20 22  2  0  0  0  0
 20 40  1  0  0  0  0
 21 50  1  0  0  0  0
 22 41  1  0  0  0  0
 23 25  1  0  0  0  0
 23 54  1  0  0  0  0
 24 25  2  0  0  0  0
 24 61  1  0  0  0  0
 25 55  1  0  0  0  0
 26 67  1  0  0  0  0
 27 81  1  0  0  0  0
 28 82  1  0  0  0  0
 29 31  2  0  0  0  0
 29 81  1  0  0  0  0
 30 83  1  0  0  0  0
 31 84  1  0  0  0  0
 32 65  2  0  0  0  0
 33 66  1  0  0  0  0
 33 70  1  0  0  0  0
 34 71  1  0  0  0  0
 34 76  2  0  0  0  0
 35 51  1  0  0  0  0
 35 72  1  0  0  0  0
 35 77  2  0  0  0  0
 36 62  1  0  0  0  0
 36 68  1  0  0  0  0
 36 78  2  0  0  0  0
 37 63  1  0  0  0  0
 37 73  1  0  0  0  0
 37 79  2  0  0  0  0
 38 69  1  0  0  0  0
 38 74  1  0  0  0  0
 38 80  2  0  0  0  0
 39 42  1  0  0  0  0
 40 51  1  0  0  0  0
 41 68  1  0  0  0  0
 42 44  1  0  0  0  0
 43 45  1  0  0  0  0
 43 46  1  0  0  0  0
 44 50  1  0  0  0  0
 45 52  1  0  0  0  0
 46 69  1  0  0  0  0
 47 52  1  0  0  0  0
 47 69  1  0  0  0  0
 48 53  1  0  0  0  0
 48 67  1  0  0  0  0
 49 53  1  0  0  0  0
 49 67  1  0  0  0  0
 50 72  1  0  0  0  0
 51 68  1  0  0  0  0
 52 66  1  0  0  0  0
 53 82  1  0  0  0  0
 56 63  1  0  0  0  0
 57 64  1  0  0  0  0
 58 64  1  0  0  0  0
 59 64  1  0  0  0  0
 60 75  1  0  0  0  0
 61 74  1  0  0  0  0
 62 64  1  0  0  0  0
 62 73  1  0  0  0  0
 63 75  1  0  0  0  0
 65 66  1  0  0  0  0
M  CHG  1  75   1
M  ISO  4  38 100  53 101  74 100  82 101
M  END
> <Batch ID>
0028

> <Smiles>
CNC(C)C(=O)NC(C(=O)N1Cc2cc([101O:1][101CH:1]3CN(c4cc(C)c(C)c(C[100NH:0][100C:0](=O)N5CCCC(n6nc(-c7ccc(Oc8ccc(F)cc8F)cc7)c(C(N)=O)c6N)C5)c4)C3)ccc2CC1C(=O)NC1CCCc2ccccc21)C(C)(C)C

> <Shape>
0.309

> <Color>
0.107

> <Negative vol penalty>
0.000

$$$$

  -OEChem-04042321313D

 87 96  0     1  0  0  0  0  0999 V2000
  -24.2589  -36.3210   24.1773 C   0  0  0  0  0  0  0  0  0  0  0  0
  -25.1034  -35.4972   23.4400 C   0  0  0  0  0  0  0  0  0  0  0  0
  -24.1351   -9.0615   21.2183 C   0  0  0  0  0  0  0  0  0  0  0  0
  -25.1325  -10.0221   23.1980 C   0  0  0  0  0  0  0  0  0  0  0  0
  -23.4790  -35.7818   25.1995 C   0  0  0  0  0  0  0  0  0  0  0  0
  -25.1692  -34.1339   23.7252 C   0  0  0  0  0  0  0  0  0  0  0  0
  -26.0134  -29.5728   19.7265 C   0  0  0  0  0  0  0  0  0  0  0  0
  -30.7279  -21.5265   20.1331 C   0  0  0  0  0  0  0  0  0  0  0  0
  -30.5645  -20.1442   20.0442 C   0  0  0  0  0  0  0  0  0  0  0  0
  -23.9935   -7.8424   21.8811 C   0  0  0  0  0  0  0  0  0  0  0  0
  -24.9909   -8.8030   23.8609 C   0  0  0  0  0  0  0  0  0  0  0  0
  -27.1449  -28.8473   19.3563 C   0  0  0  0  0  0  0  0  0  0  0  0
  -23.0395   -4.5794   23.1686 C   0  0  0  0  0  0  0  0  0  0  0  0
  -21.8234   -3.9086   23.0397 C   0  0  0  0  0  0  0  0  0  0  0  0
  -26.5415  -27.1170   20.9251 C   0  0  0  0  0  0  0  0  0  0  0  0
  -28.3976  -20.3329   21.0960 C   0  0  0  0  0  0  0  0  0  0  0  0
  -20.6782   -5.7967   24.0198 C   0  0  0  0  0  0  0  0  0  0  0  0
  -24.7047  -10.1514   21.8767 C   0  0  0  0  0  0  0  0  0  0  0  0
  -23.8274  -12.2027   20.6398 C   0  0  0  0  0  0  0  0  0  0  0  0
  -23.5280  -34.4095   25.4910 C   0  0  0  0  0  0  0  0  0  0  0  0
  -25.1417  -29.0801   20.7083 C   0  0  0  0  0  0  0  0  0  0  0  0
  -24.3902  -33.5760   24.7531 C   0  0  0  0  0  0  0  0  0  0  0  0
  -25.3982  -27.8370   21.3041 C   0  0  0  0  0  0  0  0  0  0  0  0
  -28.5611  -21.7152   21.1849 C   0  0  0  0  0  0  0  0  0  0  0  0
  -29.7263  -22.3121   20.7035 C   0  0  0  0  0  0  0  0  0  0  0  0
  -29.3993  -19.5473   20.5256 C   0  0  0  0  0  0  0  0  0  0  0  0
  -24.4214   -7.7131   23.2024 C   0  0  0  0  0  0  0  0  0  0  0  0
  -27.4107  -27.6206   19.9577 C   0  0  0  0  0  0  0  0  0  0  0  0
  -23.0751   -5.8588   23.7231 C   0  0  0  0  0  0  0  0  0  0  0  0
  -20.6427   -4.5172   23.4653 C   0  0  0  0  0  0  0  0  0  0  0  0
  -21.8944   -6.4675   24.1487 C   0  0  0  0  0  0  0  0  0  0  0  0
  -24.8517  -11.4108   21.1924 C   0  0  0  0  0  0  0  0  0  0  0  0
  -24.4809  -13.2875   20.1082 C   0  0  0  0  0  0  0  0  0  0  0  0
  -29.0199  -24.6251   20.1492 C   0  0  0  0  0  0  0  0  0  0  0  0
  -22.4117  -11.9779   20.6098 C   0  0  0  0  0  0  0  0  0  0  0  0
  -24.1943  -30.0801   23.5729 C   0  0  0  0  0  0  0  0  0  0  0  0
  -22.1922  -27.5361   23.3680 C   0  0  0  0  0  0  0  0  0  0  0  0
  -21.5258  -24.4754   22.0133 C   0  0  0  0  0  0  0  0  0  0  0  0
  -28.1417  -17.3816   20.8610 C   0  0  0  0  0  0  0  0  0  0  0  0
  -22.7016  -33.8806   26.6364 C   0  0  0  0  0  0  0  0  0  0  0  0
  -23.9111  -29.8622   21.0772 C   0  0  0  0  0  0  0  0  0  0  0  0
  -24.4829  -27.2544   22.3488 C   0  0  0  0  0  0  0  0  0  0  0  0
  -22.5504  -32.3617   26.6280 C   0  0  0  0  0  0  0  0  0  0  0  0
  -31.1604  -25.6607   21.8628 C   0  0  0  0  0  0  0  0  0  0  0  0
  -29.5113  -13.8650   20.1667 C   0  0  0  0  0  0  0  0  0  0  0  0
  -23.8989  -31.6923   26.3828 C   0  0  0  0  0  0  0  0  0  0  0  0
  -30.5169  -26.5587   20.8312 C   0  0  0  0  0  0  0  0  0  0  0  0
  -28.2369  -13.1915   19.6629 C   0  0  0  0  0  0  0  0  0  0  0  0
  -31.1869  -24.2279   21.3548 C   0  0  0  0  0  0  0  0  0  0  0  0
  -29.4672  -15.3791   20.0044 C   0  0  0  0  0  0  0  0  0  0  0  0
  -27.2113  -15.0821   21.0429 C   0  0  0  0  0  0  0  0  0  0  0  0
  -24.4709  -32.0879   25.0161 C   0  0  1  0  0  0  0  0  0  0  0  0
  -29.1006  -26.0829   20.5902 C   0  0  1  0  0  0  0  0  0  1  0  0
  -23.3678  -29.5054   22.4574 C   0  0  1  0  0  0  0  0  0  0  0  0
  -26.9615  -13.9948   19.9861 C   0  0  2  0  0  0  0  0  0  0  0  0
  -19.8325  -22.6241   22.0664 C   0  0  0  0  0  0  0  0  0  0  0  0
  -23.2815  -26.6204   26.0670 C   0  0  0  0  0  0  0  0  0  0  0  0
  -22.2973  -24.3622   25.6197 C   0  0  0  0  0  0  0  0  0  0  0  0
  -20.8094  -26.3567   25.7960 C   0  0  0  0  0  0  0  0  0  0  0  0
  -20.9225  -24.7879   19.1328 C   0  0  0  0  0  0  0  0  0  0  0  0
  -27.4723  -22.5324   21.8010 C   0  0  0  0  0  0  0  0  0  0  0  0
  -22.2726  -26.0786   23.7530 C   0  0  1  0  0  0  0  0  0  0  0  0
  -20.2700  -23.9072   21.3772 C   0  0  2  0  0  0  0  0  0  0  0  0
  -22.1837  -25.8661   25.2907 C   0  0  0  0  0  0  0  0  0  0  0  0
  -26.0639  -11.9467   21.0270 N   0  0  0  0  0  0  0  0  0  0  0  0
  -25.8054  -13.0870   20.3644 N   0  0  0  0  0  0  0  0  0  0  0  0
  -29.9156  -23.7446   20.7861 N   0  0  0  0  0  0  0  0  0  0  0  0
  -23.2959  -28.0599   22.6801 N   0  0  0  0  0  0  0  0  0  0  0  0
  -28.2840  -15.9922   20.6251 N   0  0  0  0  0  0  0  0  0  0  0  0
  -24.0461  -14.3837   19.4512 N   0  0  0  0  0  0  0  0  0  0  0  0
  -21.6346  -12.4692   21.6676 N   0  0  0  0  0  0  0  0  0  0  0  0
  -29.2332  -18.1427   20.4344 N   0  0  0  0  0  0  0  0  0  0  0  0
  -23.8118  -31.3504   23.9597 N   0  0  0  0  0  0  0  0  0  0  0  0
  -21.2289  -25.3978   22.9943 N   0  0  0  0  0  0  0  0  0  0  0  0
  -20.5084  -23.6092   19.9366 N   0  3  0  0  0  0  0  0  0  0  0  0
  -28.1700  -24.2955   19.3178 O   0  0  0  0  0  0  0  0  0  0  0  0
  -21.8544  -11.3453   19.6808 O   0  0  0  0  0  0  0  0  0  0  0  0
  -25.1102  -29.4194   24.0484 O   0  0  0  0  0  0  0  0  0  0  0  0
  -21.1840  -28.1840   23.6603 O   0  0  0  0  0  0  0  0  0  0  0  0
  -22.6569  -24.1324   21.6764 O   0  0  0  0  0  0  0  0  0  0  0  0
  -27.1287  -17.8492   21.3854 O   0  0  0  0  0  0  0  0  0  0  0  0
  -24.2832   -6.5238   23.8496 O   0  0  0  0  0  0  0  0  0  0  0  0
  -28.5148  -26.9108   19.5987 O   0  0  0  0  0  0  0  0  0  1  0  0
  -19.4747   -3.8736   23.3402 F   0  0  0  0  0  0  0  0  0  0  0  0
  -21.9220   -7.6970   24.6811 F   0  0  0  0  0  0  0  0  0  0  0  0
  -26.7896  -21.8063   22.7234 F   0  0  0  0  0  0  0  0  0  0  0  0
  -26.5686  -22.9140   20.8621 F   0  0  0  0  0  0  0  0  0  0  0  0
  1  2  1  0  0  0  0
  1  5  2  0  0  0  0
  2  6  2  0  0  0  0
  3 10  2  0  0  0  0
  3 18  1  0  0  0  0
  4 11  1  0  0  0  0
  4 18  2  0  0  0  0
  5 20  1  0  0  0  0
  6 22  1  0  0  0  0
  7 12  2  0  0  0  0
  7 21  1  0  0  0  0
  8  9  2  0  0  0  0
  8 25  1  0  0  0  0
  9 26  1  0  0  0  0
 10 27  1  0  0  0  0
 11 27  2  0  0  0  0
 12 28  1  0  0  0  0
 13 14  2  0  0  0  0
 13 29  1  0  0  0  0
 14 30  1  0  0  0  0
 15 23  1  0  0  0  0
 15 28  2  0  0  0  0
 16 24  1  0  0  0  0
 16 26  2  0  0  0  0
 17 30  2  0  0  0  0
 17 31  1  0  0  0  0
 18 32  1  0  0  0  0
 19 32  1  0  0  0  0
 19 33  2  0  0  0  0
 19 35  1  0  0  0  0
 20 22  2  0  0  0  0
 20 40  1  0  0  0  0
 21 23  2  0  0  0  0
 21 41  1  0  0  0  0
 22 52  1  0  0  0  0
 23 42  1  0  0  0  0
 24 25  2  0  0  0  0
 24 61  1  0  0  0  0
 25 67  1  0  0  0  0
 26 72  1  0  0  0  0
 27 82  1  0  0  0  0
 28 83  1  0  0  0  0
 29 31  2  0  0  0  0
 29 82  1  0  0  0  0
 30 84  1  0  0  0  0
 31 85  1  0  0  0  0
 32 65  2  0  0  0  0
 33 66  1  0  0  0  0
 33 70  1  0  0  0  0
 34 53  1  0  0  0  0
 34 67  1  0  0  0  0
 34 76  2  0  0  0  0
 35 71  1  0  0  0  0
 35 77  2  0  0  0  0
 36 54  1  0  0  0  0
 36 73  1  0  0  0  0
 36 78  2  0  0  0  0
 37 62  1  0  0  0  0
 37 68  1  0  0  0  0
 37 79  2  0  0  0  0
 38 63  1  0  0  0  0
 38 74  1  0  0  0  0
 38 80  2  0  0  0  0
 39 69  1  0  0  0  0
 39 72  1  0  0  0  0
 39 81  2  0  0  0  0
 40 43  1  0  0  0  0
 41 54  1  0  0  0  0
 42 68  1  0  0  0  0
 43 46  1  0  0  0  0
 44 47  1  0  0  0  0
 44 49  1  0  0  0  0
 45 48  1  0  0  0  0
 45 50  1  0  0  0  0
 46 52  1  0  0  0  0
 47 53  1  0  0  0  0
 48 55  1  0  0  0  0
 49 67  1  0  0  0  0
 50 69  1  0  0  0  0
 51 55  1  0  0  0  0
 51 69  1  0  0  0  0
 52 73  1  0  0  0  0
 53 83  1  0  0  0  0
 54 68  1  0  0  0  0
 55 66  1  0  0  0  0
 56 63  1  0  0  0  0
 57 64  1  0  0  0  0
 58 64  1  0  0  0  0
 59 64  1  0  0  0  0
 60 75  1  0  0  0  0
 61 86  1  0  0  0  0
 61 87  1  0  0  0  0
 62 64  1  0  0  0  0
 62 74  1  0  0  0  0
 63 75  1  0  0  0  0
 65 66  1  0  0  0  0
M  CHG  1  75   1
M  ISO  4  39 100  53 101  72 100  83 101
M  END
> <Batch ID>
0028

> <Smiles>
CNC(C)C(=O)NC(C(=O)N1Cc2cc([101O:1][101CH:1]3CCCN(c4ccc([100NH:0][100C:0](=O)N5CCCC(n6nc(-c7ccc(Oc8ccc(F)cc8F)cc7)c(C(N)=O)c6N)C5)cc4C(F)F)C3=O)ccc2CC1C(=O)NC1CCCc2ccccc21)C(C)(C)C

> <Shape>
0.307

> <Color>
0.103

> <Negative vol penalty>
0.000

$$$$

  -OEChem-04042321313D

 82 90  0     1  0  0  0  0  0999 V2000
  -29.1783  -35.5232   23.3084 C   0  0  0  0  0  0  0  0  0  0  0  0
  -29.5549  -34.1840   23.3144 C   0  0  0  0  0  0  0  0  0  0  0  0
  -23.1175   -9.7920   19.8978 C   0  0  0  0  0  0  0  0  0  0  0  0
  -23.9081   -9.7450   22.1803 C   0  0  0  0  0  0  0  0  0  0  0  0
  -27.8331  -35.8673   23.1825 C   0  0  0  0  0  0  0  0  0  0  0  0
  -28.5863  -33.1880   23.1955 C   0  0  0  0  0  0  0  0  0  0  0  0
  -29.1755  -27.8016   20.3414 C   0  0  0  0  0  0  0  0  0  0  0  0
  -22.4144   -8.6075   20.1170 C   0  0  0  0  0  0  0  0  0  0  0  0
  -23.2049   -8.5605   22.3995 C   0  0  0  0  0  0  0  0  0  0  0  0
  -29.4498  -26.5173   20.8092 C   0  0  0  0  0  0  0  0  0  0  0  0
  -20.0125   -7.6383   23.0145 C   0  0  0  0  0  0  0  0  0  0  0  0
  -19.2733   -7.5338   24.1928 C   0  0  0  0  0  0  0  0  0  0  0  0
  -27.0869  -26.0329   20.8468 C   0  0  0  0  0  0  0  0  0  0  0  0
  -30.9462  -17.8527   20.7242 C   0  0  0  0  0  0  0  0  0  0  0  0
  -29.3342  -17.9271   22.5221 C   0  0  0  0  0  0  0  0  0  0  0  0
  -20.5859   -5.6135   24.8459 C   0  0  0  0  0  0  0  0  0  0  0  0
  -23.8645  -10.3608   20.9295 C   0  0  0  0  0  0  0  0  0  0  0  0
  -30.3256  -19.9725   21.7032 C   0  0  0  0  0  0  0  0  0  0  0  0
  -24.1238  -12.8983   20.8928 C   0  0  0  0  0  0  0  0  0  0  0  0
  -26.8484  -34.8753   23.0523 C   0  0  0  0  0  0  0  0  0  0  0  0
  -27.8521  -28.2156   20.1328 C   0  0  0  0  0  0  0  0  0  0  0  0
  -27.2265  -33.5191   23.0690 C   0  0  0  0  0  0  0  0  0  0  0  0
  -26.7986  -27.3222   20.3738 C   0  0  0  0  0  0  0  0  0  0  0  0
  -30.0785  -17.1957   21.5965 C   0  0  0  0  0  0  0  0  0  0  0  0
  -22.4580   -7.9917   21.3678 C   0  0  0  0  0  0  0  0  0  0  0  0
  -28.4053  -25.6336   21.0648 C   0  0  0  0  0  0  0  0  0  0  0  0
  -21.0383   -6.7304   22.7519 C   0  0  0  0  0  0  0  0  0  0  0  0
  -19.5600   -6.5214   25.1085 C   0  0  0  0  0  0  0  0  0  0  0  0
  -21.3251   -5.7180   23.6676 C   0  0  0  0  0  0  0  0  0  0  0  0
  -31.0699  -19.2411   20.7775 C   0  0  0  0  0  0  0  0  0  0  0  0
  -29.4578  -19.3155   22.5755 C   0  0  0  0  0  0  0  0  0  0  0  0
  -24.5915  -11.5841   20.7036 C   0  0  0  0  0  0  0  0  0  0  0  0
  -25.1863  -13.6948   20.5421 C   0  0  0  0  0  0  0  0  0  0  0  0
  -30.4560  -21.4381   21.7594 C   0  0  0  0  0  0  0  0  0  0  0  0
  -29.7286  -22.3081   21.0416 C   0  0  0  0  0  0  0  0  0  0  0  0
  -22.8433  -13.3580   21.3453 C   0  0  0  0  0  0  0  0  0  0  0  0
  -25.9940  -30.4882   21.3520 C   0  0  0  0  0  0  0  0  0  0  0  0
  -23.9258  -29.4813   19.0649 C   0  0  0  0  0  0  0  0  0  0  0  0
  -22.8948  -26.9739   16.9921 C   0  0  0  0  0  0  0  0  0  0  0  0
  -30.6182  -14.9104   20.6842 C   0  0  0  0  0  0  0  0  0  0  0  0
  -25.4023  -35.2947   22.9663 C   0  0  0  0  0  0  0  0  0  0  0  0
  -27.5743  -29.5954   19.6023 C   0  0  0  0  0  0  0  0  0  0  0  0
  -25.3614  -27.7110   20.1467 C   0  0  0  0  0  0  0  0  0  0  0  0
  -24.4758  -34.1883   22.4685 C   0  0  0  0  0  0  0  0  0  0  0  0
  -29.5492  -12.5443   18.2478 C   0  0  0  0  0  0  0  0  0  0  0  0
  -24.7729  -32.8779   23.1906 C   0  0  0  0  0  0  0  0  0  0  0  0
  -28.1256  -12.1917   18.6851 C   0  0  0  0  0  0  0  0  0  0  0  0
  -30.4729  -12.7613   19.4451 C   0  0  0  0  0  0  0  0  0  0  0  0
  -28.5628  -13.3759   20.8745 C   0  0  0  0  0  0  0  0  0  0  0  0
  -26.2076  -32.4105   22.9174 C   0  0  1  0  0  0  0  0  0  0  0  0
  -26.1630  -30.0829   19.9151 C   0  0  1  0  0  0  0  0  0  0  0  0
  -27.5800  -13.2116   19.7037 C   0  0  2  0  0  0  0  0  0  0  0  0
  -21.1544  -26.4351   15.2664 C   0  0  0  0  0  0  0  0  0  0  0  0
  -21.8461  -29.1421   21.2717 C   0  0  0  0  0  0  0  0  0  0  0  0
  -20.5001  -27.7419   19.6919 C   0  0  0  0  0  0  0  0  0  0  0  0
  -20.9649  -30.1323   19.1510 C   0  0  0  0  0  0  0  0  0  0  0  0
  -24.9404  -26.5267   14.9006 C   0  0  0  0  0  0  0  0  0  0  0  0
  -29.9069  -23.7903   21.1227 C   0  0  0  0  0  0  0  0  0  1  0  0
  -22.8359  -28.4393   18.9930 C   0  0  1  0  0  0  0  0  0  0  0  0
  -22.5586  -26.9650   15.5117 C   0  0  2  0  0  0  0  0  0  0  0  0
  -21.5636  -28.8569   19.7832 C   0  0  0  0  0  0  0  0  0  0  0  0
  -25.8529  -11.5437   20.2663 N   0  0  0  0  0  0  0  0  0  0  0  0
  -26.1868  -12.8424   20.1779 N   0  0  0  0  0  0  0  0  0  0  0  0
  -25.1407  -29.0730   19.6333 N   0  0  0  0  0  0  0  0  0  0  0  0
  -29.8933  -13.7428   20.3646 N   0  0  0  0  0  0  0  0  0  0  0  0
  -25.3531  -15.0341   20.5126 N   0  0  0  0  0  0  0  0  0  0  0  0
  -21.8656  -12.4055   21.6635 N   0  0  0  0  0  0  0  0  0  0  0  0
  -29.9528  -15.7854   21.5422 N   0  0  0  0  0  0  0  0  0  0  0  0
  -26.3024  -31.8116   21.6033 N   0  0  0  0  0  0  0  0  0  0  0  0
  -22.6032  -28.1892   17.5747 N   0  0  0  0  0  0  0  0  0  0  0  0
  -23.5220  -26.1058   14.7670 N   0  3  0  0  0  0  0  0  0  0  0  0
  -22.5686  -14.5777   21.4483 O   0  0  0  0  0  0  0  0  0  0  0  0
  -25.6108  -29.6619   22.1718 O   0  0  0  0  0  0  0  0  0  0  0  0
  -23.7096  -30.6138   18.6263 O   0  0  0  0  0  0  0  0  0  0  0  0
  -23.3652  -25.9991   17.5742 O   0  0  0  0  0  0  0  0  0  0  0  0
  -31.7348  -15.1315   20.2085 O   0  0  0  0  0  0  0  0  0  0  0  0
  -21.7718   -6.8360   21.5821 O   0  0  0  0  0  0  0  0  0  0  0  0
  -28.6702  -24.3796   21.5222 O   0  0  0  0  0  0  0  0  0  1  0  0
  -18.8511   -6.4221   26.2406 F   0  0  0  0  0  0  0  0  0  0  0  0
  -22.3102   -4.8436   23.4214 F   0  0  0  0  0  0  0  0  0  0  0  0
  -32.1635  -19.9962   19.6686 Cl  0  0  0  0  0  0  0  0  0  0  0  0
  -28.5073  -20.1651   23.7463 Cl  0  0  0  0  0  0  0  0  0  0  0  0
  1  2  1  0  0  0  0
  1  5  2  0  0  0  0
  2  6  2  0  0  0  0
  3  8  2  0  0  0  0
  3 17  1  0  0  0  0
  4  9  1  0  0  0  0
  4 17  2  0  0  0  0
  5 20  1  0  0  0  0
  6 22  1  0  0  0  0
  7 10  2  0  0  0  0
  7 21  1  0  0  0  0
  8 25  1  0  0  0  0
  9 25  2  0  0  0  0
 10 26  1  0  0  0  0
 11 12  2  0  0  0  0
 11 27  1  0  0  0  0
 12 28  1  0  0  0  0
 13 23  1  0  0  0  0
 13 26  2  0  0  0  0
 14 24  1  0  0  0  0
 14 30  2  0  0  0  0
 15 24  2  0  0  0  0
 15 31  1  0  0  0  0
 16 28  2  0  0  0  0
 16 29  1  0  0  0  0
 17 32  1  0  0  0  0
 18 30  1  0  0  0  0
 18 31  2  0  0  0  0
 18 34  1  0  0  0  0
 19 32  1  0  0  0  0
 19 33  2  0  0  0  0
 19 36  1  0  0  0  0
 20 22  2  0  0  0  0
 20 41  1  0  0  0  0
 21 23  2  0  0  0  0
 21 42  1  0  0  0  0
 22 50  1  0  0  0  0
 23 43  1  0  0  0  0
 24 68  1  0  0  0  0
 25 77  1  0  0  0  0
 26 78  1  0  0  0  0
 27 29  2  0  0  0  0
 27 77  1  0  0  0  0
 28 79  1  0  0  0  0
 29 80  1  0  0  0  0
 30 81  1  0  0  0  0
 31 82  1  0  0  0  0
 32 62  2  0  0  0  0
 33 63  1  0  0  0  0
 33 66  1  0  0  0  0
 34 35  2  0  0  0  0
 35 58  1  0  0  0  0
 36 67  1  0  0  0  0
 36 72  2  0  0  0  0
 37 51  1  0  0  0  0
 37 69  1  0  0  0  0
 37 73  2  0  0  0  0
 38 59  1  0  0  0  0
 38 64  1  0  0  0  0
 38 74  2  0  0  0  0
 39 60  1  0  0  0  0
 39 70  1  0  0  0  0
 39 75  2  0  0  0  0
 40 65  1  0  0  0  0
 40 68  1  0  0  0  0
 40 76  2  0  0  0  0
 41 44  1  0  0  0  0
 42 51  1  0  0  0  0
 43 64  1  0  0  0  0
 44 46  1  0  0  0  0
 45 47  1  0  0  0  0
 45 48  1  0  0  0  0
 46 50  1  0  0  0  0
 47 52  1  0  0  0  0
 48 65  1  0  0  0  0
 49 52  1  0  0  0  0
 49 65  1  0  0  0  0
 50 69  1  0  0  0  0
 51 64  1  0  0  0  0
 52 63  1  0  0  0  0
 53 60  1  0  0  0  0
 54 61  1  0  0  0  0
 55 61  1  0  0  0  0
 56 61  1  0  0  0  0
 57 71  1  0  0  0  0
 58 78  1  0  0  0  0
 59 61  1  0  0  0  0
 59 70  1  0  0  0  0
 60 71  1  0  0  0  0
 62 63  1  0  0  0  0
M  CHG  1  71   1
M  ISO  4  40 100  58 101  68 100  78 101
M  END
> <Batch ID>
0028

> <Smiles>
CNC(C)C(=O)NC(C(=O)N1Cc2cc([101O:1][101CH2:1]C=Cc3c(Cl)cc([100NH:0][100C:0](=O)N4CCCC(n5nc(-c6ccc(Oc7ccc(F)cc7F)cc6)c(C(N)=O)c5N)C4)cc3Cl)ccc2CC1C(=O)NC1CCCc2ccccc21)C(C)(C)C

> <Shape>
0.340

> <Color>
0.212

> <Negative vol penalty>
0.000

$$$$

  -OEChem-04042321313D

 84 93  0     1  0  0  0  0  0999 V2000
  -28.6736  -26.8372   30.6227 C   0  0  0  0  0  0  0  0  0  0  0  0
  -29.2490  -25.6143   30.9524 C   0  0  0  0  0  0  0  0  0  0  0  0
  -33.2491  -11.1591   24.8260 C   0  0  0  0  0  0  0  0  0  0  0  0
  -23.1465  -10.1894   22.1064 C   0  0  0  0  0  0  0  0  0  0  0  0
  -23.7758   -9.4704   19.8874 C   0  0  0  0  0  0  0  0  0  0  0  0
  -27.7352  -26.9101   29.5942 C   0  0  0  0  0  0  0  0  0  0  0  0
  -28.8855  -24.4632   30.2543 C   0  0  0  0  0  0  0  0  0  0  0  0
  -32.4906  -19.7154   28.8519 C   0  0  0  0  0  0  0  0  0  0  0  0
  -32.9577  -11.6845   26.0848 C   0  0  0  0  0  0  0  0  0  0  0  0
  -32.4762  -11.5216   23.7229 C   0  0  0  0  0  0  0  0  0  0  0  0
  -22.4075   -9.0186   22.2762 C   0  0  0  0  0  0  0  0  0  0  0  0
  -23.0369   -8.2996   20.0572 C   0  0  0  0  0  0  0  0  0  0  0  0
  -32.6702  -18.4666   29.4452 C   0  0  0  0  0  0  0  0  0  0  0  0
  -23.0143   -5.7746   23.0116 C   0  0  0  0  0  0  0  0  0  0  0  0
  -23.1500   -5.0920   24.2204 C   0  0  0  0  0  0  0  0  0  0  0  0
  -31.1041  -17.5055   27.8822 C   0  0  0  0  0  0  0  0  0  0  0  0
  -20.7871   -5.3685   24.6417 C   0  0  0  0  0  0  0  0  0  0  0  0
  -23.8306  -10.4153   20.9120 C   0  0  0  0  0  0  0  0  0  0  0  0
  -24.1132  -12.9472   20.7812 C   0  0  0  0  0  0  0  0  0  0  0  0
  -27.3672  -25.7610   28.8767 C   0  0  0  0  0  0  0  0  0  0  0  0
  -31.6067  -19.8710   27.7744 C   0  0  0  0  0  0  0  0  0  0  0  0
  -27.9403  -24.5206   29.2161 C   0  0  0  0  0  0  0  0  0  0  0  0
  -30.9170  -18.7568   27.2754 C   0  0  0  0  0  0  0  0  0  0  0  0
  -31.1202  -12.9349   25.1375 C   0  0  0  0  0  0  0  0  0  0  0  0
  -31.8932  -12.5724   26.2406 C   0  0  0  0  0  0  0  0  0  0  0  0
  -31.4117  -12.4095   23.8787 C   0  0  0  0  0  0  0  0  0  0  0  0
  -22.3527   -8.0737   21.2516 C   0  0  0  0  0  0  0  0  0  0  0  0
  -31.9747  -17.3619   28.9623 C   0  0  0  0  0  0  0  0  0  0  0  0
  -21.7651   -6.2542   22.6178 C   0  0  0  0  0  0  0  0  0  0  0  0
  -22.0364   -4.8890   25.0354 C   0  0  0  0  0  0  0  0  0  0  0  0
  -20.6515   -6.0512   23.4328 C   0  0  0  0  0  0  0  0  0  0  0  0
  -24.5936  -11.6248   20.7358 C   0  0  0  0  0  0  0  0  0  0  0  0
  -25.2234  -13.7238   20.5559 C   0  0  0  0  0  0  0  0  0  0  0  0
  -22.7823  -13.4305   21.0071 C   0  0  0  0  0  0  0  0  0  0  0  0
  -28.9483  -21.5411   27.2772 C   0  0  0  0  0  0  0  0  0  0  0  0
  -29.2780  -20.4253   24.2492 C   0  0  0  0  0  0  0  0  0  0  0  0
  -30.0070  -18.7157   21.3869 C   0  0  0  0  0  0  0  0  0  0  0  0
  -31.0691  -12.8371   21.4198 C   0  0  0  0  0  0  0  0  0  0  0  0
  -26.3134  -25.8812   27.8044 C   0  0  0  0  0  0  0  0  0  0  0  0
  -31.4444  -21.2195   27.1283 C   0  0  0  0  0  0  0  0  0  0  0  0
  -29.9718  -18.8668   26.1079 C   0  0  0  0  0  0  0  0  0  0  0  0
  -26.2607  -24.6793   26.8648 C   0  0  0  0  0  0  0  0  0  0  0  0
  -29.4685  -13.6352   18.3411 C   0  0  0  0  0  0  0  0  0  0  0  0
  -30.4694  -12.8036   29.6767 C   0  0  0  0  0  0  0  0  0  0  0  0
  -26.2911  -23.3781   27.6602 C   0  0  0  0  0  0  0  0  0  0  0  0
  -27.9922  -13.3364   18.6119 C   0  0  0  0  0  0  0  0  0  0  0  0
  -31.1460  -14.0678   30.1850 C   0  0  0  0  0  0  0  0  0  0  0  0
  -31.2887  -12.1316   28.5774 C   0  0  0  0  0  0  0  0  0  0  0  0
  -30.3872  -12.6338   19.0389 C   0  0  0  0  0  0  0  0  0  0  0  0
  -28.6754  -12.1757   20.7504 C   0  0  0  0  0  0  0  0  0  0  0  0
  -32.2421  -14.3493   27.9271 C   0  0  0  0  0  0  0  0  0  0  0  0
  -27.5902  -23.2540   28.4655 C   0  0  1  0  0  0  0  0  0  0  0  0
  -30.1302  -21.3629   26.3667 C   0  0  1  0  0  0  0  0  0  0  0  0
  -27.7132  -13.1965   20.1212 C   0  0  2  0  0  0  0  0  0  0  0  0
  -31.4274  -15.0232   29.0321 C   0  0  2  0  0  0  0  0  0  1  0  0
  -29.9781  -13.8887   25.3049 C   0  0  0  0  0  0  0  0  0  0  0  0
  -29.1782  -18.3474   19.0470 C   0  0  0  0  0  0  0  0  0  0  0  0
  -27.0678  -18.6146   25.3196 C   0  0  0  0  0  0  0  0  0  0  0  0
  -26.9172  -17.5725   23.0482 C   0  0  0  0  0  0  0  0  0  0  0  0
  -26.4159  -19.9985   23.3412 C   0  0  0  0  0  0  0  0  0  0  0  0
  -32.5008  -19.7907   20.2104 C   0  0  0  0  0  0  0  0  0  0  0  0
  -28.8087  -19.1987   23.5047 C   0  0  1  0  0  0  0  0  0  0  0  0
  -30.0976  -19.1660   19.9400 C   0  0  2  0  0  0  0  0  0  0  0  0
  -27.3270  -18.8463   23.8176 C   0  0  0  0  0  0  0  0  0  0  0  0
  -25.9067  -11.5611   20.4999 N   0  0  0  0  0  0  0  0  0  0  0  0
  -26.2609  -12.8532   20.3950 N   0  0  0  0  0  0  0  0  0  0  0  0
  -31.6178  -13.0895   27.5126 N   0  0  1  0  0  0  0  0  0  0  0  0
  -29.8422  -20.2078   25.5141 N   0  0  0  0  0  0  0  0  0  0  0  0
  -30.0676  -12.5575   20.4661 N   0  0  0  0  0  0  0  0  0  0  0  0
  -25.4036  -15.0596   20.4815 N   0  0  0  0  0  0  0  0  0  0  0  0
  -21.7597  -12.4964   21.2216 N   0  0  0  0  0  0  0  0  0  0  0  0
  -30.6400  -12.7648   22.7446 N   0  0  0  0  0  0  0  0  0  0  0  0
  -28.6831  -22.8573   27.6038 N   0  0  0  0  0  0  0  0  0  0  0  0
  -29.0779  -19.4501   22.0931 N   0  0  0  0  0  0  0  0  0  0  0  0
  -31.4931  -19.0191   19.4382 N   0  3  0  0  0  0  0  0  0  0  0  0
  -22.5051  -14.6539   21.0020 O   0  0  0  0  0  0  0  0  0  0  0  0
  -28.3223  -20.5573   27.6541 O   0  0  0  0  0  0  0  0  0  0  0  0
  -29.1552  -21.5350   23.7245 O   0  0  0  0  0  0  0  0  0  0  0  0
  -30.6893  -17.8013   21.8439 O   0  0  0  0  0  0  0  0  0  0  0  0
  -32.2156  -13.1464   21.0852 O   0  0  0  0  0  0  0  0  0  0  0  0
  -21.6319   -6.9310   21.4170 O   0  0  0  0  0  0  0  0  0  0  0  0
  -32.1477  -16.1420   29.5400 O   0  0  0  0  0  0  0  0  0  1  0  0
  -22.1665   -4.2321   26.1955 F   0  0  0  0  0  0  0  0  0  0  0  0
  -19.4486   -6.5086   23.0593 F   0  0  0  0  0  0  0  0  0  0  0  0
  1  2  1  0  0  0  0
  1  6  2  0  0  0  0
  2  7  2  0  0  0  0
  3  9  2  0  0  0  0
  3 10  1  0  0  0  0
  4 11  2  0  0  0  0
  4 18  1  0  0  0  0
  5 12  1  0  0  0  0
  5 18  2  0  0  0  0
  6 20  1  0  0  0  0
  7 22  1  0  0  0  0
  8 13  2  0  0  0  0
  8 21  1  0  0  0  0
  9 25  1  0  0  0  0
 10 26  2  0  0  0  0
 11 27  1  0  0  0  0
 12 27  2  0  0  0  0
 13 28  1  0  0  0  0
 14 15  2  0  0  0  0
 14 29  1  0  0  0  0
 15 30  1  0  0  0  0
 16 23  1  0  0  0  0
 16 28  2  0  0  0  0
 17 30  2  0  0  0  0
 17 31  1  0  0  0  0
 18 32  1  0  0  0  0
 19 32  1  0  0  0  0
 19 33  2  0  0  0  0
 19 34  1  0  0  0  0
 20 22  2  0  0  0  0
 20 39  1  0  0  0  0
 21 23  2  0  0  0  0
 21 40  1  0  0  0  0
 22 52  1  0  0  0  0
 23 41  1  0  0  0  0
 24 25  2  0  0  0  0
 24 26  1  0  0  0  0
 24 56  1  0  0  0  0
 25 67  1  0  0  0  0
 26 72  1  0  0  0  0
 27 81  1  0  0  0  0
 28 82  1  0  0  0  0
 29 31  2  0  0  0  0
 29 81  1  0  0  0  0
 30 83  1  0  0  0  0
 31 84  1  0  0  0  0
 32 65  2  0  0  0  0
 33 66  1  0  0  0  0
 33 70  1  0  0  0  0
 34 71  1  0  0  0  0
 34 76  2  0  0  0  0
 35 53  1  0  0  0  0
 35 73  1  0  0  0  0
 35 77  2  0  0  0  0
 36 62  1  0  0  0  0
 36 68  1  0  0  0  0
 36 78  2  0  0  0  0
 37 63  1  0  0  0  0
 37 74  1  0  0  0  0
 37 79  2  0  0  0  0
 38 69  1  0  0  0  0
 38 72  1  0  0  0  0
 38 80  2  0  0  0  0
 39 42  1  0  0  0  0
 40 53  1  0  0  0  0
 41 68  1  0  0  0  0
 42 45  1  0  0  0  0
 43 46  1  0  0  0  0
 43 49  1  0  0  0  0
 44 47  1  0  0  0  0
 44 48  1  0  0  0  0
 45 52  1  0  0  0  0
 46 54  1  0  0  0  0
 47 55  1  0  0  0  0
 48 67  1  0  0  0  0
 49 69  1  0  0  0  0
 50 54  1  0  0  0  0
 50 69  1  0  0  0  0
 51 55  1  0  0  0  0
 51 67  1  0  0  0  0
 52 73  1  0  0  0  0
 53 68  1  0  0  0  0
 54 66  1  0  0  0  0
 55 82  1  0  0  0  0
 57 63  1  0  0  0  0
 58 64  1  0  0  0  0
 59 64  1  0  0  0  0
 60 64  1  0  0  0  0
 61 75  1  0  0  0  0
 62 64  1  0  0  0  0
 62 74  1  0  0  0  0
 63 75  1  0  0  0  0
 65 66  1  0  0  0  0
M  CHG  1  75   1
M  ISO  4  38 100  55 101  72 100  82 101
M  END
> <Batch ID>
0028

> <Smiles>
CNC(C)C(=O)NC(C(=O)N1Cc2cc([101O:1][101CH:1]3CCCN(c4cccc([100NH:0][100C:0](=O)N5CCCC(n6nc(-c7ccc(Oc8ccc(F)cc8F)cc7)c(C(N)=O)c6N)C5)c4C)C3)ccc2CC1C(=O)NC1CCCc2ccccc21)C(C)(C)C

> <Shape>
0.167

> <Color>
0.196

> <Negative vol penalty>
0.000

$$$$

  -OEChem-04042321313D

 84 93  0     1  0  0  0  0  0999 V2000
  -27.0321  -34.6114   25.5900 C   0  0  0  0  0  0  0  0  0  0  0  0
  -27.3791  -33.3829   25.0370 C   0  0  0  0  0  0  0  0  0  0  0  0
  -27.5189  -11.6794   19.6823 C   0  0  0  0  0  0  0  0  0  0  0  0
  -29.2164  -13.3321   20.1558 C   0  0  0  0  0  0  0  0  0  0  0  0
  -25.7076  -34.8665   25.9429 C   0  0  0  0  0  0  0  0  0  0  0  0
  -26.4020  -32.4084   24.8376 C   0  0  0  0  0  0  0  0  0  0  0  0
  -26.7639  -30.1948   20.2974 C   0  0  0  0  0  0  0  0  0  0  0  0
  -27.3363  -22.8114   16.4061 C   0  0  0  0  0  0  0  0  0  0  0  0
  -26.5005  -21.7694   16.8075 C   0  0  0  0  0  0  0  0  0  0  0  0
  -28.5077  -10.7741   19.2972 C   0  0  0  0  0  0  0  0  0  0  0  0
  -30.2052  -12.4268   19.7708 C   0  0  0  0  0  0  0  0  0  0  0  0
  -27.7530  -29.2251   20.1388 C   0  0  0  0  0  0  0  0  0  0  0  0
  -31.7949   -9.7601   21.1058 C   0  0  0  0  0  0  0  0  0  0  0  0
  -32.9207   -9.6467   21.9214 C   0  0  0  0  0  0  0  0  0  0  0  0
  -26.0978  -27.4961   20.4389 C   0  0  0  0  0  0  0  0  0  0  0  0
  -28.8682  -22.2717   18.1947 C   0  0  0  0  0  0  0  0  0  0  0  0
  -34.3264  -10.3167   20.0742 C   0  0  0  0  0  0  0  0  0  0  0  0
  -27.8732  -12.9584   20.1115 C   0  0  0  0  0  0  0  0  0  0  0  0
  -26.3185  -14.0730   21.7992 C   0  0  0  0  0  0  0  0  0  0  0  0
  -24.7120  -33.8981   25.7388 C   0  0  0  0  0  0  0  0  0  0  0  0
  -25.4339  -29.8218   20.5392 C   0  0  0  0  0  0  0  0  0  0  0  0
  -25.0631  -32.6502   25.1894 C   0  0  0  0  0  0  0  0  0  0  0  0
  -25.0932  -28.4629   20.5976 C   0  0  0  0  0  0  0  0  0  0  0  0
  -28.5202  -23.0625   17.0996 C   0  0  0  0  0  0  0  0  0  0  0  0
  -26.8484  -20.9785   17.9026 C   0  0  0  0  0  0  0  0  0  0  0  0
  -29.8509  -11.1478   19.3415 C   0  0  0  0  0  0  0  0  0  0  0  0
  -27.4206  -27.8756   20.2124 C   0  0  0  0  0  0  0  0  0  0  0  0
  -31.9348  -10.1517   19.7743 C   0  0  0  0  0  0  0  0  0  0  0  0
  -34.1864   -9.9250   21.4057 C   0  0  0  0  0  0  0  0  0  0  0  0
  -28.0323  -21.2297   18.5962 C   0  0  0  0  0  0  0  0  0  0  0  0
  -33.2006  -10.4300   19.2586 C   0  0  0  0  0  0  0  0  0  0  0  0
  -26.8522  -13.8943   20.5089 C   0  0  0  0  0  0  0  0  0  0  0  0
  -25.3882  -15.0724   21.6506 C   0  0  0  0  0  0  0  0  0  0  0  0
  -30.0125  -25.6890   18.6425 C   0  0  0  0  0  0  0  0  0  0  0  0
  -26.6355  -13.3962   23.0228 C   0  0  0  0  0  0  0  0  0  0  0  0
  -23.3729  -30.2782   22.9157 C   0  0  0  0  0  0  0  0  0  0  0  0
  -21.2981  -28.8509   20.8712 C   0  0  0  0  0  0  0  0  0  0  0  0
  -20.8247  -26.7748   18.2042 C   0  0  0  0  0  0  0  0  0  0  0  0
  -24.7875  -19.5402   17.7285 C   0  0  0  0  0  0  0  0  0  0  0  0
  -23.3021  -34.2023   26.1798 C   0  0  0  0  0  0  0  0  0  0  0  0
  -24.3740  -30.8796   20.6814 C   0  0  0  0  0  0  0  0  0  0  0  0
  -23.6765  -28.0100   20.8350 C   0  0  0  0  0  0  0  0  0  0  0  0
  -22.2614  -33.2543   25.5895 C   0  0  0  0  0  0  0  0  0  0  0  0
  -22.4178  -16.9716   18.4096 C   0  0  0  0  0  0  0  0  0  0  0  0
  -22.7265  -31.8069   25.7135 C   0  0  0  0  0  0  0  0  0  0  0  0
  -23.2361  -15.9099   19.1480 C   0  0  0  0  0  0  0  0  0  0  0  0
  -23.2307  -17.6496   17.3081 C   0  0  0  0  0  0  0  0  0  0  0  0
  -28.3331  -26.3745   17.5868 C   0  0  0  0  0  0  0  0  0  0  0  0
  -25.3384  -17.1423   18.4783 C   0  0  0  0  0  0  0  0  0  0  0  0
  -24.0273  -31.5768   24.9347 C   0  0  1  0  0  0  0  0  0  0  0  0
  -29.0935  -26.9167   18.8204 C   0  0  1  0  0  0  0  0  0  1  0  0
  -23.1407  -30.3922   21.4356 C   0  0  1  0  0  0  0  0  0  0  0  0
  -24.5822  -16.4772   19.6399 C   0  0  2  0  0  0  0  0  0  0  0  0
  -19.0139  -25.7705   16.7867 C   0  0  0  0  0  0  0  0  0  0  0  0
  -20.6384  -26.8858   23.1102 C   0  0  0  0  0  0  0  0  0  0  0  0
  -19.5947  -25.3899   21.3953 C   0  0  0  0  0  0  0  0  0  0  0  0
  -18.6617  -27.6688   21.7935 C   0  0  0  0  0  0  0  0  0  0  0  0
  -21.8625  -28.0721   15.7549 C   0  0  0  0  0  0  0  0  0  0  0  0
  -29.4196  -24.1848   16.6684 C   0  0  0  0  0  0  0  0  0  0  0  0
  -20.8759  -27.4277   20.5970 C   0  0  1  0  0  0  0  0  0  0  0  0
  -19.9896  -26.9261   16.9457 C   0  0  2  0  0  0  0  0  0  0  0  0
  -19.9698  -26.8513   21.7214 C   0  0  0  0  0  0  0  0  0  0  0  0
  -26.3062  -14.7142   19.6069 N   0  0  0  0  0  0  0  0  0  0  0  0
  -25.4196  -15.4178   20.3316 N   0  0  0  0  0  0  0  0  0  0  0  0
  -29.3238  -25.3133   17.5421 N   0  0  0  0  0  0  0  0  0  0  0  0
  -22.6771  -29.0821   20.9740 N   0  0  0  0  0  0  0  0  0  0  0  0
  -24.4900  -18.1662   17.8486 N   0  0  0  0  0  0  0  0  0  0  0  0
  -24.5543  -15.6805   22.5208 N   0  0  0  0  0  0  0  0  0  0  0  0
  -27.6161  -12.3951   22.9980 N   0  0  0  0  0  0  0  0  0  0  0  0
  -25.9972  -19.9210   18.3085 N   0  0  0  0  0  0  0  0  0  0  0  0
  -23.7546  -31.4618   23.5180 N   0  0  0  0  0  0  0  0  0  0  0  0
  -20.2580  -27.4325   19.2754 N   0  0  0  0  0  0  0  0  0  0  0  0
  -20.8684  -26.9682   15.7428 N   0  3  0  0  0  0  0  0  0  0  0  0
  -30.9599  -25.2150   19.2260 O   0  0  0  0  0  0  0  0  0  0  0  0
  -26.0545  -13.6597   24.1028 O   0  0  0  0  0  0  0  0  0  0  0  0
  -23.2158  -29.1969   23.4704 O   0  0  0  0  0  0  0  0  0  0  0  0
  -20.4364  -29.7265   20.9826 O   0  0  0  0  0  0  0  0  0  0  0  0
  -21.8730  -26.1338   18.2350 O   0  0  0  0  0  0  0  0  0  0  0  0
  -24.0127  -20.3263   17.1775 O   0  0  0  0  0  0  0  0  0  0  0  0
  -30.8161  -10.2646   18.9661 O   0  0  0  0  0  0  0  0  0  0  0  0
  -28.3842  -26.9272   20.0586 O   0  0  0  0  0  0  0  0  0  1  0  0
  -35.2673   -9.8176   22.1895 F   0  0  0  0  0  0  0  0  0  0  0  0
  -28.3760  -20.4769   19.6510 F   0  0  0  0  0  0  0  0  0  0  0  0
  -33.3412  -10.8078   17.9806 F   0  0  0  0  0  0  0  0  0  0  0  0
  1  2  1  0  0  0  0
  1  5  2  0  0  0  0
  2  6  2  0  0  0  0
  3 10  2  0  0  0  0
  3 18  1  0  0  0  0
  4 11  1  0  0  0  0
  4 18  2  0  0  0  0
  5 20  1  0  0  0  0
  6 22  1  0  0  0  0
  7 12  2  0  0  0  0
  7 21  1  0  0  0  0
  8  9  2  0  0  0  0
  8 24  1  0  0  0  0
  9 25  1  0  0  0  0
 10 26  1  0  0  0  0
 11 26  2  0  0  0  0
 12 27  1  0  0  0  0
 13 14  2  0  0  0  0
 13 28  1  0  0  0  0
 14 29  1  0  0  0  0
 15 23  1  0  0  0  0
 15 27  2  0  0  0  0
 16 24  2  0  0  0  0
 16 30  1  0  0  0  0
 17 29  2  0  0  0  0
 17 31  1  0  0  0  0
 18 32  1  0  0  0  0
 19 32  1  0  0  0  0
 19 33  2  0  0  0  0
 19 35  1  0  0  0  0
 20 22  2  0  0  0  0
 20 40  1  0  0  0  0
 21 23  2  0  0  0  0
 21 41  1  0  0  0  0
 22 50  1  0  0  0  0
 23 42  1  0  0  0  0
 24 59  1  0  0  0  0
 25 30  2  0  0  0  0
 25 70  1  0  0  0  0
 26 80  1  0  0  0  0
 27 81  1  0  0  0  0
 28 31  2  0  0  0  0
 28 80  1  0  0  0  0
 29 82  1  0  0  0  0
 30 83  1  0  0  0  0
 31 84  1  0  0  0  0
 32 63  2  0  0  0  0
 33 64  1  0  0  0  0
 33 68  1  0  0  0  0
 34 51  1  0  0  0  0
 34 65  1  0  0  0  0
 34 74  2  0  0  0  0
 35 69  1  0  0  0  0
 35 75  2  0  0  0  0
 36 52  1  0  0  0  0
 36 71  1  0  0  0  0
 36 76  2  0  0  0  0
 37 60  1  0  0  0  0
 37 66  1  0  0  0  0
 37 77  2  0  0  0  0
 38 61  1  0  0  0  0
 38 72  1  0  0  0  0
 38 78  2  0  0  0  0
 39 67  1  0  0  0  0
 39 70  1  0  0  0  0
 39 79  2  0  0  0  0
 40 43  1  0  0  0  0
 41 52  1  0  0  0  0
 42 66  1  0  0  0  0
 43 45  1  0  0  0  0
 44 46  1  0  0  0  0
 44 47  1  0  0  0  0
 45 50  1  0  0  0  0
 46 53  1  0  0  0  0
 47 67  1  0  0  0  0
 48 51  1  0  0  0  0
 48 65  1  0  0  0  0
 49 53  1  0  0  0  0
 49 67  1  0  0  0  0
 50 71  1  0  0  0  0
 51 81  1  0  0  0  0
 52 66  1  0  0  0  0
 53 64  1  0  0  0  0
 54 61  1  0  0  0  0
 55 62  1  0  0  0  0
 56 62  1  0  0  0  0
 57 62  1  0  0  0  0
 58 73  1  0  0  0  0
 59 65  1  0  0  0  0
 60 62  1  0  0  0  0
 60 72  1  0  0  0  0
 61 73  1  0  0  0  0
 63 64  1  0  0  0  0
M  CHG  1  73   1
M  ISO  4  39 100  51 101  70 100  81 101
M  END
> <Batch ID>
0028

> <Smiles>
CNC(C)C(=O)NC(C(=O)N1Cc2cc([101O:1][101CH:1]3CN(Cc4ccc([100NH:0][100C:0](=O)N5CCCC(n6nc(-c7ccc(Oc8ccc(F)cc8F)cc7)c(C(N)=O)c6N)C5)c(F)c4)C3=O)ccc2CC1C(=O)NC1CCCc2ccccc21)C(C)(C)C

> <Shape>
0.247

> <Color>
0.086

> <Negative vol penalty>
0.000

$$$$

  -OEChem-04042321313D

 90 99  0     1  0  0  0  0  0999 V2000
  -32.4188  -12.5411   21.2628 C   0  0  0  0  0  0  0  0  0  0  0  0
  -32.0496  -13.7558   21.8317 C   0  0  0  0  0  0  0  0  0  0  0  0
  -24.9585  -27.1525   18.5756 C   0  0  0  0  0  0  0  0  0  0  0  0
  -27.1884  -27.8798   19.1547 C   0  0  0  0  0  0  0  0  0  0  0  0
  -31.5898  -11.9331   20.3210 C   0  0  0  0  0  0  0  0  0  0  0  0
  -30.8515  -14.3637   21.4583 C   0  0  0  0  0  0  0  0  0  0  0  0
  -25.6034  -18.4553   24.1102 C   0  0  0  0  0  0  0  0  0  0  0  0
  -25.4931  -26.2251   17.6813 C   0  0  0  0  0  0  0  0  0  0  0  0
  -27.7231  -26.9524   18.2604 C   0  0  0  0  0  0  0  0  0  0  0  0
  -24.9162  -19.6370   23.8363 C   0  0  0  0  0  0  0  0  0  0  0  0
  -29.6880  -24.5276   16.3955 C   0  0  0  0  0  0  0  0  0  0  0  0
  -30.7727  -23.7628   16.8244 C   0  0  0  0  0  0  0  0  0  0  0  0
  -23.5256  -18.4555   22.2585 C   0  0  0  0  0  0  0  0  0  0  0  0
  -22.6458  -26.3416   24.4973 C   0  0  0  0  0  0  0  0  0  0  0  0
  -20.3923  -26.9549   22.9715 C   0  0  0  0  0  0  0  0  0  0  0  0
  -29.4290  -22.8642   18.6201 C   0  0  0  0  0  0  0  0  0  0  0  0
  -25.8061  -27.9798   19.3122 C   0  0  0  0  0  0  0  0  0  0  0  0
  -24.3785  -29.9994   19.9376 C   0  0  0  0  0  0  0  0  0  0  0  0
  -30.3764  -12.5291   19.9430 C   0  0  0  0  0  0  0  0  0  0  0  0
  -25.2636  -17.2651   23.4511 C   0  0  0  0  0  0  0  0  0  0  0  0
  -30.0061  -13.7638   20.5095 C   0  0  0  0  0  0  0  0  0  0  0  0
  -24.2084  -17.2595   22.5276 C   0  0  0  0  0  0  0  0  0  0  0  0
  -21.9699  -27.5441   24.7039 C   0  0  0  0  0  0  0  0  0  0  0  0
  -20.8432  -27.8508   23.9410 C   0  0  0  0  0  0  0  0  0  0  0  0
  -22.1950  -25.4457   23.5278 C   0  0  0  0  0  0  0  0  0  0  0  0
  -26.8755  -26.1251   17.5237 C   0  0  0  0  0  0  0  0  0  0  0  0
  -23.8790  -19.6379   22.9082 C   0  0  0  0  0  0  0  0  0  0  0  0
  -28.4738  -24.4608   17.0789 C   0  0  0  0  0  0  0  0  0  0  0  0
  -30.6432  -22.9311   17.9367 C   0  0  0  0  0  0  0  0  0  0  0  0
  -28.3443  -23.6291   18.1912 C   0  0  0  0  0  0  0  0  0  0  0  0
  -21.0682  -25.7524   22.7649 C   0  0  0  0  0  0  0  0  0  0  0  0
  -25.2544  -28.9384   20.2358 C   0  0  0  0  0  0  0  0  0  0  0  0
  -24.1528  -30.6086   21.1477 C   0  0  0  0  0  0  0  0  0  0  0  0
  -22.4034  -22.9197   23.4897 C   0  0  0  0  0  0  0  0  0  0  0  0
  -23.8190  -30.3985   18.6793 C   0  0  0  0  0  0  0  0  0  0  0  0
  -26.7802  -15.2744   21.4914 C   0  0  0  0  0  0  0  0  0  0  0  0
  -24.0882  -13.4988   21.8415 C   0  0  0  0  0  0  0  0  0  0  0  0
  -20.7589  -13.4001   22.5851 C   0  0  0  0  0  0  0  0  0  0  0  0
  -24.7751  -28.2553   26.7702 C   0  0  0  0  0  0  0  0  0  0  0  0
  -29.5359  -11.8575   18.8860 C   0  0  0  0  0  0  0  0  0  0  0  0
  -25.9970  -15.9931   23.7774 C   0  0  0  0  0  0  0  0  0  0  0  0
  -23.7912  -16.0040   21.8079 C   0  0  0  0  0  0  0  0  0  0  0  0
  -28.1038  -12.3822   18.8222 C   0  0  0  0  0  0  0  0  0  0  0  0
  -26.1910  -31.3884   25.3989 C   0  0  0  0  0  0  0  0  0  0  0  0
  -28.0924  -13.9073   18.8473 C   0  0  0  0  0  0  0  0  0  0  0  0
  -26.0976  -31.1640   23.8906 C   0  0  0  0  0  0  0  0  0  0  0  0
  -24.5764  -22.7936   22.5194 C   0  0  0  0  0  0  0  0  0  0  0  0
  -26.3287  -30.0736   26.1605 C   0  0  0  0  0  0  0  0  0  0  0  0
  -24.3260  -24.2049   23.0102 C   0  0  0  0  0  0  0  0  0  0  0  0
  -25.1650  -28.8611   24.3466 C   0  0  0  0  0  0  0  0  0  0  0  0
  -28.7024  -14.4422   20.1486 C   0  0  1  0  0  0  0  0  0  0  0  0
  -23.5733  -21.9709   23.3065 C   0  0  2  0  0  0  0  0  0  1  0  0
  -25.9051  -14.9492   22.6688 C   0  0  1  0  0  0  0  0  0  0  0  0
  -24.9787  -30.1631   23.5532 C   0  0  2  0  0  0  0  0  0  0  0  0
  -18.8235  -11.8112   22.7500 C   0  0  0  0  0  0  0  0  0  0  0  0
  -23.8846  -13.4348   18.7978 C   0  0  0  0  0  0  0  0  0  0  0  0
  -21.5062  -12.6921   19.0420 C   0  0  0  0  0  0  0  0  0  0  0  0
  -23.3531  -11.2664   19.9247 C   0  0  0  0  0  0  0  0  0  0  0  0
  -22.8645  -26.9661   27.6460 C   0  0  0  0  0  0  0  0  0  0  0  0
  -20.3789  -13.9789   25.4626 C   0  0  0  0  0  0  0  0  0  0  0  0
  -22.4735  -28.4890   25.7451 C   0  0  0  0  0  0  0  0  0  0  0  0
  -22.7631  -13.4129   21.1232 C   0  0  1  0  0  0  0  0  0  0  0  0
  -19.9577  -12.4919   23.5004 C   0  0  2  0  0  0  0  0  0  0  0  0
  -20.1036  -29.1323   24.1441 C   0  0  0  0  0  0  0  0  0  0  0  0
  -22.8857  -12.7258   19.7339 C   0  0  0  0  0  0  0  0  0  0  0  0
  -25.5641  -28.8746   21.5335 N   0  0  0  0  0  0  0  0  0  0  0  0
  -24.8791  -29.9032   22.0615 N   0  0  0  0  0  0  0  0  0  0  0  0
  -22.9118  -24.2260   23.3396 N   0  0  0  0  0  0  0  0  0  0  0  0
  -24.5430  -14.7871   22.1565 N   0  0  0  0  0  0  0  0  0  0  0  0
  -25.2781  -29.1252   25.7889 N   0  0  0  0  0  0  0  0  0  0  0  0
  -23.4059  -31.6737   21.5086 N   0  0  0  0  0  0  0  0  0  0  0  0
  -24.5227  -31.3262   17.8993 N   0  0  0  0  0  0  0  0  0  0  0  0
  -27.7540  -14.3280   21.2357 N   0  0  0  0  0  0  0  0  0  0  0  0
  -21.8442  -12.7472   22.0401 N   0  0  0  0  0  0  0  0  0  0  0  0
  -23.4350  -27.8582   26.6468 N   0  0  0  0  0  0  0  0  0  0  0  0
  -19.3733  -13.2753   24.6254 N   0  3  0  0  0  0  0  0  0  0  0  0
  -21.2710  -22.5384   23.7463 O   0  0  0  0  0  0  0  0  0  0  0  0
  -22.7193  -29.9582   18.2666 O   0  0  0  0  0  0  0  0  0  0  0  0
  -26.5852  -16.3068   20.8606 O   0  0  0  0  0  0  0  0  0  0  0  0
  -24.6938  -12.4607   22.1194 O   0  0  0  0  0  0  0  0  0  0  0  0
  -20.4505  -14.5706   22.3719 O   0  0  0  0  0  0  0  0  0  0  0  0
  -25.4807  -27.8638   27.7088 O   0  0  0  0  0  0  0  0  0  0  0  0
  -27.3975  -25.2201   16.6513 O   0  0  0  0  0  0  0  0  0  0  0  0
  -23.2070  -20.7901   22.6386 O   0  0  0  0  0  0  0  0  0  1  0  0
  -31.6845  -22.1955   18.3476 F   0  0  0  0  0  0  0  0  0  0  0  0
  -27.1800  -23.5598   18.8510 F   0  0  0  0  0  0  0  0  0  0  0  0
  -19.0266  -29.2773   23.3178 F   0  0  0  0  0  0  0  0  0  0  0  0
  -19.6080  -29.2808   25.4073 F   0  0  0  0  0  0  0  0  0  0  0  0
  -20.8858  -30.2281   23.9245 F   0  0  0  0  0  0  0  0  0  0  0  0
  -20.4756  -24.6713   21.5543 Cl  0  0  0  0  0  0  0  0  0  0  0  0
  1  2  1  0  0  0  0
  1  5  2  0  0  0  0
  2  6  2  0  0  0  0
  3  8  2  0  0  0  0
  3 17  1  0  0  0  0
  4  9  1  0  0  0  0
  4 17  2  0  0  0  0
  5 19  1  0  0  0  0
  6 21  1  0  0  0  0
  7 10  2  0  0  0  0
  7 20  1  0  0  0  0
  8 26  1  0  0  0  0
  9 26  2  0  0  0  0
 10 27  1  0  0  0  0
 11 12  2  0  0  0  0
 11 28  1  0  0  0  0
 12 29  1  0  0  0  0
 13 22  1  0  0  0  0
 13 27  2  0  0  0  0
 14 23  2  0  0  0  0
 14 25  1  0  0  0  0
 15 24  2  0  0  0  0
 15 31  1  0  0  0  0
 16 29  2  0  0  0  0
 16 30  1  0  0  0  0
 17 32  1  0  0  0  0
 18 32  1  0  0  0  0
 18 33  2  0  0  0  0
 18 35  1  0  0  0  0
 19 21  2  0  0  0  0
 19 40  1  0  0  0  0
 20 22  2  0  0  0  0
 20 41  1  0  0  0  0
 21 51  1  0  0  0  0
 22 42  1  0  0  0  0
 23 24  1  0  0  0  0
 23 61  1  0  0  0  0
 24 64  1  0  0  0  0
 25 31  2  0  0  0  0
 25 68  1  0  0  0  0
 26 83  1  0  0  0  0
 27 84  1  0  0  0  0
 28 30  2  0  0  0  0
 28 83  1  0  0  0  0
 29 85  1  0  0  0  0
 30 86  1  0  0  0  0
 31 90  1  0  0  0  0
 32 66  2  0  0  0  0
 33 67  1  0  0  0  0
 33 71  1  0  0  0  0
 34 52  1  0  0  0  0
 34 68  1  0  0  0  0
 34 77  2  0  0  0  0
 35 72  1  0  0  0  0
 35 78  2  0  0  0  0
 36 53  1  0  0  0  0
 36 73  1  0  0  0  0
 36 79  2  0  0  0  0
 37 62  1  0  0  0  0
 37 69  1  0  0  0  0
 37 80  2  0  0  0  0
 38 63  1  0  0  0  0
 38 74  1  0  0  0  0
 38 81  2  0  0  0  0
 39 70  1  0  0  0  0
 39 75  1  0  0  0  0
 39 82  2  0  0  0  0
 40 43  1  0  0  0  0
 41 53  1  0  0  0  0
 42 69  1  0  0  0  0
 43 45  1  0  0  0  0
 44 46  1  0  0  0  0
 44 48  1  0  0  0  0
 45 51  1  0  0  0  0
 46 54  1  0  0  0  0
 47 49  1  0  0  0  0
 47 52  1  0  0  0  0
 48 70  1  0  0  0  0
 49 68  1  0  0  0  0
 50 54  1  0  0  0  0
 50 70  1  0  0  0  0
 51 73  1  0  0  0  0
 52 84  1  0  0  0  0
 53 69  1  0  0  0  0
 54 67  1  0  0  0  0
 55 63  1  0  0  0  0
 56 65  1  0  0  0  0
 57 65  1  0  0  0  0
 58 65  1  0  0  0  0
 59 75  1  0  0  0  0
 60 76  1  0  0  0  0
 61 75  1  0  0  0  0
 62 65  1  0  0  0  0
 62 74  1  0  0  0  0
 63 76  1  0  0  0  0
 64 87  1  0  0  0  0
 64 88  1  0  0  0  0
 64 89  1  0  0  0  0
 66 67  1  0  0  0  0
M  CHG  1  76   1
M  ISO  4  39 100  52 101  75 100  84 101
M  END
> <Batch ID>
0028

> <Smiles>
CNC(C)C(=O)NC(C(=O)N1Cc2cc([101O:1][101CH:1]3CCN(c4cc(C[100N:0](C)[100C:0](=O)N5CCCC(n6nc(-c7ccc(Oc8ccc(F)cc8F)cc7)c(C(N)=O)c6N)C5)c(C(F)(F)F)cc4Cl)C3=O)ccc2CC1C(=O)NC1CCCc2ccccc21)C(C)(C)C

> <Shape>
0.232

> <Color>
0.052

> <Negative vol penalty>
0.000

$$$$

  -OEChem-04042321313D

 87 96  0     1  0  0  0  0  0999 V2000
  -16.5067  -29.0174   23.5077 C   0  0  0  0  0  0  0  0  0  0  0  0
  -17.3478  -30.1197   23.6206 C   0  0  0  0  0  0  0  0  0  0  0  0
  -24.9194  -14.5699   22.5117 C   0  0  0  0  0  0  0  0  0  0  0  0
  -23.0650  -13.7725   21.1842 C   0  0  0  0  0  0  0  0  0  0  0  0
  -17.0471  -27.7459   23.3200 C   0  0  0  0  0  0  0  0  0  0  0  0
  -18.7300  -29.9511   23.5469 C   0  0  0  0  0  0  0  0  0  0  0  0
  -26.5965  -30.1487   20.6257 C   0  0  0  0  0  0  0  0  0  0  0  0
  -25.7381  -13.5846   21.9600 C   0  0  0  0  0  0  0  0  0  0  0  0
  -23.8837  -12.7872   20.6324 C   0  0  0  0  0  0  0  0  0  0  0  0
  -27.6527  -29.2389   20.6058 C   0  0  0  0  0  0  0  0  0  0  0  0
  -27.4339  -13.0809   19.0784 C   0  0  0  0  0  0  0  0  0  0  0  0
  -28.7089  -13.4585   18.6573 C   0  0  0  0  0  0  0  0  0  0  0  0
  -26.1353  -27.5017   19.8996 C   0  0  0  0  0  0  0  0  0  0  0  0
  -24.4654  -23.8048   22.3987 C   0  0  0  0  0  0  0  0  0  0  0  0
  -26.5460  -22.7681   20.8563 C   0  0  0  0  0  0  0  0  0  0  0  0
  -29.6871  -11.8863   20.2092 C   0  0  0  0  0  0  0  0  0  0  0  0
  -23.5828  -14.6639   22.1239 C   0  0  0  0  0  0  0  0  0  0  0  0
  -22.4173  -15.8578   24.0536 C   0  0  0  0  0  0  0  0  0  0  0  0
  -18.4363  -27.5629   23.2343 C   0  0  0  0  0  0  0  0  0  0  0  0
  -25.2975  -29.7386   20.2926 C   0  0  0  0  0  0  0  0  0  0  0  0
  -19.2896  -28.6759   23.3592 C   0  0  0  0  0  0  0  0  0  0  0  0
  -25.0647  -28.4088   19.9135 C   0  0  0  0  0  0  0  0  0  0  0  0
  -25.7755  -23.8486   22.8752 C   0  0  0  0  0  0  0  0  0  0  0  0
  -24.1955  -23.2425   21.1510 C   0  0  0  0  0  0  0  0  0  0  0  0
  -26.8159  -23.3303   22.1041 C   0  0  0  0  0  0  0  0  0  0  0  0
  -25.2203  -12.6932   21.0203 C   0  0  0  0  0  0  0  0  0  0  0  0
  -27.4217  -27.9145   20.2455 C   0  0  0  0  0  0  0  0  0  0  0  0
  -27.2854  -12.1061   20.0650 C   0  0  0  0  0  0  0  0  0  0  0  0
  -29.8355  -12.8611   19.2226 C   0  0  0  0  0  0  0  0  0  0  0  0
  -25.2358  -22.7242   20.3798 C   0  0  0  0  0  0  0  0  0  0  0  0
  -28.4120  -11.5087   20.6304 C   0  0  0  0  0  0  0  0  0  0  0  0
  -22.7364  -15.6812   22.6939 C   0  0  0  0  0  0  0  0  0  0  0  0
  -21.5880  -16.9525   24.0721 C   0  0  0  0  0  0  0  0  0  0  0  0
  -29.2486  -23.9865   21.9938 C   0  0  0  0  0  0  0  0  0  0  0  0
  -29.3237  -25.0118   21.1332 C   0  0  0  0  0  0  0  0  0  0  0  0
  -22.8334  -15.1002   25.1975 C   0  0  0  0  0  0  0  0  0  0  0  0
  -22.5187  -29.6203   21.8314 C   0  0  0  0  0  0  0  0  0  0  0  0
  -21.3872  -28.7483   18.9191 C   0  0  0  0  0  0  0  0  0  0  0  0
  -22.4422  -26.5998   16.2194 C   0  0  0  0  0  0  0  0  0  0  0  0
  -20.9027  -21.6120   20.3748 C   0  0  0  0  0  0  0  0  0  0  0  0
  -18.9759  -26.1632   23.0782 C   0  0  0  0  0  0  0  0  0  0  0  0
  -24.1738  -30.7384   20.2930 C   0  0  0  0  0  0  0  0  0  0  0  0
  -23.6924  -27.9229   19.5275 C   0  0  0  0  0  0  0  0  0  0  0  0
  -30.4966  -23.3800   22.5907 C   0  0  0  0  0  0  0  0  0  0  0  0
  -20.4362  -26.1191   22.6358 C   0  0  0  0  0  0  0  0  0  0  0  0
  -29.9910  -22.8481   23.9279 C   0  0  0  0  0  0  0  0  0  0  0  0
  -18.4009  -19.2820   21.3690 C   0  0  0  0  0  0  0  0  0  0  0  0
  -21.2729  -27.0939   23.4584 C   0  0  0  0  0  0  0  0  0  0  0  0
  -19.1995  -18.1108   21.9439 C   0  0  0  0  0  0  0  0  0  0  0  0
  -28.5294  -22.4736   23.6695 C   0  0  0  0  0  0  0  0  0  0  0  0
  -19.1092  -19.9152   20.1734 C   0  0  0  0  0  0  0  0  0  0  0  0
  -21.3023  -19.1532   21.0002 C   0  0  0  0  0  0  0  0  0  0  0  0
  -20.7932  -28.5368   23.2595 C   0  0  1  0  0  0  0  0  0  0  0  0
  -22.7990  -30.0920   20.4326 C   0  0  1  0  0  0  0  0  0  0  0  0
  -20.6551  -18.5177   22.2426 C   0  0  2  0  0  0  0  0  0  0  0  0
  -26.0362  -24.4566   24.2150 C   0  0  0  0  0  0  0  0  0  0  0  0
  -21.9373  -26.6983   13.7632 C   0  0  0  0  0  0  0  0  0  0  0  0
  -19.1220  -26.8216   19.6023 C   0  0  0  0  0  0  0  0  0  0  0  0
  -19.5891  -25.6211   17.4555 C   0  0  0  0  0  0  0  0  0  0  0  0
  -18.8599  -28.0063   17.4155 C   0  0  0  0  0  0  0  0  0  0  0  0
  -25.3158  -26.6193   15.5114 C   0  0  0  0  0  0  0  0  0  0  0  0
  -22.7935  -23.1967   20.6442 C   0  0  0  0  0  0  0  0  0  0  0  0
  -28.1354  -25.6608   20.5045 C   0  0  0  0  0  0  0  0  0  1  0  0
  -21.1969  -27.4375   18.1947 C   0  0  1  0  0  0  0  0  0  0  0  0
  -22.9423  -27.0351   14.8538 C   0  0  2  0  0  0  0  0  0  0  0  0
  -19.7125  -26.9750   18.1864 C   0  0  0  0  0  0  0  0  0  0  0  0
  -22.1569  -16.5906   21.9058 N   0  0  0  0  0  0  0  0  0  0  0  0
  -21.4652  -17.3493   22.7730 N   0  0  0  0  0  0  0  0  0  0  0  0
  -28.1452  -23.3662   22.5691 N   0  0  0  0  0  0  0  0  0  0  0  0
  -22.6252  -28.9369   19.5496 N   0  0  0  0  0  0  0  0  0  0  0  0
  -20.4842  -20.2794   20.5234 N   0  0  0  0  0  0  0  0  0  0  0  0
  -20.9589  -17.6047   25.0728 N   0  0  0  0  0  0  0  0  0  0  0  0
  -22.0500  -14.0089   25.5971 N   0  0  0  0  0  0  0  0  0  0  0  0
  -21.2674  -29.0572   21.9951 N   0  0  0  0  0  0  0  0  0  0  0  0
  -21.7741  -27.6174   16.8669 N   0  0  0  0  0  0  0  0  0  0  0  0
  -22.2190  -21.8729   20.7351 N   0  0  0  0  0  0  0  0  0  0  0  0
  -24.2294  -26.3561   14.5328 N   0  3  0  0  0  0  0  0  0  0  0  0
  -23.8603  -15.3926   25.8559 O   0  0  0  0  0  0  0  0  0  0  0  0
  -23.3749  -29.7557   22.6976 O   0  0  0  0  0  0  0  0  0  0  0  0
  -20.4738  -29.5773   18.9192 O   0  0  0  0  0  0  0  0  0  0  0  0
  -22.6228  -25.4688   16.6654 O   0  0  0  0  0  0  0  0  0  0  0  0
  -20.1567  -22.5043   19.9573 O   0  0  0  0  0  0  0  0  0  0  0  0
  -26.0189  -11.7317   20.4816 O   0  0  0  0  0  0  0  0  0  0  0  0
  -28.4508  -27.0243   20.2260 O   0  0  0  0  0  0  0  0  0  1  0  0
  -31.0598  -13.2227   18.8169 F   0  0  0  0  0  0  0  0  0  0  0  0
  -24.9862  -22.1818   19.1797 F   0  0  0  0  0  0  0  0  0  0  0  0
  -28.2757  -10.5708   21.5777 F   0  0  0  0  0  0  0  0  0  0  0  0
  1  2  1  0  0  0  0
  1  5  2  0  0  0  0
  2  6  2  0  0  0  0
  3  8  2  0  0  0  0
  3 17  1  0  0  0  0
  4  9  1  0  0  0  0
  4 17  2  0  0  0  0
  5 19  1  0  0  0  0
  6 21  1  0  0  0  0
  7 10  2  0  0  0  0
  7 20  1  0  0  0  0
  8 26  1  0  0  0  0
  9 26  2  0  0  0  0
 10 27  1  0  0  0  0
 11 12  2  0  0  0  0
 11 28  1  0  0  0  0
 12 29  1  0  0  0  0
 13 22  1  0  0  0  0
 13 27  2  0  0  0  0
 14 23  1  0  0  0  0
 14 24  2  0  0  0  0
 15 25  1  0  0  0  0
 15 30  2  0  0  0  0
 16 29  2  0  0  0  0
 16 31  1  0  0  0  0
 17 32  1  0  0  0  0
 18 32  1  0  0  0  0
 18 33  2  0  0  0  0
 18 36  1  0  0  0  0
 19 21  2  0  0  0  0
 19 41  1  0  0  0  0
 20 22  2  0  0  0  0
 20 42  1  0  0  0  0
 21 53  1  0  0  0  0
 22 43  1  0  0  0  0
 23 25  2  0  0  0  0
 23 56  1  0  0  0  0
 24 30  1  0  0  0  0
 24 62  1  0  0  0  0
 25 69  1  0  0  0  0
 26 83  1  0  0  0  0
 27 84  1  0  0  0  0
 28 31  2  0  0  0  0
 28 83  1  0  0  0  0
 29 85  1  0  0  0  0
 30 86  1  0  0  0  0
 31 87  1  0  0  0  0
 32 67  2  0  0  0  0
 33 68  1  0  0  0  0
 33 72  1  0  0  0  0
 34 35  2  0  0  0  0
 34 44  1  0  0  0  0
 34 69  1  0  0  0  0
 35 63  1  0  0  0  0
 36 73  1  0  0  0  0
 36 78  2  0  0  0  0
 37 54  1  0  0  0  0
 37 74  1  0  0  0  0
 37 79  2  0  0  0  0
 38 64  1  0  0  0  0
 38 70  1  0  0  0  0
 38 80  2  0  0  0  0
 39 65  1  0  0  0  0
 39 75  1  0  0  0  0
 39 81  2  0  0  0  0
 40 71  1  0  0  0  0
 40 76  1  0  0  0  0
 40 82  2  0  0  0  0
 41 45  1  0  0  0  0
 42 54  1  0  0  0  0
 43 70  1  0  0  0  0
 44 46  1  0  0  0  0
 45 48  1  0  0  0  0
 46 50  1  0  0  0  0
 47 49  1  0  0  0  0
 47 51  1  0  0  0  0
 48 53  1  0  0  0  0
 49 55  1  0  0  0  0
 50 69  1  0  0  0  0
 51 71  1  0  0  0  0
 52 55  1  0  0  0  0
 52 71  1  0  0  0  0
 53 74  1  0  0  0  0
 54 70  1  0  0  0  0
 55 68  1  0  0  0  0
 57 65  1  0  0  0  0
 58 66  1  0  0  0  0
 59 66  1  0  0  0  0
 60 66  1  0  0  0  0
 61 77  1  0  0  0  0
 62 76  1  0  0  0  0
 63 84  1  0  0  0  0
 64 66  1  0  0  0  0
 64 75  1  0  0  0  0
 65 77  1  0  0  0  0
 67 68  1  0  0  0  0
M  CHG  1  77   1
M  ISO  4  40 100  63 101  76 100  84 101
M  END
> <Batch ID>
0028

> <Smiles>
CNC(C)C(=O)NC(C(=O)N1Cc2cc([101O:1][101CH2:1]C=C3CCCN3c3cc(F)c(C[100NH:0][100C:0](=O)N4CCCC(n5nc(-c6ccc(Oc7ccc(F)cc7F)cc6)c(C(N)=O)c5N)C4)cc3C)ccc2CC1C(=O)NC1CCCc2ccccc21)C(C)(C)C

> <Shape>
0.211

> <Color>
0.116

> <Negative vol penalty>
0.000

$$$$

  -OEChem-04042321313D

 85 94  0     1  0  0  0  0  0999 V2000
  -16.1285  -27.4354   18.4386 C   0  0  0  0  0  0  0  0  0  0  0  0
  -17.4159  -26.9342   18.2744 C   0  0  0  0  0  0  0  0  0  0  0  0
  -23.0692   -9.8756   19.9436 C   0  0  0  0  0  0  0  0  0  0  0  0
  -23.8379   -9.8769   22.2340 C   0  0  0  0  0  0  0  0  0  0  0  0
  -15.5782  -27.5353   19.7157 C   0  0  0  0  0  0  0  0  0  0  0  0
  -18.1541  -26.5336   19.3876 C   0  0  0  0  0  0  0  0  0  0  0  0
  -22.1515  -21.9033   19.6820 C   0  0  0  0  0  0  0  0  0  0  0  0
  -28.3338  -19.4095   24.2966 C   0  0  0  0  0  0  0  0  0  0  0  0
  -22.3246   -8.7231   20.1941 C   0  0  0  0  0  0  0  0  0  0  0  0
  -23.0933   -8.7244   22.4846 C   0  0  0  0  0  0  0  0  0  0  0  0
  -23.5428  -21.8589   19.6040 C   0  0  0  0  0  0  0  0  0  0  0  0
  -19.8663   -7.9301   23.0979 C   0  0  0  0  0  0  0  0  0  0  0  0
  -19.1138   -7.8890   24.2717 C   0  0  0  0  0  0  0  0  0  0  0  0
  -28.9125  -18.2744   24.8642 C   0  0  0  0  0  0  0  0  0  0  0  0
  -23.6727  -21.8846   22.0127 C   0  0  0  0  0  0  0  0  0  0  0  0
  -20.3551   -5.9482   24.9995 C   0  0  0  0  0  0  0  0  0  0  0  0
  -23.8259  -10.4525   20.9635 C   0  0  0  0  0  0  0  0  0  0  0  0
  -24.1711  -12.9774   20.8472 C   0  0  0  0  0  0  0  0  0  0  0  0
  -16.3063  -27.1267   20.8442 C   0  0  0  0  0  0  0  0  0  0  0  0
  -21.5096  -21.9498   20.9279 C   0  0  0  0  0  0  0  0  0  0  0  0
  -17.6134  -26.6294   20.6811 C   0  0  0  0  0  0  0  0  0  0  0  0
  -22.2731  -21.9270   22.1038 C   0  0  0  0  0  0  0  0  0  0  0  0
  -29.9581  -17.7504   22.7501 C   0  0  0  0  0  0  0  0  0  0  0  0
  -28.5671  -19.7151   22.9557 C   0  0  0  0  0  0  0  0  0  0  0  0
  -22.3366   -8.1475   21.4646 C   0  0  0  0  0  0  0  0  0  0  0  0
  -24.3037  -21.8525   20.7694 C   0  0  0  0  0  0  0  0  0  0  0  0
  -20.8632   -6.9803   22.8749 C   0  0  0  0  0  0  0  0  0  0  0  0
  -19.3582   -6.8981   25.2224 C   0  0  0  0  0  0  0  0  0  0  0  0
  -21.1076   -5.9894   23.8257 C   0  0  0  0  0  0  0  0  0  0  0  0
  -29.3793  -18.8855   22.1825 C   0  0  0  0  0  0  0  0  0  0  0  0
  -29.7246  -17.4448   24.0910 C   0  0  0  0  0  0  0  0  0  0  0  0
  -24.5958  -11.6428   20.7052 C   0  0  0  0  0  0  0  0  0  0  0  0
  -25.2629  -13.7260   20.4812 C   0  0  0  0  0  0  0  0  0  0  0  0
  -22.9030  -13.4943   21.2721 C   0  0  0  0  0  0  0  0  0  0  0  0
  -19.6040  -24.0295   22.3932 C   0  0  0  0  0  0  0  0  0  0  0  0
  -19.4069  -21.6834   24.6246 C   0  0  0  0  0  0  0  0  0  0  0  0
  -20.8138  -18.9260   26.0614 C   0  0  0  0  0  0  0  0  0  0  0  0
  -30.7488  -14.7366   20.6505 C   0  0  0  0  0  0  0  0  0  0  0  0
  -15.6871  -27.2978   22.2087 C   0  0  0  0  0  0  0  0  0  0  0  0
  -20.0072  -21.9705   20.9954 C   0  0  0  0  0  0  0  0  0  0  0  0
  -21.6317  -21.9552   23.4663 C   0  0  0  0  0  0  0  0  0  0  0  0
  -16.3944  -26.5020   23.3026 C   0  0  0  0  0  0  0  0  0  0  0  0
  -29.5985  -12.3585   18.2634 C   0  0  0  0  0  0  0  0  0  0  0  0
  -17.9056  -26.6833   23.2025 C   0  0  0  0  0  0  0  0  0  0  0  0
  -28.1623  -12.0660   18.7013 C   0  0  0  0  0  0  0  0  0  0  0  0
  -27.7547  -22.8822   21.2501 C   0  0  0  0  0  0  0  0  0  0  0  0
  -30.5206  -12.5756   19.4612 C   0  0  0  0  0  0  0  0  0  0  0  0
  -28.5908  -21.6038   21.3073 C   0  0  0  0  0  0  0  0  0  0  0  0
  -28.6253  -13.3067   20.8566 C   0  0  0  0  0  0  0  0  0  0  0  0
  -26.7113  -21.4004   22.8229 C   0  0  0  0  0  0  0  0  0  0  0  0
  -18.4363  -26.1614   21.8618 C   0  0  1  0  0  0  0  0  0  0  0  0
  -19.4758  -22.5348   22.3094 C   0  0  1  0  0  0  0  0  0  0  0  0
  -27.6464  -13.1359   19.6823 C   0  0  2  0  0  0  0  0  0  0  0  0
  -26.3873  -22.4367   21.7476 C   0  0  2  0  0  0  0  0  0  1  0  0
  -20.4367  -17.2475   27.8884 C   0  0  0  0  0  0  0  0  0  0  0  0
  -20.2350  -23.7605   26.7005 C   0  0  0  0  0  0  0  0  0  0  0  0
  -20.7590  -21.8814   28.2698 C   0  0  0  0  0  0  0  0  0  0  0  0
  -18.4261  -22.2032   27.4470 C   0  0  0  0  0  0  0  0  0  0  0  0
  -20.7470  -16.6764   24.1396 C   0  0  0  0  0  0  0  0  0  0  0  0
  -30.8226  -16.8845   21.8914 C   0  0  0  0  0  0  0  0  0  0  0  0
  -20.1877  -21.3184   25.8640 C   0  0  1  0  0  0  0  0  0  0  0  0
  -20.2345  -17.5683   26.4157 C   0  0  2  0  0  0  0  0  0  0  0  0
  -19.9144  -22.2923   27.0448 C   0  0  0  0  0  0  0  0  0  0  0  0
  -25.8589  -11.5459   20.2819 N   0  0  0  0  0  0  0  0  0  0  0  0
  -26.2372  -12.8292   20.1547 N   0  0  0  0  0  0  0  0  0  0  0  0
  -27.9936  -20.8380   22.3973 N   0  0  3  0  0  0  0  0  0  0  0  0
  -20.1598  -21.9813   23.4799 N   0  0  0  0  0  0  0  0  0  0  0  0
  -29.9750  -13.6031   20.3513 N   0  0  0  0  0  0  0  0  0  0  0  0
  -25.4750  -15.0573   20.4101 N   0  0  0  0  0  0  0  0  0  0  0  0
  -21.8910  -12.5859   21.6114 N   0  0  0  0  0  0  0  0  0  0  0  0
  -18.5208  -24.7168   21.8796 N   0  0  0  0  0  0  0  0  0  0  0  0
  -19.8674  -19.9247   26.1526 N   0  0  0  0  0  0  0  0  0  0  0  0
  -30.1543  -15.6646   21.4967 N   0  0  0  0  0  0  0  0  0  0  0  0
  -20.8877  -16.4997   25.6079 N   0  3  0  0  0  0  0  0  0  0  0  0
  -22.6688  -14.7251   21.3327 O   0  0  0  0  0  0  0  0  0  0  0  0
  -20.6105  -24.5228   22.8886 O   0  0  0  0  0  0  0  0  0  0  0  0
  -18.1742  -21.6964   24.6684 O   0  0  0  0  0  0  0  0  0  0  0  0
  -21.9893  -19.0854   25.7399 O   0  0  0  0  0  0  0  0  0  0  0  0
  -31.8833  -14.9113   20.1929 O   0  0  0  0  0  0  0  0  0  0  0  0
  -21.6099   -7.0229   21.7095 O   0  0  0  0  0  0  0  0  0  0  0  0
  -25.6619  -21.8098   20.6960 O   0  0  0  0  0  0  0  0  0  1  0  0
  -18.6365   -6.8596   26.3502 F   0  0  0  0  0  0  0  0  0  0  0  0
  -22.0648   -5.0749   23.6176 F   0  0  0  0  0  0  0  0  0  0  0  0
  -29.6038  -19.1795   20.8928 F   0  0  0  0  0  0  0  0  0  0  0  0
  -30.4232  -16.0493   24.8283 Cl  0  0  0  0  0  0  0  0  0  0  0  0
  1  2  1  0  0  0  0
  1  5  2  0  0  0  0
  2  6  2  0  0  0  0
  3  9  2  0  0  0  0
  3 17  1  0  0  0  0
  4 10  1  0  0  0  0
  4 17  2  0  0  0  0
  5 19  1  0  0  0  0
  6 21  1  0  0  0  0
  7 11  2  0  0  0  0
  7 20  1  0  0  0  0
  8 14  2  0  0  0  0
  8 24  1  0  0  0  0
  9 25  1  0  0  0  0
 10 25  2  0  0  0  0
 11 26  1  0  0  0  0
 12 13  2  0  0  0  0
 12 27  1  0  0  0  0
 13 28  1  0  0  0  0
 14 31  1  0  0  0  0
 15 22  1  0  0  0  0
 15 26  2  0  0  0  0
 16 28  2  0  0  0  0
 16 29  1  0  0  0  0
 17 32  1  0  0  0  0
 18 32  1  0  0  0  0
 18 33  2  0  0  0  0
 18 34  1  0  0  0  0
 19 21  2  0  0  0  0
 19 39  1  0  0  0  0
 20 22  2  0  0  0  0
 20 40  1  0  0  0  0
 21 51  1  0  0  0  0
 22 41  1  0  0  0  0
 23 30  1  0  0  0  0
 23 31  2  0  0  0  0
 23 60  1  0  0  0  0
 24 30  2  0  0  0  0
 24 66  1  0  0  0  0
 25 80  1  0  0  0  0
 26 81  1  0  0  0  0
 27 29  2  0  0  0  0
 27 80  1  0  0  0  0
 28 82  1  0  0  0  0
 29 83  1  0  0  0  0
 30 84  1  0  0  0  0
 31 85  1  0  0  0  0
 32 64  2  0  0  0  0
 33 65  1  0  0  0  0
 33 69  1  0  0  0  0
 34 70  1  0  0  0  0
 34 75  2  0  0  0  0
 35 52  1  0  0  0  0
 35 71  1  0  0  0  0
 35 76  2  0  0  0  0
 36 61  1  0  0  0  0
 36 67  1  0  0  0  0
 36 77  2  0  0  0  0
 37 62  1  0  0  0  0
 37 72  1  0  0  0  0
 37 78  2  0  0  0  0
 38 68  1  0  0  0  0
 38 73  1  0  0  0  0
 38 79  2  0  0  0  0
 39 42  1  0  0  0  0
 40 52  1  0  0  0  0
 41 67  1  0  0  0  0
 42 44  1  0  0  0  0
 43 45  1  0  0  0  0
 43 47  1  0  0  0  0
 44 51  1  0  0  0  0
 45 53  1  0  0  0  0
 46 48  1  0  0  0  0
 46 54  1  0  0  0  0
 47 68  1  0  0  0  0
 48 66  1  0  0  0  0
 49 53  1  0  0  0  0
 49 68  1  0  0  0  0
 50 54  1  0  0  0  0
 50 66  1  0  0  0  0
 51 71  1  0  0  0  0
 52 67  1  0  0  0  0
 53 65  1  0  0  0  0
 54 81  1  0  0  0  0
 55 62  1  0  0  0  0
 56 63  1  0  0  0  0
 57 63  1  0  0  0  0
 58 63  1  0  0  0  0
 59 74  1  0  0  0  0
 60 73  1  0  0  0  0
 61 63  1  0  0  0  0
 61 72  1  0  0  0  0
 62 74  1  0  0  0  0
 64 65  1  0  0  0  0
M  CHG  1  74   1
M  ISO  4  38 100  54 101  73 100  81 101
M  END
> <Batch ID>
0028

> <Smiles>
CNC(C)C(=O)NC(C(=O)N1Cc2cc([101O:1][101CH:1]3CCN(c4ccc(Cl)c(C[100NH:0][100C:0](=O)N5CCCC(n6nc(-c7ccc(Oc8ccc(F)cc8F)cc7)c(C(N)=O)c6N)C5)c4F)C3)ccc2CC1C(=O)NC1CCCc2ccccc21)C(C)(C)C

> <Shape>
0.216

> <Color>
0.196

> <Negative vol penalty>
0.000

$$$$

  -OEChem-04042321313D

 87 96  0     1  0  0  0  0  0999 V2000
  -19.1630  -33.9415   21.1796 C   0  0  0  0  0  0  0  0  0  0  0  0
  -20.4604  -33.6138   20.7989 C   0  0  0  0  0  0  0  0  0  0  0  0
  -26.4595  -12.3744   21.6674 C   0  0  0  0  0  0  0  0  0  0  0  0
  -25.8839  -13.5221   19.6208 C   0  0  0  0  0  0  0  0  0  0  0  0
  -18.5643  -33.2807   22.2514 C   0  0  0  0  0  0  0  0  0  0  0  0
  -21.1601  -32.6256   21.4905 C   0  0  0  0  0  0  0  0  0  0  0  0
  -25.1878  -28.6476   19.1542 C   0  0  0  0  0  0  0  0  0  0  0  0
  -25.2306  -11.7150   21.6433 C   0  0  0  0  0  0  0  0  0  0  0  0
  -24.6549  -12.8627   19.5967 C   0  0  0  0  0  0  0  0  0  0  0  0
  -26.5814  -28.6376   19.1150 C   0  0  0  0  0  0  0  0  0  0  0  0
  -23.8454   -9.0862   20.0297 C   0  0  0  0  0  0  0  0  0  0  0  0
  -23.8395   -7.7164   20.2923 C   0  0  0  0  0  0  0  0  0  0  0  0
  -26.6207  -27.2428   21.0829 C   0  0  0  0  0  0  0  0  0  0  0  0
  -29.3535  -21.8660   16.9440 C   0  0  0  0  0  0  0  0  0  0  0  0
  -30.5228  -22.0889   19.4670 C   0  0  0  0  0  0  0  0  0  0  0  0
  -22.3884   -8.0861   22.1883 C   0  0  0  0  0  0  0  0  0  0  0  0
  -26.7861  -13.2780   20.6561 C   0  0  0  0  0  0  0  0  0  0  0  0
  -29.2629  -13.5294   20.0994 C   0  0  0  0  0  0  0  0  0  0  0  0
  -19.2535  -32.2772   22.9504 C   0  0  0  0  0  0  0  0  0  0  0  0
  -24.4993  -27.9631   20.1661 C   0  0  0  0  0  0  0  0  0  0  0  0
  -20.5705  -31.9516   22.5735 C   0  0  0  0  0  0  0  0  0  0  0  0
  -25.2183  -27.2436   21.1312 C   0  0  0  0  0  0  0  0  0  0  0  0
  -30.3724  -22.7935   17.1609 C   0  0  0  0  0  0  0  0  0  0  0  0
  -28.9191  -21.0500   17.9886 C   0  0  0  0  0  0  0  0  0  0  0  0
  -30.9571  -22.9049   18.4224 C   0  0  0  0  0  0  0  0  0  0  0  0
  -29.5037  -21.1614   19.2501 C   0  0  0  0  0  0  0  0  0  0  0  0
  -24.3283  -11.9592   20.6080 C   0  0  0  0  0  0  0  0  0  0  0  0
  -27.2982  -27.9375   20.0811 C   0  0  0  0  0  0  0  0  0  0  0  0
  -23.1229   -9.9561   20.8465 C   0  0  0  0  0  0  0  0  0  0  0  0
  -23.1110   -7.2163   21.3716 C   0  0  0  0  0  0  0  0  0  0  0  0
  -22.3944   -9.4560   21.9257 C   0  0  0  0  0  0  0  0  0  0  0  0
  -28.0552  -13.9599   20.6808 C   0  0  0  0  0  0  0  0  0  0  0  0
  -30.1626  -14.5221   20.4021 C   0  0  0  0  0  0  0  0  0  0  0  0
  -32.1792  -26.1003   17.4600 C   0  0  0  0  0  0  0  0  0  0  0  0
  -29.5462  -12.3388   19.3526 C   0  0  0  0  0  0  0  0  0  0  0  0
  -22.5203  -28.8138   22.5035 C   0  0  0  0  0  0  0  0  0  0  0  0
  -22.2622  -25.6077   22.9239 C   0  0  0  0  0  0  0  0  0  0  0  0
  -23.6406  -22.5122   22.5179 C   0  0  0  0  0  0  0  0  0  0  0  0
  -29.5632  -20.3390   21.6305 C   0  0  0  0  0  0  0  0  0  0  0  0
  -18.5821  -31.6236   24.1322 C   0  0  0  0  0  0  0  0  0  0  0  0
  -22.9952  -27.9616   20.1788 C   0  0  0  0  0  0  0  0  0  0  0  0
  -24.5262  -26.4758   22.2266 C   0  0  0  0  0  0  0  0  0  0  0  0
  -31.3511  -27.3633   17.4545 C   0  0  0  0  0  0  0  0  0  0  0  0
  -19.2554  -30.3272   24.5751 C   0  0  0  0  0  0  0  0  0  0  0  0
  -31.0754  -17.8699   23.7027 C   0  0  0  0  0  0  0  0  0  0  0  0
  -20.7675  -30.5113   24.6549 C   0  0  0  0  0  0  0  0  0  0  0  0
  -30.5873  -16.5477   23.1062 C   0  0  0  0  0  0  0  0  0  0  0  0
  -29.9970  -18.9504   23.6451 C   0  0  0  0  0  0  0  0  0  0  0  0
  -30.4761  -25.8227   19.0754 C   0  0  0  0  0  0  0  0  0  0  0  0
  -28.9223  -17.8497   21.7208 C   0  0  0  0  0  0  0  0  0  0  0  0
  -21.3530  -30.8681   23.2833 C   0  0  1  0  0  0  0  0  0  0  0  0
  -22.4097  -27.6548   21.5537 C   0  0  1  0  0  0  0  0  0  0  0  0
  -30.6106  -27.3128   18.7934 C   0  0  2  0  0  0  0  0  0  0  0  0
  -29.9957  -16.7493   21.6974 C   0  0  2  0  0  0  0  0  0  0  0  0
  -30.8207  -23.6566   16.0276 C   0  0  0  0  0  0  0  0  0  0  0  0
  -27.8259  -20.0652   17.7277 C   0  0  0  0  0  0  0  0  0  0  0  0
  -23.2114  -20.0865   22.9966 C   0  0  0  0  0  0  0  0  0  0  0  0
  -22.9920  -26.0589   25.8519 C   0  0  0  0  0  0  0  0  0  0  0  0
  -23.4748  -23.6092   26.0368 C   0  0  0  0  0  0  0  0  0  0  0  0
  -21.1715  -24.3859   25.4765 C   0  0  0  0  0  0  0  0  0  0  0  0
  -23.6674  -21.8200   19.6405 C   0  0  0  0  0  0  0  0  0  0  0  0
  -32.0551  -23.8960   18.6796 C   0  0  0  0  0  0  0  0  0  0  0  0
  -29.2756  -28.0366   18.7636 C   0  0  0  0  0  0  0  0  0  1  0  0
  -22.9995  -24.5737   23.7401 C   0  0  1  0  0  0  0  0  0  0  0  0
  -23.0615  -21.2135   21.9865 C   0  0  2  0  0  0  0  0  0  0  0  0
  -22.6729  -24.6729   25.2569 C   0  0  0  0  0  0  0  0  0  0  0  0
  -28.1736  -15.1344   21.3056 N   0  0  0  0  0  0  0  0  0  0  0  0
  -29.4663  -15.4504   21.1187 N   0  0  0  0  0  0  0  0  0  0  0  0
  -31.6303  -25.2545   18.4193 N   0  0  0  0  0  0  0  0  0  0  0  0
  -23.0546  -26.5100   22.2001 N   0  0  0  0  0  0  0  0  0  0  0  0
  -29.4863  -19.0885   22.2795 N   0  0  0  0  0  0  0  0  0  0  0  0
  -31.4736  -14.6827   20.1226 N   0  0  0  0  0  0  0  0  0  0  0  0
  -28.5067  -11.4246   19.1331 N   0  0  0  0  0  0  0  0  0  0  0  0
  -29.0765  -20.3414   20.3237 N   0  0  0  0  0  0  0  0  0  0  0  0
  -21.4506  -29.6870   22.4526 N   0  0  0  0  0  0  0  0  0  0  0  0
  -22.6820  -23.2806   23.1438 N   0  0  0  0  0  0  0  0  0  0  0  0
  -23.7547  -20.8132   20.7294 N   0  3  0  0  0  0  0  0  0  0  0  0
  -33.1200  -25.8840   16.7106 O   0  0  0  0  0  0  0  0  0  0  0  0
  -30.6911  -12.0850   18.9074 O   0  0  0  0  0  0  0  0  0  0  0  0
  -23.5028  -28.9080   23.2299 O   0  0  0  0  0  0  0  0  0  0  0  0
  -21.0287  -25.6101   22.9227 O   0  0  0  0  0  0  0  0  0  0  0  0
  -24.8258  -22.8131   22.3936 O   0  0  0  0  0  0  0  0  0  0  0  0
  -30.0517  -21.3280   22.1831 O   0  0  0  0  0  0  0  0  0  0  0  0
  -23.1291  -11.3158   20.5840 O   0  0  0  0  0  0  0  0  0  0  0  0
  -28.6585  -27.9266   20.0456 O   0  0  0  0  0  0  0  0  0  1  0  0
  -23.1042   -5.9006   21.6227 F   0  0  0  0  0  0  0  0  0  0  0  0
  -21.6974  -10.2866   22.7132 F   0  0  0  0  0  0  0  0  0  0  0  0
  1  2  1  0  0  0  0
  1  5  2  0  0  0  0
  2  6  2  0  0  0  0
  3  8  2  0  0  0  0
  3 17  1  0  0  0  0
  4  9  1  0  0  0  0
  4 17  2  0  0  0  0
  5 19  1  0  0  0  0
  6 21  1  0  0  0  0
  7 10  2  0  0  0  0
  7 20  1  0  0  0  0
  8 27  1  0  0  0  0
  9 27  2  0  0  0  0
 10 28  1  0  0  0  0
 11 12  2  0  0  0  0
 11 29  1  0  0  0  0
 12 30  1  0  0  0  0
 13 22  1  0  0  0  0
 13 28  2  0  0  0  0
 14 23  1  0  0  0  0
 14 24  2  0  0  0  0
 15 25  1  0  0  0  0
 15 26  2  0  0  0  0
 16 30  2  0  0  0  0
 16 31  1  0  0  0  0
 17 32  1  0  0  0  0
 18 32  1  0  0  0  0
 18 33  2  0  0  0  0
 18 35  1  0  0  0  0
 19 21  2  0  0  0  0
 19 40  1  0  0  0  0
 20 22  2  0  0  0  0
 20 41  1  0  0  0  0
 21 51  1  0  0  0  0
 22 42  1  0  0  0  0
 23 25  2  0  0  0  0
 23 55  1  0  0  0  0
 24 26  1  0  0  0  0
 24 56  1  0  0  0  0
 25 62  1  0  0  0  0
 26 74  1  0  0  0  0
 27 84  1  0  0  0  0
 28 85  1  0  0  0  0
 29 31  2  0  0  0  0
 29 84  1  0  0  0  0
 30 86  1  0  0  0  0
 31 87  1  0  0  0  0
 32 67  2  0  0  0  0
 33 68  1  0  0  0  0
 33 72  1  0  0  0  0
 34 43  1  0  0  0  0
 34 69  1  0  0  0  0
 34 78  2  0  0  0  0
 35 73  1  0  0  0  0
 35 79  2  0  0  0  0
 36 52  1  0  0  0  0
 36 75  1  0  0  0  0
 36 80  2  0  0  0  0
 37 64  1  0  0  0  0
 37 70  1  0  0  0  0
 37 81  2  0  0  0  0
 38 65  1  0  0  0  0
 38 76  1  0  0  0  0
 38 82  2  0  0  0  0
 39 71  1  0  0  0  0
 39 74  1  0  0  0  0
 39 83  2  0  0  0  0
 40 44  1  0  0  0  0
 41 52  1  0  0  0  0
 42 70  1  0  0  0  0
 43 53  1  0  0  0  0
 44 46  1  0  0  0  0
 45 47  1  0  0  0  0
 45 48  1  0  0  0  0
 46 51  1  0  0  0  0
 47 54  1  0  0  0  0
 48 71  1  0  0  0  0
 49 53  1  0  0  0  0
 49 69  1  0  0  0  0
 50 54  1  0  0  0  0
 50 71  1  0  0  0  0
 51 75  1  0  0  0  0
 52 70  1  0  0  0  0
 53 63  1  0  0  0  0
 54 68  1  0  0  0  0
 57 65  1  0  0  0  0
 58 66  1  0  0  0  0
 59 66  1  0  0  0  0
 60 66  1  0  0  0  0
 61 77  1  0  0  0  0
 62 69  1  0  0  0  0
 63 85  1  0  0  0  0
 64 66  1  0  0  0  0
 64 76  1  0  0  0  0
 65 77  1  0  0  0  0
 67 68  1  0  0  0  0
M  CHG  1  77   1
M  ISO  4  39 100  63 101  74 100  85 101
M  END
> <Batch ID>
0028

> <Smiles>
CNC(C)C(=O)NC(C(=O)N1Cc2cc([101O:1][101CH2:1]C3CC(=O)N(Cc4cc([100NH:0][100C:0](=O)N5CCCC(n6nc(-c7ccc(Oc8ccc(F)cc8F)cc7)c(C(N)=O)c6N)C5)c(C)cc4C)C3)ccc2CC1C(=O)NC1CCCc2ccccc21)C(C)(C)C

> <Shape>
0.264

> <Color>
0.108

> <Negative vol penalty>
0.000

$$$$

  -OEChem-04042321313D

 87 96  0     1  0  0  0  0  0999 V2000
  -41.0319  -27.0706   19.9231 C   0  0  0  0  0  0  0  0  0  0  0  0
  -40.2289  -25.9675   19.6512 C   0  0  0  0  0  0  0  0  0  0  0  0
  -23.0733   -9.8782   19.9546 C   0  0  0  0  0  0  0  0  0  0  0  0
  -23.7538   -9.9487   22.2718 C   0  0  0  0  0  0  0  0  0  0  0  0
  -40.6202  -28.3442   19.5326 C   0  0  0  0  0  0  0  0  0  0  0  0
  -39.0132  -26.1376   18.9897 C   0  0  0  0  0  0  0  0  0  0  0  0
  -36.4226  -22.2814   14.9991 C   0  0  0  0  0  0  0  0  0  0  0  0
  -22.3246   -8.7293   20.2095 C   0  0  0  0  0  0  0  0  0  0  0  0
  -23.0050   -8.7998   22.5266 C   0  0  0  0  0  0  0  0  0  0  0  0
  -35.4241  -21.3184   15.1384 C   0  0  0  0  0  0  0  0  0  0  0  0
  -23.3245   -5.4653   22.0681 C   0  0  0  0  0  0  0  0  0  0  0  0
  -23.9178   -4.4617   22.8338 C   0  0  0  0  0  0  0  0  0  0  0  0
  -33.7847  -22.9172   14.3798 C   0  0  0  0  0  0  0  0  0  0  0  0
  -29.2882  -18.8882   20.6163 C   0  0  0  0  0  0  0  0  0  0  0  0
  -30.6881  -20.1842   19.1339 C   0  0  0  0  0  0  0  0  0  0  0  0
  -22.1582   -4.6740   24.4757 C   0  0  0  0  0  0  0  0  0  0  0  0
  -23.7880  -10.4879   20.9858 C   0  0  0  0  0  0  0  0  0  0  0  0
  -24.1265  -13.0103   20.8105 C   0  0  0  0  0  0  0  0  0  0  0  0
  -39.4034  -28.5288   18.8574 C   0  0  0  0  0  0  0  0  0  0  0  0
  -36.1075  -23.5749   14.5588 C   0  0  0  0  0  0  0  0  0  0  0  0
  -38.5843  -27.4150   18.5911 C   0  0  0  0  0  0  0  0  0  0  0  0
  -34.7814  -23.8940   14.2333 C   0  0  0  0  0  0  0  0  0  0  0  0
  -29.8334  -17.7116   20.1026 C   0  0  0  0  0  0  0  0  0  0  0  0
  -30.8060  -17.7713   19.1046 C   0  0  0  0  0  0  0  0  0  0  0  0
  -31.2334  -19.0076   18.6202 C   0  0  0  0  0  0  0  0  0  0  0  0
  -22.2904   -8.1901   21.4955 C   0  0  0  0  0  0  0  0  0  0  0  0
  -34.1045  -21.6370   14.8315 C   0  0  0  0  0  0  0  0  0  0  0  0
  -22.1480   -6.0734   22.5062 C   0  0  0  0  0  0  0  0  0  0  0  0
  -23.3347   -4.0660   24.0375 C   0  0  0  0  0  0  0  0  0  0  0  0
  -29.7155  -20.1246   20.1319 C   0  0  0  0  0  0  0  0  0  0  0  0
  -21.5649   -5.6777   23.7100 C   0  0  0  0  0  0  0  0  0  0  0  0
  -24.5621  -11.6744   20.7230 C   0  0  0  0  0  0  0  0  0  0  0  0
  -25.2284  -13.7540   20.4651 C   0  0  0  0  0  0  0  0  0  0  0  0
  -22.8409  -13.5322   21.1717 C   0  0  0  0  0  0  0  0  0  0  0  0
  -36.3348  -26.4880   15.8101 C   0  0  0  0  0  0  0  0  0  0  0  0
  -35.3773  -27.4101   12.8512 C   0  0  0  0  0  0  0  0  0  0  0  0
  -33.7671  -26.6165    9.9488 C   0  0  0  0  0  0  0  0  0  0  0  0
  -30.8077  -14.5040   21.2560 C   0  0  0  0  0  0  0  0  0  0  0  0
  -38.9784  -29.9303   18.4971 C   0  0  0  0  0  0  0  0  0  0  0  0
  -37.2001  -24.5945   14.3883 C   0  0  0  0  0  0  0  0  0  0  0  0
  -34.3939  -25.2623   13.7372 C   0  0  0  0  0  0  0  0  0  0  0  0
  -37.8519  -29.9796   17.4681 C   0  0  0  0  0  0  0  0  0  0  0  0
  -29.6512  -12.3802   18.4536 C   0  0  0  0  0  0  0  0  0  0  0  0
  -36.7461  -28.9968   17.8397 C   0  0  0  0  0  0  0  0  0  0  0  0
  -28.2094  -12.0646   18.8479 C   0  0  0  0  0  0  0  0  0  0  0  0
  -30.5315  -12.6295   19.6745 C   0  0  0  0  0  0  0  0  0  0  0  0
  -28.5670  -13.3647   20.9838 C   0  0  0  0  0  0  0  0  0  0  0  0
  -33.1445  -20.1347   17.4337 C   0  0  0  0  0  0  0  0  0  0  0  0
  -32.0322  -18.8031   16.2431 C   0  0  0  0  0  0  0  0  0  0  0  0
  -37.2704  -27.5558   17.8535 C   0  0  1  0  0  0  0  0  0  0  0  0
  -36.6877  -26.0310   14.4230 C   0  0  1  0  0  0  0  0  0  0  0  0
  -27.6431  -13.1542   19.7749 C   0  0  2  0  0  0  0  0  0  0  0  0
  -33.2701  -19.6714   15.9755 C   0  0  0  0  0  0  0  0  0  1  0  0
  -31.3886  -16.5066   18.5558 C   0  0  0  0  0  0  0  0  0  0  0  0
  -33.1138  -27.5882    7.7292 C   0  0  0  0  0  0  0  0  0  0  0  0
  -29.8247  -15.6840   23.9395 C   0  0  0  0  0  0  0  0  0  0  0  0
  -31.9856  -16.6699   23.1137 C   0  0  0  0  0  0  0  0  0  0  0  0
  -33.1436  -28.9893   14.2028 C   0  0  0  0  0  0  0  0  0  0  0  0
  -31.9991  -29.1380   11.9810 C   0  0  0  0  0  0  0  0  0  0  0  0
  -34.2486  -30.1696   12.2948 C   0  0  0  0  0  0  0  0  0  0  0  0
  -35.3489  -24.5995    8.4694 C   0  0  0  0  0  0  0  0  0  0  0  0
  -29.3585  -16.4012   20.6394 C   0  0  0  0  0  0  0  0  0  0  0  0
  -34.0439  -27.6520   12.1861 C   0  0  1  0  0  0  0  0  0  0  0  0
  -34.1637  -26.7980    8.4947 C   0  0  2  0  0  0  0  0  0  0  0  0
  -30.5041  -16.4673   22.8232 C   0  0  0  0  0  0  0  0  0  0  0  0
  -33.3655  -28.9619   12.6773 C   0  0  0  0  0  0  0  0  0  0  0  0
  -25.8408  -11.5723   20.3511 N   0  0  0  0  0  0  0  0  0  0  0  0
  -26.2183  -12.8535   20.2017 N   0  0  0  0  0  0  0  0  0  0  0  0
  -32.2017  -19.0881   17.6255 N   0  0  0  0  0  0  0  0  0  0  0  0
  -35.4971  -26.2265   13.5932 N   0  0  0  0  0  0  0  0  0  0  0  0
  -29.9484  -13.6379   20.5601 N   0  0  0  0  0  0  0  0  0  0  0  0
  -25.4373  -15.0838   20.3640 N   0  0  0  0  0  0  0  0  0  0  0  0
  -21.8206  -12.6284   21.4981 N   0  0  0  0  0  0  0  0  0  0  0  0
  -37.3905  -27.0488   16.5033 N   0  0  0  0  0  0  0  0  0  0  0  0
  -34.2910  -27.6098   10.7489 N   0  0  0  0  0  0  0  0  0  0  0  0
  -30.3259  -15.7908   21.5402 N   0  0  0  0  0  0  0  0  0  0  0  0
  -34.3289  -25.4726    7.8336 N   0  3  0  0  0  0  0  0  0  0  0  0
  -22.5993  -14.7630   21.1881 O   0  0  0  0  0  0  0  0  0  0  0  0
  -35.1892  -26.3441   16.2206 O   0  0  0  0  0  0  0  0  0  0  0  0
  -36.2817  -28.2373   12.7115 O   0  0  0  0  0  0  0  0  0  0  0  0
  -33.0600  -25.6886   10.3355 O   0  0  0  0  0  0  0  0  0  0  0  0
  -31.9444  -14.1507   21.5951 O   0  0  0  0  0  0  0  0  0  0  0  0
  -21.5597   -7.0691   21.7446 O   0  0  0  0  0  0  0  0  0  0  0  0
  -33.1279  -20.6992   14.9672 O   0  0  0  0  0  0  0  0  0  1  0  0
  -23.9038   -3.1012   24.7719 F   0  0  0  0  0  0  0  0  0  0  0  0
  -29.1916  -21.2545   20.6250 F   0  0  0  0  0  0  0  0  0  0  0  0
  -20.4340   -6.2573   24.1355 F   0  0  0  0  0  0  0  0  0  0  0  0
  1  2  1  0  0  0  0
  1  5  2  0  0  0  0
  2  6  2  0  0  0  0
  3  8  2  0  0  0  0
  3 17  1  0  0  0  0
  4  9  1  0  0  0  0
  4 17  2  0  0  0  0
  5 19  1  0  0  0  0
  6 21  1  0  0  0  0
  7 10  2  0  0  0  0
  7 20  1  0  0  0  0
  8 26  1  0  0  0  0
  9 26  2  0  0  0  0
 10 27  1  0  0  0  0
 11 12  2  0  0  0  0
 11 28  1  0  0  0  0
 12 29  1  0  0  0  0
 13 22  1  0  0  0  0
 13 27  2  0  0  0  0
 14 23  2  0  0  0  0
 14 30  1  0  0  0  0
 15 25  1  0  0  0  0
 15 30  2  0  0  0  0
 16 29  2  0  0  0  0
 16 31  1  0  0  0  0
 17 32  1  0  0  0  0
 18 32  1  0  0  0  0
 18 33  2  0  0  0  0
 18 34  1  0  0  0  0
 19 21  2  0  0  0  0
 19 39  1  0  0  0  0
 20 22  2  0  0  0  0
 20 40  1  0  0  0  0
 21 50  1  0  0  0  0
 22 41  1  0  0  0  0
 23 24  1  0  0  0  0
 23 62  1  0  0  0  0
 24 25  2  0  0  0  0
 24 54  1  0  0  0  0
 25 69  1  0  0  0  0
 26 83  1  0  0  0  0
 27 84  1  0  0  0  0
 28 31  2  0  0  0  0
 28 83  1  0  0  0  0
 29 85  1  0  0  0  0
 30 86  1  0  0  0  0
 31 87  1  0  0  0  0
 32 67  2  0  0  0  0
 33 68  1  0  0  0  0
 33 72  1  0  0  0  0
 34 73  1  0  0  0  0
 34 78  2  0  0  0  0
 35 51  1  0  0  0  0
 35 74  1  0  0  0  0
 35 79  2  0  0  0  0
 36 63  1  0  0  0  0
 36 70  1  0  0  0  0
 36 80  2  0  0  0  0
 37 64  1  0  0  0  0
 37 75  1  0  0  0  0
 37 81  2  0  0  0  0
 38 71  1  0  0  0  0
 38 76  1  0  0  0  0
 38 82  2  0  0  0  0
 39 42  1  0  0  0  0
 40 51  1  0  0  0  0
 41 70  1  0  0  0  0
 42 44  1  0  0  0  0
 43 45  1  0  0  0  0
 43 46  1  0  0  0  0
 44 50  1  0  0  0  0
 45 52  1  0  0  0  0
 46 71  1  0  0  0  0
 47 52  1  0  0  0  0
 47 71  1  0  0  0  0
 48 53  1  0  0  0  0
 48 69  1  0  0  0  0
 49 53  1  0  0  0  0
 49 69  1  0  0  0  0
 50 74  1  0  0  0  0
 51 70  1  0  0  0  0
 52 68  1  0  0  0  0
 53 84  1  0  0  0  0
 55 64  1  0  0  0  0
 56 65  1  0  0  0  0
 57 65  1  0  0  0  0
 58 66  1  0  0  0  0
 59 66  1  0  0  0  0
 60 66  1  0  0  0  0
 61 77  1  0  0  0  0
 62 76  1  0  0  0  0
 63 66  1  0  0  0  0
 63 75  1  0  0  0  0
 64 77  1  0  0  0  0
 65 76  1  0  0  0  0
 67 68  1  0  0  0  0
M  CHG  1  77   1
M  ISO  4  38 100  53 101  76 100  84 101
M  END
> <Batch ID>
0028

> <Smiles>
CNC(C)C(=O)NC(C(=O)N1Cc2cc([101O:1][101CH:1]3CN(c4cc(F)cc(C[100N:0](C(C)C)[100C:0](=O)N5CCCC(n6nc(-c7ccc(Oc8ccc(F)cc8F)cc7)c(C(N)=O)c6N)C5)c4C)C3)ccc2CC1C(=O)NC1CCCc2ccccc21)C(C)(C)C

> <Shape>
0.201

> <Color>
0.181

> <Negative vol penalty>
0.000

$$$$

  -OEChem-04042321313D

 84 93  0     1  0  0  0  0  0999 V2000
  -26.0404  -33.0794   13.2073 C   0  0  0  0  0  0  0  0  0  0  0  0
  -26.0973  -31.7054   13.4181 C   0  0  0  0  0  0  0  0  0  0  0  0
  -22.9872  -10.0310   19.9237 C   0  0  0  0  0  0  0  0  0  0  0  0
  -24.0702   -9.5202   22.0221 C   0  0  0  0  0  0  0  0  0  0  0  0
  -26.6767  -33.9465   14.0945 C   0  0  0  0  0  0  0  0  0  0  0  0
  -26.7917  -31.1977   14.5156 C   0  0  0  0  0  0  0  0  0  0  0  0
  -25.3478  -26.2446   17.8153 C   0  0  0  0  0  0  0  0  0  0  0  0
  -22.2737   -8.8349   20.0007 C   0  0  0  0  0  0  0  0  0  0  0  0
  -23.3567   -8.3241   22.0991 C   0  0  0  0  0  0  0  0  0  0  0  0
  -25.8121  -24.9303   17.7864 C   0  0  0  0  0  0  0  0  0  0  0  0
  -20.2402   -7.3354   22.9538 C   0  0  0  0  0  0  0  0  0  0  0  0
  -19.6598   -7.0066   24.1788 C   0  0  0  0  0  0  0  0  0  0  0  0
  -27.3560  -25.4429   19.5677 C   0  0  0  0  0  0  0  0  0  0  0  0
  -31.5530  -18.4589   20.7994 C   0  0  0  0  0  0  0  0  0  0  0  0
  -29.1318  -19.7162   21.3822 C   0  0  0  0  0  0  0  0  0  0  0  0
  -20.9717   -4.9792   24.2562 C   0  0  0  0  0  0  0  0  0  0  0  0
  -23.8855  -10.3736   20.9343 C   0  0  0  0  0  0  0  0  0  0  0  0
  -24.2360  -12.8642   21.3607 C   0  0  0  0  0  0  0  0  0  0  0  0
  -27.3711  -33.4497   15.2088 C   0  0  0  0  0  0  0  0  0  0  0  0
  -25.8927  -27.1724   18.7146 C   0  0  0  0  0  0  0  0  0  0  0  0
  -27.4391  -32.0590   15.4178 C   0  0  0  0  0  0  0  0  0  0  0  0
  -26.8951  -26.7677   19.6077 C   0  0  0  0  0  0  0  0  0  0  0  0
  -31.2331  -19.6724   20.1907 C   0  0  0  0  0  0  0  0  0  0  0  0
  -30.6623  -17.8739   21.6994 C   0  0  0  0  0  0  0  0  0  0  0  0
  -30.0226  -20.3011   20.4821 C   0  0  0  0  0  0  0  0  0  0  0  0
  -22.4584   -7.9815   21.0885 C   0  0  0  0  0  0  0  0  0  0  0  0
  -26.8183  -24.5300   18.6607 C   0  0  0  0  0  0  0  0  0  0  0  0
  -21.1863   -6.4861   22.3799 C   0  0  0  0  0  0  0  0  0  0  0  0
  -20.0255   -5.8285   24.8300 C   0  0  0  0  0  0  0  0  0  0  0  0
  -29.4517  -18.5026   21.9909 C   0  0  0  0  0  0  0  0  0  0  0  0
  -21.5521   -5.3081   23.0311 C   0  0  0  0  0  0  0  0  0  0  0  0
  -24.6232  -11.6087   20.8550 C   0  0  0  0  0  0  0  0  0  0  0  0
  -25.2730  -13.7021   21.0304 C   0  0  0  0  0  0  0  0  0  0  0  0
  -23.0454  -13.2394   22.0660 C   0  0  0  0  0  0  0  0  0  0  0  0
  -27.4768  -29.9129   18.4254 C   0  0  0  0  0  0  0  0  0  0  0  0
  -27.1539  -29.9898   21.6521 C   0  0  0  0  0  0  0  0  0  0  0  0
  -26.6872  -28.2639   24.5591 C   0  0  0  0  0  0  0  0  0  0  0  0
  -30.7380  -14.7722   20.6654 C   0  0  0  0  0  0  0  0  0  0  0  0
  -28.0832  -34.4236   16.1138 C   0  0  0  0  0  0  0  0  0  0  0  0
  -25.3623  -28.5794   18.7515 C   0  0  0  0  0  0  0  0  0  0  0  0
  -27.4990  -27.7199   20.6063 C   0  0  0  0  0  0  0  0  0  0  0  0
  -28.4820  -33.8243   17.4600 C   0  0  0  0  0  0  0  0  0  0  0  0
  -29.2399  -12.9849   17.9750 C   0  0  0  0  0  0  0  0  0  0  0  0
  -29.1347  -32.4596   17.2644 C   0  0  0  0  0  0  0  0  0  0  0  0
  -27.8767  -12.5661   18.5283 C   0  0  0  0  0  0  0  0  0  0  0  0
  -30.3233  -12.9402   19.0503 C   0  0  0  0  0  0  0  0  0  0  0  0
  -28.6504  -13.2849   20.8269 C   0  0  0  0  0  0  0  0  0  0  0  0
  -28.8769  -22.5408   20.4366 C   0  0  0  0  0  0  0  0  0  0  0  0
  -29.2682  -21.7139   18.5416 C   0  0  0  0  0  0  0  0  0  0  0  0
  -28.1615  -31.4712   16.6105 C   0  0  1  0  0  0  0  0  0  0  0  0
  -26.3479  -29.5738   19.3572 C   0  0  1  0  0  0  0  0  0  0  0  0
  -27.5144  -13.3678   19.7929 C   0  0  2  0  0  0  0  0  0  0  0  0
  -28.6356  -23.0347   19.0032 C   0  0  0  0  0  0  0  0  0  1  0  0
  -32.2057  -20.2767   19.2306 C   0  0  0  0  0  0  0  0  0  0  0  0
  -26.5054  -28.5961   27.0398 C   0  0  0  0  0  0  0  0  0  0  0  0
  -30.1766  -30.3707   21.8202 C   0  0  0  0  0  0  0  0  0  0  0  0
  -30.0504  -29.7479   24.2419 C   0  0  0  0  0  0  0  0  0  0  0  0
  -28.8578  -31.7764   23.4138 C   0  0  0  0  0  0  0  0  0  0  0  0
  -23.9373  -27.1717   24.6207 C   0  0  0  0  0  0  0  0  0  0  0  0
  -31.0069  -16.5761   22.3485 C   0  0  0  0  0  0  0  0  0  0  0  0
  -27.9668  -29.4860   22.8202 C   0  0  1  0  0  0  0  0  0  0  0  0
  -25.7449  -28.4937   25.7268 C   0  0  2  0  0  0  0  0  0  0  0  0
  -29.2531  -30.3276   23.0540 C   0  0  0  0  0  0  0  0  0  0  0  0
  -25.8132  -11.6415   20.2494 N   0  0  0  0  0  0  0  0  0  0  0  0
  -26.1827  -12.9278   20.3723 N   0  0  0  0  0  0  0  0  0  0  0  0
  -29.6873  -21.5112   19.8849 N   0  0  0  0  0  0  0  0  0  0  0  0
  -26.9512  -29.0864   20.5992 N   0  0  0  0  0  0  0  0  0  0  0  0
  -29.9185  -13.7212   20.2217 N   0  0  0  0  0  0  0  0  0  0  0  0
  -25.4862  -15.0183   21.2415 N   0  0  0  0  0  0  0  0  0  0  0  0
  -22.0822  -12.2541   22.3224 N   0  0  0  0  0  0  0  0  0  0  0  0
  -27.2122  -30.9773   17.5848 N   0  0  0  0  0  0  0  0  0  0  0  0
  -27.0605  -29.4498   23.9629 N   0  0  0  0  0  0  0  0  0  0  0  0
  -30.2776  -15.4654   21.7781 N   0  0  0  0  0  0  0  0  0  0  0  0
  -24.7702  -27.3715   25.8345 N   0  3  0  0  0  0  0  0  0  0  0  0
  -22.8344  -14.4171   22.4428 O   0  0  0  0  0  0  0  0  0  0  0  0
  -28.5120  -29.2583   18.4670 O   0  0  0  0  0  0  0  0  0  0  0  0
  -26.7090  -31.1400   21.6763 O   0  0  0  0  0  0  0  0  0  0  0  0
  -27.0583  -27.1445   24.2129 O   0  0  0  0  0  0  0  0  0  0  0  0
  -31.7986  -15.0741   20.1077 O   0  0  0  0  0  0  0  0  0  0  0  0
  -21.7622   -6.8144   21.1641 O   0  0  0  0  0  0  0  0  0  0  0  0
  -27.2738  -23.2480   18.6342 O   0  0  0  0  0  0  0  0  0  1  0  0
  -19.4692   -5.5136   26.0071 F   0  0  0  0  0  0  0  0  0  0  0  0
  -28.5894  -17.9480   22.8543 F   0  0  0  0  0  0  0  0  0  0  0  0
  -22.4613   -4.4888   22.4853 F   0  0  0  0  0  0  0  0  0  0  0  0
  1  2  1  0  0  0  0
  1  5  2  0  0  0  0
  2  6  2  0  0  0  0
  3  8  2  0  0  0  0
  3 17  1  0  0  0  0
  4  9  1  0  0  0  0
  4 17  2  0  0  0  0
  5 19  1  0  0  0  0
  6 21  1  0  0  0  0
  7 10  2  0  0  0  0
  7 20  1  0  0  0  0
  8 26  1  0  0  0  0
  9 26  2  0  0  0  0
 10 27  1  0  0  0  0
 11 12  2  0  0  0  0
 11 28  1  0  0  0  0
 12 29  1  0  0  0  0
 13 22  1  0  0  0  0
 13 27  2  0  0  0  0
 14 23  1  0  0  0  0
 14 24  2  0  0  0  0
 15 25  1  0  0  0  0
 15 30  2  0  0  0  0
 16 29  2  0  0  0  0
 16 31  1  0  0  0  0
 17 32  1  0  0  0  0
 18 32  1  0  0  0  0
 18 33  2  0  0  0  0
 18 34  1  0  0  0  0
 19 21  2  0  0  0  0
 19 39  1  0  0  0  0
 20 22  2  0  0  0  0
 20 40  1  0  0  0  0
 21 50  1  0  0  0  0
 22 41  1  0  0  0  0
 23 25  2  0  0  0  0
 23 54  1  0  0  0  0
 24 30  1  0  0  0  0
 24 60  1  0  0  0  0
 25 66  1  0  0  0  0
 26 80  1  0  0  0  0
 27 81  1  0  0  0  0
 28 31  2  0  0  0  0
 28 80  1  0  0  0  0
 29 82  1  0  0  0  0
 30 83  1  0  0  0  0
 31 84  1  0  0  0  0
 32 64  2  0  0  0  0
 33 65  1  0  0  0  0
 33 69  1  0  0  0  0
 34 70  1  0  0  0  0
 34 75  2  0  0  0  0
 35 51  1  0  0  0  0
 35 71  1  0  0  0  0
 35 76  2  0  0  0  0
 36 61  1  0  0  0  0
 36 67  1  0  0  0  0
 36 77  2  0  0  0  0
 37 62  1  0  0  0  0
 37 72  1  0  0  0  0
 37 78  2  0  0  0  0
 38 68  1  0  0  0  0
 38 73  1  0  0  0  0
 38 79  2  0  0  0  0
 39 42  1  0  0  0  0
 40 51  1  0  0  0  0
 41 67  1  0  0  0  0
 42 44  1  0  0  0  0
 43 45  1  0  0  0  0
 43 46  1  0  0  0  0
 44 50  1  0  0  0  0
 45 52  1  0  0  0  0
 46 68  1  0  0  0  0
 47 52  1  0  0  0  0
 47 68  1  0  0  0  0
 48 53  1  0  0  0  0
 48 66  1  0  0  0  0
 49 53  1  0  0  0  0
 49 66  1  0  0  0  0
 50 71  1  0  0  0  0
 51 67  1  0  0  0  0
 52 65  1  0  0  0  0
 53 81  1  0  0  0  0
 55 62  1  0  0  0  0
 56 63  1  0  0  0  0
 57 63  1  0  0  0  0
 58 63  1  0  0  0  0
 59 74  1  0  0  0  0
 60 73  1  0  0  0  0
 61 63  1  0  0  0  0
 61 72  1  0  0  0  0
 62 74  1  0  0  0  0
 64 65  1  0  0  0  0
M  CHG  1  74   1
M  ISO  4  38 100  53 101  73 100  81 101
M  END
> <Batch ID>
0028

> <Smiles>
CNC(C)C(=O)NC(C(=O)N1Cc2cc([101O:1][101CH:1]3CN(c4cc(F)c(C[100NH:0][100C:0](=O)N5CCCC(n6nc(-c7ccc(Oc8ccc(F)cc8F)cc7)c(C(N)=O)c6N)C5)cc4C)C3)ccc2CC1C(=O)NC1CCCc2ccccc21)C(C)(C)C

> <Shape>
0.285

> <Color>
0.167

> <Negative vol penalty>
0.000

$$$$

  -OEChem-04042321313D

 87 95  0     1  0  0  0  0  0999 V2000
  -27.1284  -23.5492   18.2620 C   0  0  0  0  0  0  0  0  0  0  0  0
  -25.9766  -23.9966   18.9012 C   0  0  0  0  0  0  0  0  0  0  0  0
  -28.3126  -14.5817   20.7862 C   0  0  0  0  0  0  0  0  0  0  0  0
  -26.2381  -15.3390   19.8063 C   0  0  0  0  0  0  0  0  0  0  0  0
  -28.3792  -23.9884   18.6938 C   0  0  0  0  0  0  0  0  0  0  0  0
  -26.0751  -24.8828   19.9733 C   0  0  0  0  0  0  0  0  0  0  0  0
  -22.7318  -28.6745   19.6730 C   0  0  0  0  0  0  0  0  0  0  0  0
  -27.8079  -13.2830   20.8511 C   0  0  0  0  0  0  0  0  0  0  0  0
  -25.7333  -14.0403   19.8712 C   0  0  0  0  0  0  0  0  0  0  0  0
  -21.4155  -28.3930   20.0360 C   0  0  0  0  0  0  0  0  0  0  0  0
  -24.0305  -10.8563   19.4461 C   0  0  0  0  0  0  0  0  0  0  0  0
  -23.3619  -10.3628   18.3259 C   0  0  0  0  0  0  0  0  0  0  0  0
  -21.8023  -29.3972   22.1949 C   0  0  0  0  0  0  0  0  0  0  0  0
  -23.0665  -22.6059   21.6245 C   0  0  0  0  0  0  0  0  0  0  0  0
  -23.6016  -23.5189   23.7963 C   0  0  0  0  0  0  0  0  0  0  0  0
  -25.3581  -10.6689   16.9997 C   0  0  0  0  0  0  0  0  0  0  0  0
  -27.5277  -15.6097   20.2638 C   0  0  0  0  0  0  0  0  0  0  0  0
  -21.3787  -23.7852   22.8883 C   0  0  0  0  0  0  0  0  0  0  0  0
  -28.7631  -17.5342   19.1334 C   0  0  0  0  0  0  0  0  0  0  0  0
  -28.4926  -24.8879   19.7655 C   0  0  0  0  0  0  0  0  0  0  0  0
  -23.5979  -29.3108   20.5738 C   0  0  0  0  0  0  0  0  0  0  0  0
  -27.3287  -25.3334   20.4207 C   0  0  0  0  0  0  0  0  0  0  0  0
  -23.1285  -29.6880   21.8400 C   0  0  0  0  0  0  0  0  0  0  0  0
  -21.7629  -23.0877   21.7431 C   0  0  0  0  0  0  0  0  0  0  0  0
  -23.9859  -22.8214   22.6511 C   0  0  0  0  0  0  0  0  0  0  0  0
  -26.5183  -13.0123   20.3936 C   0  0  0  0  0  0  0  0  0  0  0  0
  -20.9514  -28.7517   21.2981 C   0  0  0  0  0  0  0  0  0  0  0  0
  -25.3629  -11.2561   19.3432 C   0  0  0  0  0  0  0  0  0  0  0  0
  -24.0257  -10.2691   17.1026 C   0  0  0  0  0  0  0  0  0  0  0  0
  -22.2980  -24.0008   23.9149 C   0  0  0  0  0  0  0  0  0  0  0  0
  -26.0267  -11.1624   18.1200 C   0  0  0  0  0  0  0  0  0  0  0  0
  -28.0482  -16.9516   20.1971 C   0  0  0  0  0  0  0  0  0  0  0  0
  -29.0285  -18.8132   19.5578 C   0  0  0  0  0  0  0  0  0  0  0  0
  -19.9957  -24.3069   23.0371 C   0  0  0  0  0  0  0  0  0  0  0  0
  -29.1523  -16.9696   17.8742 C   0  0  0  0  0  0  0  0  0  0  0  0
  -26.3296  -28.5232   21.9955 C   0  0  0  0  0  0  0  0  0  0  0  0
  -26.2213  -31.5935   23.0364 C   0  0  0  0  0  0  0  0  0  0  0  0
  -24.3342  -34.3463   23.7491 C   0  0  0  0  0  0  0  0  0  0  0  0
  -26.3450  -22.4598   23.4573 C   0  0  0  0  0  0  0  0  0  0  0  0
  -29.8688  -25.2977   20.2269 C   0  0  0  0  0  0  0  0  0  0  0  0
  -25.0072  -29.6315   20.1573 C   0  0  0  0  0  0  0  0  0  0  0  0
  -24.0123  -30.3912   22.8364 C   0  0  0  0  0  0  0  0  0  0  0  0
  -29.8671  -26.5286   21.1297 C   0  0  0  0  0  0  0  0  0  0  0  0
  -29.7315  -21.3641   23.5494 C   0  0  0  0  0  0  0  0  0  0  0  0
  -28.7885  -26.4034   22.2011 C   0  0  0  0  0  0  0  0  0  0  0  0
  -29.7505  -20.1649   22.5987 C   0  0  0  0  0  0  0  0  0  0  0  0
  -28.4289  -21.4371   24.3442 C   0  0  0  0  0  0  0  0  0  0  0  0
  -27.2237  -20.2060   22.5832 C   0  0  0  0  0  0  0  0  0  0  0  0
  -27.3932  -26.3142   21.5714 C   0  0  1  0  0  0  0  0  0  0  0  0
  -25.9514  -29.8215   21.3405 C   0  0  1  0  0  0  0  0  0  0  0  0
  -28.4892  -20.1273   21.7137 C   0  0  2  0  0  0  0  0  0  0  0  0
  -20.7989  -22.8429   20.6282 C   0  0  0  0  0  0  0  0  0  0  0  0
  -24.5227  -36.6923   24.6197 C   0  0  0  0  0  0  0  0  0  0  0  0
  -26.5519  -30.5127   25.8706 C   0  0  0  0  0  0  0  0  0  0  0  0
  -25.7898  -32.7362   26.7328 C   0  0  0  0  0  0  0  0  0  0  0  0
  -27.8789  -32.5747   25.3791 C   0  0  0  0  0  0  0  0  0  0  0  0
  -16.8747  -27.8546   22.3224 C   0  0  0  0  0  0  0  0  0  0  0  0
  -17.2526  -25.5640   21.3689 C   0  0  0  0  0  0  0  0  0  0  0  0
  -23.2765  -35.4889   21.2322 C   0  0  0  0  0  0  0  0  0  0  0  0
  -18.6057  -26.3345   23.3732 C   0  0  0  0  0  0  0  0  0  0  0  0
  -19.0071  -27.3219   21.0876 C   0  0  0  0  0  0  0  0  0  1  0  0
  -25.6392  -32.2944   24.2401 C   0  0  1  0  0  0  0  0  0  0  0  0
  -24.5075  -35.8090   23.3818 C   0  0  2  0  0  0  0  0  0  0  0  0
  -26.4486  -32.0145   25.5378 C   0  0  0  0  0  0  0  0  0  0  0  0
  -17.9311  -26.7669   22.0495 C   0  0  0  0  0  0  0  0  0  0  0  0
  -27.8710  -17.7916   21.2203 N   0  0  0  0  0  0  0  0  0  0  0  0
  -28.4783  -18.9149   20.8016 N   0  0  0  0  0  0  0  0  0  0  0  0
  -25.3840  -30.6771   22.3846 N   0  0  0  0  0  0  0  0  0  0  0  0
  -27.2774  -21.4009   23.4400 N   0  0  0  0  0  0  0  0  0  0  0  0
  -29.6767  -19.8495   18.9847 N   0  0  0  0  0  0  0  0  0  0  0  0
  -28.7982  -15.6417   17.5993 N   0  0  0  0  0  0  0  0  0  0  0  0
  -25.3102  -22.3320   22.5313 N   0  0  0  0  0  0  0  0  0  0  0  0
  -19.8752  -25.6823   23.1934 N   0  0  0  0  0  0  0  0  0  0  0  0
  -26.9456  -27.6233   21.1468 N   0  0  0  0  0  0  0  0  0  0  0  0
  -25.5480  -33.7067   23.8857 N   0  0  0  0  0  0  0  0  0  0  0  0
  -23.3939  -36.2568   22.4985 N   0  3  0  0  0  0  0  0  0  0  0  0
  -19.0537  -23.5188   23.0356 O   0  0  0  0  0  0  0  0  0  0  0  0
  -29.8092  -17.6182   17.0249 O   0  0  0  0  0  0  0  0  0  0  0  0
  -26.0823  -28.3512   23.1833 O   0  0  0  0  0  0  0  0  0  0  0  0
  -27.3740  -31.8550   22.6832 O   0  0  0  0  0  0  0  0  0  0  0  0
  -23.2322  -33.8243   23.9033 O   0  0  0  0  0  0  0  0  0  0  0  0
  -26.4713  -23.4233   24.2174 O   0  0  0  0  0  0  0  0  0  0  0  0
  -26.0255  -11.7451   20.4565 O   0  0  0  0  0  0  0  0  0  0  0  0
  -19.6672  -28.4775   21.6552 O   0  0  0  0  0  0  0  0  0  1  0  0
  -23.3839   -9.7938   16.0273 F   0  0  0  0  0  0  0  0  0  0  0  0
  -21.9408  -24.6694   25.0208 F   0  0  0  0  0  0  0  0  0  0  0  0
  -27.3071  -11.5438   18.0153 F   0  0  0  0  0  0  0  0  0  0  0  0
  1  2  1  0  0  0  0
  1  5  2  0  0  0  0
  2  6  2  0  0  0  0
  3  8  2  0  0  0  0
  3 17  1  0  0  0  0
  4  9  1  0  0  0  0
  4 17  2  0  0  0  0
  5 20  1  0  0  0  0
  6 22  1  0  0  0  0
  7 10  2  0  0  0  0
  7 21  1  0  0  0  0
  8 26  1  0  0  0  0
  9 26  2  0  0  0  0
 10 27  1  0  0  0  0
 11 12  2  0  0  0  0
 11 28  1  0  0  0  0
 12 29  1  0  0  0  0
 13 23  1  0  0  0  0
 13 27  2  0  0  0  0
 14 24  2  0  0  0  0
 14 25  1  0  0  0  0
 15 25  2  0  0  0  0
 15 30  1  0  0  0  0
 16 29  2  0  0  0  0
 16 31  1  0  0  0  0
 17 32  1  0  0  0  0
 18 24  1  0  0  0  0
 18 30  2  0  0  0  0
 18 34  1  0  0  0  0
 19 32  1  0  0  0  0
 19 33  2  0  0  0  0
 19 35  1  0  0  0  0
 20 22  2  0  0  0  0
 20 40  1  0  0  0  0
 21 23  2  0  0  0  0
 21 41  1  0  0  0  0
 22 49  1  0  0  0  0
 23 42  1  0  0  0  0
 24 52  1  0  0  0  0
 25 72  1  0  0  0  0
 26 83  1  0  0  0  0
 27 84  1  0  0  0  0
 28 31  2  0  0  0  0
 28 83  1  0  0  0  0
 29 85  1  0  0  0  0
 30 86  1  0  0  0  0
 31 87  1  0  0  0  0
 32 66  2  0  0  0  0
 33 67  1  0  0  0  0
 33 70  1  0  0  0  0
 34 73  1  0  0  0  0
 34 77  2  0  0  0  0
 35 71  1  0  0  0  0
 35 78  2  0  0  0  0
 36 50  1  0  0  0  0
 36 74  1  0  0  0  0
 36 79  2  0  0  0  0
 37 62  1  0  0  0  0
 37 68  1  0  0  0  0
 37 80  2  0  0  0  0
 38 63  1  0  0  0  0
 38 75  1  0  0  0  0
 38 81  2  0  0  0  0
 39 69  1  0  0  0  0
 39 72  1  0  0  0  0
 39 82  2  0  0  0  0
 40 43  1  0  0  0  0
 41 50  1  0  0  0  0
 42 68  1  0  0  0  0
 43 45  1  0  0  0  0
 44 46  1  0  0  0  0
 44 47  1  0  0  0  0
 45 49  1  0  0  0  0
 46 51  1  0  0  0  0
 47 69  1  0  0  0  0
 48 51  1  0  0  0  0
 48 69  1  0  0  0  0
 49 74  1  0  0  0  0
 50 68  1  0  0  0  0
 51 67  1  0  0  0  0
 53 63  1  0  0  0  0
 54 64  1  0  0  0  0
 55 64  1  0  0  0  0
 56 64  1  0  0  0  0
 57 65  1  0  0  0  0
 58 65  1  0  0  0  0
 59 76  1  0  0  0  0
 60 65  1  0  0  0  0
 60 73  1  0  0  0  0
 61 65  1  0  0  0  0
 61 84  1  0  0  0  0
 62 64  1  0  0  0  0
 62 75  1  0  0  0  0
 63 76  1  0  0  0  0
 66 67  1  0  0  0  0
M  CHG  1  76   1
M  ISO  4  39 100  61 101  72 100  84 101
M  END
> <Batch ID>
0028

> <Smiles>
CNC(C)C(=O)NC(C(=O)N1Cc2cc([101O:1][101CH2:1]C(C)(C)CNC(=O)c3c(C)cc([100NH:0][100C:0](=O)N4CCCC(n5nc(-c6ccc(Oc7ccc(F)cc7F)cc6)c(C(N)=O)c5N)C4)cc3F)ccc2CC1C(=O)NC1CCCc2ccccc21)C(C)(C)C

> <Shape>
0.281

> <Color>
0.064

> <Negative vol penalty>
0.000

$$$$

  -OEChem-04042321313D

 84 93  0     1  0  0  0  0  0999 V2000
  -32.5028  -33.6832   20.7887 C   0  0  0  0  0  0  0  0  0  0  0  0
  -32.3021  -32.3164   20.6248 C   0  0  0  0  0  0  0  0  0  0  0  0
  -29.0389  -18.1736   17.4898 C   0  0  0  0  0  0  0  0  0  0  0  0
  -23.0018   -9.9763   19.8994 C   0  0  0  0  0  0  0  0  0  0  0  0
  -24.2146   -9.5986   21.9545 C   0  0  0  0  0  0  0  0  0  0  0  0
  -31.5365  -34.4564   21.4308 C   0  0  0  0  0  0  0  0  0  0  0  0
  -31.1355  -31.7217   21.1041 C   0  0  0  0  0  0  0  0  0  0  0  0
  -28.0870  -27.0432   18.5893 C   0  0  0  0  0  0  0  0  0  0  0  0
  -29.0419  -17.1888   18.4775 C   0  0  0  0  0  0  0  0  0  0  0  0
  -29.0151  -19.5213   17.8488 C   0  0  0  0  0  0  0  0  0  0  0  0
  -22.3515   -8.7526   20.0583 C   0  0  0  0  0  0  0  0  0  0  0  0
  -23.5642   -8.3749   22.1135 C   0  0  0  0  0  0  0  0  0  0  0  0
  -28.0750  -25.6762   18.8627 C   0  0  0  0  0  0  0  0  0  0  0  0
  -20.5469   -7.2782   23.1685 C   0  0  0  0  0  0  0  0  0  0  0  0
  -20.0467   -6.9713   24.4339 C   0  0  0  0  0  0  0  0  0  0  0  0
  -26.1169  -25.9749   20.2396 C   0  0  0  0  0  0  0  0  0  0  0  0
  -21.4567   -5.0111   24.5159 C   0  0  0  0  0  0  0  0  0  0  0  0
  -23.9334  -10.3993   20.8475 C   0  0  0  0  0  0  0  0  0  0  0  0
  -24.1854  -12.9182   21.1627 C   0  0  0  0  0  0  0  0  0  0  0  0
  -30.3531  -33.8726   21.9096 C   0  0  0  0  0  0  0  0  0  0  0  0
  -27.1188  -27.8895   19.1486 C   0  0  0  0  0  0  0  0  0  0  0  0
  -30.1531  -32.4876   21.7544 C   0  0  0  0  0  0  0  0  0  0  0  0
  -26.1173  -27.3519   19.9696 C   0  0  0  0  0  0  0  0  0  0  0  0
  -29.0209  -17.5515   19.8242 C   0  0  0  0  0  0  0  0  0  0  0  0
  -28.9941  -19.8841   19.1955 C   0  0  0  0  0  0  0  0  0  0  0  0
  -22.6327   -7.9519   21.1653 C   0  0  0  0  0  0  0  0  0  0  0  0
  -27.0916  -25.1422   19.6903 C   0  0  0  0  0  0  0  0  0  0  0  0
  -21.5019   -6.4515   22.5768 C   0  0  0  0  0  0  0  0  0  0  0  0
  -20.5016   -5.8378   25.1076 C   0  0  0  0  0  0  0  0  0  0  0  0
  -21.9568   -5.3180   23.2505 C   0  0  0  0  0  0  0  0  0  0  0  0
  -28.9970  -18.8992   20.1832 C   0  0  0  0  0  0  0  0  0  0  0  0
  -24.6059  -11.6630   20.6837 C   0  0  0  0  0  0  0  0  0  0  0  0
  -25.1626  -13.7893   20.7471 C   0  0  0  0  0  0  0  0  0  0  0  0
  -23.0160  -13.2656   21.9161 C   0  0  0  0  0  0  0  0  0  0  0  0
  -27.1866  -30.3756   21.1281 C   0  0  0  0  0  0  0  0  0  0  0  0
  -24.0206  -30.5165   20.4361 C   0  0  0  0  0  0  0  0  0  0  0  0
  -21.2094  -28.8914   19.3856 C   0  0  0  0  0  0  0  0  0  0  0  0
  -30.7586  -14.7212   20.3810 C   0  0  0  0  0  0  0  0  0  0  0  0
  -29.3588  -34.7409   22.6392 C   0  0  0  0  0  0  0  0  0  0  0  0
  -27.1296  -29.3578   18.8223 C   0  0  0  0  0  0  0  0  0  0  0  0
  -25.0432  -28.2145   20.5786 C   0  0  0  0  0  0  0  0  0  0  0  0
  -27.9815  -34.0990   22.7853 C   0  0  0  0  0  0  0  0  0  0  0  0
  -28.9962  -13.1683   17.5202 C   0  0  0  0  0  0  0  0  0  0  0  0
  -28.1132  -32.6542   23.2568 C   0  0  0  0  0  0  0  0  0  0  0  0
  -27.6946  -12.6818   18.1551 C   0  0  0  0  0  0  0  0  0  0  0  0
  -30.1389  -13.2105   18.5302 C   0  0  0  0  0  0  0  0  0  0  0  0
  -28.5336  -13.5201   20.3853 C   0  0  0  0  0  0  0  0  0  0  0  0
  -28.3806  -21.7949   20.7132 C   0  0  0  0  0  0  0  0  0  0  0  0
  -28.6825  -22.3313   18.7010 C   0  0  0  0  0  0  0  0  0  0  0  0
  -28.8894  -31.8102   22.2386 C   0  0  1  0  0  0  0  0  0  0  0  0
  -26.3997  -30.2057   19.8594 C   0  0  1  0  0  0  0  0  0  0  0  0
  -27.3509  -13.5102   19.4053 C   0  0  2  0  0  0  0  0  0  0  0  0
  -28.3355  -23.1337   19.9633 C   0  0  0  0  0  0  0  0  0  1  0  0
  -18.7645  -29.2607   18.9575 C   0  0  0  0  0  0  0  0  0  0  0  0
  -23.4893  -30.4654   23.4403 C   0  0  0  0  0  0  0  0  0  0  0  0
  -21.1071  -29.8810   22.9386 C   0  0  0  0  0  0  0  0  0  0  0  0
  -22.0486  -32.0534   22.1530 C   0  0  0  0  0  0  0  0  0  0  0  0
  -31.3303  -16.7047   21.7294 C   0  0  0  0  0  0  0  0  0  0  0  0
  -21.4880  -28.2011   16.5212 C   0  0  0  0  0  0  0  0  0  0  0  0
  -29.0246  -16.4958   20.8776 C   0  0  0  0  0  0  0  0  0  0  0  0
  -22.7697  -29.9092   21.0239 C   0  0  1  0  0  0  0  0  0  0  0  0
  -20.1598  -29.2596   18.3526 C   0  0  2  0  0  0  0  0  0  0  0  0
  -22.3749  -30.5610   22.3792 C   0  0  0  0  0  0  0  0  0  0  0  0
  -25.7603  -11.7267   20.0148 N   0  0  0  0  0  0  0  0  0  0  0  0
  -26.0734  -13.0325   20.0704 N   0  0  0  0  0  0  0  0  0  0  0  0
  -28.9706  -21.2283   19.5504 N   0  0  0  0  0  0  0  0  0  0  0  0
  -25.1002  -29.6449   20.2348 N   0  0  0  0  0  0  0  0  0  0  0  0
  -29.7701  -13.9676   19.7269 N   0  0  0  0  0  0  0  0  0  0  0  0
  -25.3230  -15.1212   20.8980 N   0  0  0  0  0  0  0  0  0  0  0  0
  -22.1157  -12.2479   22.2595 N   0  0  0  0  0  0  0  0  0  0  0  0
  -28.0407  -31.4618   21.1193 N   0  0  0  0  0  0  0  0  0  0  0  0
  -21.7436  -30.0089   19.9916 N   0  0  0  0  0  0  0  0  0  0  0  0
  -30.3408  -15.8838   21.0463 N   0  0  0  0  0  0  0  0  0  0  0  0
  -20.1815  -28.2878   17.2230 N   0  3  0  0  0  0  0  0  0  0  0  0
  -22.7683  -14.4462   22.2600 O   0  0  0  0  0  0  0  0  0  0  0  0
  -27.0293  -29.5809   22.0476 O   0  0  0  0  0  0  0  0  0  0  0  0
  -24.0367  -31.7184   20.1589 O   0  0  0  0  0  0  0  0  0  0  0  0
  -21.5215  -27.7287   19.6330 O   0  0  0  0  0  0  0  0  0  0  0  0
  -31.9481  -14.3798   20.3629 O   0  0  0  0  0  0  0  0  0  0  0  0
  -21.9981   -6.7579   21.3208 O   0  0  0  0  0  0  0  0  0  0  0  0
  -27.0780  -23.8083   19.9594 O   0  0  0  0  0  0  0  0  0  1  0  0
  -20.0223   -5.5441   26.3234 F   0  0  0  0  0  0  0  0  0  0  0  0
  -22.8751   -4.5206   22.6876 F   0  0  0  0  0  0  0  0  0  0  0  0
  -28.9776  -19.2474   21.4787 F   0  0  0  0  0  0  0  0  0  0  0  0
  1  2  1  0  0  0  0
  1  6  2  0  0  0  0
  2  7  2  0  0  0  0
  3  9  1  0  0  0  0
  3 10  2  0  0  0  0
  4 11  2  0  0  0  0
  4 18  1  0  0  0  0
  5 12  1  0  0  0  0
  5 18  2  0  0  0  0
  6 20  1  0  0  0  0
  7 22  1  0  0  0  0
  8 13  2  0  0  0  0
  8 21  1  0  0  0  0
  9 24  2  0  0  0  0
 10 25  1  0  0  0  0
 11 26  1  0  0  0  0
 12 26  2  0  0  0  0
 13 27  1  0  0  0  0
 14 15  2  0  0  0  0
 14 28  1  0  0  0  0
 15 29  1  0  0  0  0
 16 23  1  0  0  0  0
 16 27  2  0  0  0  0
 17 29  2  0  0  0  0
 17 30  1  0  0  0  0
 18 32  1  0  0  0  0
 19 32  1  0  0  0  0
 19 33  2  0  0  0  0
 19 34  1  0  0  0  0
 20 22  2  0  0  0  0
 20 39  1  0  0  0  0
 21 23  2  0  0  0  0
 21 40  1  0  0  0  0
 22 50  1  0  0  0  0
 23 41  1  0  0  0  0
 24 31  1  0  0  0  0
 24 60  1  0  0  0  0
 25 31  2  0  0  0  0
 25 66  1  0  0  0  0
 26 80  1  0  0  0  0
 27 81  1  0  0  0  0
 28 30  2  0  0  0  0
 28 80  1  0  0  0  0
 29 82  1  0  0  0  0
 30 83  1  0  0  0  0
 31 84  1  0  0  0  0
 32 64  2  0  0  0  0
 33 65  1  0  0  0  0
 33 69  1  0  0  0  0
 34 70  1  0  0  0  0
 34 75  2  0  0  0  0
 35 51  1  0  0  0  0
 35 71  1  0  0  0  0
 35 76  2  0  0  0  0
 36 61  1  0  0  0  0
 36 67  1  0  0  0  0
 36 77  2  0  0  0  0
 37 62  1  0  0  0  0
 37 72  1  0  0  0  0
 37 78  2  0  0  0  0
 38 68  1  0  0  0  0
 38 73  1  0  0  0  0
 38 79  2  0  0  0  0
 39 42  1  0  0  0  0
 40 51  1  0  0  0  0
 41 67  1  0  0  0  0
 42 44  1  0  0  0  0
 43 45  1  0  0  0  0
 43 46  1  0  0  0  0
 44 50  1  0  0  0  0
 45 52  1  0  0  0  0
 46 68  1  0  0  0  0
 47 52  1  0  0  0  0
 47 68  1  0  0  0  0
 48 53  1  0  0  0  0
 48 66  1  0  0  0  0
 49 53  1  0  0  0  0
 49 66  1  0  0  0  0
 50 71  1  0  0  0  0
 51 67  1  0  0  0  0
 52 65  1  0  0  0  0
 53 81  1  0  0  0  0
 54 62  1  0  0  0  0
 55 63  1  0  0  0  0
 56 63  1  0  0  0  0
 57 63  1  0  0  0  0
 58 73  1  0  0  0  0
 59 74  1  0  0  0  0
 60 73  1  0  0  0  0
 61 63  1  0  0  0  0
 61 72  1  0  0  0  0
 62 74  1  0  0  0  0
 64 65  1  0  0  0  0
M  CHG  1  74   1
M  ISO  4  38 100  53 101  73 100  81 101
M  END
> <Batch ID>
0028

> <Smiles>
CNC(C)C(=O)NC(C(=O)N1Cc2cc([101O:1][101CH:1]3CN(c4cccc(C[100N:0](C)[100C:0](=O)N5CCCC(n6nc(-c7ccc(Oc8ccc(F)cc8F)cc7)c(C(N)=O)c6N)C5)c4F)C3)ccc2CC1C(=O)NC1CCCc2ccccc21)C(C)(C)C

> <Shape>
0.348

> <Color>
0.173

> <Negative vol penalty>
0.000

$$$$

  -OEChem-04042321313D

 85 94  0     1  0  0  0  0  0999 V2000
  -27.1156  -29.2999   27.9896 C   0  0  0  0  0  0  0  0  0  0  0  0
  -27.5988  -28.3831   27.0615 C   0  0  0  0  0  0  0  0  0  0  0  0
  -23.0563   -9.9304   19.8881 C   0  0  0  0  0  0  0  0  0  0  0  0
  -23.8718   -9.8003   22.1585 C   0  0  0  0  0  0  0  0  0  0  0  0
  -25.8492  -29.8585   27.8217 C   0  0  0  0  0  0  0  0  0  0  0  0
  -26.8154  -28.0235   25.9654 C   0  0  0  0  0  0  0  0  0  0  0  0
  -28.7762  -26.6787   20.3216 C   0  0  0  0  0  0  0  0  0  0  0  0
  -22.3158   -8.7652   20.0872 C   0  0  0  0  0  0  0  0  0  0  0  0
  -23.1313   -8.6351   22.3577 C   0  0  0  0  0  0  0  0  0  0  0  0
  -29.0141  -25.4665   19.6753 C   0  0  0  0  0  0  0  0  0  0  0  0
  -19.9169   -7.8062   22.9906 C   0  0  0  0  0  0  0  0  0  0  0  0
  -19.1886   -7.6976   24.1752 C   0  0  0  0  0  0  0  0  0  0  0  0
  -26.8142  -25.5668   18.6905 C   0  0  0  0  0  0  0  0  0  0  0  0
  -29.3886  -18.6439   21.2050 C   0  0  0  0  0  0  0  0  0  0  0  0
  -31.3869  -19.4902   19.4519 C   0  0  0  0  0  0  0  0  0  0  0  0
  -20.4427   -5.7185   24.7647 C   0  0  0  0  0  0  0  0  0  0  0  0
  -23.8343  -10.4479   20.9237 C   0  0  0  0  0  0  0  0  0  0  0  0
  -24.1794  -12.9754   20.9455 C   0  0  0  0  0  0  0  0  0  0  0  0
  -25.0538  -29.5128   26.7178 C   0  0  0  0  0  0  0  0  0  0  0  0
  -27.5494  -27.3398   20.1656 C   0  0  0  0  0  0  0  0  0  0  0  0
  -25.5366  -28.5770   25.7833 C   0  0  0  0  0  0  0  0  0  0  0  0
  -26.5642  -26.7885   19.3339 C   0  0  0  0  0  0  0  0  0  0  0  0
  -29.1616  -19.7312   20.3614 C   0  0  0  0  0  0  0  0  0  0  0  0
  -30.6149  -17.9797   21.1721 C   0  0  0  0  0  0  0  0  0  0  0  0
  -30.1607  -20.1544   19.4848 C   0  0  0  0  0  0  0  0  0  0  0  0
  -22.3533   -8.1176   21.3220 C   0  0  0  0  0  0  0  0  0  0  0  0
  -28.0320  -24.9089   18.8619 C   0  0  0  0  0  0  0  0  0  0  0  0
  -20.9080   -6.8710   22.6929 C   0  0  0  0  0  0  0  0  0  0  0  0
  -19.4515   -6.6537   25.0623 C   0  0  0  0  0  0  0  0  0  0  0  0
  -31.6140  -18.4029   20.2956 C   0  0  0  0  0  0  0  0  0  0  0  0
  -21.1710   -5.8272   23.5800 C   0  0  0  0  0  0  0  0  0  0  0  0
  -24.5999  -11.6512   20.7184 C   0  0  0  0  0  0  0  0  0  0  0  0
  -25.2642  -13.7440   20.6008 C   0  0  0  0  0  0  0  0  0  0  0  0
  -22.9208  -13.4667   21.4253 C   0  0  0  0  0  0  0  0  0  0  0  0
  -25.1952  -28.1911   22.1244 C   0  0  0  0  0  0  0  0  0  0  0  0
  -24.0453  -29.6633   19.4725 C   0  0  0  0  0  0  0  0  0  0  0  0
  -23.9543  -29.8386   16.0655 C   0  0  0  0  0  0  0  0  0  0  0  0
  -30.7535  -14.7444   20.7151 C   0  0  0  0  0  0  0  0  0  0  0  0
  -23.6723  -30.1072   26.6040 C   0  0  0  0  0  0  0  0  0  0  0  0
  -27.3184  -28.6599   20.8484 C   0  0  0  0  0  0  0  0  0  0  0  0
  -25.2379  -27.4685   19.1173 C   0  0  0  0  0  0  0  0  0  0  0  0
  -23.0569  -29.9564   25.2152 C   0  0  0  0  0  0  0  0  0  0  0  0
  -29.5521  -12.5071   18.2195 C   0  0  0  0  0  0  0  0  0  0  0  0
  -23.2400  -28.5317   24.7019 C   0  0  0  0  0  0  0  0  0  0  0  0
  -28.1249  -12.1897   18.6693 C   0  0  0  0  0  0  0  0  0  0  0  0
  -29.6437  -22.4920   16.6798 C   0  0  0  0  0  0  0  0  0  0  0  0
  -30.4988  -12.6552   19.4086 C   0  0  0  0  0  0  0  0  0  0  0  0
  -29.4028  -21.1142   17.2964 C   0  0  0  0  0  0  0  0  0  0  0  0
  -28.6332  -13.3046   20.8823 C   0  0  0  0  0  0  0  0  0  0  0  0
  -30.2542  -22.6152   18.9971 C   0  0  0  0  0  0  0  0  0  0  0  0
  -24.7267  -28.1804   24.5680 C   0  0  1  0  0  0  0  0  0  0  0  0
  -25.8396  -28.9897   21.0269 C   0  0  1  0  0  0  0  0  0  0  0  0
  -27.6302  -13.2013   19.7205 C   0  0  2  0  0  0  0  0  0  0  0  0
  -29.6079  -23.4300   17.8776 C   0  0  2  0  0  0  0  0  0  1  0  0
  -27.8390  -20.4242   20.4173 C   0  0  0  0  0  0  0  0  0  0  0  0
  -22.8953  -31.1215   14.1866 C   0  0  0  0  0  0  0  0  0  0  0  0
  -21.4265  -28.1653   19.9289 C   0  0  0  0  0  0  0  0  0  0  0  0
  -20.7781  -28.7234   17.5759 C   0  0  0  0  0  0  0  0  0  0  0  0
  -21.1555  -30.5514   19.2308 C   0  0  0  0  0  0  0  0  0  0  0  0
  -26.5808  -30.7606   15.0602 C   0  0  0  0  0  0  0  0  0  0  0  0
  -30.8548  -16.8175   22.0756 C   0  0  0  0  0  0  0  0  0  0  0  0
  -23.1370  -29.2614   18.3355 C   0  0  1  0  0  0  0  0  0  0  0  0
  -24.0963  -31.0122   15.1131 C   0  0  2  0  0  0  0  0  0  0  0  0
  -21.6484  -29.1614   18.7732 C   0  0  0  0  0  0  0  0  0  0  0  0
  -25.8539  -11.5791   20.2644 N   0  0  0  0  0  0  0  0  0  0  0  0
  -26.2308  -12.8677   20.2033 N   0  0  0  0  0  0  0  0  0  0  0  0
  -29.9536  -21.2274   18.6436 N   0  0  3  0  0  0  0  0  0  0  0  0
  -25.0574  -28.7542   19.8116 N   0  0  0  0  0  0  0  0  0  0  0  0
  -29.9725  -13.6298   20.3673 N   0  0  0  0  0  0  0  0  0  0  0  0
  -25.4761  -15.0773   20.6019 N   0  0  0  0  0  0  0  0  0  0  0  0
  -21.9151  -12.5402   21.7327 N   0  0  0  0  0  0  0  0  0  0  0  0
  -25.2816  -28.7780   23.3724 N   0  0  0  0  0  0  0  0  0  0  0  0
  -23.3809  -30.2175   17.2608 N   0  0  0  0  0  0  0  0  0  0  0  0
  -30.1773  -15.6221   21.6253 N   0  0  0  0  0  0  0  0  0  0  0  0
  -25.3211  -30.8568   14.2785 N   0  3  0  0  0  0  0  0  0  0  0  0
  -22.6891  -14.6920   21.5614 O   0  0  0  0  0  0  0  0  0  0  0  0
  -24.6580  -27.1223   21.8584 O   0  0  0  0  0  0  0  0  0  0  0  0
  -23.8679  -30.7471   20.0341 O   0  0  0  0  0  0  0  0  0  0  0  0
  -24.3125  -28.6991   15.7763 O   0  0  0  0  0  0  0  0  0  0  0  0
  -31.8785  -14.9453   20.2451 O   0  0  0  0  0  0  0  0  0  0  0  0
  -21.6308   -6.9807   21.5168 O   0  0  0  0  0  0  0  0  0  0  0  0
  -28.2613  -23.7255   18.2304 O   0  0  0  0  0  0  0  0  0  1  0  0
  -18.7531   -6.5504   26.2006 F   0  0  0  0  0  0  0  0  0  0  0  0
  -32.7955  -17.7710   20.2570 F   0  0  0  0  0  0  0  0  0  0  0  0
  -22.1228   -4.9263   23.3001 F   0  0  0  0  0  0  0  0  0  0  0  0
  1  2  1  0  0  0  0
  1  5  2  0  0  0  0
  2  6  2  0  0  0  0
  3  8  2  0  0  0  0
  3 17  1  0  0  0  0
  4  9  1  0  0  0  0
  4 17  2  0  0  0  0
  5 19  1  0  0  0  0
  6 21  1  0  0  0  0
  7 10  2  0  0  0  0
  7 20  1  0  0  0  0
  8 26  1  0  0  0  0
  9 26  2  0  0  0  0
 10 27  1  0  0  0  0
 11 12  2  0  0  0  0
 11 28  1  0  0  0  0
 12 29  1  0  0  0  0
 13 22  1  0  0  0  0
 13 27  2  0  0  0  0
 14 23  1  0  0  0  0
 14 24  2  0  0  0  0
 15 25  1  0  0  0  0
 15 30  2  0  0  0  0
 16 29  2  0  0  0  0
 16 31  1  0  0  0  0
 17 32  1  0  0  0  0
 18 32  1  0  0  0  0
 18 33  2  0  0  0  0
 18 34  1  0  0  0  0
 19 21  2  0  0  0  0
 19 39  1  0  0  0  0
 20 22  2  0  0  0  0
 20 40  1  0  0  0  0
 21 51  1  0  0  0  0
 22 41  1  0  0  0  0
 23 25  2  0  0  0  0
 23 55  1  0  0  0  0
 24 30  1  0  0  0  0
 24 61  1  0  0  0  0
 25 67  1  0  0  0  0
 26 81  1  0  0  0  0
 27 82  1  0  0  0  0
 28 31  2  0  0  0  0
 28 81  1  0  0  0  0
 29 83  1  0  0  0  0
 30 84  1  0  0  0  0
 31 85  1  0  0  0  0
 32 65  2  0  0  0  0
 33 66  1  0  0  0  0
 33 70  1  0  0  0  0
 34 71  1  0  0  0  0
 34 76  2  0  0  0  0
 35 52  1  0  0  0  0
 35 72  1  0  0  0  0
 35 77  2  0  0  0  0
 36 62  1  0  0  0  0
 36 68  1  0  0  0  0
 36 78  2  0  0  0  0
 37 63  1  0  0  0  0
 37 73  1  0  0  0  0
 37 79  2  0  0  0  0
 38 69  1  0  0  0  0
 38 74  1  0  0  0  0
 38 80  2  0  0  0  0
 39 42  1  0  0  0  0
 40 52  1  0  0  0  0
 41 68  1  0  0  0  0
 42 44  1  0  0  0  0
 43 45  1  0  0  0  0
 43 47  1  0  0  0  0
 44 51  1  0  0  0  0
 45 53  1  0  0  0  0
 46 48  1  0  0  0  0
 46 54  1  0  0  0  0
 47 69  1  0  0  0  0
 48 67  1  0  0  0  0
 49 53  1  0  0  0  0
 49 69  1  0  0  0  0
 50 54  1  0  0  0  0
 50 67  1  0  0  0  0
 51 72  1  0  0  0  0
 52 68  1  0  0  0  0
 53 66  1  0  0  0  0
 54 82  1  0  0  0  0
 56 63  1  0  0  0  0
 57 64  1  0  0  0  0
 58 64  1  0  0  0  0
 59 64  1  0  0  0  0
 60 75  1  0  0  0  0
 61 74  1  0  0  0  0
 62 64  1  0  0  0  0
 62 73  1  0  0  0  0
 63 75  1  0  0  0  0
 65 66  1  0  0  0  0
M  CHG  1  75   1
M  ISO  4  38 100  54 101  74 100  82 101
M  END
> <Batch ID>
0028

> <Smiles>
CNC(C)C(=O)NC(C(=O)N1Cc2cc([101O:1][101CH:1]3CCN(c4cc(F)c(C[100NH:0][100C:0](=O)N5CCCC(n6nc(-c7ccc(Oc8ccc(F)cc8F)cc7)c(C(N)=O)c6N)C5)cc4C)C3)ccc2CC1C(=O)NC1CCCc2ccccc21)C(C)(C)C

> <Shape>
0.319

> <Color>
0.222

> <Negative vol penalty>
0.000

$$$$

  -OEChem-04042321313D

 85 94  0     1  0  0  0  0  0999 V2000
  -22.8562  -18.0896   12.3235 C   0  0  0  0  0  0  0  0  0  0  0  0
  -23.1011  -17.3922   13.5021 C   0  0  0  0  0  0  0  0  0  0  0  0
  -27.3770  -26.1891   17.5139 C   0  0  0  0  0  0  0  0  0  0  0  0
  -26.7695  -25.6056   19.7784 C   0  0  0  0  0  0  0  0  0  0  0  0
  -22.8848  -19.4836   12.3210 C   0  0  0  0  0  0  0  0  0  0  0  0
  -23.3757  -18.0883   14.6786 C   0  0  0  0  0  0  0  0  0  0  0  0
  -20.8442  -16.2490   18.6602 C   0  0  0  0  0  0  0  0  0  0  0  0
  -29.5938  -11.6539   18.7898 C   0  0  0  0  0  0  0  0  0  0  0  0
  -30.2558  -12.8814   18.7675 C   0  0  0  0  0  0  0  0  0  0  0  0
  -26.4559  -27.2362   17.5366 C   0  0  0  0  0  0  0  0  0  0  0  0
  -25.8484  -26.6529   19.8011 C   0  0  0  0  0  0  0  0  0  0  0  0
  -21.3363  -15.0825   19.2441 C   0  0  0  0  0  0  0  0  0  0  0  0
  -25.9030  -30.0077   20.2046 C   0  0  0  0  0  0  0  0  0  0  0  0
  -25.8754  -30.8199   21.3381 C   0  0  0  0  0  0  0  0  0  0  0  0
  -22.3748  -16.3967   20.9801 C   0  0  0  0  0  0  0  0  0  0  0  0
  -23.5687  -30.2102   21.7187 C   0  0  0  0  0  0  0  0  0  0  0  0
  -27.5338  -25.3737   18.6348 C   0  0  0  0  0  0  0  0  0  0  0  0
  -29.8401  -24.3426   18.9888 C   0  0  0  0  0  0  0  0  0  0  0  0
  -23.1504  -20.1973   13.5002 C   0  0  0  0  0  0  0  0  0  0  0  0
  -21.1233  -17.5010   19.2268 C   0  0  0  0  0  0  0  0  0  0  0  0
  -23.4092  -19.4931   14.6916 C   0  0  0  0  0  0  0  0  0  0  0  0
  -21.8829  -17.5773   20.4029 C   0  0  0  0  0  0  0  0  0  0  0  0
  -28.4090  -11.5135   19.5125 C   0  0  0  0  0  0  0  0  0  0  0  0
  -29.7330  -13.9686   19.4679 C   0  0  0  0  0  0  0  0  0  0  0  0
  -27.8863  -12.6006   20.2129 C   0  0  0  0  0  0  0  0  0  0  0  0
  -25.6916  -27.4682   18.6802 C   0  0  0  0  0  0  0  0  0  0  0  0
  -22.1041  -15.1564   20.4025 C   0  0  0  0  0  0  0  0  0  0  0  0
  -24.7635  -29.2967   19.8280 C   0  0  0  0  0  0  0  0  0  0  0  0
  -24.7082  -30.9212   22.0952 C   0  0  0  0  0  0  0  0  0  0  0  0
  -23.5964  -29.3980   20.5851 C   0  0  0  0  0  0  0  0  0  0  0  0
  -28.5483  -13.8281   20.1906 C   0  0  0  0  0  0  0  0  0  0  0  0
  -28.4847  -24.2914   18.6118 C   0  0  0  0  0  0  0  0  0  0  0  0
  -30.3018  -23.0652   18.7845 C   0  0  0  0  0  0  0  0  0  0  0  0
  -30.6127  -25.4460   19.4799 C   0  0  0  0  0  0  0  0  0  0  0  0
  -22.6552  -20.1113   18.2556 C   0  0  0  0  0  0  0  0  0  0  0  0
  -21.5388  -21.3319   21.0460 C   0  0  0  0  0  0  0  0  0  0  0  0
  -20.4111  -20.7553   24.2150 C   0  0  0  0  0  0  0  0  0  0  0  0
  -29.7254  -17.6523   19.3460 C   0  0  0  0  0  0  0  0  0  0  0  0
  -23.2172  -21.7028   13.4381 C   0  0  0  0  0  0  0  0  0  0  0  0
  -20.5626  -18.7480   18.5998 C   0  0  0  0  0  0  0  0  0  0  0  0
  -22.1939  -18.8955   21.0619 C   0  0  0  0  0  0  0  0  0  0  0  0
  -23.1462  -22.3727   14.8079 C   0  0  0  0  0  0  0  0  0  0  0  0
  -28.1682  -19.1280   16.4313 C   0  0  0  0  0  0  0  0  0  0  0  0
  -24.0850  -21.6798   15.7904 C   0  0  0  0  0  0  0  0  0  0  0  0
  -28.2263  -20.6172   16.7766 C   0  0  0  0  0  0  0  0  0  0  0  0
  -27.8851  -18.2839   17.6705 C   0  0  0  0  0  0  0  0  0  0  0  0
  -28.9041  -19.9815   19.1380 C   0  0  0  0  0  0  0  0  0  0  0  0
  -24.2005  -12.0733   20.9087 C   0  0  0  0  0  0  0  0  0  0  0  0
  -24.8609  -13.7809   19.9034 C   0  0  0  0  0  0  0  0  0  0  0  0
  -23.6863  -20.2131   15.9935 C   0  0  1  0  0  0  0  0  0  0  0  0
  -21.3397  -20.0063   18.9741 C   0  0  1  0  0  0  0  0  0  0  0  0
  -29.2097  -20.8868   17.9309 C   0  0  2  0  0  0  0  0  0  0  0  0
  -23.4599  -13.2056   20.1751 C   0  0  0  0  0  0  0  0  0  1  0  0
  -27.7185  -10.1891   19.5210 C   0  0  0  0  0  0  0  0  0  0  0  0
  -19.6098  -21.9534   26.2692 C   0  0  0  0  0  0  0  0  0  0  0  0
  -24.4135  -22.1082   21.7117 C   0  0  0  0  0  0  0  0  0  0  0  0
  -23.7064  -22.4108   24.0943 C   0  0  0  0  0  0  0  0  0  0  0  0
  -22.7027  -23.8325   22.3071 C   0  0  0  0  0  0  0  0  0  0  0  0
  -17.7626  -19.4407   24.0898 C   0  0  0  0  0  0  0  0  0  0  0  0
  -30.4444  -15.2794   19.4419 C   0  0  0  0  0  0  0  0  0  0  0  0
  -26.6137  -12.4688   20.9966 C   0  0  0  0  0  0  0  0  0  0  0  0
  -22.0492  -21.3953   22.4653 C   0  0  1  0  0  0  0  0  0  0  0  0
  -19.2024  -21.2841   24.9659 C   0  0  2  0  0  0  0  0  0  0  0  0
  -23.2139  -22.4118   22.6314 C   0  0  0  0  0  0  0  0  0  0  0  0
  -28.1098  -23.0778   18.1990 N   0  0  0  0  0  0  0  0  0  0  0  0
  -29.2364  -22.3544   18.3154 N   0  0  0  0  0  0  0  0  0  0  0  0
  -21.6284  -20.0869   20.4074 N   0  0  0  0  0  0  0  0  0  0  0  0
  -28.8674  -18.5748   18.7244 N   0  0  0  0  0  0  0  0  0  0  0  0
  -31.5110  -22.4920   18.9619 N   0  0  0  0  0  0  0  0  0  0  0  0
  -29.9823  -26.6887   19.6302 N   0  0  0  0  0  0  0  0  0  0  0  0
  -22.5450  -20.1174   16.8782 N   0  0  0  0  0  0  0  0  0  0  0  0
  -20.8887  -21.6739   23.3044 N   0  0  0  0  0  0  0  0  0  0  0  0
  -29.6230  -16.3398   18.9016 N   0  0  0  0  0  0  0  0  0  0  0  0
  -25.4074  -12.4320   20.1411 N   0  3  0  0  0  0  0  0  0  0  0  0
  -18.2621  -20.1721   25.2825 N   0  3  0  0  0  0  0  0  0  0  0  0
  -31.8303  -25.3373   19.7612 O   0  0  0  0  0  0  0  0  0  0  0  0
  -23.6932  -20.1830   18.9030 O   0  0  0  0  0  0  0  0  0  0  0  0
  -21.0709  -22.3477   20.5256 O   0  0  0  0  0  0  0  0  0  0  0  0
  -20.8866  -19.6404   24.4188 O   0  0  0  0  0  0  0  0  0  0  0  0
  -30.5277  -17.9756   20.2285 O   0  0  0  0  0  0  0  0  0  0  0  0
  -24.7929  -28.4901   18.7027 O   0  0  0  0  0  0  0  0  0  0  0  0
  -22.5863  -14.0194   20.9741 O   0  0  0  0  0  0  0  0  0  1  0  0
  -24.6823  -31.7001   23.1847 F   0  0  0  0  0  0  0  0  0  0  0  0
  -22.4989  -28.7164   20.2289 F   0  0  0  0  0  0  0  0  0  0  0  0
  -28.0464  -14.8739   20.8644 F   0  0  0  0  0  0  0  0  0  0  0  0
  1  2  1  0  0  0  0
  1  5  2  0  0  0  0
  2  6  2  0  0  0  0
  3 10  2  0  0  0  0
  3 17  1  0  0  0  0
  4 11  1  0  0  0  0
  4 17  2  0  0  0  0
  5 19  1  0  0  0  0
  6 21  1  0  0  0  0
  7 12  2  0  0  0  0
  7 20  1  0  0  0  0
  8  9  1  0  0  0  0
  8 23  2  0  0  0  0
  9 24  2  0  0  0  0
 10 26  1  0  0  0  0
 11 26  2  0  0  0  0
 12 27  1  0  0  0  0
 13 14  2  0  0  0  0
 13 28  1  0  0  0  0
 14 29  1  0  0  0  0
 15 22  1  0  0  0  0
 15 27  2  0  0  0  0
 16 29  2  0  0  0  0
 16 30  1  0  0  0  0
 17 32  1  0  0  0  0
 18 32  1  0  0  0  0
 18 33  2  0  0  0  0
 18 34  1  0  0  0  0
 19 21  2  0  0  0  0
 19 39  1  0  0  0  0
 20 22  2  0  0  0  0
 20 40  1  0  0  0  0
 21 50  1  0  0  0  0
 22 41  1  0  0  0  0
 23 25  1  0  0  0  0
 23 54  1  0  0  0  0
 24 31  1  0  0  0  0
 24 60  1  0  0  0  0
 25 31  2  0  0  0  0
 25 61  1  0  0  0  0
 26 81  1  0  0  0  0
 27 82  1  0  0  0  0
 28 30  2  0  0  0  0
 28 81  1  0  0  0  0
 29 83  1  0  0  0  0
 30 84  1  0  0  0  0
 31 85  1  0  0  0  0
 32 65  2  0  0  0  0
 33 66  1  0  0  0  0
 33 69  1  0  0  0  0
 34 70  1  0  0  0  0
 34 76  2  0  0  0  0
 35 51  1  0  0  0  0
 35 71  1  0  0  0  0
 35 77  2  0  0  0  0
 36 62  1  0  0  0  0
 36 67  1  0  0  0  0
 36 78  2  0  0  0  0
 37 63  1  0  0  0  0
 37 72  1  0  0  0  0
 37 79  2  0  0  0  0
 38 68  1  0  0  0  0
 38 73  1  0  0  0  0
 38 80  2  0  0  0  0
 39 42  1  0  0  0  0
 40 51  1  0  0  0  0
 41 67  1  0  0  0  0
 42 44  1  0  0  0  0
 43 45  1  0  0  0  0
 43 46  1  0  0  0  0
 44 50  1  0  0  0  0
 45 52  1  0  0  0  0
 46 68  1  0  0  0  0
 47 52  1  0  0  0  0
 47 68  1  0  0  0  0
 48 53  1  0  0  0  0
 48 74  1  0  0  0  0
 49 53  1  0  0  0  0
 49 74  1  0  0  0  0
 50 71  1  0  0  0  0
 51 67  1  0  0  0  0
 52 66  1  0  0  0  0
 53 82  1  0  0  0  0
 55 63  1  0  0  0  0
 56 64  1  0  0  0  0
 57 64  1  0  0  0  0
 58 64  1  0  0  0  0
 59 75  1  0  0  0  0
 60 73  1  0  0  0  0
 61 74  1  0  0  0  0
 62 64  1  0  0  0  0
 62 72  1  0  0  0  0
 63 75  1  0  0  0  0
 65 66  1  0  0  0  0
M  CHG  2  74   1  75   1
M  ISO  4  38 100  53 101  73 100  82 101
M  END
> <Batch ID>
0028

> <Smiles>
CNC(C)C(=O)NC(C(=O)N1Cc2cc([101O:1][101CH:1]3CN(Cc4c(C)ccc(C[100NH:0][100C:0](=O)N5CCCC(n6nc(-c7ccc(Oc8ccc(F)cc8F)cc7)c(C(N)=O)c6N)C5)c4F)C3)ccc2CC1C(=O)NC1CCCc2ccccc21)C(C)(C)C

> <Shape>
0.211

> <Color>
0.086

> <Negative vol penalty>
0.000

$$$$

  -OEChem-04042321313D

 86 95  0     1  0  0  0  0  0999 V2000
  -16.3049  -29.8150   23.6238 C   0  0  0  0  0  0  0  0  0  0  0  0
  -17.1637  -29.0114   22.8808 C   0  0  0  0  0  0  0  0  0  0  0  0
  -22.7319  -10.0254   20.1907 C   0  0  0  0  0  0  0  0  0  0  0  0
  -24.2685   -9.4797   21.9735 C   0  0  0  0  0  0  0  0  0  0  0  0
  -16.8222  -30.8329   24.4239 C   0  0  0  0  0  0  0  0  0  0  0  0
  -18.5404  -29.2260   22.9365 C   0  0  0  0  0  0  0  0  0  0  0  0
  -23.0231  -24.0095   25.0776 C   0  0  0  0  0  0  0  0  0  0  0  0
  -31.0875  -17.6609   20.4839 C   0  0  0  0  0  0  0  0  0  0  0  0
  -21.9960   -8.8745   20.4727 C   0  0  0  0  0  0  0  0  0  0  0  0
  -23.5326   -8.3288   22.2555 C   0  0  0  0  0  0  0  0  0  0  0  0
  -23.9631  -22.9977   25.2744 C   0  0  0  0  0  0  0  0  0  0  0  0
  -20.6733   -7.5367   23.8735 C   0  0  0  0  0  0  0  0  0  0  0  0
  -31.2492  -19.0439   20.4018 C   0  0  0  0  0  0  0  0  0  0  0  0
  -20.3950   -7.2590   25.2117 C   0  0  0  0  0  0  0  0  0  0  0  0
  -25.7561  -24.6040   25.0440 C   0  0  0  0  0  0  0  0  0  0  0  0
  -21.5747   -5.1592   25.0212 C   0  0  0  0  0  0  0  0  0  0  0  0
  -23.8682  -10.3280   20.9411 C   0  0  0  0  0  0  0  0  0  0  0  0
  -24.1742  -12.8480   20.6896 C   0  0  0  0  0  0  0  0  0  0  0  0
  -18.2066  -31.0539   24.4970 C   0  0  0  0  0  0  0  0  0  0  0  0
  -23.4462  -25.3266   24.8783 C   0  0  0  0  0  0  0  0  0  0  0  0
  -19.0766  -30.2488   23.7373 C   0  0  0  0  0  0  0  0  0  0  0  0
  -24.8188  -25.6237   24.8588 C   0  0  0  0  0  0  0  0  0  0  0  0
  -29.3765  -17.9606   22.1630 C   0  0  0  0  0  0  0  0  0  0  0  0
  -29.5382  -19.3436   22.0810 C   0  0  0  0  0  0  0  0  0  0  0  0
  -30.1511  -17.1192   21.3645 C   0  0  0  0  0  0  0  0  0  0  0  0
  -22.3963   -8.0262   21.5051 C   0  0  0  0  0  0  0  0  0  0  0  0
  -25.3262  -23.2942   25.2574 C   0  0  0  0  0  0  0  0  0  0  0  0
  -21.4022   -6.6257   23.1090 C   0  0  0  0  0  0  0  0  0  0  0  0
  -20.8457   -6.0702   25.7856 C   0  0  0  0  0  0  0  0  0  0  0  0
  -30.4746  -19.8853   21.2003 C   0  0  0  0  0  0  0  0  0  0  0  0
  -21.8529   -5.4369   23.6829 C   0  0  0  0  0  0  0  0  0  0  0  0
  -24.6291  -11.5164   20.6499 C   0  0  0  0  0  0  0  0  0  0  0  0
  -25.2700  -13.5959   20.3339 C   0  0  0  0  0  0  0  0  0  0  0  0
  -22.8772  -13.3630   21.0186 C   0  0  0  0  0  0  0  0  0  0  0  0
  -22.4722  -28.9023   24.2938 C   0  0  0  0  0  0  0  0  0  0  0  0
  -24.8210  -28.9297   26.2668 C   0  0  0  0  0  0  0  0  0  0  0  0
  -27.0587  -29.6634   28.7349 C   0  0  0  0  0  0  0  0  0  0  0  0
  -30.7041  -14.7533   20.6990 C   0  0  0  0  0  0  0  0  0  0  0  0
  -18.7158  -32.1968   25.3391 C   0  0  0  0  0  0  0  0  0  0  0  0
  -22.4707  -26.4381   24.6009 C   0  0  0  0  0  0  0  0  0  0  0  0
  -25.2287  -27.0489   24.6064 C   0  0  0  0  0  0  0  0  0  0  0  0
  -20.2116  -32.1174   25.6333 C   0  0  0  0  0  0  0  0  0  0  0  0
  -29.7420  -12.1863   18.4271 C   0  0  0  0  0  0  0  0  0  0  0  0
  -20.9896  -31.7970   24.3610 C   0  0  0  0  0  0  0  0  0  0  0  0
  -28.2886  -11.8927   18.8061 C   0  0  0  0  0  0  0  0  0  0  0  0
  -26.5374  -21.0612   23.4429 C   0  0  0  0  0  0  0  0  0  0  0  0
  -30.5956  -12.5013   19.6542 C   0  0  0  0  0  0  0  0  0  0  0  0
  -27.4912  -20.6674   22.3220 C   0  0  0  0  0  0  0  0  0  0  0  0
  -29.4395  -21.0971   23.8261 C   0  0  0  0  0  0  0  0  0  0  0  0
  -28.6141  -13.2679   20.9013 C   0  0  0  0  0  0  0  0  0  0  0  0
  -20.5775  -30.4345   23.7906 C   0  0  1  0  0  0  0  0  0  0  0  0
  -22.9075  -27.7875   25.1989 C   0  0  1  0  0  0  0  0  0  0  0  0
  -28.4883  -21.5048   24.9633 C   0  0  2  0  0  0  0  0  0  0  0  0
  -27.7008  -13.0086   19.6920 C   0  0  2  0  0  0  0  0  0  0  0  0
  -27.1705  -22.0620   24.4050 C   0  0  2  0  0  0  0  0  0  1  0  0
  -28.3711  -17.3797   23.1086 C   0  0  0  0  0  0  0  0  0  0  0  0
  -29.1828  -22.5079   25.8894 C   0  0  0  0  0  0  0  0  0  0  0  0
  -28.5616  -31.5009   29.5486 C   0  0  0  0  0  0  0  0  0  0  0  0
  -26.7909  -28.3072   24.0227 C   0  0  0  0  0  0  0  0  0  0  0  0
  -28.5797  -29.4110   25.3828 C   0  0  0  0  0  0  0  0  0  0  0  0
  -26.6096  -30.7315   24.6096 C   0  0  0  0  0  0  0  0  0  0  0  0
  -25.6408  -29.8330   31.3272 C   0  0  0  0  0  0  0  0  0  0  0  0
  -26.3136  -29.0291   26.4552 C   0  0  1  0  0  0  0  0  0  0  0  0
  -27.1852  -30.8633   29.6562 C   0  0  2  0  0  0  0  0  0  0  0  0
  -27.0585  -29.3479   25.1283 C   0  0  0  0  0  0  0  0  0  0  0  0
  -25.9137  -11.4206   20.2968 N   0  0  0  0  0  0  0  0  0  0  0  0
  -26.2753  -12.7016   20.1111 N   0  0  0  0  0  0  0  0  0  0  0  0
  -28.7690  -20.2035   22.8751 N   0  0  2  0  0  0  0  0  0  0  0  0
  -24.3603  -27.9632   25.3646 N   0  0  0  0  0  0  0  0  0  0  0  0
  -29.9792  -13.5702   20.4431 N   0  0  0  0  0  0  0  0  0  0  0  0
  -25.4619  -14.9247   20.1929 N   0  0  0  0  0  0  0  0  0  0  0  0
  -21.8654  -12.4557   21.3614 N   0  0  0  0  0  0  0  0  0  0  0  0
  -30.0039  -15.7115   21.4313 N   0  0  0  0  0  0  0  0  0  0  0  0
  -21.1940  -29.3638   24.5442 N   0  0  0  0  0  0  0  0  0  0  0  0
  -26.5271  -30.0125   27.5115 N   0  0  0  0  0  0  0  0  0  0  0  0
  -26.9660  -30.4544   31.0724 N   0  3  0  0  0  0  0  0  0  0  0  0
  -22.6185  -14.5901   20.9929 O   0  0  0  0  0  0  0  0  0  0  0  0
  -23.2394  -29.3154   23.4321 O   0  0  0  0  0  0  0  0  0  0  0  0
  -24.0815  -29.6909   26.8969 O   0  0  0  0  0  0  0  0  0  0  0  0
  -27.4010  -28.5303   29.0661 O   0  0  0  0  0  0  0  0  0  0  0  0
  -31.8511  -14.9162   20.2749 O   0  0  0  0  0  0  0  0  0  0  0  0
  -21.6783   -6.9032   21.7807 O   0  0  0  0  0  0  0  0  0  0  0  0
  -26.2384  -22.3024   25.4547 O   0  0  0  0  0  0  0  0  0  1  0  0
  -20.5798   -5.8043   27.0712 F   0  0  0  0  0  0  0  0  0  0  0  0
  -30.6385  -21.2130   21.1118 F   0  0  0  0  0  0  0  0  0  0  0  0
  -22.5546   -4.5584   22.9538 F   0  0  0  0  0  0  0  0  0  0  0  0
  1  2  1  0  0  0  0
  1  5  2  0  0  0  0
  2  6  2  0  0  0  0
  3  9  2  0  0  0  0
  3 17  1  0  0  0  0
  4 10  1  0  0  0  0
  4 17  2  0  0  0  0
  5 19  1  0  0  0  0
  6 21  1  0  0  0  0
  7 11  2  0  0  0  0
  7 20  1  0  0  0  0
  8 13  1  0  0  0  0
  8 25  2  0  0  0  0
  9 26  1  0  0  0  0
 10 26  2  0  0  0  0
 11 27  1  0  0  0  0
 12 14  2  0  0  0  0
 12 28  1  0  0  0  0
 13 30  2  0  0  0  0
 14 29  1  0  0  0  0
 15 22  1  0  0  0  0
 15 27  2  0  0  0  0
 16 29  2  0  0  0  0
 16 31  1  0  0  0  0
 17 32  1  0  0  0  0
 18 32  1  0  0  0  0
 18 33  2  0  0  0  0
 18 34  1  0  0  0  0
 19 21  2  0  0  0  0
 19 39  1  0  0  0  0
 20 22  2  0  0  0  0
 20 40  1  0  0  0  0
 21 51  1  0  0  0  0
 22 41  1  0  0  0  0
 23 24  2  0  0  0  0
 23 25  1  0  0  0  0
 23 56  1  0  0  0  0
 24 30  1  0  0  0  0
 24 68  1  0  0  0  0
 25 73  1  0  0  0  0
 26 82  1  0  0  0  0
 27 83  1  0  0  0  0
 28 31  2  0  0  0  0
 28 82  1  0  0  0  0
 29 84  1  0  0  0  0
 30 85  1  0  0  0  0
 31 86  1  0  0  0  0
 32 66  2  0  0  0  0
 33 67  1  0  0  0  0
 33 71  1  0  0  0  0
 34 72  1  0  0  0  0
 34 77  2  0  0  0  0
 35 52  1  0  0  0  0
 35 74  1  0  0  0  0
 35 78  2  0  0  0  0
 36 63  1  0  0  0  0
 36 69  1  0  0  0  0
 36 79  2  0  0  0  0
 37 64  1  0  0  0  0
 37 75  1  0  0  0  0
 37 80  2  0  0  0  0
 38 70  1  0  0  0  0
 38 73  1  0  0  0  0
 38 81  2  0  0  0  0
 39 42  1  0  0  0  0
 40 52  1  0  0  0  0
 41 69  1  0  0  0  0
 42 44  1  0  0  0  0
 43 45  1  0  0  0  0
 43 47  1  0  0  0  0
 44 51  1  0  0  0  0
 45 54  1  0  0  0  0
 46 48  1  0  0  0  0
 46 55  1  0  0  0  0
 47 70  1  0  0  0  0
 48 68  1  0  0  0  0
 49 53  1  0  0  0  0
 49 68  1  0  0  0  0
 50 54  1  0  0  0  0
 50 70  1  0  0  0  0
 51 74  1  0  0  0  0
 52 69  1  0  0  0  0
 53 55  1  0  0  0  0
 53 57  1  0  0  0  0
 54 67  1  0  0  0  0
 55 83  1  0  0  0  0
 58 64  1  0  0  0  0
 59 65  1  0  0  0  0
 60 65  1  0  0  0  0
 61 65  1  0  0  0  0
 62 76  1  0  0  0  0
 63 65  1  0  0  0  0
 63 75  1  0  0  0  0
 64 76  1  0  0  0  0
 66 67  1  0  0  0  0
M  CHG  1  76   1
M  ISO  4  38 100  55 101  73 100  83 101
M  END
> <Batch ID>
0028

> <Smiles>
CNC(C)C(=O)NC(C(=O)N1Cc2cc([101O:1][101CH:1]3CCN(c4c(F)ccc([100NH:0][100C:0](=O)N5CCCC(n6nc(-c7ccc(Oc8ccc(F)cc8F)cc7)c(C(N)=O)c6N)C5)c4C)CC3C)ccc2CC1C(=O)NC1CCCc2ccccc21)C(C)(C)C

> <Shape>
0.283

> <Color>
0.228

> <Negative vol penalty>
0.000

$$$$

  -OEChem-04042321313D

 85 94  0     1  0  0  0  0  0999 V2000
  -19.8033   -8.5813   20.2003 C   0  0  0  0  0  0  0  0  0  0  0  0
  -19.6188   -9.9019   20.5969 C   0  0  0  0  0  0  0  0  0  0  0  0
  -28.2747  -28.0286   21.1536 C   0  0  0  0  0  0  0  0  0  0  0  0
  -26.9825  -27.1162   19.3274 C   0  0  0  0  0  0  0  0  0  0  0  0
  -21.0727   -8.0077   20.2596 C   0  0  0  0  0  0  0  0  0  0  0  0
  -20.7035  -10.6495   21.0541 C   0  0  0  0  0  0  0  0  0  0  0  0
  -21.6491  -16.6447   20.2360 C   0  0  0  0  0  0  0  0  0  0  0  0
  -29.2946  -27.1148   20.8884 C   0  0  0  0  0  0  0  0  0  0  0  0
  -28.0024  -26.2025   19.0622 C   0  0  0  0  0  0  0  0  0  0  0  0
  -21.4250  -17.7500   21.0556 C   0  0  0  0  0  0  0  0  0  0  0  0
  -32.0852  -24.7834   20.9188 C   0  0  0  0  0  0  0  0  0  0  0  0
  -32.6585  -24.1169   22.0017 C   0  0  0  0  0  0  0  0  0  0  0  0
  -20.8240  -23.8171   20.8874 C   0  0  0  0  0  0  0  0  0  0  0  0
  -23.7245  -17.6712   21.7803 C   0  0  0  0  0  0  0  0  0  0  0  0
  -21.6245  -24.2216   23.1189 C   0  0  0  0  0  0  0  0  0  0  0  0
  -30.5041  -23.1801   22.5657 C   0  0  0  0  0  0  0  0  0  0  0  0
  -27.1186  -28.0293   20.3731 C   0  0  0  0  0  0  0  0  0  0  0  0
  -25.9173  -30.2638   20.1056 C   0  0  0  0  0  0  0  0  0  0  0  0
  -22.1753   -8.7516   20.7086 C   0  0  0  0  0  0  0  0  0  0  0  0
  -22.9119  -16.0366   20.1906 C   0  0  0  0  0  0  0  0  0  0  0  0
  -21.9886  -10.0849   21.1207 C   0  0  0  0  0  0  0  0  0  0  0  0
  -20.2267  -25.0888   20.8531 C   0  0  0  0  0  0  0  0  0  0  0  0
  -23.9627  -16.5599   20.9574 C   0  0  0  0  0  0  0  0  0  0  0  0
  -20.3401  -25.9467   21.9674 C   0  0  0  0  0  0  0  0  0  0  0  0
  -21.5269  -23.3900   22.0105 C   0  0  0  0  0  0  0  0  0  0  0  0
  -29.1585  -26.2018   19.8427 C   0  0  0  0  0  0  0  0  0  0  0  0
  -22.4620  -18.2617   21.8301 C   0  0  0  0  0  0  0  0  0  0  0  0
  -30.7213  -24.6484   20.6594 C   0  0  0  0  0  0  0  0  0  0  0  0
  -31.8680  -23.3152   22.8251 C   0  0  0  0  0  0  0  0  0  0  0  0
  -21.0298  -25.4850   23.1020 C   0  0  0  0  0  0  0  0  0  0  0  0
  -29.9308  -23.8467   21.4829 C   0  0  0  0  0  0  0  0  0  0  0  0
  -26.0644  -28.9726   20.6469 C   0  0  0  0  0  0  0  0  0  0  0  0
  -24.7659  -30.7469   20.6779 C   0  0  0  0  0  0  0  0  0  0  0  0
  -26.7471  -30.9639   19.1692 C   0  0  0  0  0  0  0  0  0  0  0  0
  -24.0389  -13.1511   20.9031 C   0  0  0  0  0  0  0  0  0  0  0  0
  -26.7792  -14.3360   19.6345 C   0  0  0  0  0  0  0  0  0  0  0  0
  -28.6695  -17.0709   18.8639 C   0  0  0  0  0  0  0  0  0  0  0  0
  -19.9245  -28.2383   22.9196 C   0  0  0  0  0  0  0  0  0  0  0  0
  -23.5196   -8.0740   20.7998 C   0  0  0  0  0  0  0  0  0  0  0  0
  -23.1444  -14.8613   19.2811 C   0  0  0  0  0  0  0  0  0  0  0  0
  -19.4352  -25.4644   19.6265 C   0  0  0  0  0  0  0  0  0  0  0  0
  -25.3422  -15.9560   20.9291 C   0  0  0  0  0  0  0  0  0  0  0  0
  -24.6851   -9.0496   20.9422 C   0  0  0  0  0  0  0  0  0  0  0  0
  -19.1050  -26.9488   19.5792 C   0  0  0  0  0  0  0  0  0  0  0  0
  -22.0887  -30.3696   24.6206 C   0  0  0  0  0  0  0  0  0  0  0  0
  -24.3712  -10.1057   21.9972 C   0  0  0  0  0  0  0  0  0  0  0  0
  -23.3454  -30.3856   23.7500 C   0  0  0  0  0  0  0  0  0  0  0  0
  -21.4920  -28.9686   24.6967 C   0  0  0  0  0  0  0  0  0  0  0  0
  -22.4313  -28.3792   22.4863 C   0  0  0  0  0  0  0  0  0  0  0  0
  -23.1450  -10.9359   21.5990 C   0  0  1  0  0  0  0  0  0  0  0  0
  -24.3347  -14.0056   19.7030 C   0  0  1  0  0  0  0  0  0  0  0  0
  -23.0667  -29.7780   22.3635 C   0  0  2  0  0  0  0  0  0  0  0  0
  -18.6598  -27.4710   20.9448 C   0  0  1  0  0  0  0  0  0  0  0  0
  -17.3159  -26.8921   21.3993 C   0  0  0  0  0  0  0  0  0  0  0  0
  -30.8793  -17.7211   17.8681 C   0  0  0  0  0  0  0  0  0  0  0  0
  -28.1816  -13.5171   22.2177 C   0  0  0  0  0  0  0  0  0  0  0  0
  -30.0881  -15.0062   21.5728 C   0  0  0  0  0  0  0  0  0  0  0  0
  -29.4853  -13.0603   20.1330 C   0  0  0  0  0  0  0  0  0  0  0  0
  -27.3701  -18.5752   16.6713 C   0  0  0  0  0  0  0  0  0  0  0  0
  -22.8566  -21.6131   23.1507 C   0  0  0  0  0  0  0  0  0  0  0  0
  -23.3544  -20.2050   22.8709 C   0  0  0  0  0  0  0  0  0  1  0  0
  -27.9721  -15.0853   20.1774 C   0  0  1  0  0  0  0  0  0  0  0  0
  -29.4059  -17.4613   17.5951 C   0  0  2  0  0  0  0  0  0  0  0  0
  -28.9054  -14.1776   21.0274 C   0  0  0  0  0  0  0  0  0  0  0  0
  -25.0849  -28.6555   21.4978 N   0  0  0  0  0  0  0  0  0  0  0  0
  -24.3113  -29.7545   21.4956 N   0  0  0  0  0  0  0  0  0  0  0  0
  -19.7194  -27.2466   21.9430 N   0  0  0  0  0  0  0  0  0  0  0  0
  -25.5179  -14.8044   20.0288 N   0  0  0  0  0  0  0  0  0  0  0  0
  -21.2468  -28.4305   23.3586 N   0  0  0  0  0  0  0  0  0  0  0  0
  -24.1082  -31.9195   20.5565 N   0  0  0  0  0  0  0  0  0  0  0  0
  -27.8927  -30.3210   18.6808 N   0  0  0  0  0  0  0  0  0  0  0  0
  -22.1215  -22.1121   22.0294 N   0  0  0  0  0  0  0  0  0  0  0  0
  -23.5021  -11.9156   20.5954 N   0  0  0  0  0  0  0  0  0  0  0  0
  -28.6242  -15.7025   19.0275 N   0  0  0  0  0  0  0  0  0  0  0  0
  -28.8114  -18.6965   17.0104 N   0  3  0  0  0  0  0  0  0  0  0  0
  -26.4895  -32.1314   18.7898 O   0  0  0  0  0  0  0  0  0  0  0  0
  -24.2813  -13.5804   22.0250 O   0  0  0  0  0  0  0  0  0  0  0  0
  -26.9598  -13.3750   18.8825 O   0  0  0  0  0  0  0  0  0  0  0  0
  -28.1863  -17.8972   19.6347 O   0  0  0  0  0  0  0  0  0  0  0  0
  -18.9948  -28.9513   23.3168 O   0  0  0  0  0  0  0  0  0  0  0  0
  -30.1537  -25.3101   19.5835 O   0  0  0  0  0  0  0  0  0  0  0  0
  -22.2443  -19.3477   22.6371 O   0  0  0  0  0  0  0  0  0  1  0  0
  -32.4191  -22.6739   23.8640 F   0  0  0  0  0  0  0  0  0  0  0  0
  -21.0708  -26.1884   24.2422 F   0  0  0  0  0  0  0  0  0  0  0  0
  -28.6202  -23.7121   21.2380 F   0  0  0  0  0  0  0  0  0  0  0  0
  1  2  1  0  0  0  0
  1  5  2  0  0  0  0
  2  6  2  0  0  0  0
  3  8  2  0  0  0  0
  3 17  1  0  0  0  0
  4  9  1  0  0  0  0
  4 17  2  0  0  0  0
  5 19  1  0  0  0  0
  6 21  1  0  0  0  0
  7 10  2  0  0  0  0
  7 20  1  0  0  0  0
  8 26  1  0  0  0  0
  9 26  2  0  0  0  0
 10 27  1  0  0  0  0
 11 12  2  0  0  0  0
 11 28  1  0  0  0  0
 12 29  1  0  0  0  0
 13 22  1  0  0  0  0
 13 25  2  0  0  0  0
 14 23  1  0  0  0  0
 14 27  2  0  0  0  0
 15 25  1  0  0  0  0
 15 30  2  0  0  0  0
 16 29  2  0  0  0  0
 16 31  1  0  0  0  0
 17 32  1  0  0  0  0
 18 32  1  0  0  0  0
 18 33  2  0  0  0  0
 18 34  1  0  0  0  0
 19 21  2  0  0  0  0
 19 39  1  0  0  0  0
 20 23  2  0  0  0  0
 20 40  1  0  0  0  0
 21 50  1  0  0  0  0
 22 24  2  0  0  0  0
 22 41  1  0  0  0  0
 23 42  1  0  0  0  0
 24 30  1  0  0  0  0
 24 67  1  0  0  0  0
 25 72  1  0  0  0  0
 26 81  1  0  0  0  0
 27 82  1  0  0  0  0
 28 31  2  0  0  0  0
 28 81  1  0  0  0  0
 29 83  1  0  0  0  0
 30 84  1  0  0  0  0
 31 85  1  0  0  0  0
 32 65  2  0  0  0  0
 33 66  1  0  0  0  0
 33 70  1  0  0  0  0
 34 71  1  0  0  0  0
 34 76  2  0  0  0  0
 35 51  1  0  0  0  0
 35 73  1  0  0  0  0
 35 77  2  0  0  0  0
 36 62  1  0  0  0  0
 36 68  1  0  0  0  0
 36 78  2  0  0  0  0
 37 63  1  0  0  0  0
 37 74  1  0  0  0  0
 37 79  2  0  0  0  0
 38 67  1  0  0  0  0
 38 69  1  0  0  0  0
 38 80  2  0  0  0  0
 39 43  1  0  0  0  0
 40 51  1  0  0  0  0
 41 44  1  0  0  0  0
 42 68  1  0  0  0  0
 43 46  1  0  0  0  0
 44 53  1  0  0  0  0
 45 47  1  0  0  0  0
 45 48  1  0  0  0  0
 46 50  1  0  0  0  0
 47 52  1  0  0  0  0
 48 69  1  0  0  0  0
 49 52  1  0  0  0  0
 49 69  1  0  0  0  0
 50 73  1  0  0  0  0
 51 68  1  0  0  0  0
 52 66  1  0  0  0  0
 53 54  1  0  0  0  0
 53 67  1  0  0  0  0
 55 63  1  0  0  0  0
 56 64  1  0  0  0  0
 57 64  1  0  0  0  0
 58 64  1  0  0  0  0
 59 75  1  0  0  0  0
 60 61  1  0  0  0  0
 60 72  1  0  0  0  0
 61 82  1  0  0  0  0
 62 64  1  0  0  0  0
 62 74  1  0  0  0  0
 63 75  1  0  0  0  0
 65 66  1  0  0  0  0
M  CHG  1  75   1
M  ISO  4  38 100  61 101  67 100  82 101
M  END
> <Batch ID>
0028

> <Smiles>
CNC(C)C(=O)NC(C(=O)N1Cc2cc([101O:1][101CH2:1]CNc3cc(F)c4c(c3)CCC(C)[100N:0]4[100C:0](=O)N3CCCC(n4nc(-c5ccc(Oc6ccc(F)cc6F)cc5)c(C(N)=O)c4N)C3)ccc2CC1C(=O)NC1CCCc2ccccc21)C(C)(C)C

> <Shape>
0.276

> <Color>
0.043

> <Negative vol penalty>
0.000

$$$$

  -OEChem-04042321313D

 90 99  0     1  0  0  0  0  0999 V2000
  -24.2899  -23.2652   17.8963 C   0  0  0  0  0  0  0  0  0  0  0  0
  -24.3041  -21.9153   18.2327 C   0  0  0  0  0  0  0  0  0  0  0  0
  -26.2893  -28.2621   18.9079 C   0  0  0  0  0  0  0  0  0  0  0  0
  -26.3749  -27.7556   21.2687 C   0  0  0  0  0  0  0  0  0  0  0  0
  -24.2250  -24.2317   18.8990 C   0  0  0  0  0  0  0  0  0  0  0  0
  -24.2545  -21.5313   19.5723 C   0  0  0  0  0  0  0  0  0  0  0  0
  -21.0064  -17.7320   20.3849 C   0  0  0  0  0  0  0  0  0  0  0  0
  -25.2463  -29.1590   19.1381 C   0  0  0  0  0  0  0  0  0  0  0  0
  -25.3318  -28.6526   21.4989 C   0  0  0  0  0  0  0  0  0  0  0  0
  -21.4284  -16.4488   20.0401 C   0  0  0  0  0  0  0  0  0  0  0  0
  -22.4516  -30.5404   22.6609 C   0  0  0  0  0  0  0  0  0  0  0  0
  -21.4197  -30.1319   23.5057 C   0  0  0  0  0  0  0  0  0  0  0  0
  -21.9509  -16.0057   22.3531 C   0  0  0  0  0  0  0  0  0  0  0  0
  -28.6143  -15.9465   21.8558 C   0  0  0  0  0  0  0  0  0  0  0  0
  -29.5964  -15.7504   19.6572 C   0  0  0  0  0  0  0  0  0  0  0  0
  -20.9338  -28.2889   22.0210 C   0  0  0  0  0  0  0  0  0  0  0  0
  -26.8536  -27.5602   19.9732 C   0  0  0  0  0  0  0  0  0  0  0  0
  -29.3105  -26.9123   19.7460 C   0  0  0  0  0  0  0  0  0  0  0  0
  -24.1648  -23.8591   20.2511 C   0  0  0  0  0  0  0  0  0  0  0  0
  -21.0638  -18.1663   21.7170 C   0  0  0  0  0  0  0  0  0  0  0  0
  -24.1900  -22.4937   20.5941 C   0  0  0  0  0  0  0  0  0  0  0  0
  -21.5266  -17.2940   22.7125 C   0  0  0  0  0  0  0  0  0  0  0  0
  -29.3915  -16.4805   20.8280 C   0  0  0  0  0  0  0  0  0  0  0  0
  -28.0420  -14.6824   21.7129 C   0  0  0  0  0  0  0  0  0  0  0  0
  -29.0242  -14.4864   19.5142 C   0  0  0  0  0  0  0  0  0  0  0  0
  -28.2470  -13.9524   20.5421 C   0  0  0  0  0  0  0  0  0  0  0  0
  -24.7675  -29.3544   20.4336 C   0  0  0  0  0  0  0  0  0  0  0  0
  -21.9035  -15.5864   21.0238 C   0  0  0  0  0  0  0  0  0  0  0  0
  -22.7246  -29.8233   21.4960 C   0  0  0  0  0  0  0  0  0  0  0  0
  -20.6608  -29.0061   23.1858 C   0  0  0  0  0  0  0  0  0  0  0  0
  -21.9657  -28.6975   21.1761 C   0  0  0  0  0  0  0  0  0  0  0  0
  -27.9307  -26.6331   19.7359 C   0  0  0  0  0  0  0  0  0  0  0  0
  -29.9068  -25.7069   19.4667 C   0  0  0  0  0  0  0  0  0  0  0  0
  -25.3213  -12.0839   21.3470 C   0  0  0  0  0  0  0  0  0  0  0  0
  -29.9922  -28.1505   19.9865 C   0  0  0  0  0  0  0  0  0  0  0  0
  -22.5994  -20.4849   23.2563 C   0  0  0  0  0  0  0  0  0  0  0  0
  -20.7939  -19.4866   25.7595 C   0  0  0  0  0  0  0  0  0  0  0  0
  -19.0109  -16.9729   27.2254 C   0  0  0  0  0  0  0  0  0  0  0  0
  -29.2558  -20.1693   20.6170 C   0  0  0  0  0  0  0  0  0  0  0  0
  -24.1433  -24.9407   21.3020 C   0  0  0  0  0  0  0  0  0  0  0  0
  -20.5797  -19.5442   22.0766 C   0  0  0  0  0  0  0  0  0  0  0  0
  -21.5893  -17.7048   24.1602 C   0  0  0  0  0  0  0  0  0  0  0  0
  -23.7154  -24.4427   22.6801 C   0  0  0  0  0  0  0  0  0  0  0  0
  -28.4215  -21.4905   17.3527 C   0  0  0  0  0  0  0  0  0  0  0  0
  -24.4482  -23.1521   23.0325 C   0  0  0  0  0  0  0  0  0  0  0  0
  -28.3451  -22.9906   17.6422 C   0  0  0  0  0  0  0  0  0  0  0  0
  -27.8678  -20.6740   18.5167 C   0  0  0  0  0  0  0  0  0  0  0  0
  -25.2444  -13.4256   19.7316 C   0  0  0  0  0  0  0  0  0  0  0  0
  -28.4379  -22.4557   20.1211 C   0  0  0  0  0  0  0  0  0  0  0  0
  -24.1125  -22.0370   22.0348 C   0  0  1  0  0  0  0  0  0  0  0  0
  -24.1480  -12.7965   20.6334 C   0  0  2  0  0  0  0  0  0  0  0  0
  -21.1643  -20.0596   23.3880 C   0  0  1  0  0  0  0  0  0  0  0  0
  -29.0035  -23.3352   18.9912 C   0  0  2  0  0  0  0  0  0  0  0  0
  -27.2130  -14.1338   22.8280 C   0  0  0  0  0  0  0  0  0  0  0  0
  -17.6816  -16.4436   29.2870 C   0  0  0  0  0  0  0  0  0  0  0  0
  -23.3809  -19.2095   27.3535 C   0  0  0  0  0  0  0  0  0  0  0  0
  -22.1277  -17.8140   29.0119 C   0  0  0  0  0  0  0  0  0  0  0  0
  -21.4678  -20.1894   28.6318 C   0  0  0  0  0  0  0  0  0  0  0  0
  -16.5556  -16.4656   25.6527 C   0  0  0  0  0  0  0  0  0  0  0  0
  -30.4461  -11.8476   17.1247 C   0  0  0  0  0  0  0  0  0  0  0  0
  -31.5408  -13.0676   18.9992 C   0  0  0  0  0  0  0  0  0  0  0  0
  -27.6305  -12.5921   20.3883 C   0  0  0  0  0  0  0  0  0  0  0  0
  -30.0039  -17.8316   20.9811 C   0  0  0  0  0  0  0  0  0  0  0  0
  -29.2587  -13.7250   18.2505 C   0  0  0  0  0  0  0  0  0  0  0  0
  -23.3437  -13.7528   21.4926 C   0  0  0  0  0  0  0  0  0  1  0  0
  -20.9599  -18.4627   26.8563 C   0  0  1  0  0  0  0  0  0  0  0  0
  -17.6296  -16.9521   27.8547 C   0  0  2  0  0  0  0  0  0  0  0  0
  -21.9848  -18.9115   27.9359 C   0  0  0  0  0  0  0  0  0  0  0  0
  -27.6660  -25.3510   19.4710 N   0  0  0  0  0  0  0  0  0  0  0  0
  -28.8876  -24.8139   19.3119 N   0  0  0  0  0  0  0  0  0  0  0  0
  -26.2040  -12.6367   20.4858 N   0  0  0  0  0  0  0  0  0  0  0  0
  -21.1106  -19.0642   24.4606 N   0  0  0  0  0  0  0  0  0  0  0  0
  -28.5493  -21.0366   19.7673 N   0  0  0  0  0  0  0  0  0  0  0  0
  -31.1982  -25.3344   19.3407 N   0  0  0  0  0  0  0  0  0  0  0  0
  -29.2269  -29.2927   20.2585 N   0  0  0  0  0  0  0  0  0  0  0  0
  -22.8078  -21.4795   22.3200 N   0  0  0  0  0  0  0  0  0  0  0  0
  -19.6220  -18.1998   27.3752 N   0  0  0  0  0  0  0  0  0  0  0  0
  -29.3084  -18.8407   20.2136 N   0  0  0  0  0  0  0  0  0  0  0  0
  -16.7183  -16.0677   27.0748 N   0  3  0  0  0  0  0  0  0  0  0  0
  -30.2321  -12.6104   18.4071 N   0  3  0  0  0  0  0  0  0  0  0  0
  -25.4468  -11.3399   22.2923 O   0  0  0  0  0  0  0  0  0  0  0  0
  -31.2423  -28.2448   19.9447 O   0  0  0  0  0  0  0  0  0  0  0  0
  -23.4541  -19.9512   23.9537 O   0  0  0  0  0  0  0  0  0  0  0  0
  -20.3910  -20.6173   26.0437 O   0  0  0  0  0  0  0  0  0  0  0  0
  -19.5004  -15.9971   26.6608 O   0  0  0  0  0  0  0  0  0  0  0  0
  -29.8044  -20.5518   21.6562 O   0  0  0  0  0  0  0  0  0  0  0  0
  -23.7499  -30.2298   20.6587 O   0  0  0  0  0  0  0  0  0  0  0  0
  -22.3167  -14.3335   20.6899 O   0  0  0  0  0  0  0  0  0  1  0  0
  -19.6709  -28.6129   23.9981 F   0  0  0  0  0  0  0  0  0  0  0  0
  -22.2241  -28.0038   20.0590 F   0  0  0  0  0  0  0  0  0  0  0  0
  1  2  1  0  0  0  0
  1  5  2  0  0  0  0
  2  6  2  0  0  0  0
  3  8  2  0  0  0  0
  3 17  1  0  0  0  0
  4  9  1  0  0  0  0
  4 17  2  0  0  0  0
  5 19  1  0  0  0  0
  6 21  1  0  0  0  0
  7 10  2  0  0  0  0
  7 20  1  0  0  0  0
  8 27  1  0  0  0  0
  9 27  2  0  0  0  0
 10 28  1  0  0  0  0
 11 12  2  0  0  0  0
 11 29  1  0  0  0  0
 12 30  1  0  0  0  0
 13 22  1  0  0  0  0
 13 28  2  0  0  0  0
 14 23  1  0  0  0  0
 14 24  2  0  0  0  0
 15 23  2  0  0  0  0
 15 25  1  0  0  0  0
 16 30  2  0  0  0  0
 16 31  1  0  0  0  0
 17 32  1  0  0  0  0
 18 32  1  0  0  0  0
 18 33  2  0  0  0  0
 18 35  1  0  0  0  0
 19 21  2  0  0  0  0
 19 40  1  0  0  0  0
 20 22  2  0  0  0  0
 20 41  1  0  0  0  0
 21 50  1  0  0  0  0
 22 42  1  0  0  0  0
 23 63  1  0  0  0  0
 24 26  1  0  0  0  0
 24 54  1  0  0  0  0
 25 26  2  0  0  0  0
 25 64  1  0  0  0  0
 26 62  1  0  0  0  0
 27 87  1  0  0  0  0
 28 88  1  0  0  0  0
 29 31  2  0  0  0  0
 29 87  1  0  0  0  0
 30 89  1  0  0  0  0
 31 90  1  0  0  0  0
 32 69  2  0  0  0  0
 33 70  1  0  0  0  0
 33 74  1  0  0  0  0
 34 51  1  0  0  0  0
 34 71  1  0  0  0  0
 34 81  2  0  0  0  0
 35 75  1  0  0  0  0
 35 82  2  0  0  0  0
 36 52  1  0  0  0  0
 36 76  1  0  0  0  0
 36 83  2  0  0  0  0
 37 66  1  0  0  0  0
 37 72  1  0  0  0  0
 37 84  2  0  0  0  0
 38 67  1  0  0  0  0
 38 77  1  0  0  0  0
 38 85  2  0  0  0  0
 39 73  1  0  0  0  0
 39 78  1  0  0  0  0
 39 86  2  0  0  0  0
 40 43  1  0  0  0  0
 41 52  1  0  0  0  0
 42 72  1  0  0  0  0
 43 45  1  0  0  0  0
 44 46  1  0  0  0  0
 44 47  1  0  0  0  0
 45 50  1  0  0  0  0
 46 53  1  0  0  0  0
 47 73  1  0  0  0  0
 48 51  1  0  0  0  0
 48 71  1  0  0  0  0
 49 53  1  0  0  0  0
 49 73  1  0  0  0  0
 50 76  1  0  0  0  0
 51 65  1  0  0  0  0
 52 72  1  0  0  0  0
 53 70  1  0  0  0  0
 55 67  1  0  0  0  0
 56 68  1  0  0  0  0
 57 68  1  0  0  0  0
 58 68  1  0  0  0  0
 59 79  1  0  0  0  0
 60 80  1  0  0  0  0
 61 80  1  0  0  0  0
 62 71  1  0  0  0  0
 63 78  1  0  0  0  0
 64 80  1  0  0  0  0
 65 88  1  0  0  0  0
 66 68  1  0  0  0  0
 66 77  1  0  0  0  0
 67 79  1  0  0  0  0
 69 70  1  0  0  0  0
M  CHG  2  79   1  80   1
M  ISO  4  39 100  65 101  78 100  88 101
M  END
> <Batch ID>
0028

> <Smiles>
CNC(C)C(=O)NC(C(=O)N1Cc2cc([101O:1][101CH2:1]C3CN(Cc4c(C)cc(C[100NH:0][100C:0](=O)N5CCCC(n6nc(-c7ccc(Oc8ccc(F)cc8F)cc7)c(C(N)=O)c6N)C5)cc4CN(C)C)C3=O)ccc2CC1C(=O)NC1CCCc2ccccc21)C(C)(C)C

> <Shape>
0.235

> <Color>
0.070

> <Negative vol penalty>
0.000

$$$$

  -OEChem-04042321313D

 86 95  0     1  0  0  0  0  0999 V2000
  -36.6780  -29.3686   21.8226 C   0  0  0  0  0  0  0  0  0  0  0  0
  -36.2710  -28.4554   22.7900 C   0  0  0  0  0  0  0  0  0  0  0  0
  -23.2343   -9.7781   19.9198 C   0  0  0  0  0  0  0  0  0  0  0  0
  -23.6938   -9.9105   22.2880 C   0  0  0  0  0  0  0  0  0  0  0  0
  -35.9482  -29.5037   20.6423 C   0  0  0  0  0  0  0  0  0  0  0  0
  -35.1333  -27.6776   22.5781 C   0  0  0  0  0  0  0  0  0  0  0  0
  -34.2240  -21.9072   24.4172 C   0  0  0  0  0  0  0  0  0  0  0  0
  -32.2390  -15.5518   24.5653 C   0  0  0  0  0  0  0  0  0  0  0  0
  -31.7272  -14.7858   23.5180 C   0  0  0  0  0  0  0  0  0  0  0  0
  -22.4880   -8.6185   20.1294 C   0  0  0  0  0  0  0  0  0  0  0  0
  -22.9474   -8.7509   22.4976 C   0  0  0  0  0  0  0  0  0  0  0  0
  -33.5481  -21.3666   25.5102 C   0  0  0  0  0  0  0  0  0  0  0  0
  -20.8633   -6.0269   23.7037 C   0  0  0  0  0  0  0  0  0  0  0  0
  -19.9642   -6.0174   24.7700 C   0  0  0  0  0  0  0  0  0  0  0  0
  -31.5933  -21.0438   24.1342 C   0  0  0  0  0  0  0  0  0  0  0  0
  -18.7848   -7.8856   23.7923 C   0  0  0  0  0  0  0  0  0  0  0  0
  -23.8373  -10.4241   20.9991 C   0  0  0  0  0  0  0  0  0  0  0  0
  -24.1405  -12.9492   20.8000 C   0  0  0  0  0  0  0  0  0  0  0  0
  -34.8064  -28.7202   20.4117 C   0  0  0  0  0  0  0  0  0  0  0  0
  -33.5849  -22.0305   23.1751 C   0  0  0  0  0  0  0  0  0  0  0  0
  -34.3867  -27.8033   21.3943 C   0  0  0  0  0  0  0  0  0  0  0  0
  -32.2640  -21.5840   23.0263 C   0  0  0  0  0  0  0  0  0  0  0  0
  -32.2258  -15.0508   25.8671 C   0  0  0  0  0  0  0  0  0  0  0  0
  -31.7008  -13.7838   26.1215 C   0  0  0  0  0  0  0  0  0  0  0  0
  -31.1890  -13.0178   25.0742 C   0  0  0  0  0  0  0  0  0  0  0  0
  -31.2022  -13.5188   23.7724 C   0  0  0  0  0  0  0  0  0  0  0  0
  -22.3445   -8.1049   21.4183 C   0  0  0  0  0  0  0  0  0  0  0  0
  -32.2316  -20.9375   25.3696 C   0  0  0  0  0  0  0  0  0  0  0  0
  -20.7232   -6.9659   22.6816 C   0  0  0  0  0  0  0  0  0  0  0  0
  -18.9249   -6.9466   24.8144 C   0  0  0  0  0  0  0  0  0  0  0  0
  -19.6839   -7.8951   22.7260 C   0  0  0  0  0  0  0  0  0  0  0  0
  -24.6088  -11.6217   20.7831 C   0  0  0  0  0  0  0  0  0  0  0  0
  -25.2549  -13.7096   20.5421 C   0  0  0  0  0  0  0  0  0  0  0  0
  -32.2356  -17.5181   28.7419 C   0  0  0  0  0  0  0  0  0  0  0  0
  -33.0279  -17.4951   29.8180 C   0  0  0  0  0  0  0  0  0  0  0  0
  -22.8167  -13.4501   21.0283 C   0  0  0  0  0  0  0  0  0  0  0  0
  -32.8081  -24.4643   21.2839 C   0  0  0  0  0  0  0  0  0  0  0  0
  -31.9247  -22.0957   19.2512 C   0  0  0  0  0  0  0  0  0  0  0  0
  -30.9257  -18.8594   18.8331 C   0  0  0  0  0  0  0  0  0  0  0  0
  -31.1022  -12.7923   21.3623 C   0  0  0  0  0  0  0  0  0  0  0  0
  -34.0228  -28.9354   19.1411 C   0  0  0  0  0  0  0  0  0  0  0  0
  -34.3365  -22.5912   21.9991 C   0  0  0  0  0  0  0  0  0  0  0  0
  -31.5396  -21.6756   21.7090 C   0  0  0  0  0  0  0  0  0  0  0  0
  -33.0428  -27.8067   18.8313 C   0  0  0  0  0  0  0  0  0  0  0  0
  -29.4732  -13.5257   18.2824 C   0  0  0  0  0  0  0  0  0  0  0  0
  -32.2474  -27.4331   20.0782 C   0  0  0  0  0  0  0  0  0  0  0  0
  -27.9975  -13.2473   18.5775 C   0  0  0  0  0  0  0  0  0  0  0  0
  -30.3910  -12.5342   18.9953 C   0  0  0  0  0  0  0  0  0  0  0  0
  -28.6951  -12.1357   20.7373 C   0  0  0  0  0  0  0  0  0  0  0  0
  -30.9821  -17.5382   27.0986 C   0  0  0  0  0  0  0  0  0  0  0  0
  -33.1721  -26.9239   21.1904 C   0  0  1  0  0  0  0  0  0  0  0  0
  -31.4945  -18.6499   28.0523 C   0  0  2  0  0  0  0  0  0  0  0  0
  -33.4195  -23.1431   20.9119 C   0  0  1  0  0  0  0  0  0  0  0  0
  -27.7347  -13.1487   20.0930 C   0  0  2  0  0  0  0  0  0  0  0  0
  -31.6881  -13.2492   27.5187 C   0  0  0  0  0  0  0  0  0  0  0  0
  -30.6261  -11.6583   25.3495 C   0  0  0  0  0  0  0  0  0  0  0  0
  -30.2414  -17.2226   17.0582 C   0  0  0  0  0  0  0  0  0  0  0  0
  -29.1977  -23.4506   19.0566 C   0  0  0  0  0  0  0  0  0  0  0  0
  -28.2919  -21.3310   18.0794 C   0  0  0  0  0  0  0  0  0  0  0  0
  -30.0892  -22.5839   16.8867 C   0  0  0  0  0  0  0  0  0  0  0  0
  -33.1768  -17.0476   19.4725 C   0  0  0  0  0  0  0  0  0  0  0  0
  -32.7825  -15.8954   26.9751 C   0  0  0  0  0  0  0  0  0  0  0  0
  -32.3520  -19.7239   27.4113 C   0  0  0  0  0  0  0  0  0  1  0  0
  -30.6541  -21.3195   19.0019 C   0  0  1  0  0  0  0  0  0  0  0  0
  -31.3956  -17.7753   17.8799 C   0  0  2  0  0  0  0  0  0  0  0  0
  -29.5710  -22.1712   18.2816 C   0  0  0  0  0  0  0  0  0  0  0  0
  -25.9185  -11.5400   20.5341 N   0  0  0  0  0  0  0  0  0  0  0  0
  -26.2827  -12.8258   20.3920 N   0  0  0  0  0  0  0  0  0  0  0  0
  -32.3150  -22.2370   20.5904 N   0  0  0  0  0  0  0  0  0  0  0  0
  -30.0873  -12.4975   20.4275 N   0  0  0  0  0  0  0  0  0  0  0  0
  -25.4459  -15.0414   20.4313 N   0  0  0  0  0  0  0  0  0  0  0  0
  -21.7885  -12.5311   21.2784 N   0  0  0  0  0  0  0  0  0  0  0  0
  -30.6878  -12.7580   22.6934 N   0  0  0  0  0  0  0  0  0  0  0  0
  -33.5736  -25.5584   20.9283 N   0  0  0  0  0  0  0  0  0  0  0  0
  -31.0468  -20.1155   18.2775 N   0  0  0  0  0  0  0  0  0  0  0  0
  -31.7313  -16.4998   27.8298 N   0  3  1  0  0  0  0  0  0  0  0  0
  -32.0133  -16.6509   18.6383 N   0  3  0  0  0  0  0  0  0  0  0  0
  -22.5502  -14.6754   20.9949 O   0  0  0  0  0  0  0  0  0  0  0  0
  -31.7217  -24.4893   21.8501 O   0  0  0  0  0  0  0  0  0  0  0  0
  -32.5516  -22.5536   18.2926 O   0  0  0  0  0  0  0  0  0  0  0  0
  -30.4910  -18.6159   19.9566 O   0  0  0  0  0  0  0  0  0  0  0  0
  -32.2474  -13.0826   21.0069 O   0  0  0  0  0  0  0  0  0  0  0  0
  -21.6161   -6.9735   21.6232 O   0  0  0  0  0  0  0  0  0  0  0  0
  -31.5694  -20.4100   26.4350 O   0  0  0  0  0  0  0  0  0  1  0  0
  -18.0607   -6.9364   25.8377 F   0  0  0  0  0  0  0  0  0  0  0  0
  -19.5435   -8.7988   21.7464 F   0  0  0  0  0  0  0  0  0  0  0  0
  1  2  1  0  0  0  0
  1  5  2  0  0  0  0
  2  6  2  0  0  0  0
  3 10  2  0  0  0  0
  3 17  1  0  0  0  0
  4 11  1  0  0  0  0
  4 17  2  0  0  0  0
  5 19  1  0  0  0  0
  6 21  1  0  0  0  0
  7 12  2  0  0  0  0
  7 20  1  0  0  0  0
  8  9  2  0  0  0  0
  8 23  1  0  0  0  0
  9 26  1  0  0  0  0
 10 27  1  0  0  0  0
 11 27  2  0  0  0  0
 12 28  1  0  0  0  0
 13 14  2  0  0  0  0
 13 29  1  0  0  0  0
 14 30  1  0  0  0  0
 15 22  1  0  0  0  0
 15 28  2  0  0  0  0
 16 30  2  0  0  0  0
 16 31  1  0  0  0  0
 17 32  1  0  0  0  0
 18 32  1  0  0  0  0
 18 33  2  0  0  0  0
 18 36  1  0  0  0  0
 19 21  2  0  0  0  0
 19 41  1  0  0  0  0
 20 22  2  0  0  0  0
 20 42  1  0  0  0  0
 21 51  1  0  0  0  0
 22 43  1  0  0  0  0
 23 24  2  0  0  0  0
 23 62  1  0  0  0  0
 24 25  1  0  0  0  0
 24 55  1  0  0  0  0
 25 26  2  0  0  0  0
 25 56  1  0  0  0  0
 26 73  1  0  0  0  0
 27 83  1  0  0  0  0
 28 84  1  0  0  0  0
 29 31  2  0  0  0  0
 29 83  1  0  0  0  0
 30 85  1  0  0  0  0
 31 86  1  0  0  0  0
 32 67  2  0  0  0  0
 33 68  1  0  0  0  0
 33 71  1  0  0  0  0
 34 35  2  0  0  0  0
 34 52  1  0  0  0  0
 34 76  1  0  0  0  0
 36 72  1  0  0  0  0
 36 78  2  0  0  0  0
 37 53  1  0  0  0  0
 37 74  1  0  0  0  0
 37 79  2  0  0  0  0
 38 64  1  0  0  0  0
 38 69  1  0  0  0  0
 38 80  2  0  0  0  0
 39 65  1  0  0  0  0
 39 75  1  0  0  0  0
 39 81  2  0  0  0  0
 40 70  1  0  0  0  0
 40 73  1  0  0  0  0
 40 82  2  0  0  0  0
 41 44  1  0  0  0  0
 42 53  1  0  0  0  0
 43 69  1  0  0  0  0
 44 46  1  0  0  0  0
 45 47  1  0  0  0  0
 45 48  1  0  0  0  0
 46 51  1  0  0  0  0
 47 54  1  0  0  0  0
 48 70  1  0  0  0  0
 49 54  1  0  0  0  0
 49 70  1  0  0  0  0
 50 52  1  0  0  0  0
 50 76  1  0  0  0  0
 51 74  1  0  0  0  0
 52 63  1  0  0  0  0
 53 69  1  0  0  0  0
 54 68  1  0  0  0  0
 57 65  1  0  0  0  0
 58 66  1  0  0  0  0
 59 66  1  0  0  0  0
 60 66  1  0  0  0  0
 61 77  1  0  0  0  0
 62 76  1  0  0  0  0
 63 84  1  0  0  0  0
 64 66  1  0  0  0  0
 64 75  1  0  0  0  0
 65 77  1  0  0  0  0
 67 68  1  0  0  0  0
M  CHG  2  76   1  77   1
M  ISO  4  40 100  63 101  73 100  84 101
M  END
> <Batch ID>
0028

> <Smiles>
C=C1C([101CH2:1][101O:1]c2ccc3c(c2)CN(C(=O)C(NC(=O)C(C)NC)C(C)(C)C)C(C(=O)NC2CCCc4ccccc42)C3)CN1Cc1ccc([100NH:0][100C:0](=O)N2CCCC(n3nc(-c4ccc(Oc5ccc(F)cc5F)cc4)c(C(N)=O)c3N)C2)c(C)c1C

> <Shape>
0.166

> <Color>
0.180

> <Negative vol penalty>
0.000

$$$$

  -OEChem-04042321313D

 88 97  0     1  0  0  0  0  0999 V2000
  -27.8754  -37.1122   24.1287 C   0  0  0  0  0  0  0  0  0  0  0  0
  -28.3644  -36.2715   23.1339 C   0  0  0  0  0  0  0  0  0  0  0  0
  -22.5788  -11.0902   21.2106 C   0  0  0  0  0  0  0  0  0  0  0  0
  -22.8765  -13.4732   20.9463 C   0  0  0  0  0  0  0  0  0  0  0  0
  -27.1421  -36.5822   25.1895 C   0  0  0  0  0  0  0  0  0  0  0  0
  -28.1213  -34.9000   23.2000 C   0  0  0  0  0  0  0  0  0  0  0  0
  -26.9903  -29.2210   18.9827 C   0  0  0  0  0  0  0  0  0  0  0  0
  -21.3971  -11.3161   21.9164 C   0  0  0  0  0  0  0  0  0  0  0  0
  -21.6948  -13.6991   21.6522 C   0  0  0  0  0  0  0  0  0  0  0  0
  -27.4647  -27.9278   18.7674 C   0  0  0  0  0  0  0  0  0  0  0  0
  -20.6877  -13.7295   24.8795 C   0  0  0  0  0  0  0  0  0  0  0  0
  -20.6982  -14.7212   25.8603 C   0  0  0  0  0  0  0  0  0  0  0  0
  -26.1181  -27.1345   20.6049 C   0  0  0  0  0  0  0  0  0  0  0  0
  -28.6621  -22.7705   20.6775 C   0  0  0  0  0  0  0  0  0  0  0  0
  -27.8359  -21.3963   18.3946 C   0  0  0  0  0  0  0  0  0  0  0  0
  -18.9567  -15.9081   24.6789 C   0  0  0  0  0  0  0  0  0  0  0  0
  -23.3185  -12.1688   20.7255 C   0  0  0  0  0  0  0  0  0  0  0  0
  -24.6891  -11.2157   18.7966 C   0  0  0  0  0  0  0  0  0  0  0  0
  -26.8817  -35.2048   25.2635 C   0  0  0  0  0  0  0  0  0  0  0  0
  -26.0831  -29.4830   20.0194 C   0  0  0  0  0  0  0  0  0  0  0  0
  -27.3850  -34.3509   24.2635 C   0  0  0  0  0  0  0  0  0  0  0  0
  -25.6318  -28.4314   20.8297 C   0  0  0  0  0  0  0  0  0  0  0  0
  -27.6493  -23.2963   19.8753 C   0  0  0  0  0  0  0  0  0  0  0  0
  -28.8487  -20.8706   19.1968 C   0  0  0  0  0  0  0  0  0  0  0  0
  -20.9551  -12.6205   22.1372 C   0  0  0  0  0  0  0  0  0  0  0  0
  -27.0308  -26.8848   19.5804 C   0  0  0  0  0  0  0  0  0  0  0  0
  -19.8118  -13.8271   23.7983 C   0  0  0  0  0  0  0  0  0  0  0  0
  -19.8327  -15.8105   25.7600 C   0  0  0  0  0  0  0  0  0  0  0  0
  -29.2618  -21.5577   20.3382 C   0  0  0  0  0  0  0  0  0  0  0  0
  -27.2362  -22.6092   18.7339 C   0  0  0  0  0  0  0  0  0  0  0  0
  -18.9463  -14.9164   23.6980 C   0  0  0  0  0  0  0  0  0  0  0  0
  -24.5395  -11.9361   19.9968 C   0  0  0  0  0  0  0  0  0  0  0  0
  -26.0324  -11.2863   18.5189 C   0  0  0  0  0  0  0  0  0  0  0  0
  -30.1472  -19.3180   17.6909 C   0  0  0  0  0  0  0  0  0  0  0  0
  -30.7831  -20.0982   16.8054 C   0  0  0  0  0  0  0  0  0  0  0  0
  -23.7020  -10.5430   18.0036 C   0  0  0  0  0  0  0  0  0  0  0  0
  -26.1332  -31.2744   22.6447 C   0  0  0  0  0  0  0  0  0  0  0  0
  -23.0262  -30.3660   22.8537 C   0  0  0  0  0  0  0  0  0  0  0  0
  -20.6117  -28.0929   22.0473 C   0  0  0  0  0  0  0  0  0  0  0  0
  -30.3195  -15.0861   19.8822 C   0  0  0  0  0  0  0  0  0  0  0  0
  -26.1247  -34.6721   26.4543 C   0  0  0  0  0  0  0  0  0  0  0  0
  -25.5604  -30.8788   20.2216 C   0  0  0  0  0  0  0  0  0  0  0  0
  -24.6430  -28.6564   21.9433 C   0  0  0  0  0  0  0  0  0  0  0  0
  -30.2018  -17.8096   17.5812 C   0  0  0  0  0  0  0  0  0  0  0  0
  -25.5914  -33.2560   26.2532 C   0  0  0  0  0  0  0  0  0  0  0  0
  -30.2886  -11.7032   20.6448 C   0  0  0  0  0  0  0  0  0  0  0  0
  -26.6737  -32.3566   25.6644 C   0  0  0  0  0  0  0  0  0  0  0  0
  -28.8277  -11.2971   20.4552 C   0  0  0  0  0  0  0  0  0  0  0  0
  -30.3916  -13.0685   21.3142 C   0  0  0  0  0  0  0  0  0  0  0  0
  -28.2094  -13.7646   20.3790 C   0  0  0  0  0  0  0  0  0  0  0  0
  -29.1447  -18.4566   19.6601 C   0  0  0  0  0  0  0  0  0  0  0  0
  -27.1211  -32.8610   24.2871 C   0  0  1  0  0  0  0  0  0  0  0  0
  -25.0333  -31.1209   21.6326 C   0  0  1  0  0  0  0  0  0  0  0  0
  -28.0456  -12.3880   19.7028 C   0  0  2  0  0  0  0  0  0  0  0  0
  -30.0582  -17.3894   19.0430 C   0  0  1  0  0  0  0  0  0  0  0  0
  -30.7736  -21.5882   16.8507 C   0  0  0  0  0  0  0  0  0  0  0  0
  -18.1757  -27.5999   22.3939 C   0  0  0  0  0  0  0  0  0  0  0  0
  -23.6243  -29.4186   25.6918 C   0  0  0  0  0  0  0  0  0  0  0  0
  -21.4894  -28.1120   25.6310 C   0  0  0  0  0  0  0  0  0  0  0  0
  -21.4348  -30.5975   25.4252 C   0  0  0  0  0  0  0  0  0  0  0  0
  -28.1335  -15.8560   18.8656 C   0  0  0  0  0  0  0  0  0  0  0  0
  -20.0484  -28.2478   19.1460 C   0  0  0  0  0  0  0  0  0  0  0  0
  -27.0062  -24.6010   20.2433 C   0  0  0  0  0  0  0  0  0  1  0  0
  -22.2902  -29.2121   23.4910 C   0  0  1  0  0  0  0  0  0  0  0  0
  -19.2074  -28.2672   21.4978 C   0  0  2  0  0  0  0  0  0  0  0  0
  -22.2298  -29.3308   25.0401 C   0  0  0  0  0  0  0  0  0  0  0  0
  -25.6955  -12.4280   20.4504 N   0  0  0  0  0  0  0  0  0  0  0  0
  -26.5843  -12.0159   19.5304 N   0  0  0  0  0  0  0  0  0  0  0  0
  -29.4528  -19.6458   18.8518 N   0  0  0  0  0  0  0  0  0  0  0  0
  -24.1660  -30.0398   22.1052 N   0  0  0  0  0  0  0  0  0  0  0  0
  -29.6329  -14.0788   20.5762 N   0  0  0  0  0  0  0  0  0  0  0  0
  -26.7835  -10.7947   17.5107 N   0  0  0  0  0  0  0  0  0  0  0  0
  -22.3683  -10.5691   18.4335 N   0  0  0  0  0  0  0  0  0  0  0  0
  -26.1483  -32.5028   23.2772 N   0  0  0  0  0  0  0  0  0  0  0  0
  -20.9836  -29.1546   22.8447 N   0  0  0  0  0  0  0  0  0  0  0  0
  -29.5457  -16.0354   19.1977 N   0  0  0  0  0  0  0  0  0  0  0  0
  -19.1056  -27.6682   20.1370 N   0  3  0  0  0  0  0  0  0  0  0  0
  -23.9966   -9.9228   16.9538 O   0  0  0  0  0  0  0  0  0  0  0  0
  -26.9097  -30.3464   22.8385 O   0  0  0  0  0  0  0  0  0  0  0  0
  -22.6012  -31.5136   23.0083 O   0  0  0  0  0  0  0  0  0  0  0  0
  -21.3077  -27.1112   21.7974 O   0  0  0  0  0  0  0  0  0  0  0  0
  -31.5561  -15.1401   19.8799 O   0  0  0  0  0  0  0  0  0  0  0  0
  -19.8020  -12.8413   22.8258 O   0  0  0  0  0  0  0  0  0  0  0  0
  -27.4927  -25.6217   19.3728 O   0  0  0  0  0  0  0  0  0  1  0  0
  -19.8418  -16.7619   26.7028 F   0  0  0  0  0  0  0  0  0  0  0  0
  -30.2342  -21.0615   21.1163 F   0  0  0  0  0  0  0  0  0  0  0  0
  -26.2638  -23.1066   17.9568 F   0  0  0  0  0  0  0  0  0  0  0  0
  -18.1017  -15.0150   22.6623 F   0  0  0  0  0  0  0  0  0  0  0  0
  1  2  1  0  0  0  0
  1  5  2  0  0  0  0
  2  6  2  0  0  0  0
  3  8  2  0  0  0  0
  3 17  1  0  0  0  0
  4  9  1  0  0  0  0
  4 17  2  0  0  0  0
  5 19  1  0  0  0  0
  6 21  1  0  0  0  0
  7 10  2  0  0  0  0
  7 20  1  0  0  0  0
  8 25  1  0  0  0  0
  9 25  2  0  0  0  0
 10 26  1  0  0  0  0
 11 12  2  0  0  0  0
 11 27  1  0  0  0  0
 12 28  1  0  0  0  0
 13 22  1  0  0  0  0
 13 26  2  0  0  0  0
 14 23  2  0  0  0  0
 14 29  1  0  0  0  0
 15 24  1  0  0  0  0
 15 30  2  0  0  0  0
 16 28  2  0  0  0  0
 16 31  1  0  0  0  0
 17 32  1  0  0  0  0
 18 32  1  0  0  0  0
 18 33  2  0  0  0  0
 18 36  1  0  0  0  0
 19 21  2  0  0  0  0
 19 41  1  0  0  0  0
 20 22  2  0  0  0  0
 20 42  1  0  0  0  0
 21 52  1  0  0  0  0
 22 43  1  0  0  0  0
 23 30  1  0  0  0  0
 23 63  1  0  0  0  0
 24 29  2  0  0  0  0
 24 69  1  0  0  0  0
 25 83  1  0  0  0  0
 26 84  1  0  0  0  0
 27 31  2  0  0  0  0
 27 83  1  0  0  0  0
 28 85  1  0  0  0  0
 29 86  1  0  0  0  0
 30 87  1  0  0  0  0
 31 88  1  0  0  0  0
 32 67  2  0  0  0  0
 33 68  1  0  0  0  0
 33 72  1  0  0  0  0
 34 35  2  0  0  0  0
 34 44  1  0  0  0  0
 34 69  1  0  0  0  0
 35 56  1  0  0  0  0
 36 73  1  0  0  0  0
 36 78  2  0  0  0  0
 37 53  1  0  0  0  0
 37 74  1  0  0  0  0
 37 79  2  0  0  0  0
 38 64  1  0  0  0  0
 38 70  1  0  0  0  0
 38 80  2  0  0  0  0
 39 65  1  0  0  0  0
 39 75  1  0  0  0  0
 39 81  2  0  0  0  0
 40 71  1  0  0  0  0
 40 76  1  0  0  0  0
 40 82  2  0  0  0  0
 41 45  1  0  0  0  0
 42 53  1  0  0  0  0
 43 70  1  0  0  0  0
 44 55  1  0  0  0  0
 45 47  1  0  0  0  0
 46 48  1  0  0  0  0
 46 49  1  0  0  0  0
 47 52  1  0  0  0  0
 48 54  1  0  0  0  0
 49 71  1  0  0  0  0
 50 54  1  0  0  0  0
 50 71  1  0  0  0  0
 51 55  1  0  0  0  0
 51 69  1  0  0  0  0
 52 74  1  0  0  0  0
 53 70  1  0  0  0  0
 54 68  1  0  0  0  0
 55 76  1  0  0  0  0
 57 65  1  0  0  0  0
 58 66  1  0  0  0  0
 59 66  1  0  0  0  0
 60 66  1  0  0  0  0
 61 76  1  0  0  0  0
 62 77  1  0  0  0  0
 63 84  1  0  0  0  0
 64 66  1  0  0  0  0
 64 75  1  0  0  0  0
 65 77  1  0  0  0  0
 67 68  1  0  0  0  0
M  CHG  1  77   1
M  ISO  4  40 100  63 101  76 100  84 101
M  END
> <Batch ID>
0028

> <Smiles>
CC=C1CC([100N:0](C)[100C:0](=O)N2CCCC(n3nc(-c4ccc(Oc5ccc(F)cc5F)cc4)c(C(N)=O)c3N)C2)CN1c1cc(F)c([101CH2:1][101O:1]c2ccc3c(c2)CN(C(=O)C(NC(=O)C(C)NC)C(C)(C)C)C(C(=O)NC2CCCc4ccccc42)C3)cc1F

> <Shape>
0.309

> <Color>
0.081

> <Negative vol penalty>
0.000

$$$$

  -OEChem-04042321313D

 84 93  0     1  0  0  0  0  0999 V2000
  -26.7732  -33.0144   20.6860 C   0  0  0  0  0  0  0  0  0  0  0  0
  -27.2087  -31.6948   20.6207 C   0  0  0  0  0  0  0  0  0  0  0  0
  -23.0577   -9.9019   19.9093 C   0  0  0  0  0  0  0  0  0  0  0  0
  -23.8505   -9.8322   22.1904 C   0  0  0  0  0  0  0  0  0  0  0  0
  -25.5235  -33.3610   20.1741 C   0  0  0  0  0  0  0  0  0  0  0  0
  -26.3942  -30.7207   20.0445 C   0  0  0  0  0  0  0  0  0  0  0  0
  -28.9425  -27.6579   16.9187 C   0  0  0  0  0  0  0  0  0  0  0  0
  -22.3132   -8.7438   20.1326 C   0  0  0  0  0  0  0  0  0  0  0  0
  -23.1058   -8.6740   22.4138 C   0  0  0  0  0  0  0  0  0  0  0  0
  -29.7172  -26.6555   17.5009 C   0  0  0  0  0  0  0  0  0  0  0  0
  -19.8837   -7.8679   23.0368 C   0  0  0  0  0  0  0  0  0  0  0  0
  -19.1435   -7.7926   24.2167 C   0  0  0  0  0  0  0  0  0  0  0  0
  -27.9711  -25.0531   17.0506 C   0  0  0  0  0  0  0  0  0  0  0  0
  -29.1790  -19.7031   20.1748 C   0  0  0  0  0  0  0  0  0  0  0  0
  -31.4133  -19.4313   19.2969 C   0  0  0  0  0  0  0  0  0  0  0  0
  -20.3880   -5.8282   24.8721 C   0  0  0  0  0  0  0  0  0  0  0  0
  -23.8264  -10.4461   20.9382 C   0  0  0  0  0  0  0  0  0  0  0  0
  -24.1761  -12.9727   20.8949 C   0  0  0  0  0  0  0  0  0  0  0  0
  -24.6973  -32.3924   19.5826 C   0  0  0  0  0  0  0  0  0  0  0  0
  -27.6697  -27.3671   16.4071 C   0  0  0  0  0  0  0  0  0  0  0  0
  -25.1317  -31.0544   19.5254 C   0  0  0  0  0  0  0  0  0  0  0  0
  -27.1834  -26.0530   16.4602 C   0  0  0  0  0  0  0  0  0  0  0  0
  -30.6182  -17.9709   21.0496 C   0  0  0  0  0  0  0  0  0  0  0  0
  -30.1888  -20.0993   19.2980 C   0  0  0  0  0  0  0  0  0  0  0  0
  -22.3372   -8.1298   21.3848 C   0  0  0  0  0  0  0  0  0  0  0  0
  -29.2303  -25.3535   17.5695 C   0  0  0  0  0  0  0  0  0  0  0  0
  -20.8760   -6.9233   22.7746 C   0  0  0  0  0  0  0  0  0  0  0  0
  -19.3956   -6.7728   25.1343 C   0  0  0  0  0  0  0  0  0  0  0  0
  -29.3937  -18.6389   21.0507 C   0  0  0  0  0  0  0  0  0  0  0  0
  -31.6281  -18.3671   20.1727 C   0  0  0  0  0  0  0  0  0  0  0  0
  -21.1281   -5.9035   23.6922 C   0  0  0  0  0  0  0  0  0  0  0  0
  -24.5962  -11.6422   20.7080 C   0  0  0  0  0  0  0  0  0  0  0  0
  -25.2657  -13.7299   20.5402 C   0  0  0  0  0  0  0  0  0  0  0  0
  -22.9137  -13.4789   21.3486 C   0  0  0  0  0  0  0  0  0  0  0  0
  -24.7120  -28.3207   17.0751 C   0  0  0  0  0  0  0  0  0  0  0  0
  -23.9705  -26.5661   14.4495 C   0  0  0  0  0  0  0  0  0  0  0  0
  -24.8057  -24.0205   12.3354 C   0  0  0  0  0  0  0  0  0  0  0  0
  -30.7554  -14.7241   20.6821 C   0  0  0  0  0  0  0  0  0  0  0  0
  -23.3347  -32.8061   19.0856 C   0  0  0  0  0  0  0  0  0  0  0  0
  -26.8576  -28.4543   15.7582 C   0  0  0  0  0  0  0  0  0  0  0  0
  -25.8318  -25.6847   15.9071 C   0  0  0  0  0  0  0  0  0  0  0  0
  -22.6899  -31.7832   18.1539 C   0  0  0  0  0  0  0  0  0  0  0  0
  -29.5747  -12.4218   18.2362 C   0  0  0  0  0  0  0  0  0  0  0  0
  -22.8159  -30.3783   18.7344 C   0  0  0  0  0  0  0  0  0  0  0  0
  -28.1425  -12.1190   18.6802 C   0  0  0  0  0  0  0  0  0  0  0  0
  -30.5098  -12.6007   19.4302 C   0  0  0  0  0  0  0  0  0  0  0  0
  -28.6309  -13.2928   20.8671 C   0  0  0  0  0  0  0  0  0  0  0  0
  -30.9513  -22.0631   17.9222 C   0  0  0  0  0  0  0  0  0  0  0  0
  -28.9239  -22.1157   18.4829 C   0  0  0  0  0  0  0  0  0  0  0  0
  -24.2872  -29.9737   18.8856 C   0  0  1  0  0  0  0  0  0  0  0  0
  -25.3632  -28.1489   15.7319 C   0  0  1  0  0  0  0  0  0  0  0  0
  -27.6393  -13.1596   19.6986 C   0  0  2  0  0  0  0  0  0  0  0  0
  -29.8073  -23.0474   17.6407 C   0  0  0  0  0  0  0  0  0  1  0  0
  -23.9847  -22.7974   10.3039 C   0  0  0  0  0  0  0  0  0  0  0  0
  -21.9269  -25.0890   16.1677 C   0  0  0  0  0  0  0  0  0  0  0  0
  -21.8375  -23.3098   14.4086 C   0  0  0  0  0  0  0  0  0  0  0  0
  -21.1432  -25.6417   13.8580 C   0  0  0  0  0  0  0  0  0  0  0  0
  -27.1908  -24.7938   10.7631 C   0  0  0  0  0  0  0  0  0  0  0  0
  -30.8472  -16.8333   21.9867 C   0  0  0  0  0  0  0  0  0  0  0  0
  -23.5949  -25.1258   14.1973 C   0  0  1  0  0  0  0  0  0  0  0  0
  -24.8438  -23.9412   10.8199 C   0  0  2  0  0  0  0  0  0  0  0  0
  -22.1503  -24.7986   14.6702 C   0  0  0  0  0  0  0  0  0  0  0  0
  -25.8546  -11.5557   20.2685 N   0  0  0  0  0  0  0  0  0  0  0  0
  -26.2345  -12.8415   20.1763 N   0  0  0  0  0  0  0  0  0  0  0  0
  -29.9750  -21.1604   18.4251 N   0  0  0  0  0  0  0  0  0  0  0  0
  -25.0728  -26.7840   15.2881 N   0  0  0  0  0  0  0  0  0  0  0  0
  -29.9759  -13.6018   20.3568 N   0  0  0  0  0  0  0  0  0  0  0  0
  -25.4801  -15.0623   20.5072 N   0  0  0  0  0  0  0  0  0  0  0  0
  -21.9033  -12.5627   21.6709 N   0  0  0  0  0  0  0  0  0  0  0  0
  -24.8404  -29.5907   17.6043 N   0  0  0  0  0  0  0  0  0  0  0  0
  -23.8275  -24.8860   12.7771 N   0  0  0  0  0  0  0  0  0  0  0  0
  -30.1719  -15.6272   21.5622 N   0  0  0  0  0  0  0  0  0  0  0  0
  -26.2412  -23.7297   10.3472 N   0  3  0  0  0  0  0  0  0  0  0  0
  -22.6829  -14.7078   21.4490 O   0  0  0  0  0  0  0  0  0  0  0  0
  -24.1345  -27.3717   17.5924 O   0  0  0  0  0  0  0  0  0  0  0  0
  -23.3146  -27.4644   13.9163 O   0  0  0  0  0  0  0  0  0  0  0  0
  -25.5652  -23.3761   13.0555 O   0  0  0  0  0  0  0  0  0  0  0  0
  -31.8854  -14.9104   20.2180 O   0  0  0  0  0  0  0  0  0  0  0  0
  -21.6106   -6.9998   21.6032 O   0  0  0  0  0  0  0  0  0  0  0  0
  -29.9841  -24.3733   18.1378 O   0  0  0  0  0  0  0  0  0  1  0  0
  -18.6857   -6.7015   26.2680 F   0  0  0  0  0  0  0  0  0  0  0  0
  -28.4175  -18.2666   21.8904 F   0  0  0  0  0  0  0  0  0  0  0  0
  -32.8083  -17.7319   20.1655 F   0  0  0  0  0  0  0  0  0  0  0  0
  -22.0810   -4.9939   23.4464 F   0  0  0  0  0  0  0  0  0  0  0  0
  1  2  1  0  0  0  0
  1  5  2  0  0  0  0
  2  6  2  0  0  0  0
  3  8  2  0  0  0  0
  3 17  1  0  0  0  0
  4  9  1  0  0  0  0
  4 17  2  0  0  0  0
  5 19  1  0  0  0  0
  6 21  1  0  0  0  0
  7 10  2  0  0  0  0
  7 20  1  0  0  0  0
  8 25  1  0  0  0  0
  9 25  2  0  0  0  0
 10 26  1  0  0  0  0
 11 12  2  0  0  0  0
 11 27  1  0  0  0  0
 12 28  1  0  0  0  0
 13 22  1  0  0  0  0
 13 26  2  0  0  0  0
 14 24  1  0  0  0  0
 14 29  2  0  0  0  0
 15 24  2  0  0  0  0
 15 30  1  0  0  0  0
 16 28  2  0  0  0  0
 16 31  1  0  0  0  0
 17 32  1  0  0  0  0
 18 32  1  0  0  0  0
 18 33  2  0  0  0  0
 18 34  1  0  0  0  0
 19 21  2  0  0  0  0
 19 39  1  0  0  0  0
 20 22  2  0  0  0  0
 20 40  1  0  0  0  0
 21 50  1  0  0  0  0
 22 41  1  0  0  0  0
 23 29  1  0  0  0  0
 23 30  2  0  0  0  0
 23 59  1  0  0  0  0
 24 65  1  0  0  0  0
 25 79  1  0  0  0  0
 26 80  1  0  0  0  0
 27 31  2  0  0  0  0
 27 79  1  0  0  0  0
 28 81  1  0  0  0  0
 29 82  1  0  0  0  0
 30 83  1  0  0  0  0
 31 84  1  0  0  0  0
 32 63  2  0  0  0  0
 33 64  1  0  0  0  0
 33 68  1  0  0  0  0
 34 69  1  0  0  0  0
 34 74  2  0  0  0  0
 35 51  1  0  0  0  0
 35 70  1  0  0  0  0
 35 75  2  0  0  0  0
 36 60  1  0  0  0  0
 36 66  1  0  0  0  0
 36 76  2  0  0  0  0
 37 61  1  0  0  0  0
 37 71  1  0  0  0  0
 37 77  2  0  0  0  0
 38 67  1  0  0  0  0
 38 72  1  0  0  0  0
 38 78  2  0  0  0  0
 39 42  1  0  0  0  0
 40 51  1  0  0  0  0
 41 66  1  0  0  0  0
 42 44  1  0  0  0  0
 43 45  1  0  0  0  0
 43 46  1  0  0  0  0
 44 50  1  0  0  0  0
 45 52  1  0  0  0  0
 46 67  1  0  0  0  0
 47 52  1  0  0  0  0
 47 67  1  0  0  0  0
 48 53  1  0  0  0  0
 48 65  1  0  0  0  0
 49 53  1  0  0  0  0
 49 65  1  0  0  0  0
 50 70  1  0  0  0  0
 51 66  1  0  0  0  0
 52 64  1  0  0  0  0
 53 80  1  0  0  0  0
 54 61  1  0  0  0  0
 55 62  1  0  0  0  0
 56 62  1  0  0  0  0
 57 62  1  0  0  0  0
 58 73  1  0  0  0  0
 59 72  1  0  0  0  0
 60 62  1  0  0  0  0
 60 71  1  0  0  0  0
 61 73  1  0  0  0  0
 63 64  1  0  0  0  0
M  CHG  1  73   1
M  ISO  4  38 100  53 101  72 100  80 101
M  END
> <Batch ID>
0028

> <Smiles>
CNC(C)C(=O)NC(C(=O)N1Cc2cc([101O:1][101CH:1]3CN(c4cc(F)c(C[100NH:0][100C:0](=O)N5CCCC(n6nc(-c7ccc(Oc8ccc(F)cc8F)cc7)c(C(N)=O)c6N)C5)c(F)c4)C3)ccc2CC1C(=O)NC1CCCc2ccccc21)C(C)(C)C

> <Shape>
0.251

> <Color>
0.197

> <Negative vol penalty>
0.000

$$$$

  -OEChem-04042321313D

 87 96  0     1  0  0  0  0  0999 V2000
  -31.5968  -34.2981   20.1564 C   0  0  0  0  0  0  0  0  0  0  0  0
  -31.4262  -33.0135   19.6502 C   0  0  0  0  0  0  0  0  0  0  0  0
  -24.5710   -9.0494   21.9613 C   0  0  0  0  0  0  0  0  0  0  0  0
  -22.8510  -10.2764   20.7895 C   0  0  0  0  0  0  0  0  0  0  0  0
  -30.9462  -34.6756   21.3303 C   0  0  0  0  0  0  0  0  0  0  0  0
  -30.6057  -32.1053   20.3184 C   0  0  0  0  0  0  0  0  0  0  0  0
  -27.0623  -27.7959   17.7928 C   0  0  0  0  0  0  0  0  0  0  0  0
  -30.8710  -17.3730   22.2861 C   0  0  0  0  0  0  0  0  0  0  0  0
  -23.7858   -7.8978   21.9080 C   0  0  0  0  0  0  0  0  0  0  0  0
  -22.0658   -9.1247   20.7362 C   0  0  0  0  0  0  0  0  0  0  0  0
  -27.2463  -26.4283   17.5937 C   0  0  0  0  0  0  0  0  0  0  0  0
  -21.1251   -6.6194   23.5544 C   0  0  0  0  0  0  0  0  0  0  0  0
  -31.1539  -18.6780   22.6891 C   0  0  0  0  0  0  0  0  0  0  0  0
  -21.0150   -5.8566   24.7169 C   0  0  0  0  0  0  0  0  0  0  0  0
  -26.0338  -25.9749   19.6292 C   0  0  0  0  0  0  0  0  0  0  0  0
  -21.9703   -3.9608   23.5634 C   0  0  0  0  0  0  0  0  0  0  0  0
  -24.1035  -10.2387   21.4021 C   0  0  0  0  0  0  0  0  0  0  0  0
  -25.3832  -12.0850   22.6110 C   0  0  0  0  0  0  0  0  0  0  0  0
  -30.1096  -33.7747   22.0079 C   0  0  0  0  0  0  0  0  0  0  0  0
  -26.3709  -28.2645   18.9192 C   0  0  0  0  0  0  0  0  0  0  0  0
  -29.9443  -32.4708   21.5032 C   0  0  0  0  0  0  0  0  0  0  0  0
  -25.8401  -27.3488   19.8390 C   0  0  0  0  0  0  0  0  0  0  0  0
  -30.0836  -17.1469   21.1571 C   0  0  0  0  0  0  0  0  0  0  0  0
  -29.5789  -18.2258   20.4313 C   0  0  0  0  0  0  0  0  0  0  0  0
  -29.8617  -19.5309   20.8343 C   0  0  0  0  0  0  0  0  0  0  0  0
  -22.5333   -7.9354   21.2955 C   0  0  0  0  0  0  0  0  0  0  0  0
  -26.7345  -25.5177   18.5134 C   0  0  0  0  0  0  0  0  0  0  0  0
  -21.6576   -6.0529   22.3962 C   0  0  0  0  0  0  0  0  0  0  0  0
  -21.4377   -4.5273   24.7215 C   0  0  0  0  0  0  0  0  0  0  0  0
  -30.6492  -19.7570   21.9632 C   0  0  0  0  0  0  0  0  0  0  0  0
  -22.0803   -4.7236   22.4008 C   0  0  0  0  0  0  0  0  0  0  0  0
  -24.9139  -11.4288   21.4573 C   0  0  0  0  0  0  0  0  0  0  0  0
  -26.1003  -13.1534   22.1307 C   0  0  0  0  0  0  0  0  0  0  0  0
  -25.1884  -11.7578   23.9933 C   0  0  0  0  0  0  0  0  0  0  0  0
  -27.1183  -30.0922   21.4101 C   0  0  0  0  0  0  0  0  0  0  0  0
  -23.9521  -29.8228   22.0623 C   0  0  0  0  0  0  0  0  0  0  0  0
  -21.0601  -28.0476   21.6994 C   0  0  0  0  0  0  0  0  0  0  0  0
  -30.0251  -14.8568   18.3875 C   0  0  0  0  0  0  0  0  0  0  0  0
  -29.4648  -34.2133   23.2989 C   0  0  0  0  0  0  0  0  0  0  0  0
  -26.1578  -29.7417   19.1056 C   0  0  0  0  0  0  0  0  0  0  0  0
  -25.0728  -27.7997   21.0540 C   0  0  0  0  0  0  0  0  0  0  0  0
  -28.3165  -33.3112   23.7434 C   0  0  0  0  0  0  0  0  0  0  0  0
  -26.4442  -15.0863   17.4787 C   0  0  0  0  0  0  0  0  0  0  0  0
  -28.7183  -31.8436   23.6361 C   0  0  0  0  0  0  0  0  0  0  0  0
  -25.7835  -14.1498   18.4889 C   0  0  0  0  0  0  0  0  0  0  0  0
  -29.2860  -22.5340   18.7753 C   0  0  0  0  0  0  0  0  0  0  0  0
  -27.8817  -14.6730   17.1779 C   0  0  0  0  0  0  0  0  0  0  0  0
  -30.0715  -21.2469   19.0174 C   0  0  0  0  0  0  0  0  0  0  0  0
  -28.0901  -21.2558   20.4071 C   0  0  0  0  0  0  0  0  0  0  0  0
  -28.0757  -13.6040   19.3991 C   0  0  0  0  0  0  0  0  0  0  0  0
  -29.0429  -31.4651   22.1859 C   0  0  1  0  0  0  0  0  0  0  0  0
  -25.8827  -30.1274   20.5558 C   0  0  1  0  0  0  0  0  0  0  0  0
  -27.8659  -22.1587   19.1889 C   0  0  1  0  0  0  0  0  0  0  0  0
  -26.6416  -14.0198   19.7593 C   0  0  2  0  0  0  0  0  0  0  0  0
  -28.7332  -17.9789   19.2213 C   0  0  0  0  0  0  0  0  0  0  0  0
  -18.6445  -28.0570   22.3792 C   0  0  0  0  0  0  0  0  0  0  0  0
  -24.7358  -28.8656   24.8515 C   0  0  0  0  0  0  0  0  0  0  0  0
  -22.4019  -28.0055   25.1362 C   0  0  0  0  0  0  0  0  0  0  0  0
  -22.7975  -30.4450   24.7969 C   0  0  0  0  0  0  0  0  0  0  0  0
  -31.9870  -15.7076   19.6151 C   0  0  0  0  0  0  0  0  0  0  0  0
  -20.1497  -28.2196   18.8886 C   0  0  0  0  0  0  0  0  0  0  0  0
  -29.7957  -15.7396   20.7477 C   0  0  0  0  0  0  0  0  0  0  0  0
  -26.9911  -23.3635   19.4879 C   0  0  0  0  0  0  0  0  0  1  0  0
  -23.1017  -28.8578   22.8526 C   0  0  1  0  0  0  0  0  0  0  0  0
  -19.6541  -28.4787   21.3229 C   0  0  2  0  0  0  0  0  0  0  0  0
  -23.2753  -29.0348   24.3875 C   0  0  0  0  0  0  0  0  0  0  0  0
  -25.3002  -12.0303   20.3290 N   0  0  0  0  0  0  0  0  0  0  0  0
  -26.0197  -13.0755   20.7714 N   0  0  0  0  0  0  0  0  0  0  0  0
  -29.3705  -20.6087   20.1287 N   0  0  3  0  0  0  0  0  0  0  0  0
  -24.8963  -29.2545   21.1955 N   0  0  0  0  0  0  0  0  0  0  0  0
  -28.6629  -14.5147   18.4050 N   0  0  0  0  0  0  0  0  0  0  0  0
  -26.7854  -14.1426   22.7426 N   0  0  0  0  0  0  0  0  0  0  0  0
  -24.0790  -12.2981   24.6579 N   0  0  0  0  0  0  0  0  0  0  0  0
  -27.8246  -31.2798   21.4271 N   0  0  0  0  0  0  0  0  0  0  0  0
  -21.7331  -29.0394   22.3812 N   0  0  0  0  0  0  0  0  0  0  0  0
  -30.5813  -15.3293   19.5859 N   0  0  0  0  0  0  0  0  0  0  0  0
  -19.2562  -27.8692   20.0225 N   0  3  0  0  0  0  0  0  0  0  0  0
  -25.9840  -11.0218   24.6250 O   0  0  0  0  0  0  0  0  0  0  0  0
  -27.4085  -29.0642   22.0106 O   0  0  0  0  0  0  0  0  0  0  0  0
  -23.7800  -31.0361   22.2034 O   0  0  0  0  0  0  0  0  0  0  0  0
  -21.5146  -26.9404   21.4201 O   0  0  0  0  0  0  0  0  0  0  0  0
  -30.7031  -14.7551   17.3570 O   0  0  0  0  0  0  0  0  0  0  0  0
  -21.7669   -6.8118   21.2431 O   0  0  0  0  0  0  0  0  0  0  0  0
  -26.9132  -24.1823   18.3218 O   0  0  0  0  0  0  0  0  0  1  0  0
  -21.3334   -3.7953   25.8384 F   0  0  0  0  0  0  0  0  0  0  0  0
  -30.9270  -21.0068   22.3614 F   0  0  0  0  0  0  0  0  0  0  0  0
  -22.5938   -4.1742   21.2916 F   0  0  0  0  0  0  0  0  0  0  0  0
  1  2  1  0  0  0  0
  1  5  2  0  0  0  0
  2  6  2  0  0  0  0
  3  9  2  0  0  0  0
  3 17  1  0  0  0  0
  4 10  1  0  0  0  0
  4 17  2  0  0  0  0
  5 19  1  0  0  0  0
  6 21  1  0  0  0  0
  7 11  2  0  0  0  0
  7 20  1  0  0  0  0
  8 13  1  0  0  0  0
  8 23  2  0  0  0  0
  9 26  1  0  0  0  0
 10 26  2  0  0  0  0
 11 27  1  0  0  0  0
 12 14  2  0  0  0  0
 12 28  1  0  0  0  0
 13 30  2  0  0  0  0
 14 29  1  0  0  0  0
 15 22  1  0  0  0  0
 15 27  2  0  0  0  0
 16 29  2  0  0  0  0
 16 31  1  0  0  0  0
 17 32  1  0  0  0  0
 18 32  1  0  0  0  0
 18 33  2  0  0  0  0
 18 34  1  0  0  0  0
 19 21  2  0  0  0  0
 19 39  1  0  0  0  0
 20 22  2  0  0  0  0
 20 40  1  0  0  0  0
 21 51  1  0  0  0  0
 22 41  1  0  0  0  0
 23 24  1  0  0  0  0
 23 62  1  0  0  0  0
 24 25  2  0  0  0  0
 24 55  1  0  0  0  0
 25 30  1  0  0  0  0
 25 69  1  0  0  0  0
 26 83  1  0  0  0  0
 27 84  1  0  0  0  0
 28 31  2  0  0  0  0
 28 83  1  0  0  0  0
 29 85  1  0  0  0  0
 30 86  1  0  0  0  0
 31 87  1  0  0  0  0
 32 67  2  0  0  0  0
 33 68  1  0  0  0  0
 33 72  1  0  0  0  0
 34 73  1  0  0  0  0
 34 78  2  0  0  0  0
 35 52  1  0  0  0  0
 35 74  1  0  0  0  0
 35 79  2  0  0  0  0
 36 64  1  0  0  0  0
 36 70  1  0  0  0  0
 36 80  2  0  0  0  0
 37 65  1  0  0  0  0
 37 75  1  0  0  0  0
 37 81  2  0  0  0  0
 38 71  1  0  0  0  0
 38 76  1  0  0  0  0
 38 82  2  0  0  0  0
 39 42  1  0  0  0  0
 40 52  1  0  0  0  0
 41 70  1  0  0  0  0
 42 44  1  0  0  0  0
 43 45  1  0  0  0  0
 43 47  1  0  0  0  0
 44 51  1  0  0  0  0
 45 54  1  0  0  0  0
 46 48  1  0  0  0  0
 46 53  1  0  0  0  0
 47 71  1  0  0  0  0
 48 69  1  0  0  0  0
 49 53  1  0  0  0  0
 49 69  1  0  0  0  0
 50 54  1  0  0  0  0
 50 71  1  0  0  0  0
 51 74  1  0  0  0  0
 52 70  1  0  0  0  0
 53 63  1  0  0  0  0
 54 68  1  0  0  0  0
 56 65  1  0  0  0  0
 57 66  1  0  0  0  0
 58 66  1  0  0  0  0
 59 66  1  0  0  0  0
 60 76  1  0  0  0  0
 61 77  1  0  0  0  0
 62 76  1  0  0  0  0
 63 84  1  0  0  0  0
 64 66  1  0  0  0  0
 64 75  1  0  0  0  0
 65 77  1  0  0  0  0
 67 68  1  0  0  0  0
M  CHG  1  77   1
M  ISO  4  38 100  63 101  76 100  84 101
M  END
> <Batch ID>
0028

> <Smiles>
CNC(C)C(=O)NC(C(=O)N1Cc2cc([101O:1][101CH2:1]C3CCN(c4c(F)ccc(C[100N:0](C)[100C:0](=O)N5CCCC(n6nc(-c7ccc(Oc8ccc(F)cc8F)cc7)c(C(N)=O)c6N)C5)c4C)C3)ccc2CC1C(=O)NC1CCCc2ccccc21)C(C)(C)C

> <Shape>
0.301

> <Color>
0.112

> <Negative vol penalty>
0.000

$$$$

  -OEChem-04042321313D

 88 98  0     1  0  0  0  0  0999 V2000
  -28.9607  -37.5116   21.8549 C   0  0  0  0  0  0  0  0  0  0  0  0
  -29.1449  -36.4146   21.0194 C   0  0  0  0  0  0  0  0  0  0  0  0
  -24.3629   -9.2132   21.1526 C   0  0  0  0  0  0  0  0  0  0  0  0
  -22.3140  -10.4868   21.0218 C   0  0  0  0  0  0  0  0  0  0  0  0
  -28.4532  -37.3297   23.1407 C   0  0  0  0  0  0  0  0  0  0  0  0
  -28.8226  -35.1348   21.4696 C   0  0  0  0  0  0  0  0  0  0  0  0
  -26.3370  -28.8460   19.1055 C   0  0  0  0  0  0  0  0  0  0  0  0
  -28.9339  -22.0848   23.3946 C   0  0  0  0  0  0  0  0  0  0  0  0
  -23.6242   -8.0418   21.3191 C   0  0  0  0  0  0  0  0  0  0  0  0
  -21.5752   -9.3153   21.1882 C   0  0  0  0  0  0  0  0  0  0  0  0
  -26.6523  -27.4880   19.1228 C   0  0  0  0  0  0  0  0  0  0  0  0
  -21.9656   -6.4769   23.8140 C   0  0  0  0  0  0  0  0  0  0  0  0
  -22.3783   -5.5867   24.8053 C   0  0  0  0  0  0  0  0  0  0  0  0
  -30.2870  -21.9110   23.6832 C   0  0  0  0  0  0  0  0  0  0  0  0
  -25.7082  -27.3032   21.3350 C   0  0  0  0  0  0  0  0  0  0  0  0
  -29.8328  -19.6696   24.4512 C   0  0  0  0  0  0  0  0  0  0  0  0
  -22.6968   -3.8722   23.1331 C   0  0  0  0  0  0  0  0  0  0  0  0
  -23.7078  -10.4357   21.0041 C   0  0  0  0  0  0  0  0  0  0  0  0
  -24.9011  -12.2149   19.6191 C   0  0  0  0  0  0  0  0  0  0  0  0
  -28.1155  -36.0482   23.6035 C   0  0  0  0  0  0  0  0  0  0  0  0
  -25.7138  -29.4461   20.2091 C   0  0  0  0  0  0  0  0  0  0  0  0
  -28.0135  -21.0516   23.6315 C   0  0  0  0  0  0  0  0  0  0  0  0
  -28.3114  -34.9354   22.7633 C   0  0  0  0  0  0  0  0  0  0  0  0
  -25.3838  -28.6684   21.3282 C   0  0  0  0  0  0  0  0  0  0  0  0
  -28.4694  -19.8287   24.1595 C   0  0  0  0  0  0  0  0  0  0  0  0
  -22.2303   -8.0929   21.3369 C   0  0  0  0  0  0  0  0  0  0  0  0
  -26.3405  -26.7170   20.2388 C   0  0  0  0  0  0  0  0  0  0  0  0
  -21.9184   -6.0647   22.4822 C   0  0  0  0  0  0  0  0  0  0  0  0
  -22.7439   -4.2843   24.4649 C   0  0  0  0  0  0  0  0  0  0  0  0
  -22.2841   -4.7624   22.1418 C   0  0  0  0  0  0  0  0  0  0  0  0
  -30.7361  -20.7043   24.2114 C   0  0  0  0  0  0  0  0  0  0  0  0
  -24.4703  -11.6462   20.8327 C   0  0  0  0  0  0  0  0  0  0  0  0
  -25.5807  -13.3483   19.9931 C   0  0  0  0  0  0  0  0  0  0  0  0
  -26.4939  -22.4620   19.7318 C   0  0  0  0  0  0  0  0  0  0  0  0
  -27.2858  -21.7243   18.9446 C   0  0  0  0  0  0  0  0  0  0  0  0
  -24.7043  -11.7594   18.2739 C   0  0  0  0  0  0  0  0  0  0  0  0
  -26.4973  -31.7585   22.2444 C   0  0  0  0  0  0  0  0  0  0  0  0
  -23.4627  -31.3209   23.3035 C   0  0  0  0  0  0  0  0  0  0  0  0
  -20.7661  -29.2495   23.5947 C   0  0  0  0  0  0  0  0  0  0  0  0
  -25.4444  -17.9710   23.1820 C   0  0  0  0  0  0  0  0  0  0  0  0
  -27.6145  -35.8958   25.0179 C   0  0  0  0  0  0  0  0  0  0  0  0
  -25.3562  -30.9064   20.1641 C   0  0  0  0  0  0  0  0  0  0  0  0
  -24.6963  -29.2603   22.5305 C   0  0  0  0  0  0  0  0  0  0  0  0
  -27.5231  -18.6895   24.4633 C   0  0  0  0  0  0  0  0  0  0  0  0
  -25.5134  -23.4894   19.2589 C   0  0  0  0  0  0  0  0  0  0  0  0
  -26.9461  -34.5498   25.2856 C   0  0  0  0  0  0  0  0  0  0  0  0
  -27.1346  -14.9243   24.5322 C   0  0  0  0  0  0  0  0  0  0  0  0
  -27.7948  -33.4118   24.7274 C   0  0  0  0  0  0  0  0  0  0  0  0
  -26.5641  -13.8431   23.6151 C   0  0  0  0  0  0  0  0  0  0  0  0
  -26.1561  -16.0810   24.6950 C   0  0  0  0  0  0  0  0  0  0  0  0
  -25.6660  -20.2713   24.0740 C   0  0  0  0  0  0  0  0  0  0  0  0
  -25.1518  -15.6218   22.4842 C   0  0  0  0  0  0  0  0  0  0  0  0
  -25.7959  -23.6142   21.6475 C   0  0  0  0  0  0  0  0  0  0  0  0
  -26.5490  -21.2584   23.2984 C   0  0  2  0  0  0  0  0  0  0  0  0
  -27.9503  -33.5343   23.2068 C   0  0  1  0  0  0  0  0  0  0  0  0
  -25.1863  -31.5229   21.5491 C   0  0  1  0  0  0  0  0  0  0  0  0
  -26.1138  -14.4411   22.2710 C   0  0  2  0  0  0  0  0  0  0  0  0
  -25.5632  -24.4763   20.4149 C   0  0  1  0  0  0  0  0  0  1  0  0
  -18.4450  -29.1591   24.5442 C   0  0  0  0  0  0  0  0  0  0  0  0
  -24.6241  -30.9649   26.1025 C   0  0  0  0  0  0  0  0  0  0  0  0
  -22.4416  -29.9590   26.8046 C   0  0  0  0  0  0  0  0  0  0  0  0
  -22.5253  -32.3217   26.0087 C   0  0  0  0  0  0  0  0  0  0  0  0
  -19.5653  -28.8211   20.9239 C   0  0  0  0  0  0  0  0  0  0  0  0
  -26.3208  -21.1520   21.7874 C   0  0  0  0  0  0  0  0  0  0  0  0
  -22.8092  -30.4417   24.3423 C   0  0  1  0  0  0  0  0  0  0  0  0
  -19.2901  -29.4727   23.3194 C   0  0  2  0  0  0  0  0  0  0  0  0
  -23.1148  -30.9108   25.7928 C   0  0  0  0  0  0  0  0  0  0  0  0
  -24.8450  -12.3594   21.8980 N   0  0  0  0  0  0  0  0  0  0  0  0
  -25.5184  -13.3879   21.3550 N   0  0  0  0  0  0  0  0  0  0  0  0
  -24.3730  -30.6938   22.4410 N   0  0  0  0  0  0  0  0  0  0  0  0
  -26.1653  -18.9034   23.9450 N   0  0  0  0  0  0  0  0  0  0  0  0
  -25.7275  -16.6130   23.3955 N   0  0  0  0  0  0  0  0  0  0  0  0
  -26.2196  -14.3050   19.2867 N   0  0  0  0  0  0  0  0  0  0  0  0
  -23.9826  -10.5757   18.0681 N   0  0  0  0  0  0  0  0  0  0  0  0
  -26.7480  -33.0853   22.5379 N   0  0  0  0  0  0  0  0  0  0  0  0
  -21.3885  -30.4068   24.0123 N   0  0  0  0  0  0  0  0  0  0  0  0
  -26.6746  -22.4659   21.1582 N   0  3  1  0  0  0  0  0  0  0  0  0
  -18.8347  -28.6022   22.1988 N   0  3  0  0  0  0  0  0  0  0  0  0
  -25.1693  -12.3748   17.2846 O   0  0  0  0  0  0  0  0  0  0  0  0
  -27.2267  -30.8068   22.4972 O   0  0  0  0  0  0  0  0  0  0  0  0
  -23.1706  -32.5183   23.2545 O   0  0  0  0  0  0  0  0  0  0  0  0
  -21.3116  -28.1567   23.4570 O   0  0  0  0  0  0  0  0  0  0  0  0
  -24.6104  -18.3276   22.3398 O   0  0  0  0  0  0  0  0  0  0  0  0
  -21.5092   -6.9500   21.4990 O   0  0  0  0  0  0  0  0  0  0  0  0
  -26.6497  -25.3829   20.2586 O   0  0  0  0  0  0  0  0  0  1  0  0
  -23.1417   -3.4300   25.4168 F   0  0  0  0  0  0  0  0  0  0  0  0
  -22.2419   -4.3611   20.8639 F   0  0  0  0  0  0  0  0  0  0  0  0
  -32.4053  -20.4905   24.5712 Cl  0  0  0  0  0  0  0  0  0  0  0  0
  1  2  1  0  0  0  0
  1  5  2  0  0  0  0
  2  6  2  0  0  0  0
  3  9  2  0  0  0  0
  3 18  1  0  0  0  0
  4 10  1  0  0  0  0
  4 18  2  0  0  0  0
  5 20  1  0  0  0  0
  6 23  1  0  0  0  0
  7 11  2  0  0  0  0
  7 21  1  0  0  0  0
  8 14  2  0  0  0  0
  8 22  1  0  0  0  0
  9 26  1  0  0  0  0
 10 26  2  0  0  0  0
 11 27  1  0  0  0  0
 12 13  2  0  0  0  0
 12 28  1  0  0  0  0
 13 29  1  0  0  0  0
 14 31  1  0  0  0  0
 15 24  1  0  0  0  0
 15 27  2  0  0  0  0
 16 25  1  0  0  0  0
 16 31  2  0  0  0  0
 17 29  2  0  0  0  0
 17 30  1  0  0  0  0
 18 32  1  0  0  0  0
 19 32  1  0  0  0  0
 19 33  2  0  0  0  0
 19 36  1  0  0  0  0
 20 23  2  0  0  0  0
 20 41  1  0  0  0  0
 21 24  2  0  0  0  0
 21 42  1  0  0  0  0
 22 25  2  0  0  0  0
 22 54  1  0  0  0  0
 23 55  1  0  0  0  0
 24 43  1  0  0  0  0
 25 44  1  0  0  0  0
 26 84  1  0  0  0  0
 27 85  1  0  0  0  0
 28 30  2  0  0  0  0
 28 84  1  0  0  0  0
 29 86  1  0  0  0  0
 30 87  1  0  0  0  0
 31 88  1  0  0  0  0
 32 68  2  0  0  0  0
 33 69  1  0  0  0  0
 33 73  1  0  0  0  0
 34 35  2  0  0  0  0
 34 45  1  0  0  0  0
 34 77  1  0  0  0  0
 36 74  1  0  0  0  0
 36 79  2  0  0  0  0
 37 56  1  0  0  0  0
 37 75  1  0  0  0  0
 37 80  2  0  0  0  0
 38 65  1  0  0  0  0
 38 70  1  0  0  0  0
 38 81  2  0  0  0  0
 39 66  1  0  0  0  0
 39 76  1  0  0  0  0
 39 82  2  0  0  0  0
 40 71  1  0  0  0  0
 40 72  1  0  0  0  0
 40 83  2  0  0  0  0
 41 46  1  0  0  0  0
 42 56  1  0  0  0  0
 43 70  1  0  0  0  0
 44 71  1  0  0  0  0
 45 58  1  0  0  0  0
 46 48  1  0  0  0  0
 47 49  1  0  0  0  0
 47 50  1  0  0  0  0
 48 55  1  0  0  0  0
 49 57  1  0  0  0  0
 50 72  1  0  0  0  0
 51 54  1  0  0  0  0
 51 71  1  0  0  0  0
 52 57  1  0  0  0  0
 52 72  1  0  0  0  0
 53 58  1  0  0  0  0
 53 77  1  0  0  0  0
 54 64  1  0  0  0  0
 55 75  1  0  0  0  0
 56 70  1  0  0  0  0
 57 69  1  0  0  0  0
 58 85  1  0  0  0  0
 59 66  1  0  0  0  0
 60 67  1  0  0  0  0
 61 67  1  0  0  0  0
 62 67  1  0  0  0  0
 63 78  1  0  0  0  0
 64 77  1  0  0  0  0
 65 67  1  0  0  0  0
 65 76  1  0  0  0  0
 66 78  1  0  0  0  0
 68 69  1  0  0  0  0
M  CHG  2  77   1  78   1
M  ISO  4  40 100  58 101  71 100  85 101
M  END
> <Batch ID>
0028

> <Smiles>
C=C1C[101CH:1]([101O:1]c2ccc3c(c2)CN(C(=O)C(NC(=O)C(C)NC)C(C)(C)C)C(C(=O)NC2CCCc4ccccc42)C3)CN1CC1C[100N:0]([100C:0](=O)N2CCCC(n3nc(-c4ccc(Oc5ccc(F)cc5F)cc4)c(C(N)=O)c3N)C2)Cc2cc(Cl)ccc21

> <Shape>
0.231

> <Color>
0.117

> <Negative vol penalty>
0.000

$$$$

  -OEChem-04042321313D

 87 96  0     1  0  0  0  0  0999 V2000
  -25.1151  -31.1727   19.7468 C   0  0  0  0  0  0  0  0  0  0  0  0
  -26.0319  -30.4406   20.4944 C   0  0  0  0  0  0  0  0  0  0  0  0
  -23.0994   -9.7847   19.9479 C   0  0  0  0  0  0  0  0  0  0  0  0
  -23.8304   -9.8396   22.2500 C   0  0  0  0  0  0  0  0  0  0  0  0
  -23.8717  -31.4930   20.2901 C   0  0  0  0  0  0  0  0  0  0  0  0
  -25.7061  -30.0293   21.7863 C   0  0  0  0  0  0  0  0  0  0  0  0
  -26.9779  -25.2075   22.6687 C   0  0  0  0  0  0  0  0  0  0  0  0
  -22.3622   -8.6299   20.2096 C   0  0  0  0  0  0  0  0  0  0  0  0
  -23.0931   -8.6849   22.5117 C   0  0  0  0  0  0  0  0  0  0  0  0
  -28.3211  -24.9410   22.9303 C   0  0  0  0  0  0  0  0  0  0  0  0
  -19.4027   -7.8344   21.6385 C   0  0  0  0  0  0  0  0  0  0  0  0
  -18.1025   -7.7682   21.1381 C   0  0  0  0  0  0  0  0  0  0  0  0
  -27.8386  -24.8590   25.2924 C   0  0  0  0  0  0  0  0  0  0  0  0
  -30.3718  -18.3952   23.9870 C   0  0  0  0  0  0  0  0  0  0  0  0
  -31.9968  -16.6471   22.5426 C   0  0  0  0  0  0  0  0  0  0  0  0
  -18.6949   -5.8064   19.8584 C   0  0  0  0  0  0  0  0  0  0  0  0
  -23.8336  -10.3895   20.9681 C   0  0  0  0  0  0  0  0  0  0  0  0
  -24.1558  -12.9149   20.8064 C   0  0  0  0  0  0  0  0  0  0  0  0
  -23.5268  -31.0771   21.5857 C   0  0  0  0  0  0  0  0  0  0  0  0
  -26.0554  -25.3128   23.7195 C   0  0  0  0  0  0  0  0  0  0  0  0
  -24.4574  -30.3454   22.3480 C   0  0  0  0  0  0  0  0  0  0  0  0
  -26.4838  -25.1244   25.0413 C   0  0  0  0  0  0  0  0  0  0  0  0
  -31.7556  -18.4257   24.1598 C   0  0  0  0  0  0  0  0  0  0  0  0
  -30.6130  -16.6165   22.3698 C   0  0  0  0  0  0  0  0  0  0  0  0
  -22.3590   -8.0800   21.4915 C   0  0  0  0  0  0  0  0  0  0  0  0
  -28.7522  -24.7695   24.2425 C   0  0  0  0  0  0  0  0  0  0  0  0
  -20.3492   -6.8866   21.2489 C   0  0  0  0  0  0  0  0  0  0  0  0
  -17.7485   -6.7541   20.2480 C   0  0  0  0  0  0  0  0  0  0  0  0
  -29.8005  -17.4905   23.0920 C   0  0  0  0  0  0  0  0  0  0  0  0
  -32.5681  -17.5517   23.4376 C   0  0  0  0  0  0  0  0  0  0  0  0
  -19.9952   -5.8726   20.3589 C   0  0  0  0  0  0  0  0  0  0  0  0
  -24.5959  -11.5821   20.6983 C   0  0  0  0  0  0  0  0  0  0  0  0
  -25.2461  -13.6671   20.4431 C   0  0  0  0  0  0  0  0  0  0  0  0
  -31.3835  -21.7024   24.7904 C   0  0  0  0  0  0  0  0  0  0  0  0
  -22.8759  -13.4273   21.2001 C   0  0  0  0  0  0  0  0  0  0  0  0
  -24.1699  -27.6201   24.8265 C   0  0  0  0  0  0  0  0  0  0  0  0
  -23.0688  -25.2584   26.7585 C   0  0  0  0  0  0  0  0  0  0  0  0
  -23.6417  -22.2598   28.2839 C   0  0  0  0  0  0  0  0  0  0  0  0
  -30.7008  -14.7626   20.6664 C   0  0  0  0  0  0  0  0  0  0  0  0
  -22.1890  -31.4878   22.1480 C   0  0  0  0  0  0  0  0  0  0  0  0
  -24.6050  -25.5743   23.4188 C   0  0  0  0  0  0  0  0  0  0  0  0
  -25.5295  -25.2073   26.2036 C   0  0  0  0  0  0  0  0  0  0  0  0
  -21.7779  -30.6927   23.3846 C   0  0  0  0  0  0  0  0  0  0  0  0
  -29.6364  -12.2968   18.3289 C   0  0  0  0  0  0  0  0  0  0  0  0
  -22.9401  -30.5965   24.3680 C   0  0  0  0  0  0  0  0  0  0  0  0
  -28.1939  -12.0007   18.7458 C   0  0  0  0  0  0  0  0  0  0  0  0
  -32.9650  -22.5088   23.1967 C   0  0  0  0  0  0  0  0  0  0  0  0
  -30.5344  -12.5552   19.5374 C   0  0  0  0  0  0  0  0  0  0  0  0
  -33.5141  -21.2602   23.8609 C   0  0  0  0  0  0  0  0  0  0  0  0
  -28.6043  -13.2881   20.8815 C   0  0  0  0  0  0  0  0  0  0  0  0
  -24.1314  -29.8600   23.7438 C   0  0  1  0  0  0  0  0  0  0  0  0
  -31.8901  -22.9936   24.1723 C   0  0  1  0  0  0  0  0  0  0  0  0
  -23.8475  -26.1698   24.6015 C   0  0  1  0  0  0  0  0  0  0  0  0
  -27.6478  -13.0852   19.6951 C   0  0  2  0  0  0  0  0  0  0  0  0
  -22.5698  -20.6003   29.8313 C   0  0  0  0  0  0  0  0  0  0  0  0
  -23.6416  -27.0982   29.1244 C   0  0  0  0  0  0  0  0  0  0  0  0
  -23.4667  -25.1039   30.6279 C   0  0  0  0  0  0  0  0  0  0  0  0
  -21.4928  -25.8289   29.2861 C   0  0  0  0  0  0  0  0  0  0  0  0
  -23.7322  -20.1211   26.2403 C   0  0  0  0  0  0  0  0  0  0  0  0
  -32.3673  -19.4012   25.1233 C   0  0  0  0  0  0  0  0  0  0  0  0
  -30.7928  -23.7978   23.5024 C   0  0  0  0  0  0  0  0  0  1  0  0
  -23.4471  -24.7276   28.1201 C   0  0  1  0  0  0  0  0  0  0  0  0
  -22.7973  -21.0022   28.3823 C   0  0  2  0  0  0  0  0  0  0  0  0
  -23.0306  -25.6899   29.2681 C   0  0  0  0  0  0  0  0  0  0  0  0
  -25.8667  -11.4896   20.2975 N   0  0  0  0  0  0  0  0  0  0  0  0
  -26.2344  -12.7738   20.1505 N   0  0  0  0  0  0  0  0  0  0  0  0
  -32.3806  -20.7480   24.5950 N   0  0  0  0  0  0  0  0  0  0  0  0
  -24.1228  -25.4712   25.8586 N   0  0  0  0  0  0  0  0  0  0  0  0
  -29.9559  -13.5969   20.3889 N   0  0  0  0  0  0  0  0  0  0  0  0
  -25.4463  -14.9988   20.3485 N   0  0  0  0  0  0  0  0  0  0  0  0
  -21.8675  -12.5157   21.5413 N   0  0  0  0  0  0  0  0  0  0  0  0
  -30.0355  -15.6967   21.4598 N   0  0  0  0  0  0  0  0  0  0  0  0
  -23.8979  -28.4317   23.7417 N   0  0  0  0  0  0  0  0  0  0  0  0
  -22.8616  -23.3948   28.2157 N   0  0  0  0  0  0  0  0  0  0  0  0
  -23.4683  -19.8715   27.6808 N   0  3  0  0  0  0  0  0  0  0  0  0
  -30.3229  -21.5712   25.3831 O   0  0  0  0  0  0  0  0  0  0  0  0
  -22.6287  -14.6567   21.2321 O   0  0  0  0  0  0  0  0  0  0  0  0
  -24.6300  -27.9765   25.9049 O   0  0  0  0  0  0  0  0  0  0  0  0
  -21.8812  -25.4696   26.5003 O   0  0  0  0  0  0  0  0  0  0  0  0
  -24.8705  -22.2379   28.2727 O   0  0  0  0  0  0  0  0  0  0  0  0
  -31.8342  -14.9325   20.2098 O   0  0  0  0  0  0  0  0  0  0  0  0
  -21.6395   -6.9533   21.7472 O   0  0  0  0  0  0  0  0  0  0  0  0
  -30.0629  -24.5099   24.5006 O   0  0  0  0  0  0  0  0  0  1  0  0
  -16.4994   -6.6898   19.7687 F   0  0  0  0  0  0  0  0  0  0  0  0
  -28.4692  -17.4698   22.9339 F   0  0  0  0  0  0  0  0  0  0  0  0
  -33.8986  -17.5737   23.5970 F   0  0  0  0  0  0  0  0  0  0  0  0
  -20.8998   -4.9586   19.9818 F   0  0  0  0  0  0  0  0  0  0  0  0
  1  2  1  0  0  0  0
  1  5  2  0  0  0  0
  2  6  2  0  0  0  0
  3  8  2  0  0  0  0
  3 17  1  0  0  0  0
  4  9  1  0  0  0  0
  4 17  2  0  0  0  0
  5 19  1  0  0  0  0
  6 21  1  0  0  0  0
  7 10  2  0  0  0  0
  7 20  1  0  0  0  0
  8 25  1  0  0  0  0
  9 25  2  0  0  0  0
 10 26  1  0  0  0  0
 11 12  2  0  0  0  0
 11 27  1  0  0  0  0
 12 28  1  0  0  0  0
 13 22  1  0  0  0  0
 13 26  2  0  0  0  0
 14 23  1  0  0  0  0
 14 29  2  0  0  0  0
 15 24  2  0  0  0  0
 15 30  1  0  0  0  0
 16 28  2  0  0  0  0
 16 31  1  0  0  0  0
 17 32  1  0  0  0  0
 18 32  1  0  0  0  0
 18 33  2  0  0  0  0
 18 35  1  0  0  0  0
 19 21  2  0  0  0  0
 19 40  1  0  0  0  0
 20 22  2  0  0  0  0
 20 41  1  0  0  0  0
 21 51  1  0  0  0  0
 22 42  1  0  0  0  0
 23 30  2  0  0  0  0
 23 60  1  0  0  0  0
 24 29  1  0  0  0  0
 24 72  1  0  0  0  0
 25 82  1  0  0  0  0
 26 83  1  0  0  0  0
 27 31  2  0  0  0  0
 27 82  1  0  0  0  0
 28 84  1  0  0  0  0
 29 85  1  0  0  0  0
 30 86  1  0  0  0  0
 31 87  1  0  0  0  0
 32 65  2  0  0  0  0
 33 66  1  0  0  0  0
 33 70  1  0  0  0  0
 34 52  1  0  0  0  0
 34 67  1  0  0  0  0
 34 76  2  0  0  0  0
 35 71  1  0  0  0  0
 35 77  2  0  0  0  0
 36 53  1  0  0  0  0
 36 73  1  0  0  0  0
 36 78  2  0  0  0  0
 37 62  1  0  0  0  0
 37 68  1  0  0  0  0
 37 79  2  0  0  0  0
 38 63  1  0  0  0  0
 38 74  1  0  0  0  0
 38 80  2  0  0  0  0
 39 69  1  0  0  0  0
 39 72  1  0  0  0  0
 39 81  2  0  0  0  0
 40 43  1  0  0  0  0
 41 53  1  0  0  0  0
 42 68  1  0  0  0  0
 43 45  1  0  0  0  0
 44 46  1  0  0  0  0
 44 48  1  0  0  0  0
 45 51  1  0  0  0  0
 46 54  1  0  0  0  0
 47 49  1  0  0  0  0
 47 52  1  0  0  0  0
 48 69  1  0  0  0  0
 49 67  1  0  0  0  0
 50 54  1  0  0  0  0
 50 69  1  0  0  0  0
 51 73  1  0  0  0  0
 52 61  1  0  0  0  0
 53 68  1  0  0  0  0
 54 66  1  0  0  0  0
 55 63  1  0  0  0  0
 56 64  1  0  0  0  0
 57 64  1  0  0  0  0
 58 64  1  0  0  0  0
 59 75  1  0  0  0  0
 60 67  1  0  0  0  0
 61 83  1  0  0  0  0
 62 64  1  0  0  0  0
 62 74  1  0  0  0  0
 63 75  1  0  0  0  0
 65 66  1  0  0  0  0
M  CHG  1  75   1
M  ISO  4  39 100  61 101  72 100  83 101
M  END
> <Batch ID>
0028

> <Smiles>
CNC(C)C(=O)NC(C(=O)N1Cc2cc([101O:1][101CH2:1]C3CCN(Cc4cc(F)c([100NH:0][100C:0](=O)N5CCCC(n6nc(-c7ccc(Oc8ccc(F)cc8F)cc7)c(C(N)=O)c6N)C5)cc4F)C3=O)ccc2CC1C(=O)NC1CCCc2ccccc21)C(C)(C)C

> <Shape>
0.196

> <Color>
0.207

> <Negative vol penalty>
0.000

$$$$

  -OEChem-04042321313D

 86 95  0     1  0  0  0  0  0999 V2000
  -27.2660  -14.7260   13.8870 C   0  0  0  0  0  0  0  0  0  0  0  0
  -26.7197  -16.0053   13.9029 C   0  0  0  0  0  0  0  0  0  0  0  0
  -30.5906  -18.1282   21.4792 C   0  0  0  0  0  0  0  0  0  0  0  0
  -29.2616  -17.7993   19.4886 C   0  0  0  0  0  0  0  0  0  0  0  0
  -26.5381  -13.6521   14.3977 C   0  0  0  0  0  0  0  0  0  0  0  0
  -25.4447  -16.2114   14.4286 C   0  0  0  0  0  0  0  0  0  0  0  0
  -25.2232  -20.2653   17.4554 C   0  0  0  0  0  0  0  0  0  0  0  0
  -31.0879  -16.8303   21.3616 C   0  0  0  0  0  0  0  0  0  0  0  0
  -29.7590  -16.5015   19.3709 C   0  0  0  0  0  0  0  0  0  0  0  0
  -25.1643  -21.5157   16.8416 C   0  0  0  0  0  0  0  0  0  0  0  0
  -30.4029  -12.9789   18.7490 C   0  0  0  0  0  0  0  0  0  0  0  0
  -29.4945  -11.9600   18.4622 C   0  0  0  0  0  0  0  0  0  0  0  0
  -22.7802  -21.5748   17.2044 C   0  0  0  0  0  0  0  0  0  0  0  0
  -26.8613  -26.8944   19.3807 C   0  0  0  0  0  0  0  0  0  0  0  0
  -26.7597  -28.0387   21.5060 C   0  0  0  0  0  0  0  0  0  0  0  0
  -28.2905  -12.4611   20.4960 C   0  0  0  0  0  0  0  0  0  0  0  0
  -29.6774  -18.6127   20.5427 C   0  0  0  0  0  0  0  0  0  0  0  0
  -28.4340  -20.4895   21.7422 C   0  0  0  0  0  0  0  0  0  0  0  0
  -25.2574  -13.8466   14.9388 C   0  0  0  0  0  0  0  0  0  0  0  0
  -24.0574  -19.6543   17.9393 C   0  0  0  0  0  0  0  0  0  0  0  0
  -24.6985  -15.1389   14.9458 C   0  0  0  0  0  0  0  0  0  0  0  0
  -22.8273  -20.3177   17.8262 C   0  0  0  0  0  0  0  0  0  0  0  0
  -27.3993  -27.1500   20.6419 C   0  0  0  0  0  0  0  0  0  0  0  0
  -25.6837  -27.5277   18.9834 C   0  0  0  0  0  0  0  0  0  0  0  0
  -25.0440  -28.4164   19.8474 C   0  0  0  0  0  0  0  0  0  0  0  0
  -30.6721  -16.0170   20.3075 C   0  0  0  0  0  0  0  0  0  0  0  0
  -23.9423  -22.1694   16.7134 C   0  0  0  0  0  0  0  0  0  0  0  0
  -30.2552  -13.7388   19.9093 C   0  0  0  0  0  0  0  0  0  0  0  0
  -28.4383  -11.7011   19.3357 C   0  0  0  0  0  0  0  0  0  0  0  0
  -25.5820  -28.6720   21.1087 C   0  0  0  0  0  0  0  0  0  0  0  0
  -29.1989  -13.4799   20.7828 C   0  0  0  0  0  0  0  0  0  0  0  0
  -29.1629  -19.9531   20.6640 C   0  0  0  0  0  0  0  0  0  0  0  0
  -28.1822  -21.7886   21.3740 C   0  0  0  0  0  0  0  0  0  0  0  0
  -28.0214  -19.8691   22.9672 C   0  0  0  0  0  0  0  0  0  0  0  0
  -22.4909  -16.9693   17.2758 C   0  0  0  0  0  0  0  0  0  0  0  0
  -20.6814  -17.8566   19.8176 C   0  0  0  0  0  0  0  0  0  0  0  0
  -19.5519  -20.3671   21.8346 C   0  0  0  0  0  0  0  0  0  0  0  0
  -30.4045  -26.5658   19.2393 C   0  0  0  0  0  0  0  0  0  0  0  0
  -24.4896  -12.6475   15.4361 C   0  0  0  0  0  0  0  0  0  0  0  0
  -24.1416  -18.3171   18.6228 C   0  0  0  0  0  0  0  0  0  0  0  0
  -21.5497  -19.7138   18.3473 C   0  0  0  0  0  0  0  0  0  0  0  0
  -23.2969  -13.0104   16.3170 C   0  0  0  0  0  0  0  0  0  0  0  0
  -28.7806  -24.1508   16.9517 C   0  0  0  0  0  0  0  0  0  0  0  0
  -22.4855  -14.1344   15.6804 C   0  0  0  0  0  0  0  0  0  0  0  0
  -28.7455  -22.8724   17.7874 C   0  0  0  0  0  0  0  0  0  0  0  0
  -29.9471  -25.0527   17.3437 C   0  0  0  0  0  0  0  0  0  0  0  0
  -29.9543  -24.1084   19.6290 C   0  0  0  0  0  0  0  0  0  0  0  0
  -23.5584  -25.8905   16.3106 C   0  0  0  0  0  0  0  0  0  0  0  0
  -24.2939  -24.9739   18.0373 C   0  0  0  0  0  0  0  0  0  0  0  0
  -23.3285  -15.4065   15.5302 C   0  0  1  0  0  0  0  0  0  0  0  0
  -22.8175  -17.5594   18.6185 C   0  0  1  0  0  0  0  0  0  0  0  0
  -28.7634  -23.1990   19.2908 C   0  0  2  0  0  0  0  0  0  0  0  0
  -23.3796  -24.4809   16.9021 C   0  0  0  0  0  0  0  0  0  1  0  0
  -23.7820  -29.1040   19.4411 C   0  0  0  0  0  0  0  0  0  0  0  0
  -18.0549  -20.7893   23.8039 C   0  0  0  0  0  0  0  0  0  0  0  0
  -18.2353  -17.5749   18.0155 C   0  0  0  0  0  0  0  0  0  0  0  0
  -16.9304  -18.8913   19.6984 C   0  0  0  0  0  0  0  0  0  0  0  0
  -17.9279  -16.6958   20.3365 C   0  0  0  0  0  0  0  0  0  0  0  0
  -30.2559  -28.3472   20.9375 C   0  0  0  0  0  0  0  0  0  0  0  0
  -21.7952  -21.3991   23.4660 C   0  0  0  0  0  0  0  0  0  0  0  0
  -28.6579  -26.4723   21.0677 C   0  0  0  0  0  0  0  0  0  0  0  0
  -25.1248  -27.2378   17.6215 C   0  0  0  0  0  0  0  0  0  0  0  0
  -19.4400  -18.6948   20.0056 C   0  0  1  0  0  0  0  0  0  0  0  0
  -19.4732  -20.4868   23.3458 C   0  0  2  0  0  0  0  0  0  0  0  0
  -18.1570  -17.9750   19.5023 C   0  0  0  0  0  0  0  0  0  0  0  0
  -29.3612  -20.8389   19.6841 N   0  0  0  0  0  0  0  0  0  0  0  0
  -28.7531  -21.9450   20.1453 N   0  0  0  0  0  0  0  0  0  0  0  0
  -21.6830  -18.4019   19.0020 N   0  0  0  0  0  0  0  0  0  0  0  0
  -29.9652  -25.3118   18.7838 N   0  0  0  0  0  0  0  0  0  0  0  0
  -27.5303  -22.8008   21.9846 N   0  0  0  0  0  0  0  0  0  0  0  0
  -26.7774  -19.2246   23.0038 N   0  0  0  0  0  0  0  0  0  0  0  0
  -23.4444  -16.0890   16.8012 N   0  0  0  0  0  0  0  0  0  0  0  0
  -19.4048  -19.0612   21.4173 N   0  0  0  0  0  0  0  0  0  0  0  0
  -29.8410  -27.0468   20.4308 N   0  0  0  0  0  0  0  0  0  0  0  0
  -23.9391  -26.3540   17.6576 N   0  3  0  0  0  0  0  0  0  0  0  0
  -20.3653  -21.5797   23.8261 N   0  3  0  0  0  0  0  0  0  0  0  0
  -28.7276  -19.8999   24.0035 O   0  0  0  0  0  0  0  0  0  0  0  0
  -21.4501  -17.2878   16.7129 O   0  0  0  0  0  0  0  0  0  0  0  0
  -20.7624  -16.7615   20.3796 O   0  0  0  0  0  0  0  0  0  0  0  0
  -19.7229  -21.3358   21.0977 O   0  0  0  0  0  0  0  0  0  0  0  0
  -31.2451  -27.2224   18.6114 O   0  0  0  0  0  0  0  0  0  0  0  0
  -31.1574  -14.7506   20.1923 O   0  0  0  0  0  0  0  0  0  0  0  0
  -23.8819  -23.3897   16.1142 O   0  0  0  0  0  0  0  0  0  1  0  0
  -27.5651  -10.7237   19.0593 F   0  0  0  0  0  0  0  0  0  0  0  0
  -24.9754  -29.5247   21.9465 F   0  0  0  0  0  0  0  0  0  0  0  0
  -29.0511  -14.2074   21.8985 F   0  0  0  0  0  0  0  0  0  0  0  0
  1  2  1  0  0  0  0
  1  5  2  0  0  0  0
  2  6  2  0  0  0  0
  3  8  2  0  0  0  0
  3 17  1  0  0  0  0
  4  9  1  0  0  0  0
  4 17  2  0  0  0  0
  5 19  1  0  0  0  0
  6 21  1  0  0  0  0
  7 10  2  0  0  0  0
  7 20  1  0  0  0  0
  8 26  1  0  0  0  0
  9 26  2  0  0  0  0
 10 27  1  0  0  0  0
 11 12  2  0  0  0  0
 11 28  1  0  0  0  0
 12 29  1  0  0  0  0
 13 22  1  0  0  0  0
 13 27  2  0  0  0  0
 14 23  2  0  0  0  0
 14 24  1  0  0  0  0
 15 23  1  0  0  0  0
 15 30  2  0  0  0  0
 16 29  2  0  0  0  0
 16 31  1  0  0  0  0
 17 32  1  0  0  0  0
 18 32  1  0  0  0  0
 18 33  2  0  0  0  0
 18 34  1  0  0  0  0
 19 21  2  0  0  0  0
 19 39  1  0  0  0  0
 20 22  2  0  0  0  0
 20 40  1  0  0  0  0
 21 50  1  0  0  0  0
 22 41  1  0  0  0  0
 23 61  1  0  0  0  0
 24 25  2  0  0  0  0
 24 62  1  0  0  0  0
 25 30  1  0  0  0  0
 25 54  1  0  0  0  0
 26 82  1  0  0  0  0
 27 83  1  0  0  0  0
 28 31  2  0  0  0  0
 28 82  1  0  0  0  0
 29 84  1  0  0  0  0
 30 85  1  0  0  0  0
 31 86  1  0  0  0  0
 32 66  2  0  0  0  0
 33 67  1  0  0  0  0
 33 70  1  0  0  0  0
 34 71  1  0  0  0  0
 34 77  2  0  0  0  0
 35 51  1  0  0  0  0
 35 72  1  0  0  0  0
 35 78  2  0  0  0  0
 36 63  1  0  0  0  0
 36 68  1  0  0  0  0
 36 79  2  0  0  0  0
 37 64  1  0  0  0  0
 37 73  1  0  0  0  0
 37 80  2  0  0  0  0
 38 69  1  0  0  0  0
 38 74  1  0  0  0  0
 38 81  2  0  0  0  0
 39 42  1  0  0  0  0
 40 51  1  0  0  0  0
 41 68  1  0  0  0  0
 42 44  1  0  0  0  0
 43 45  1  0  0  0  0
 43 46  1  0  0  0  0
 44 50  1  0  0  0  0
 45 52  1  0  0  0  0
 46 69  1  0  0  0  0
 47 52  1  0  0  0  0
 47 69  1  0  0  0  0
 48 53  1  0  0  0  0
 48 75  1  0  0  0  0
 49 53  1  0  0  0  0
 49 75  1  0  0  0  0
 50 72  1  0  0  0  0
 51 68  1  0  0  0  0
 52 67  1  0  0  0  0
 53 83  1  0  0  0  0
 55 64  1  0  0  0  0
 56 65  1  0  0  0  0
 57 65  1  0  0  0  0
 58 65  1  0  0  0  0
 59 74  1  0  0  0  0
 60 76  1  0  0  0  0
 61 74  1  0  0  0  0
 62 75  1  0  0  0  0
 63 65  1  0  0  0  0
 63 73  1  0  0  0  0
 64 76  1  0  0  0  0
 66 67  1  0  0  0  0
M  CHG  2  75   1  76   1
M  ISO  4  38 100  53 101  74 100  83 101
M  END
> <Batch ID>
0028

> <Smiles>
CNC(C)C(=O)NC(C(=O)N1Cc2cc([101O:1][101CH:1]3CN(Cc4cc(C[100N:0](C)[100C:0](=O)N5CCCC(n6nc(-c7ccc(Oc8ccc(F)cc8F)cc7)c(C(N)=O)c6N)C5)cc(F)c4C)C3)ccc2CC1C(=O)NC1CCCc2ccccc21)C(C)(C)C

> <Shape>
0.199

> <Color>
0.059

> <Negative vol penalty>
0.000

$$$$

  -OEChem-04042321313D

 91100  0     1  0  0  0  0  0999 V2000
  -26.9883  -35.0715   24.3848 C   0  0  0  0  0  0  0  0  0  0  0  0
  -27.3539  -33.7681   24.0640 C   0  0  0  0  0  0  0  0  0  0  0  0
  -22.8140  -10.2212   20.1891 C   0  0  0  0  0  0  0  0  0  0  0  0
  -24.6200   -8.6862   20.6570 C   0  0  0  0  0  0  0  0  0  0  0  0
  -25.6590  -35.3681   24.6828 C   0  0  0  0  0  0  0  0  0  0  0  0
  -26.3904  -32.7603   24.0421 C   0  0  0  0  0  0  0  0  0  0  0  0
  -26.8021  -29.7669   19.9783 C   0  0  0  0  0  0  0  0  0  0  0  0
  -21.8936   -9.2774   20.6450 C   0  0  0  0  0  0  0  0  0  0  0  0
  -23.6997   -7.7424   21.1130 C   0  0  0  0  0  0  0  0  0  0  0  0
  -27.8046  -28.7982   19.9999 C   0  0  0  0  0  0  0  0  0  0  0  0
  -21.8959   -7.1755   23.9140 C   0  0  0  0  0  0  0  0  0  0  0  0
  -22.1891   -6.5086   25.1034 C   0  0  0  0  0  0  0  0  0  0  0  0
  -26.1706  -27.1296   20.6043 C   0  0  0  0  0  0  0  0  0  0  0  0
  -28.8897  -19.1897   20.7173 C   0  0  0  0  0  0  0  0  0  0  0  0
  -27.5568  -18.7004   18.7626 C   0  0  0  0  0  0  0  0  0  0  0  0
  -22.1487   -4.3973   23.9297 C   0  0  0  0  0  0  0  0  0  0  0  0
  -24.1772   -9.9256   20.1951 C   0  0  0  0  0  0  0  0  0  0  0  0
  -25.1957  -11.4694   18.4381 C   0  0  0  0  0  0  0  0  0  0  0  0
  -24.6770  -34.3653   24.6551 C   0  0  0  0  0  0  0  0  0  0  0  0
  -25.4760  -29.4258   20.2806 C   0  0  0  0  0  0  0  0  0  0  0  0
  -25.0469  -33.0435   24.3414 C   0  0  0  0  0  0  0  0  0  0  0  0
  -25.1528  -28.0954   20.5833 C   0  0  0  0  0  0  0  0  0  0  0  0
  -28.7156  -20.5555   20.4942 C   0  0  0  0  0  0  0  0  0  0  0  0
  -27.3826  -20.0662   18.5395 C   0  0  0  0  0  0  0  0  0  0  0  0
  -27.9620  -20.9938   19.4053 C   0  0  0  0  0  0  0  0  0  0  0  0
  -28.3104  -18.2621   19.8515 C   0  0  0  0  0  0  0  0  0  0  0  0
  -22.3365   -8.0380   21.1069 C   0  0  0  0  0  0  0  0  0  0  0  0
  -27.4894  -27.4799   20.3158 C   0  0  0  0  0  0  0  0  0  0  0  0
  -21.7290   -6.4533   22.7323 C   0  0  0  0  0  0  0  0  0  0  0  0
  -22.3156   -5.1195   25.1113 C   0  0  0  0  0  0  0  0  0  0  0  0
  -21.8555   -5.0642   22.7402 C   0  0  0  0  0  0  0  0  0  0  0  0
  -25.1283  -10.8999   19.7238 C   0  0  0  0  0  0  0  0  0  0  0  0
  -26.2652  -12.3290   18.4989 C   0  0  0  0  0  0  0  0  0  0  0  0
  -24.3657  -11.2417   17.2914 C   0  0  0  0  0  0  0  0  0  0  0  0
  -23.3983  -30.2765   22.5308 C   0  0  0  0  0  0  0  0  0  0  0  0
  -21.3517  -28.4746   20.7738 C   0  0  0  0  0  0  0  0  0  0  0  0
  -29.2494  -24.4757   19.3704 C   0  0  0  0  0  0  0  0  0  0  0  0
  -20.9178  -25.9439   18.5255 C   0  0  0  0  0  0  0  0  0  0  0  0
  -29.2028  -16.2718   21.1119 C   0  0  0  0  0  0  0  0  0  0  0  0
  -23.2613  -34.7250   25.0306 C   0  0  0  0  0  0  0  0  0  0  0  0
  -24.4018  -30.4773   20.2267 C   0  0  0  0  0  0  0  0  0  0  0  0
  -23.7411  -27.6736   20.8956 C   0  0  0  0  0  0  0  0  0  0  0  0
  -22.2357  -33.6717   24.6194 C   0  0  0  0  0  0  0  0  0  0  0  0
  -22.3300  -21.4108   17.5508 C   0  0  0  0  0  0  0  0  0  0  0  0
  -29.8406  -12.8933   22.0373 C   0  0  0  0  0  0  0  0  0  0  0  0
  -23.3186  -22.5119   17.1824 C   0  0  0  0  0  0  0  0  0  0  0  0
  -22.9373  -20.4366   18.5546 C   0  0  0  0  0  0  0  0  0  0  0  0
  -22.7191  -32.2771   25.0043 C   0  0  0  0  0  0  0  0  0  0  0  0
  -28.6770  -12.1204   21.4121 C   0  0  0  0  0  0  0  0  0  0  0  0
  -29.3990  -14.2601   22.5575 C   0  0  0  0  0  0  0  0  0  0  0  0
  -27.5292  -14.3250   20.9548 C   0  0  0  0  0  0  0  0  0  0  0  0
  -24.6424  -21.9408   16.6948 C   0  0  0  0  0  0  0  0  0  0  0  0
  -24.2626  -19.8731   18.0624 C   0  0  0  0  0  0  0  0  0  0  0  0
  -24.0264  -31.9277   24.2829 C   0  0  1  0  0  0  0  0  0  0  0  0
  -23.1715  -30.1175   21.0540 C   0  0  1  0  0  0  0  0  0  0  0  0
  -27.9387  -12.9686   20.3581 C   0  0  2  0  0  0  0  0  0  0  0  0
  -29.3469  -21.5283   21.4356 C   0  0  0  0  0  0  0  0  0  0  0  0
  -19.1268  -24.6751   17.3091 C   0  0  0  0  0  0  0  0  0  0  0  0
  -20.7074  -26.9382   23.3300 C   0  0  0  0  0  0  0  0  0  0  0  0
  -19.6912  -25.1426   21.9118 C   0  0  0  0  0  0  0  0  0  0  0  0
  -18.7267  -27.4430   21.8889 C   0  0  0  0  0  0  0  0  0  0  0  0
  -30.0917  -22.3604   18.3369 C   0  0  0  0  0  0  0  0  0  0  0  0
  -21.9499  -26.7907   15.8842 C   0  0  0  0  0  0  0  0  0  0  0  0
  -27.7742  -22.4640   19.1656 C   0  0  0  0  0  0  0  0  0  0  0  0
  -26.5711  -20.5093   17.3663 C   0  0  0  0  0  0  0  0  0  0  0  0
  -28.0830  -25.1970   20.0124 C   0  0  0  0  0  0  0  0  0  1  0  0
  -20.9493  -27.0196   20.7608 C   0  0  1  0  0  0  0  0  0  0  0  0
  -20.0866  -25.8537   17.2585 C   0  0  2  0  0  0  0  0  0  0  0  0
  -20.0457  -26.6438   21.9689 C   0  0  0  0  0  0  0  0  0  0  0  0
  -26.0794  -11.3590   20.5415 N   0  0  0  0  0  0  0  0  0  0  0  0
  -26.7545  -12.2259   19.7678 N   0  0  0  0  0  0  0  0  0  0  0  0
  -22.7271  -28.7394   20.8361 N   0  0  0  0  0  0  0  0  0  0  0  0
  -28.7109  -15.0087   21.5035 N   0  0  0  0  0  0  0  0  0  0  0  0
  -26.8254  -13.1554   17.5903 N   0  0  0  0  0  0  0  0  0  0  0  0
  -24.7289  -10.2280   16.3943 N   0  0  0  0  0  0  0  0  0  0  0  0
  -28.4862  -16.8746   20.0786 N   0  0  0  0  0  0  0  0  0  0  0  0
  -23.7618  -31.5546   22.9098 N   0  0  0  0  0  0  0  0  0  0  0  0
  -20.3376  -26.7768   19.4588 N   0  0  0  0  0  0  0  0  0  0  0  0
  -29.0474  -23.1535   18.9734 N   0  0  0  0  0  0  0  0  0  0  0  0
  -25.2042  -21.0103   17.7436 N   0  3  0  0  0  0  0  0  0  0  0  0
  -20.9703  -25.6894   16.0698 N   0  3  0  0  0  0  0  0  0  0  0  0
  -23.3415  -11.9281   17.0602 O   0  0  0  0  0  0  0  0  0  0  0  0
  -23.2527  -29.3113   23.2717 O   0  0  0  0  0  0  0  0  0  0  0  0
  -20.4782  -29.3440   20.7230 O   0  0  0  0  0  0  0  0  0  0  0  0
  -30.3135  -25.0842   19.2212 O   0  0  0  0  0  0  0  0  0  0  0  0
  -21.9742  -25.3335   18.6741 O   0  0  0  0  0  0  0  0  0  0  0  0
  -30.2034  -16.7691   21.6348 O   0  0  0  0  0  0  0  0  0  0  0  0
  -21.4387   -7.1169   21.5521 O   0  0  0  0  0  0  0  0  0  0  0  0
  -28.4660  -26.5325   20.3383 O   0  0  0  0  0  0  0  0  0  1  0  0
  -22.5987   -4.4794   26.2533 F   0  0  0  0  0  0  0  0  0  0  0  0
  -21.6974   -4.3650   21.6079 F   0  0  0  0  0  0  0  0  0  0  0  0
  1  2  1  0  0  0  0
  1  5  2  0  0  0  0
  2  6  2  0  0  0  0
  3  8  2  0  0  0  0
  3 17  1  0  0  0  0
  4  9  1  0  0  0  0
  4 17  2  0  0  0  0
  5 19  1  0  0  0  0
  6 21  1  0  0  0  0
  7 10  2  0  0  0  0
  7 20  1  0  0  0  0
  8 27  1  0  0  0  0
  9 27  2  0  0  0  0
 10 28  1  0  0  0  0
 11 12  2  0  0  0  0
 11 29  1  0  0  0  0
 12 30  1  0  0  0  0
 13 22  1  0  0  0  0
 13 28  2  0  0  0  0
 14 23  2  0  0  0  0
 14 26  1  0  0  0  0
 15 24  1  0  0  0  0
 15 26  2  0  0  0  0
 16 30  2  0  0  0  0
 16 31  1  0  0  0  0
 17 32  1  0  0  0  0
 18 32  1  0  0  0  0
 18 33  2  0  0  0  0
 18 34  1  0  0  0  0
 19 21  2  0  0  0  0
 19 40  1  0  0  0  0
 20 22  2  0  0  0  0
 20 41  1  0  0  0  0
 21 54  1  0  0  0  0
 22 42  1  0  0  0  0
 23 25  1  0  0  0  0
 23 57  1  0  0  0  0
 24 25  2  0  0  0  0
 24 65  1  0  0  0  0
 25 64  1  0  0  0  0
 26 76  1  0  0  0  0
 27 88  1  0  0  0  0
 28 89  1  0  0  0  0
 29 31  2  0  0  0  0
 29 88  1  0  0  0  0
 30 90  1  0  0  0  0
 31 91  1  0  0  0  0
 32 70  2  0  0  0  0
 33 71  1  0  0  0  0
 33 74  1  0  0  0  0
 34 75  1  0  0  0  0
 34 82  2  0  0  0  0
 35 55  1  0  0  0  0
 35 77  1  0  0  0  0
 35 83  2  0  0  0  0
 36 67  1  0  0  0  0
 36 72  1  0  0  0  0
 36 84  2  0  0  0  0
 37 66  1  0  0  0  0
 37 79  1  0  0  0  0
 37 85  2  0  0  0  0
 38 68  1  0  0  0  0
 38 78  1  0  0  0  0
 38 86  2  0  0  0  0
 39 73  1  0  0  0  0
 39 76  1  0  0  0  0
 39 87  2  0  0  0  0
 40 43  1  0  0  0  0
 41 55  1  0  0  0  0
 42 72  1  0  0  0  0
 43 48  1  0  0  0  0
 44 46  1  0  0  0  0
 44 47  1  0  0  0  0
 45 49  1  0  0  0  0
 45 50  1  0  0  0  0
 46 52  1  0  0  0  0
 47 53  1  0  0  0  0
 48 54  1  0  0  0  0
 49 56  1  0  0  0  0
 50 73  1  0  0  0  0
 51 56  1  0  0  0  0
 51 73  1  0  0  0  0
 52 80  1  0  0  0  0
 53 80  1  0  0  0  0
 54 77  1  0  0  0  0
 55 72  1  0  0  0  0
 56 71  1  0  0  0  0
 58 68  1  0  0  0  0
 59 69  1  0  0  0  0
 60 69  1  0  0  0  0
 61 69  1  0  0  0  0
 62 79  1  0  0  0  0
 63 81  1  0  0  0  0
 64 79  1  0  0  0  0
 65 80  1  0  0  0  0
 66 89  1  0  0  0  0
 67 69  1  0  0  0  0
 67 78  1  0  0  0  0
 68 81  1  0  0  0  0
 70 71  1  0  0  0  0
M  CHG  2  80   1  81   1
M  ISO  4  39 100  66 101  76 100  89 101
M  END
> <Batch ID>
0028

> <Smiles>
CNC(C)C(=O)NC(C(=O)N1Cc2cc([101O:1][101CH2:1]C(=O)N(C)Cc3c(C)cc([100NH:0][100C:0](=O)N4CCCC(n5nc(-c6ccc(Oc7ccc(F)cc7F)cc6)c(C(N)=O)c5N)C4)cc3CN3CCCCC3)ccc2CC1C(=O)NC1CCCc2ccccc21)C(C)(C)C

> <Shape>
0.354

> <Color>
0.125

> <Negative vol penalty>
0.000

$$$$

  -OEChem-04042321313D

 86 95  0     1  0  0  0  0  0999 V2000
  -18.1966  -32.7403   24.1070 C   0  0  0  0  0  0  0  0  0  0  0  0
  -19.4283  -32.9460   23.4937 C   0  0  0  0  0  0  0  0  0  0  0  0
  -24.7437  -13.7004   19.4478 C   0  0  0  0  0  0  0  0  0  0  0  0
  -26.0461  -14.2519   21.4066 C   0  0  0  0  0  0  0  0  0  0  0  0
  -17.9181  -31.5176   24.7163 C   0  0  0  0  0  0  0  0  0  0  0  0
  -20.3826  -31.9292   23.4903 C   0  0  0  0  0  0  0  0  0  0  0  0
  -25.6588  -29.2383   19.4608 C   0  0  0  0  0  0  0  0  0  0  0  0
  -24.7552  -12.3558   19.8188 C   0  0  0  0  0  0  0  0  0  0  0  0
  -26.0575  -12.9073   21.7776 C   0  0  0  0  0  0  0  0  0  0  0  0
  -27.0047  -28.8843   19.5447 C   0  0  0  0  0  0  0  0  0  0  0  0
  -23.1288  -10.3635   22.0138 C   0  0  0  0  0  0  0  0  0  0  0  0
  -21.9273   -9.6592   21.9356 C   0  0  0  0  0  0  0  0  0  0  0  0
  -26.3831  -26.7858   20.5593 C   0  0  0  0  0  0  0  0  0  0  0  0
  -31.3434  -22.2068   19.4864 C   0  0  0  0  0  0  0  0  0  0  0  0
  -31.2022  -20.7044   21.3731 C   0  0  0  0  0  0  0  0  0  0  0  0
  -22.9301   -8.1230   20.3635 C   0  0  0  0  0  0  0  0  0  0  0  0
  -25.3892  -14.6484   20.2417 C   0  0  0  0  0  0  0  0  0  0  0  0
  -24.4266  -17.0107   20.2177 C   0  0  0  0  0  0  0  0  0  0  0  0
  -18.8658  -30.4820   24.7119 C   0  0  0  0  0  0  0  0  0  0  0  0
  -24.6639  -28.3720   19.9362 C   0  0  0  0  0  0  0  0  0  0  0  0
  -20.1170  -30.6920   24.1012 C   0  0  0  0  0  0  0  0  0  0  0  0
  -25.0252  -27.1301   20.4779 C   0  0  0  0  0  0  0  0  0  0  0  0
  -31.8596  -23.2014   20.3169 C   0  0  0  0  0  0  0  0  0  0  0  0
  -31.0146  -20.9583   20.0145 C   0  0  0  0  0  0  0  0  0  0  0  0
  -25.4121  -11.9593   20.9836 C   0  0  0  0  0  0  0  0  0  0  0  0
  -27.3672  -27.6591   20.0966 C   0  0  0  0  0  0  0  0  0  0  0  0
  -24.2309   -9.9476   21.2668 C   0  0  0  0  0  0  0  0  0  0  0  0
  -21.8280   -8.5390   21.1105 C   0  0  0  0  0  0  0  0  0  0  0  0
  -31.7184  -21.6990   22.2037 C   0  0  0  0  0  0  0  0  0  0  0  0
  -24.1316   -8.8273   20.4417 C   0  0  0  0  0  0  0  0  0  0  0  0
  -32.0472  -22.9475   21.6756 C   0  0  0  0  0  0  0  0  0  0  0  0
  -25.3782  -16.0374   19.8587 C   0  0  0  0  0  0  0  0  0  0  0  0
  -24.8629  -18.1599   19.6050 C   0  0  0  0  0  0  0  0  0  0  0  0
  -31.5180  -26.8592   19.4217 C   0  0  0  0  0  0  0  0  0  0  0  0
  -32.5931  -27.5598   19.8016 C   0  0  0  0  0  0  0  0  0  0  0  0
  -23.2531  -16.8870   21.0322 C   0  0  0  0  0  0  0  0  0  0  0  0
  -22.4423  -28.5368   22.2036 C   0  0  0  0  0  0  0  0  0  0  0  0
  -21.5151  -25.6889   20.9578 C   0  0  0  0  0  0  0  0  0  0  0  0
  -22.1634  -22.4312   19.5491 C   0  0  0  0  0  0  0  0  0  0  0  0
  -30.2422  -20.0349   17.8015 C   0  0  0  0  0  0  0  0  0  0  0  0
  -18.5371  -29.1941   25.4246 C   0  0  0  0  0  0  0  0  0  0  0  0
  -23.2151  -28.7572   19.8140 C   0  0  0  0  0  0  0  0  0  0  0  0
  -23.9944  -26.1556   20.9840 C   0  0  0  0  0  0  0  0  0  0  0  0
  -30.4373  -27.3526   18.5111 C   0  0  0  0  0  0  0  0  0  0  0  0
  -19.4612  -28.0381   25.0507 C   0  0  0  0  0  0  0  0  0  0  0  0
  -27.3310  -19.6623   15.7859 C   0  0  0  0  0  0  0  0  0  0  0  0
  -20.9181  -28.4893   25.0770 C   0  0  0  0  0  0  0  0  0  0  0  0
  -26.4108  -18.7841   16.6368 C   0  0  0  0  0  0  0  0  0  0  0  0
  -28.7969  -19.2591   15.9349 C   0  0  0  0  0  0  0  0  0  0  0  0
  -28.3650  -18.3154   18.1692 C   0  0  0  0  0  0  0  0  0  0  0  0
  -29.7968  -25.2761   19.5499 C   0  0  0  0  0  0  0  0  0  0  0  0
  -21.1687  -29.6048   24.0551 C   0  0  1  0  0  0  0  0  0  0  0  0
  -22.3150  -28.0179   20.7992 C   0  0  1  0  0  0  0  0  0  0  0  0
  -26.8848  -18.7253   18.1022 C   0  0  2  0  0  0  0  0  0  0  0  0
  -29.2362  -26.6088   19.0740 C   0  0  1  0  0  0  0  0  0  1  0  0
  -20.5836  -20.6842   18.6834 C   0  0  0  0  0  0  0  0  0  0  0  0
  -21.7032  -24.5365   23.7768 C   0  0  0  0  0  0  0  0  0  0  0  0
  -21.6762  -22.2457   22.7670 C   0  0  0  0  0  0  0  0  0  0  0  0
  -19.7199  -23.7635   22.4640 C   0  0  0  0  0  0  0  0  0  0  0  0
  -23.5267  -22.3331   16.9241 C   0  0  0  0  0  0  0  0  0  0  0  0
  -32.2001  -24.5303   19.7095 C   0  0  0  0  0  0  0  0  0  0  0  0
  -21.8661  -24.2436   21.2167 C   0  0  1  0  0  0  0  0  0  0  0  0
  -21.5148  -21.8289   18.3158 C   0  0  2  0  0  0  0  0  0  0  0  0
  -21.2611  -23.7163   22.5484 C   0  0  0  0  0  0  0  0  0  0  0  0
  -26.3460  -16.5257   19.0784 N   0  0  0  0  0  0  0  0  0  0  0  0
  -26.0047  -17.8184   18.9418 N   0  0  0  0  0  0  0  0  0  0  0  0
  -22.5914  -26.5807   20.8483 N   0  0  0  0  0  0  0  0  0  0  0  0
  -29.1760  -19.2291   17.3492 N   0  0  0  0  0  0  0  0  0  0  0  0
  -24.3774  -19.4192   19.5741 N   0  0  0  0  0  0  0  0  0  0  0  0
  -22.9519  -15.6345   21.5842 N   0  0  0  0  0  0  0  0  0  0  0  0
  -30.4901  -19.9477   19.1710 N   0  0  0  0  0  0  0  0  0  0  0  0
  -21.2699  -29.0542   22.7205 N   0  0  0  0  0  0  0  0  0  0  0  0
  -21.4431  -23.5025   20.0335 N   0  0  0  0  0  0  0  0  0  0  0  0
  -31.2047  -25.6007   20.0426 N   0  3  1  0  0  0  0  0  0  0  0  0
  -22.5557  -21.3077   17.3854 N   0  3  0  0  0  0  0  0  0  0  0  0
  -22.4852  -17.8547   21.2501 O   0  0  0  0  0  0  0  0  0  0  0  0
  -23.5236  -28.4712   22.7763 O   0  0  0  0  0  0  0  0  0  0  0  0
  -20.3299  -26.0133   20.8493 O   0  0  0  0  0  0  0  0  0  0  0  0
  -23.2030  -21.9926   20.0365 O   0  0  0  0  0  0  0  0  0  0  0  0
  -30.8702  -20.7702   17.0355 O   0  0  0  0  0  0  0  0  0  0  0  0
  -25.4232  -10.6474   21.3461 O   0  0  0  0  0  0  0  0  0  0  0  0
  -28.6801  -27.3113   20.1804 O   0  0  0  0  0  0  0  0  0  1  0  0
  -20.6747   -7.8618   21.0367 F   0  0  0  0  0  0  0  0  0  0  0  0
  -31.8926  -21.4380   23.5074 F   0  0  0  0  0  0  0  0  0  0  0  0
  -25.1873   -8.4223   19.7225 F   0  0  0  0  0  0  0  0  0  0  0  0
  -32.6844  -24.1586   22.7284 Cl  0  0  0  0  0  0  0  0  0  0  0  0
  1  2  1  0  0  0  0
  1  5  2  0  0  0  0
  2  6  2  0  0  0  0
  3  8  2  0  0  0  0
  3 17  1  0  0  0  0
  4  9  1  0  0  0  0
  4 17  2  0  0  0  0
  5 19  1  0  0  0  0
  6 21  1  0  0  0  0
  7 10  2  0  0  0  0
  7 20  1  0  0  0  0
  8 25  1  0  0  0  0
  9 25  2  0  0  0  0
 10 26  1  0  0  0  0
 11 12  2  0  0  0  0
 11 27  1  0  0  0  0
 12 28  1  0  0  0  0
 13 22  1  0  0  0  0
 13 26  2  0  0  0  0
 14 23  1  0  0  0  0
 14 24  2  0  0  0  0
 15 24  1  0  0  0  0
 15 29  2  0  0  0  0
 16 28  2  0  0  0  0
 16 30  1  0  0  0  0
 17 32  1  0  0  0  0
 18 32  1  0  0  0  0
 18 33  2  0  0  0  0
 18 36  1  0  0  0  0
 19 21  2  0  0  0  0
 19 41  1  0  0  0  0
 20 22  2  0  0  0  0
 20 42  1  0  0  0  0
 21 52  1  0  0  0  0
 22 43  1  0  0  0  0
 23 31  2  0  0  0  0
 23 61  1  0  0  0  0
 24 71  1  0  0  0  0
 25 81  1  0  0  0  0
 26 82  1  0  0  0  0
 27 30  2  0  0  0  0
 27 81  1  0  0  0  0
 28 83  1  0  0  0  0
 29 31  1  0  0  0  0
 29 84  1  0  0  0  0
 30 85  1  0  0  0  0
 31 86  1  0  0  0  0
 32 65  2  0  0  0  0
 33 66  1  0  0  0  0
 33 69  1  0  0  0  0
 34 35  2  0  0  0  0
 34 44  1  0  0  0  0
 34 74  1  0  0  0  0
 36 70  1  0  0  0  0
 36 76  2  0  0  0  0
 37 53  1  0  0  0  0
 37 72  1  0  0  0  0
 37 77  2  0  0  0  0
 38 62  1  0  0  0  0
 38 67  1  0  0  0  0
 38 78  2  0  0  0  0
 39 63  1  0  0  0  0
 39 73  1  0  0  0  0
 39 79  2  0  0  0  0
 40 68  1  0  0  0  0
 40 71  1  0  0  0  0
 40 80  2  0  0  0  0
 41 45  1  0  0  0  0
 42 53  1  0  0  0  0
 43 67  1  0  0  0  0
 44 55  1  0  0  0  0
 45 47  1  0  0  0  0
 46 48  1  0  0  0  0
 46 49  1  0  0  0  0
 47 52  1  0  0  0  0
 48 54  1  0  0  0  0
 49 68  1  0  0  0  0
 50 54  1  0  0  0  0
 50 68  1  0  0  0  0
 51 55  1  0  0  0  0
 51 74  1  0  0  0  0
 52 72  1  0  0  0  0
 53 67  1  0  0  0  0
 54 66  1  0  0  0  0
 55 82  1  0  0  0  0
 56 63  1  0  0  0  0
 57 64  1  0  0  0  0
 58 64  1  0  0  0  0
 59 64  1  0  0  0  0
 60 75  1  0  0  0  0
 61 74  1  0  0  0  0
 62 64  1  0  0  0  0
 62 73  1  0  0  0  0
 63 75  1  0  0  0  0
 65 66  1  0  0  0  0
M  CHG  2  74   1  75   1
M  ISO  4  40 100  55 101  71 100  82 101
M  END
> <Batch ID>
0028

> <Smiles>
C=C1C[101CH:1]([101O:1]c2ccc3c(c2)CN(C(=O)C(NC(=O)C(C)NC)C(C)(C)C)C(C(=O)NC2CCCc4ccccc42)C3)CN1Cc1cc([100NH:0][100C:0](=O)N2CCCC(n3nc(-c4ccc(Oc5ccc(F)cc5F)cc4)c(C(N)=O)c3N)C2)cc(F)c1Cl

> <Shape>
0.197

> <Color>
0.092

> <Negative vol penalty>
0.000

$$$$

  -OEChem-04042321313D

 84 93  0     1  0  0  0  0  0999 V2000
  -32.4446  -27.6032   33.4051 C   0  0  0  0  0  0  0  0  0  0  0  0
  -31.8724  -26.6924   32.5227 C   0  0  0  0  0  0  0  0  0  0  0  0
  -23.0754   -9.8682   19.9404 C   0  0  0  0  0  0  0  0  0  0  0  0
  -23.8346   -9.8746   22.2340 C   0  0  0  0  0  0  0  0  0  0  0  0
  -33.1728  -28.6856   32.9130 C   0  0  0  0  0  0  0  0  0  0  0  0
  -32.0271  -26.8642   31.1476 C   0  0  0  0  0  0  0  0  0  0  0  0
  -32.5789  -22.4615   26.9265 C   0  0  0  0  0  0  0  0  0  0  0  0
  -22.3311   -8.7153   20.1900 C   0  0  0  0  0  0  0  0  0  0  0  0
  -23.0902   -8.7217   22.4836 C   0  0  0  0  0  0  0  0  0  0  0  0
  -31.6611  -21.8785   26.0538 C   0  0  0  0  0  0  0  0  0  0  0  0
  -19.8617   -7.9247   23.0850 C   0  0  0  0  0  0  0  0  0  0  0  0
  -19.1043   -7.8848   24.2557 C   0  0  0  0  0  0  0  0  0  0  0  0
  -32.3701  -23.3871   24.3101 C   0  0  0  0  0  0  0  0  0  0  0  0
  -30.6192  -19.8571   21.4112 C   0  0  0  0  0  0  0  0  0  0  0  0
  -31.1616  -17.6560   20.5853 C   0  0  0  0  0  0  0  0  0  0  0  0
  -20.3450   -5.9469   24.9922 C   0  0  0  0  0  0  0  0  0  0  0  0
  -23.8272  -10.4479   20.9624 C   0  0  0  0  0  0  0  0  0  0  0  0
  -24.1698  -12.9730   20.8429 C   0  0  0  0  0  0  0  0  0  0  0  0
  -33.3446  -28.8653   31.5314 C   0  0  0  0  0  0  0  0  0  0  0  0
  -33.3928  -23.5208   26.5000 C   0  0  0  0  0  0  0  0  0  0  0  0
  -32.7571  -27.9508   30.6365 C   0  0  0  0  0  0  0  0  0  0  0  0
  -33.2991  -23.9802   25.1786 C   0  0  0  0  0  0  0  0  0  0  0  0
  -29.7010  -19.3087   22.3213 C   0  0  0  0  0  0  0  0  0  0  0  0
  -29.5228  -17.9140   22.3597 C   0  0  0  0  0  0  0  0  0  0  0  0
  -30.2523  -17.0978   21.4828 C   0  0  0  0  0  0  0  0  0  0  0  0
  -22.3385   -8.1420   21.4616 C   0  0  0  0  0  0  0  0  0  0  0  0
  -31.5546  -22.3432   24.7462 C   0  0  0  0  0  0  0  0  0  0  0  0
  -20.8606   -6.9757   22.8679 C   0  0  0  0  0  0  0  0  0  0  0  0
  -19.3460   -6.8960   25.2093 C   0  0  0  0  0  0  0  0  0  0  0  0
  -31.3449  -19.0351   20.5495 C   0  0  0  0  0  0  0  0  0  0  0  0
  -21.1023   -5.9868   23.8215 C   0  0  0  0  0  0  0  0  0  0  0  0
  -24.5967  -11.6386   20.7051 C   0  0  0  0  0  0  0  0  0  0  0  0
  -25.2623  -13.7222   20.4800 C   0  0  0  0  0  0  0  0  0  0  0  0
  -22.8993  -13.4891   21.2615 C   0  0  0  0  0  0  0  0  0  0  0  0
  -33.7566  -26.5583   27.3632 C   0  0  0  0  0  0  0  0  0  0  0  0
  -36.2097  -26.4606   25.2431 C   0  0  0  0  0  0  0  0  0  0  0  0
  -37.6082  -24.9964   22.4959 C   0  0  0  0  0  0  0  0  0  0  0  0
  -30.7287  -14.7661   20.6566 C   0  0  0  0  0  0  0  0  0  0  0  0
  -34.1001  -30.0768   31.0455 C   0  0  0  0  0  0  0  0  0  0  0  0
  -34.3965  -24.1211   27.4459 C   0  0  0  0  0  0  0  0  0  0  0  0
  -34.1643  -25.1012   24.6655 C   0  0  0  0  0  0  0  0  0  0  0  0
  -28.5176  -17.2808   23.2823 C   0  0  0  0  0  0  0  0  0  0  0  0
  -34.5334  -29.9791   29.5850 C   0  0  0  0  0  0  0  0  0  0  0  0
  -29.6143  -12.3530   18.2876 C   0  0  0  0  0  0  0  0  0  0  0  0
  -33.3777  -29.4919   28.7167 C   0  0  0  0  0  0  0  0  0  0  0  0
  -28.1744  -12.0618   18.7167 C   0  0  0  0  0  0  0  0  0  0  0  0
  -30.5291  -12.5814   19.4896 C   0  0  0  0  0  0  0  0  0  0  0  0
  -28.6220  -13.3062   20.8703 C   0  0  0  0  0  0  0  0  0  0  0  0
  -27.6718  -19.5601   23.8181 C   0  0  0  0  0  0  0  0  0  0  0  0
  -28.9406  -20.2222   23.2634 C   0  0  1  0  0  0  0  0  0  0  0  0
  -32.9237  -28.0894   29.1388 C   0  0  1  0  0  0  0  0  0  0  0  0
  -34.8136  -25.5357   27.0555 C   0  0  1  0  0  0  0  0  0  0  0  0
  -27.6494  -13.1334   19.6922 C   0  0  2  0  0  0  0  0  0  0  0  0
  -39.5973  -25.1591   20.9746 C   0  0  0  0  0  0  0  0  0  0  0  0
  -34.9712  -28.8980   23.8884 C   0  0  0  0  0  0  0  0  0  0  0  0
  -36.4111  -28.4340   21.8935 C   0  0  0  0  0  0  0  0  0  0  0  0
  -37.4628  -28.9707   24.0909 C   0  0  0  0  0  0  0  0  0  0  0  0
  -26.8620  -17.5915   25.1291 C   0  0  0  0  0  0  0  0  0  0  0  0
  -38.5101  -22.2650   23.1922 C   0  0  0  0  0  0  0  0  0  0  0  0
  -29.8592  -20.7141   24.3890 C   0  0  0  0  0  0  0  0  0  1  0  0
  -36.3549  -26.7218   23.7633 C   0  0  1  0  0  0  0  0  0  0  0  0
  -39.0199  -24.5096   22.2226 C   0  0  2  0  0  0  0  0  0  0  0  0
  -36.2822  -28.2363   23.4189 C   0  0  0  0  0  0  0  0  0  0  0  0
  -25.8616  -11.5424   20.2872 N   0  0  0  0  0  0  0  0  0  0  0  0
  -26.2390  -12.8259   20.1592 N   0  0  0  0  0  0  0  0  0  0  0  0
  -35.1259  -25.6599   25.6303 N   0  0  0  0  0  0  0  0  0  0  0  0
  -29.9702  -13.6122   20.3669 N   0  0  0  0  0  0  0  0  0  0  0  0
  -25.4731  -15.0536   20.4073 N   0  0  0  0  0  0  0  0  0  0  0  0
  -21.8870  -12.5802   21.5983 N   0  0  0  0  0  0  0  0  0  0  0  0
  -30.0813  -15.6913   21.4749 N   0  0  0  0  0  0  0  0  0  0  0  0
  -33.8406  -27.0888   28.6363 N   0  0  0  0  0  0  0  0  0  0  0  0
  -37.5972  -26.0751   23.3546 N   0  0  0  0  0  0  0  0  0  0  0  0
  -28.0093  -18.1990   24.3721 N   0  3  1  0  0  0  0  0  0  0  0  0
  -39.0303  -23.0318   22.0310 N   0  3  0  0  0  0  0  0  0  0  0  0
  -22.6634  -14.7198   21.3189 O   0  0  0  0  0  0  0  0  0  0  0  0
  -32.9271  -26.8458   26.5082 O   0  0  0  0  0  0  0  0  0  0  0  0
  -37.0319  -26.9431   26.0259 O   0  0  0  0  0  0  0  0  0  0  0  0
  -36.6149  -24.4743   21.9945 O   0  0  0  0  0  0  0  0  0  0  0  0
  -31.8580  -14.9346   20.1893 O   0  0  0  0  0  0  0  0  0  0  0  0
  -21.6121   -7.0171   21.7055 O   0  0  0  0  0  0  0  0  0  0  0  0
  -30.6503  -21.7707   23.8840 O   0  0  0  0  0  0  0  0  0  1  0  0
  -18.6197   -6.8587   26.3342 F   0  0  0  0  0  0  0  0  0  0  0  0
  -32.2176  -19.5733   19.6878 F   0  0  0  0  0  0  0  0  0  0  0  0
  -22.0614   -5.0730   23.6190 F   0  0  0  0  0  0  0  0  0  0  0  0
  1  2  1  0  0  0  0
  1  5  2  0  0  0  0
  2  6  2  0  0  0  0
  3  8  2  0  0  0  0
  3 17  1  0  0  0  0
  4  9  1  0  0  0  0
  4 17  2  0  0  0  0
  5 19  1  0  0  0  0
  6 21  1  0  0  0  0
  7 10  2  0  0  0  0
  7 20  1  0  0  0  0
  8 26  1  0  0  0  0
  9 26  2  0  0  0  0
 10 27  1  0  0  0  0
 11 12  2  0  0  0  0
 11 28  1  0  0  0  0
 12 29  1  0  0  0  0
 13 22  1  0  0  0  0
 13 27  2  0  0  0  0
 14 23  1  0  0  0  0
 14 30  2  0  0  0  0
 15 25  2  0  0  0  0
 15 30  1  0  0  0  0
 16 29  2  0  0  0  0
 16 31  1  0  0  0  0
 17 32  1  0  0  0  0
 18 32  1  0  0  0  0
 18 33  2  0  0  0  0
 18 34  1  0  0  0  0
 19 21  2  0  0  0  0
 19 39  1  0  0  0  0
 20 22  2  0  0  0  0
 20 40  1  0  0  0  0
 21 51  1  0  0  0  0
 22 41  1  0  0  0  0
 23 24  2  0  0  0  0
 23 50  1  0  0  0  0
 24 25  1  0  0  0  0
 24 42  1  0  0  0  0
 25 70  1  0  0  0  0
 26 80  1  0  0  0  0
 27 81  1  0  0  0  0
 28 31  2  0  0  0  0
 28 80  1  0  0  0  0
 29 82  1  0  0  0  0
 30 83  1  0  0  0  0
 31 84  1  0  0  0  0
 32 64  2  0  0  0  0
 33 65  1  0  0  0  0
 33 68  1  0  0  0  0
 34 69  1  0  0  0  0
 34 75  2  0  0  0  0
 35 52  1  0  0  0  0
 35 71  1  0  0  0  0
 35 76  2  0  0  0  0
 36 61  1  0  0  0  0
 36 66  1  0  0  0  0
 36 77  2  0  0  0  0
 37 62  1  0  0  0  0
 37 72  1  0  0  0  0
 37 78  2  0  0  0  0
 38 67  1  0  0  0  0
 38 70  1  0  0  0  0
 38 79  2  0  0  0  0
 39 43  1  0  0  0  0
 40 52  1  0  0  0  0
 41 66  1  0  0  0  0
 42 73  1  0  0  0  0
 43 45  1  0  0  0  0
 44 46  1  0  0  0  0
 44 47  1  0  0  0  0
 45 51  1  0  0  0  0
 46 53  1  0  0  0  0
 47 67  1  0  0  0  0
 48 53  1  0  0  0  0
 48 67  1  0  0  0  0
 49 50  1  0  0  0  0
 49 73  1  0  0  0  0
 50 60  1  0  0  0  0
 51 71  1  0  0  0  0
 52 66  1  0  0  0  0
 53 65  1  0  0  0  0
 54 62  1  0  0  0  0
 55 63  1  0  0  0  0
 56 63  1  0  0  0  0
 57 63  1  0  0  0  0
 58 73  1  0  0  0  0
 59 74  1  0  0  0  0
 60 81  1  0  0  0  0
 61 63  1  0  0  0  0
 61 72  1  0  0  0  0
 62 74  1  0  0  0  0
 64 65  1  0  0  0  0
M  CHG  2  73   1  74   1
M  ISO  4  38 100  60 101  70 100  81 101
M  END
> <Batch ID>
0028

> <Smiles>
CNC(C)C(=O)NC(C(=O)N1Cc2cc([101O:1][101CH2:1]C3CN(C)Cc4c([100NH:0][100C:0](=O)N5CCCC(n6nc(-c7ccc(Oc8ccc(F)cc8F)cc7)c(C(N)=O)c6N)C5)cc(F)cc43)ccc2CC1C(=O)NC1CCCc2ccccc21)C(C)(C)C

> <Shape>
0.176

> <Color>
0.188

> <Negative vol penalty>
0.000

$$$$

  -OEChem-04042321313D

 90100  0     1  0  0  0  0  0999 V2000
  -26.2668  -38.4549   23.3924 C   0  0  0  0  0  0  0  0  0  0  0  0
  -26.9185  -37.6181   22.4921 C   0  0  0  0  0  0  0  0  0  0  0  0
  -22.9766  -12.6753   21.7587 C   0  0  0  0  0  0  0  0  0  0  0  0
  -22.7789  -11.2455   19.8212 C   0  0  0  0  0  0  0  0  0  0  0  0
  -25.6215  -37.9138   24.5036 C   0  0  0  0  0  0  0  0  0  0  0  0
  -26.9263  -36.2398   22.7031 C   0  0  0  0  0  0  0  0  0  0  0  0
  -26.9211  -30.0418   19.1112 C   0  0  0  0  0  0  0  0  0  0  0  0
  -21.6552  -13.0881   21.5889 C   0  0  0  0  0  0  0  0  0  0  0  0
  -21.4573  -11.6583   19.6515 C   0  0  0  0  0  0  0  0  0  0  0  0
  -27.6255  -28.8412   19.0339 C   0  0  0  0  0  0  0  0  0  0  0  0
  -18.4447  -14.7905   21.4523 C   0  0  0  0  0  0  0  0  0  0  0  0
  -18.1701  -16.1534   21.5637 C   0  0  0  0  0  0  0  0  0  0  0  0
  -26.4101  -28.0120   20.9456 C   0  0  0  0  0  0  0  0  0  0  0  0
  -32.1346  -19.8734   20.3837 C   0  0  0  0  0  0  0  0  0  0  0  0
  -31.8543  -22.2689   20.2421 C   0  0  0  0  0  0  0  0  0  0  0  0
  -19.6755  -16.6067   19.7291 C   0  0  0  0  0  0  0  0  0  0  0  0
  -23.5386  -11.7540   20.8748 C   0  0  0  0  0  0  0  0  0  0  0  0
  -25.3626  -10.2347   21.8087 C   0  0  0  0  0  0  0  0  0  0  0  0
  -25.6132  -36.5273   24.7232 C   0  0  0  0  0  0  0  0  0  0  0  0
  -25.9620  -30.2410   20.1147 C   0  0  0  0  0  0  0  0  0  0  0  0
  -26.2815  -35.6797   23.8191 C   0  0  0  0  0  0  0  0  0  0  0  0
  -25.6931  -29.2151   21.0319 C   0  0  0  0  0  0  0  0  0  0  0  0
  -30.9086  -19.7687   21.0406 C   0  0  0  0  0  0  0  0  0  0  0  0
  -30.6282  -22.1642   20.8989 C   0  0  0  0  0  0  0  0  0  0  0  0
  -30.1554  -20.9141   21.2981 C   0  0  0  0  0  0  0  0  0  0  0  0
  -20.8955  -12.5796   20.5354 C   0  0  0  0  0  0  0  0  0  0  0  0
  -27.3722  -27.8271   19.9530 C   0  0  0  0  0  0  0  0  0  0  0  0
  -19.3348  -14.3355   20.4794 C   0  0  0  0  0  0  0  0  0  0  0  0
  -18.7854  -17.0616   20.7021 C   0  0  0  0  0  0  0  0  0  0  0  0
  -32.6075  -21.1235   19.9845 C   0  0  0  0  0  0  0  0  0  0  0  0
  -19.9501  -15.2436   19.6178 C   0  0  0  0  0  0  0  0  0  0  0  0
  -24.9038  -11.3276   21.0492 C   0  0  0  0  0  0  0  0  0  0  0  0
  -26.7270  -10.2565   21.6523 C   0  0  0  0  0  0  0  0  0  0  0  0
  -24.6217   -9.2846   22.5860 C   0  0  0  0  0  0  0  0  0  0  0  0
  -25.6376  -32.2752   22.5355 C   0  0  0  0  0  0  0  0  0  0  0  0
  -22.7428  -30.8437   22.8407 C   0  0  0  0  0  0  0  0  0  0  0  0
  -20.7950  -28.0980   22.2803 C   0  0  0  0  0  0  0  0  0  0  0  0
  -30.6682  -14.4327   20.4393 C   0  0  0  0  0  0  0  0  0  0  0  0
  -24.9426  -35.9929   25.9639 C   0  0  0  0  0  0  0  0  0  0  0  0
  -25.1917  -31.5318   20.1681 C   0  0  0  0  0  0  0  0  0  0  0  0
  -24.6590  -29.3713   22.1158 C   0  0  0  0  0  0  0  0  0  0  0  0
  -24.6782  -34.4902   25.9141 C   0  0  0  0  0  0  0  0  0  0  0  0
  -30.1314  -11.5743   18.5713 C   0  0  0  0  0  0  0  0  0  0  0  0
  -25.9162  -33.7463   25.4235 C   0  0  0  0  0  0  0  0  0  0  0  0
  -28.7752  -11.0686   19.0624 C   0  0  0  0  0  0  0  0  0  0  0  0
  -29.5209  -17.7492   20.3943 C   0  0  0  0  0  0  0  0  0  0  0  0
  -31.5807  -17.4587   21.8374 C   0  0  0  0  0  0  0  0  0  0  0  0
  -27.7620  -24.7644   18.4194 C   0  0  0  0  0  0  0  0  0  0  0  0
  -30.1289  -13.0919   18.4288 C   0  0  0  0  0  0  0  0  0  0  0  0
  -29.0565  -16.3517   20.8143 C   0  0  0  0  0  0  0  0  0  0  0  0
  -31.0568  -16.0839   22.2424 C   0  0  0  0  0  0  0  0  0  0  0  0
  -28.4035  -13.3202   20.1864 C   0  0  0  0  0  0  0  0  0  0  0  0
  -29.0190  -24.0489   18.8718 C   0  0  0  0  0  0  0  0  0  0  0  0
  -27.5696  -24.4718   20.8006 C   0  0  0  0  0  0  0  0  0  0  0  0
  -30.4186  -18.3968   21.4640 C   0  0  0  0  0  0  0  0  0  0  0  0
  -26.2910  -34.1774   24.0004 C   0  0  1  0  0  0  0  0  0  0  0  0
  -24.6029  -31.8197   21.5458 C   0  0  1  0  0  0  0  0  0  0  0  0
  -28.3519  -11.7881   20.3554 C   0  0  1  0  0  0  0  0  0  0  0  0
  -27.2939  -25.4656   19.6829 C   0  0  1  0  0  0  0  0  0  1  0  0
  -28.8403  -20.8009   22.0017 C   0  0  0  0  0  0  0  0  0  0  0  0
  -18.4822  -27.2091   22.6781 C   0  0  0  0  0  0  0  0  0  0  0  0
  -23.4486  -30.3219   25.7629 C   0  0  0  0  0  0  0  0  0  0  0  0
  -21.5868  -28.6498   25.8415 C   0  0  0  0  0  0  0  0  0  0  0  0
  -21.0875  -31.0486   25.3737 C   0  0  0  0  0  0  0  0  0  0  0  0
  -20.2679  -27.8448   19.3791 C   0  0  0  0  0  0  0  0  0  0  0  0
  -29.8406  -23.4057   21.1632 C   0  0  0  0  0  0  0  0  0  0  0  0
  -22.2157  -29.6481   23.5968 C   0  0  1  0  0  0  0  0  0  0  0  0
  -19.3929  -27.9558   21.7160 C   0  0  2  0  0  0  0  0  0  0  0  0
  -22.1056  -29.9145   25.1246 C   0  0  0  0  0  0  0  0  0  0  0  0
  -25.8962  -11.9952   20.4546 N   0  0  0  0  0  0  0  0  0  0  0  0
  -26.9922  -11.3199   20.8405 N   0  0  0  0  0  0  0  0  0  0  0  0
  -23.9367  -30.6541   22.1305 N   0  0  0  0  0  0  0  0  0  0  0  0
  -29.7185  -13.7377   19.6755 N   0  0  0  0  0  0  0  0  0  0  0  0
  -30.2034  -15.5172   21.1985 N   0  0  0  0  0  0  0  0  0  0  0  0
  -27.7137   -9.4696   22.1314 N   0  0  0  0  0  0  0  0  0  0  0  0
  -23.2265   -9.4075   22.6387 N   0  0  0  0  0  0  0  0  0  0  0  0
  -25.4183  -33.5450   23.0344 N   0  0  0  0  0  0  0  0  0  0  0  0
  -20.9535  -29.2868   22.9607 N   0  0  0  0  0  0  0  0  0  0  0  0
  -28.6674  -23.5616   20.2611 N   0  3  2  0  0  0  0  0  0  0  0  0
  -19.4269  -27.2098   20.4263 N   0  3  0  0  0  0  0  0  0  0  0  0
  -25.1817   -8.3642   23.2285 O   0  0  0  0  0  0  0  0  0  0  0  0
  -26.5654  -31.5293   22.8262 O   0  0  0  0  0  0  0  0  0  0  0  0
  -22.1144  -31.9047   22.8730 O   0  0  0  0  0  0  0  0  0  0  0  0
  -21.6616  -27.2387   22.1355 O   0  0  0  0  0  0  0  0  0  0  0  0
  -31.8611  -14.1039   20.4439 O   0  0  0  0  0  0  0  0  0  0  0  0
  -19.6059  -12.9820   20.3696 O   0  0  0  0  0  0  0  0  0  0  0  0
  -28.0633  -26.6468   19.8797 O   0  0  0  0  0  0  0  0  0  1  0  0
  -18.5204  -18.3702   20.8081 F   0  0  0  0  0  0  0  0  0  0  0  0
  -33.7851  -21.2238   19.3540 F   0  0  0  0  0  0  0  0  0  0  0  0
  -20.8052  -14.8125   18.6804 F   0  0  0  0  0  0  0  0  0  0  0  0
  1  2  1  0  0  0  0
  1  5  2  0  0  0  0
  2  6  2  0  0  0  0
  3  8  2  0  0  0  0
  3 17  1  0  0  0  0
  4  9  1  0  0  0  0
  4 17  2  0  0  0  0
  5 19  1  0  0  0  0
  6 21  1  0  0  0  0
  7 10  2  0  0  0  0
  7 20  1  0  0  0  0
  8 26  1  0  0  0  0
  9 26  2  0  0  0  0
 10 27  1  0  0  0  0
 11 12  2  0  0  0  0
 11 28  1  0  0  0  0
 12 29  1  0  0  0  0
 13 22  1  0  0  0  0
 13 27  2  0  0  0  0
 14 23  2  0  0  0  0
 14 30  1  0  0  0  0
 15 24  1  0  0  0  0
 15 30  2  0  0  0  0
 16 29  2  0  0  0  0
 16 31  1  0  0  0  0
 17 32  1  0  0  0  0
 18 32  1  0  0  0  0
 18 33  2  0  0  0  0
 18 34  1  0  0  0  0
 19 21  2  0  0  0  0
 19 39  1  0  0  0  0
 20 22  2  0  0  0  0
 20 40  1  0  0  0  0
 21 56  1  0  0  0  0
 22 41  1  0  0  0  0
 23 25  1  0  0  0  0
 23 55  1  0  0  0  0
 24 25  2  0  0  0  0
 24 66  1  0  0  0  0
 25 60  1  0  0  0  0
 26 86  1  0  0  0  0
 27 87  1  0  0  0  0
 28 31  2  0  0  0  0
 28 86  1  0  0  0  0
 29 88  1  0  0  0  0
 30 89  1  0  0  0  0
 31 90  1  0  0  0  0
 32 70  2  0  0  0  0
 33 71  1  0  0  0  0
 33 75  1  0  0  0  0
 34 76  1  0  0  0  0
 34 81  2  0  0  0  0
 35 57  1  0  0  0  0
 35 77  1  0  0  0  0
 35 82  2  0  0  0  0
 36 67  1  0  0  0  0
 36 72  1  0  0  0  0
 36 83  2  0  0  0  0
 37 68  1  0  0  0  0
 37 78  1  0  0  0  0
 37 84  2  0  0  0  0
 38 73  1  0  0  0  0
 38 74  1  0  0  0  0
 38 85  2  0  0  0  0
 39 42  1  0  0  0  0
 40 57  1  0  0  0  0
 41 72  1  0  0  0  0
 42 44  1  0  0  0  0
 43 45  1  0  0  0  0
 43 49  1  0  0  0  0
 44 56  1  0  0  0  0
 45 58  1  0  0  0  0
 46 50  1  0  0  0  0
 46 55  1  0  0  0  0
 47 51  1  0  0  0  0
 47 55  1  0  0  0  0
 48 53  1  0  0  0  0
 48 59  1  0  0  0  0
 49 73  1  0  0  0  0
 50 74  1  0  0  0  0
 51 74  1  0  0  0  0
 52 58  1  0  0  0  0
 52 73  1  0  0  0  0
 53 79  1  0  0  0  0
 54 59  1  0  0  0  0
 54 79  1  0  0  0  0
 56 77  1  0  0  0  0
 57 72  1  0  0  0  0
 58 71  1  0  0  0  0
 59 87  1  0  0  0  0
 61 68  1  0  0  0  0
 62 69  1  0  0  0  0
 63 69  1  0  0  0  0
 64 69  1  0  0  0  0
 65 80  1  0  0  0  0
 66 79  1  0  0  0  0
 67 69  1  0  0  0  0
 67 78  1  0  0  0  0
 68 80  1  0  0  0  0
 70 71  1  0  0  0  0
M  CHG  2  79   1  80   1
M  ISO  4  38 100  59 101  74 100  87 101
M  END
> <Batch ID>
0028

> <Smiles>
CNC(C)C(=O)NC(C(=O)N1Cc2cc([101O:1][101CH:1]3CCN(Cc4cc(F)cc(C5CC[100N:0]([100C:0](=O)N6CCCC(n7nc(-c8ccc(Oc9ccc(F)cc9F)cc8)c(C(N)=O)c7N)C6)CC5)c4C)C3)ccc2CC1C(=O)NC1CCCc2ccccc21)C(C)(C)C

> <Shape>
0.338

> <Color>
0.101

> <Negative vol penalty>
0.000

$$$$

  -OEChem-04042321313D

 88 96  0     1  0  0  0  0  0999 V2000
  -20.3519  -33.7506   24.2330 C   0  0  0  0  0  0  0  0  0  0  0  0
  -21.6357  -33.3554   23.8709 C   0  0  0  0  0  0  0  0  0  0  0  0
  -25.4083  -13.9823   21.1420 C   0  0  0  0  0  0  0  0  0  0  0  0
  -25.3542  -14.1793   18.7347 C   0  0  0  0  0  0  0  0  0  0  0  0
  -19.3685  -32.7906   24.4681 C   0  0  0  0  0  0  0  0  0  0  0  0
  -21.9371  -31.9998   23.7448 C   0  0  0  0  0  0  0  0  0  0  0  0
  -25.7987  -29.4444   19.7369 C   0  0  0  0  0  0  0  0  0  0  0  0
  -33.5542  -23.8522   20.1262 C   0  0  0  0  0  0  0  0  0  0  0  0
  -24.4760  -12.9468   21.0783 C   0  0  0  0  0  0  0  0  0  0  0  0
  -24.4219  -13.1437   18.6709 C   0  0  0  0  0  0  0  0  0  0  0  0
  -27.1226  -29.0217   19.8487 C   0  0  0  0  0  0  0  0  0  0  0  0
  -24.4681   -9.6430   20.3585 C   0  0  0  0  0  0  0  0  0  0  0  0
  -33.7684  -22.7181   19.3430 C   0  0  0  0  0  0  0  0  0  0  0  0
  -24.7048   -8.5090   21.1353 C   0  0  0  0  0  0  0  0  0  0  0  0
  -26.3622  -26.7722   20.2735 C   0  0  0  0  0  0  0  0  0  0  0  0
  -22.6196   -8.8719   22.3005 C   0  0  0  0  0  0  0  0  0  0  0  0
  -25.8474  -14.5986   19.9702 C   0  0  0  0  0  0  0  0  0  0  0  0
  -28.2125  -15.5543   19.9944 C   0  0  0  0  0  0  0  0  0  0  0  0
  -19.6555  -31.4229   24.3354 C   0  0  0  0  0  0  0  0  0  0  0  0
  -24.7447  -28.5347   19.9037 C   0  0  0  0  0  0  0  0  0  0  0  0
  -20.9570  -31.0205   23.9797 C   0  0  0  0  0  0  0  0  0  0  0  0
  -25.0259  -27.1853   20.1608 C   0  0  0  0  0  0  0  0  0  0  0  0
  -32.2640  -24.1766   20.5457 C   0  0  0  0  0  0  0  0  0  0  0  0
  -31.4023  -22.2326   19.3988 C   0  0  0  0  0  0  0  0  0  0  0  0
  -23.9828  -12.5275   19.8427 C   0  0  0  0  0  0  0  0  0  0  0  0
  -27.4045  -27.6860   20.1199 C   0  0  0  0  0  0  0  0  0  0  0  0
  -23.3072  -10.3916   20.5527 C   0  0  0  0  0  0  0  0  0  0  0  0
  -23.7806   -8.1234   22.1063 C   0  0  0  0  0  0  0  0  0  0  0  0
  -32.6925  -21.9083   18.9793 C   0  0  0  0  0  0  0  0  0  0  0  0
  -22.3830  -10.0061   21.5237 C   0  0  0  0  0  0  0  0  0  0  0  0
  -31.1881  -23.3668   20.1820 C   0  0  0  0  0  0  0  0  0  0  0  0
  -26.8100  -15.6688   20.0355 C   0  0  0  0  0  0  0  0  0  0  0  0
  -28.6655  -16.8475   20.0891 C   0  0  0  0  0  0  0  0  0  0  0  0
  -29.0325  -14.3837   19.8806 C   0  0  0  0  0  0  0  0  0  0  0  0
  -22.3243  -28.2557   21.9452 C   0  0  0  0  0  0  0  0  0  0  0  0
  -21.4551  -25.8271   19.9783 C   0  0  0  0  0  0  0  0  0  0  0  0
  -22.3893  -23.4883   17.6753 C   0  0  0  0  0  0  0  0  0  0  0  0
  -28.0748  -22.1685   18.1775 C   0  0  0  0  0  0  0  0  0  0  0  0
  -18.5723  -30.4204   24.6459 C   0  0  0  0  0  0  0  0  0  0  0  0
  -23.3226  -29.0013   19.7535 C   0  0  0  0  0  0  0  0  0  0  0  0
  -23.9308  -26.1650   20.3282 C   0  0  0  0  0  0  0  0  0  0  0  0
  -18.8737  -29.0172   24.1258 C   0  0  0  0  0  0  0  0  0  0  0  0
  -26.2407  -21.1296   21.2202 C   0  0  0  0  0  0  0  0  0  0  0  0
  -20.3047  -28.6163   24.4697 C   0  0  0  0  0  0  0  0  0  0  0  0
  -26.2854  -19.6050   21.1318 C   0  0  0  0  0  0  0  0  0  0  0  0
  -26.2935  -21.7795   19.8409 C   0  0  0  0  0  0  0  0  0  0  0  0
  -27.4990  -19.8235   18.9273 C   0  0  0  0  0  0  0  0  0  0  0  0
  -21.3162  -29.5604   23.8086 C   0  0  1  0  0  0  0  0  0  0  0  0
  -22.3179  -28.0901   20.4518 C   0  0  1  0  0  0  0  0  0  0  0  0
  -27.4945  -19.1388   20.3023 C   0  0  2  0  0  0  0  0  0  0  0  0
  -21.4638  -21.6217   16.2764 C   0  0  0  0  0  0  0  0  0  0  0  0
  -29.5014  -20.9742   15.7080 C   0  0  0  0  0  0  0  0  0  0  0  0
  -29.9283  -23.4280   16.0544 C   0  0  0  0  0  0  0  0  0  0  0  0
  -21.3523  -24.0332   22.4443 C   0  0  0  0  0  0  0  0  0  0  0  0
  -21.3694  -22.0499   20.9164 C   0  0  0  0  0  0  0  0  0  0  0  0
  -19.4843  -23.6808   20.8193 C   0  0  0  0  0  0  0  0  0  0  0  0
  -23.1527  -24.8419   15.1566 C   0  0  0  0  0  0  0  0  0  0  0  0
  -32.4303  -27.2003   19.7164 C   0  0  0  0  0  0  0  0  0  0  0  0
  -30.2523  -21.3657   19.0104 C   0  0  0  0  0  0  0  0  0  0  0  0
  -32.0372  -25.3972   21.3882 C   0  0  0  0  0  0  0  0  0  0  0  0
  -30.7224  -27.5088   21.5024 C   0  0  0  0  0  0  0  0  0  0  0  0
  -29.6451  -28.2223   20.7096 C   0  0  0  0  0  0  0  0  0  1  0  0
  -21.7481  -24.3477   19.9124 C   0  0  1  0  0  0  0  0  0  0  0  0
  -21.7961  -23.1047   16.3316 C   0  0  2  0  0  0  0  0  0  0  0  0
  -30.0804  -22.0305   16.6409 C   0  0  0  0  0  0  0  0  0  0  0  0
  -21.0094  -23.5472   21.0219 C   0  0  0  0  0  0  0  0  0  0  0  0
  -26.3990  -16.9347   20.1478 N   0  0  0  0  0  0  0  0  0  0  0  0
  -27.5502  -17.6275   20.1782 N   0  0  0  0  0  0  0  0  0  0  0  0
  -22.5565  -26.6714   20.1786 N   0  0  0  0  0  0  0  0  0  0  0  0
  -27.4271  -21.2865   19.0580 N   0  0  0  0  0  0  0  0  0  0  0  0
  -29.9050  -17.3821   20.1043 N   0  0  0  0  0  0  0  0  0  0  0  0
  -28.4044  -13.1338   19.7932 N   0  0  0  0  0  0  0  0  0  0  0  0
  -21.4675  -29.2370   22.4061 N   0  0  0  0  0  0  0  0  0  0  0  0
  -21.4216  -23.9270   18.5542 N   0  0  0  0  0  0  0  0  0  0  0  0
  -29.4441  -21.9589   17.9544 N   0  0  0  0  0  0  0  0  0  0  0  0
  -22.7568  -23.4122   15.2345 N   0  3  0  0  0  0  0  0  0  0  0  0
  -31.4191  -26.5391   20.6200 N   0  3  1  0  0  0  0  0  0  0  0  0
  -30.2855  -14.4429   19.8736 O   0  0  0  0  0  0  0  0  0  0  0  0
  -23.0516  -27.5448   22.6288 O   0  0  0  0  0  0  0  0  0  0  0  0
  -20.2929  -26.2198   19.8494 O   0  0  0  0  0  0  0  0  0  0  0  0
  -23.5903  -23.4034   17.9219 O   0  0  0  0  0  0  0  0  0  0  0  0
  -27.4660  -23.0967   17.6298 O   0  0  0  0  0  0  0  0  0  0  0  0
  -23.0733  -11.5168   19.7801 O   0  0  0  0  0  0  0  0  0  0  0  0
  -28.6957  -27.2710   20.2301 O   0  0  0  0  0  0  0  0  0  1  0  0
  -24.0072   -7.0334   22.8511 F   0  0  0  0  0  0  0  0  0  0  0  0
  -32.9082  -20.8197   18.2278 F   0  0  0  0  0  0  0  0  0  0  0  0
  -21.2654  -10.7205   21.7140 F   0  0  0  0  0  0  0  0  0  0  0  0
  -29.9480  -23.6792   20.5863 F   0  0  0  0  0  0  0  0  0  0  0  0
  1  2  1  0  0  0  0
  1  5  2  0  0  0  0
  2  6  2  0  0  0  0
  3  9  2  0  0  0  0
  3 17  1  0  0  0  0
  4 10  1  0  0  0  0
  4 17  2  0  0  0  0
  5 19  1  0  0  0  0
  6 21  1  0  0  0  0
  7 11  2  0  0  0  0
  7 20  1  0  0  0  0
  8 13  2  0  0  0  0
  8 23  1  0  0  0  0
  9 25  1  0  0  0  0
 10 25  2  0  0  0  0
 11 26  1  0  0  0  0
 12 14  2  0  0  0  0
 12 27  1  0  0  0  0
 13 29  1  0  0  0  0
 14 28  1  0  0  0  0
 15 22  1  0  0  0  0
 15 26  2  0  0  0  0
 16 28  2  0  0  0  0
 16 30  1  0  0  0  0
 17 32  1  0  0  0  0
 18 32  1  0  0  0  0
 18 33  2  0  0  0  0
 18 34  1  0  0  0  0
 19 21  2  0  0  0  0
 19 39  1  0  0  0  0
 20 22  2  0  0  0  0
 20 40  1  0  0  0  0
 21 48  1  0  0  0  0
 22 41  1  0  0  0  0
 23 31  2  0  0  0  0
 23 60  1  0  0  0  0
 24 29  2  0  0  0  0
 24 31  1  0  0  0  0
 24 59  1  0  0  0  0
 25 83  1  0  0  0  0
 26 84  1  0  0  0  0
 27 30  2  0  0  0  0
 27 83  1  0  0  0  0
 28 85  1  0  0  0  0
 29 86  1  0  0  0  0
 30 87  1  0  0  0  0
 31 88  1  0  0  0  0
 32 67  2  0  0  0  0
 33 68  1  0  0  0  0
 33 71  1  0  0  0  0
 34 72  1  0  0  0  0
 34 78  2  0  0  0  0
 35 49  1  0  0  0  0
 35 73  1  0  0  0  0
 35 79  2  0  0  0  0
 36 63  1  0  0  0  0
 36 69  1  0  0  0  0
 36 80  2  0  0  0  0
 37 64  1  0  0  0  0
 37 74  1  0  0  0  0
 37 81  2  0  0  0  0
 38 70  1  0  0  0  0
 38 75  1  0  0  0  0
 38 82  2  0  0  0  0
 39 42  1  0  0  0  0
 40 49  1  0  0  0  0
 41 69  1  0  0  0  0
 42 44  1  0  0  0  0
 43 45  1  0  0  0  0
 43 46  1  0  0  0  0
 44 48  1  0  0  0  0
 45 50  1  0  0  0  0
 46 70  1  0  0  0  0
 47 50  1  0  0  0  0
 47 70  1  0  0  0  0
 48 73  1  0  0  0  0
 49 69  1  0  0  0  0
 50 68  1  0  0  0  0
 51 64  1  0  0  0  0
 52 65  1  0  0  0  0
 53 65  1  0  0  0  0
 54 66  1  0  0  0  0
 55 66  1  0  0  0  0
 56 66  1  0  0  0  0
 57 76  1  0  0  0  0
 58 77  1  0  0  0  0
 59 75  1  0  0  0  0
 60 77  1  0  0  0  0
 61 62  1  0  0  0  0
 61 77  1  0  0  0  0
 62 84  1  0  0  0  0
 63 66  1  0  0  0  0
 63 74  1  0  0  0  0
 64 76  1  0  0  0  0
 65 75  1  0  0  0  0
 67 68  1  0  0  0  0
M  CHG  2  76   1  77   1
M  ISO  4  38 100  62 101  75 100  84 101
M  END
> <Batch ID>
0028

> <Smiles>
CNC(C)C(=O)NC(C(=O)N1Cc2cc([101O:1][101CH2:1]CN(C)Cc3ccc(F)c(C[100N:0](C(C)C)[100C:0](=O)N4CCCC(n5nc(-c6ccc(Oc7ccc(F)cc7F)cc6)c(C(N)=O)c5N)C4)c3F)ccc2CC1C(=O)NC1CCCc2ccccc21)C(C)(C)C

> <Shape>
0.237

> <Color>
0.091

> <Negative vol penalty>
0.000

$$$$

  -OEChem-04042321313D

 82 90  0     1  0  0  0  0  0999 V2000
  -38.1350  -28.7537   21.7864 C   0  0  0  0  0  0  0  0  0  0  0  0
  -37.1927  -27.8352   22.2378 C   0  0  0  0  0  0  0  0  0  0  0  0
  -23.0764   -9.8677   19.9381 C   0  0  0  0  0  0  0  0  0  0  0  0
  -23.8369   -9.8709   22.2313 C   0  0  0  0  0  0  0  0  0  0  0  0
  -38.0484  -29.2594   20.4899 C   0  0  0  0  0  0  0  0  0  0  0  0
  -36.1626  -27.4226   21.3934 C   0  0  0  0  0  0  0  0  0  0  0  0
  -35.4268  -22.4141   21.5303 C   0  0  0  0  0  0  0  0  0  0  0  0
  -22.3333   -8.7136   20.1862 C   0  0  0  0  0  0  0  0  0  0  0  0
  -23.0937   -8.7169   22.4794 C   0  0  0  0  0  0  0  0  0  0  0  0
  -34.7267  -21.9030   22.6223 C   0  0  0  0  0  0  0  0  0  0  0  0
  -21.1107   -5.9762   23.8116 C   0  0  0  0  0  0  0  0  0  0  0  0
  -20.3547   -5.9301   24.9829 C   0  0  0  0  0  0  0  0  0  0  0  0
  -32.7268  -21.7876   21.2783 C   0  0  0  0  0  0  0  0  0  0  0  0
  -32.0602  -16.6101   22.5571 C   0  0  0  0  0  0  0  0  0  0  0  0
  -29.8755  -17.4560   23.1470 C   0  0  0  0  0  0  0  0  0  0  0  0
  -19.1089   -7.8680   24.2551 C   0  0  0  0  0  0  0  0  0  0  0  0
  -23.8283  -10.4463   20.9607 C   0  0  0  0  0  0  0  0  0  0  0  0
  -24.1687  -12.9719   20.8451 C   0  0  0  0  0  0  0  0  0  0  0  0
  -37.0223  -28.8454   19.6260 C   0  0  0  0  0  0  0  0  0  0  0  0
  -34.7785  -22.6263   20.3052 C   0  0  0  0  0  0  0  0  0  0  0  0
  -36.0615  -27.9242   20.0847 C   0  0  0  0  0  0  0  0  0  0  0  0
  -33.4216  -22.2990   20.1716 C   0  0  0  0  0  0  0  0  0  0  0  0
  -31.8479  -18.3584   24.2110 C   0  0  0  0  0  0  0  0  0  0  0  0
  -30.6745  -16.5912   22.3991 C   0  0  0  0  0  0  0  0  0  0  0  0
  -22.3419   -8.1383   21.4568 C   0  0  0  0  0  0  0  0  0  0  0  0
  -33.3758  -21.5924   22.4972 C   0  0  0  0  0  0  0  0  0  0  0  0
  -20.8658   -6.9683   22.8620 C   0  0  0  0  0  0  0  0  0  0  0  0
  -19.3538   -6.8759   25.2046 C   0  0  0  0  0  0  0  0  0  0  0  0
  -32.6470  -17.4936   23.4631 C   0  0  0  0  0  0  0  0  0  0  0  0
  -30.4622  -18.3396   24.0530 C   0  0  0  0  0  0  0  0  0  0  0  0
  -19.8649   -7.9141   23.0838 C   0  0  0  0  0  0  0  0  0  0  0  0
  -24.5966  -11.6381   20.7049 C   0  0  0  0  0  0  0  0  0  0  0  0
  -25.2603  -13.7226   20.4830 C   0  0  0  0  0  0  0  0  0  0  0  0
  -22.8980  -13.4862   21.2653 C   0  0  0  0  0  0  0  0  0  0  0  0
  -34.1805  -25.1697   18.4948 C   0  0  0  0  0  0  0  0  0  0  0  0
  -33.0595  -22.9433   16.4189 C   0  0  0  0  0  0  0  0  0  0  0  0
  -31.7779  -19.8174   15.9363 C   0  0  0  0  0  0  0  0  0  0  0  0
  -30.7259  -14.7710   20.6582 C   0  0  0  0  0  0  0  0  0  0  0  0
  -36.9424  -29.4556   18.2490 C   0  0  0  0  0  0  0  0  0  0  0  0
  -35.5543  -23.1532   19.1292 C   0  0  0  0  0  0  0  0  0  0  0  0
  -32.6841  -22.4892   18.8722 C   0  0  0  0  0  0  0  0  0  0  0  0
  -36.0376  -28.6835   17.2922 C   0  0  0  0  0  0  0  0  0  0  0  0
  -29.6123  -12.3609   18.2859 C   0  0  0  0  0  0  0  0  0  0  0  0
  -34.7166  -28.3352   17.9708 C   0  0  0  0  0  0  0  0  0  0  0  0
  -28.1729  -12.0677   18.7153 C   0  0  0  0  0  0  0  0  0  0  0  0
  -30.5276  -12.5880   19.4877 C   0  0  0  0  0  0  0  0  0  0  0  0
  -28.6206  -13.3089   20.8707 C   0  0  0  0  0  0  0  0  0  0  0  0
  -34.9437  -27.4335   19.1902 C   0  0  1  0  0  0  0  0  0  0  0  0
  -34.6688  -23.8119   18.0759 C   0  0  1  0  0  0  0  0  0  0  0  0
  -27.6475  -13.1372   19.6928 C   0  0  2  0  0  0  0  0  0  0  0  0
  -33.2241  -18.5655   26.3074 C   0  0  0  0  0  0  0  0  0  0  0  0
  -30.9232  -18.2956   14.1332 C   0  0  0  0  0  0  0  0  0  0  0  0
  -30.4565  -24.5318   16.3156 C   0  0  0  0  0  0  0  0  0  0  0  0
  -29.3539  -22.5257   15.3017 C   0  0  0  0  0  0  0  0  0  0  0  0
  -31.2307  -23.6529   14.1060 C   0  0  0  0  0  0  0  0  0  0  0  0
  -33.8756  -17.8022   16.4818 C   0  0  0  0  0  0  0  0  0  0  0  0
  -33.4279  -20.3163   24.5034 C   0  0  0  0  0  0  0  0  0  1  0  0
  -32.4877  -19.3219   25.1983 C   0  0  1  0  0  0  0  0  0  0  0  0
  -31.7225  -22.2861   16.1752 C   0  0  1  0  0  0  0  0  0  0  0  0
  -32.1353  -18.7242   14.9455 C   0  0  2  0  0  0  0  0  0  0  0  0
  -30.7040  -23.2472   15.4998 C   0  0  0  0  0  0  0  0  0  0  0  0
  -25.8615  -11.5437   20.2861 N   0  0  0  0  0  0  0  0  0  0  0  0
  -26.2376  -12.8277   20.1600 N   0  0  0  0  0  0  0  0  0  0  0  0
  -33.4847  -23.0131   17.7532 N   0  0  0  0  0  0  0  0  0  0  0  0
  -29.9682  -13.6170   20.3671 N   0  0  0  0  0  0  0  0  0  0  0  0
  -25.4699  -15.0543   20.4123 N   0  0  0  0  0  0  0  0  0  0  0  0
  -21.8867  -12.5758   21.6012 N   0  0  0  0  0  0  0  0  0  0  0  0
  -30.0782  -15.6942   21.4784 N   0  0  0  0  0  0  0  0  0  0  0  0
  -35.1912  -26.0703   18.7717 N   0  0  0  0  0  0  0  0  0  0  0  0
  -31.9969  -21.0736   15.4116 N   0  0  0  0  0  0  0  0  0  0  0  0
  -32.6674  -17.5302   15.6613 N   0  3  0  0  0  0  0  0  0  0  0  0
  -22.6610  -14.7165   21.3249 O   0  0  0  0  0  0  0  0  0  0  0  0
  -32.9758  -25.3848   18.5604 O   0  0  0  0  0  0  0  0  0  0  0  0
  -33.7062  -23.3724   15.4601 O   0  0  0  0  0  0  0  0  0  0  0  0
  -31.3442  -19.5808   17.0616 O   0  0  0  0  0  0  0  0  0  0  0  0
  -31.8548  -14.9413   20.1906 O   0  0  0  0  0  0  0  0  0  0  0  0
  -21.6167   -7.0123   21.6993 O   0  0  0  0  0  0  0  0  0  0  0  0
  -32.6899  -21.0940   23.5616 O   0  0  0  0  0  0  0  0  0  1  0  0
  -18.6269   -6.8306   26.3288 F   0  0  0  0  0  0  0  0  0  0  0  0
  -33.9795  -17.5052   23.6080 F   0  0  0  0  0  0  0  0  0  0  0  0
  -29.6861  -19.1669   24.7668 F   0  0  0  0  0  0  0  0  0  0  0  0
  -19.6242   -8.8688   22.1747 F   0  0  0  0  0  0  0  0  0  0  0  0
  1  2  1  0  0  0  0
  1  5  2  0  0  0  0
  2  6  2  0  0  0  0
  3  8  2  0  0  0  0
  3 17  1  0  0  0  0
  4  9  1  0  0  0  0
  4 17  2  0  0  0  0
  5 19  1  0  0  0  0
  6 21  1  0  0  0  0
  7 10  2  0  0  0  0
  7 20  1  0  0  0  0
  8 25  1  0  0  0  0
  9 25  2  0  0  0  0
 10 26  1  0  0  0  0
 11 12  2  0  0  0  0
 11 27  1  0  0  0  0
 12 28  1  0  0  0  0
 13 22  1  0  0  0  0
 13 26  2  0  0  0  0
 14 24  1  0  0  0  0
 14 29  2  0  0  0  0
 15 24  2  0  0  0  0
 15 30  1  0  0  0  0
 16 28  2  0  0  0  0
 16 31  1  0  0  0  0
 17 32  1  0  0  0  0
 18 32  1  0  0  0  0
 18 33  2  0  0  0  0
 18 34  1  0  0  0  0
 19 21  2  0  0  0  0
 19 39  1  0  0  0  0
 20 22  2  0  0  0  0
 20 40  1  0  0  0  0
 21 48  1  0  0  0  0
 22 41  1  0  0  0  0
 23 29  1  0  0  0  0
 23 30  2  0  0  0  0
 23 58  1  0  0  0  0
 24 68  1  0  0  0  0
 25 77  1  0  0  0  0
 26 78  1  0  0  0  0
 27 31  2  0  0  0  0
 27 77  1  0  0  0  0
 28 79  1  0  0  0  0
 29 80  1  0  0  0  0
 30 81  1  0  0  0  0
 31 82  1  0  0  0  0
 32 62  2  0  0  0  0
 33 63  1  0  0  0  0
 33 66  1  0  0  0  0
 34 67  1  0  0  0  0
 34 72  2  0  0  0  0
 35 49  1  0  0  0  0
 35 69  1  0  0  0  0
 35 73  2  0  0  0  0
 36 59  1  0  0  0  0
 36 64  1  0  0  0  0
 36 74  2  0  0  0  0
 37 60  1  0  0  0  0
 37 70  1  0  0  0  0
 37 75  2  0  0  0  0
 38 65  1  0  0  0  0
 38 68  1  0  0  0  0
 38 76  2  0  0  0  0
 39 42  1  0  0  0  0
 40 49  1  0  0  0  0
 41 64  1  0  0  0  0
 42 44  1  0  0  0  0
 43 45  1  0  0  0  0
 43 46  1  0  0  0  0
 44 48  1  0  0  0  0
 45 50  1  0  0  0  0
 46 65  1  0  0  0  0
 47 50  1  0  0  0  0
 47 65  1  0  0  0  0
 48 69  1  0  0  0  0
 49 64  1  0  0  0  0
 50 63  1  0  0  0  0
 51 58  1  0  0  0  0
 52 60  1  0  0  0  0
 53 61  1  0  0  0  0
 54 61  1  0  0  0  0
 55 61  1  0  0  0  0
 56 71  1  0  0  0  0
 57 58  1  0  0  0  0
 57 78  1  0  0  0  0
 59 61  1  0  0  0  0
 59 70  1  0  0  0  0
 60 71  1  0  0  0  0
 62 63  1  0  0  0  0
M  CHG  1  71   1
M  ISO  4  38 100  57 101  68 100  78 101
M  END
> <Batch ID>
0028

> <Smiles>
CNC(C)C(=O)NC(C(=O)N1Cc2cc([101O:1][101CH2:1]C(C)c3c(F)cc([100NH:0][100C:0](=O)N4CCCC(n5nc(-c6ccc(Oc7ccc(F)cc7F)cc6)c(C(N)=O)c5N)C4)cc3F)ccc2CC1C(=O)NC1CCCc2ccccc21)C(C)(C)C

> <Shape>
0.169

> <Color>
0.196

> <Negative vol penalty>
0.000

$$$$

  -OEChem-04042321313D

 87 96  0     1  0  0  0  0  0999 V2000
  -28.7486  -31.9108   26.2043 C   0  0  0  0  0  0  0  0  0  0  0  0
  -28.6406  -30.7489   25.4468 C   0  0  0  0  0  0  0  0  0  0  0  0
  -22.4230  -10.7318   20.8487 C   0  0  0  0  0  0  0  0  0  0  0  0
  -24.3934   -9.4547   21.4175 C   0  0  0  0  0  0  0  0  0  0  0  0
  -27.5984  -32.5569   26.6552 C   0  0  0  0  0  0  0  0  0  0  0  0
  -27.3822  -30.2318   25.1408 C   0  0  0  0  0  0  0  0  0  0  0  0
  -26.9887  -28.8190   20.2938 C   0  0  0  0  0  0  0  0  0  0  0  0
  -28.7732  -20.9409   21.8005 C   0  0  0  0  0  0  0  0  0  0  0  0
  -28.3130  -19.8283   22.5046 C   0  0  0  0  0  0  0  0  0  0  0  0
  -21.6440   -9.5803   20.9618 C   0  0  0  0  0  0  0  0  0  0  0  0
  -23.6144   -8.3031   21.5306 C   0  0  0  0  0  0  0  0  0  0  0  0
  -27.5676  -27.6021   19.9362 C   0  0  0  0  0  0  0  0  0  0  0  0
  -21.5211   -6.9267   23.7987 C   0  0  0  0  0  0  0  0  0  0  0  0
  -21.7397   -6.1042   24.9037 C   0  0  0  0  0  0  0  0  0  0  0  0
  -25.3997  -26.5487   20.0344 C   0  0  0  0  0  0  0  0  0  0  0  0
  -26.3114  -19.8002   21.1518 C   0  0  0  0  0  0  0  0  0  0  0  0
  -22.3093   -4.2761   23.4303 C   0  0  0  0  0  0  0  0  0  0  0  0
  -23.7977  -10.6690   21.0766 C   0  0  0  0  0  0  0  0  0  0  0  0
  -24.7679  -12.6639   19.8170 C   0  0  0  0  0  0  0  0  0  0  0  0
  -26.3251  -32.0529   26.3465 C   0  0  0  0  0  0  0  0  0  0  0  0
  -25.6102  -28.9076   20.5353 C   0  0  0  0  0  0  0  0  0  0  0  0
  -26.2139  -30.8711   25.5892 C   0  0  0  0  0  0  0  0  0  0  0  0
  -24.8053  -27.7684   20.3924 C   0  0  0  0  0  0  0  0  0  0  0  0
  -26.7716  -20.9129   20.4478 C   0  0  0  0  0  0  0  0  0  0  0  0
  -28.0025  -21.4833   20.7721 C   0  0  0  0  0  0  0  0  0  0  0  0
  -27.0821  -19.2579   22.1803 C   0  0  0  0  0  0  0  0  0  0  0  0
  -22.2397   -8.3659   21.3027 C   0  0  0  0  0  0  0  0  0  0  0  0
  -26.7736  -26.4661   19.8093 C   0  0  0  0  0  0  0  0  0  0  0  0
  -21.6965   -6.4240   22.5094 C   0  0  0  0  0  0  0  0  0  0  0  0
  -22.1338   -4.7789   24.7196 C   0  0  0  0  0  0  0  0  0  0  0  0
  -22.0906   -5.0987   22.3252 C   0  0  0  0  0  0  0  0  0  0  0  0
  -24.6030  -11.8580   20.9594 C   0  0  0  0  0  0  0  0  0  0  0  0
  -25.6225  -13.6606   20.2203 C   0  0  0  0  0  0  0  0  0  0  0  0
  -24.1993  -12.5241   18.5082 C   0  0  0  0  0  0  0  0  0  0  0  0
  -23.8175  -29.6650   23.0486 C   0  0  0  0  0  0  0  0  0  0  0  0
  -21.3967  -29.4265   20.9026 C   0  0  0  0  0  0  0  0  0  0  0  0
  -19.3170  -28.7396   18.2853 C   0  0  0  0  0  0  0  0  0  0  0  0
  -27.2559  -17.4660   23.9424 C   0  0  0  0  0  0  0  0  0  0  0  0
  -25.1116  -32.7599   26.8962 C   0  0  0  0  0  0  0  0  0  0  0  0
  -24.9970  -30.2334   20.8941 C   0  0  0  0  0  0  0  0  0  0  0  0
  -23.3173  -27.8149   20.6209 C   0  0  0  0  0  0  0  0  0  0  0  0
  -23.8085  -32.3547   26.2119 C   0  0  0  0  0  0  0  0  0  0  0  0
  -28.3844  -14.1254   24.4367 C   0  0  0  0  0  0  0  0  0  0  0  0
  -29.2309  -23.5430   17.9277 C   0  0  0  0  0  0  0  0  0  0  0  0
  -23.7235  -30.8373   26.0815 C   0  0  0  0  0  0  0  0  0  0  0  0
  -27.5148  -13.3040   23.4821 C   0  0  0  0  0  0  0  0  0  0  0  0
  -29.5704  -24.8510   18.6341 C   0  0  0  0  0  0  0  0  0  0  0  0
  -29.3008  -22.3557   18.8836 C   0  0  0  0  0  0  0  0  0  0  0  0
  -27.6031  -15.2772   25.0666 C   0  0  0  0  0  0  0  0  0  0  0  0
  -26.0471  -15.3357   23.1575 C   0  0  0  0  0  0  0  0  0  0  0  0
  -28.7253  -23.8529   20.8059 C   0  0  0  0  0  0  0  0  0  0  0  0
  -24.8662  -30.2931   25.2157 C   0  0  1  0  0  0  0  0  0  0  0  0
  -23.6610  -30.0974   21.6181 C   0  0  1  0  0  0  0  0  0  0  0  0
  -26.8079  -14.2031   22.4489 C   0  0  2  0  0  0  0  0  0  0  0  0
  -28.6879  -25.0560   19.8615 C   0  0  2  0  0  0  0  0  0  1  0  0
  -16.8851  -28.6477   17.6732 C   0  0  0  0  0  0  0  0  0  0  0  0
  -21.1170  -26.7938   22.4193 C   0  0  0  0  0  0  0  0  0  0  0  0
  -19.0886  -26.2946   21.0391 C   0  0  0  0  0  0  0  0  0  0  0  0
  -19.1137  -28.2859   22.5413 C   0  0  0  0  0  0  0  0  0  0  0  0
  -19.6436  -30.8160   16.2018 C   0  0  0  0  0  0  0  0  0  0  0  0
  -20.4970  -28.3122   20.4252 C   0  0  1  0  0  0  0  0  0  0  0  0
  -18.1410  -29.5047   17.7055 C   0  0  2  0  0  0  0  0  0  0  0  0
  -25.9255  -21.4745   19.3518 C   0  0  0  0  0  0  0  0  0  0  0  0
  -19.9791  -27.4269   21.5938 C   0  0  0  0  0  0  0  0  0  0  0  0
  -25.2973  -12.3041   22.0097 N   0  0  0  0  0  0  0  0  0  0  0  0
  -25.9067  -13.4011   21.5288 N   0  0  0  0  0  0  0  0  0  0  0  0
  -28.4798  -22.6011   20.0763 N   0  0  2  0  0  0  0  0  0  0  0  0
  -22.7657  -29.1330   20.9759 N   0  0  0  0  0  0  0  0  0  0  0  0
  -26.9644  -16.0881   24.0277 N   0  0  0  0  0  0  0  0  0  0  0  0
  -26.1511  -14.7249   19.5798 N   0  0  0  0  0  0  0  0  0  0  0  0
  -23.3416  -11.4428   18.2644 N   0  0  0  0  0  0  0  0  0  0  0  0
  -26.6150  -18.1272   22.8952 N   0  0  0  0  0  0  0  0  0  0  0  0
  -24.5893  -30.5188   23.8133 N   0  0  0  0  0  0  0  0  0  0  0  0
  -19.4416  -28.9464   19.6429 N   0  0  0  0  0  0  0  0  0  0  0  0
  -18.4449  -29.9458   16.3149 N   0  3  0  0  0  0  0  0  0  0  0  0
  -24.4577  -13.3247   17.5777 O   0  0  0  0  0  0  0  0  0  0  0  0
  -23.2767  -28.6338   23.4306 O   0  0  0  0  0  0  0  0  0  0  0  0
  -20.9037  -30.5194   21.1926 O   0  0  0  0  0  0  0  0  0  0  0  0
  -20.0495  -28.0267   17.6028 O   0  0  0  0  0  0  0  0  0  0  0  0
  -28.0391  -18.0131   24.7230 O   0  0  0  0  0  0  0  0  0  0  0  0
  -21.4798   -7.2421   21.4133 O   0  0  0  0  0  0  0  0  0  0  0  0
  -27.3362  -25.2770   19.4611 O   0  0  0  0  0  0  0  0  0  1  0  0
  -22.3452   -3.9895   25.7809 F   0  0  0  0  0  0  0  0  0  0  0  0
  -22.2619   -4.6104   21.0891 F   0  0  0  0  0  0  0  0  0  0  0  0
  -24.7542  -20.7987   19.1671 F   0  0  0  0  0  0  0  0  0  0  0  0
  -25.5611  -22.7737   19.5572 F   0  0  0  0  0  0  0  0  0  0  0  0
  -26.5564  -21.4555   18.1428 F   0  0  0  0  0  0  0  0  0  0  0  0
  1  2  1  0  0  0  0
  1  5  2  0  0  0  0
  2  6  2  0  0  0  0
  3 10  2  0  0  0  0
  3 18  1  0  0  0  0
  4 11  1  0  0  0  0
  4 18  2  0  0  0  0
  5 20  1  0  0  0  0
  6 22  1  0  0  0  0
  7 12  2  0  0  0  0
  7 21  1  0  0  0  0
  8  9  2  0  0  0  0
  8 25  1  0  0  0  0
  9 26  1  0  0  0  0
 10 27  1  0  0  0  0
 11 27  2  0  0  0  0
 12 28  1  0  0  0  0
 13 14  2  0  0  0  0
 13 29  1  0  0  0  0
 14 30  1  0  0  0  0
 15 23  1  0  0  0  0
 15 28  2  0  0  0  0
 16 24  1  0  0  0  0
 16 26  2  0  0  0  0
 17 30  2  0  0  0  0
 17 31  1  0  0  0  0
 18 32  1  0  0  0  0
 19 32  1  0  0  0  0
 19 33  2  0  0  0  0
 19 34  1  0  0  0  0
 20 22  2  0  0  0  0
 20 39  1  0  0  0  0
 21 23  2  0  0  0  0
 21 40  1  0  0  0  0
 22 52  1  0  0  0  0
 23 41  1  0  0  0  0
 24 25  2  0  0  0  0
 24 63  1  0  0  0  0
 25 67  1  0  0  0  0
 26 72  1  0  0  0  0
 27 81  1  0  0  0  0
 28 82  1  0  0  0  0
 29 31  2  0  0  0  0
 29 81  1  0  0  0  0
 30 83  1  0  0  0  0
 31 84  1  0  0  0  0
 32 65  2  0  0  0  0
 33 66  1  0  0  0  0
 33 70  1  0  0  0  0
 34 71  1  0  0  0  0
 34 76  2  0  0  0  0
 35 53  1  0  0  0  0
 35 73  1  0  0  0  0
 35 77  2  0  0  0  0
 36 61  1  0  0  0  0
 36 68  1  0  0  0  0
 36 78  2  0  0  0  0
 37 62  1  0  0  0  0
 37 74  1  0  0  0  0
 37 79  2  0  0  0  0
 38 69  1  0  0  0  0
 38 72  1  0  0  0  0
 38 80  2  0  0  0  0
 39 42  1  0  0  0  0
 40 53  1  0  0  0  0
 41 68  1  0  0  0  0
 42 45  1  0  0  0  0
 43 46  1  0  0  0  0
 43 49  1  0  0  0  0
 44 47  1  0  0  0  0
 44 48  1  0  0  0  0
 45 52  1  0  0  0  0
 46 54  1  0  0  0  0
 47 55  1  0  0  0  0
 48 67  1  0  0  0  0
 49 69  1  0  0  0  0
 50 54  1  0  0  0  0
 50 69  1  0  0  0  0
 51 55  1  0  0  0  0
 51 67  1  0  0  0  0
 52 73  1  0  0  0  0
 53 68  1  0  0  0  0
 54 66  1  0  0  0  0
 55 82  1  0  0  0  0
 56 62  1  0  0  0  0
 57 64  1  0  0  0  0
 58 64  1  0  0  0  0
 59 64  1  0  0  0  0
 60 75  1  0  0  0  0
 61 64  1  0  0  0  0
 61 74  1  0  0  0  0
 62 75  1  0  0  0  0
 63 85  1  0  0  0  0
 63 86  1  0  0  0  0
 63 87  1  0  0  0  0
 65 66  1  0  0  0  0
M  CHG  1  75   1
M  ISO  4  38 100  55 101  72 100  82 101
M  END
> <Batch ID>
0028

> <Smiles>
CNC(C)C(=O)NC(C(=O)N1Cc2cc([101O:1][101CH:1]3CCCN(c4ccc([100NH:0][100C:0](=O)N5CCCC(n6nc(-c7ccc(Oc8ccc(F)cc8F)cc7)c(C(N)=O)c6N)C5)cc4C(F)(F)F)C3)ccc2CC1C(=O)NC1CCCc2ccccc21)C(C)(C)C

> <Shape>
0.313

> <Color>
0.120

> <Negative vol penalty>
0.000

$$$$

  -OEChem-04042321313D

 93102  0     1  0  0  0  0  0999 V2000
  -23.9971   -7.9813   21.4843 C   0  0  0  0  0  0  0  0  0  0  0  0
  -24.6009   -9.0785   20.8784 C   0  0  0  0  0  0  0  0  0  0  0  0
  -24.8488  -33.4957   22.3265 C   0  0  0  0  0  0  0  0  0  0  0  0
  -25.3642  -31.8623   24.0305 C   0  0  0  0  0  0  0  0  0  0  0  0
  -22.6761   -8.0675   21.9218 C   0  0  0  0  0  0  0  0  0  0  0  0
  -23.8836  -10.2622   20.7088 C   0  0  0  0  0  0  0  0  0  0  0  0
  -26.5733  -14.3621   21.9743 C   0  0  0  0  0  0  0  0  0  0  0  0
  -25.0492  -34.5219   23.2496 C   0  0  0  0  0  0  0  0  0  0  0  0
  -25.5646  -32.8885   24.9536 C   0  0  0  0  0  0  0  0  0  0  0  0
  -27.5193  -14.8119   21.0542 C   0  0  0  0  0  0  0  0  0  0  0  0
  -23.3365  -35.9631   25.7823 C   0  0  0  0  0  0  0  0  0  0  0  0
  -22.3984  -36.9947   25.8172 C   0  0  0  0  0  0  0  0  0  0  0  0
  -25.9767  -16.5095   20.3074 C   0  0  0  0  0  0  0  0  0  0  0  0
  -31.1983  -23.6563   16.6365 C   0  0  0  0  0  0  0  0  0  0  0  0
  -28.7921  -23.7583   16.8275 C   0  0  0  0  0  0  0  0  0  0  0  0
  -24.1331  -38.5902   25.2859 C   0  0  0  0  0  0  0  0  0  0  0  0
  -25.0062  -32.1658   22.7169 C   0  0  0  0  0  0  0  0  0  0  0  0
  -23.6176  -30.8200   21.0532 C   0  0  0  0  0  0  0  0  0  0  0  0
  -21.9453   -9.2559   21.7661 C   0  0  0  0  0  0  0  0  0  0  0  0
  -25.3158  -14.9766   22.0604 C   0  0  0  0  0  0  0  0  0  0  0  0
  -22.5511  -10.3639   21.1434 C   0  0  0  0  0  0  0  0  0  0  0  0
  -25.0175  -16.0672   21.2311 C   0  0  0  0  0  0  0  0  0  0  0  0
  -30.0246  -24.4041   16.7307 C   0  0  0  0  0  0  0  0  0  0  0  0
  -31.1394  -22.2626   16.6390 C   0  0  0  0  0  0  0  0  0  0  0  0
  -29.9068  -21.6169   16.7358 C   0  0  0  0  0  0  0  0  0  0  0  0
  -28.7331  -22.3647   16.8301 C   0  0  0  0  0  0  0  0  0  0  0  0
  -25.4072  -34.2184   24.5632 C   0  0  0  0  0  0  0  0  0  0  0  0
  -27.2200  -15.8839   20.2186 C   0  0  0  0  0  0  0  0  0  0  0  0
  -24.6730  -36.2450   25.4992 C   0  0  0  0  0  0  0  0  0  0  0  0
  -22.7966  -38.3082   25.5690 C   0  0  0  0  0  0  0  0  0  0  0  0
  -25.0713  -37.5585   25.2510 C   0  0  0  0  0  0  0  0  0  0  0  0
  -24.7988  -31.1052   21.7640 C   0  0  0  0  0  0  0  0  0  0  0  0
  -23.9346  -29.7265   20.2849 C   0  0  0  0  0  0  0  0  0  0  0  0
  -22.3473  -31.4842   21.0845 C   0  0  0  0  0  0  0  0  0  0  0  0
  -22.3169  -14.0210   21.6162 C   0  0  0  0  0  0  0  0  0  0  0  0
  -21.6187  -16.9890   22.7234 C   0  0  0  0  0  0  0  0  0  0  0  0
  -22.8969  -20.3335   22.2789 C   0  0  0  0  0  0  0  0  0  0  0  0
  -28.8407  -27.3826   18.2441 C   0  0  0  0  0  0  0  0  0  0  0  0
  -20.5049   -9.2862   22.2123 C   0  0  0  0  0  0  0  0  0  0  0  0
  -24.3162  -14.4966   23.0766 C   0  0  0  0  0  0  0  0  0  0  0  0
  -23.6894  -16.7745   21.2981 C   0  0  0  0  0  0  0  0  0  0  0  0
  -19.9343  -10.6968   22.3333 C   0  0  0  0  0  0  0  0  0  0  0  0
  -27.2085  -26.6180   21.5381 C   0  0  0  0  0  0  0  0  0  0  0  0
  -30.4435  -19.0898   20.3730 C   0  0  0  0  0  0  0  0  0  0  0  0
  -20.2940  -11.5255   21.1042 C   0  0  0  0  0  0  0  0  0  0  0  0
  -25.9375  -26.9821   20.7705 C   0  0  0  0  0  0  0  0  0  0  0  0
  -29.8051  -17.7074   20.3429 C   0  0  0  0  0  0  0  0  0  0  0  0
  -28.4360  -26.5746   20.6209 C   0  0  0  0  0  0  0  0  0  0  0  0
  -27.5433  -28.7467   19.8457 C   0  0  0  0  0  0  0  0  0  0  0  0
  -30.8033  -19.5737   18.9754 C   0  0  0  0  0  0  0  0  0  0  0  0
  -28.9708  -18.1616   18.0068 C   0  0  0  0  0  0  0  0  0  0  0  0
  -21.8138  -11.6732   20.9639 C   0  0  1  0  0  0  0  0  0  0  0  0
  -22.8793  -14.8676   22.7228 C   0  0  1  0  0  0  0  0  0  0  0  0
  -26.0747  -28.3102   19.9889 C   0  0  2  0  0  0  0  0  0  0  0  0
  -28.6059  -17.6683   19.4007 C   0  0  1  0  0  0  0  0  0  1  0  0
  -32.4110  -21.4855   16.5368 C   0  0  0  0  0  0  0  0  0  0  0  0
  -22.8332  -22.3213   23.8094 C   0  0  0  0  0  0  0  0  0  0  0  0
  -23.7135  -22.4223   17.1448 C   0  0  0  0  0  0  0  0  0  0  0  0
  -24.9134  -20.6712   15.8044 C   0  0  0  0  0  0  0  0  0  0  0  0
  -25.0585  -20.6572   18.2993 C   0  0  0  0  0  0  0  0  0  0  0  0
  -19.0860  -17.7247   21.1891 C   0  0  0  0  0  0  0  0  0  0  0  0
  -19.7896  -20.1241   21.3161 C   0  0  0  0  0  0  0  0  0  0  0  0
  -19.3244  -18.8501   23.4097 C   0  0  0  0  0  0  0  0  0  0  0  0
  -30.9338  -26.1868   19.0235 C   0  0  0  0  0  0  0  0  0  0  0  0
  -25.8362  -20.6607   22.1661 C   0  0  0  0  0  0  0  0  0  0  0  0
  -30.0878  -25.8941   16.7259 C   0  0  0  0  0  0  0  0  0  0  0  0
  -29.8480  -20.1177   16.7374 C   0  0  0  0  0  0  0  0  0  0  0  0
  -26.2476  -22.4534   17.0297 C   0  0  0  0  0  0  0  0  0  0  0  0
  -21.4231  -18.3466   22.0929 C   0  0  1  0  0  0  0  0  0  0  0  0
  -23.6653  -21.1556   23.2979 C   0  0  2  0  0  0  0  0  0  0  0  0
  -24.9856  -21.5626   17.0557 C   0  0  0  0  0  0  0  0  0  0  0  0
  -19.9229  -18.7419   21.9902 C   0  0  0  0  0  0  0  0  0  0  0  0
  -25.7921  -30.2609   21.4733 N   0  0  0  0  0  0  0  0  0  0  0  0
  -25.2357  -29.4343   20.5714 N   0  0  0  0  0  0  0  0  0  0  0  0
  -22.7430  -16.2640   22.3036 N   0  0  0  0  0  0  0  0  0  0  0  0
  -28.3897  -27.5899   19.5585 N   0  0  0  0  0  0  0  0  0  0  0  0
  -23.2246  -28.9960   19.3991 N   0  0  0  0  0  0  0  0  0  0  0  0
  -21.3880  -31.0483   22.0087 N   0  0  0  0  0  0  0  0  0  0  0  0
  -27.4757  -21.7294   16.9300 N   0  0  0  0  0  0  0  0  0  0  0  0
  -22.3128  -12.6667   21.8905 N   0  0  0  0  0  0  0  0  0  0  0  0
  -22.2346  -19.2779   22.8691 N   0  0  0  0  0  0  0  0  0  0  0  0
  -29.8804  -26.4615   18.0512 N   0  0  0  0  0  0  0  0  0  0  0  0
  -29.5740  -19.5401   18.0986 N   0  3  2  0  0  0  0  0  0  0  0  0
  -24.9126  -21.6996   22.6902 N   0  3  0  0  0  0  0  0  0  0  0  0
  -22.0653  -32.4253   20.3046 O   0  0  0  0  0  0  0  0  0  0  0  0
  -21.9151  -14.5570   20.5900 O   0  0  0  0  0  0  0  0  0  0  0  0
  -20.8078  -16.5896   23.5628 O   0  0  0  0  0  0  0  0  0  0  0  0
  -22.8824  -20.6032   21.0799 O   0  0  0  0  0  0  0  0  0  0  0  0
  -28.3288  -27.9790   17.2872 O   0  0  0  0  0  0  0  0  0  0  0  0
  -25.6031  -35.2196   25.4642 O   0  0  0  0  0  0  0  0  0  0  0  0
  -28.1413  -16.3246   19.3192 O   0  0  0  0  0  0  0  0  0  1  0  0
  -21.8953  -39.2986   25.6010 F   0  0  0  0  0  0  0  0  0  0  0  0
  -26.3536  -37.8354   24.9774 F   0  0  0  0  0  0  0  0  0  0  0  0
  1  2  1  0  0  0  0
  1  5  2  0  0  0  0
  2  6  2  0  0  0  0
  3  8  2  0  0  0  0
  3 17  1  0  0  0  0
  4  9  1  0  0  0  0
  4 17  2  0  0  0  0
  5 19  1  0  0  0  0
  6 21  1  0  0  0  0
  7 10  2  0  0  0  0
  7 20  1  0  0  0  0
  8 27  1  0  0  0  0
  9 27  2  0  0  0  0
 10 28  1  0  0  0  0
 11 12  2  0  0  0  0
 11 29  1  0  0  0  0
 12 30  1  0  0  0  0
 13 22  1  0  0  0  0
 13 28  2  0  0  0  0
 14 23  1  0  0  0  0
 14 24  2  0  0  0  0
 15 23  2  0  0  0  0
 15 26  1  0  0  0  0
 16 30  2  0  0  0  0
 16 31  1  0  0  0  0
 17 32  1  0  0  0  0
 18 32  1  0  0  0  0
 18 33  2  0  0  0  0
 18 34  1  0  0  0  0
 19 21  2  0  0  0  0
 19 39  1  0  0  0  0
 20 22  2  0  0  0  0
 20 40  1  0  0  0  0
 21 52  1  0  0  0  0
 22 41  1  0  0  0  0
 23 66  1  0  0  0  0
 24 25  1  0  0  0  0
 24 56  1  0  0  0  0
 25 26  2  0  0  0  0
 25 67  1  0  0  0  0
 26 79  1  0  0  0  0
 27 90  1  0  0  0  0
 28 91  1  0  0  0  0
 29 31  2  0  0  0  0
 29 90  1  0  0  0  0
 30 92  1  0  0  0  0
 31 93  1  0  0  0  0
 32 73  2  0  0  0  0
 33 74  1  0  0  0  0
 33 77  1  0  0  0  0
 34 78  1  0  0  0  0
 34 85  2  0  0  0  0
 35 53  1  0  0  0  0
 35 80  1  0  0  0  0
 35 86  2  0  0  0  0
 36 69  1  0  0  0  0
 36 75  1  0  0  0  0
 36 87  2  0  0  0  0
 37 70  1  0  0  0  0
 37 81  1  0  0  0  0
 37 88  2  0  0  0  0
 38 76  1  0  0  0  0
 38 82  1  0  0  0  0
 38 89  2  0  0  0  0
 39 42  1  0  0  0  0
 40 53  1  0  0  0  0
 41 75  1  0  0  0  0
 42 45  1  0  0  0  0
 43 46  1  0  0  0  0
 43 48  1  0  0  0  0
 44 47  1  0  0  0  0
 44 50  1  0  0  0  0
 45 52  1  0  0  0  0
 46 54  1  0  0  0  0
 47 55  1  0  0  0  0
 48 76  1  0  0  0  0
 49 54  1  0  0  0  0
 49 76  1  0  0  0  0
 50 83  1  0  0  0  0
 51 55  1  0  0  0  0
 51 83  1  0  0  0  0
 52 80  1  0  0  0  0
 53 75  1  0  0  0  0
 54 74  1  0  0  0  0
 55 91  1  0  0  0  0
 57 70  1  0  0  0  0
 58 71  1  0  0  0  0
 59 71  1  0  0  0  0
 60 71  1  0  0  0  0
 61 72  1  0  0  0  0
 62 72  1  0  0  0  0
 63 72  1  0  0  0  0
 64 82  1  0  0  0  0
 65 84  1  0  0  0  0
 66 82  1  0  0  0  0
 67 83  1  0  0  0  0
 68 71  1  0  0  0  0
 68 79  1  0  0  0  0
 69 72  1  0  0  0  0
 69 81  1  0  0  0  0
 70 84  1  0  0  0  0
 73 74  1  0  0  0  0
M  CHG  2  83   1  84   1
M  ISO  4  38 100  55 101  82 100  91 101
M  END
> <Batch ID>
0028

> <Smiles>
CNC(C)C(=O)NC(C(=O)N1Cc2cc([101O:1][101CH:1]3CCCN(Cc4c(C)cc(C[100N:0](C)[100C:0](=O)N5CCCC(n6nc(-c7ccc(Oc8ccc(F)cc8F)cc7)c(C(N)=O)c6N)C5)cc4NCC(C)(C)C)C3)ccc2CC1C(=O)NC1CCCc2ccccc21)C(C)(C)C

> <Shape>
0.238

> <Color>
0.071

> <Negative vol penalty>
0.000

$$$$

  -OEChem-04042321313D

 86 94  0     1  0  0  0  0  0999 V2000
  -30.2790  -12.7168   20.7896 C   0  0  0  0  0  0  0  0  0  0  0  0
  -30.0702  -14.0221   20.3560 C   0  0  0  0  0  0  0  0  0  0  0  0
  -28.6994  -25.3396   20.2491 C   0  0  0  0  0  0  0  0  0  0  0  0
  -26.7700  -24.0595   20.9390 C   0  0  0  0  0  0  0  0  0  0  0  0
  -29.2682  -11.7668   20.6495 C   0  0  0  0  0  0  0  0  0  0  0  0
  -28.8507  -14.3779   19.7810 C   0  0  0  0  0  0  0  0  0  0  0  0
  -24.8000  -19.6148   22.6197 C   0  0  0  0  0  0  0  0  0  0  0  0
  -29.5382  -24.3862   20.8261 C   0  0  0  0  0  0  0  0  0  0  0  0
  -27.6088  -23.1061   21.5160 C   0  0  0  0  0  0  0  0  0  0  0  0
  -24.0683  -20.7467   22.9798 C   0  0  0  0  0  0  0  0  0  0  0  0
  -29.2507  -20.1520   22.8560 C   0  0  0  0  0  0  0  0  0  0  0  0
  -28.9643  -18.8074   22.6202 C   0  0  0  0  0  0  0  0  0  0  0  0
  -17.6251  -28.7101   24.0081 C   0  0  0  0  0  0  0  0  0  0  0  0
  -22.4271  -20.2406   21.2773 C   0  0  0  0  0  0  0  0  0  0  0  0
  -19.4730  -30.1743   23.4802 C   0  0  0  0  0  0  0  0  0  0  0  0
  -29.2293  -19.1674   20.2459 C   0  0  0  0  0  0  0  0  0  0  0  0
  -27.3152  -25.1763   20.3055 C   0  0  0  0  0  0  0  0  0  0  0  0
  -18.3665  -27.6148   23.5654 C   0  0  0  0  0  0  0  0  0  0  0  0
  -25.9634  -26.1790   18.3886 C   0  0  0  0  0  0  0  0  0  0  0  0
  -28.0322  -12.1135   20.0813 C   0  0  0  0  0  0  0  0  0  0  0  0
  -24.3393  -18.7821   21.5961 C   0  0  0  0  0  0  0  0  0  0  0  0
  -27.8228  -13.4314   19.6319 C   0  0  0  0  0  0  0  0  0  0  0  0
  -23.1492  -19.0987   20.9206 C   0  0  0  0  0  0  0  0  0  0  0  0
  -20.2144  -29.0789   23.0375 C   0  0  0  0  0  0  0  0  0  0  0  0
  -28.9930  -23.2695   21.4596 C   0  0  0  0  0  0  0  0  0  0  0  0
  -22.8850  -21.0590   22.3100 C   0  0  0  0  0  0  0  0  0  0  0  0
  -29.5263  -21.0044   21.7868 C   0  0  0  0  0  0  0  0  0  0  0  0
  -28.9536  -18.3151   21.3152 C   0  0  0  0  0  0  0  0  0  0  0  0
  -18.1783  -29.9899   23.9655 C   0  0  0  0  0  0  0  0  0  0  0  0
  -29.5156  -20.5120   20.4817 C   0  0  0  0  0  0  0  0  0  0  0  0
  -19.6612  -27.7991   23.0801 C   0  0  0  0  0  0  0  0  0  0  0  0
  -26.4481  -26.1611   19.7101 C   0  0  0  0  0  0  0  0  0  0  0  0
  -25.1880  -27.3108   18.3226 C   0  0  0  0  0  0  0  0  0  0  0  0
  -17.7780  -26.2613   23.6125 C   0  0  0  0  0  0  0  0  0  0  0  0
  -26.1935  -25.2553   17.3164 C   0  0  0  0  0  0  0  0  0  0  0  0
  -24.8946  -15.6835   19.5548 C   0  0  0  0  0  0  0  0  0  0  0  0
  -21.8935  -15.8152   20.1763 C   0  0  0  0  0  0  0  0  0  0  0  0
  -18.7348  -16.1046   21.4317 C   0  0  0  0  0  0  0  0  0  0  0  0
  -22.2240  -30.4737   22.4355 C   0  0  0  0  0  0  0  0  0  0  0  0
  -26.9866  -11.0406   19.9075 C   0  0  0  0  0  0  0  0  0  0  0  0
  -25.1267  -17.5863   21.1335 C   0  0  0  0  0  0  0  0  0  0  0  0
  -22.7101  -18.1930   19.8026 C   0  0  0  0  0  0  0  0  0  0  0  0
  -25.5899  -11.5905   19.6300 C   0  0  0  0  0  0  0  0  0  0  0  0
  -24.7619  -31.6756   20.2465 C   0  0  0  0  0  0  0  0  0  0  0  0
  -25.6469  -12.6784   18.5622 C   0  0  0  0  0  0  0  0  0  0  0  0
  -25.4342  -30.3993   19.7355 C   0  0  0  0  0  0  0  0  0  0  0  0
  -24.3435  -31.5492   21.7103 C   0  0  0  0  0  0  0  0  0  0  0  0
  -24.1908  -29.0986   21.5101 C   0  0  0  0  0  0  0  0  0  0  0  0
  -26.5048  -13.8619   19.0257 C   0  0  1  0  0  0  0  0  0  0  0  0
  -24.2359  -16.4124   20.6890 C   0  0  1  0  0  0  0  0  0  0  0  0
  -24.5715  -29.1545   20.0216 C   0  0  2  0  0  0  0  0  0  0  0  0
  -16.4926  -14.9781   21.4024 C   0  0  0  0  0  0  0  0  0  0  0  0
  -21.3834  -16.9114   17.3759 C   0  0  0  0  0  0  0  0  0  0  0  0
  -18.9312  -16.6123   17.7824 C   0  0  0  0  0  0  0  0  0  0  0  0
  -20.4459  -14.6303   17.7904 C   0  0  0  0  0  0  0  0  0  0  0  0
  -18.7949  -15.6513   24.3557 C   0  0  0  0  0  0  0  0  0  0  0  0
  -18.5702  -23.0815   23.4122 C   0  0  0  0  0  0  0  0  0  0  0  0
  -20.0931  -23.0686   23.5426 C   0  0  0  0  0  0  0  0  0  0  0  0
  -17.9059  -23.9498   24.4711 C   0  0  0  0  0  0  0  0  0  0  0  0
  -20.7365  -22.1627   22.5004 C   0  0  0  0  0  0  0  0  0  1  0  0
  -20.5259  -16.2592   19.7223 C   0  0  1  0  0  0  0  0  0  0  0  0
  -17.8280  -15.1001   22.1196 C   0  0  2  0  0  0  0  0  0  0  0  0
  -20.3374  -16.1192   18.1853 C   0  0  0  0  0  0  0  0  0  0  0  0
  -26.0169  -27.1990   20.4317 N   0  0  0  0  0  0  0  0  0  0  0  0
  -25.2531  -27.8799   19.5604 N   0  0  0  0  0  0  0  0  0  0  0  0
  -22.9016  -16.7868   20.1906 N   0  0  0  0  0  0  0  0  0  0  0  0
  -23.5256  -30.3501   21.9049 N   0  0  0  0  0  0  0  0  0  0  0  0
  -24.4637  -27.8647   17.3272 N   0  0  0  0  0  0  0  0  0  0  0  0
  -16.6618  -26.0372   22.9189 N   0  0  0  0  0  0  0  0  0  0  0  0
  -27.0159  -24.1458   17.5553 N   0  0  0  0  0  0  0  0  0  0  0  0
  -21.5292  -29.2696   22.5447 N   0  0  0  0  0  0  0  0  0  0  0  0
  -25.7655  -14.6884   19.9557 N   0  0  0  0  0  0  0  0  0  0  0  0
  -19.5658  -15.4978   20.5139 N   0  0  0  0  0  0  0  0  0  0  0  0
  -18.3899  -25.3252   24.3495 N   0  3  0  0  0  0  0  0  0  0  0  0
  -17.5692  -15.5150   23.5274 N   0  3  0  0  0  0  0  0  0  0  0  0
  -25.6981  -25.4179   16.1755 O   0  0  0  0  0  0  0  0  0  0  0  0
  -24.6317  -15.9989   18.4002 O   0  0  0  0  0  0  0  0  0  0  0  0
  -22.0673  -14.6382   20.5045 O   0  0  0  0  0  0  0  0  0  0  0  0
  -18.7059  -17.3078   21.6807 O   0  0  0  0  0  0  0  0  0  0  0  0
  -21.7500  -31.5704   22.7431 O   0  0  0  0  0  0  0  0  0  0  0  0
  -29.8112  -22.3389   22.0226 O   0  0  0  0  0  0  0  0  0  0  0  0
  -22.1734  -22.1630   22.6697 O   0  0  0  0  0  0  0  0  0  1  0  0
  -28.6801  -17.0235   21.0890 F   0  0  0  0  0  0  0  0  0  0  0  0
  -17.4664  -31.0416   24.3908 F   0  0  0  0  0  0  0  0  0  0  0  0
  -29.7808  -21.3257   19.4505 F   0  0  0  0  0  0  0  0  0  0  0  0
  -20.3730  -26.7446   22.6542 F   0  0  0  0  0  0  0  0  0  0  0  0
  1  2  1  0  0  0  0
  1  5  2  0  0  0  0
  2  6  2  0  0  0  0
  3  8  2  0  0  0  0
  3 17  1  0  0  0  0
  4  9  1  0  0  0  0
  4 17  2  0  0  0  0
  5 20  1  0  0  0  0
  6 22  1  0  0  0  0
  7 10  2  0  0  0  0
  7 21  1  0  0  0  0
  8 25  1  0  0  0  0
  9 25  2  0  0  0  0
 10 26  1  0  0  0  0
 11 12  2  0  0  0  0
 11 27  1  0  0  0  0
 12 28  1  0  0  0  0
 13 18  1  0  0  0  0
 13 29  2  0  0  0  0
 14 23  1  0  0  0  0
 14 26  2  0  0  0  0
 15 24  2  0  0  0  0
 15 29  1  0  0  0  0
 16 28  2  0  0  0  0
 16 30  1  0  0  0  0
 17 32  1  0  0  0  0
 18 31  2  0  0  0  0
 18 34  1  0  0  0  0
 19 32  1  0  0  0  0
 19 33  2  0  0  0  0
 19 35  1  0  0  0  0
 20 22  2  0  0  0  0
 20 40  1  0  0  0  0
 21 23  2  0  0  0  0
 21 41  1  0  0  0  0
 22 49  1  0  0  0  0
 23 42  1  0  0  0  0
 24 31  1  0  0  0  0
 24 71  1  0  0  0  0
 25 81  1  0  0  0  0
 26 82  1  0  0  0  0
 27 30  2  0  0  0  0
 27 81  1  0  0  0  0
 28 83  1  0  0  0  0
 29 84  1  0  0  0  0
 30 85  1  0  0  0  0
 31 86  1  0  0  0  0
 32 64  2  0  0  0  0
 33 65  1  0  0  0  0
 33 68  1  0  0  0  0
 34 69  1  0  0  0  0
 34 74  2  0  0  0  0
 35 70  1  0  0  0  0
 35 76  2  0  0  0  0
 36 50  1  0  0  0  0
 36 72  1  0  0  0  0
 36 77  2  0  0  0  0
 37 61  1  0  0  0  0
 37 66  1  0  0  0  0
 37 78  2  0  0  0  0
 38 62  1  0  0  0  0
 38 73  1  0  0  0  0
 38 79  2  0  0  0  0
 39 67  1  0  0  0  0
 39 71  1  0  0  0  0
 39 80  2  0  0  0  0
 40 43  1  0  0  0  0
 41 50  1  0  0  0  0
 42 66  1  0  0  0  0
 43 45  1  0  0  0  0
 44 46  1  0  0  0  0
 44 47  1  0  0  0  0
 45 49  1  0  0  0  0
 46 51  1  0  0  0  0
 47 67  1  0  0  0  0
 48 51  1  0  0  0  0
 48 67  1  0  0  0  0
 49 72  1  0  0  0  0
 50 66  1  0  0  0  0
 51 65  1  0  0  0  0
 52 62  1  0  0  0  0
 53 63  1  0  0  0  0
 54 63  1  0  0  0  0
 55 63  1  0  0  0  0
 56 75  1  0  0  0  0
 57 58  1  0  0  0  0
 57 59  1  0  0  0  0
 58 60  1  0  0  0  0
 59 74  1  0  0  0  0
 60 82  1  0  0  0  0
 61 63  1  0  0  0  0
 61 73  1  0  0  0  0
 62 75  1  0  0  0  0
 64 65  1  0  0  0  0
M  CHG  2  74   1  75   1
M  ISO  4  39 100  60 101  71 100  82 101
M  END
> <Batch ID>
0028

> <Smiles>
CNC(C)C(=O)NC(C(=O)N1Cc2cc([101O:1][101CH2:1]CCCNC(=N)c3cc(F)cc([100NH:0][100C:0](=O)N4CCCC(n5nc(-c6ccc(Oc7ccc(F)cc7F)cc6)c(C(N)=O)c5N)C4)c3F)ccc2CC1C(=O)NC1CCCc2ccccc21)C(C)(C)C

> <Shape>
0.231

> <Color>
0.082

> <Negative vol penalty>
0.000

$$$$

  -OEChem-04042321313D

 84 93  0     1  0  0  0  0  0999 V2000
  -22.2843  -23.5477   19.6474 C   0  0  0  0  0  0  0  0  0  0  0  0
  -23.5007  -22.9179   19.8906 C   0  0  0  0  0  0  0  0  0  0  0  0
  -22.2827  -29.2285   21.5814 C   0  0  0  0  0  0  0  0  0  0  0  0
  -23.2193  -28.3802   23.6406 C   0  0  0  0  0  0  0  0  0  0  0  0
  -21.0972  -22.9604   20.0830 C   0  0  0  0  0  0  0  0  0  0  0  0
  -23.5308  -21.7009   20.5707 C   0  0  0  0  0  0  0  0  0  0  0  0
  -26.6262  -18.3353   18.3944 C   0  0  0  0  0  0  0  0  0  0  0  0
  -21.0031  -28.8977   22.0271 C   0  0  0  0  0  0  0  0  0  0  0  0
  -21.9396  -28.0495   24.0864 C   0  0  0  0  0  0  0  0  0  0  0  0
  -27.9933  -18.4878   18.6216 C   0  0  0  0  0  0  0  0  0  0  0  0
  -18.6899  -30.1807   24.1334 C   0  0  0  0  0  0  0  0  0  0  0  0
  -17.6786  -31.1256   23.9597 C   0  0  0  0  0  0  0  0  0  0  0  0
  -27.9004  -16.7606   20.3031 C   0  0  0  0  0  0  0  0  0  0  0  0
  -30.9556  -23.2402   21.7681 C   0  0  0  0  0  0  0  0  0  0  0  0
  -30.8323  -23.3731   24.5519 C   0  0  0  0  0  0  0  0  0  0  0  0
  -16.4442  -29.5545   22.6013 C   0  0  0  0  0  0  0  0  0  0  0  0
  -23.3908  -28.9697   22.3881 C   0  0  0  0  0  0  0  0  0  0  0  0
  -25.3925  -30.5283   22.1208 C   0  0  0  0  0  0  0  0  0  0  0  0
  -21.1119  -21.7309   20.7602 C   0  0  0  0  0  0  0  0  0  0  0  0
  -25.8826  -17.4004   19.1288 C   0  0  0  0  0  0  0  0  0  0  0  0
  -22.3428  -21.0973   21.0169 C   0  0  0  0  0  0  0  0  0  0  0  0
  -26.5245  -16.5965   20.0815 C   0  0  0  0  0  0  0  0  0  0  0  0
  -31.4639  -22.1951   22.5393 C   0  0  0  0  0  0  0  0  0  0  0  0
  -31.4022  -22.2615   23.9312 C   0  0  0  0  0  0  0  0  0  0  0  0
  -30.3856  -24.3519   22.3887 C   0  0  0  0  0  0  0  0  0  0  0  0
  -20.8315  -28.3083   23.2796 C   0  0  0  0  0  0  0  0  0  0  0  0
  -28.6300  -17.7024   19.5781 C   0  0  0  0  0  0  0  0  0  0  0  0
  -18.5784  -28.9228   23.5410 C   0  0  0  0  0  0  0  0  0  0  0  0
  -16.5557  -30.8125   23.1937 C   0  0  0  0  0  0  0  0  0  0  0  0
  -30.3240  -24.4183   23.7806 C   0  0  0  0  0  0  0  0  0  0  0  0
  -17.4555  -28.6097   22.7750 C   0  0  0  0  0  0  0  0  0  0  0  0
  -24.7130  -29.3106   21.9280 C   0  0  0  0  0  0  0  0  0  0  0  0
  -26.6030  -30.3486   21.4972 C   0  0  0  0  0  0  0  0  0  0  0  0
  -24.9676  -31.7158   22.8027 C   0  0  0  0  0  0  0  0  0  0  0  0
  -23.4368  -17.5706   21.1519 C   0  0  0  0  0  0  0  0  0  0  0  0
  -23.5745  -14.3342   20.9805 C   0  0  0  0  0  0  0  0  0  0  0  0
  -25.4314  -11.5432   20.3411 C   0  0  0  0  0  0  0  0  0  0  0  0
  -29.8527  -25.5017   20.2115 C   0  0  0  0  0  0  0  0  0  0  0  0
  -19.8068  -21.1581   21.2535 C   0  0  0  0  0  0  0  0  0  0  0  0
  -24.4138  -17.2295   18.8530 C   0  0  0  0  0  0  0  0  0  0  0  0
  -25.7752  -15.5641   20.8824 C   0  0  0  0  0  0  0  0  0  0  0  0
  -19.8953  -19.6833   21.6375 C   0  0  0  0  0  0  0  0  0  0  0  0
  -28.6408  -27.9267   17.9033 C   0  0  0  0  0  0  0  0  0  0  0  0
  -21.1297  -19.4284   22.4965 C   0  0  0  0  0  0  0  0  0  0  0  0
  -27.5621  -28.6716   18.6929 C   0  0  0  0  0  0  0  0  0  0  0  0
  -28.6633  -26.4368   18.2402 C   0  0  0  0  0  0  0  0  0  0  0  0
  -27.6894  -26.8705   20.4612 C   0  0  0  0  0  0  0  0  0  0  0  0
  -30.0448  -19.6729   21.5533 C   0  0  0  0  0  0  0  0  0  0  0  0
  -31.8404  -18.6370   21.2980 C   0  0  0  0  0  0  0  0  0  0  0  0
  -22.4145  -19.7642   21.7296 C   0  0  1  0  0  0  0  0  0  0  0  0
  -23.6552  -16.6061   20.0206 C   0  0  1  0  0  0  0  0  0  0  0  0
  -27.6713  -28.3860   20.2036 C   0  0  2  0  0  0  0  0  0  0  0  0
  -30.3665  -18.2292   21.1281 C   0  0  0  0  0  0  0  0  0  1  0  0
  -31.9400  -21.1550   24.7780 C   0  0  0  0  0  0  0  0  0  0  0  0
  -25.2803   -9.0383   20.3221 C   0  0  0  0  0  0  0  0  0  0  0  0
  -23.7282  -14.3043   24.0277 C   0  0  0  0  0  0  0  0  0  0  0  0
  -24.5195  -11.9327   23.8950 C   0  0  0  0  0  0  0  0  0  0  0  0
  -22.2562  -12.5402   23.0401 C   0  0  0  0  0  0  0  0  0  0  0  0
  -26.0415  -11.4125   17.4480 C   0  0  0  0  0  0  0  0  0  0  0  0
  -32.0726  -21.0099   21.8496 C   0  0  0  0  0  0  0  0  0  0  0  0
  -24.3044  -13.2534   21.7408 C   0  0  1  0  0  0  0  0  0  0  0  0
  -25.1425  -10.3116   19.5019 C   0  0  2  0  0  0  0  0  0  0  0  0
  -23.7161  -13.0283   23.1623 C   0  0  0  0  0  0  0  0  0  0  0  0
  -25.4320  -28.4229   21.2359 N   0  0  0  0  0  0  0  0  0  0  0  0
  -26.5759  -29.0835   20.9883 N   0  0  0  0  0  0  0  0  0  0  0  0
  -24.3396  -15.4390   20.5807 N   0  0  0  0  0  0  0  0  0  0  0  0
  -28.7726  -26.2433   19.6878 N   0  0  0  0  0  0  0  0  0  0  0  0
  -27.6773  -31.1508   21.3399 N   0  0  0  0  0  0  0  0  0  0  0  0
  -23.6939  -31.7310   23.3874 N   0  0  0  0  0  0  0  0  0  0  0  0
  -29.8697  -25.4122   21.6030 N   0  0  0  0  0  0  0  0  0  0  0  0
  -22.7362  -18.7069   20.7952 N   0  0  0  0  0  0  0  0  0  0  0  0
  -24.2808  -12.0686   20.8899 N   0  0  0  0  0  0  0  0  0  0  0  0
  -31.3846  -19.7390   22.1655 N   0  3  0  0  0  0  0  0  0  0  0  0
  -26.0877  -10.2347   18.3523 N   0  3  0  0  0  0  0  0  0  0  0  0
  -25.6893  -32.7391   22.8768 O   0  0  0  0  0  0  0  0  0  0  0  0
  -23.8704  -17.3028   22.2664 O   0  0  0  0  0  0  0  0  0  0  0  0
  -22.3714  -14.1997   20.7437 O   0  0  0  0  0  0  0  0  0  0  0  0
  -26.5649  -11.9919   20.4973 O   0  0  0  0  0  0  0  0  0  0  0  0
  -30.7151  -25.0072   19.4810 O   0  0  0  0  0  0  0  0  0  0  0  0
  -19.5829  -27.9856   23.7150 O   0  0  0  0  0  0  0  0  0  0  0  0
  -29.9642  -17.8496   19.8022 O   0  0  0  0  0  0  0  0  0  1  0  0
  -15.5840  -31.7193   23.0282 F   0  0  0  0  0  0  0  0  0  0  0  0
  -29.7782  -25.4816   24.3879 F   0  0  0  0  0  0  0  0  0  0  0  0
  -17.3423  -27.4025   22.2044 F   0  0  0  0  0  0  0  0  0  0  0  0
  1  2  1  0  0  0  0
  1  5  2  0  0  0  0
  2  6  2  0  0  0  0
  3  8  2  0  0  0  0
  3 17  1  0  0  0  0
  4  9  1  0  0  0  0
  4 17  2  0  0  0  0
  5 19  1  0  0  0  0
  6 21  1  0  0  0  0
  7 10  2  0  0  0  0
  7 20  1  0  0  0  0
  8 26  1  0  0  0  0
  9 26  2  0  0  0  0
 10 27  1  0  0  0  0
 11 12  2  0  0  0  0
 11 28  1  0  0  0  0
 12 29  1  0  0  0  0
 13 22  1  0  0  0  0
 13 27  2  0  0  0  0
 14 23  1  0  0  0  0
 14 25  2  0  0  0  0
 15 24  1  0  0  0  0
 15 30  2  0  0  0  0
 16 29  2  0  0  0  0
 16 31  1  0  0  0  0
 17 32  1  0  0  0  0
 18 32  1  0  0  0  0
 18 33  2  0  0  0  0
 18 34  1  0  0  0  0
 19 21  2  0  0  0  0
 19 39  1  0  0  0  0
 20 22  2  0  0  0  0
 20 40  1  0  0  0  0
 21 50  1  0  0  0  0
 22 41  1  0  0  0  0
 23 24  2  0  0  0  0
 23 60  1  0  0  0  0
 24 54  1  0  0  0  0
 25 30  1  0  0  0  0
 25 70  1  0  0  0  0
 26 80  1  0  0  0  0
 27 81  1  0  0  0  0
 28 31  2  0  0  0  0
 28 80  1  0  0  0  0
 29 82  1  0  0  0  0
 30 83  1  0  0  0  0
 31 84  1  0  0  0  0
 32 64  2  0  0  0  0
 33 65  1  0  0  0  0
 33 68  1  0  0  0  0
 34 69  1  0  0  0  0
 34 75  2  0  0  0  0
 35 51  1  0  0  0  0
 35 71  1  0  0  0  0
 35 76  2  0  0  0  0
 36 61  1  0  0  0  0
 36 66  1  0  0  0  0
 36 77  2  0  0  0  0
 37 62  1  0  0  0  0
 37 72  1  0  0  0  0
 37 78  2  0  0  0  0
 38 67  1  0  0  0  0
 38 70  1  0  0  0  0
 38 79  2  0  0  0  0
 39 42  1  0  0  0  0
 40 51  1  0  0  0  0
 41 66  1  0  0  0  0
 42 44  1  0  0  0  0
 43 45  1  0  0  0  0
 43 46  1  0  0  0  0
 44 50  1  0  0  0  0
 45 52  1  0  0  0  0
 46 67  1  0  0  0  0
 47 52  1  0  0  0  0
 47 67  1  0  0  0  0
 48 53  1  0  0  0  0
 48 73  1  0  0  0  0
 49 53  1  0  0  0  0
 49 73  1  0  0  0  0
 50 71  1  0  0  0  0
 51 66  1  0  0  0  0
 52 65  1  0  0  0  0
 53 81  1  0  0  0  0
 55 62  1  0  0  0  0
 56 63  1  0  0  0  0
 57 63  1  0  0  0  0
 58 63  1  0  0  0  0
 59 74  1  0  0  0  0
 60 73  1  0  0  0  0
 61 63  1  0  0  0  0
 61 72  1  0  0  0  0
 62 74  1  0  0  0  0
 64 65  1  0  0  0  0
M  CHG  2  73   1  74   1
M  ISO  4  38 100  53 101  70 100  81 101
M  END
> <Batch ID>
0028

> <Smiles>
CNC(C)C(=O)NC(C(=O)N1Cc2cc([101O:1][101CH:1]3CN(Cc4cc([100NH:0][100C:0](=O)N5CCCC(n6nc(-c7ccc(Oc8ccc(F)cc8F)cc7)c(C(N)=O)c6N)C5)c(F)cc4C)C3)ccc2CC1C(=O)NC1CCCc2ccccc21)C(C)(C)C

> <Shape>
0.238

> <Color>
0.079

> <Negative vol penalty>
0.000

$$$$

  -OEChem-04042321313D

 86 95  0     1  0  0  0  0  0999 V2000
  -34.2401  -26.8490   17.8919 C   0  0  0  0  0  0  0  0  0  0  0  0
  -33.4092  -26.2050   18.8032 C   0  0  0  0  0  0  0  0  0  0  0  0
  -23.5887   -9.4680   19.7259 C   0  0  0  0  0  0  0  0  0  0  0  0
  -24.1434   -9.5241   22.0767 C   0  0  0  0  0  0  0  0  0  0  0  0
  -34.3723  -28.2364   17.9305 C   0  0  0  0  0  0  0  0  0  0  0  0
  -32.7109  -26.9481   19.7543 C   0  0  0  0  0  0  0  0  0  0  0  0
  -27.8819  -25.4889   20.1972 C   0  0  0  0  0  0  0  0  0  0  0  0
  -31.1187  -17.4609   23.2136 C   0  0  0  0  0  0  0  0  0  0  0  0
  -23.0237   -8.2033   19.8894 C   0  0  0  0  0  0  0  0  0  0  0  0
  -23.5784   -8.2594   22.2402 C   0  0  0  0  0  0  0  0  0  0  0  0
  -27.6317  -24.3294   20.9299 C   0  0  0  0  0  0  0  0  0  0  0  0
  -20.4837   -6.9360   22.5440 C   0  0  0  0  0  0  0  0  0  0  0  0
  -19.6483   -6.7383   23.6434 C   0  0  0  0  0  0  0  0  0  0  0  0
  -31.4993  -18.3945   24.1775 C   0  0  0  0  0  0  0  0  0  0  0  0
  -27.0138  -25.6740   22.8351 C   0  0  0  0  0  0  0  0  0  0  0  0
  -21.1220   -5.0025   24.4511 C   0  0  0  0  0  0  0  0  0  0  0  0
  -24.1486  -10.1284   20.8196 C   0  0  0  0  0  0  0  0  0  0  0  0
  -24.0848  -12.6783   20.7747 C   0  0  0  0  0  0  0  0  0  0  0  0
  -33.6678  -28.9977   18.8764 C   0  0  0  0  0  0  0  0  0  0  0  0
  -27.7100  -26.7516   20.7823 C   0  0  0  0  0  0  0  0  0  0  0  0
  -32.8349  -28.3469   19.8064 C   0  0  0  0  0  0  0  0  0  0  0  0
  -27.2600  -26.8479   22.1068 C   0  0  0  0  0  0  0  0  0  0  0  0
  -28.7949  -17.9560   23.6515 C   0  0  0  0  0  0  0  0  0  0  0  0
  -29.1754  -18.8896   24.6154 C   0  0  0  0  0  0  0  0  0  0  0  0
  -29.7665  -17.2417   22.9505 C   0  0  0  0  0  0  0  0  0  0  0  0
  -23.0185   -7.5990   21.1466 C   0  0  0  0  0  0  0  0  0  0  0  0
  -27.2004  -24.4218   22.2500 C   0  0  0  0  0  0  0  0  0  0  0  0
  -21.6382   -6.1669   22.3981 C   0  0  0  0  0  0  0  0  0  0  0  0
  -19.9674   -5.7716   24.5969 C   0  0  0  0  0  0  0  0  0  0  0  0
  -21.9573   -5.2002   23.3516 C   0  0  0  0  0  0  0  0  0  0  0  0
  -30.5276  -19.1088   24.8785 C   0  0  0  0  0  0  0  0  0  0  0  0
  -24.7330  -11.4347   20.6512 C   0  0  0  0  0  0  0  0  0  0  0  0
  -25.0672  -13.6041   20.5216 C   0  0  0  0  0  0  0  0  0  0  0  0
  -26.4981  -21.4767   25.2762 C   0  0  0  0  0  0  0  0  0  0  0  0
  -25.3496  -20.9072   25.6602 C   0  0  0  0  0  0  0  0  0  0  0  0
  -22.7170  -12.9704   21.0900 C   0  0  0  0  0  0  0  0  0  0  0  0
  -29.6247  -29.2072   21.4211 C   0  0  0  0  0  0  0  0  0  0  0  0
  -26.8475  -30.6463   22.2806 C   0  0  0  0  0  0  0  0  0  0  0  0
  -23.6210  -30.3162   23.3424 C   0  0  0  0  0  0  0  0  0  0  0  0
  -30.2573  -15.5059   21.1919 C   0  0  0  0  0  0  0  0  0  0  0  0
  -33.8795  -30.4906   18.9097 C   0  0  0  0  0  0  0  0  0  0  0  0
  -27.9585  -27.9929   19.9701 C   0  0  0  0  0  0  0  0  0  0  0  0
  -27.0405  -28.1798   22.7749 C   0  0  0  0  0  0  0  0  0  0  0  0
  -26.8142  -22.9373   25.3614 C   0  0  0  0  0  0  0  0  0  0  0  0
  -32.8150  -31.2390   19.7078 C   0  0  0  0  0  0  0  0  0  0  0  0
  -29.7510  -13.0209   18.6929 C   0  0  0  0  0  0  0  0  0  0  0  0
  -32.5648  -30.5471   21.0441 C   0  0  0  0  0  0  0  0  0  0  0  0
  -28.3470  -12.4890   18.9897 C   0  0  0  0  0  0  0  0  0  0  0  0
  -30.5134  -13.3552   19.9738 C   0  0  0  0  0  0  0  0  0  0  0  0
  -28.4056  -13.7207   21.1957 C   0  0  0  0  0  0  0  0  0  0  0  0
  -28.4755  -21.7788   24.0580 C   0  0  0  0  0  0  0  0  0  0  0  0
  -32.0418  -29.1205   20.8372 C   0  0  1  0  0  0  0  0  0  0  0  0
  -28.2440  -29.2214   20.8284 C   0  0  1  0  0  0  0  0  0  0  0  0
  -27.5755  -13.4312   19.9345 C   0  0  2  0  0  0  0  0  0  0  0  0
  -27.7220  -23.0980   24.1520 C   0  0  1  0  0  0  0  0  0  1  0  0
  -27.3436  -17.7213   23.3688 C   0  0  0  0  0  0  0  0  0  0  0  0
  -21.6134  -31.6730   23.9951 C   0  0  0  0  0  0  0  0  0  0  0  0
  -28.1543  -31.2851   24.9629 C   0  0  0  0  0  0  0  0  0  0  0  0
  -25.8745  -31.7621   25.8811 C   0  0  0  0  0  0  0  0  0  0  0  0
  -26.7754  -33.1393   24.0064 C   0  0  0  0  0  0  0  0  0  0  0  0
  -21.9855  -29.1576   21.1649 C   0  0  0  0  0  0  0  0  0  0  0  0
  -28.1193  -19.6502   25.3618 C   0  0  0  0  0  0  0  0  0  0  0  0
  -26.0525  -30.7583   23.5591 C   0  0  1  0  0  0  0  0  0  0  0  0
  -22.3318  -30.9575   22.8617 C   0  0  2  0  0  0  0  0  0  0  0  0
  -26.7201  -31.7109   24.5907 C   0  0  0  0  0  0  0  0  0  0  0  0
  -26.0270  -11.5560   20.3434 N   0  0  0  0  0  0  0  0  0  0  0  0
  -26.1999  -12.8868   20.2713 N   0  0  0  0  0  0  0  0  0  0  0  0
  -27.3031  -29.3645   21.9412 N   0  0  0  0  0  0  0  0  0  0  0  0
  -29.7233  -14.2549   20.8171 N   0  0  0  0  0  0  0  0  0  0  0  0
  -25.0641  -14.9538   20.4909 N   0  0  0  0  0  0  0  0  0  0  0  0
  -21.8415  -11.9006   21.3214 N   0  0  0  0  0  0  0  0  0  0  0  0
  -29.4024  -16.2889   21.9669 N   0  0  0  0  0  0  0  0  0  0  0  0
  -30.6384  -29.1430   20.4843 N   0  0  0  0  0  0  0  0  0  0  0  0
  -24.7034  -31.1523   23.1676 N   0  0  0  0  0  0  0  0  0  0  0  0
  -27.4788  -20.7272   24.5388 N   0  3  1  0  0  0  0  0  0  0  0  0
  -21.4156  -29.9232   22.3033 N   0  3  0  0  0  0  0  0  0  0  0  0
  -22.2801  -14.1448   21.1483 O   0  0  0  0  0  0  0  0  0  0  0  0
  -29.7602  -29.2527   22.6381 O   0  0  0  0  0  0  0  0  0  0  0  0
  -27.0506  -31.6577   21.6043 O   0  0  0  0  0  0  0  0  0  0  0  0
  -23.6630  -29.1880   23.8281 O   0  0  0  0  0  0  0  0  0  0  0  0
  -31.3791  -15.8681   20.8279 O   0  0  0  0  0  0  0  0  0  0  0  0
  -22.4670   -6.3649   21.3065 O   0  0  0  0  0  0  0  0  0  0  0  0
  -26.9561  -23.2917   22.9676 O   0  0  0  0  0  0  0  0  0  1  0  0
  -19.1659   -5.5829   25.6534 F   0  0  0  0  0  0  0  0  0  0  0  0
  -23.0657   -4.4590   23.2175 F   0  0  0  0  0  0  0  0  0  0  0  0
  -31.0414  -20.2532   26.0649 Cl  0  0  0  0  0  0  0  0  0  0  0  0
  1  2  1  0  0  0  0
  1  5  2  0  0  0  0
  2  6  2  0  0  0  0
  3  9  2  0  0  0  0
  3 17  1  0  0  0  0
  4 10  1  0  0  0  0
  4 17  2  0  0  0  0
  5 19  1  0  0  0  0
  6 21  1  0  0  0  0
  7 11  2  0  0  0  0
  7 20  1  0  0  0  0
  8 14  1  0  0  0  0
  8 25  2  0  0  0  0
  9 26  1  0  0  0  0
 10 26  2  0  0  0  0
 11 27  1  0  0  0  0
 12 13  2  0  0  0  0
 12 28  1  0  0  0  0
 13 29  1  0  0  0  0
 14 31  2  0  0  0  0
 15 22  1  0  0  0  0
 15 27  2  0  0  0  0
 16 29  2  0  0  0  0
 16 30  1  0  0  0  0
 17 32  1  0  0  0  0
 18 32  1  0  0  0  0
 18 33  2  0  0  0  0
 18 36  1  0  0  0  0
 19 21  2  0  0  0  0
 19 41  1  0  0  0  0
 20 22  2  0  0  0  0
 20 42  1  0  0  0  0
 21 52  1  0  0  0  0
 22 43  1  0  0  0  0
 23 24  2  0  0  0  0
 23 25  1  0  0  0  0
 23 56  1  0  0  0  0
 24 31  1  0  0  0  0
 24 62  1  0  0  0  0
 25 72  1  0  0  0  0
 26 82  1  0  0  0  0
 27 83  1  0  0  0  0
 28 30  2  0  0  0  0
 28 82  1  0  0  0  0
 29 84  1  0  0  0  0
 30 85  1  0  0  0  0
 31 86  1  0  0  0  0
 32 66  2  0  0  0  0
 33 67  1  0  0  0  0
 33 70  1  0  0  0  0
 34 35  2  0  0  0  0
 34 44  1  0  0  0  0
 34 75  1  0  0  0  0
 36 71  1  0  0  0  0
 36 77  2  0  0  0  0
 37 53  1  0  0  0  0
 37 73  1  0  0  0  0
 37 78  2  0  0  0  0
 38 63  1  0  0  0  0
 38 68  1  0  0  0  0
 38 79  2  0  0  0  0
 39 64  1  0  0  0  0
 39 74  1  0  0  0  0
 39 80  2  0  0  0  0
 40 69  1  0  0  0  0
 40 72  1  0  0  0  0
 40 81  2  0  0  0  0
 41 45  1  0  0  0  0
 42 53  1  0  0  0  0
 43 68  1  0  0  0  0
 44 55  1  0  0  0  0
 45 47  1  0  0  0  0
 46 48  1  0  0  0  0
 46 49  1  0  0  0  0
 47 52  1  0  0  0  0
 48 54  1  0  0  0  0
 49 69  1  0  0  0  0
 50 54  1  0  0  0  0
 50 69  1  0  0  0  0
 51 55  1  0  0  0  0
 51 75  1  0  0  0  0
 52 73  1  0  0  0  0
 53 68  1  0  0  0  0
 54 67  1  0  0  0  0
 55 83  1  0  0  0  0
 57 64  1  0  0  0  0
 58 65  1  0  0  0  0
 59 65  1  0  0  0  0
 60 65  1  0  0  0  0
 61 76  1  0  0  0  0
 62 75  1  0  0  0  0
 63 65  1  0  0  0  0
 63 74  1  0  0  0  0
 64 76  1  0  0  0  0
 66 67  1  0  0  0  0
M  CHG  2  75   1  76   1
M  ISO  4  40 100  55 101  72 100  83 101
M  END
> <Batch ID>
0028

> <Smiles>
C=C1C[101CH:1]([101O:1]c2ccc3c(c2)CN(C(=O)C(NC(=O)C(C)NC)C(C)(C)C)C(C(=O)NC2CCCc4ccccc42)C3)CN1Cc1c(Cl)ccc([100NH:0][100C:0](=O)N2CCCC(n3nc(-c4ccc(Oc5ccc(F)cc5F)cc4)c(C(N)=O)c3N)C2)c1C

> <Shape>
0.279

> <Color>
0.173

> <Negative vol penalty>
0.000

$$$$

  -OEChem-04042321313D

 84 93  0     1  0  0  0  0  0999 V2000
  -28.8652  -34.9640   17.6056 C   0  0  0  0  0  0  0  0  0  0  0  0
  -29.1616  -33.6304   17.3428 C   0  0  0  0  0  0  0  0  0  0  0  0
  -22.9401  -10.0801   20.0440 C   0  0  0  0  0  0  0  0  0  0  0  0
  -24.1129   -9.3965   22.0425 C   0  0  0  0  0  0  0  0  0  0  0  0
  -28.4046  -35.3391   18.8670 C   0  0  0  0  0  0  0  0  0  0  0  0
  -28.9985  -32.6712   18.3417 C   0  0  0  0  0  0  0  0  0  0  0  0
  -27.2185  -26.8576   17.6075 C   0  0  0  0  0  0  0  0  0  0  0  0
  -31.7822  -18.1969   21.0471 C   0  0  0  0  0  0  0  0  0  0  0  0
  -31.4809  -19.4568   20.5298 C   0  0  0  0  0  0  0  0  0  0  0  0
  -22.1978   -8.8996   20.0758 C   0  0  0  0  0  0  0  0  0  0  0  0
  -23.3705   -8.2161   22.0744 C   0  0  0  0  0  0  0  0  0  0  0  0
  -27.9300  -25.6609   17.5336 C   0  0  0  0  0  0  0  0  0  0  0  0
  -20.2744   -7.2475   23.0212 C   0  0  0  0  0  0  0  0  0  0  0  0
  -19.7476   -6.8480   24.2494 C   0  0  0  0  0  0  0  0  0  0  0  0
  -27.5421  -25.2919   19.8857 C   0  0  0  0  0  0  0  0  0  0  0  0
  -29.4381  -19.4976   21.8192 C   0  0  0  0  0  0  0  0  0  0  0  0
  -21.0036   -4.7883   24.1182 C   0  0  0  0  0  0  0  0  0  0  0  0
  -23.8978  -10.3285   21.0273 C   0  0  0  0  0  0  0  0  0  0  0  0
  -24.3400  -12.7736   21.6051 C   0  0  0  0  0  0  0  0  0  0  0  0
  -28.2267  -34.3825   19.8789 C   0  0  0  0  0  0  0  0  0  0  0  0
  -26.6717  -27.2864   18.8256 C   0  0  0  0  0  0  0  0  0  0  0  0
  -28.5364  -33.0340   19.6182 C   0  0  0  0  0  0  0  0  0  0  0  0
  -26.8218  -26.4931   19.9719 C   0  0  0  0  0  0  0  0  0  0  0  0
  -30.9115  -17.5873   21.9504 C   0  0  0  0  0  0  0  0  0  0  0  0
  -29.7395  -18.2377   22.3365 C   0  0  0  0  0  0  0  0  0  0  0  0
  -30.3089  -20.1071   20.9159 C   0  0  0  0  0  0  0  0  0  0  0  0
  -22.4130   -7.9676   21.0910 C   0  0  0  0  0  0  0  0  0  0  0  0
  -28.0945  -24.8793   18.6734 C   0  0  0  0  0  0  0  0  0  0  0  0
  -21.1658   -6.4173   22.3415 C   0  0  0  0  0  0  0  0  0  0  0  0
  -20.1122   -5.6184   24.7979 C   0  0  0  0  0  0  0  0  0  0  0  0
  -21.5304   -5.1878   22.8900 C   0  0  0  0  0  0  0  0  0  0  0  0
  -24.6653  -11.5475   20.9946 C   0  0  0  0  0  0  0  0  0  0  0  0
  -25.3823  -13.6066   21.2794 C   0  0  0  0  0  0  0  0  0  0  0  0
  -30.5530  -22.2261   19.5660 C   0  0  0  0  0  0  0  0  0  0  0  0
  -31.6234  -22.2697   18.7630 C   0  0  0  0  0  0  0  0  0  0  0  0
  -23.1977  -13.1278   22.3960 C   0  0  0  0  0  0  0  0  0  0  0  0
  -27.0964  -29.8110   20.7097 C   0  0  0  0  0  0  0  0  0  0  0  0
  -24.6109  -28.5194   22.3456 C   0  0  0  0  0  0  0  0  0  0  0  0
  -22.7879  -25.7425   23.1282 C   0  0  0  0  0  0  0  0  0  0  0  0
  -30.8501  -14.5637   20.7028 C   0  0  0  0  0  0  0  0  0  0  0  0
  -27.7714  -34.8428   21.2411 C   0  0  0  0  0  0  0  0  0  0  0  0
  -25.8840  -28.5665   18.8829 C   0  0  0  0  0  0  0  0  0  0  0  0
  -26.2371  -26.8989   21.2993 C   0  0  0  0  0  0  0  0  0  0  0  0
  -27.2692  -33.7087   22.1309 C   0  0  0  0  0  0  0  0  0  0  0  0
  -29.1677  -13.0074   17.9781 C   0  0  0  0  0  0  0  0  0  0  0  0
  -28.2349  -32.5288   22.0879 C   0  0  0  0  0  0  0  0  0  0  0  0
  -27.8229  -12.5848   18.5720 C   0  0  0  0  0  0  0  0  0  0  0  0
  -30.3024  -12.8605   18.9895 C   0  0  0  0  0  0  0  0  0  0  0  0
  -28.8357  -22.1784   20.6084 C   0  0  0  0  0  0  0  0  0  0  0  0
  -28.7319  -13.1210   20.8708 C   0  0  0  0  0  0  0  0  0  0  0  0
  -28.3489  -31.9605   20.6682 C   0  0  1  0  0  0  0  0  0  0  0  0
  -29.4878  -23.2944   19.7889 C   0  0  2  0  0  0  0  0  0  1  0  0
  -25.8100  -29.1602   20.2863 C   0  0  1  0  0  0  0  0  0  0  0  0
  -27.5479  -13.3045   19.9060 C   0  0  2  0  0  0  0  0  0  0  0  0
  -28.7914  -17.6040   23.3010 C   0  0  0  0  0  0  0  0  0  0  0  0
  -20.8396  -24.9930   24.5209 C   0  0  0  0  0  0  0  0  0  0  0  0
  -26.3523  -28.6500   24.8476 C   0  0  0  0  0  0  0  0  0  0  0  0
  -24.7639  -27.0606   25.9516 C   0  0  0  0  0  0  0  0  0  0  0  0
  -23.9643  -29.3019   25.2035 C   0  0  0  0  0  0  0  0  0  0  0  0
  -21.2743  -24.8585   20.7435 C   0  0  0  0  0  0  0  0  0  0  0  0
  -31.2550  -16.2377   22.4897 C   0  0  0  0  0  0  0  0  0  0  0  0
  -24.4747  -27.5280   23.4759 C   0  0  1  0  0  0  0  0  0  0  0  0
  -21.2903  -25.4962   23.1584 C   0  0  2  0  0  0  0  0  0  0  0  0
  -24.9016  -28.1282   24.8452 C   0  0  0  0  0  0  0  0  0  0  0  0
  -25.8236  -11.5932   20.3311 N   0  0  0  0  0  0  0  0  0  0  0  0
  -26.2352  -12.8581   20.5228 N   0  0  0  0  0  0  0  0  0  0  0  0
  -30.0053  -21.3805   20.3937 N   0  0  0  0  0  0  0  0  0  0  0  0
  -25.4807  -28.1619   21.3057 N   0  0  0  0  0  0  0  0  0  0  0  0
  -29.9797  -13.5671   20.2315 N   0  0  0  0  0  0  0  0  0  0  0  0
  -25.6433  -14.8990   21.5691 N   0  0  0  0  0  0  0  0  0  0  0  0
  -22.2211  -12.1512   22.6342 N   0  0  0  0  0  0  0  0  0  0  0  0
  -27.1958  -31.1433   20.3569 N   0  0  0  0  0  0  0  0  0  0  0  0
  -23.0968  -27.0505   23.4363 N   0  0  0  0  0  0  0  0  0  0  0  0
  -30.4665  -15.1883   21.8833 N   0  0  0  0  0  0  0  0  0  0  0  0
  -20.9112  -24.4823   22.1341 N   0  3  0  0  0  0  0  0  0  0  0  0
  -23.0396  -14.2810   22.8635 O   0  0  0  0  0  0  0  0  0  0  0  0
  -27.9361  -29.1534   21.3133 O   0  0  0  0  0  0  0  0  0  0  0  0
  -23.9637  -29.5689   22.3805 O   0  0  0  0  0  0  0  0  0  0  0  0
  -23.6025  -24.8616   22.8617 O   0  0  0  0  0  0  0  0  0  0  0  0
  -31.8893  -14.8776   20.1124 O   0  0  0  0  0  0  0  0  0  0  0  0
  -21.6886   -6.8157   21.1226 O   0  0  0  0  0  0  0  0  0  0  0  0
  -28.7891  -23.7112   18.6041 O   0  0  0  0  0  0  0  0  0  1  0  0
  -19.6074   -5.2356   25.9781 F   0  0  0  0  0  0  0  0  0  0  0  0
  -22.3873   -4.3865   22.2421 F   0  0  0  0  0  0  0  0  0  0  0  0
  1  2  1  0  0  0  0
  1  5  2  0  0  0  0
  2  6  2  0  0  0  0
  3 10  2  0  0  0  0
  3 18  1  0  0  0  0
  4 11  1  0  0  0  0
  4 18  2  0  0  0  0
  5 20  1  0  0  0  0
  6 22  1  0  0  0  0
  7 12  2  0  0  0  0
  7 21  1  0  0  0  0
  8  9  2  0  0  0  0
  8 24  1  0  0  0  0
  9 26  1  0  0  0  0
 10 27  1  0  0  0  0
 11 27  2  0  0  0  0
 12 28  1  0  0  0  0
 13 14  2  0  0  0  0
 13 29  1  0  0  0  0
 14 30  1  0  0  0  0
 15 23  1  0  0  0  0
 15 28  2  0  0  0  0
 16 25  1  0  0  0  0
 16 26  2  0  0  0  0
 17 30  2  0  0  0  0
 17 31  1  0  0  0  0
 18 32  1  0  0  0  0
 19 32  1  0  0  0  0
 19 33  2  0  0  0  0
 19 36  1  0  0  0  0
 20 22  2  0  0  0  0
 20 41  1  0  0  0  0
 21 23  2  0  0  0  0
 21 42  1  0  0  0  0
 22 51  1  0  0  0  0
 23 43  1  0  0  0  0
 24 25  2  0  0  0  0
 24 61  1  0  0  0  0
 25 55  1  0  0  0  0
 26 67  1  0  0  0  0
 27 81  1  0  0  0  0
 28 82  1  0  0  0  0
 29 31  2  0  0  0  0
 29 81  1  0  0  0  0
 30 83  1  0  0  0  0
 31 84  1  0  0  0  0
 32 65  2  0  0  0  0
 33 66  1  0  0  0  0
 33 70  1  0  0  0  0
 34 35  2  0  0  0  0
 34 52  1  0  0  0  0
 34 67  1  0  0  0  0
 36 71  1  0  0  0  0
 36 76  2  0  0  0  0
 37 53  1  0  0  0  0
 37 72  1  0  0  0  0
 37 77  2  0  0  0  0
 38 62  1  0  0  0  0
 38 68  1  0  0  0  0
 38 78  2  0  0  0  0
 39 63  1  0  0  0  0
 39 73  1  0  0  0  0
 39 79  2  0  0  0  0
 40 69  1  0  0  0  0
 40 74  1  0  0  0  0
 40 80  2  0  0  0  0
 41 44  1  0  0  0  0
 42 53  1  0  0  0  0
 43 68  1  0  0  0  0
 44 46  1  0  0  0  0
 45 47  1  0  0  0  0
 45 48  1  0  0  0  0
 46 51  1  0  0  0  0
 47 54  1  0  0  0  0
 48 69  1  0  0  0  0
 49 52  1  0  0  0  0
 49 67  1  0  0  0  0
 50 54  1  0  0  0  0
 50 69  1  0  0  0  0
 51 72  1  0  0  0  0
 52 82  1  0  0  0  0
 53 68  1  0  0  0  0
 54 66  1  0  0  0  0
 56 63  1  0  0  0  0
 57 64  1  0  0  0  0
 58 64  1  0  0  0  0
 59 64  1  0  0  0  0
 60 75  1  0  0  0  0
 61 74  1  0  0  0  0
 62 64  1  0  0  0  0
 62 73  1  0  0  0  0
 63 75  1  0  0  0  0
 65 66  1  0  0  0  0
M  CHG  1  75   1
M  ISO  4  40 100  52 101  74 100  82 101
M  END
> <Batch ID>
0028

> <Smiles>
C=C1N(c2ccc(C[100NH:0][100C:0](=O)N3CCCC(n4nc(-c5ccc(Oc6ccc(F)cc6F)cc5)c(C(N)=O)c4N)C3)c(C)c2)C[101CH:1]1[101O:1]c1ccc2c(c1)CN(C(=O)C(NC(=O)C(C)NC)C(C)(C)C)C(C(=O)NC1CCCc3ccccc31)C2

> <Shape>
0.298

> <Color>
0.173

> <Negative vol penalty>
0.000

$$$$

  -OEChem-04042321313D

 84 93  0     1  0  0  0  0  0999 V2000
  -27.8252  -32.2403   27.5077 C   0  0  0  0  0  0  0  0  0  0  0  0
  -27.8933  -31.1459   26.6515 C   0  0  0  0  0  0  0  0  0  0  0  0
  -26.6910  -11.7713   21.4062 C   0  0  0  0  0  0  0  0  0  0  0  0
  -25.4386  -13.0168   19.7578 C   0  0  0  0  0  0  0  0  0  0  0  0
  -26.6121  -32.9008   27.6979 C   0  0  0  0  0  0  0  0  0  0  0  0
  -26.7480  -30.7107   25.9858 C   0  0  0  0  0  0  0  0  0  0  0  0
  -27.6094  -29.6927   21.1004 C   0  0  0  0  0  0  0  0  0  0  0  0
  -27.8213  -22.5682   17.0029 C   0  0  0  0  0  0  0  0  0  0  0  0
  -25.4989  -11.3718   22.0102 C   0  0  0  0  0  0  0  0  0  0  0  0
  -24.2464  -12.6173   20.3618 C   0  0  0  0  0  0  0  0  0  0  0  0
  -28.2337  -28.4822   20.8027 C   0  0  0  0  0  0  0  0  0  0  0  0
  -22.2876   -9.8642   20.4230 C   0  0  0  0  0  0  0  0  0  0  0  0
  -27.4362  -21.3327   16.4825 C   0  0  0  0  0  0  0  0  0  0  0  0
  -21.2580   -9.4229   19.5919 C   0  0  0  0  0  0  0  0  0  0  0  0
  -26.0925  -27.5223   20.2433 C   0  0  0  0  0  0  0  0  0  0  0  0
  -29.4822  -21.4732   18.3738 C   0  0  0  0  0  0  0  0  0  0  0  0
  -19.8323  -11.1887   20.4207 C   0  0  0  0  0  0  0  0  0  0  0  0
  -26.6609  -12.5938   20.2800 C   0  0  0  0  0  0  0  0  0  0  0  0
  -28.5877  -12.3450   18.6268 C   0  0  0  0  0  0  0  0  0  0  0  0
  -25.4534  -32.4793   27.0267 C   0  0  0  0  0  0  0  0  0  0  0  0
  -26.2183  -29.8241   20.9820 C   0  0  0  0  0  0  0  0  0  0  0  0
  -25.5179  -31.3653   26.1681 C   0  0  0  0  0  0  0  0  0  0  0  0
  -25.4532  -28.7363   20.5376 C   0  0  0  0  0  0  0  0  0  0  0  0
  -28.8443  -22.6385   17.9486 C   0  0  0  0  0  0  0  0  0  0  0  0
  -29.0971  -20.2376   17.8534 C   0  0  0  0  0  0  0  0  0  0  0  0
  -24.2766  -11.7948   21.4880 C   0  0  0  0  0  0  0  0  0  0  0  0
  -27.4750  -27.3959   20.3769 C   0  0  0  0  0  0  0  0  0  0  0  0
  -22.0896  -10.9677   21.2530 C   0  0  0  0  0  0  0  0  0  0  0  0
  -20.0303  -10.0851   19.5907 C   0  0  0  0  0  0  0  0  0  0  0  0
  -28.0741  -20.1674   16.9077 C   0  0  0  0  0  0  0  0  0  0  0  0
  -20.8620  -11.6299   21.2518 C   0  0  0  0  0  0  0  0  0  0  0  0
  -27.8921  -13.0073   19.6560 C   0  0  0  0  0  0  0  0  0  0  0  0
  -29.6850  -13.1362   18.3897 C   0  0  0  0  0  0  0  0  0  0  0  0
  -30.2465  -24.1326   19.4351 C   0  0  0  0  0  0  0  0  0  0  0  0
  -28.2702  -11.1238   17.9459 C   0  0  0  0  0  0  0  0  0  0  0  0
  -23.8461  -30.4658   22.9981 C   0  0  0  0  0  0  0  0  0  0  0  0
  -22.0695  -30.5011   20.2844 C   0  0  0  0  0  0  0  0  0  0  0  0
  -21.7032  -29.4825   17.0478 C   0  0  0  0  0  0  0  0  0  0  0  0
  -30.7800  -18.9518   19.2175 C   0  0  0  0  0  0  0  0  0  0  0  0
  -24.1547  -33.1956   27.3005 C   0  0  0  0  0  0  0  0  0  0  0  0
  -25.5631  -31.1445   21.2813 C   0  0  0  0  0  0  0  0  0  0  0  0
  -23.9590  -28.8316   20.3746 C   0  0  0  0  0  0  0  0  0  0  0  0
  -30.3723  -25.6297   19.6131 C   0  0  0  0  0  0  0  0  0  0  0  0
  -23.0683  -32.9027   26.2690 C   0  0  0  0  0  0  0  0  0  0  0  0
  -32.6189  -16.2238   20.5791 C   0  0  0  0  0  0  0  0  0  0  0  0
  -22.9856  -31.4051   25.9913 C   0  0  0  0  0  0  0  0  0  0  0  0
  -31.6812  -15.0280   20.3977 C   0  0  0  0  0  0  0  0  0  0  0  0
  -31.8517  -17.4988   20.9249 C   0  0  0  0  0  0  0  0  0  0  0  0
  -29.8237  -16.6413   19.8199 C   0  0  0  0  0  0  0  0  0  0  0  0
  -28.6570  -25.1503   18.0150 C   0  0  0  0  0  0  0  0  0  0  0  0
  -24.3027  -30.8784   25.4090 C   0  0  1  0  0  0  0  0  0  0  0  0
  -24.0811  -31.0133   21.6187 C   0  0  1  0  0  0  0  0  0  0  0  0
  -30.5450  -15.3481   19.4066 C   0  0  2  0  0  0  0  0  0  0  0  0
  -29.0669  -26.1704   19.0590 C   0  0  1  0  0  0  0  0  0  1  0  0
  -20.1297  -29.6397   15.0993 C   0  0  0  0  0  0  0  0  0  0  0  0
  -20.2180  -28.4762   21.6192 C   0  0  0  0  0  0  0  0  0  0  0  0
  -19.2612  -27.9677   19.3621 C   0  0  0  0  0  0  0  0  0  0  0  0
  -19.0462  -30.2618   20.3180 C   0  0  0  0  0  0  0  0  0  0  0  0
  -23.7382  -30.8166   15.3633 C   0  0  0  0  0  0  0  0  0  0  0  0
  -21.3014  -29.4679   19.4959 C   0  0  1  0  0  0  0  0  0  0  0  0
  -21.3435  -30.2461   15.7861 C   0  0  2  0  0  0  0  0  0  0  0  0
  -19.9846  -29.0407   20.2036 C   0  0  0  0  0  0  0  0  0  0  0  0
  -28.4969  -14.1325   20.0460 N   0  0  0  0  0  0  0  0  0  0  0  0
  -29.5841  -14.1834   19.2577 N   0  0  0  0  0  0  0  0  0  0  0  0
  -29.2381  -23.9031   18.4812 N   0  0  0  0  0  0  0  0  0  0  0  0
  -23.3640  -30.1419   20.6856 N   0  0  0  0  0  0  0  0  0  0  0  0
  -30.7945  -17.7403   19.9407 N   0  0  0  0  0  0  0  0  0  0  0  0
  -30.7168  -13.0314   17.5255 N   0  0  0  0  0  0  0  0  0  0  0  0
  -27.1050  -10.4372   18.3135 N   0  0  0  0  0  0  0  0  0  0  0  0
  -29.7469  -19.0553   18.2866 N   0  0  0  0  0  0  0  0  0  0  0  0
  -24.4093  -31.2231   24.0075 N   0  0  0  0  0  0  0  0  0  0  0  0
  -21.1083  -30.0314   18.1641 N   0  0  0  0  0  0  0  0  0  0  0  0
  -22.4840  -30.2282   14.8270 N   0  3  0  0  0  0  0  0  0  0  0  0
  -30.9764  -23.3413   20.0147 O   0  0  0  0  0  0  0  0  0  0  0  0
  -29.0069  -10.6467   17.0496 O   0  0  0  0  0  0  0  0  0  0  0  0
  -23.2004  -29.4336   23.1366 O   0  0  0  0  0  0  0  0  0  0  0  0
  -21.5429  -31.5895   20.5289 O   0  0  0  0  0  0  0  0  0  0  0  0
  -22.4354  -28.4953   17.0431 O   0  0  0  0  0  0  0  0  0  0  0  0
  -31.6381  -19.8211   19.3905 O   0  0  0  0  0  0  0  0  0  0  0  0
  -23.1131  -11.4050   22.0769 O   0  0  0  0  0  0  0  0  0  0  0  0
  -28.0818  -26.2130   20.0863 O   0  0  0  0  0  0  0  0  0  1  0  0
  -19.0422   -9.6622   18.7915 F   0  0  0  0  0  0  0  0  0  0  0  0
  -27.6953  -18.9857   16.4008 F   0  0  0  0  0  0  0  0  0  0  0  0
  -20.6662  -12.6913   22.0461 F   0  0  0  0  0  0  0  0  0  0  0  0
  1  2  1  0  0  0  0
  1  5  2  0  0  0  0
  2  6  2  0  0  0  0
  3  9  2  0  0  0  0
  3 18  1  0  0  0  0
  4 10  1  0  0  0  0
  4 18  2  0  0  0  0
  5 20  1  0  0  0  0
  6 22  1  0  0  0  0
  7 11  2  0  0  0  0
  7 21  1  0  0  0  0
  8 13  2  0  0  0  0
  8 24  1  0  0  0  0
  9 26  1  0  0  0  0
 10 26  2  0  0  0  0
 11 27  1  0  0  0  0
 12 14  2  0  0  0  0
 12 28  1  0  0  0  0
 13 30  1  0  0  0  0
 14 29  1  0  0  0  0
 15 23  1  0  0  0  0
 15 27  2  0  0  0  0
 16 24  2  0  0  0  0
 16 25  1  0  0  0  0
 17 29  2  0  0  0  0
 17 31  1  0  0  0  0
 18 32  1  0  0  0  0
 19 32  1  0  0  0  0
 19 33  2  0  0  0  0
 19 35  1  0  0  0  0
 20 22  2  0  0  0  0
 20 40  1  0  0  0  0
 21 23  2  0  0  0  0
 21 41  1  0  0  0  0
 22 51  1  0  0  0  0
 23 42  1  0  0  0  0
 24 65  1  0  0  0  0
 25 30  2  0  0  0  0
 25 70  1  0  0  0  0
 26 80  1  0  0  0  0
 27 81  1  0  0  0  0
 28 31  2  0  0  0  0
 28 80  1  0  0  0  0
 29 82  1  0  0  0  0
 30 83  1  0  0  0  0
 31 84  1  0  0  0  0
 32 63  2  0  0  0  0
 33 64  1  0  0  0  0
 33 68  1  0  0  0  0
 34 43  1  0  0  0  0
 34 65  1  0  0  0  0
 34 74  2  0  0  0  0
 35 69  1  0  0  0  0
 35 75  2  0  0  0  0
 36 52  1  0  0  0  0
 36 71  1  0  0  0  0
 36 76  2  0  0  0  0
 37 60  1  0  0  0  0
 37 66  1  0  0  0  0
 37 77  2  0  0  0  0
 38 61  1  0  0  0  0
 38 72  1  0  0  0  0
 38 78  2  0  0  0  0
 39 67  1  0  0  0  0
 39 70  1  0  0  0  0
 39 79  2  0  0  0  0
 40 44  1  0  0  0  0
 41 52  1  0  0  0  0
 42 66  1  0  0  0  0
 43 54  1  0  0  0  0
 44 46  1  0  0  0  0
 45 47  1  0  0  0  0
 45 48  1  0  0  0  0
 46 51  1  0  0  0  0
 47 53  1  0  0  0  0
 48 67  1  0  0  0  0
 49 53  1  0  0  0  0
 49 67  1  0  0  0  0
 50 54  1  0  0  0  0
 50 65  1  0  0  0  0
 51 71  1  0  0  0  0
 52 66  1  0  0  0  0
 53 64  1  0  0  0  0
 54 81  1  0  0  0  0
 55 61  1  0  0  0  0
 56 62  1  0  0  0  0
 57 62  1  0  0  0  0
 58 62  1  0  0  0  0
 59 73  1  0  0  0  0
 60 62  1  0  0  0  0
 60 72  1  0  0  0  0
 61 73  1  0  0  0  0
 63 64  1  0  0  0  0
M  CHG  1  73   1
M  ISO  4  39 100  54 101  70 100  81 101
M  END
> <Batch ID>
0028

> <Smiles>
CNC(C)C(=O)NC(C(=O)N1Cc2cc([101O:1][101CH:1]3CC(=O)N(c4ccc(F)c([100NH:0][100C:0](=O)N5CCCC(n6nc(-c7ccc(Oc8ccc(F)cc8F)cc7)c(C(N)=O)c6N)C5)c4)C3)ccc2CC1C(=O)NC1CCCc2ccccc21)C(C)(C)C

> <Shape>
0.299

> <Color>
0.076

> <Negative vol penalty>
0.000

$$$$

  -OEChem-04042321313D

 83 92  0     1  0  0  0  0  0999 V2000
  -29.6812  -11.7766   19.2856 C   0  0  0  0  0  0  0  0  0  0  0  0
  -28.9728  -12.3541   18.2368 C   0  0  0  0  0  0  0  0  0  0  0  0
  -17.8765  -21.7724   19.2380 C   0  0  0  0  0  0  0  0  0  0  0  0
  -25.5277  -30.9144   23.7061 C   0  0  0  0  0  0  0  0  0  0  0  0
  -26.2283  -28.6040   23.7973 C   0  0  0  0  0  0  0  0  0  0  0  0
  -29.6381  -12.3521   20.5548 C   0  0  0  0  0  0  0  0  0  0  0  0
  -28.2199  -13.5070   18.4568 C   0  0  0  0  0  0  0  0  0  0  0  0
  -26.1061  -19.5074   15.1638 C   0  0  0  0  0  0  0  0  0  0  0  0
  -18.6555  -21.4679   18.1218 C   0  0  0  0  0  0  0  0  0  0  0  0
  -18.0929  -22.9603   19.9366 C   0  0  0  0  0  0  0  0  0  0  0  0
  -26.5756  -31.2658   24.5569 C   0  0  0  0  0  0  0  0  0  0  0  0
  -27.2763  -28.9554   24.6481 C   0  0  0  0  0  0  0  0  0  0  0  0
  -24.9480  -20.2308   14.8824 C   0  0  0  0  0  0  0  0  0  0  0  0
  -30.3462  -30.3416   24.3750 C   0  0  0  0  0  0  0  0  0  0  0  0
  -31.6037  -29.7992   24.1100 C   0  0  0  0  0  0  0  0  0  0  0  0
  -25.0113  -21.1823   17.0982 C   0  0  0  0  0  0  0  0  0  0  0  0
  -31.6120  -28.7542   26.2883 C   0  0  0  0  0  0  0  0  0  0  0  0
  -25.3539  -29.5835   23.3264 C   0  0  0  0  0  0  0  0  0  0  0  0
  -24.2972  -29.1719   21.0413 C   0  0  0  0  0  0  0  0  0  0  0  0
  -28.8921  -13.5182   20.7882 C   0  0  0  0  0  0  0  0  0  0  0  0
  -26.7204  -19.6078   16.4204 C   0  0  0  0  0  0  0  0  0  0  0  0
  -28.1657  -14.0979   19.7306 C   0  0  0  0  0  0  0  0  0  0  0  0
  -26.1785  -20.4611   17.3922 C   0  0  0  0  0  0  0  0  0  0  0  0
  -19.8676  -23.5390   18.4028 C   0  0  0  0  0  0  0  0  0  0  0  0
  -19.6511  -22.3512   17.7042 C   0  0  0  0  0  0  0  0  0  0  0  0
  -19.0884  -23.8435   19.5190 C   0  0  0  0  0  0  0  0  0  0  0  0
  -27.4500  -30.2863   25.0279 C   0  0  0  0  0  0  0  0  0  0  0  0
  -24.3988  -21.0662   15.8506 C   0  0  0  0  0  0  0  0  0  0  0  0
  -29.7216  -30.0903   25.5966 C   0  0  0  0  0  0  0  0  0  0  0  0
  -32.2365  -29.0055   25.0666 C   0  0  0  0  0  0  0  0  0  0  0  0
  -30.3545  -29.2966   26.5533 C   0  0  0  0  0  0  0  0  0  0  0  0
  -24.2712  -29.2198   22.4480 C   0  0  0  0  0  0  0  0  0  0  0  0
  -23.0313  -28.7732   20.6878 C   0  0  0  0  0  0  0  0  0  0  0  0
  -25.3698  -29.4619   20.1351 C   0  0  0  0  0  0  0  0  0  0  0  0
  -27.3435  -17.5731   18.7816 C   0  0  0  0  0  0  0  0  0  0  0  0
  -28.9245  -20.1146   20.0319 C   0  0  0  0  0  0  0  0  0  0  0  0
  -29.3063  -23.5028   20.1784 C   0  0  0  0  0  0  0  0  0  0  0  0
  -18.5935  -25.4800   21.3692 C   0  0  0  0  0  0  0  0  0  0  0  0
  -28.8378  -14.0771   22.1880 C   0  0  0  0  0  0  0  0  0  0  0  0
  -27.9842  -18.8413   16.6990 C   0  0  0  0  0  0  0  0  0  0  0  0
  -26.8111  -20.6197   18.7498 C   0  0  0  0  0  0  0  0  0  0  0  0
  -28.3177  -15.5109   22.2515 C   0  0  0  0  0  0  0  0  0  0  0  0
  -18.8158  -28.3545   23.4584 C   0  0  0  0  0  0  0  0  0  0  0  0
  -27.0620  -15.6616   21.3987 C   0  0  0  0  0  0  0  0  0  0  0  0
  -20.2570  -28.8320   23.2661 C   0  0  0  0  0  0  0  0  0  0  0  0
  -21.1824  -21.9533   14.3730 C   0  0  0  0  0  0  0  0  0  0  0  0
  -18.7176  -26.8300   23.4517 C   0  0  0  0  0  0  0  0  0  0  0  0
  -20.4754  -22.8496   15.3897 C   0  0  0  0  0  0  0  0  0  0  0  0
  -20.7656  -26.6514   22.0941 C   0  0  0  0  0  0  0  0  0  0  0  0
  -21.2493  -20.8380   16.4966 C   0  0  0  0  0  0  0  0  0  0  0  0
  -27.3575  -15.3627   19.9240 C   0  0  1  0  0  0  0  0  0  0  0  0
  -28.2363  -18.6258   18.1881 C   0  0  1  0  0  0  0  0  0  0  0  0
  -20.9059  -28.1810   22.0288 C   0  0  2  0  0  0  0  0  0  0  0  0
  -22.0774  -21.0742   15.2342 C   0  0  2  0  0  0  0  0  0  1  0  0
  -20.9358  -24.4873   17.9537 C   0  0  0  0  0  0  0  0  0  0  0  0
  -30.6547  -25.2857   21.3187 C   0  0  0  0  0  0  0  0  0  0  0  0
  -27.2864  -19.7230   22.5761 C   0  0  0  0  0  0  0  0  0  0  0  0
  -27.9597  -22.0289   23.2814 C   0  0  0  0  0  0  0  0  0  0  0  0
  -29.6968  -20.2675   22.9608 C   0  0  0  0  0  0  0  0  0  0  0  0
  -30.4043  -24.4782   17.6091 C   0  0  0  0  0  0  0  0  0  0  0  0
  -28.5539  -21.2640   20.9377 C   0  0  1  0  0  0  0  0  0  0  0  0
  -30.5417  -24.3815   20.1012 C   0  0  2  0  0  0  0  0  0  0  0  0
  -28.3609  -20.8166   22.4142 C   0  0  0  0  0  0  0  0  0  0  0  0
  -23.0829  -28.8789   22.9536 N   0  0  0  0  0  0  0  0  0  0  0  0
  -22.3504  -28.6131   21.8587 N   0  0  0  0  0  0  0  0  0  0  0  0
  -20.4098  -22.0324   16.5976 N   0  0  3  0  0  0  0  0  0  0  0  0
  -28.0420  -19.8444   18.9764 N   0  0  0  0  0  0  0  0  0  0  0  0
  -19.3493  -26.2839   22.2486 N   0  0  0  0  0  0  0  0  0  0  0  0
  -22.4452  -28.5476   19.4928 N   0  0  0  0  0  0  0  0  0  0  0  0
  -26.6047  -29.8581   20.6664 N   0  0  0  0  0  0  0  0  0  0  0  0
  -19.2908  -25.0448   20.2427 N   0  0  0  0  0  0  0  0  0  0  0  0
  -28.0224  -16.4885   19.3035 N   0  0  0  0  0  0  0  0  0  0  0  0
  -29.5845  -22.2796   20.7509 N   0  0  0  0  0  0  0  0  0  0  0  0
  -30.4927  -25.2380   18.8826 N   0  3  0  0  0  0  0  0  0  0  0  0
  -25.2322  -29.3881   18.8904 O   0  0  0  0  0  0  0  0  0  0  0  0
  -26.1287  -17.7336   18.7684 O   0  0  0  0  0  0  0  0  0  0  0  0
  -29.9626  -19.4844   20.2484 O   0  0  0  0  0  0  0  0  0  0  0  0
  -28.2038  -23.8665   19.7750 O   0  0  0  0  0  0  0  0  0  0  0  0
  -17.4067  -25.2210   21.5847 O   0  0  0  0  0  0  0  0  0  0  0  0
  -28.4729  -30.6288   25.8579 O   0  0  0  0  0  0  0  0  0  0  0  0
  -23.2681  -21.7730   15.5788 O   0  0  0  0  0  0  0  0  0  1  0  0
  -33.4434  -28.4835   24.8114 F   0  0  0  0  0  0  0  0  0  0  0  0
  -29.7589  -29.0507   27.7283 F   0  0  0  0  0  0  0  0  0  0  0  0
  1  2  1  0  0  0  0
  1  6  2  0  0  0  0
  2  7  2  0  0  0  0
  3  9  2  0  0  0  0
  3 10  1  0  0  0  0
  4 11  2  0  0  0  0
  4 18  1  0  0  0  0
  5 12  1  0  0  0  0
  5 18  2  0  0  0  0
  6 20  1  0  0  0  0
  7 22  1  0  0  0  0
  8 13  2  0  0  0  0
  8 21  1  0  0  0  0
  9 25  1  0  0  0  0
 10 26  2  0  0  0  0
 11 27  1  0  0  0  0
 12 27  2  0  0  0  0
 13 28  1  0  0  0  0
 14 15  2  0  0  0  0
 14 29  1  0  0  0  0
 15 30  1  0  0  0  0
 16 23  1  0  0  0  0
 16 28  2  0  0  0  0
 17 30  2  0  0  0  0
 17 31  1  0  0  0  0
 18 32  1  0  0  0  0
 19 32  1  0  0  0  0
 19 33  2  0  0  0  0
 19 34  1  0  0  0  0
 20 22  2  0  0  0  0
 20 39  1  0  0  0  0
 21 23  2  0  0  0  0
 21 40  1  0  0  0  0
 22 51  1  0  0  0  0
 23 41  1  0  0  0  0
 24 25  2  0  0  0  0
 24 26  1  0  0  0  0
 24 55  1  0  0  0  0
 25 66  1  0  0  0  0
 26 71  1  0  0  0  0
 27 80  1  0  0  0  0
 28 81  1  0  0  0  0
 29 31  2  0  0  0  0
 29 80  1  0  0  0  0
 30 82  1  0  0  0  0
 31 83  1  0  0  0  0
 32 64  2  0  0  0  0
 33 65  1  0  0  0  0
 33 69  1  0  0  0  0
 34 70  1  0  0  0  0
 34 75  2  0  0  0  0
 35 52  1  0  0  0  0
 35 72  1  0  0  0  0
 35 76  2  0  0  0  0
 36 61  1  0  0  0  0
 36 67  1  0  0  0  0
 36 77  2  0  0  0  0
 37 62  1  0  0  0  0
 37 73  1  0  0  0  0
 37 78  2  0  0  0  0
 38 68  1  0  0  0  0
 38 71  1  0  0  0  0
 38 79  2  0  0  0  0
 39 42  1  0  0  0  0
 40 52  1  0  0  0  0
 41 67  1  0  0  0  0
 42 44  1  0  0  0  0
 43 45  1  0  0  0  0
 43 47  1  0  0  0  0
 44 51  1  0  0  0  0
 45 53  1  0  0  0  0
 46 48  1  0  0  0  0
 46 54  1  0  0  0  0
 47 68  1  0  0  0  0
 48 66  1  0  0  0  0
 49 53  1  0  0  0  0
 49 68  1  0  0  0  0
 50 54  1  0  0  0  0
 50 66  1  0  0  0  0
 51 72  1  0  0  0  0
 52 67  1  0  0  0  0
 53 65  1  0  0  0  0
 54 81  1  0  0  0  0
 56 62  1  0  0  0  0
 57 63  1  0  0  0  0
 58 63  1  0  0  0  0
 59 63  1  0  0  0  0
 60 74  1  0  0  0  0
 61 63  1  0  0  0  0
 61 73  1  0  0  0  0
 62 74  1  0  0  0  0
 64 65  1  0  0  0  0
M  CHG  1  74   1
M  ISO  4  38 100  54 101  71 100  81 101
M  END
> <Batch ID>
0028

> <Smiles>
CNC(C)C(=O)NC(C(=O)N1Cc2cc([101O:1][101CH:1]3CCN(c4cccc([100NH:0][100C:0](=O)N5CCCC(n6nc(-c7ccc(Oc8ccc(F)cc8F)cc7)c(C(N)=O)c6N)C5)c4C)C3)ccc2CC1C(=O)NC1CCCc2ccccc21)C(C)(C)C

> <Shape>
0.241

> <Color>
0.057

> <Negative vol penalty>
0.000

$$$$

  -OEChem-04042321313D

 86 95  0     1  0  0  0  0  0999 V2000
  -30.7476  -29.8098   27.4519 C   0  0  0  0  0  0  0  0  0  0  0  0
  -31.4547  -28.9722   26.5952 C   0  0  0  0  0  0  0  0  0  0  0  0
  -23.0783   -9.8642   19.9455 C   0  0  0  0  0  0  0  0  0  0  0  0
  -23.8339   -9.8806   22.2403 C   0  0  0  0  0  0  0  0  0  0  0  0
  -29.3589  -29.7139   27.5297 C   0  0  0  0  0  0  0  0  0  0  0  0
  -30.7733  -28.0375   25.8165 C   0  0  0  0  0  0  0  0  0  0  0  0
  -32.2303  -26.1955   20.1605 C   0  0  0  0  0  0  0  0  0  0  0  0
  -22.3346   -8.7116   20.1986 C   0  0  0  0  0  0  0  0  0  0  0  0
  -23.0901   -8.7281   22.4934 C   0  0  0  0  0  0  0  0  0  0  0  0
  -32.9074  -25.0735   19.6847 C   0  0  0  0  0  0  0  0  0  0  0  0
  -19.8612   -7.9309   23.0930 C   0  0  0  0  0  0  0  0  0  0  0  0
  -19.1021   -7.8952   24.2626 C   0  0  0  0  0  0  0  0  0  0  0  0
  -30.7970  -23.9684   19.3048 C   0  0  0  0  0  0  0  0  0  0  0  0
  -31.1525  -17.6828   20.5792 C   0  0  0  0  0  0  0  0  0  0  0  0
  -29.6994  -19.2958   22.3312 C   0  0  0  0  0  0  0  0  0  0  0  0
  -20.3431   -5.9614   25.0090 C   0  0  0  0  0  0  0  0  0  0  0  0
  -23.8280  -10.4487   20.9664 C   0  0  0  0  0  0  0  0  0  0  0  0
  -24.1688  -12.9735   20.8370 C   0  0  0  0  0  0  0  0  0  0  0  0
  -28.6593  -28.7841   26.7444 C   0  0  0  0  0  0  0  0  0  0  0  0
  -30.8294  -26.2083   20.2223 C   0  0  0  0  0  0  0  0  0  0  0  0
  -29.3740  -27.9281   25.8848 C   0  0  0  0  0  0  0  0  0  0  0  0
  -30.1044  -25.0928   19.7794 C   0  0  0  0  0  0  0  0  0  0  0  0
  -31.3315  -19.0660   20.5647 C   0  0  0  0  0  0  0  0  0  0  0  0
  -29.5204  -17.9125   22.3457 C   0  0  0  0  0  0  0  0  0  0  0  0
  -30.2469  -17.1060   21.4697 C   0  0  0  0  0  0  0  0  0  0  0  0
  -22.3405   -8.1436   21.4726 C   0  0  0  0  0  0  0  0  0  0  0  0
  -32.1909  -23.9587   19.2594 C   0  0  0  0  0  0  0  0  0  0  0  0
  -20.8613   -6.9818   22.8813 C   0  0  0  0  0  0  0  0  0  0  0  0
  -19.3430   -6.9105   25.2206 C   0  0  0  0  0  0  0  0  0  0  0  0
  -30.6050  -19.8725   21.4407 C   0  0  0  0  0  0  0  0  0  0  0  0
  -21.1022   -5.9971   23.8394 C   0  0  0  0  0  0  0  0  0  0  0  0
  -24.5970  -11.6389   20.7054 C   0  0  0  0  0  0  0  0  0  0  0  0
  -25.2612  -13.7221   20.4729 C   0  0  0  0  0  0  0  0  0  0  0  0
  -22.8972  -13.4903   21.2515 C   0  0  0  0  0  0  0  0  0  0  0  0
  -28.6895  -26.4737   22.5578 C   0  0  0  0  0  0  0  0  0  0  0  0
  -26.5844  -26.5559   20.0912 C   0  0  0  0  0  0  0  0  0  0  0  0
  -25.8921  -25.7607   16.8454 C   0  0  0  0  0  0  0  0  0  0  0  0
  -30.7265  -14.7713   20.6538 C   0  0  0  0  0  0  0  0  0  0  0  0
  -27.1622  -28.6850   26.8977 C   0  0  0  0  0  0  0  0  0  0  0  0
  -30.1130  -27.4364   20.7131 C   0  0  0  0  0  0  0  0  0  0  0  0
  -28.5988  -25.0638   19.8064 C   0  0  0  0  0  0  0  0  0  0  0  0
  -26.4827  -27.9241   25.7622 C   0  0  0  0  0  0  0  0  0  0  0  0
  -29.6179  -12.3476   18.2930 C   0  0  0  0  0  0  0  0  0  0  0  0
  -35.5165  -20.3454   21.3392 C   0  0  0  0  0  0  0  0  0  0  0  0
  -27.2332  -26.6304   25.4624 C   0  0  0  0  0  0  0  0  0  0  0  0
  -28.1776  -12.0569   18.7210 C   0  0  0  0  0  0  0  0  0  0  0  0
  -35.7669  -20.7222   19.8902 C   0  0  0  0  0  0  0  0  0  0  0  0
  -30.5306  -12.5816   19.4955 C   0  0  0  0  0  0  0  0  0  0  0  0
  -28.6206  -13.3105   20.8702 C   0  0  0  0  0  0  0  0  0  0  0  0
  -34.1922  -19.6184   21.2736 C   0  0  0  0  0  0  0  0  0  0  0  0
  -28.6685  -26.9183   25.0058 C   0  0  1  0  0  0  0  0  0  0  0  0
  -28.7017  -27.1450   21.2136 C   0  0  1  0  0  0  0  0  0  0  0  0
  -27.6501  -13.1321   19.6912 C   0  0  2  0  0  0  0  0  0  0  0  0
  -34.3934  -21.1048   19.3391 C   0  0  2  0  0  0  0  0  0  0  0  0
  -28.5419  -17.3226   23.3088 C   0  0  0  0  0  0  0  0  0  0  0  0
  -24.0756  -25.9235   15.1218 C   0  0  0  0  0  0  0  0  0  0  0  0
  -25.0881  -24.2738   21.4561 C   0  0  0  0  0  0  0  0  0  0  0  0
  -23.8957  -23.8557   19.2947 C   0  0  0  0  0  0  0  0  0  0  0  0
  -23.6195  -26.0401   20.4673 C   0  0  0  0  0  0  0  0  0  0  0  0
  -27.5812  -27.4007   15.0520 C   0  0  0  0  0  0  0  0  0  0  0  0
  -32.3069  -19.6834   19.6064 C   0  0  0  0  0  0  0  0  0  0  0  0
  -34.1459  -22.6065   19.3338 C   0  0  0  0  0  0  0  0  0  1  0  0
  -25.8082  -25.5209   19.3132 C   0  0  1  0  0  0  0  0  0  0  0  0
  -25.3140  -26.5833   15.7081 C   0  0  2  0  0  0  0  0  0  0  0  0
  -24.6313  -24.9221   20.1340 C   0  0  0  0  0  0  0  0  0  0  0  0
  -25.8627  -11.5421   20.2899 N   0  0  0  0  0  0  0  0  0  0  0  0
  -26.2391  -12.8254   20.1572 N   0  0  0  0  0  0  0  0  0  0  0  0
  -27.9443  -26.2864   20.3007 N   0  0  0  0  0  0  0  0  0  0  0  0
  -29.9694  -13.6156   20.3677 N   0  0  0  0  0  0  0  0  0  0  0  0
  -25.4710  -15.0534   20.3950 N   0  0  0  0  0  0  0  0  0  0  0  0
  -21.8851  -12.5819   21.5904 N   0  0  0  0  0  0  0  0  0  0  0  0
  -30.0771  -15.6993   21.4673 N   0  0  0  0  0  0  0  0  0  0  0  0
  -28.6823  -27.3515   23.6250 N   0  0  0  0  0  0  0  0  0  0  0  0
  -25.4020  -26.1655   18.0690 N   0  0  0  0  0  0  0  0  0  0  0  0
  -33.3976  -20.4454   20.2900 N   0  3  1  0  0  0  0  0  0  0  0  0
  -26.3206  -26.7434   14.6208 N   0  3  0  0  0  0  0  0  0  0  0  0
  -22.6602  -14.7210   21.3035 O   0  0  0  0  0  0  0  0  0  0  0  0
  -28.6855  -25.2500   22.6220 O   0  0  0  0  0  0  0  0  0  0  0  0
  -26.0071  -27.5697   20.4920 O   0  0  0  0  0  0  0  0  0  0  0  0
  -26.6952  -24.8478   16.6660 O   0  0  0  0  0  0  0  0  0  0  0  0
  -31.8564  -14.9388   20.1877 O   0  0  0  0  0  0  0  0  0  0  0  0
  -21.6146   -7.0191   21.7200 O   0  0  0  0  0  0  0  0  0  0  0  0
  -32.8494  -22.8620   18.7952 O   0  0  0  0  0  0  0  0  0  1  0  0
  -18.6150   -6.8772   26.3445 F   0  0  0  0  0  0  0  0  0  0  0  0
  -30.7704  -21.2026   21.4339 F   0  0  0  0  0  0  0  0  0  0  0  0
  -22.0624   -5.0833   23.6422 F   0  0  0  0  0  0  0  0  0  0  0  0
  1  2  1  0  0  0  0
  1  5  2  0  0  0  0
  2  6  2  0  0  0  0
  3  8  2  0  0  0  0
  3 17  1  0  0  0  0
  4  9  1  0  0  0  0
  4 17  2  0  0  0  0
  5 19  1  0  0  0  0
  6 21  1  0  0  0  0
  7 10  2  0  0  0  0
  7 20  1  0  0  0  0
  8 26  1  0  0  0  0
  9 26  2  0  0  0  0
 10 27  1  0  0  0  0
 11 12  2  0  0  0  0
 11 28  1  0  0  0  0
 12 29  1  0  0  0  0
 13 22  1  0  0  0  0
 13 27  2  0  0  0  0
 14 23  1  0  0  0  0
 14 25  2  0  0  0  0
 15 24  2  0  0  0  0
 15 30  1  0  0  0  0
 16 29  2  0  0  0  0
 16 31  1  0  0  0  0
 17 32  1  0  0  0  0
 18 32  1  0  0  0  0
 18 33  2  0  0  0  0
 18 34  1  0  0  0  0
 19 21  2  0  0  0  0
 19 39  1  0  0  0  0
 20 22  2  0  0  0  0
 20 40  1  0  0  0  0
 21 51  1  0  0  0  0
 22 41  1  0  0  0  0
 23 30  2  0  0  0  0
 23 61  1  0  0  0  0
 24 25  1  0  0  0  0
 24 55  1  0  0  0  0
 25 72  1  0  0  0  0
 26 82  1  0  0  0  0
 27 83  1  0  0  0  0
 28 31  2  0  0  0  0
 28 82  1  0  0  0  0
 29 84  1  0  0  0  0
 30 85  1  0  0  0  0
 31 86  1  0  0  0  0
 32 66  2  0  0  0  0
 33 67  1  0  0  0  0
 33 70  1  0  0  0  0
 34 71  1  0  0  0  0
 34 77  2  0  0  0  0
 35 52  1  0  0  0  0
 35 73  1  0  0  0  0
 35 78  2  0  0  0  0
 36 63  1  0  0  0  0
 36 68  1  0  0  0  0
 36 79  2  0  0  0  0
 37 64  1  0  0  0  0
 37 74  1  0  0  0  0
 37 80  2  0  0  0  0
 38 69  1  0  0  0  0
 38 72  1  0  0  0  0
 38 81  2  0  0  0  0
 39 42  1  0  0  0  0
 40 52  1  0  0  0  0
 41 68  1  0  0  0  0
 42 45  1  0  0  0  0
 43 46  1  0  0  0  0
 43 48  1  0  0  0  0
 44 47  1  0  0  0  0
 44 50  1  0  0  0  0
 45 51  1  0  0  0  0
 46 53  1  0  0  0  0
 47 54  1  0  0  0  0
 48 69  1  0  0  0  0
 49 53  1  0  0  0  0
 49 69  1  0  0  0  0
 50 75  1  0  0  0  0
 51 73  1  0  0  0  0
 52 68  1  0  0  0  0
 53 67  1  0  0  0  0
 54 62  1  0  0  0  0
 54 75  1  0  0  0  0
 56 64  1  0  0  0  0
 57 65  1  0  0  0  0
 58 65  1  0  0  0  0
 59 65  1  0  0  0  0
 60 76  1  0  0  0  0
 61 75  1  0  0  0  0
 62 83  1  0  0  0  0
 63 65  1  0  0  0  0
 63 74  1  0  0  0  0
 64 76  1  0  0  0  0
 66 67  1  0  0  0  0
M  CHG  2  75   1  76   1
M  ISO  4  38 100  62 101  72 100  83 101
M  END
> <Batch ID>
0028

> <Smiles>
CNC(C)C(=O)NC(C(=O)N1Cc2cc([101O:1][101CH2:1]C3CCCN3Cc3cc([100NH:0][100C:0](=O)N4CCCC(n5nc(-c6ccc(Oc7ccc(F)cc7F)cc6)c(C(N)=O)c5N)C4)c(C)cc3F)ccc2CC1C(=O)NC1CCCc2ccccc21)C(C)(C)C

> <Shape>
0.249

> <Color>
0.188

> <Negative vol penalty>
0.000

$$$$

  -OEChem-04042321313D

 84 93  0     1  0  0  0  0  0999 V2000
  -20.1548  -32.8012   15.3652 C   0  0  0  0  0  0  0  0  0  0  0  0
  -21.1240  -31.8116   15.4946 C   0  0  0  0  0  0  0  0  0  0  0  0
  -23.1727  -12.3616   23.8031 C   0  0  0  0  0  0  0  0  0  0  0  0
  -24.6741  -10.6375   23.0219 C   0  0  0  0  0  0  0  0  0  0  0  0
  -20.2136  -33.9417   16.1650 C   0  0  0  0  0  0  0  0  0  0  0  0
  -22.1532  -31.9624   16.4233 C   0  0  0  0  0  0  0  0  0  0  0  0
  -24.8502  -27.5335   19.6816 C   0  0  0  0  0  0  0  0  0  0  0  0
  -30.3098  -21.7151   20.1404 C   0  0  0  0  0  0  0  0  0  0  0  0
  -30.2183  -20.4135   20.6336 C   0  0  0  0  0  0  0  0  0  0  0  0
  -22.5033  -11.4230   24.5883 C   0  0  0  0  0  0  0  0  0  0  0  0
  -24.0048   -9.6989   23.8072 C   0  0  0  0  0  0  0  0  0  0  0  0
  -26.0426  -26.8329   19.5053 C   0  0  0  0  0  0  0  0  0  0  0  0
  -21.1433   -7.9051   23.6494 C   0  0  0  0  0  0  0  0  0  0  0  0
  -20.8326   -6.6763   23.0670 C   0  0  0  0  0  0  0  0  0  0  0  0
  -27.1552  -28.3619   21.0031 C   0  0  0  0  0  0  0  0  0  0  0  0
  -27.9041  -21.8080   19.9388 C   0  0  0  0  0  0  0  0  0  0  0  0
  -22.1549   -5.5470   24.7443 C   0  0  0  0  0  0  0  0  0  0  0  0
  -24.2580  -11.9689   23.0198 C   0  0  0  0  0  0  0  0  0  0  0  0
  -24.4068  -13.7205   21.1713 C   0  0  0  0  0  0  0  0  0  0  0  0
  -21.2386  -34.1022   17.1107 C   0  0  0  0  0  0  0  0  0  0  0  0
  -24.8038  -28.6619   20.5128 C   0  0  0  0  0  0  0  0  0  0  0  0
  -22.2265  -33.1068   17.2355 C   0  0  0  0  0  0  0  0  0  0  0  0
  -25.9604  -29.0735   21.1903 C   0  0  0  0  0  0  0  0  0  0  0  0
  -29.1527  -22.4124   19.7931 C   0  0  0  0  0  0  0  0  0  0  0  0
  -28.9696  -19.8092   20.7792 C   0  0  0  0  0  0  0  0  0  0  0  0
  -22.9194  -10.0916   24.5904 C   0  0  0  0  0  0  0  0  0  0  0  0
  -27.1961  -27.2488   20.1638 C   0  0  0  0  0  0  0  0  0  0  0  0
  -21.9598   -7.9549   24.7792 C   0  0  0  0  0  0  0  0  0  0  0  0
  -21.3384   -5.4973   23.6145 C   0  0  0  0  0  0  0  0  0  0  0  0
  -27.8125  -20.5064   20.4318 C   0  0  0  0  0  0  0  0  0  0  0  0
  -22.4656   -6.7758   25.3267 C   0  0  0  0  0  0  0  0  0  0  0  0
  -24.9494  -12.9379   22.2080 C   0  0  0  0  0  0  0  0  0  0  0  0
  -25.4634  -14.4734   20.7204 C   0  0  0  0  0  0  0  0  0  0  0  0
  -30.4270  -24.4821   19.0854 C   0  0  0  0  0  0  0  0  0  0  0  0
  -23.0675  -13.7632   20.6614 C   0  0  0  0  0  0  0  0  0  0  0  0
  -24.1527  -31.7427   20.0784 C   0  0  0  0  0  0  0  0  0  0  0  0
  -24.4057  -31.8512   23.3105 C   0  0  0  0  0  0  0  0  0  0  0  0
  -25.6679  -30.4724   26.1658 C   0  0  0  0  0  0  0  0  0  0  0  0
  -29.9312  -17.6579   21.6700 C   0  0  0  0  0  0  0  0  0  0  0  0
  -21.2873  -35.3741   17.9197 C   0  0  0  0  0  0  0  0  0  0  0  0
  -23.5034  -29.3908   20.7133 C   0  0  0  0  0  0  0  0  0  0  0  0
  -25.9587  -30.2665   22.1096 C   0  0  0  0  0  0  0  0  0  0  0  0
  -30.0384  -25.7955   18.4429 C   0  0  0  0  0  0  0  0  0  0  0  0
  -22.1985  -35.2845   19.1412 C   0  0  0  0  0  0  0  0  0  0  0  0
  -30.4145  -14.1306   21.7161 C   0  0  0  0  0  0  0  0  0  0  0  0
  -23.5355  -34.6539   18.7648 C   0  0  0  0  0  0  0  0  0  0  0  0
  -28.9911  -13.5702   21.7629 C   0  0  0  0  0  0  0  0  0  0  0  0
  -30.5468  -15.4120   22.5373 C   0  0  0  0  0  0  0  0  0  0  0  0
  -28.1481  -15.9004   22.2596 C   0  0  0  0  0  0  0  0  0  0  0  0
  -28.0776  -24.4830   18.8415 C   0  0  0  0  0  0  0  0  0  0  0  0
  -23.3446  -33.2226   18.2488 C   0  0  1  0  0  0  0  0  0  0  0  0
  -23.6916  -30.8310   21.1801 C   0  0  1  0  0  0  0  0  0  0  0  0
  -27.9499  -14.6452   21.3943 C   0  0  2  0  0  0  0  0  0  0  0  0
  -28.5552  -25.9184   18.7405 C   0  0  1  0  0  0  0  0  0  1  0  0
  -25.7345  -30.8061   28.6520 C   0  0  0  0  0  0  0  0  0  0  0  0
  -26.4300  -34.1058   22.9512 C   0  0  0  0  0  0  0  0  0  0  0  0
  -27.1476  -33.7455   25.3226 C   0  0  0  0  0  0  0  0  0  0  0  0
  -24.8072  -34.4493   24.8228 C   0  0  0  0  0  0  0  0  0  0  0  0
  -24.3461  -27.8723   26.6669 C   0  0  0  0  0  0  0  0  0  0  0  0
  -25.5322  -32.0872   24.2874 C   0  0  1  0  0  0  0  0  0  0  0  0
  -25.0158  -30.1321   27.4937 C   0  0  2  0  0  0  0  0  0  0  0  0
  -25.9801  -33.5756   24.3272 C   0  0  0  0  0  0  0  0  0  0  0  0
  -26.2497  -13.1718   22.4042 N   0  0  0  0  0  0  0  0  0  0  0  0
  -26.5331  -14.1099   21.4846 N   0  0  0  0  0  0  0  0  0  0  0  0
  -29.2463  -23.7443   19.2878 N   0  0  0  0  0  0  0  0  0  0  0  0
  -24.6644  -30.9500   22.2681 N   0  0  0  0  0  0  0  0  0  0  0  0
  -29.5312  -16.3854   22.1301 N   0  0  0  0  0  0  0  0  0  0  0  0
  -25.5726  -15.4043   19.7489 N   0  0  0  0  0  0  0  0  0  0  0  0
  -22.7248  -12.9012   19.6107 N   0  0  0  0  0  0  0  0  0  0  0  0
  -28.8798  -18.4867   21.2799 N   0  0  0  0  0  0  0  0  0  0  0  0
  -23.1244  -32.3126   19.3524 N   0  0  0  0  0  0  0  0  0  0  0  0
  -25.0752  -31.5662   25.5711 N   0  0  0  0  0  0  0  0  0  0  0  0
  -25.0386  -28.6592   27.7196 N   0  3  0  0  0  0  0  0  0  0  0  0
  -31.5918  -24.1771   19.2979 O   0  0  0  0  0  0  0  0  0  0  0  0
  -22.2049  -14.5542   21.1128 O   0  0  0  0  0  0  0  0  0  0  0  0
  -25.3526  -31.9173   19.9012 O   0  0  0  0  0  0  0  0  0  0  0  0
  -23.3333  -32.4393   23.4707 O   0  0  0  0  0  0  0  0  0  0  0  0
  -26.6114  -29.8342   25.7040 O   0  0  0  0  0  0  0  0  0  0  0  0
  -31.1205  -17.9781   21.5996 O   0  0  0  0  0  0  0  0  0  0  0  0
  -22.2667   -9.1755   25.3567 O   0  0  0  0  0  0  0  0  0  0  0  0
  -28.3615  -26.5672   19.9931 O   0  0  0  0  0  0  0  0  0  1  0  0
  -21.0388   -4.3172   23.0560 F   0  0  0  0  0  0  0  0  0  0  0  0
  -26.6070  -19.9350   20.5662 F   0  0  0  0  0  0  0  0  0  0  0  0
  -23.2496   -6.8173   26.4127 F   0  0  0  0  0  0  0  0  0  0  0  0
  1  2  1  0  0  0  0
  1  5  2  0  0  0  0
  2  6  2  0  0  0  0
  3 10  2  0  0  0  0
  3 18  1  0  0  0  0
  4 11  1  0  0  0  0
  4 18  2  0  0  0  0
  5 20  1  0  0  0  0
  6 22  1  0  0  0  0
  7 12  2  0  0  0  0
  7 21  1  0  0  0  0
  8  9  2  0  0  0  0
  8 24  1  0  0  0  0
  9 25  1  0  0  0  0
 10 26  1  0  0  0  0
 11 26  2  0  0  0  0
 12 27  1  0  0  0  0
 13 14  2  0  0  0  0
 13 28  1  0  0  0  0
 14 29  1  0  0  0  0
 15 23  1  0  0  0  0
 15 27  2  0  0  0  0
 16 24  2  0  0  0  0
 16 30  1  0  0  0  0
 17 29  2  0  0  0  0
 17 31  1  0  0  0  0
 18 32  1  0  0  0  0
 19 32  1  0  0  0  0
 19 33  2  0  0  0  0
 19 35  1  0  0  0  0
 20 22  2  0  0  0  0
 20 40  1  0  0  0  0
 21 23  2  0  0  0  0
 21 41  1  0  0  0  0
 22 51  1  0  0  0  0
 23 42  1  0  0  0  0
 24 65  1  0  0  0  0
 25 30  2  0  0  0  0
 25 70  1  0  0  0  0
 26 80  1  0  0  0  0
 27 81  1  0  0  0  0
 28 31  2  0  0  0  0
 28 80  1  0  0  0  0
 29 82  1  0  0  0  0
 30 83  1  0  0  0  0
 31 84  1  0  0  0  0
 32 63  2  0  0  0  0
 33 64  1  0  0  0  0
 33 68  1  0  0  0  0
 34 43  1  0  0  0  0
 34 65  1  0  0  0  0
 34 74  2  0  0  0  0
 35 69  1  0  0  0  0
 35 75  2  0  0  0  0
 36 52  1  0  0  0  0
 36 71  1  0  0  0  0
 36 76  2  0  0  0  0
 37 60  1  0  0  0  0
 37 66  1  0  0  0  0
 37 77  2  0  0  0  0
 38 61  1  0  0  0  0
 38 72  1  0  0  0  0
 38 78  2  0  0  0  0
 39 67  1  0  0  0  0
 39 70  1  0  0  0  0
 39 79  2  0  0  0  0
 40 44  1  0  0  0  0
 41 52  1  0  0  0  0
 42 66  1  0  0  0  0
 43 54  1  0  0  0  0
 44 46  1  0  0  0  0
 45 47  1  0  0  0  0
 45 48  1  0  0  0  0
 46 51  1  0  0  0  0
 47 53  1  0  0  0  0
 48 67  1  0  0  0  0
 49 53  1  0  0  0  0
 49 67  1  0  0  0  0
 50 54  1  0  0  0  0
 50 65  1  0  0  0  0
 51 71  1  0  0  0  0
 52 66  1  0  0  0  0
 53 64  1  0  0  0  0
 54 81  1  0  0  0  0
 55 61  1  0  0  0  0
 56 62  1  0  0  0  0
 57 62  1  0  0  0  0
 58 62  1  0  0  0  0
 59 73  1  0  0  0  0
 60 62  1  0  0  0  0
 60 72  1  0  0  0  0
 61 73  1  0  0  0  0
 63 64  1  0  0  0  0
M  CHG  1  73   1
M  ISO  4  39 100  54 101  70 100  81 101
M  END
> <Batch ID>
0028

> <Smiles>
CNC(C)C(=O)NC(C(=O)N1Cc2cc([101O:1][101CH:1]3CC(=O)N(c4ccc([100NH:0][100C:0](=O)N5CCCC(n6nc(-c7ccc(Oc8ccc(F)cc8F)cc7)c(C(N)=O)c6N)C5)c(F)c4)C3)ccc2CC1C(=O)NC1CCCc2ccccc21)C(C)(C)C

> <Shape>
0.310

> <Color>
0.116

> <Negative vol penalty>
0.000

$$$$

  -OEChem-04042321313D

 87 96  0     1  0  0  0  0  0999 V2000
  -29.6405  -35.7258   17.8986 C   0  0  0  0  0  0  0  0  0  0  0  0
  -29.8259  -34.3934   17.5440 C   0  0  0  0  0  0  0  0  0  0  0  0
  -23.1629   -9.8957   22.2719 C   0  0  0  0  0  0  0  0  0  0  0  0
  -23.8389   -9.3392   20.0202 C   0  0  0  0  0  0  0  0  0  0  0  0
  -29.0969  -36.0460   19.1419 C   0  0  0  0  0  0  0  0  0  0  0  0
  -29.4689  -33.3803   18.4332 C   0  0  0  0  0  0  0  0  0  0  0  0
  -26.9302  -26.6825   18.5378 C   0  0  0  0  0  0  0  0  0  0  0  0
  -30.2686  -19.8340   20.6673 C   0  0  0  0  0  0  0  0  0  0  0  0
  -22.3997   -8.7297   22.3310 C   0  0  0  0  0  0  0  0  0  0  0  0
  -23.0758   -8.1731   20.0793 C   0  0  0  0  0  0  0  0  0  0  0  0
  -27.2200  -25.4291   19.0751 C   0  0  0  0  0  0  0  0  0  0  0  0
  -31.0280  -18.6640   20.6625 C   0  0  0  0  0  0  0  0  0  0  0  0
  -20.5613   -5.7181   23.2060 C   0  0  0  0  0  0  0  0  0  0  0  0
  -20.6499   -4.9430   24.3623 C   0  0  0  0  0  0  0  0  0  0  0  0
  -26.2164  -26.0991   21.1638 C   0  0  0  0  0  0  0  0  0  0  0  0
  -23.0185   -4.6516   23.9855 C   0  0  0  0  0  0  0  0  0  0  0  0
  -23.8824  -10.2006   21.1165 C   0  0  0  0  0  0  0  0  0  0  0  0
  -25.7452  -11.7619   21.8909 C   0  0  0  0  0  0  0  0  0  0  0  0
  -28.7241  -35.0361   20.0429 C   0  0  0  0  0  0  0  0  0  0  0  0
  -26.2899  -27.6590   19.3143 C   0  0  0  0  0  0  0  0  0  0  0  0
  -28.9210  -33.6873   19.6903 C   0  0  0  0  0  0  0  0  0  0  0  0
  -25.9172  -27.3632   20.6332 C   0  0  0  0  0  0  0  0  0  0  0  0
  -28.4418  -18.6526   19.6164 C   0  0  0  0  0  0  0  0  0  0  0  0
  -29.2012  -17.4826   19.6116 C   0  0  0  0  0  0  0  0  0  0  0  0
  -28.9755  -19.8283   20.1442 C   0  0  0  0  0  0  0  0  0  0  0  0
  -22.3562   -7.8683   21.2348 C   0  0  0  0  0  0  0  0  0  0  0  0
  -26.8657  -25.1382   20.3892 C   0  0  0  0  0  0  0  0  0  0  0  0
  -30.4943  -17.4883   20.1347 C   0  0  0  0  0  0  0  0  0  0  0  0
  -21.7013   -5.9599   22.4394 C   0  0  0  0  0  0  0  0  0  0  0  0
  -21.8785   -4.4098   24.7521 C   0  0  0  0  0  0  0  0  0  0  0  0
  -22.9299   -5.4267   22.8292 C   0  0  0  0  0  0  0  0  0  0  0  0
  -24.6704  -11.4053   21.0546 C   0  0  0  0  0  0  0  0  0  0  0  0
  -26.1507  -12.9886   21.4246 C   0  0  0  0  0  0  0  0  0  0  0  0
  -27.0965  -21.4302   20.6689 C   0  0  0  0  0  0  0  0  0  0  0  0
  -26.1448  -20.9467   21.4769 C   0  0  0  0  0  0  0  0  0  0  0  0
  -26.3253  -11.0482   22.9908 C   0  0  0  0  0  0  0  0  0  0  0  0
  -27.0631  -30.5626   20.3513 C   0  0  0  0  0  0  0  0  0  0  0  0
  -23.9948  -30.5787   21.4038 C   0  0  0  0  0  0  0  0  0  0  0  0
  -21.2543  -28.7897   22.3712 C   0  0  0  0  0  0  0  0  0  0  0  0
  -27.4577  -16.0481   16.8150 C   0  0  0  0  0  0  0  0  0  0  0  0
  -28.1843  -35.4321   21.3944 C   0  0  0  0  0  0  0  0  0  0  0  0
  -25.9604  -28.9971   18.7114 C   0  0  0  0  0  0  0  0  0  0  0  0
  -25.2101  -28.3699   21.5022 C   0  0  0  0  0  0  0  0  0  0  0  0
  -27.4847  -34.2914   22.1290 C   0  0  0  0  0  0  0  0  0  0  0  0
  -23.9996  -16.1541   18.1311 C   0  0  0  0  0  0  0  0  0  0  0  0
  -28.3265  -33.0208   22.0669 C   0  0  0  0  0  0  0  0  0  0  0  0
  -23.9435  -14.9131   19.0204 C   0  0  0  0  0  0  0  0  0  0  0  0
  -24.9964  -15.9881   16.9880 C   0  0  0  0  0  0  0  0  0  0  0  0
  -28.5583  -22.2937   19.5940 C   0  0  0  0  0  0  0  0  0  0  0  0
  -26.3104  -14.3734   18.3224 C   0  0  0  0  0  0  0  0  0  0  0  0
  -28.5232  -32.5596   20.6177 C   0  0  1  0  0  0  0  0  0  0  0  0
  -27.1756  -22.8023   20.0081 C   0  0  2  0  0  0  0  0  0  1  0  0
  -25.7663  -30.0917   19.7562 C   0  0  1  0  0  0  0  0  0  0  0  0
  -25.3494  -14.5258   19.5110 C   0  0  2  0  0  0  0  0  0  0  0  0
  -27.0544  -18.6443   19.0549 C   0  0  0  0  0  0  0  0  0  0  0  0
  -18.9084  -29.0809   23.2132 C   0  0  0  0  0  0  0  0  0  0  0  0
  -25.0774  -31.2963   24.1647 C   0  0  0  0  0  0  0  0  0  0  0  0
  -22.8596  -30.6453   25.1268 C   0  0  0  0  0  0  0  0  0  0  0  0
  -23.0069  -32.5326   23.5024 C   0  0  0  0  0  0  0  0  0  0  0  0
  -29.8258  -16.7223   16.9459 C   0  0  0  0  0  0  0  0  0  0  0  0
  -20.1147  -27.3944   20.0231 C   0  0  0  0  0  0  0  0  0  0  0  0
  -32.5610  -16.4530   20.6941 C   0  0  0  0  0  0  0  0  0  0  0  0
  -28.6366  -16.2177   19.0475 C   0  0  0  0  0  0  0  0  0  0  0  0
  -23.2990  -30.1610   22.6767 C   0  0  1  0  0  0  0  0  0  0  0  0
  -19.7901  -28.9033   21.9869 C   0  0  2  0  0  0  0  0  0  0  0  0
  -23.5758  -31.1403   23.8522 C   0  0  0  0  0  0  0  0  0  0  0  0
  -24.4095  -12.3306   20.1274 N   0  0  0  0  0  0  0  0  0  0  0  0
  -25.3261  -13.2808   20.3783 N   0  0  0  0  0  0  0  0  0  0  0  0
  -28.2244  -21.0207   20.1586 N   0  0  0  0  0  0  0  0  0  0  0  0
  -24.9154  -29.6661   20.8693 N   0  0  0  0  0  0  0  0  0  0  0  0
  -26.3126  -15.5779   17.4786 N   0  0  0  0  0  0  0  0  0  0  0  0
  -27.1286  -13.8349   21.8116 N   0  0  0  0  0  0  0  0  0  0  0  0
  -27.3801  -10.1627   22.7309 N   0  0  0  0  0  0  0  0  0  0  0  0
  -27.3304  -31.9002   20.1308 N   0  0  0  0  0  0  0  0  0  0  0  0
  -21.8869  -30.0145   22.3408 N   0  0  0  0  0  0  0  0  0  0  0  0
  -28.6162  -16.2258   17.5864 N   0  0  0  0  0  0  0  0  0  0  0  0
  -19.3478  -27.6778   21.2635 N   0  3  0  0  0  0  0  0  0  0  0  0
  -25.9093  -11.1791   24.1670 O   0  0  0  0  0  0  0  0  0  0  0  0
  -27.7683  -29.7712   20.9663 O   0  0  0  0  0  0  0  0  0  0  0  0
  -23.7261  -31.6713   20.8982 O   0  0  0  0  0  0  0  0  0  0  0  0
  -21.7831  -27.7218   22.6721 O   0  0  0  0  0  0  0  0  0  0  0  0
  -27.4427  -16.3041   15.6042 O   0  0  0  0  0  0  0  0  0  0  0  0
  -21.6119   -6.7302   21.2922 O   0  0  0  0  0  0  0  0  0  0  0  0
  -27.1480  -23.9158   20.9163 O   0  0  0  0  0  0  0  0  0  1  0  0
  -31.2508  -16.3549   20.1397 O   0  0  0  0  0  0  0  0  0  0  0  0
  -21.9637   -3.6668   25.8633 F   0  0  0  0  0  0  0  0  0  0  0  0
  -24.0288   -5.6566   22.0975 F   0  0  0  0  0  0  0  0  0  0  0  0
  1  2  1  0  0  0  0
  1  5  2  0  0  0  0
  2  6  2  0  0  0  0
  3  9  2  0  0  0  0
  3 17  1  0  0  0  0
  4 10  1  0  0  0  0
  4 17  2  0  0  0  0
  5 19  1  0  0  0  0
  6 21  1  0  0  0  0
  7 11  2  0  0  0  0
  7 20  1  0  0  0  0
  8 12  2  0  0  0  0
  8 25  1  0  0  0  0
  9 26  1  0  0  0  0
 10 26  2  0  0  0  0
 11 27  1  0  0  0  0
 12 28  1  0  0  0  0
 13 14  2  0  0  0  0
 13 29  1  0  0  0  0
 14 30  1  0  0  0  0
 15 22  1  0  0  0  0
 15 27  2  0  0  0  0
 16 30  2  0  0  0  0
 16 31  1  0  0  0  0
 17 32  1  0  0  0  0
 18 32  1  0  0  0  0
 18 33  2  0  0  0  0
 18 36  1  0  0  0  0
 19 21  2  0  0  0  0
 19 41  1  0  0  0  0
 20 22  2  0  0  0  0
 20 42  1  0  0  0  0
 21 51  1  0  0  0  0
 22 43  1  0  0  0  0
 23 24  1  0  0  0  0
 23 25  2  0  0  0  0
 23 55  1  0  0  0  0
 24 28  2  0  0  0  0
 24 63  1  0  0  0  0
 25 69  1  0  0  0  0
 26 83  1  0  0  0  0
 27 84  1  0  0  0  0
 28 85  1  0  0  0  0
 29 31  2  0  0  0  0
 29 83  1  0  0  0  0
 30 86  1  0  0  0  0
 31 87  1  0  0  0  0
 32 67  2  0  0  0  0
 33 68  1  0  0  0  0
 33 72  1  0  0  0  0
 34 35  2  0  0  0  0
 34 52  1  0  0  0  0
 34 69  1  0  0  0  0
 36 73  1  0  0  0  0
 36 78  2  0  0  0  0
 37 53  1  0  0  0  0
 37 74  1  0  0  0  0
 37 79  2  0  0  0  0
 38 64  1  0  0  0  0
 38 70  1  0  0  0  0
 38 80  2  0  0  0  0
 39 65  1  0  0  0  0
 39 75  1  0  0  0  0
 39 81  2  0  0  0  0
 40 71  1  0  0  0  0
 40 76  1  0  0  0  0
 40 82  2  0  0  0  0
 41 44  1  0  0  0  0
 42 53  1  0  0  0  0
 43 70  1  0  0  0  0
 44 46  1  0  0  0  0
 45 47  1  0  0  0  0
 45 48  1  0  0  0  0
 46 51  1  0  0  0  0
 47 54  1  0  0  0  0
 48 71  1  0  0  0  0
 49 52  1  0  0  0  0
 49 69  1  0  0  0  0
 50 54  1  0  0  0  0
 50 71  1  0  0  0  0
 51 74  1  0  0  0  0
 52 84  1  0  0  0  0
 53 70  1  0  0  0  0
 54 68  1  0  0  0  0
 56 65  1  0  0  0  0
 57 66  1  0  0  0  0
 58 66  1  0  0  0  0
 59 66  1  0  0  0  0
 60 76  1  0  0  0  0
 61 77  1  0  0  0  0
 62 85  1  0  0  0  0
 63 76  1  0  0  0  0
 64 66  1  0  0  0  0
 64 75  1  0  0  0  0
 65 77  1  0  0  0  0
 67 68  1  0  0  0  0
M  CHG  1  77   1
M  ISO  4  40 100  52 101  76 100  84 101
M  END
> <Batch ID>
0028

> <Smiles>
C=C1N(c2ccc(OC)c(C[100N:0](C)[100C:0](=O)N3CCCC(n4nc(-c5ccc(Oc6ccc(F)cc6F)cc5)c(C(N)=O)c4N)C3)c2C)C[101CH:1]1[101O:1]c1ccc2c(c1)CN(C(=O)C(NC(=O)C(C)NC)C(C)(C)C)C(C(=O)NC1CCCc3ccccc31)C2

> <Shape>
0.277

> <Color>
0.104

> <Negative vol penalty>
0.000

$$$$

  -OEChem-04042321313D

 86 95  0     1  0  0  0  0  0999 V2000
  -17.2899  -13.4710   21.4613 C   0  0  0  0  0  0  0  0  0  0  0  0
  -18.2442  -14.4822   21.4147 C   0  0  0  0  0  0  0  0  0  0  0  0
  -22.8832  -29.7815   22.6483 C   0  0  0  0  0  0  0  0  0  0  0  0
  -23.4198  -27.5455   23.3895 C   0  0  0  0  0  0  0  0  0  0  0  0
  -17.6120  -12.2354   22.0212 C   0  0  0  0  0  0  0  0  0  0  0  0
  -19.5209  -14.2588   21.9290 C   0  0  0  0  0  0  0  0  0  0  0  0
  -24.7975  -16.5169   19.7927 C   0  0  0  0  0  0  0  0  0  0  0  0
  -31.6070  -23.9927   23.0065 C   0  0  0  0  0  0  0  0  0  0  0  0
  -21.5573  -29.3971   22.4486 C   0  0  0  0  0  0  0  0  0  0  0  0
  -22.0939  -27.1611   23.1900 C   0  0  0  0  0  0  0  0  0  0  0  0
  -25.5802  -17.6023   20.1841 C   0  0  0  0  0  0  0  0  0  0  0  0
  -18.8024  -28.8786   24.3394 C   0  0  0  0  0  0  0  0  0  0  0  0
  -31.2089  -22.9779   23.8767 C   0  0  0  0  0  0  0  0  0  0  0  0
  -17.8028  -29.7342   24.8023 C   0  0  0  0  0  0  0  0  0  0  0  0
  -26.9569  -16.1256   21.5044 C   0  0  0  0  0  0  0  0  0  0  0  0
  -16.9506  -29.9558   22.5525 C   0  0  0  0  0  0  0  0  0  0  0  0
  -23.8145  -28.8557   23.1187 C   0  0  0  0  0  0  0  0  0  0  0  0
  -25.7495  -29.7777   24.5018 C   0  0  0  0  0  0  0  0  0  0  0  0
  -18.8962  -11.9935   22.5338 C   0  0  0  0  0  0  0  0  0  0  0  0
  -25.0826  -15.2272   20.2636 C   0  0  0  0  0  0  0  0  0  0  0  0
  -19.8601  -13.0192   22.4974 C   0  0  0  0  0  0  0  0  0  0  0  0
  -26.1779  -15.0252   21.1154 C   0  0  0  0  0  0  0  0  0  0  0  0
  -30.9573  -24.1573   21.7832 C   0  0  0  0  0  0  0  0  0  0  0  0
  -29.9095  -23.3069   21.4300 C   0  0  0  0  0  0  0  0  0  0  0  0
  -29.5115  -22.2920   22.3002 C   0  0  0  0  0  0  0  0  0  0  0  0
  -21.1626  -28.0869   22.7195 C   0  0  0  0  0  0  0  0  0  0  0  0
  -26.6583  -17.4071   21.0424 C   0  0  0  0  0  0  0  0  0  0  0  0
  -18.8763  -28.5617   22.9830 C   0  0  0  0  0  0  0  0  0  0  0  0
  -16.8769  -30.2728   23.9089 C   0  0  0  0  0  0  0  0  0  0  0  0
  -30.1612  -22.1275   23.5235 C   0  0  0  0  0  0  0  0  0  0  0  0
  -17.9503  -29.1003   22.0895 C   0  0  0  0  0  0  0  0  0  0  0  0
  -25.1844  -29.2520   23.3245 C   0  0  0  0  0  0  0  0  0  0  0  0
  -27.0692  -29.9884   24.1848 C   0  0  0  0  0  0  0  0  0  0  0  0
  -28.3918  -20.5528   20.8405 C   0  0  0  0  0  0  0  0  0  0  0  0
  -25.1364  -30.0510   25.7687 C   0  0  0  0  0  0  0  0  0  0  0  0
  -23.5234  -13.0849   22.0196 C   0  0  0  0  0  0  0  0  0  0  0  0
  -26.0611  -11.2057   21.2773 C   0  0  0  0  0  0  0  0  0  0  0  0
  -29.3350  -10.9973   20.3365 C   0  0  0  0  0  0  0  0  0  0  0  0
  -30.7340  -27.5277   20.1394 C   0  0  0  0  0  0  0  0  0  0  0  0
  -19.1833  -10.6575   23.1721 C   0  0  0  0  0  0  0  0  0  0  0  0
  -24.2449  -14.0629   19.8107 C   0  0  0  0  0  0  0  0  0  0  0  0
  -26.5383  -13.6574   21.6330 C   0  0  0  0  0  0  0  0  0  0  0  0
  -20.6726  -10.3777   23.3559 C   0  0  0  0  0  0  0  0  0  0  0  0
  -29.9157  -30.9772   20.4686 C   0  0  0  0  0  0  0  0  0  0  0  0
  -21.3744  -11.5932   23.9532 C   0  0  0  0  0  0  0  0  0  0  0  0
  -28.6613  -30.9736   21.3441 C   0  0  0  0  0  0  0  0  0  0  0  0
  -26.2607  -20.5385   21.9304 C   0  0  0  0  0  0  0  0  0  0  0  0
  -29.9388  -29.7880   19.5108 C   0  0  0  0  0  0  0  0  0  0  0  0
  -27.2808  -21.2410   22.8071 C   0  0  0  0  0  0  0  0  0  0  0  0
  -28.5158  -28.4679   21.0293 C   0  0  0  0  0  0  0  0  0  0  0  0
  -21.2634  -12.8069   23.0225 C   0  0  1  0  0  0  0  0  0  0  0  0
  -27.1092  -19.7557   20.9444 C   0  0  2  0  0  0  0  0  0  1  0  0
  -24.3150  -12.8711   20.7605 C   0  0  1  0  0  0  0  0  0  0  0  0
  -28.4746  -29.6175   22.0507 C   0  0  2  0  0  0  0  0  0  0  0  0
  -29.2146  -23.4886   20.1170 C   0  0  0  0  0  0  0  0  0  0  0  0
  -31.1412   -9.3255   19.8465 C   0  0  0  0  0  0  0  0  0  0  0  0
  -26.4061  -10.7056   24.2674 C   0  0  0  0  0  0  0  0  0  0  0  0
  -28.7106   -9.8526   23.7881 C   0  0  0  0  0  0  0  0  0  0  0  0
  -26.7258   -8.6855   22.8282 C   0  0  0  0  0  0  0  0  0  0  0  0
  -29.6162  -11.9452   17.5470 C   0  0  0  0  0  0  0  0  0  0  0  0
  -31.4030  -25.2525   20.8707 C   0  0  0  0  0  0  0  0  0  0  0  0
  -27.4097  -10.9355   21.8997 C   0  0  1  0  0  0  0  0  0  0  0  0
  -30.0239  -10.1756   19.2619 C   0  0  2  0  0  0  0  0  0  0  0  0
  -27.3054  -10.0710   23.1878 C   0  0  0  0  0  0  0  0  0  0  0  0
  -26.0723  -29.1360   22.3335 N   0  0  0  0  0  0  0  0  0  0  0  0
  -27.2088  -29.5919   22.8874 N   0  0  0  0  0  0  0  0  0  0  0  0
  -28.4431  -21.4105   21.9556 N   0  0  0  0  0  0  0  0  0  0  0  0
  -25.6852  -12.5519   21.1666 N   0  0  0  0  0  0  0  0  0  0  0  0
  -29.7583  -28.5328   20.2441 N   0  0  0  0  0  0  0  0  0  0  0  0
  -28.1122  -30.4724   24.8921 N   0  0  0  0  0  0  0  0  0  0  0  0
  -23.7710  -29.7754   25.9235 N   0  0  0  0  0  0  0  0  0  0  0  0
  -22.2021  -12.6913   21.9271 N   0  0  0  0  0  0  0  0  0  0  0  0
  -28.2332  -10.3461   20.8496 N   0  0  0  0  0  0  0  0  0  0  0  0
  -30.4886  -26.3726   20.8715 N   0  0  0  0  0  0  0  0  0  0  0  0
  -30.6080  -11.0687   18.2216 N   0  3  0  0  0  0  0  0  0  0  0  0
  -29.2091  -20.3711   19.9495 O   0  0  0  0  0  0  0  0  0  0  0  0
  -25.7766  -30.5409   26.7298 O   0  0  0  0  0  0  0  0  0  0  0  0
  -24.0713  -13.5696   23.0027 O   0  0  0  0  0  0  0  0  0  0  0  0
  -25.3699  -10.2575   20.8966 O   0  0  0  0  0  0  0  0  0  0  0  0
  -29.7364  -12.1044   20.6883 O   0  0  0  0  0  0  0  0  0  0  0  0
  -31.7513  -27.6529   19.4492 O   0  0  0  0  0  0  0  0  0  0  0  0
  -19.8689  -27.7116   22.5251 O   0  0  0  0  0  0  0  0  0  0  0  0
  -27.4234  -18.4649   21.4266 O   0  0  0  0  0  0  0  0  0  1  0  0
  -15.9160  -31.0931   24.3538 F   0  0  0  0  0  0  0  0  0  0  0  0
  -29.7895  -21.1543   24.3676 F   0  0  0  0  0  0  0  0  0  0  0  0
  -18.0155  -28.7986   20.7855 F   0  0  0  0  0  0  0  0  0  0  0  0
  1  2  1  0  0  0  0
  1  5  2  0  0  0  0
  2  6  2  0  0  0  0
  3  9  2  0  0  0  0
  3 17  1  0  0  0  0
  4 10  1  0  0  0  0
  4 17  2  0  0  0  0
  5 19  1  0  0  0  0
  6 21  1  0  0  0  0
  7 11  2  0  0  0  0
  7 20  1  0  0  0  0
  8 13  1  0  0  0  0
  8 23  2  0  0  0  0
  9 26  1  0  0  0  0
 10 26  2  0  0  0  0
 11 27  1  0  0  0  0
 12 14  2  0  0  0  0
 12 28  1  0  0  0  0
 13 30  2  0  0  0  0
 14 29  1  0  0  0  0
 15 22  1  0  0  0  0
 15 27  2  0  0  0  0
 16 29  2  0  0  0  0
 16 31  1  0  0  0  0
 17 32  1  0  0  0  0
 18 32  1  0  0  0  0
 18 33  2  0  0  0  0
 18 35  1  0  0  0  0
 19 21  2  0  0  0  0
 19 40  1  0  0  0  0
 20 22  2  0  0  0  0
 20 41  1  0  0  0  0
 21 51  1  0  0  0  0
 22 42  1  0  0  0  0
 23 24  1  0  0  0  0
 23 61  1  0  0  0  0
 24 25  2  0  0  0  0
 24 55  1  0  0  0  0
 25 30  1  0  0  0  0
 25 67  1  0  0  0  0
 26 82  1  0  0  0  0
 27 83  1  0  0  0  0
 28 31  2  0  0  0  0
 28 82  1  0  0  0  0
 29 84  1  0  0  0  0
 30 85  1  0  0  0  0
 31 86  1  0  0  0  0
 32 65  2  0  0  0  0
 33 66  1  0  0  0  0
 33 70  1  0  0  0  0
 34 52  1  0  0  0  0
 34 67  1  0  0  0  0
 34 76  2  0  0  0  0
 35 71  1  0  0  0  0
 35 77  2  0  0  0  0
 36 53  1  0  0  0  0
 36 72  1  0  0  0  0
 36 78  2  0  0  0  0
 37 62  1  0  0  0  0
 37 68  1  0  0  0  0
 37 79  2  0  0  0  0
 38 63  1  0  0  0  0
 38 73  1  0  0  0  0
 38 80  2  0  0  0  0
 39 69  1  0  0  0  0
 39 74  1  0  0  0  0
 39 81  2  0  0  0  0
 40 43  1  0  0  0  0
 41 53  1  0  0  0  0
 42 68  1  0  0  0  0
 43 45  1  0  0  0  0
 44 46  1  0  0  0  0
 44 48  1  0  0  0  0
 45 51  1  0  0  0  0
 46 54  1  0  0  0  0
 47 49  1  0  0  0  0
 47 52  1  0  0  0  0
 48 69  1  0  0  0  0
 49 67  1  0  0  0  0
 50 54  1  0  0  0  0
 50 69  1  0  0  0  0
 51 72  1  0  0  0  0
 52 83  1  0  0  0  0
 53 68  1  0  0  0  0
 54 66  1  0  0  0  0
 56 63  1  0  0  0  0
 57 64  1  0  0  0  0
 58 64  1  0  0  0  0
 59 64  1  0  0  0  0
 60 75  1  0  0  0  0
 61 74  1  0  0  0  0
 62 64  1  0  0  0  0
 62 73  1  0  0  0  0
 63 75  1  0  0  0  0
 65 66  1  0  0  0  0
M  CHG  1  75   1
M  ISO  4  39 100  52 101  74 100  83 101
M  END
> <Batch ID>
0028

> <Smiles>
CNC(C)C(=O)NC(C(=O)N1Cc2cc([101O:1][101CH:1]3CCN(c4c(F)ccc(C[100NH:0][100C:0](=O)N5CCCC(n6nc(-c7ccc(Oc8ccc(F)cc8F)cc7)c(C(N)=O)c6N)C5)c4C)C3=O)ccc2CC1C(=O)NC1CCCc2ccccc21)C(C)(C)C

> <Shape>
0.254

> <Color>
0.061

> <Negative vol penalty>
0.000

$$$$

  -OEChem-04042321313D

 83 92  0     1  0  0  0  0  0999 V2000
  -17.2129  -26.2203   21.5871 C   0  0  0  0  0  0  0  0  0  0  0  0
  -18.4973  -25.7379   21.3570 C   0  0  0  0  0  0  0  0  0  0  0  0
  -23.2760   -9.7427   20.7175 C   0  0  0  0  0  0  0  0  0  0  0  0
  -23.9257  -10.3545   22.9626 C   0  0  0  0  0  0  0  0  0  0  0  0
  -17.0344  -27.4783   22.1613 C   0  0  0  0  0  0  0  0  0  0  0  0
  -19.6041  -26.5137   21.7000 C   0  0  0  0  0  0  0  0  0  0  0  0
  -23.1931  -23.8384   24.0679 C   0  0  0  0  0  0  0  0  0  0  0  0
  -30.9102  -19.4031   19.3851 C   0  0  0  0  0  0  0  0  0  0  0  0
  -30.8228  -18.0443   19.7043 C   0  0  0  0  0  0  0  0  0  0  0  0
  -22.5914   -8.6350   21.2174 C   0  0  0  0  0  0  0  0  0  0  0  0
  -23.2410   -9.2468   23.4626 C   0  0  0  0  0  0  0  0  0  0  0  0
  -24.0119  -23.0325   23.2781 C   0  0  0  0  0  0  0  0  0  0  0  0
  -20.0416   -8.3959   24.1407 C   0  0  0  0  0  0  0  0  0  0  0  0
  -19.2343   -8.5868   25.2620 C   0  0  0  0  0  0  0  0  0  0  0  0
  -29.1140  -18.5380   21.3150 C   0  0  0  0  0  0  0  0  0  0  0  0
  -25.7361  -24.7177   23.3565 C   0  0  0  0  0  0  0  0  0  0  0  0
  -20.5532   -6.9747   26.4861 C   0  0  0  0  0  0  0  0  0  0  0  0
  -23.9432  -10.6024   21.5900 C   0  0  0  0  0  0  0  0  0  0  0  0
  -24.1389  -13.0417   20.8696 C   0  0  0  0  0  0  0  0  0  0  0  0
  -18.1396  -28.2658   22.5203 C   0  0  0  0  0  0  0  0  0  0  0  0
  -23.6363  -25.0969   24.4996 C   0  0  0  0  0  0  0  0  0  0  0  0
  -19.4402  -27.7839   22.2783 C   0  0  0  0  0  0  0  0  0  0  0  0
  -29.1878  -19.9041   20.9896 C   0  0  0  0  0  0  0  0  0  0  0  0
  -24.9221  -25.5366   24.1538 C   0  0  0  0  0  0  0  0  0  0  0  0
  -30.1082  -20.3712   20.0217 C   0  0  0  0  0  0  0  0  0  0  0  0
  -29.9266  -17.6118   20.6717 C   0  0  0  0  0  0  0  0  0  0  0  0
  -22.5739   -8.3871   22.5899 C   0  0  0  0  0  0  0  0  0  0  0  0
  -25.2825  -23.4733   22.9199 C   0  0  0  0  0  0  0  0  0  0  0  0
  -21.1047   -7.4943   24.1920 C   0  0  0  0  0  0  0  0  0  0  0  0
  -19.4901   -7.8762   26.4347 C   0  0  0  0  0  0  0  0  0  0  0  0
  -21.3605   -6.7837   25.3647 C   0  0  0  0  0  0  0  0  0  0  0  0
  -24.6510  -11.7465   21.0742 C   0  0  0  0  0  0  0  0  0  0  0  0
  -25.2002  -13.7555   20.3689 C   0  0  0  0  0  0  0  0  0  0  0  0
  -22.8216  -13.5539   21.1107 C   0  0  0  0  0  0  0  0  0  0  0  0
  -22.6648  -28.0907   24.0561 C   0  0  0  0  0  0  0  0  0  0  0  0
  -24.9864  -28.7528   26.2227 C   0  0  0  0  0  0  0  0  0  0  0  0
  -27.9076  -27.8144   27.7170 C   0  0  0  0  0  0  0  0  0  0  0  0
  -30.5800  -15.1886   20.4533 C   0  0  0  0  0  0  0  0  0  0  0  0
  -17.8966  -29.6390   23.0948 C   0  0  0  0  0  0  0  0  0  0  0  0
  -22.7513  -25.9429   25.3733 C   0  0  0  0  0  0  0  0  0  0  0  0
  -28.2918  -20.8634   21.7350 C   0  0  0  0  0  0  0  0  0  0  0  0
  -25.4529  -26.8708   24.6084 C   0  0  0  0  0  0  0  0  0  0  0  0
  -19.1240  -30.2412   23.7737 C   0  0  0  0  0  0  0  0  0  0  0  0
  -29.7240  -12.2041   18.7105 C   0  0  0  0  0  0  0  0  0  0  0  0
  -20.3586  -30.0692   22.8945 C   0  0  0  0  0  0  0  0  0  0  0  0
  -28.2858  -11.9256   19.1533 C   0  0  0  0  0  0  0  0  0  0  0  0
  -30.5664  -12.7785   19.8481 C   0  0  0  0  0  0  0  0  0  0  0  0
  -29.4880  -22.7025   20.5457 C   0  0  0  0  0  0  0  0  0  0  0  0
  -28.5569  -13.6804   20.9516 C   0  0  0  0  0  0  0  0  0  0  0  0
  -20.6660  -28.5854   22.6594 C   0  0  1  0  0  0  0  0  0  0  0  0
  -23.1083  -27.4254   25.3282 C   0  0  1  0  0  0  0  0  0  0  0  0
  -28.1162  -22.1748   20.9683 C   0  0  2  0  0  0  0  0  0  0  0  0
  -27.6525  -13.1615   19.8218 C   0  0  2  0  0  0  0  0  0  0  0  0
  -29.5818  -28.5787   29.4229 C   0  0  0  0  0  0  0  0  0  0  0  0
  -26.1156  -30.7536   24.2148 C   0  0  0  0  0  0  0  0  0  0  0  0
  -28.2444  -30.7687   25.5324 C   0  0  0  0  0  0  0  0  0  0  0  0
  -26.1206  -31.5418   26.5882 C   0  0  0  0  0  0  0  0  0  0  0  0
  -31.1866  -22.2294   18.7746 C   0  0  0  0  0  0  0  0  0  0  0  0
  -27.4192  -25.4483   29.4263 C   0  0  0  0  0  0  0  0  0  0  0  0
  -27.3732  -23.2030   21.8191 C   0  0  0  0  0  0  0  0  0  1  0  0
  -26.4592  -29.0755   26.1466 C   0  0  1  0  0  0  0  0  0  0  0  0
  -28.3216  -27.7639   29.1766 C   0  0  2  0  0  0  0  0  0  0  0  0
  -26.7245  -30.5106   25.6101 C   0  0  0  0  0  0  0  0  0  0  0  0
  -25.9376  -11.6406   20.7313 N   0  0  0  0  0  0  0  0  0  0  0  0
  -26.2428  -12.8784   20.3061 N   0  0  0  0  0  0  0  0  0  0  0  0
  -30.1878  -21.7281   19.7083 N   0  0  3  0  0  0  0  0  0  0  0  0
  -24.5474  -27.6643   25.4558 N   0  0  0  0  0  0  0  0  0  0  0  0
  -29.9064  -13.9490   20.4304 N   0  0  0  0  0  0  0  0  0  0  0  0
  -25.3339  -15.0414   19.9805 N   0  0  0  0  0  0  0  0  0  0  0  0
  -21.8511  -12.6849   21.6276 N   0  0  0  0  0  0  0  0  0  0  0  0
  -29.8408  -16.2364   21.0014 N   0  0  0  0  0  0  0  0  0  0  0  0
  -21.3050  -28.0109   23.8239 N   0  0  0  0  0  0  0  0  0  0  0  0
  -27.0012  -28.8256   27.4778 N   0  0  0  0  0  0  0  0  0  0  0  0
  -28.5827  -26.3569   29.5926 N   0  3  0  0  0  0  0  0  0  0  0  0
  -22.5099  -14.7427   20.8594 O   0  0  0  0  0  0  0  0  0  0  0  0
  -23.4947  -28.6375   23.3391 O   0  0  0  0  0  0  0  0  0  0  0  0
  -24.2539  -29.4368   26.9418 O   0  0  0  0  0  0  0  0  0  0  0  0
  -28.3475  -27.0372   26.8726 O   0  0  0  0  0  0  0  0  0  0  0  0
  -31.7177  -15.3175   19.9940 O   0  0  0  0  0  0  0  0  0  0  0  0
  -21.9057   -7.3064   23.0782 O   0  0  0  0  0  0  0  0  0  0  0  0
  -26.0834  -22.6888   22.1485 O   0  0  0  0  0  0  0  0  0  1  0  0
  -18.7157   -8.0608   27.5119 F   0  0  0  0  0  0  0  0  0  0  0  0
  -22.3811   -5.9170   25.4204 F   0  0  0  0  0  0  0  0  0  0  0  0
  1  2  1  0  0  0  0
  1  5  2  0  0  0  0
  2  6  2  0  0  0  0
  3 10  2  0  0  0  0
  3 18  1  0  0  0  0
  4 11  1  0  0  0  0
  4 18  2  0  0  0  0
  5 20  1  0  0  0  0
  6 22  1  0  0  0  0
  7 12  2  0  0  0  0
  7 21  1  0  0  0  0
  8  9  2  0  0  0  0
  8 25  1  0  0  0  0
  9 26  1  0  0  0  0
 10 27  1  0  0  0  0
 11 27  2  0  0  0  0
 12 28  1  0  0  0  0
 13 14  2  0  0  0  0
 13 29  1  0  0  0  0
 14 30  1  0  0  0  0
 15 23  1  0  0  0  0
 15 26  2  0  0  0  0
 16 24  1  0  0  0  0
 16 28  2  0  0  0  0
 17 30  2  0  0  0  0
 17 31  1  0  0  0  0
 18 32  1  0  0  0  0
 19 32  1  0  0  0  0
 19 33  2  0  0  0  0
 19 34  1  0  0  0  0
 20 22  2  0  0  0  0
 20 39  1  0  0  0  0
 21 24  2  0  0  0  0
 21 40  1  0  0  0  0
 22 50  1  0  0  0  0
 23 25  2  0  0  0  0
 23 41  1  0  0  0  0
 24 42  1  0  0  0  0
 25 66  1  0  0  0  0
 26 71  1  0  0  0  0
 27 80  1  0  0  0  0
 28 81  1  0  0  0  0
 29 31  2  0  0  0  0
 29 80  1  0  0  0  0
 30 82  1  0  0  0  0
 31 83  1  0  0  0  0
 32 64  2  0  0  0  0
 33 65  1  0  0  0  0
 33 69  1  0  0  0  0
 34 70  1  0  0  0  0
 34 75  2  0  0  0  0
 35 51  1  0  0  0  0
 35 72  1  0  0  0  0
 35 76  2  0  0  0  0
 36 61  1  0  0  0  0
 36 67  1  0  0  0  0
 36 77  2  0  0  0  0
 37 62  1  0  0  0  0
 37 73  1  0  0  0  0
 37 78  2  0  0  0  0
 38 68  1  0  0  0  0
 38 71  1  0  0  0  0
 38 79  2  0  0  0  0
 39 43  1  0  0  0  0
 40 51  1  0  0  0  0
 41 52  1  0  0  0  0
 42 67  1  0  0  0  0
 43 45  1  0  0  0  0
 44 46  1  0  0  0  0
 44 47  1  0  0  0  0
 45 50  1  0  0  0  0
 46 53  1  0  0  0  0
 47 68  1  0  0  0  0
 48 52  1  0  0  0  0
 48 66  1  0  0  0  0
 49 53  1  0  0  0  0
 49 68  1  0  0  0  0
 50 72  1  0  0  0  0
 51 67  1  0  0  0  0
 52 60  1  0  0  0  0
 53 65  1  0  0  0  0
 54 62  1  0  0  0  0
 55 63  1  0  0  0  0
 56 63  1  0  0  0  0
 57 63  1  0  0  0  0
 58 66  1  0  0  0  0
 59 74  1  0  0  0  0
 60 81  1  0  0  0  0
 61 63  1  0  0  0  0
 61 73  1  0  0  0  0
 62 74  1  0  0  0  0
 64 65  1  0  0  0  0
M  CHG  1  74   1
M  ISO  4  38 100  60 101  71 100  81 101
M  END
> <Batch ID>
0028

> <Smiles>
CNC(C)C(=O)NC(C(=O)N1Cc2cc([101O:1][101CH2:1]C3Cc4cc([100NH:0][100C:0](=O)N5CCCC(n6nc(-c7ccc(Oc8ccc(F)cc8F)cc7)c(C(N)=O)c6N)C5)ccc4N(C)C3)ccc2CC1C(=O)NC1CCCc2ccccc21)C(C)(C)C

> <Shape>
0.310

> <Color>
0.206

> <Negative vol penalty>
0.000

$$$$

  -OEChem-04042321313D

 87 95  0     1  0  0  0  0  0999 V2000
  -17.6484  -25.4083   22.0670 C   0  0  0  0  0  0  0  0  0  0  0  0
  -18.9255  -24.9310   22.3442 C   0  0  0  0  0  0  0  0  0  0  0  0
  -24.9487  -14.1212   20.6023 C   0  0  0  0  0  0  0  0  0  0  0  0
  -26.5307  -12.3423   21.0146 C   0  0  0  0  0  0  0  0  0  0  0  0
  -17.4280  -26.7802   21.9520 C   0  0  0  0  0  0  0  0  0  0  0  0
  -19.9830  -25.8254   22.5055 C   0  0  0  0  0  0  0  0  0  0  0  0
  -22.8892  -24.6981   26.4965 C   0  0  0  0  0  0  0  0  0  0  0  0
  -25.8542  -18.7454   21.1838 C   0  0  0  0  0  0  0  0  0  0  0  0
  -25.8099  -19.0091   19.8148 C   0  0  0  0  0  0  0  0  0  0  0  0
  -24.0150  -13.1870   20.1539 C   0  0  0  0  0  0  0  0  0  0  0  0
  -25.5969  -11.4080   20.5662 C   0  0  0  0  0  0  0  0  0  0  0  0
  -23.8030  -23.6561   26.3447 C   0  0  0  0  0  0  0  0  0  0  0  0
  -23.5022   -8.5193   19.8694 C   0  0  0  0  0  0  0  0  0  0  0  0
  -23.3336   -7.3572   20.6221 C   0  0  0  0  0  0  0  0  0  0  0  0
  -25.5656  -25.2627   25.9826 C   0  0  0  0  0  0  0  0  0  0  0  0
  -28.0380  -19.7711   21.3108 C   0  0  0  0  0  0  0  0  0  0  0  0
  -22.6826   -8.6877   22.5307 C   0  0  0  0  0  0  0  0  0  0  0  0
  -26.2066  -13.6988   21.0326 C   0  0  0  0  0  0  0  0  0  0  0  0
  -27.3474  -15.1250   22.8137 C   0  0  0  0  0  0  0  0  0  0  0  0
  -18.4815  -27.6923   22.1215 C   0  0  0  0  0  0  0  0  0  0  0  0
  -23.3054  -26.0322   26.3815 C   0  0  0  0  0  0  0  0  0  0  0  0
  -19.7767  -27.2107   22.3913 C   0  0  0  0  0  0  0  0  0  0  0  0
  -24.6556  -26.3199   26.1359 C   0  0  0  0  0  0  0  0  0  0  0  0
  -26.9682  -19.1264   21.9318 C   0  0  0  0  0  0  0  0  0  0  0  0
  -26.8797  -19.6538   19.1938 C   0  0  0  0  0  0  0  0  0  0  0  0
  -27.9937  -20.0347   19.9418 C   0  0  0  0  0  0  0  0  0  0  0  0
  -24.3391  -11.8304   20.1359 C   0  0  0  0  0  0  0  0  0  0  0  0
  -25.1409  -23.9383   26.0849 C   0  0  0  0  0  0  0  0  0  0  0  0
  -23.2611   -9.7657   20.4474 C   0  0  0  0  0  0  0  0  0  0  0  0
  -22.9238   -7.4413   21.9527 C   0  0  0  0  0  0  0  0  0  0  0  0
  -22.8513   -9.8499   21.7780 C   0  0  0  0  0  0  0  0  0  0  0  0
  -27.1717  -14.6634   21.4954 C   0  0  0  0  0  0  0  0  0  0  0  0
  -28.3822  -16.0240   22.7277 C   0  0  0  0  0  0  0  0  0  0  0  0
  -26.6387  -14.7724   24.0092 C   0  0  0  0  0  0  0  0  0  0  0  0
  -22.6009  -28.4415   24.4314 C   0  0  0  0  0  0  0  0  0  0  0  0
  -24.4836  -30.1264   26.4658 C   0  0  0  0  0  0  0  0  0  0  0  0
  -26.6290  -20.9531   24.6627 C   0  0  0  0  0  0  0  0  0  0  0  0
  -27.0001  -30.1090   28.7710 C   0  0  0  0  0  0  0  0  0  0  0  0
  -30.2100  -20.0188   18.7674 C   0  0  0  0  0  0  0  0  0  0  0  0
  -18.2039  -29.1637   21.9411 C   0  0  0  0  0  0  0  0  0  0  0  0
  -22.3123  -27.1453   26.5744 C   0  0  0  0  0  0  0  0  0  0  0  0
  -25.1571  -27.7356   26.0233 C   0  0  0  0  0  0  0  0  0  0  0  0
  -19.3043  -30.0638   22.4969 C   0  0  0  0  0  0  0  0  0  0  0  0
  -32.0327  -16.8881   19.5222 C   0  0  0  0  0  0  0  0  0  0  0  0
  -20.6766  -29.5614   22.0597 C   0  0  0  0  0  0  0  0  0  0  0  0
  -30.9532  -16.0107   20.1533 C   0  0  0  0  0  0  0  0  0  0  0  0
  -31.4429  -17.8870   18.5313 C   0  0  0  0  0  0  0  0  0  0  0  0
  -29.2852  -17.8645   19.7499 C   0  0  0  0  0  0  0  0  0  0  0  0
  -20.9447  -28.1506   22.5975 C   0  0  1  0  0  0  0  0  0  0  0  0
  -22.7498  -28.4554   25.9265 C   0  0  1  0  0  0  0  0  0  0  0  0
  -29.8494  -16.8769   20.7822 C   0  0  1  0  0  0  0  0  0  0  0  0
  -26.8053  -19.9226   17.7257 C   0  0  0  0  0  0  0  0  0  0  0  0
  -28.3449  -31.6444   30.2309 C   0  0  0  0  0  0  0  0  0  0  0  0
  -26.0902  -31.0281   24.0336 C   0  0  0  0  0  0  0  0  0  0  0  0
  -27.9164  -31.7405   25.5910 C   0  0  0  0  0  0  0  0  0  0  0  0
  -25.6709  -32.8182   25.7289 C   0  0  0  0  0  0  0  0  0  0  0  0
  -28.0615  -22.6447   20.3566 C   0  0  0  0  0  0  0  0  0  0  0  0
  -30.5573  -22.4680   20.1874 C   0  0  0  0  0  0  0  0  0  0  0  0
  -29.1858  -22.8320   18.1230 C   0  0  0  0  0  0  0  0  0  0  0  0
  -26.0600  -28.7742   31.2394 C   0  0  0  0  0  0  0  0  0  0  0  0
  -27.0149  -18.8423   23.4053 C   0  0  0  0  0  0  0  0  0  0  0  0
  -25.5389  -21.6935   25.4079 C   0  0  0  0  0  0  0  0  0  1  0  0
  -25.9577  -30.4424   26.5446 C   0  0  1  0  0  0  0  0  0  0  0  0
  -27.1159  -30.7532   30.1407 C   0  0  2  0  0  0  0  0  0  0  0  0
  -26.3993  -31.4805   25.4747 C   0  0  0  0  0  0  0  0  0  0  0  0
  -29.2273  -22.1488   19.4948 C   0  0  0  0  0  0  0  0  0  0  0  0
  -28.0263  -15.2232   20.6349 N   0  0  0  0  0  0  0  0  0  0  0  0
  -28.7489  -16.0458   21.4142 N   0  0  0  0  0  0  0  0  0  0  0  0
  -24.1464  -28.7891   26.2135 N   0  0  0  0  0  0  0  0  0  0  0  0
  -30.3532  -18.6626   19.1259 N   0  0  0  0  0  0  0  0  0  0  0  0
  -29.0051  -16.7903   23.6482 N   0  0  0  0  0  0  0  0  0  0  0  0
  -25.6034  -13.8320   23.9194 N   0  0  0  0  0  0  0  0  0  0  0  0
  -21.3109  -28.2042   23.9966 N   0  0  0  0  0  0  0  0  0  0  0  0
  -26.1743  -19.7454   24.1569 N   0  0  0  0  0  0  0  0  0  0  0  0
  -26.2135  -30.8562   27.9200 N   0  0  0  0  0  0  0  0  0  0  0  0
  -29.1097  -20.7030   19.3182 N   0  0  0  0  0  0  0  0  0  0  0  0
  -27.2149  -29.7077   31.1981 N   0  3  0  0  0  0  0  0  0  0  0  0
  -26.9045  -15.2886   25.1211 O   0  0  0  0  0  0  0  0  0  0  0  0
  -23.5834  -28.6334   23.7246 O   0  0  0  0  0  0  0  0  0  0  0  0
  -23.6615  -31.0315   26.6294 O   0  0  0  0  0  0  0  0  0  0  0  0
  -27.7681  -21.3951   24.5402 O   0  0  0  0  0  0  0  0  0  0  0  0
  -27.5552  -29.0508   28.4834 O   0  0  0  0  0  0  0  0  0  0  0  0
  -30.9770  -20.5687   17.9674 O   0  0  0  0  0  0  0  0  0  0  0  0
  -23.4282  -10.9186   19.6986 O   0  0  0  0  0  0  0  0  0  0  0  0
  -26.0348  -22.9231   25.9356 O   0  0  0  0  0  0  0  0  0  1  0  0
  -22.7604   -6.3251   22.6750 F   0  0  0  0  0  0  0  0  0  0  0  0
  -22.6169  -11.0444   22.3384 F   0  0  0  0  0  0  0  0  0  0  0  0
  1  2  1  0  0  0  0
  1  5  2  0  0  0  0
  2  6  2  0  0  0  0
  3 10  2  0  0  0  0
  3 18  1  0  0  0  0
  4 11  1  0  0  0  0
  4 18  2  0  0  0  0
  5 20  1  0  0  0  0
  6 22  1  0  0  0  0
  7 12  2  0  0  0  0
  7 21  1  0  0  0  0
  8  9  2  0  0  0  0
  8 24  1  0  0  0  0
  9 25  1  0  0  0  0
 10 27  1  0  0  0  0
 11 27  2  0  0  0  0
 12 28  1  0  0  0  0
 13 14  2  0  0  0  0
 13 29  1  0  0  0  0
 14 30  1  0  0  0  0
 15 23  1  0  0  0  0
 15 28  2  0  0  0  0
 16 24  2  0  0  0  0
 16 26  1  0  0  0  0
 17 30  2  0  0  0  0
 17 31  1  0  0  0  0
 18 32  1  0  0  0  0
 19 32  1  0  0  0  0
 19 33  2  0  0  0  0
 19 34  1  0  0  0  0
 20 22  2  0  0  0  0
 20 40  1  0  0  0  0
 21 23  2  0  0  0  0
 21 41  1  0  0  0  0
 22 49  1  0  0  0  0
 23 42  1  0  0  0  0
 24 61  1  0  0  0  0
 25 26  2  0  0  0  0
 25 52  1  0  0  0  0
 26 76  1  0  0  0  0
 27 84  1  0  0  0  0
 28 85  1  0  0  0  0
 29 31  2  0  0  0  0
 29 84  1  0  0  0  0
 30 86  1  0  0  0  0
 31 87  1  0  0  0  0
 32 67  2  0  0  0  0
 33 68  1  0  0  0  0
 33 71  1  0  0  0  0
 34 72  1  0  0  0  0
 34 78  2  0  0  0  0
 35 50  1  0  0  0  0
 35 73  1  0  0  0  0
 35 79  2  0  0  0  0
 36 63  1  0  0  0  0
 36 69  1  0  0  0  0
 36 80  2  0  0  0  0
 37 62  1  0  0  0  0
 37 74  1  0  0  0  0
 37 81  2  0  0  0  0
 38 64  1  0  0  0  0
 38 75  1  0  0  0  0
 38 82  2  0  0  0  0
 39 70  1  0  0  0  0
 39 76  1  0  0  0  0
 39 83  2  0  0  0  0
 40 43  1  0  0  0  0
 41 50  1  0  0  0  0
 42 69  1  0  0  0  0
 43 45  1  0  0  0  0
 44 46  1  0  0  0  0
 44 47  1  0  0  0  0
 45 49  1  0  0  0  0
 46 51  1  0  0  0  0
 47 70  1  0  0  0  0
 48 51  1  0  0  0  0
 48 70  1  0  0  0  0
 49 73  1  0  0  0  0
 50 69  1  0  0  0  0
 51 68  1  0  0  0  0
 53 64  1  0  0  0  0
 54 65  1  0  0  0  0
 55 65  1  0  0  0  0
 56 65  1  0  0  0  0
 57 66  1  0  0  0  0
 58 66  1  0  0  0  0
 59 66  1  0  0  0  0
 60 77  1  0  0  0  0
 61 74  1  0  0  0  0
 62 85  1  0  0  0  0
 63 65  1  0  0  0  0
 63 75  1  0  0  0  0
 64 77  1  0  0  0  0
 66 76  1  0  0  0  0
 67 68  1  0  0  0  0
M  CHG  1  77   1
M  ISO  4  39 100  62 101  76 100  85 101
M  END
> <Batch ID>
0028

> <Smiles>
CNC(C)C(=O)NC(C(=O)N1Cc2cc([101O:1][101CH2:1]C(=O)NCc3ccc(C)c([100N:0]([100C:0](=O)N4CCCC(n5nc(-c6ccc(Oc7ccc(F)cc7F)cc6)c(C(N)=O)c5N)C4)C(C)(C)C)c3)ccc2CC1C(=O)NC1CCCc2ccccc21)C(C)(C)C

> <Shape>
0.246

> <Color>
0.071

> <Negative vol penalty>
0.000

$$$$
