
  -OEChem-04042321343D

 85 94  0     1  0  0  0  0  0999 V2000
  -33.3302  -27.9809   15.7334 C   0  0  0  0  0  0  0  0  0  0  0  0
  -32.8340  -27.3359   16.8618 C   0  0  0  0  0  0  0  0  0  0  0  0
  -23.2392   -9.6370   20.0126 C   0  0  0  0  0  0  0  0  0  0  0  0
  -23.8265   -9.9130   22.3398 C   0  0  0  0  0  0  0  0  0  0  0  0
  -33.1795  -29.3603   15.5976 C   0  0  0  0  0  0  0  0  0  0  0  0
  -32.1878  -28.0702   17.8556 C   0  0  0  0  0  0  0  0  0  0  0  0
  -27.9306  -25.8444   19.4577 C   0  0  0  0  0  0  0  0  0  0  0  0
  -30.8612  -19.3781   20.3344 C   0  0  0  0  0  0  0  0  0  0  0  0
  -30.7829  -17.9877   20.4350 C   0  0  0  0  0  0  0  0  0  0  0  0
  -22.5442   -8.4691   20.3265 C   0  0  0  0  0  0  0  0  0  0  0  0
  -23.1314   -8.7452   22.6537 C   0  0  0  0  0  0  0  0  0  0  0  0
  -28.0650  -24.7767   20.3441 C   0  0  0  0  0  0  0  0  0  0  0  0
  -19.9169   -7.8089   23.1133 C   0  0  0  0  0  0  0  0  0  0  0  0
  -19.0792   -7.8350   24.2282 C   0  0  0  0  0  0  0  0  0  0  0  0
  -27.5502  -26.2481   22.1851 C   0  0  0  0  0  0  0  0  0  0  0  0
  -29.0332  -18.2462   22.0389 C   0  0  0  0  0  0  0  0  0  0  0  0
  -20.3687   -6.0593   25.2387 C   0  0  0  0  0  0  0  0  0  0  0  0
  -23.8805  -10.3589   21.0192 C   0  0  0  0  0  0  0  0  0  0  0  0
  -24.0894  -12.8771   20.6687 C   0  0  0  0  0  0  0  0  0  0  0  0
  -32.5225  -30.1105   16.5857 C   0  0  0  0  0  0  0  0  0  0  0  0
  -27.6151  -27.1264   19.9303 C   0  0  0  0  0  0  0  0  0  0  0  0
  -32.0293  -29.4611   17.7335 C   0  0  0  0  0  0  0  0  0  0  0  0
  -27.4098  -27.3298   21.3023 C   0  0  0  0  0  0  0  0  0  0  0  0
  -30.0373  -20.2622   21.0829 C   0  0  0  0  0  0  0  0  0  0  0  0
  -29.0858  -19.6586   21.9381 C   0  0  0  0  0  0  0  0  0  0  0  0
  -29.8688  -17.4185   21.2978 C   0  0  0  0  0  0  0  0  0  0  0  0
  -22.4902   -8.0232   21.6470 C   0  0  0  0  0  0  0  0  0  0  0  0
  -27.8776  -24.9790   21.7083 C   0  0  0  0  0  0  0  0  0  0  0  0
  -20.9805   -6.9079   23.0610 C   0  0  0  0  0  0  0  0  0  0  0  0
  -19.3050   -6.9602   25.2909 C   0  0  0  0  0  0  0  0  0  0  0  0
  -21.2064   -6.0331   24.1237 C   0  0  0  0  0  0  0  0  0  0  0  0
  -24.5991  -11.5651   20.6955 C   0  0  0  0  0  0  0  0  0  0  0  0
  -25.1620  -13.6548   20.3066 C   0  0  0  0  0  0  0  0  0  0  0  0
  -27.7023  -21.6038   22.8730 C   0  0  0  0  0  0  0  0  0  0  0  0
  -22.7648  -13.3505   20.9463 C   0  0  0  0  0  0  0  0  0  0  0  0
  -29.0693  -29.9526   19.8898 C   0  0  0  0  0  0  0  0  0  0  0  0
  -26.2657  -30.9766   21.1602 C   0  0  0  0  0  0  0  0  0  0  0  0
  -23.4315  -30.2273   22.9073 C   0  0  0  0  0  0  0  0  0  0  0  0
  -30.5340  -15.0523   20.7453 C   0  0  0  0  0  0  0  0  0  0  0  0
  -32.4254  -31.6061   16.4170 C   0  0  0  0  0  0  0  0  0  0  0  0
  -27.4474  -28.2621   18.9584 C   0  0  0  0  0  0  0  0  0  0  0  0
  -27.0499  -28.6825   21.8584 C   0  0  0  0  0  0  0  0  0  0  0  0
  -31.3977  -32.2575   17.3388 C   0  0  0  0  0  0  0  0  0  0  0  0
  -29.7329  -12.3560   18.5624 C   0  0  0  0  0  0  0  0  0  0  0  0
  -31.5486  -31.7317   18.7627 C   0  0  0  0  0  0  0  0  0  0  0  0
  -28.2839  -12.0178   18.9205 C   0  0  0  0  0  0  0  0  0  0  0  0
  -30.5428  -12.7566   19.7941 C   0  0  0  0  0  0  0  0  0  0  0  0
  -29.8438  -22.5388   22.0161 C   0  0  0  0  0  0  0  0  0  0  0  0
  -28.5020  -13.4904   20.9628 C   0  0  0  0  0  0  0  0  0  0  0  0
  -31.3005  -30.2196   18.8215 C   0  0  1  0  0  0  0  0  0  0  0  0
  -28.3389  -22.6708   22.0211 C   0  0  2  0  0  0  0  0  0  1  0  0
  -27.6294  -29.6325   19.6035 C   0  0  1  0  0  0  0  0  0  0  0  0
  -27.6297  -13.1437   19.7452 C   0  0  2  0  0  0  0  0  0  0  0  0
  -32.4007  -22.3046   20.0874 C   0  0  0  0  0  0  0  0  0  0  0  0
  -21.3457  -31.2799   23.8230 C   0  0  0  0  0  0  0  0  0  0  0  0
  -27.8900  -32.2198   23.4243 C   0  0  0  0  0  0  0  0  0  0  0  0
  -25.7728  -32.4056   24.7476 C   0  0  0  0  0  0  0  0  0  0  0  0
  -26.0060  -33.6380   22.5913 C   0  0  0  0  0  0  0  0  0  0  0  0
  -21.6923  -28.4917   21.2575 C   0  0  0  0  0  0  0  0  0  0  0  0
  -30.9397  -22.1992   19.8099 C   0  0  0  0  0  0  0  0  0  0  0  0
  -25.7172  -31.1265   22.5586 C   0  0  1  0  0  0  0  0  0  0  0  0
  -21.9716  -30.5498   22.6448 C   0  0  2  0  0  0  0  0  0  0  0  0
  -26.3552  -32.3223   23.3205 C   0  0  0  0  0  0  0  0  0  0  0  0
  -25.8947  -11.5086   20.3758 N   0  0  0  0  0  0  0  0  0  0  0  0
  -26.2082  -12.7948   20.1445 N   0  0  0  0  0  0  0  0  0  0  0  0
  -28.1048  -20.3002   22.7383 N   0  0  0  0  0  0  0  0  0  0  0  0
  -30.2268  -21.6326   20.9501 N   0  0  3  0  0  0  0  0  0  0  0  0
  -26.9035  -29.7625   20.8686 N   0  0  0  0  0  0  0  0  0  0  0  0
  -29.8643  -13.8304   20.5232 N   0  0  0  0  0  0  0  0  0  0  0  0
  -25.3030  -14.9835   20.1142 N   0  0  0  0  0  0  0  0  0  0  0  0
  -21.7829  -12.4166   21.3041 N   0  0  0  0  0  0  0  0  0  0  0  0
  -29.7777  -16.0098   21.4205 N   0  0  0  0  0  0  0  0  0  0  0  0
  -29.8818  -29.9378   18.7722 N   0  0  0  0  0  0  0  0  0  0  0  0
  -24.2672  -31.2106   22.4214 N   0  0  0  0  0  0  0  0  0  0  0  0
  -21.1997  -29.2980   22.4039 N   0  3  0  0  0  0  0  0  0  0  0  0
  -26.7966  -21.8944   23.6628 O   0  0  0  0  0  0  0  0  0  0  0  0
  -22.4570  -14.5637   20.8632 O   0  0  0  0  0  0  0  0  0  0  0  0
  -29.4170  -30.1966   21.0392 O   0  0  0  0  0  0  0  0  0  0  0  0
  -26.1270  -31.9000   20.3540 O   0  0  0  0  0  0  0  0  0  0  0  0
  -23.7942  -29.2070   23.4887 O   0  0  0  0  0  0  0  0  0  0  0  0
  -31.6833  -15.2454   20.3408 O   0  0  0  0  0  0  0  0  0  0  0  0
  -21.8119   -6.8838   21.9538 O   0  0  0  0  0  0  0  0  0  0  0  0
  -28.0089  -23.9387   22.5757 O   0  0  0  0  0  0  0  0  0  1  0  0
  -18.5014   -6.9865   26.3622 F   0  0  0  0  0  0  0  0  0  0  0  0
  -22.2273   -5.1662   24.0798 F   0  0  0  0  0  0  0  0  0  0  0  0
  1  2  1  0  0  0  0
  1  5  2  0  0  0  0
  2  6  2  0  0  0  0
  3 10  2  0  0  0  0
  3 18  1  0  0  0  0
  4 11  1  0  0  0  0
  4 18  2  0  0  0  0
  5 20  1  0  0  0  0
  6 22  1  0  0  0  0
  7 12  2  0  0  0  0
  7 21  1  0  0  0  0
  8  9  2  0  0  0  0
  8 24  1  0  0  0  0
  9 26  1  0  0  0  0
 10 27  1  0  0  0  0
 11 27  2  0  0  0  0
 12 28  1  0  0  0  0
 13 14  2  0  0  0  0
 13 29  1  0  0  0  0
 14 30  1  0  0  0  0
 15 23  1  0  0  0  0
 15 28  2  0  0  0  0
 16 25  1  0  0  0  0
 16 26  2  0  0  0  0
 17 30  2  0  0  0  0
 17 31  1  0  0  0  0
 18 32  1  0  0  0  0
 19 32  1  0  0  0  0
 19 33  2  0  0  0  0
 19 35  1  0  0  0  0
 20 22  2  0  0  0  0
 20 40  1  0  0  0  0
 21 23  2  0  0  0  0
 21 41  1  0  0  0  0
 22 50  1  0  0  0  0
 23 42  1  0  0  0  0
 24 25  2  0  0  0  0
 24 67  1  0  0  0  0
 25 66  1  0  0  0  0
 26 72  1  0  0  0  0
 27 82  1  0  0  0  0
 28 83  1  0  0  0  0
 29 31  2  0  0  0  0
 29 82  1  0  0  0  0
 30 84  1  0  0  0  0
 31 85  1  0  0  0  0
 32 64  2  0  0  0  0
 33 65  1  0  0  0  0
 33 70  1  0  0  0  0
 34 51  1  0  0  0  0
 34 66  1  0  0  0  0
 34 76  2  0  0  0  0
 35 71  1  0  0  0  0
 35 77  2  0  0  0  0
 36 52  1  0  0  0  0
 36 73  1  0  0  0  0
 36 78  2  0  0  0  0
 37 61  1  0  0  0  0
 37 68  1  0  0  0  0
 37 79  2  0  0  0  0
 38 62  1  0  0  0  0
 38 74  1  0  0  0  0
 38 80  2  0  0  0  0
 39 69  1  0  0  0  0
 39 72  1  0  0  0  0
 39 81  2  0  0  0  0
 40 43  1  0  0  0  0
 41 52  1  0  0  0  0
 42 68  1  0  0  0  0
 43 45  1  0  0  0  0
 44 46  1  0  0  0  0
 44 47  1  0  0  0  0
 45 50  1  0  0  0  0
 46 53  1  0  0  0  0
 47 69  1  0  0  0  0
 48 51  1  0  0  0  0
 48 67  1  0  0  0  0
 49 53  1  0  0  0  0
 49 69  1  0  0  0  0
 50 73  1  0  0  0  0
 51 83  1  0  0  0  0
 52 68  1  0  0  0  0
 53 65  1  0  0  0  0
 54 60  1  0  0  0  0
 55 62  1  0  0  0  0
 56 63  1  0  0  0  0
 57 63  1  0  0  0  0
 58 63  1  0  0  0  0
 59 75  1  0  0  0  0
 60 67  1  0  0  0  0
 61 63  1  0  0  0  0
 61 74  1  0  0  0  0
 62 75  1  0  0  0  0
 64 65  1  0  0  0  0
M  CHG  1  75   1
M  ISO  4  39 100  51 101  72 100  83 101
M  END
> <Batch ID>
0029

> <Smiles>
CCN1C[101CH:1]([101O:1]c2ccc3c(c2)CN(C(=O)C(NC(=O)C(C)NC)C(C)(C)C)C(C(=O)NC2CCCc4ccccc42)C3)C(=O)Nc2cc([100NH:0][100C:0](=O)N3CCCC(n4nc(-c5ccc(Oc6ccc(F)cc6F)cc5)c(C(N)=O)c4N)C3)ccc21

> <Shape>
0.319

> <Color>
0.219

> <Negative vol penalty>
0.000

$$$$

  -OEChem-04042321343D

 92101  0     1  0  0  0  0  0999 V2000
  -30.0918  -35.7693   21.7616 C   0  0  0  0  0  0  0  0  0  0  0  0
  -29.7935  -34.8870   20.7282 C   0  0  0  0  0  0  0  0  0  0  0  0
  -28.7593  -21.6307   22.2109 C   0  0  0  0  0  0  0  0  0  0  0  0
  -23.4524  -10.1643   22.2075 C   0  0  0  0  0  0  0  0  0  0  0  0
  -23.9931   -9.4863   19.9524 C   0  0  0  0  0  0  0  0  0  0  0  0
  -29.8526  -35.3985   23.0842 C   0  0  0  0  0  0  0  0  0  0  0  0
  -29.2568  -33.6328   21.0169 C   0  0  0  0  0  0  0  0  0  0  0  0
  -24.7572  -28.7377   18.3508 C   0  0  0  0  0  0  0  0  0  0  0  0
  -28.9139  -22.4995   21.1307 C   0  0  0  0  0  0  0  0  0  0  0  0
  -27.7810  -20.6372   22.1726 C   0  0  0  0  0  0  0  0  0  0  0  0
  -22.5620   -9.0960   22.3152 C   0  0  0  0  0  0  0  0  0  0  0  0
  -23.1027   -8.4180   20.0601 C   0  0  0  0  0  0  0  0  0  0  0  0
  -24.7031  -27.3791   18.0426 C   0  0  0  0  0  0  0  0  0  0  0  0
  -22.7236   -5.7654   22.8752 C   0  0  0  0  0  0  0  0  0  0  0  0
  -22.7590   -5.0074   24.0456 C   0  0  0  0  0  0  0  0  0  0  0  0
  -24.2584  -26.8774   20.3599 C   0  0  0  0  0  0  0  0  0  0  0  0
  -20.4521   -5.5761   24.4837 C   0  0  0  0  0  0  0  0  0  0  0  0
  -24.1679  -10.3595   21.0260 C   0  0  0  0  0  0  0  0  0  0  0  0
  -26.4566  -11.4655   21.2413 C   0  0  0  0  0  0  0  0  0  0  0  0
  -29.3037  -34.1429   23.3886 C   0  0  0  0  0  0  0  0  0  0  0  0
  -24.5728  -29.1763   19.6699 C   0  0  0  0  0  0  0  0  0  0  0  0
  -29.0113  -33.2443   22.3449 C   0  0  0  0  0  0  0  0  0  0  0  0
  -24.3081  -28.2423   20.6818 C   0  0  0  0  0  0  0  0  0  0  0  0
  -28.0900  -22.3748   20.0120 C   0  0  0  0  0  0  0  0  0  0  0  0
  -27.1116  -21.3813   19.9736 C   0  0  0  0  0  0  0  0  0  0  0  0
  -26.9571  -20.5125   21.0539 C   0  0  0  0  0  0  0  0  0  0  0  0
  -22.3872   -8.2229   21.2415 C   0  0  0  0  0  0  0  0  0  0  0  0
  -24.4565  -26.4485   19.0477 C   0  0  0  0  0  0  0  0  0  0  0  0
  -21.5524   -6.4288   22.5091 C   0  0  0  0  0  0  0  0  0  0  0  0
  -21.6233   -4.9128   24.8499 C   0  0  0  0  0  0  0  0  0  0  0  0
  -20.4167   -6.3341   23.3133 C   0  0  0  0  0  0  0  0  0  0  0  0
  -25.0874  -11.4631   20.9140 C   0  0  0  0  0  0  0  0  0  0  0  0
  -26.8754  -12.7423   20.9570 C   0  0  0  0  0  0  0  0  0  0  0  0
  -27.2766  -10.4080   21.7563 C   0  0  0  0  0  0  0  0  0  0  0  0
  -26.3633  -30.7280   21.7889 C   0  0  0  0  0  0  0  0  0  0  0  0
  -23.6326  -30.6929   23.5395 C   0  0  0  0  0  0  0  0  0  0  0  0
  -20.6234  -29.2180   24.1845 C   0  0  0  0  0  0  0  0  0  0  0  0
  -26.3027  -18.1136   21.1437 C   0  0  0  0  0  0  0  0  0  0  0  0
  -29.1069  -33.7683   24.8363 C   0  0  0  0  0  0  0  0  0  0  0  0
  -24.6076  -30.6474   19.9814 C   0  0  0  0  0  0  0  0  0  0  0  0
  -24.0830  -28.6632   22.1103 C   0  0  0  0  0  0  0  0  0  0  0  0
  -28.1872  -32.5663   25.0348 C   0  0  0  0  0  0  0  0  0  0  0  0
  -24.5739  -16.4993   18.4888 C   0  0  0  0  0  0  0  0  0  0  0  0
  -30.8784  -23.5461   16.2584 C   0  0  0  0  0  0  0  0  0  0  0  0
  -30.4221  -22.1016   16.2973 C   0  0  0  0  0  0  0  0  0  0  0  0
  -28.5640  -31.4416   24.0757 C   0  0  0  0  0  0  0  0  0  0  0  0
  -24.6568  -15.0351   18.9187 C   0  0  0  0  0  0  0  0  0  0  0  0
  -24.3354  -17.4321   19.6766 C   0  0  0  0  0  0  0  0  0  0  0  0
  -25.3969  -15.8021   21.2067 C   0  0  0  0  0  0  0  0  0  0  0  0
  -29.8591  -24.2378   17.1378 C   0  0  0  0  0  0  0  0  0  0  0  0
  -30.0307  -21.8774   17.7474 C   0  0  0  0  0  0  0  0  0  0  0  0
  -28.4050  -31.8846   22.6163 C   0  0  1  0  0  0  0  0  0  0  0  0
  -24.9159  -30.9409   21.4464 C   0  0  1  0  0  0  0  0  0  0  0  0
  -25.6935  -14.8467   20.0402 C   0  0  1  0  0  0  0  0  0  0  0  0
  -20.5733  -22.0244   15.3340 C   0  0  0  0  0  0  0  0  0  0  0  0
  -18.6294  -29.3902   25.6983 C   0  0  0  0  0  0  0  0  0  0  0  0
  -25.2517  -29.4528   25.8091 C   0  0  0  0  0  0  0  0  0  0  0  0
  -23.0943  -28.7855   26.8902 C   0  0  0  0  0  0  0  0  0  0  0  0
  -23.6127  -31.1989   26.5298 C   0  0  0  0  0  0  0  0  0  0  0  0
  -24.5420  -19.8672   21.1483 C   0  0  0  0  0  0  0  0  0  0  0  0
  -18.7912  -29.6915   21.9090 C   0  0  0  0  0  0  0  0  0  0  0  0
  -28.2768  -23.3181   18.8690 C   0  0  0  0  0  0  0  0  0  0  0  0
  -26.2280  -21.2510   18.7682 C   0  0  0  0  0  0  0  0  0  0  0  0
  -21.4527  -22.1927   16.5260 C   0  0  0  0  0  0  0  0  0  0  0  0
  -24.3307  -22.2424   17.4812 C   0  0  0  0  0  0  0  0  0  0  0  0
  -23.9551  -24.7669   17.4425 C   0  0  0  0  0  0  0  0  0  1  0  0
  -23.0197  -29.7488   24.5455 C   0  0  1  0  0  0  0  0  0  0  0  0
  -19.2337  -29.8016   24.3648 C   0  0  2  0  0  0  0  0  0  0  0  0
  -23.3082  -23.3789   17.4807 C   0  0  1  0  0  0  0  0  0  0  0  0
  -23.7507  -29.7881   25.9172 C   0  0  0  0  0  0  0  0  0  0  0  0
  -24.6645  -12.6447   20.4568 N   0  0  0  0  0  0  0  0  0  0  0  0
  -25.7744  -13.4015   20.4949 N   0  0  0  0  0  0  0  0  0  0  0  0
  -24.1332  -30.1122   22.3656 N   0  0  0  0  0  0  0  0  0  0  0  0
  -25.3231  -17.1879   20.7373 N   0  0  0  0  0  0  0  0  0  0  0  0
  -28.0743  -13.3542   21.0597 N   0  0  0  0  0  0  0  0  0  0  0  0
  -26.6863   -9.1588   21.9911 N   0  0  0  0  0  0  0  0  0  0  0  0
  -27.0099  -31.8661   22.2317 N   0  0  0  0  0  0  0  0  0  0  0  0
  -21.6026  -30.0887   24.6137 N   0  0  0  0  0  0  0  0  0  0  0  0
  -22.4534  -23.2207   16.2981 N   0  0  0  0  0  0  0  0  0  0  0  0
  -25.9514  -19.4764   21.0358 N   0  0  0  0  0  0  0  0  0  0  0  0
  -29.6420  -23.2508   18.2637 N   0  3  0  0  0  0  0  0  0  0  0  0
  -18.3303  -29.3344   23.2754 N   0  3  0  0  0  0  0  0  0  0  0  0
  -25.1830  -22.3080   18.6942 N   0  3  0  0  0  0  0  0  0  0  0  0
  -28.4928  -10.5710   22.0164 O   0  0  0  0  0  0  0  0  0  0  0  0
  -26.8565  -29.6134   21.6623 O   0  0  0  0  0  0  0  0  0  0  0  0
  -23.6597  -31.9018   23.7831 O   0  0  0  0  0  0  0  0  0  0  0  0
  -20.8204  -28.0999   23.7137 O   0  0  0  0  0  0  0  0  0  0  0  0
  -27.3965  -17.7506   21.5928 O   0  0  0  0  0  0  0  0  0  0  0  0
  -21.5186   -7.1802   21.3464 O   0  0  0  0  0  0  0  0  0  0  0  0
  -24.4039  -25.1217   18.7498 O   0  0  0  0  0  0  0  0  0  1  0  0
  -21.6570   -4.1836   25.9730 F   0  0  0  0  0  0  0  0  0  0  0  0
  -19.2883   -6.9682   22.9661 F   0  0  0  0  0  0  0  0  0  0  0  0
  1  2  1  0  0  0  0
  1  6  2  0  0  0  0
  2  7  2  0  0  0  0
  3  9  1  0  0  0  0
  3 10  2  0  0  0  0
  4 11  2  0  0  0  0
  4 18  1  0  0  0  0
  5 12  1  0  0  0  0
  5 18  2  0  0  0  0
  6 20  1  0  0  0  0
  7 22  1  0  0  0  0
  8 13  2  0  0  0  0
  8 21  1  0  0  0  0
  9 24  2  0  0  0  0
 10 26  1  0  0  0  0
 11 27  1  0  0  0  0
 12 27  2  0  0  0  0
 13 28  1  0  0  0  0
 14 15  2  0  0  0  0
 14 29  1  0  0  0  0
 15 30  1  0  0  0  0
 16 23  1  0  0  0  0
 16 28  2  0  0  0  0
 17 30  2  0  0  0  0
 17 31  1  0  0  0  0
 18 32  1  0  0  0  0
 19 32  1  0  0  0  0
 19 33  2  0  0  0  0
 19 34  1  0  0  0  0
 20 22  2  0  0  0  0
 20 39  1  0  0  0  0
 21 23  2  0  0  0  0
 21 40  1  0  0  0  0
 22 52  1  0  0  0  0
 23 41  1  0  0  0  0
 24 25  1  0  0  0  0
 24 62  1  0  0  0  0
 25 26  2  0  0  0  0
 25 63  1  0  0  0  0
 26 80  1  0  0  0  0
 27 89  1  0  0  0  0
 28 90  1  0  0  0  0
 29 31  2  0  0  0  0
 29 89  1  0  0  0  0
 30 91  1  0  0  0  0
 31 92  1  0  0  0  0
 32 71  2  0  0  0  0
 33 72  1  0  0  0  0
 33 75  1  0  0  0  0
 34 76  1  0  0  0  0
 34 84  2  0  0  0  0
 35 53  1  0  0  0  0
 35 77  1  0  0  0  0
 35 85  2  0  0  0  0
 36 67  1  0  0  0  0
 36 73  1  0  0  0  0
 36 86  2  0  0  0  0
 37 68  1  0  0  0  0
 37 78  1  0  0  0  0
 37 87  2  0  0  0  0
 38 74  1  0  0  0  0
 38 80  1  0  0  0  0
 38 88  2  0  0  0  0
 39 42  1  0  0  0  0
 40 53  1  0  0  0  0
 41 73  1  0  0  0  0
 42 46  1  0  0  0  0
 43 47  1  0  0  0  0
 43 48  1  0  0  0  0
 44 45  1  0  0  0  0
 44 50  1  0  0  0  0
 45 51  1  0  0  0  0
 46 52  1  0  0  0  0
 47 54  1  0  0  0  0
 48 74  1  0  0  0  0
 49 54  1  0  0  0  0
 49 74  1  0  0  0  0
 50 81  1  0  0  0  0
 51 81  1  0  0  0  0
 52 77  1  0  0  0  0
 53 73  1  0  0  0  0
 54 72  1  0  0  0  0
 55 64  1  0  0  0  0
 56 68  1  0  0  0  0
 57 70  1  0  0  0  0
 58 70  1  0  0  0  0
 59 70  1  0  0  0  0
 60 80  1  0  0  0  0
 61 82  1  0  0  0  0
 62 81  1  0  0  0  0
 63 83  1  0  0  0  0
 64 79  1  0  0  0  0
 65 69  1  0  0  0  0
 65 83  1  0  0  0  0
 66 69  1  0  0  0  0
 66 90  1  0  0  0  0
 67 70  1  0  0  0  0
 67 78  1  0  0  0  0
 68 82  1  0  0  0  0
 69 79  1  0  0  0  0
 71 72  1  0  0  0  0
M  CHG  3  81   1  82   1  83   1
M  ISO  4  38 100  66 101  80 100  90 101
M  END
> <Batch ID>
0029

> <Smiles>
CCNC(CNCc1c(CN2CCCC2)cccc1[100N:0](C)[100C:0](=O)N1CCCC(n2nc(-c3ccc(Oc4ccc(F)cc4F)cc3)c(C(N)=O)c2N)C1)[101CH2:1][101O:1]c1ccc2c(c1)CN(C(=O)C(NC(=O)C(C)NC)C(C)(C)C)C(C(=O)NC1CCCc3ccccc31)C2

> <Shape>
0.274

> <Color>
0.094

> <Negative vol penalty>
0.000

$$$$

  -OEChem-04042321343D

 85 94  0     1  0  0  0  0  0999 V2000
  -16.6747  -29.5819   24.2102 C   0  0  0  0  0  0  0  0  0  0  0  0
  -17.0994  -28.4005   23.6107 C   0  0  0  0  0  0  0  0  0  0  0  0
  -25.4974  -13.9021   19.4975 C   0  0  0  0  0  0  0  0  0  0  0  0
  -25.0482  -13.5468   21.8446 C   0  0  0  0  0  0  0  0  0  0  0  0
  -17.3946  -30.7597   24.0141 C   0  0  0  0  0  0  0  0  0  0  0  0
  -18.2437  -28.3964   22.8138 C   0  0  0  0  0  0  0  0  0  0  0  0
  -22.3276  -23.8666   22.2590 C   0  0  0  0  0  0  0  0  0  0  0  0
  -27.9656  -17.7313   17.1300 C   0  0  0  0  0  0  0  0  0  0  0  0
  -26.7752  -18.2164   17.6716 C   0  0  0  0  0  0  0  0  0  0  0  0
  -25.4625  -12.5245   19.2822 C   0  0  0  0  0  0  0  0  0  0  0  0
  -25.0133  -12.1691   21.6293 C   0  0  0  0  0  0  0  0  0  0  0  0
  -22.4948  -22.8665   21.3021 C   0  0  0  0  0  0  0  0  0  0  0  0
  -24.4480   -8.5776   21.6327 C   0  0  0  0  0  0  0  0  0  0  0  0
  -23.4127   -7.8541   22.2245 C   0  0  0  0  0  0  0  0  0  0  0  0
  -24.1279  -24.2328   20.1683 C   0  0  0  0  0  0  0  0  0  0  0  0
  -28.0322  -19.4807   19.3021 C   0  0  0  0  0  0  0  0  0  0  0  0
  -21.7954   -9.1683   21.0020 C   0  0  0  0  0  0  0  0  0  0  0  0
  -25.2903  -14.4133   20.7787 C   0  0  0  0  0  0  0  0  0  0  0  0
  -24.2462  -16.7359   20.9314 C   0  0  0  0  0  0  0  0  0  0  0  0
  -18.5537  -30.7681   23.2222 C   0  0  0  0  0  0  0  0  0  0  0  0
  -23.0524  -25.0638   22.1715 C   0  0  0  0  0  0  0  0  0  0  0  0
  -18.9790  -29.5757   22.6058 C   0  0  0  0  0  0  0  0  0  0  0  0
  -23.9699  -25.2454   21.1268 C   0  0  0  0  0  0  0  0  0  0  0  0
  -29.1893  -18.1209   17.6745 C   0  0  0  0  0  0  0  0  0  0  0  0
  -26.8085  -19.0911   18.7576 C   0  0  0  0  0  0  0  0  0  0  0  0
  -29.2226  -18.9956   18.7605 C   0  0  0  0  0  0  0  0  0  0  0  0
  -25.2204  -11.6579   20.3481 C   0  0  0  0  0  0  0  0  0  0  0  0
  -23.3930  -23.0506   20.2550 C   0  0  0  0  0  0  0  0  0  0  0  0
  -24.1570   -9.5966   20.7256 C   0  0  0  0  0  0  0  0  0  0  0  0
  -22.0864   -8.1494   21.9091 C   0  0  0  0  0  0  0  0  0  0  0  0
  -22.8308   -9.8919   20.4102 C   0  0  0  0  0  0  0  0  0  0  0  0
  -25.3268  -15.8364   21.0018 C   0  0  0  0  0  0  0  0  0  0  0  0
  -24.7982  -17.9592   21.2231 C   0  0  0  0  0  0  0  0  0  0  0  0
  -31.2011  -21.3863   16.5800 C   0  0  0  0  0  0  0  0  0  0  0  0
  -31.3471  -21.1172   17.8823 C   0  0  0  0  0  0  0  0  0  0  0  0
  -22.8667  -16.4877   20.6294 C   0  0  0  0  0  0  0  0  0  0  0  0
  -22.2871  -28.1289   21.8209 C   0  0  0  0  0  0  0  0  0  0  0  0
  -25.4684  -28.5724   22.2732 C   0  0  0  0  0  0  0  0  0  0  0  0
  -28.5268  -26.9849   21.2037 C   0  0  0  0  0  0  0  0  0  0  0  0
  -30.6302  -19.7441   20.6969 C   0  0  0  0  0  0  0  0  0  0  0  0
  -19.2721  -32.0755   23.0008 C   0  0  0  0  0  0  0  0  0  0  0  0
  -22.8802  -26.1218   23.2266 C   0  0  0  0  0  0  0  0  0  0  0  0
  -24.7872  -26.5041   20.9990 C   0  0  0  0  0  0  0  0  0  0  0  0
  -20.6846  -31.9081   22.4466 C   0  0  0  0  0  0  0  0  0  0  0  0
  -28.3904  -19.9945   23.6318 C   0  0  0  0  0  0  0  0  0  0  0  0
  -20.6901  -30.9129   21.2906 C   0  0  0  0  0  0  0  0  0  0  0  0
  -27.3035  -18.9682   23.3177 C   0  0  0  0  0  0  0  0  0  0  0  0
  -29.7253  -19.6185   22.9960 C   0  0  0  0  0  0  0  0  0  0  0  0
  -28.5523  -18.3708   21.2046 C   0  0  0  0  0  0  0  0  0  0  0  0
  -24.3985  -19.7982   18.6081 C   0  0  0  0  0  0  0  0  0  0  0  0
  -25.4736  -20.6670   20.1947 C   0  0  0  0  0  0  0  0  0  0  0  0
  -20.2292  -29.5259   21.7546 C   0  0  1  0  0  0  0  0  0  0  0  0
  -23.2923  -27.5118   22.7517 C   0  0  1  0  0  0  0  0  0  0  0  0
  -27.1877  -18.7479   21.8004 C   0  0  1  0  0  0  0  0  0  0  0  0
  -24.0121  -20.7671   19.7346 C   0  0  0  0  0  0  0  0  0  1  0  0
  -30.4485  -17.5854   17.0740 C   0  0  0  0  0  0  0  0  0  0  0  0
  -30.7855  -26.8943   22.2933 C   0  0  0  0  0  0  0  0  0  0  0  0
  -26.0865  -30.9982   20.5286 C   0  0  0  0  0  0  0  0  0  0  0  0
  -28.3909  -30.0800   20.1896 C   0  0  0  0  0  0  0  0  0  0  0  0
  -27.6212  -30.6986   22.4804 C   0  0  0  0  0  0  0  0  0  0  0  0
  -28.5697  -24.0264   21.1352 C   0  0  0  0  0  0  0  0  0  0  0  0
  -31.5714  -19.7463   18.4285 C   0  0  0  0  0  0  0  0  0  0  0  0
  -26.6784  -28.6309   21.3723 C   0  0  1  0  0  0  0  0  0  0  0  0
  -29.4723  -26.1633   22.0613 C   0  0  2  0  0  0  0  0  0  0  0  0
  -27.1714  -30.0865   21.1359 C   0  0  0  0  0  0  0  0  0  0  0  0
  -26.4783  -16.4371   21.3136 N   0  0  0  0  0  0  0  0  0  0  0  0
  -26.1243  -17.7272   21.4416 N   0  0  0  0  0  0  0  0  0  0  0  0
  -25.6217  -19.5744   19.2972 N   0  0  0  0  0  0  0  0  0  0  0  0
  -24.5785  -27.5118   22.0519 N   0  0  0  0  0  0  0  0  0  0  0  0
  -29.5883  -19.3532   21.5630 N   0  0  0  0  0  0  0  0  0  0  0  0
  -24.2738  -19.2001   21.3113 N   0  0  0  0  0  0  0  0  0  0  0  0
  -22.4693  -15.1724   20.3535 N   0  0  0  0  0  0  0  0  0  0  0  0
  -21.2959  -28.8487   22.4604 N   0  0  0  0  0  0  0  0  0  0  0  0
  -27.6766  -27.7519   21.9718 N   0  0  0  0  0  0  0  0  0  0  0  0
  -30.4779  -19.4104   19.3376 N   0  0  0  0  0  0  0  0  0  0  0  0
  -29.7698  -24.8604   21.4019 N   0  3  0  0  0  0  0  0  0  0  0  0
  -22.0150  -17.4077   20.5889 O   0  0  0  0  0  0  0  0  0  0  0  0
  -22.4030  -27.9654   20.6120 O   0  0  0  0  0  0  0  0  0  0  0  0
  -25.3221  -29.4318   23.1458 O   0  0  0  0  0  0  0  0  0  0  0  0
  -28.5434  -26.9524   19.9752 O   0  0  0  0  0  0  0  0  0  0  0  0
  -31.6524  -20.3028   21.1134 O   0  0  0  0  0  0  0  0  0  0  0  0
  -25.1860  -10.3135   20.1384 O   0  0  0  0  0  0  0  0  0  0  0  0
  -23.5577  -22.0764   19.3193 O   0  0  0  0  0  0  0  0  0  1  0  0
  -21.0924   -7.4534   22.4763 F   0  0  0  0  0  0  0  0  0  0  0  0
  -22.5451  -10.8689   19.5387 F   0  0  0  0  0  0  0  0  0  0  0  0
  1  2  1  0  0  0  0
  1  5  2  0  0  0  0
  2  6  2  0  0  0  0
  3 10  2  0  0  0  0
  3 18  1  0  0  0  0
  4 11  1  0  0  0  0
  4 18  2  0  0  0  0
  5 20  1  0  0  0  0
  6 22  1  0  0  0  0
  7 12  2  0  0  0  0
  7 21  1  0  0  0  0
  8  9  2  0  0  0  0
  8 24  1  0  0  0  0
  9 25  1  0  0  0  0
 10 27  1  0  0  0  0
 11 27  2  0  0  0  0
 12 28  1  0  0  0  0
 13 14  2  0  0  0  0
 13 29  1  0  0  0  0
 14 30  1  0  0  0  0
 15 23  1  0  0  0  0
 15 28  2  0  0  0  0
 16 25  2  0  0  0  0
 16 26  1  0  0  0  0
 17 30  2  0  0  0  0
 17 31  1  0  0  0  0
 18 32  1  0  0  0  0
 19 32  1  0  0  0  0
 19 33  2  0  0  0  0
 19 36  1  0  0  0  0
 20 22  2  0  0  0  0
 20 41  1  0  0  0  0
 21 23  2  0  0  0  0
 21 42  1  0  0  0  0
 22 52  1  0  0  0  0
 23 43  1  0  0  0  0
 24 26  2  0  0  0  0
 24 56  1  0  0  0  0
 25 68  1  0  0  0  0
 26 75  1  0  0  0  0
 27 82  1  0  0  0  0
 28 83  1  0  0  0  0
 29 31  2  0  0  0  0
 29 82  1  0  0  0  0
 30 84  1  0  0  0  0
 31 85  1  0  0  0  0
 32 66  2  0  0  0  0
 33 67  1  0  0  0  0
 33 71  1  0  0  0  0
 34 35  2  0  0  0  0
 35 62  1  0  0  0  0
 36 72  1  0  0  0  0
 36 77  2  0  0  0  0
 37 53  1  0  0  0  0
 37 73  1  0  0  0  0
 37 78  2  0  0  0  0
 38 63  1  0  0  0  0
 38 69  1  0  0  0  0
 38 79  2  0  0  0  0
 39 64  1  0  0  0  0
 39 74  1  0  0  0  0
 39 80  2  0  0  0  0
 40 70  1  0  0  0  0
 40 75  1  0  0  0  0
 40 81  2  0  0  0  0
 41 44  1  0  0  0  0
 42 53  1  0  0  0  0
 43 69  1  0  0  0  0
 44 46  1  0  0  0  0
 45 47  1  0  0  0  0
 45 48  1  0  0  0  0
 46 52  1  0  0  0  0
 47 54  1  0  0  0  0
 48 70  1  0  0  0  0
 49 54  1  0  0  0  0
 49 70  1  0  0  0  0
 50 55  1  0  0  0  0
 50 68  1  0  0  0  0
 51 55  1  0  0  0  0
 51 68  1  0  0  0  0
 52 73  1  0  0  0  0
 53 69  1  0  0  0  0
 54 67  1  0  0  0  0
 55 83  1  0  0  0  0
 57 64  1  0  0  0  0
 58 65  1  0  0  0  0
 59 65  1  0  0  0  0
 60 65  1  0  0  0  0
 61 76  1  0  0  0  0
 62 75  1  0  0  0  0
 63 65  1  0  0  0  0
 63 74  1  0  0  0  0
 64 76  1  0  0  0  0
 66 67  1  0  0  0  0
M  CHG  1  76   1
M  ISO  4  40 100  55 101  75 100  83 101
M  END
> <Batch ID>
0029

> <Smiles>
C=CC[100N:0](c1cc(N2C[101CH:1]([101O:1]c3ccc4c(c3)CN(C(=O)C(NC(=O)C(C)NC)C(C)(C)C)C(C(=O)NC3CCCc5ccccc53)C4)C2)ccc1C)[100C:0](=O)N1CCCC(n2nc(-c3ccc(Oc4ccc(F)cc4F)cc3)c(C(N)=O)c2N)C1

> <Shape>
0.226

> <Color>
0.089

> <Negative vol penalty>
0.000

$$$$

  -OEChem-04042321343D

 89 99  0     1  0  0  0  0  0999 V2000
  -30.7350  -26.1398   16.8791 C   0  0  0  0  0  0  0  0  0  0  0  0
  -29.3811  -25.9068   17.0987 C   0  0  0  0  0  0  0  0  0  0  0  0
  -18.8802  -21.4795   19.4655 C   0  0  0  0  0  0  0  0  0  0  0  0
  -20.8400  -13.0610   22.6543 C   0  0  0  0  0  0  0  0  0  0  0  0
  -20.5144  -12.4709   20.3342 C   0  0  0  0  0  0  0  0  0  0  0  0
  -31.5059  -26.7482   17.8687 C   0  0  0  0  0  0  0  0  0  0  0  0
  -28.7977  -26.2812   18.3086 C   0  0  0  0  0  0  0  0  0  0  0  0
  -23.0993  -28.3565   19.1616 C   0  0  0  0  0  0  0  0  0  0  0  0
  -19.8080  -20.8839   18.6126 C   0  0  0  0  0  0  0  0  0  0  0  0
  -19.2012  -22.6626   20.1185 C   0  0  0  0  0  0  0  0  0  0  0  0
  -19.7484  -12.2684   23.0091 C   0  0  0  0  0  0  0  0  0  0  0  0
  -19.4229  -11.6783   20.6890 C   0  0  0  0  0  0  0  0  0  0  0  0
  -21.9262  -27.7308   19.5812 C   0  0  0  0  0  0  0  0  0  0  0  0
  -17.2693  -10.1141   24.5674 C   0  0  0  0  0  0  0  0  0  0  0  0
  -17.4097   -9.2739   25.6718 C   0  0  0  0  0  0  0  0  0  0  0  0
  -22.3414  -28.4785   21.8368 C   0  0  0  0  0  0  0  0  0  0  0  0
  -19.2415   -8.1411   24.5772 C   0  0  0  0  0  0  0  0  0  0  0  0
  -21.2230  -13.1623   21.3169 C   0  0  0  0  0  0  0  0  0  0  0  0
  -23.6975  -13.5831   20.8617 C   0  0  0  0  0  0  0  0  0  0  0  0
  -30.9296  -27.1389   19.0876 C   0  0  0  0  0  0  0  0  0  0  0  0
  -23.9093  -29.0397   20.0800 C   0  0  0  0  0  0  0  0  0  0  0  0
  -29.5620  -26.8941   19.3160 C   0  0  0  0  0  0  0  0  0  0  0  0
  -23.5230  -29.1141   21.4259 C   0  0  0  0  0  0  0  0  0  0  0  0
  -21.4057  -22.6568   19.0724 C   0  0  0  0  0  0  0  0  0  0  0  0
  -21.0712  -21.4672   18.3998 C   0  0  0  0  0  0  0  0  0  0  0  0
  -20.4544  -23.2431   19.9274 C   0  0  0  0  0  0  0  0  0  0  0  0
  -19.0399  -11.5770   22.0264 C   0  0  0  0  0  0  0  0  0  0  0  0
  -21.5486  -27.7893   20.9195 C   0  0  0  0  0  0  0  0  0  0  0  0
  -18.1150   -9.9678   23.4677 C   0  0  0  0  0  0  0  0  0  0  0  0
  -18.3958   -8.2874   25.6767 C   0  0  0  0  0  0  0  0  0  0  0  0
  -19.1011   -8.9813   23.4726 C   0  0  0  0  0  0  0  0  0  0  0  0
  -22.3501  -13.9813   20.9497 C   0  0  0  0  0  0  0  0  0  0  0  0
  -24.3670  -14.7194   20.4779 C   0  0  0  0  0  0  0  0  0  0  0  0
  -24.2909  -12.3008   21.1050 C   0  0  0  0  0  0  0  0  0  0  0  0
  -26.8948  -28.7071   21.1193 C   0  0  0  0  0  0  0  0  0  0  0  0
  -26.2552  -31.4894   22.6596 C   0  0  0  0  0  0  0  0  0  0  0  0
  -23.9199  -33.6034   23.9727 C   0  0  0  0  0  0  0  0  0  0  0  0
  -22.4285  -19.5275   17.6037 C   0  0  0  0  0  0  0  0  0  0  0  0
  -31.8135  -27.7503   20.1457 C   0  0  0  0  0  0  0  0  0  0  0  0
  -25.1579  -29.7321   19.6065 C   0  0  0  0  0  0  0  0  0  0  0  0
  -22.7920  -23.2531   19.0249 C   0  0  0  0  0  0  0  0  0  0  0  0
  -24.3472  -29.8522   22.4478 C   0  0  0  0  0  0  0  0  0  0  0  0
  -31.0373  -28.4565   21.2543 C   0  0  0  0  0  0  0  0  0  0  0  0
  -24.9517  -25.2768   16.5218 C   0  0  0  0  0  0  0  0  0  0  0  0
  -25.3196  -24.1489   15.5704 C   0  0  0  0  0  0  0  0  0  0  0  0
  -24.0495  -19.4098   20.8421 C   0  0  0  0  0  0  0  0  0  0  0  0
  -29.8841  -27.5832   21.7382 C   0  0  0  0  0  0  0  0  0  0  0  0
  -24.4248  -24.7311   17.8430 C   0  0  0  0  0  0  0  0  0  0  0  0
  -24.1415  -23.2080   15.3526 C   0  0  0  0  0  0  0  0  0  0  0  0
  -23.9230  -17.9341   21.2225 C   0  0  0  0  0  0  0  0  0  0  0  0
  -22.8333  -19.9044   20.0625 C   0  0  0  0  0  0  0  0  0  0  0  0
  -22.3978  -21.7283   16.3549 C   0  0  0  0  0  0  0  0  0  0  0  0
  -22.3828  -17.6140   19.2516 C   0  0  0  0  0  0  0  0  0  0  0  0
  -28.8873  -27.3083   20.6058 C   0  0  1  0  0  0  0  0  0  0  0  0
  -26.1725  -29.9634   20.7221 C   0  0  1  0  0  0  0  0  0  0  0  0
  -23.2266  -23.7791   17.6499 C   0  0  1  0  0  0  0  0  0  0  0  0
  -23.5932  -22.6362   16.6766 C   0  0  2  0  0  0  0  0  0  0  0  0
  -23.6192  -17.0742   19.9833 C   0  0  2  0  0  0  0  0  0  0  0  0
  -23.7031  -35.7810   25.2009 C   0  0  0  0  0  0  0  0  0  0  0  0
  -19.7738  -26.6113   23.5608 C   0  0  0  0  0  0  0  0  0  0  0  0
  -27.1423  -30.1205   25.2382 C   0  0  0  0  0  0  0  0  0  0  0  0
  -26.0290  -31.9626   26.5170 C   0  0  0  0  0  0  0  0  0  0  0  0
  -27.9291  -32.4809   24.9861 C   0  0  0  0  0  0  0  0  0  0  0  0
  -22.3522  -34.8192   21.7766 C   0  0  0  0  0  0  0  0  0  0  0  0
  -19.9860  -24.8405   21.7860 C   0  0  0  0  0  0  0  0  0  0  0  0
  -25.6829  -31.8584   24.0069 C   0  0  1  0  0  0  0  0  0  0  0  0
  -23.7313  -35.1038   23.8396 C   0  0  2  0  0  0  0  0  0  0  0  0
  -20.5372  -26.1587   22.3246 C   0  0  1  0  0  0  0  0  0  1  0  0
  -26.6811  -31.5900   25.1684 C   0  0  0  0  0  0  0  0  0  0  0  0
  -22.1724  -15.2699   20.6464 N   0  0  0  0  0  0  0  0  0  0  0  0
  -23.4170  -15.6913   20.3641 N   0  0  0  0  0  0  0  0  0  0  0  0
  -21.9759  -20.8602   17.4663 N   0  0  0  0  0  0  0  0  0  0  0  0
  -25.5625  -30.5076   21.9370 N   0  0  0  0  0  0  0  0  0  0  0  0
  -22.5439  -19.0366   18.9202 N   0  0  0  0  0  0  0  0  0  0  0  0
  -25.6698  -14.9719   20.2301 N   0  0  0  0  0  0  0  0  0  0  0  0
  -23.4583  -11.2419   21.4920 N   0  0  0  0  0  0  0  0  0  0  0  0
  -20.7219  -24.4443   20.6299 N   0  0  0  0  0  0  0  0  0  0  0  0
  -28.0404  -28.4612   20.3869 N   0  0  0  0  0  0  0  0  0  0  0  0
  -25.2501  -33.2475   23.9000 N   0  0  0  0  0  0  0  0  0  0  0  0
  -22.4512  -35.4047   23.1384 N   0  3  0  0  0  0  0  0  0  0  0  0
  -25.5252  -12.1040   20.9989 O   0  0  0  0  0  0  0  0  0  0  0  0
  -26.4466  -28.0131   22.0244 O   0  0  0  0  0  0  0  0  0  0  0  0
  -27.2750  -32.0566   22.2598 O   0  0  0  0  0  0  0  0  0  0  0  0
  -22.9815  -32.8254   24.1295 O   0  0  0  0  0  0  0  0  0  0  0  0
  -22.7261  -18.8297   16.6267 O   0  0  0  0  0  0  0  0  0  0  0  0
  -17.9748  -10.8033   22.3723 O   0  0  0  0  0  0  0  0  0  0  0  0
  -20.3979  -27.1755   21.3342 O   0  0  0  0  0  0  0  0  0  1  0  0
  -18.5315   -7.4816   26.7381 F   0  0  0  0  0  0  0  0  0  0  0  0
  -19.9172   -8.8367   22.4197 F   0  0  0  0  0  0  0  0  0  0  0  0
  1  2  1  0  0  0  0
  1  6  2  0  0  0  0
  2  7  2  0  0  0  0
  3  9  1  0  0  0  0
  3 10  2  0  0  0  0
  4 11  2  0  0  0  0
  4 18  1  0  0  0  0
  5 12  1  0  0  0  0
  5 18  2  0  0  0  0
  6 20  1  0  0  0  0
  7 22  1  0  0  0  0
  8 13  2  0  0  0  0
  8 21  1  0  0  0  0
  9 25  2  0  0  0  0
 10 26  1  0  0  0  0
 11 27  1  0  0  0  0
 12 27  2  0  0  0  0
 13 28  1  0  0  0  0
 14 15  2  0  0  0  0
 14 29  1  0  0  0  0
 15 30  1  0  0  0  0
 16 23  1  0  0  0  0
 16 28  2  0  0  0  0
 17 30  2  0  0  0  0
 17 31  1  0  0  0  0
 18 32  1  0  0  0  0
 19 32  1  0  0  0  0
 19 33  2  0  0  0  0
 19 34  1  0  0  0  0
 20 22  2  0  0  0  0
 20 39  1  0  0  0  0
 21 23  2  0  0  0  0
 21 40  1  0  0  0  0
 22 54  1  0  0  0  0
 23 42  1  0  0  0  0
 24 25  1  0  0  0  0
 24 26  2  0  0  0  0
 24 41  1  0  0  0  0
 25 72  1  0  0  0  0
 26 77  1  0  0  0  0
 27 86  1  0  0  0  0
 28 87  1  0  0  0  0
 29 31  2  0  0  0  0
 29 86  1  0  0  0  0
 30 88  1  0  0  0  0
 31 89  1  0  0  0  0
 32 70  2  0  0  0  0
 33 71  1  0  0  0  0
 33 75  1  0  0  0  0
 34 76  1  0  0  0  0
 34 81  2  0  0  0  0
 35 55  1  0  0  0  0
 35 78  1  0  0  0  0
 35 82  2  0  0  0  0
 36 66  1  0  0  0  0
 36 73  1  0  0  0  0
 36 83  2  0  0  0  0
 37 67  1  0  0  0  0
 37 79  1  0  0  0  0
 37 84  2  0  0  0  0
 38 72  1  0  0  0  0
 38 74  1  0  0  0  0
 38 85  2  0  0  0  0
 39 43  1  0  0  0  0
 40 55  1  0  0  0  0
 41 56  1  0  0  0  0
 42 73  1  0  0  0  0
 43 47  1  0  0  0  0
 44 45  1  0  0  0  0
 44 48  1  0  0  0  0
 45 49  1  0  0  0  0
 46 50  1  0  0  0  0
 46 51  1  0  0  0  0
 47 54  1  0  0  0  0
 48 56  1  0  0  0  0
 49 57  1  0  0  0  0
 50 58  1  0  0  0  0
 51 74  1  0  0  0  0
 52 57  1  0  0  0  0
 52 72  1  0  0  0  0
 53 58  1  0  0  0  0
 53 74  1  0  0  0  0
 54 78  1  0  0  0  0
 55 73  1  0  0  0  0
 56 57  1  0  0  0  0
 58 71  1  0  0  0  0
 59 67  1  0  0  0  0
 60 68  1  0  0  0  0
 61 69  1  0  0  0  0
 62 69  1  0  0  0  0
 63 69  1  0  0  0  0
 64 80  1  0  0  0  0
 65 68  1  0  0  0  0
 65 77  1  0  0  0  0
 66 69  1  0  0  0  0
 66 79  1  0  0  0  0
 67 80  1  0  0  0  0
 68 87  1  0  0  0  0
 70 71  1  0  0  0  0
M  CHG  1  80   1
M  ISO  4  38 100  68 101  72 100  87 101
M  END
> <Batch ID>
0029

> <Smiles>
CNC(C)C(=O)NC(C(=O)N1Cc2cc([101O:1][101CH:1](C)CNc3cccc4c3CC3CCCCC3C[100N:0]4[100C:0](=O)N3CCCC(n4nc(-c5ccc(Oc6ccc(F)cc6F)cc5)c(C(N)=O)c4N)C3)ccc2CC1C(=O)NC1CCCc2ccccc21)C(C)(C)C

> <Shape>
0.226

> <Color>
0.111

> <Negative vol penalty>
0.000

$$$$

  -OEChem-04042321343D

 89 99  0     1  0  0  0  0  0999 V2000
  -33.3370  -32.5297   24.7013 C   0  0  0  0  0  0  0  0  0  0  0  0
  -33.3291  -31.1942   25.0910 C   0  0  0  0  0  0  0  0  0  0  0  0
  -23.0000  -10.0488   19.8901 C   0  0  0  0  0  0  0  0  0  0  0  0
  -23.8494   -9.8446   22.1427 C   0  0  0  0  0  0  0  0  0  0  0  0
  -32.2456  -33.0609   24.0153 C   0  0  0  0  0  0  0  0  0  0  0  0
  -32.2293  -30.3894   24.7958 C   0  0  0  0  0  0  0  0  0  0  0  0
  -33.5710  -25.8479   23.0017 C   0  0  0  0  0  0  0  0  0  0  0  0
  -22.2242   -8.9051   20.0790 C   0  0  0  0  0  0  0  0  0  0  0  0
  -23.0735   -8.7010   22.3316 C   0  0  0  0  0  0  0  0  0  0  0  0
  -34.0064  -24.9008   23.9275 C   0  0  0  0  0  0  0  0  0  0  0  0
  -19.8441   -7.9671   23.0047 C   0  0  0  0  0  0  0  0  0  0  0  0
  -19.1329   -7.8584   24.1996 C   0  0  0  0  0  0  0  0  0  0  0  0
  -31.8286  -23.8643   23.8825 C   0  0  0  0  0  0  0  0  0  0  0  0
  -30.2006  -17.1200   23.3893 C   0  0  0  0  0  0  0  0  0  0  0  0
  -32.3275  -16.2491   22.6444 C   0  0  0  0  0  0  0  0  0  0  0  0
  -20.3294   -5.8268   24.7269 C   0  0  0  0  0  0  0  0  0  0  0  0
  -23.8127  -10.5185   20.9219 C   0  0  0  0  0  0  0  0  0  0  0  0
  -24.2432  -13.0321   20.9883 C   0  0  0  0  0  0  0  0  0  0  0  0
  -31.1359  -32.2598   23.7032 C   0  0  0  0  0  0  0  0  0  0  0  0
  -32.2556  -25.8168   22.5167 C   0  0  0  0  0  0  0  0  0  0  0  0
  -31.1215  -30.9108   24.1062 C   0  0  0  0  0  0  0  0  0  0  0  0
  -31.3797  -24.8106   22.9487 C   0  0  0  0  0  0  0  0  0  0  0  0
  -30.8549  -17.9078   24.3363 C   0  0  0  0  0  0  0  0  0  0  0  0
  -32.2454  -17.8663   24.4374 C   0  0  0  0  0  0  0  0  0  0  0  0
  -30.9369  -16.2906   22.5434 C   0  0  0  0  0  0  0  0  0  0  0  0
  -22.2609   -8.2312   21.2997 C   0  0  0  0  0  0  0  0  0  0  0  0
  -33.1344  -23.9105   24.3703 C   0  0  0  0  0  0  0  0  0  0  0  0
  -20.7979   -7.0056   22.6708 C   0  0  0  0  0  0  0  0  0  0  0  0
  -19.3755   -6.7883   25.0608 C   0  0  0  0  0  0  0  0  0  0  0  0
  -21.0406   -5.9355   23.5319 C   0  0  0  0  0  0  0  0  0  0  0  0
  -32.9818  -17.0369   23.5914 C   0  0  0  0  0  0  0  0  0  0  0  0
  -24.6148  -11.6995   20.7273 C   0  0  0  0  0  0  0  0  0  0  0  0
  -25.3474  -13.7709   20.6399 C   0  0  0  0  0  0  0  0  0  0  0  0
  -23.0103  -13.5552   21.5001 C   0  0  0  0  0  0  0  0  0  0  0  0
  -29.7765  -27.8031   22.6276 C   0  0  0  0  0  0  0  0  0  0  0  0
  -28.4311  -25.6132   20.6486 C   0  0  0  0  0  0  0  0  0  0  0  0
  -28.2939  -22.0160   20.4061 C   0  0  0  0  0  0  0  0  0  0  0  0
  -30.8513  -14.6129   20.6660 C   0  0  0  0  0  0  0  0  0  0  0  0
  -29.9593  -32.8908   23.0016 C   0  0  0  0  0  0  0  0  0  0  0  0
  -31.8093  -26.8295   21.4981 C   0  0  0  0  0  0  0  0  0  0  0  0
  -29.9636  -24.7213   22.4434 C   0  0  0  0  0  0  0  0  0  0  0  0
  -28.9932  -31.8744   22.3984 C   0  0  0  0  0  0  0  0  0  0  0  0
  -29.5555  -12.4375   18.1628 C   0  0  0  0  0  0  0  0  0  0  0  0
  -28.6426  -16.8741   28.0627 C   0  0  0  0  0  0  0  0  0  0  0  0
  -28.0551  -18.2688   28.1425 C   0  0  0  0  0  0  0  0  0  0  0  0
  -28.6861  -30.7683   23.4029 C   0  0  0  0  0  0  0  0  0  0  0  0
  -28.1240  -12.1612   18.6283 C   0  0  0  0  0  0  0  0  0  0  0  0
  -30.5251  -12.5373   19.3391 C   0  0  0  0  0  0  0  0  0  0  0  0
  -28.7023  -13.2121   20.8528 C   0  0  0  0  0  0  0  0  0  0  0  0
  -29.3201  -16.8787   26.7092 C   0  0  0  0  0  0  0  0  0  0  0  0
  -29.1415  -19.1601   27.5669 C   0  0  0  0  0  0  0  0  0  0  0  0
  -33.1920  -20.7575   24.1336 C   0  0  0  0  0  0  0  0  0  0  0  0
  -34.3629  -20.6650   25.8608 C   0  0  0  0  0  0  0  0  0  0  0  0
  -29.9575  -29.9995   23.7826 C   0  0  1  0  0  0  0  0  0  0  0  0
  -30.2951  -27.0118   21.4604 C   0  0  1  0  0  0  0  0  0  0  0  0
  -27.6780  -13.1677   19.7071 C   0  0  2  0  0  0  0  0  0  0  0  0
  -34.1457  -21.7623   24.8041 C   0  0  0  0  0  0  0  0  0  1  0  0
  -27.9743  -20.5262   18.4122 C   0  0  0  0  0  0  0  0  0  0  0  0
  -25.4803  -25.7002   21.4198 C   0  0  0  0  0  0  0  0  0  0  0  0
  -25.3148  -23.2841   20.7847 C   0  0  0  0  0  0  0  0  0  0  0  0
  -25.9223  -24.9853   19.0644 C   0  0  0  0  0  0  0  0  0  0  0  0
  -30.7822  -20.5199   20.9797 C   0  0  0  0  0  0  0  0  0  0  0  0
  -30.0419  -18.7862   25.2303 C   0  0  0  0  0  0  0  0  0  0  0  0
  -32.9336  -18.7190   25.4622 C   0  0  0  0  0  0  0  0  0  0  0  0
  -27.6101  -24.3609   20.8401 C   0  0  1  0  0  0  0  0  0  0  0  0
  -28.9811  -21.1483   19.3673 C   0  0  2  0  0  0  0  0  0  0  0  0
  -26.1007  -24.5912   20.5468 C   0  0  0  0  0  0  0  0  0  0  0  0
  -25.8578  -11.5950   20.2496 N   0  0  0  0  0  0  0  0  0  0  0  0
  -26.2768  -12.8712   20.2078 N   0  0  0  0  0  0  0  0  0  0  0  0
  -29.5726  -25.7381   21.4532 N   0  0  0  0  0  0  0  0  0  0  0  0
  -30.0398  -13.5123   20.3184 N   0  0  0  0  0  0  0  0  0  0  0  0
  -25.6041  -15.0960   20.6639 N   0  0  0  0  0  0  0  0  0  0  0  0
  -21.9793  -12.6566   21.8066 N   0  0  0  0  0  0  0  0  0  0  0  0
  -30.2715  -15.4903   21.5818 N   0  0  0  0  0  0  0  0  0  0  0  0
  -30.3182  -29.0699   22.7338 N   0  0  0  0  0  0  0  0  0  0  0  0
  -28.2306  -23.3349   20.0090 N   0  0  0  0  0  0  0  0  0  0  0  0
  -29.9248  -18.2630   26.6258 N   0  3  0  0  0  0  0  0  0  0  0  0
  -33.8853  -19.6838   24.8689 N   0  3  0  0  0  0  0  0  0  0  0  0
  -29.7409  -20.0507   20.0297 N   0  3  0  0  0  0  0  0  0  0  0  0
  -22.8224  -14.7844   21.6648 O   0  0  0  0  0  0  0  0  0  0  0  0
  -28.9452  -27.3020   23.3757 O   0  0  0  0  0  0  0  0  0  0  0  0
  -28.0768  -26.4464   19.8108 O   0  0  0  0  0  0  0  0  0  0  0  0
  -27.8537  -21.5679   21.4625 O   0  0  0  0  0  0  0  0  0  0  0  0
  -31.9666  -14.7805   20.1660 O   0  0  0  0  0  0  0  0  0  0  0  0
  -21.5038   -7.1153   21.4844 O   0  0  0  0  0  0  0  0  0  0  0  0
  -33.5566  -22.9853   25.2744 O   0  0  0  0  0  0  0  0  0  1  0  0
  -18.6936   -6.6849   26.2090 F   0  0  0  0  0  0  0  0  0  0  0  0
  -21.9565   -5.0093   23.2172 F   0  0  0  0  0  0  0  0  0  0  0  0
  -34.7042  -16.9586   23.6829 Cl  0  0  0  0  0  0  0  0  0  0  0  0
  1  2  1  0  0  0  0
  1  5  2  0  0  0  0
  2  6  2  0  0  0  0
  3  8  2  0  0  0  0
  3 17  1  0  0  0  0
  4  9  1  0  0  0  0
  4 17  2  0  0  0  0
  5 19  1  0  0  0  0
  6 21  1  0  0  0  0
  7 10  2  0  0  0  0
  7 20  1  0  0  0  0
  8 26  1  0  0  0  0
  9 26  2  0  0  0  0
 10 27  1  0  0  0  0
 11 12  2  0  0  0  0
 11 28  1  0  0  0  0
 12 29  1  0  0  0  0
 13 22  1  0  0  0  0
 13 27  2  0  0  0  0
 14 23  1  0  0  0  0
 14 25  2  0  0  0  0
 15 25  1  0  0  0  0
 15 31  2  0  0  0  0
 16 29  2  0  0  0  0
 16 30  1  0  0  0  0
 17 32  1  0  0  0  0
 18 32  1  0  0  0  0
 18 33  2  0  0  0  0
 18 34  1  0  0  0  0
 19 21  2  0  0  0  0
 19 39  1  0  0  0  0
 20 22  2  0  0  0  0
 20 40  1  0  0  0  0
 21 54  1  0  0  0  0
 22 41  1  0  0  0  0
 23 24  2  0  0  0  0
 23 63  1  0  0  0  0
 24 31  1  0  0  0  0
 24 64  1  0  0  0  0
 25 74  1  0  0  0  0
 26 85  1  0  0  0  0
 27 86  1  0  0  0  0
 28 30  2  0  0  0  0
 28 85  1  0  0  0  0
 29 87  1  0  0  0  0
 30 88  1  0  0  0  0
 31 89  1  0  0  0  0
 32 68  2  0  0  0  0
 33 69  1  0  0  0  0
 33 72  1  0  0  0  0
 34 73  1  0  0  0  0
 34 80  2  0  0  0  0
 35 55  1  0  0  0  0
 35 75  1  0  0  0  0
 35 81  2  0  0  0  0
 36 65  1  0  0  0  0
 36 70  1  0  0  0  0
 36 82  2  0  0  0  0
 37 66  1  0  0  0  0
 37 76  1  0  0  0  0
 37 83  2  0  0  0  0
 38 71  1  0  0  0  0
 38 74  1  0  0  0  0
 38 84  2  0  0  0  0
 39 42  1  0  0  0  0
 40 55  1  0  0  0  0
 41 70  1  0  0  0  0
 42 46  1  0  0  0  0
 43 47  1  0  0  0  0
 43 48  1  0  0  0  0
 44 45  1  0  0  0  0
 44 50  1  0  0  0  0
 45 51  1  0  0  0  0
 46 54  1  0  0  0  0
 47 56  1  0  0  0  0
 48 71  1  0  0  0  0
 49 56  1  0  0  0  0
 49 71  1  0  0  0  0
 50 77  1  0  0  0  0
 51 77  1  0  0  0  0
 52 57  1  0  0  0  0
 52 78  1  0  0  0  0
 53 57  1  0  0  0  0
 53 78  1  0  0  0  0
 54 75  1  0  0  0  0
 55 70  1  0  0  0  0
 56 69  1  0  0  0  0
 57 86  1  0  0  0  0
 58 66  1  0  0  0  0
 59 67  1  0  0  0  0
 60 67  1  0  0  0  0
 61 67  1  0  0  0  0
 62 79  1  0  0  0  0
 63 77  1  0  0  0  0
 64 78  1  0  0  0  0
 65 67  1  0  0  0  0
 65 76  1  0  0  0  0
 66 79  1  0  0  0  0
 68 69  1  0  0  0  0
M  CHG  3  77   1  78   1  79   1
M  ISO  4  38 100  57 101  74 100  86 101
M  END
> <Batch ID>
0029

> <Smiles>
CNC(C)C(=O)NC(C(=O)N1Cc2cc([101O:1][101CH:1]3CN(Cc4c(Cl)cc([100NH:0][100C:0](=O)N5CCCC(n6nc(-c7ccc(Oc8ccc(F)cc8F)cc7)c(C(N)=O)c6N)C5)cc4CN4CCCC4)C3)ccc2CC1C(=O)NC1CCCc2ccccc21)C(C)(C)C

> <Shape>
0.228

> <Color>
0.188

> <Negative vol penalty>
0.000

$$$$

  -OEChem-04042321343D

 86 95  0     1  0  0  0  0  0999 V2000
  -25.6295  -37.6076   26.8614 C   0  0  0  0  0  0  0  0  0  0  0  0
  -25.1208  -36.3973   27.3218 C   0  0  0  0  0  0  0  0  0  0  0  0
  -26.7179  -15.3093   21.8053 C   0  0  0  0  0  0  0  0  0  0  0  0
  -28.5547  -13.8153   22.2863 C   0  0  0  0  0  0  0  0  0  0  0  0
  -25.7654  -37.8294   25.4917 C   0  0  0  0  0  0  0  0  0  0  0  0
  -24.7467  -35.4085   26.4125 C   0  0  0  0  0  0  0  0  0  0  0  0
  -27.7721  -28.8734   26.5874 C   0  0  0  0  0  0  0  0  0  0  0  0
  -26.0041  -14.2508   21.2435 C   0  0  0  0  0  0  0  0  0  0  0  0
  -27.8408  -12.7568   21.7246 C   0  0  0  0  0  0  0  0  0  0  0  0
  -28.1518  -27.5350   26.6903 C   0  0  0  0  0  0  0  0  0  0  0  0
  -24.1727  -11.6254   22.3326 C   0  0  0  0  0  0  0  0  0  0  0  0
  -22.8281  -11.4939   22.6795 C   0  0  0  0  0  0  0  0  0  0  0  0
  -26.8316  -26.9993   24.7363 C   0  0  0  0  0  0  0  0  0  0  0  0
  -27.0303  -20.1553   22.2740 C   0  0  0  0  0  0  0  0  0  0  0  0
  -29.0261  -21.4445   21.8362 C   0  0  0  0  0  0  0  0  0  0  0  0
  -22.2055  -11.7349   20.3576 C   0  0  0  0  0  0  0  0  0  0  0  0
  -27.9933  -15.0916   22.3267 C   0  0  0  0  0  0  0  0  0  0  0  0
  -28.7180  -16.6009   24.2514 C   0  0  0  0  0  0  0  0  0  0  0  0
  -25.4018  -36.8392   24.5655 C   0  0  0  0  0  0  0  0  0  0  0  0
  -26.9321  -29.2832   25.5483 C   0  0  0  0  0  0  0  0  0  0  0  0
  -24.8766  -35.6178   25.0290 C   0  0  0  0  0  0  0  0  0  0  0  0
  -26.4580  -28.3409   24.6208 C   0  0  0  0  0  0  0  0  0  0  0  0
  -28.0688  -20.9666   22.7311 C   0  0  0  0  0  0  0  0  0  0  0  0
  -26.9492  -19.8218   20.9220 C   0  0  0  0  0  0  0  0  0  0  0  0
  -27.9064  -20.2996   20.0271 C   0  0  0  0  0  0  0  0  0  0  0  0
  -28.9449  -21.1110   20.4841 C   0  0  0  0  0  0  0  0  0  0  0  0
  -26.5655  -12.9746   21.2032 C   0  0  0  0  0  0  0  0  0  0  0  0
  -27.6824  -26.6002   25.7672 C   0  0  0  0  0  0  0  0  0  0  0  0
  -24.5337  -11.8118   20.9982 C   0  0  0  0  0  0  0  0  0  0  0  0
  -21.8445  -11.5486   21.6920 C   0  0  0  0  0  0  0  0  0  0  0  0
  -23.5501  -11.8665   20.0107 C   0  0  0  0  0  0  0  0  0  0  0  0
  -28.7314  -16.1847   22.9066 C   0  0  0  0  0  0  0  0  0  0  0  0
  -29.5791  -17.6703   24.2885 C   0  0  0  0  0  0  0  0  0  0  0  0
  -27.9920  -16.0684   25.3672 C   0  0  0  0  0  0  0  0  0  0  0  0
  -25.1233  -32.1149   23.8794 C   0  0  0  0  0  0  0  0  0  0  0  0
  -26.2657  -30.3484   21.6468 C   0  0  0  0  0  0  0  0  0  0  0  0
  -28.0425  -28.3784   19.5022 C   0  0  0  0  0  0  0  0  0  0  0  0
  -31.3186  -21.3376   19.7060 C   0  0  0  0  0  0  0  0  0  0  0  0
  -25.5226  -37.1429   23.0931 C   0  0  0  0  0  0  0  0  0  0  0  0
  -26.4481  -30.7032   25.4346 C   0  0  0  0  0  0  0  0  0  0  0  0
  -25.5285  -28.8208   23.5398 C   0  0  0  0  0  0  0  0  0  0  0  0
  -25.4537  -35.9014   22.2075 C   0  0  0  0  0  0  0  0  0  0  0  0
  -33.4301  -19.4844   22.1143 C   0  0  0  0  0  0  0  0  0  0  0  0
  -24.2963  -35.0044   22.6347 C   0  0  0  0  0  0  0  0  0  0  0  0
  -32.4809  -18.4096   22.6408 C   0  0  0  0  0  0  0  0  0  0  0  0
  -33.0775  -19.9032   20.6903 C   0  0  0  0  0  0  0  0  0  0  0  0
  -30.7091  -19.2761   21.0624 C   0  0  0  0  0  0  0  0  0  0  0  0
  -27.4239  -22.8495   25.9528 C   0  0  0  0  0  0  0  0  0  0  0  0
  -27.4715  -23.6684   24.0319 C   0  0  0  0  0  0  0  0  0  0  0  0
  -24.4829  -34.5113   24.0747 C   0  0  1  0  0  0  0  0  0  0  0  0
  -26.2851  -31.1705   23.9771 C   0  0  1  0  0  0  0  0  0  0  0  0
  -31.0185  -18.8661   22.5100 C   0  0  1  0  0  0  0  0  0  0  0  0
  -27.1658  -24.2684   25.4154 C   0  0  0  0  0  0  0  0  0  1  0  0
  -25.8282  -18.9498   20.4591 C   0  0  0  0  0  0  0  0  0  0  0  0
  -27.8153  -19.9380   18.5776 C   0  0  0  0  0  0  0  0  0  0  0  0
  -29.4959  -24.0251   19.3126 C   0  0  0  0  0  0  0  0  0  0  0  0
  -28.5276  -28.0633   17.0603 C   0  0  0  0  0  0  0  0  0  0  0  0
  -23.5149  -29.0865   21.2670 C   0  0  0  0  0  0  0  0  0  0  0  0
  -24.3872  -27.9781   19.1985 C   0  0  0  0  0  0  0  0  0  0  0  0
  -24.3050  -30.4674   19.3374 C   0  0  0  0  0  0  0  0  0  0  0  0
  -30.9361  -28.8590   19.8961 C   0  0  0  0  0  0  0  0  0  0  0  0
  -28.1569  -21.3242   24.1855 C   0  0  0  0  0  0  0  0  0  0  0  0
  -29.5505  -22.6681   18.6404 C   0  0  0  0  0  0  0  0  0  0  0  0
  -26.0287  -29.2068   20.6907 C   0  0  1  0  0  0  0  0  0  0  0  0
  -28.9751  -28.7235   18.3551 C   0  0  2  0  0  0  0  0  0  0  0  0
  -24.5718  -29.1807   20.1485 C   0  0  0  0  0  0  0  0  0  0  0  0
  -29.5371  -16.9291   22.1445 N   0  0  0  0  0  0  0  0  0  0  0  0
  -30.0379  -17.8238   23.0133 N   0  0  0  0  0  0  0  0  0  0  0  0
  -26.0052  -30.1041   23.0006 N   0  0  0  0  0  0  0  0  0  0  0  0
  -31.6678  -20.2777   20.5679 N   0  0  0  0  0  0  0  0  0  0  0  0
  -29.9810  -18.4848   25.2872 N   0  0  0  0  0  0  0  0  0  0  0  0
  -27.1515  -14.9675   25.1535 N   0  0  0  0  0  0  0  0  0  0  0  0
  -25.4504  -33.4359   24.1193 N   0  0  0  0  0  0  0  0  0  0  0  0
  -27.0498  -29.3230   19.6552 N   0  0  0  0  0  0  0  0  0  0  0  0
  -29.9448  -21.6172   19.5760 N   0  0  0  0  0  0  0  0  0  0  0  0
  -27.1625  -22.3404   24.5939 N   0  3  0  0  0  0  0  0  0  0  0  0
  -30.3613  -28.2690   18.6598 N   0  3  0  0  0  0  0  0  0  0  0  0
  -28.0733  -16.5648   26.5164 O   0  0  0  0  0  0  0  0  0  0  0  0
  -24.0115  -31.6788   23.6050 O   0  0  0  0  0  0  0  0  0  0  0  0
  -26.6655  -31.4301   21.2072 O   0  0  0  0  0  0  0  0  0  0  0  0
  -28.1788  -27.3697   20.1910 O   0  0  0  0  0  0  0  0  0  0  0  0
  -32.1676  -21.9570   19.0532 O   0  0  0  0  0  0  0  0  0  0  0  0
  -25.8691  -11.9414   20.6553 O   0  0  0  0  0  0  0  0  0  0  0  0
  -28.0606  -25.2960   25.8708 O   0  0  0  0  0  0  0  0  0  1  0  0
  -20.5534  -11.4207   22.0251 F   0  0  0  0  0  0  0  0  0  0  0  0
  -23.8909  -12.0441   18.7269 F   0  0  0  0  0  0  0  0  0  0  0  0
  1  2  1  0  0  0  0
  1  5  2  0  0  0  0
  2  6  2  0  0  0  0
  3  8  2  0  0  0  0
  3 17  1  0  0  0  0
  4  9  1  0  0  0  0
  4 17  2  0  0  0  0
  5 19  1  0  0  0  0
  6 21  1  0  0  0  0
  7 10  2  0  0  0  0
  7 20  1  0  0  0  0
  8 27  1  0  0  0  0
  9 27  2  0  0  0  0
 10 28  1  0  0  0  0
 11 12  2  0  0  0  0
 11 29  1  0  0  0  0
 12 30  1  0  0  0  0
 13 22  1  0  0  0  0
 13 28  2  0  0  0  0
 14 23  1  0  0  0  0
 14 24  2  0  0  0  0
 15 23  2  0  0  0  0
 15 26  1  0  0  0  0
 16 30  2  0  0  0  0
 16 31  1  0  0  0  0
 17 32  1  0  0  0  0
 18 32  1  0  0  0  0
 18 33  2  0  0  0  0
 18 34  1  0  0  0  0
 19 21  2  0  0  0  0
 19 39  1  0  0  0  0
 20 22  2  0  0  0  0
 20 40  1  0  0  0  0
 21 50  1  0  0  0  0
 22 41  1  0  0  0  0
 23 62  1  0  0  0  0
 24 25  1  0  0  0  0
 24 54  1  0  0  0  0
 25 26  2  0  0  0  0
 25 55  1  0  0  0  0
 26 75  1  0  0  0  0
 27 83  1  0  0  0  0
 28 84  1  0  0  0  0
 29 31  2  0  0  0  0
 29 83  1  0  0  0  0
 30 85  1  0  0  0  0
 31 86  1  0  0  0  0
 32 67  2  0  0  0  0
 33 68  1  0  0  0  0
 33 71  1  0  0  0  0
 34 72  1  0  0  0  0
 34 78  2  0  0  0  0
 35 51  1  0  0  0  0
 35 73  1  0  0  0  0
 35 79  2  0  0  0  0
 36 64  1  0  0  0  0
 36 69  1  0  0  0  0
 36 80  2  0  0  0  0
 37 65  1  0  0  0  0
 37 74  1  0  0  0  0
 37 81  2  0  0  0  0
 38 70  1  0  0  0  0
 38 75  1  0  0  0  0
 38 82  2  0  0  0  0
 39 42  1  0  0  0  0
 40 51  1  0  0  0  0
 41 69  1  0  0  0  0
 42 44  1  0  0  0  0
 43 45  1  0  0  0  0
 43 46  1  0  0  0  0
 44 50  1  0  0  0  0
 45 52  1  0  0  0  0
 46 70  1  0  0  0  0
 47 52  1  0  0  0  0
 47 70  1  0  0  0  0
 48 53  1  0  0  0  0
 48 76  1  0  0  0  0
 49 53  1  0  0  0  0
 49 76  1  0  0  0  0
 50 73  1  0  0  0  0
 51 69  1  0  0  0  0
 52 68  1  0  0  0  0
 53 84  1  0  0  0  0
 56 63  1  0  0  0  0
 57 65  1  0  0  0  0
 58 66  1  0  0  0  0
 59 66  1  0  0  0  0
 60 66  1  0  0  0  0
 61 77  1  0  0  0  0
 62 76  1  0  0  0  0
 63 75  1  0  0  0  0
 64 66  1  0  0  0  0
 64 74  1  0  0  0  0
 65 77  1  0  0  0  0
 67 68  1  0  0  0  0
M  CHG  2  76   1  77   1
M  ISO  4  38 100  53 101  75 100  84 101
M  END
> <Batch ID>
0029

> <Smiles>
CC[100N:0](c1cc(CN2C[101CH:1]([101O:1]c3ccc4c(c3)CN(C(=O)C(NC(=O)C(C)NC)C(C)(C)C)C(C(=O)NC3CCCc5ccccc53)C4)C2)cc(C)c1C)[100C:0](=O)N1CCCC(n2nc(-c3ccc(Oc4ccc(F)cc4F)cc3)c(C(N)=O)c2N)C1

> <Shape>
0.251

> <Color>
0.056

> <Negative vol penalty>
0.000

$$$$

  -OEChem-04042321343D

 87 97  0     1  0  0  0  0  0999 V2000
  -26.4822  -24.8555   16.4297 C   0  0  0  0  0  0  0  0  0  0  0  0
  -25.4142  -25.1682   17.2646 C   0  0  0  0  0  0  0  0  0  0  0  0
  -20.8594  -23.4911   25.3782 C   0  0  0  0  0  0  0  0  0  0  0  0
  -23.8373  -12.2608   19.6477 C   0  0  0  0  0  0  0  0  0  0  0  0
  -24.9275  -13.7180   21.2367 C   0  0  0  0  0  0  0  0  0  0  0  0
  -27.7809  -25.1993   16.8026 C   0  0  0  0  0  0  0  0  0  0  0  0
  -25.6445  -25.8239   18.4735 C   0  0  0  0  0  0  0  0  0  0  0  0
  -22.3729  -29.6025   19.2880 C   0  0  0  0  0  0  0  0  0  0  0  0
  -20.0948  -24.5918   24.9907 C   0  0  0  0  0  0  0  0  0  0  0  0
  -25.0047  -12.2185   18.8855 C   0  0  0  0  0  0  0  0  0  0  0  0
  -26.0950  -13.6756   20.4746 C   0  0  0  0  0  0  0  0  0  0  0  0
  -21.0961  -29.2557   19.7277 C   0  0  0  0  0  0  0  0  0  0  0  0
  -28.6712  -11.5443   19.9838 C   0  0  0  0  0  0  0  0  0  0  0  0
  -29.8772  -11.3542   20.6584 C   0  0  0  0  0  0  0  0  0  0  0  0
  -21.2768  -21.0773   25.3337 C   0  0  0  0  0  0  0  0  0  0  0  0
  -18.6282  -23.1354   23.7434 C   0  0  0  0  0  0  0  0  0  0  0  0
  -19.0456  -20.7216   23.6990 C   0  0  0  0  0  0  0  0  0  0  0  0
  -21.7301  -29.8112   21.9879 C   0  0  0  0  0  0  0  0  0  0  0  0
  -30.6830  -13.4695   19.8138 C   0  0  0  0  0  0  0  0  0  0  0  0
  -20.5186  -22.1966   24.9534 C   0  0  0  0  0  0  0  0  0  0  0  0
  -19.3863  -22.0161   24.1238 C   0  0  0  0  0  0  0  0  0  0  0  0
  -23.7986  -13.0106   20.8233 C   0  0  0  0  0  0  0  0  0  0  0  0
  -22.2283  -12.1870   22.6573 C   0  0  0  0  0  0  0  0  0  0  0  0
  -28.0263  -25.8681   18.0122 C   0  0  0  0  0  0  0  0  0  0  0  0
  -23.3429  -30.0467   20.1981 C   0  0  0  0  0  0  0  0  0  0  0  0
  -26.9479  -26.1758   18.8636 C   0  0  0  0  0  0  0  0  0  0  0  0
  -23.0177  -30.1655   21.5569 C   0  0  0  0  0  0  0  0  0  0  0  0
  -18.9813  -24.4143   24.1748 C   0  0  0  0  0  0  0  0  0  0  0  0
  -20.9237  -19.7984   24.9024 C   0  0  0  0  0  0  0  0  0  0  0  0
  -19.8102  -19.6209   24.0866 C   0  0  0  0  0  0  0  0  0  0  0  0
  -26.1335  -12.9258   19.2990 C   0  0  0  0  0  0  0  0  0  0  0  0
  -20.7755  -29.3572   21.0782 C   0  0  0  0  0  0  0  0  0  0  0  0
  -28.4711  -12.6969   19.2241 C   0  0  0  0  0  0  0  0  0  0  0  0
  -30.8831  -12.3169   20.5734 C   0  0  0  0  0  0  0  0  0  0  0  0
  -29.4770  -13.6596   19.1392 C   0  0  0  0  0  0  0  0  0  0  0  0
  -22.5928  -13.0552   21.6107 C   0  0  0  0  0  0  0  0  0  0  0  0
  -21.0040  -12.6484   23.0754 C   0  0  0  0  0  0  0  0  0  0  0  0
  -22.9333  -11.0640   23.2026 C   0  0  0  0  0  0  0  0  0  0  0  0
  -26.1909  -28.9904   21.1345 C   0  0  0  0  0  0  0  0  0  0  0  0
  -26.2606  -31.7933   22.7660 C   0  0  0  0  0  0  0  0  0  0  0  0
  -24.5203  -34.3514   24.2061 C   0  0  0  0  0  0  0  0  0  0  0  0
  -18.3543  -17.9982   22.8241 C   0  0  0  0  0  0  0  0  0  0  0  0
  -29.4521  -26.1771   18.3946 C   0  0  0  0  0  0  0  0  0  0  0  0
  -24.7073  -30.4425   19.7040 C   0  0  0  0  0  0  0  0  0  0  0  0
  -24.0168  -30.6563   22.5714 C   0  0  0  0  0  0  0  0  0  0  0  0
  -29.5726  -27.2044   19.5173 C   0  0  0  0  0  0  0  0  0  0  0  0
  -17.1201  -14.9450   21.4708 C   0  0  0  0  0  0  0  0  0  0  0  0
  -28.6102  -26.8700   20.6525 C   0  0  0  0  0  0  0  0  0  0  0  0
  -18.3489  -14.0329   21.4540 C   0  0  0  0  0  0  0  0  0  0  0  0
  -17.4830  -16.3916   21.1405 C   0  0  0  0  0  0  0  0  0  0  0  0
  -19.7873  -16.0525   21.9431 C   0  0  0  0  0  0  0  0  0  0  0  0
  -17.7596  -27.2907   22.0360 C   0  0  0  0  0  0  0  0  0  0  0  0
  -19.7215  -26.5834   22.1511 C   0  0  0  0  0  0  0  0  0  0  0  0
  -27.1547  -26.9086   20.1713 C   0  0  1  0  0  0  0  0  0  0  0  0
  -25.7746  -30.3932   20.7929 C   0  0  1  0  0  0  0  0  0  0  0  0
  -19.4817  -14.5973   22.3337 C   0  0  2  0  0  0  0  0  0  0  0  0
  -19.0548  -27.6791   21.3010 C   0  0  0  0  0  0  0  0  0  1  0  0
  -21.7596  -18.6368   25.3332 C   0  0  0  0  0  0  0  0  0  0  0  0
  -24.8512  -36.4779   25.4968 C   0  0  0  0  0  0  0  0  0  0  0  0
  -26.8636  -30.1713   25.2790 C   0  0  0  0  0  0  0  0  0  0  0  0
  -26.2458  -32.1801   26.6396 C   0  0  0  0  0  0  0  0  0  0  0  0
  -28.1768  -32.2887   25.0641 C   0  0  0  0  0  0  0  0  0  0  0  0
  -23.2292  -35.9716   22.0925 C   0  0  0  0  0  0  0  0  0  0  0  0
  -18.1601  -25.5985   23.7575 C   0  0  0  0  0  0  0  0  0  0  0  0
  -25.8240  -32.2418   24.1397 C   0  0  1  0  0  0  0  0  0  0  0  0
  -24.6863  -35.8578   24.1180 C   0  0  2  0  0  0  0  0  0  0  0  0
  -26.7591  -31.7094   25.2620 C   0  0  0  0  0  0  0  0  0  0  0  0
  -21.6743  -13.9967   21.3783 N   0  0  0  0  0  0  0  0  0  0  0  0
  -20.7206  -13.7228   22.2846 N   0  0  0  0  0  0  0  0  0  0  0  0
  -25.3393  -31.0251   22.0400 N   0  0  0  0  0  0  0  0  0  0  0  0
  -18.5595  -16.8598   22.0162 N   0  0  0  0  0  0  0  0  0  0  0  0
  -20.1531  -12.2357   24.0388 N   0  0  0  0  0  0  0  0  0  0  0  0
  -24.1790  -10.7274   22.6556 N   0  0  0  0  0  0  0  0  0  0  0  0
  -19.4364  -18.3295   23.6390 N   0  0  0  0  0  0  0  0  0  0  0  0
  -26.6941  -28.2764   20.0639 N   0  0  0  0  0  0  0  0  0  0  0  0
  -25.7273  -33.6964   24.0826 N   0  0  0  0  0  0  0  0  0  0  0  0
  -18.3850  -25.9927   22.3495 N   0  3  0  0  0  0  0  0  0  0  0  0
  -23.4961  -36.4728   23.4653 N   0  3  0  0  0  0  0  0  0  0  0  0
  -22.4649  -10.3694   24.1362 O   0  0  0  0  0  0  0  0  0  0  0  0
  -26.0661  -28.5864   22.2847 O   0  0  0  0  0  0  0  0  0  0  0  0
  -27.3752  -32.1187   22.3494 O   0  0  0  0  0  0  0  0  0  0  0  0
  -23.4294  -33.8101   24.3719 O   0  0  0  0  0  0  0  0  0  0  0  0
  -17.2868  -18.6165   22.8152 O   0  0  0  0  0  0  0  0  0  0  0  0
  -27.2730  -12.8845   18.5556 O   0  0  0  0  0  0  0  0  0  0  0  0
  -19.5302  -29.0186   21.5102 O   0  0  0  0  0  0  0  0  0  1  0  0
  -32.0405  -12.1349   21.2225 F   0  0  0  0  0  0  0  0  0  0  0  0
  -29.2901  -14.7695   18.4119 F   0  0  0  0  0  0  0  0  0  0  0  0
  1  2  1  0  0  0  0
  1  6  2  0  0  0  0
  2  7  2  0  0  0  0
  3  9  2  0  0  0  0
  3 20  1  0  0  0  0
  4 10  2  0  0  0  0
  4 22  1  0  0  0  0
  5 11  1  0  0  0  0
  5 22  2  0  0  0  0
  6 24  1  0  0  0  0
  7 26  1  0  0  0  0
  8 12  2  0  0  0  0
  8 25  1  0  0  0  0
  9 28  1  0  0  0  0
 10 31  1  0  0  0  0
 11 31  2  0  0  0  0
 12 32  1  0  0  0  0
 13 14  2  0  0  0  0
 13 33  1  0  0  0  0
 14 34  1  0  0  0  0
 15 20  1  0  0  0  0
 15 29  2  0  0  0  0
 16 21  1  0  0  0  0
 16 28  2  0  0  0  0
 17 21  1  0  0  0  0
 17 30  2  0  0  0  0
 18 27  1  0  0  0  0
 18 32  2  0  0  0  0
 19 34  2  0  0  0  0
 19 35  1  0  0  0  0
 20 21  2  0  0  0  0
 22 36  1  0  0  0  0
 23 36  1  0  0  0  0
 23 37  2  0  0  0  0
 23 38  1  0  0  0  0
 24 26  2  0  0  0  0
 24 43  1  0  0  0  0
 25 27  2  0  0  0  0
 25 44  1  0  0  0  0
 26 54  1  0  0  0  0
 27 45  1  0  0  0  0
 28 64  1  0  0  0  0
 29 30  1  0  0  0  0
 29 58  1  0  0  0  0
 30 74  1  0  0  0  0
 31 84  1  0  0  0  0
 32 85  1  0  0  0  0
 33 35  2  0  0  0  0
 33 84  1  0  0  0  0
 34 86  1  0  0  0  0
 35 87  1  0  0  0  0
 36 68  2  0  0  0  0
 37 69  1  0  0  0  0
 37 72  1  0  0  0  0
 38 73  1  0  0  0  0
 38 79  2  0  0  0  0
 39 55  1  0  0  0  0
 39 75  1  0  0  0  0
 39 80  2  0  0  0  0
 40 65  1  0  0  0  0
 40 70  1  0  0  0  0
 40 81  2  0  0  0  0
 41 66  1  0  0  0  0
 41 76  1  0  0  0  0
 41 82  2  0  0  0  0
 42 71  1  0  0  0  0
 42 74  1  0  0  0  0
 42 83  2  0  0  0  0
 43 46  1  0  0  0  0
 44 55  1  0  0  0  0
 45 70  1  0  0  0  0
 46 48  1  0  0  0  0
 47 49  1  0  0  0  0
 47 50  1  0  0  0  0
 48 54  1  0  0  0  0
 49 56  1  0  0  0  0
 50 71  1  0  0  0  0
 51 56  1  0  0  0  0
 51 71  1  0  0  0  0
 52 57  1  0  0  0  0
 52 77  1  0  0  0  0
 53 57  1  0  0  0  0
 53 77  1  0  0  0  0
 54 75  1  0  0  0  0
 55 70  1  0  0  0  0
 56 69  1  0  0  0  0
 57 85  1  0  0  0  0
 59 66  1  0  0  0  0
 60 67  1  0  0  0  0
 61 67  1  0  0  0  0
 62 67  1  0  0  0  0
 63 78  1  0  0  0  0
 64 77  1  0  0  0  0
 65 67  1  0  0  0  0
 65 76  1  0  0  0  0
 66 78  1  0  0  0  0
 68 69  1  0  0  0  0
M  CHG  2  77   1  78   1
M  ISO  4  42 100  57 101  74 100  85 101
M  END
> <Batch ID>
0029

> <Smiles>
CNC(C)C(=O)NC(C(=O)N1Cc2cc([101O:1][101CH:1]3CN(Cc4ccc5cc(C)c([100NH:0][100C:0](=O)N6CCCC(n7nc(-c8ccc(Oc9ccc(F)cc9F)cc8)c(C(N)=O)c7N)C6)cc5c4)C3)ccc2CC1C(=O)NC1CCCc2ccccc21)C(C)(C)C

> <Shape>
0.303

> <Color>
0.078

> <Negative vol penalty>
0.000

$$$$

  -OEChem-04042321343D

 87 96  0     1  0  0  0  0  0999 V2000
  -24.9480  -31.6934   24.1184 C   0  0  0  0  0  0  0  0  0  0  0  0
  -24.5343  -30.7777   23.1562 C   0  0  0  0  0  0  0  0  0  0  0  0
  -25.3865  -17.3509   22.9024 C   0  0  0  0  0  0  0  0  0  0  0  0
  -23.8428  -18.2951   21.3016 C   0  0  0  0  0  0  0  0  0  0  0  0
  -26.3081  -31.9235   24.3209 C   0  0  0  0  0  0  0  0  0  0  0  0
  -25.4805  -30.0924   22.3950 C   0  0  0  0  0  0  0  0  0  0  0  0
  -24.4324  -25.1556   21.9777 C   0  0  0  0  0  0  0  0  0  0  0  0
  -19.6649  -26.2654   23.7124 C   0  0  0  0  0  0  0  0  0  0  0  0
  -25.6069  -16.2681   22.0512 C   0  0  0  0  0  0  0  0  0  0  0  0
  -24.0632  -17.2123   20.4504 C   0  0  0  0  0  0  0  0  0  0  0  0
  -23.4439  -24.7895   21.0652 C   0  0  0  0  0  0  0  0  0  0  0  0
  -24.0277  -13.4009   21.2089 C   0  0  0  0  0  0  0  0  0  0  0  0
  -24.0295  -12.1247   21.7720 C   0  0  0  0  0  0  0  0  0  0  0  0
  -20.4237  -27.4132   23.4835 C   0  0  0  0  0  0  0  0  0  0  0  0
  -25.1491  -24.1844   19.4699 C   0  0  0  0  0  0  0  0  0  0  0  0
  -19.9489  -27.2555   21.1198 C   0  0  0  0  0  0  0  0  0  0  0  0
  -26.3025  -11.7968   21.0216 C   0  0  0  0  0  0  0  0  0  0  0  0
  -24.5044  -18.3644   22.5276 C   0  0  0  0  0  0  0  0  0  0  0  0
  -25.2312  -20.4046   23.8756 C   0  0  0  0  0  0  0  0  0  0  0  0
  -27.2717  -31.2335   23.5685 C   0  0  0  0  0  0  0  0  0  0  0  0
  -25.7888  -25.0489   21.6385 C   0  0  0  0  0  0  0  0  0  0  0  0
  -26.8548  -30.3145   22.5867 C   0  0  0  0  0  0  0  0  0  0  0  0
  -26.1529  -24.5474   20.3808 C   0  0  0  0  0  0  0  0  0  0  0  0
  -19.0481  -25.6126   22.6451 C   0  0  0  0  0  0  0  0  0  0  0  0
  -19.1901  -26.1077   21.3488 C   0  0  0  0  0  0  0  0  0  0  0  0
  -24.9452  -16.1988   20.8252 C   0  0  0  0  0  0  0  0  0  0  0  0
  -23.8021  -24.3065   19.8100 C   0  0  0  0  0  0  0  0  0  0  0  0
  -25.1633  -13.8750   20.5521 C   0  0  0  0  0  0  0  0  0  0  0  0
  -25.1669  -11.3227   21.6784 C   0  0  0  0  0  0  0  0  0  0  0  0
  -26.3007  -13.0729   20.4585 C   0  0  0  0  0  0  0  0  0  0  0  0
  -20.5657  -27.9083   22.1872 C   0  0  0  0  0  0  0  0  0  0  0  0
  -24.2759  -19.4830   23.4067 C   0  0  0  0  0  0  0  0  0  0  0  0
  -24.5159  -21.2651   24.6722 C   0  0  0  0  0  0  0  0  0  0  0  0
  -26.6391  -20.4766   23.6144 C   0  0  0  0  0  0  0  0  0  0  0  0
  -28.1947  -27.1047   21.3396 C   0  0  0  0  0  0  0  0  0  0  0  0
  -29.9377  -24.4026   20.9127 C   0  0  0  0  0  0  0  0  0  0  0  0
  -30.4574  -21.0865   19.5894 C   0  0  0  0  0  0  0  0  0  0  0  0
  -18.7449  -22.8557   24.8028 C   0  0  0  0  0  0  0  0  0  0  0  0
  -28.7294  -31.5506   23.7904 C   0  0  0  0  0  0  0  0  0  0  0  0
  -26.8433  -25.4229   22.6439 C   0  0  0  0  0  0  0  0  0  0  0  0
  -27.5954  -24.3945   19.9752 C   0  0  0  0  0  0  0  0  0  0  0  0
  -29.6761  -30.5077   23.2016 C   0  0  0  0  0  0  0  0  0  0  0  0
  -20.0816  -21.3758   19.3286 C   0  0  0  0  0  0  0  0  0  0  0  0
  -20.6336  -21.4309   27.4635 C   0  0  0  0  0  0  0  0  0  0  0  0
  -18.9286  -21.9603   18.5179 C   0  0  0  0  0  0  0  0  0  0  0  0
  -29.2563  -30.1480   21.7799 C   0  0  0  0  0  0  0  0  0  0  0  0
  -21.8675  -20.8532   26.7678 C   0  0  0  0  0  0  0  0  0  0  0  0
  -21.4221  -22.0173   18.9804 C   0  0  0  0  0  0  0  0  0  0  0  0
  -19.3794  -21.2796   26.6055 C   0  0  0  0  0  0  0  0  0  0  0  0
  -20.7285  -21.2449   24.5434 C   0  0  0  0  0  0  0  0  0  0  0  0
  -18.2788  -23.2147   19.0897 C   0  0  0  0  0  0  0  0  0  0  0  0
  -20.5110  -24.4296   19.0213 C   0  0  0  0  0  0  0  0  0  0  0  0
  -27.8516  -29.5333   21.7583 C   0  0  1  0  0  0  0  0  0  0  0  0
  -28.1872  -25.7570   22.0039 C   0  0  1  0  0  0  0  0  0  0  0  0
  -22.0284  -21.4243   25.3461 C   0  0  2  0  0  0  0  0  0  0  0  0
  -21.6058  -23.4589   19.4513 C   0  0  2  0  0  0  0  0  0  1  0  0
  -32.3763  -19.4958   19.8809 C   0  0  0  0  0  0  0  0  0  0  0  0
  -30.9713  -25.6290   18.3170 C   0  0  0  0  0  0  0  0  0  0  0  0
  -31.7497  -23.3502   17.6318 C   0  0  0  0  0  0  0  0  0  0  0  0
  -32.7029  -24.4322   19.6673 C   0  0  0  0  0  0  0  0  0  0  0  0
  -28.6771  -18.9368   20.5733 C   0  0  0  0  0  0  0  0  0  0  0  0
  -18.2414  -24.3850   22.9142 C   0  0  0  0  0  0  0  0  0  0  0  0
  -18.5374  -25.4217   20.1850 C   0  0  0  0  0  0  0  0  0  0  0  0
  -30.3304  -23.5605   19.7229 C   0  0  1  0  0  0  0  0  0  0  0  0
  -30.9795  -19.8779   20.3452 C   0  0  2  0  0  0  0  0  0  0  0  0
  -31.4113  -24.2476   18.8414 C   0  0  0  0  0  0  0  0  0  0  0  0
  -23.0476  -19.7342   23.8671 N   0  0  0  0  0  0  0  0  0  0  0  0
  -23.2261  -20.8235   24.6338 N   0  0  0  0  0  0  0  0  0  0  0  0
  -28.5895  -24.7794   20.9907 N   0  0  0  0  0  0  0  0  0  0  0  0
  -19.5978  -21.8424   25.2708 N   0  0  0  0  0  0  0  0  0  0  0  0
  -24.8708  -22.3487   25.3948 N   0  0  0  0  0  0  0  0  0  0  0  0
  -27.0775  -21.2317   22.5180 N   0  0  0  0  0  0  0  0  0  0  0  0
  -27.8973  -28.1527   22.1898 N   0  0  0  0  0  0  0  0  0  0  0  0
  -30.7303  -22.2625   20.2556 N   0  0  0  0  0  0  0  0  0  0  0  0
  -19.0256  -23.3380   23.5302 N   0  0  0  0  0  0  0  0  0  0  0  0
  -19.2378  -24.1470   19.7811 N   0  3  1  0  0  0  0  0  0  0  0  0
  -30.0790  -18.7087   20.1379 N   0  3  0  0  0  0  0  0  0  0  0  0
  -27.4823  -19.8754   24.3223 O   0  0  0  0  0  0  0  0  0  0  0  0
  -28.4526  -27.1879   20.1445 O   0  0  0  0  0  0  0  0  0  0  0  0
  -30.7942  -24.7086   21.7460 O   0  0  0  0  0  0  0  0  0  0  0  0
  -29.8698  -20.9966   18.5137 O   0  0  0  0  0  0  0  0  0  0  0  0
  -17.8064  -23.3015   25.4717 O   0  0  0  0  0  0  0  0  0  0  0  0
  -25.1602  -15.1424   19.9943 O   0  0  0  0  0  0  0  0  0  0  0  0
  -22.8393  -23.9491   18.9173 O   0  0  0  0  0  0  0  0  0  1  0  0
  -25.1690  -10.0979   22.2205 F   0  0  0  0  0  0  0  0  0  0  0  0
  -27.3950  -13.5234   19.8298 F   0  0  0  0  0  0  0  0  0  0  0  0
  -21.5033  -29.3231   21.9050 Cl  0  0  0  0  0  0  0  0  0  0  0  0
  1  2  1  0  0  0  0
  1  5  2  0  0  0  0
  2  6  2  0  0  0  0
  3  9  2  0  0  0  0
  3 18  1  0  0  0  0
  4 10  1  0  0  0  0
  4 18  2  0  0  0  0
  5 20  1  0  0  0  0
  6 22  1  0  0  0  0
  7 11  2  0  0  0  0
  7 21  1  0  0  0  0
  8 14  2  0  0  0  0
  8 24  1  0  0  0  0
  9 26  1  0  0  0  0
 10 26  2  0  0  0  0
 11 27  1  0  0  0  0
 12 13  2  0  0  0  0
 12 28  1  0  0  0  0
 13 29  1  0  0  0  0
 14 31  1  0  0  0  0
 15 23  1  0  0  0  0
 15 27  2  0  0  0  0
 16 25  1  0  0  0  0
 16 31  2  0  0  0  0
 17 29  2  0  0  0  0
 17 30  1  0  0  0  0
 18 32  1  0  0  0  0
 19 32  1  0  0  0  0
 19 33  2  0  0  0  0
 19 34  1  0  0  0  0
 20 22  2  0  0  0  0
 20 39  1  0  0  0  0
 21 23  2  0  0  0  0
 21 40  1  0  0  0  0
 22 53  1  0  0  0  0
 23 41  1  0  0  0  0
 24 25  2  0  0  0  0
 24 62  1  0  0  0  0
 25 63  1  0  0  0  0
 26 83  1  0  0  0  0
 27 84  1  0  0  0  0
 28 30  2  0  0  0  0
 28 83  1  0  0  0  0
 29 85  1  0  0  0  0
 30 86  1  0  0  0  0
 31 87  1  0  0  0  0
 32 67  2  0  0  0  0
 33 68  1  0  0  0  0
 33 71  1  0  0  0  0
 34 72  1  0  0  0  0
 34 78  2  0  0  0  0
 35 54  1  0  0  0  0
 35 73  1  0  0  0  0
 35 79  2  0  0  0  0
 36 64  1  0  0  0  0
 36 69  1  0  0  0  0
 36 80  2  0  0  0  0
 37 65  1  0  0  0  0
 37 74  1  0  0  0  0
 37 81  2  0  0  0  0
 38 70  1  0  0  0  0
 38 75  1  0  0  0  0
 38 82  2  0  0  0  0
 39 42  1  0  0  0  0
 40 54  1  0  0  0  0
 41 69  1  0  0  0  0
 42 46  1  0  0  0  0
 43 45  1  0  0  0  0
 43 48  1  0  0  0  0
 44 47  1  0  0  0  0
 44 49  1  0  0  0  0
 45 51  1  0  0  0  0
 46 53  1  0  0  0  0
 47 55  1  0  0  0  0
 48 56  1  0  0  0  0
 49 70  1  0  0  0  0
 50 55  1  0  0  0  0
 50 70  1  0  0  0  0
 51 76  1  0  0  0  0
 52 56  1  0  0  0  0
 52 76  1  0  0  0  0
 53 73  1  0  0  0  0
 54 69  1  0  0  0  0
 55 68  1  0  0  0  0
 56 84  1  0  0  0  0
 57 65  1  0  0  0  0
 58 66  1  0  0  0  0
 59 66  1  0  0  0  0
 60 66  1  0  0  0  0
 61 77  1  0  0  0  0
 62 75  1  0  0  0  0
 63 76  1  0  0  0  0
 64 66  1  0  0  0  0
 64 74  1  0  0  0  0
 65 77  1  0  0  0  0
 67 68  1  0  0  0  0
M  CHG  2  76   1  77   1
M  ISO  4  38 100  56 101  75 100  84 101
M  END
> <Batch ID>
0029

> <Smiles>
CNC(C)C(=O)NC(C(=O)N1Cc2cc([101O:1][101CH:1]3CCCCN(Cc4cc(Cl)ccc4C[100NH:0][100C:0](=O)N4CCCC(n5nc(-c6ccc(Oc7ccc(F)cc7F)cc6)c(C(N)=O)c5N)C4)C3)ccc2CC1C(=O)NC1CCCc2ccccc21)C(C)(C)C

> <Shape>
0.194

> <Color>
0.053

> <Negative vol penalty>
0.000

$$$$

  -OEChem-04042321343D

 84 93  0     1  0  0  0  0  0999 V2000
  -18.0674  -28.5678   18.7759 C   0  0  0  0  0  0  0  0  0  0  0  0
  -19.2895  -27.9050   18.8289 C   0  0  0  0  0  0  0  0  0  0  0  0
  -23.1714   -9.7385   20.1185 C   0  0  0  0  0  0  0  0  0  0  0  0
  -23.8437   -9.9964   22.4246 C   0  0  0  0  0  0  0  0  0  0  0  0
  -17.8830  -29.7462   19.4978 C   0  0  0  0  0  0  0  0  0  0  0  0
  -20.3282  -28.4210   19.6030 C   0  0  0  0  0  0  0  0  0  0  0  0
  -22.6607  -24.8602   22.3462 C   0  0  0  0  0  0  0  0  0  0  0  0
  -22.4563   -8.5893   20.4555 C   0  0  0  0  0  0  0  0  0  0  0  0
  -23.1286   -8.8473   22.7617 C   0  0  0  0  0  0  0  0  0  0  0  0
  -23.5723  -24.0404   21.6824 C   0  0  0  0  0  0  0  0  0  0  0  0
  -19.9074   -7.9969   23.3290 C   0  0  0  0  0  0  0  0  0  0  0  0
  -19.1086   -8.0443   24.4714 C   0  0  0  0  0  0  0  0  0  0  0  0
  -25.3892  -25.3718   22.5458 C   0  0  0  0  0  0  0  0  0  0  0  0
  -30.3222  -20.1003   20.8991 C   0  0  0  0  0  0  0  0  0  0  0  0
  -30.9650  -17.8583   20.2687 C   0  0  0  0  0  0  0  0  0  0  0  0
  -20.3833   -6.2337   25.4379 C   0  0  0  0  0  0  0  0  0  0  0  0
  -23.8652  -10.4420   21.1030 C   0  0  0  0  0  0  0  0  0  0  0  0
  -24.1296  -12.9540   20.7459 C   0  0  0  0  0  0  0  0  0  0  0  0
  -18.9168  -30.2717   20.2888 C   0  0  0  0  0  0  0  0  0  0  0  0
  -23.1067  -25.9503   23.1073 C   0  0  0  0  0  0  0  0  0  0  0  0
  -20.1578  -29.6083   20.3351 C   0  0  0  0  0  0  0  0  0  0  0  0
  -24.4813  -26.2024   23.2204 C   0  0  0  0  0  0  0  0  0  0  0  0
  -29.4036  -19.5806   21.8110 C   0  0  0  0  0  0  0  0  0  0  0  0
  -29.2657  -18.1997   21.9519 C   0  0  0  0  0  0  0  0  0  0  0  0
  -30.0464  -17.3386   21.1807 C   0  0  0  0  0  0  0  0  0  0  0  0
  -22.4348   -8.1437   21.7771 C   0  0  0  0  0  0  0  0  0  0  0  0
  -24.9366  -24.2978   21.7798 C   0  0  0  0  0  0  0  0  0  0  0  0
  -20.9442   -7.0678   23.2409 C   0  0  0  0  0  0  0  0  0  0  0  0
  -19.3466   -7.1628   25.5259 C   0  0  0  0  0  0  0  0  0  0  0  0
  -31.1029  -19.2392   20.1279 C   0  0  0  0  0  0  0  0  0  0  0  0
  -21.1821   -6.1863   24.2954 C   0  0  0  0  0  0  0  0  0  0  0  0
  -24.6046  -11.6289   20.7554 C   0  0  0  0  0  0  0  0  0  0  0  0
  -25.2099  -13.7031   20.3480 C   0  0  0  0  0  0  0  0  0  0  0  0
  -22.8282  -13.4624   21.0679 C   0  0  0  0  0  0  0  0  0  0  0  0
  -22.7014  -29.0999   22.9666 C   0  0  0  0  0  0  0  0  0  0  0  0
  -24.3188  -29.0417   25.7778 C   0  0  0  0  0  0  0  0  0  0  0  0
  -26.5051  -27.4112   27.8293 C   0  0  0  0  0  0  0  0  0  0  0  0
  -30.6290  -14.9560   20.6060 C   0  0  0  0  0  0  0  0  0  0  0  0
  -18.6858  -31.5738   21.0140 C   0  0  0  0  0  0  0  0  0  0  0  0
  -22.1120  -26.8091   23.8390 C   0  0  0  0  0  0  0  0  0  0  0  0
  -25.0126  -27.3479   24.0414 C   0  0  0  0  0  0  0  0  0  0  0  0
  -19.7145  -31.8532   22.1067 C   0  0  0  0  0  0  0  0  0  0  0  0
  -29.6831  -12.2842   18.4510 C   0  0  0  0  0  0  0  0  0  0  0  0
  -21.1259  -31.5913   21.5907 C   0  0  0  0  0  0  0  0  0  0  0  0
  -28.2385  -11.9845   18.8576 C   0  0  0  0  0  0  0  0  0  0  0  0
  -30.5444  -12.6618   19.6548 C   0  0  0  0  0  0  0  0  0  0  0  0
  -28.5644  -13.4488   20.8915 C   0  0  0  0  0  0  0  0  0  0  0  0
  -26.4537  -21.7276   22.8253 C   0  0  0  0  0  0  0  0  0  0  0  0
  -27.0666  -21.3140   20.8719 C   0  0  0  0  0  0  0  0  0  0  0  0
  -21.3006  -30.1234   21.1830 C   0  0  1  0  0  0  0  0  0  0  0  0
  -22.6498  -28.1985   24.1676 C   0  0  1  0  0  0  0  0  0  0  0  0
  -27.6427  -13.1267   19.7039 C   0  0  2  0  0  0  0  0  0  0  0  0
  -25.8753  -22.0989   21.4483 C   0  0  0  0  0  0  0  0  0  1  0  0
  -28.2789  -17.6463   22.9317 C   0  0  0  0  0  0  0  0  0  0  0  0
  -27.6640  -27.6291   30.0444 C   0  0  0  0  0  0  0  0  0  0  0  0
  -26.2474  -31.0722   24.5663 C   0  0  0  0  0  0  0  0  0  0  0  0
  -27.8593  -30.5339   26.4049 C   0  0  0  0  0  0  0  0  0  0  0  0
  -25.6303  -31.5126   26.9495 C   0  0  0  0  0  0  0  0  0  0  0  0
  -25.2261  -24.9540   28.8710 C   0  0  0  0  0  0  0  0  0  0  0  0
  -28.5779  -20.5291   22.6293 C   0  0  0  0  0  0  0  0  0  0  0  0
  -25.7734  -29.1099   26.1759 C   0  0  1  0  0  0  0  0  0  0  0  0
  -26.4460  -27.0886   29.3114 C   0  0  2  0  0  0  0  0  0  0  0  0
  -26.3678  -30.5366   26.0070 C   0  0  0  0  0  0  0  0  0  0  0  0
  -25.8867  -11.5380   20.3923 N   0  0  0  0  0  0  0  0  0  0  0  0
  -26.2266  -12.8156   20.1508 N   0  0  0  0  0  0  0  0  0  0  0  0
  -24.0000  -28.1627   24.7330 N   0  0  0  0  0  0  0  0  0  0  0  0
  -29.9198  -13.7527   20.4064 N   0  0  0  0  0  0  0  0  0  0  0  0
  -25.3798  -15.0278   20.1510 N   0  0  0  0  0  0  0  0  0  0  0  0
  -21.8342  -12.5548   21.4585 N   0  0  0  0  0  0  0  0  0  0  0  0
  -29.9217  -15.9327   21.3063 N   0  0  0  0  0  0  0  0  0  0  0  0
  -21.4777  -29.2913   22.3538 N   0  0  0  0  0  0  0  0  0  0  0  0
  -25.8492  -28.5882   27.5362 N   0  0  0  0  0  0  0  0  0  0  0  0
  -27.1750  -20.6214   22.1693 N   0  3  0  0  0  0  0  0  0  0  0  0
  -26.3889  -25.6139   29.5187 N   0  3  0  0  0  0  0  0  0  0  0  0
  -22.5504  -14.6835   20.9952 O   0  0  0  0  0  0  0  0  0  0  0  0
  -23.7719  -29.5869   22.6223 O   0  0  0  0  0  0  0  0  0  0  0  0
  -23.4947  -29.7373   26.3766 O   0  0  0  0  0  0  0  0  0  0  0  0
  -27.0790  -26.6930   27.0136 O   0  0  0  0  0  0  0  0  0  0  0  0
  -31.7689  -15.1186   20.1630 O   0  0  0  0  0  0  0  0  0  0  0  0
  -21.7369   -7.0225   22.1063 O   0  0  0  0  0  0  0  0  0  0  0  0
  -25.8285  -23.4996   21.1323 O   0  0  0  0  0  0  0  0  0  1  0  0
  -18.5803   -7.2095   26.6236 F   0  0  0  0  0  0  0  0  0  0  0  0
  -31.9835  -19.7381   19.2505 F   0  0  0  0  0  0  0  0  0  0  0  0
  -22.1774   -5.2924   24.2170 F   0  0  0  0  0  0  0  0  0  0  0  0
  1  2  1  0  0  0  0
  1  5  2  0  0  0  0
  2  6  2  0  0  0  0
  3  8  2  0  0  0  0
  3 17  1  0  0  0  0
  4  9  1  0  0  0  0
  4 17  2  0  0  0  0
  5 19  1  0  0  0  0
  6 21  1  0  0  0  0
  7 10  2  0  0  0  0
  7 20  1  0  0  0  0
  8 26  1  0  0  0  0
  9 26  2  0  0  0  0
 10 27  1  0  0  0  0
 11 12  2  0  0  0  0
 11 28  1  0  0  0  0
 12 29  1  0  0  0  0
 13 22  1  0  0  0  0
 13 27  2  0  0  0  0
 14 23  1  0  0  0  0
 14 30  2  0  0  0  0
 15 25  2  0  0  0  0
 15 30  1  0  0  0  0
 16 29  2  0  0  0  0
 16 31  1  0  0  0  0
 17 32  1  0  0  0  0
 18 32  1  0  0  0  0
 18 33  2  0  0  0  0
 18 34  1  0  0  0  0
 19 21  2  0  0  0  0
 19 39  1  0  0  0  0
 20 22  2  0  0  0  0
 20 40  1  0  0  0  0
 21 50  1  0  0  0  0
 22 41  1  0  0  0  0
 23 24  2  0  0  0  0
 23 60  1  0  0  0  0
 24 25  1  0  0  0  0
 24 54  1  0  0  0  0
 25 70  1  0  0  0  0
 26 80  1  0  0  0  0
 27 81  1  0  0  0  0
 28 31  2  0  0  0  0
 28 80  1  0  0  0  0
 29 82  1  0  0  0  0
 30 83  1  0  0  0  0
 31 84  1  0  0  0  0
 32 64  2  0  0  0  0
 33 65  1  0  0  0  0
 33 68  1  0  0  0  0
 34 69  1  0  0  0  0
 34 75  2  0  0  0  0
 35 51  1  0  0  0  0
 35 71  1  0  0  0  0
 35 76  2  0  0  0  0
 36 61  1  0  0  0  0
 36 66  1  0  0  0  0
 36 77  2  0  0  0  0
 37 62  1  0  0  0  0
 37 72  1  0  0  0  0
 37 78  2  0  0  0  0
 38 67  1  0  0  0  0
 38 70  1  0  0  0  0
 38 79  2  0  0  0  0
 39 42  1  0  0  0  0
 40 51  1  0  0  0  0
 41 66  1  0  0  0  0
 42 44  1  0  0  0  0
 43 45  1  0  0  0  0
 43 46  1  0  0  0  0
 44 50  1  0  0  0  0
 45 52  1  0  0  0  0
 46 67  1  0  0  0  0
 47 52  1  0  0  0  0
 47 67  1  0  0  0  0
 48 53  1  0  0  0  0
 48 73  1  0  0  0  0
 49 53  1  0  0  0  0
 49 73  1  0  0  0  0
 50 71  1  0  0  0  0
 51 66  1  0  0  0  0
 52 65  1  0  0  0  0
 53 81  1  0  0  0  0
 55 62  1  0  0  0  0
 56 63  1  0  0  0  0
 57 63  1  0  0  0  0
 58 63  1  0  0  0  0
 59 74  1  0  0  0  0
 60 73  1  0  0  0  0
 61 63  1  0  0  0  0
 61 72  1  0  0  0  0
 62 74  1  0  0  0  0
 64 65  1  0  0  0  0
M  CHG  2  73   1  74   1
M  ISO  4  38 100  53 101  70 100  81 101
M  END
> <Batch ID>
0029

> <Smiles>
CNC(C)C(=O)NC(C(=O)N1Cc2cc([101O:1][101CH:1]3CN(Cc4cc(F)cc([100NH:0][100C:0](=O)N5CCCC(n6nc(-c7ccc(Oc8ccc(F)cc8F)cc7)c(C(N)=O)c6N)C5)c4C)C3)ccc2CC1C(=O)NC1CCCc2ccccc21)C(C)(C)C

> <Shape>
0.255

> <Color>
0.224

> <Negative vol penalty>
0.000

$$$$

  -OEChem-04042321343D

 85 94  0     1  0  0  0  0  0999 V2000
  -19.4502  -11.4548   20.5800 C   0  0  0  0  0  0  0  0  0  0  0  0
  -19.7812  -12.6680   21.1749 C   0  0  0  0  0  0  0  0  0  0  0  0
  -22.4457  -29.2097   22.0301 C   0  0  0  0  0  0  0  0  0  0  0  0
  -23.1646  -27.7245   23.7949 C   0  0  0  0  0  0  0  0  0  0  0  0
  -20.4396  -10.5000   20.3491 C   0  0  0  0  0  0  0  0  0  0  0  0
  -21.1018  -12.9268   21.5402 C   0  0  0  0  0  0  0  0  0  0  0  0
  -23.9724  -18.3343   21.3850 C   0  0  0  0  0  0  0  0  0  0  0  0
  -29.9913  -22.9374   25.9423 C   0  0  0  0  0  0  0  0  0  0  0  0
  -21.1211  -28.8345   22.2538 C   0  0  0  0  0  0  0  0  0  0  0  0
  -21.8399  -27.3492   24.0186 C   0  0  0  0  0  0  0  0  0  0  0  0
  -24.2391  -19.2833   22.3710 C   0  0  0  0  0  0  0  0  0  0  0  0
  -18.6693  -29.5513   24.4692 C   0  0  0  0  0  0  0  0  0  0  0  0
  -17.7087  -30.5615   24.5171 C   0  0  0  0  0  0  0  0  0  0  0  0
  -31.0527  -23.8010   25.6717 C   0  0  0  0  0  0  0  0  0  0  0  0
  -26.4338  -18.3323   22.6842 C   0  0  0  0  0  0  0  0  0  0  0  0
  -16.5524  -29.5505   22.6522 C   0  0  0  0  0  0  0  0  0  0  0  0
  -23.4675  -28.6546   22.8006 C   0  0  0  0  0  0  0  0  0  0  0  0
  -25.5341  -30.1018   23.1779 C   0  0  0  0  0  0  0  0  0  0  0  0
  -21.7747  -10.7511   20.7030 C   0  0  0  0  0  0  0  0  0  0  0  0
  -24.9320  -17.3687   21.0484 C   0  0  0  0  0  0  0  0  0  0  0  0
  -22.1098  -11.9740   21.3151 C   0  0  0  0  0  0  0  0  0  0  0  0
  -26.1778  -17.3738   21.6918 C   0  0  0  0  0  0  0  0  0  0  0  0
  -29.4752  -22.8330   23.5843 C   0  0  0  0  0  0  0  0  0  0  0  0
  -30.5366  -23.6967   23.3138 C   0  0  0  0  0  0  0  0  0  0  0  0
  -29.2026  -22.4533   24.8986 C   0  0  0  0  0  0  0  0  0  0  0  0
  -20.8181  -27.9043   23.2481 C   0  0  0  0  0  0  0  0  0  0  0  0
  -25.4689  -19.2807   23.0227 C   0  0  0  0  0  0  0  0  0  0  0  0
  -18.5715  -28.5407   23.5127 C   0  0  0  0  0  0  0  0  0  0  0  0
  -16.6502  -30.5611   23.6087 C   0  0  0  0  0  0  0  0  0  0  0  0
  -17.5131  -28.5403   22.6042 C   0  0  0  0  0  0  0  0  0  0  0  0
  -31.3253  -24.1807   24.3575 C   0  0  0  0  0  0  0  0  0  0  0  0
  -24.8361  -29.0414   22.5695 C   0  0  0  0  0  0  0  0  0  0  0  0
  -26.7897  -30.0493   22.6235 C   0  0  0  0  0  0  0  0  0  0  0  0
  -25.0876  -31.0495   24.1568 C   0  0  0  0  0  0  0  0  0  0  0  0
  -25.0592  -14.1950   21.1701 C   0  0  0  0  0  0  0  0  0  0  0  0
  -27.8804  -14.6379   19.6316 C   0  0  0  0  0  0  0  0  0  0  0  0
  -30.5039  -16.7043   18.9288 C   0  0  0  0  0  0  0  0  0  0  0  0
  -29.9677  -25.6250   20.1383 C   0  0  0  0  0  0  0  0  0  0  0  0
  -22.8013   -9.6696   20.4768 C   0  0  0  0  0  0  0  0  0  0  0  0
  -24.6388  -16.3686   19.9639 C   0  0  0  0  0  0  0  0  0  0  0  0
  -27.2494  -16.3712   21.3530 C   0  0  0  0  0  0  0  0  0  0  0  0
  -24.2411  -10.1713   20.5517 C   0  0  0  0  0  0  0  0  0  0  0  0
  -29.0672  -28.7222   18.6307 C   0  0  0  0  0  0  0  0  0  0  0  0
  -24.4335  -11.0607   21.7759 C   0  0  0  0  0  0  0  0  0  0  0  0
  -27.9437  -29.2509   19.5241 C   0  0  0  0  0  0  0  0  0  0  0  0
  -26.3247  -20.6157   26.2916 C   0  0  0  0  0  0  0  0  0  0  0  0
  -29.0072  -27.2030   18.4880 C   0  0  0  0  0  0  0  0  0  0  0  0
  -27.0338  -21.9482   26.0501 C   0  0  0  0  0  0  0  0  0  0  0  0
  -27.8550  -26.9905   20.6562 C   0  0  0  0  0  0  0  0  0  0  0  0
  -28.0421  -20.2402   24.6584 C   0  0  0  0  0  0  0  0  0  0  0  0
  -23.5354  -12.3016   21.7029 C   0  0  1  0  0  0  0  0  0  0  0  0
  -25.4972  -15.1113   20.0627 C   0  0  1  0  0  0  0  0  0  0  0  0
  -27.9073  -28.5122   20.8755 C   0  0  2  0  0  0  0  0  0  0  0  0
  -26.6202  -19.8203   25.0284 C   0  0  2  0  0  0  0  0  0  1  0  0
  -28.6281  -22.3139   22.4644 C   0  0  0  0  0  0  0  0  0  0  0  0
  -32.6760  -16.7732   17.6738 C   0  0  0  0  0  0  0  0  0  0  0  0
  -29.1904  -12.9516   21.8111 C   0  0  0  0  0  0  0  0  0  0  0  0
  -31.4106  -13.8334   21.0617 C   0  0  0  0  0  0  0  0  0  0  0  0
  -30.0128  -12.4855   19.4957 C   0  0  0  0  0  0  0  0  0  0  0  0
  -29.5714  -18.9222   17.2054 C   0  0  0  0  0  0  0  0  0  0  0  0
  -30.8178  -24.0959   21.8986 C   0  0  0  0  0  0  0  0  0  0  0  0
  -29.3119  -14.8476   20.0628 C   0  0  1  0  0  0  0  0  0  0  0  0
  -31.1834  -17.0596   17.6186 C   0  0  2  0  0  0  0  0  0  0  0  0
  -29.9607  -13.5473   20.6158 C   0  0  0  0  0  0  0  0  0  0  0  0
  -25.5859  -28.3649   21.6954 N   0  0  0  0  0  0  0  0  0  0  0  0
  -26.7681  -29.0017   21.7505 N   0  0  0  0  0  0  0  0  0  0  0  0
  -28.1582  -21.6000   25.1866 N   0  0  3  0  0  0  0  0  0  0  0  0
  -26.9126  -15.4097   20.2901 N   0  0  0  0  0  0  0  0  0  0  0  0
  -28.9766  -26.5630   19.8053 N   0  0  0  0  0  0  0  0  0  0  0  0
  -27.8989  -30.7976   22.8024 N   0  0  0  0  0  0  0  0  0  0  0  0
  -23.7674  -30.9609   24.6189 N   0  0  0  0  0  0  0  0  0  0  0  0
  -24.0959  -13.2784   20.7940 N   0  0  0  0  0  0  0  0  0  0  0  0
  -30.0049  -15.4190   18.9132 N   0  0  0  0  0  0  0  0  0  0  0  0
  -29.8688  -25.0706   21.4086 N   0  0  0  0  0  0  0  0  0  0  0  0
  -30.9934  -18.5056   17.3120 N   0  3  0  0  0  0  0  0  0  0  0  0
  -25.8321  -31.9584   24.5961 O   0  0  0  0  0  0  0  0  0  0  0  0
  -25.5593  -14.3101   22.2829 O   0  0  0  0  0  0  0  0  0  0  0  0
  -27.6308  -13.8247   18.7382 O   0  0  0  0  0  0  0  0  0  0  0  0
  -30.4270  -17.4873   19.8730 O   0  0  0  0  0  0  0  0  0  0  0  0
  -30.8768  -25.3092   19.3631 O   0  0  0  0  0  0  0  0  0  0  0  0
  -19.5256  -27.5381   23.4669 O   0  0  0  0  0  0  0  0  0  0  0  0
  -25.7315  -20.2054   23.9859 O   0  0  0  0  0  0  0  0  0  1  0  0
  -15.7269  -31.5304   23.6558 F   0  0  0  0  0  0  0  0  0  0  0  0
  -17.4132  -27.5714   21.6839 F   0  0  0  0  0  0  0  0  0  0  0  0
  -32.6491  -25.2501   24.0657 Cl  0  0  0  0  0  0  0  0  0  0  0  0
  1  2  1  0  0  0  0
  1  5  2  0  0  0  0
  2  6  2  0  0  0  0
  3  9  2  0  0  0  0
  3 17  1  0  0  0  0
  4 10  1  0  0  0  0
  4 17  2  0  0  0  0
  5 19  1  0  0  0  0
  6 21  1  0  0  0  0
  7 11  2  0  0  0  0
  7 20  1  0  0  0  0
  8 14  2  0  0  0  0
  8 25  1  0  0  0  0
  9 26  1  0  0  0  0
 10 26  2  0  0  0  0
 11 27  1  0  0  0  0
 12 13  2  0  0  0  0
 12 28  1  0  0  0  0
 13 29  1  0  0  0  0
 14 31  1  0  0  0  0
 15 22  1  0  0  0  0
 15 27  2  0  0  0  0
 16 29  2  0  0  0  0
 16 30  1  0  0  0  0
 17 32  1  0  0  0  0
 18 32  1  0  0  0  0
 18 33  2  0  0  0  0
 18 34  1  0  0  0  0
 19 21  2  0  0  0  0
 19 39  1  0  0  0  0
 20 22  2  0  0  0  0
 20 40  1  0  0  0  0
 21 51  1  0  0  0  0
 22 41  1  0  0  0  0
 23 24  1  0  0  0  0
 23 25  2  0  0  0  0
 23 55  1  0  0  0  0
 24 31  2  0  0  0  0
 24 61  1  0  0  0  0
 25 67  1  0  0  0  0
 26 81  1  0  0  0  0
 27 82  1  0  0  0  0
 28 30  2  0  0  0  0
 28 81  1  0  0  0  0
 29 83  1  0  0  0  0
 30 84  1  0  0  0  0
 31 85  1  0  0  0  0
 32 65  2  0  0  0  0
 33 66  1  0  0  0  0
 33 70  1  0  0  0  0
 34 71  1  0  0  0  0
 34 76  2  0  0  0  0
 35 52  1  0  0  0  0
 35 72  1  0  0  0  0
 35 77  2  0  0  0  0
 36 62  1  0  0  0  0
 36 68  1  0  0  0  0
 36 78  2  0  0  0  0
 37 63  1  0  0  0  0
 37 73  1  0  0  0  0
 37 79  2  0  0  0  0
 38 69  1  0  0  0  0
 38 74  1  0  0  0  0
 38 80  2  0  0  0  0
 39 42  1  0  0  0  0
 40 52  1  0  0  0  0
 41 68  1  0  0  0  0
 42 44  1  0  0  0  0
 43 45  1  0  0  0  0
 43 47  1  0  0  0  0
 44 51  1  0  0  0  0
 45 53  1  0  0  0  0
 46 48  1  0  0  0  0
 46 54  1  0  0  0  0
 47 69  1  0  0  0  0
 48 67  1  0  0  0  0
 49 53  1  0  0  0  0
 49 69  1  0  0  0  0
 50 54  1  0  0  0  0
 50 67  1  0  0  0  0
 51 72  1  0  0  0  0
 52 68  1  0  0  0  0
 53 66  1  0  0  0  0
 54 82  1  0  0  0  0
 56 63  1  0  0  0  0
 57 64  1  0  0  0  0
 58 64  1  0  0  0  0
 59 64  1  0  0  0  0
 60 75  1  0  0  0  0
 61 74  1  0  0  0  0
 62 64  1  0  0  0  0
 62 73  1  0  0  0  0
 63 75  1  0  0  0  0
 65 66  1  0  0  0  0
M  CHG  1  75   1
M  ISO  4  38 100  54 101  74 100  82 101
M  END
> <Batch ID>
0029

> <Smiles>
CNC(C)C(=O)NC(C(=O)N1Cc2cc([101O:1][101CH:1]3CCN(c4ccc(Cl)c(C[100NH:0][100C:0](=O)N5CCCC(n6nc(-c7ccc(Oc8ccc(F)cc8F)cc7)c(C(N)=O)c6N)C5)c4C)C3)ccc2CC1C(=O)NC1CCCc2ccccc21)C(C)(C)C

> <Shape>
0.265

> <Color>
0.057

> <Negative vol penalty>
0.000

$$$$

  -OEChem-04042321343D

 86 95  0     1  0  0  0  0  0999 V2000
  -27.4672  -24.1013   17.2745 C   0  0  0  0  0  0  0  0  0  0  0  0
  -26.3317  -24.4086   18.0173 C   0  0  0  0  0  0  0  0  0  0  0  0
  -25.9820  -14.1591   20.3727 C   0  0  0  0  0  0  0  0  0  0  0  0
  -23.8583  -13.9426   21.5040 C   0  0  0  0  0  0  0  0  0  0  0  0
  -28.7102  -24.5965   17.6664 C   0  0  0  0  0  0  0  0  0  0  0  0
  -26.4388  -25.2104   19.1530 C   0  0  0  0  0  0  0  0  0  0  0  0
  -22.8278  -28.7537   19.3771 C   0  0  0  0  0  0  0  0  0  0  0  0
  -21.4853  -23.2819   26.0592 C   0  0  0  0  0  0  0  0  0  0  0  0
  -20.6448  -24.2438   25.4992 C   0  0  0  0  0  0  0  0  0  0  0  0
  -26.2002  -12.7893   20.5200 C   0  0  0  0  0  0  0  0  0  0  0  0
  -24.0764  -12.5728   21.6513 C   0  0  0  0  0  0  0  0  0  0  0  0
  -21.5609  -28.3464   19.7929 C   0  0  0  0  0  0  0  0  0  0  0  0
  -23.8477   -9.7960   19.7389 C   0  0  0  0  0  0  0  0  0  0  0  0
  -22.7872   -8.9376   19.4488 C   0  0  0  0  0  0  0  0  0  0  0  0
  -22.0185  -29.1996   22.0024 C   0  0  0  0  0  0  0  0  0  0  0  0
  -22.8463   -8.0994   21.7140 C   0  0  0  0  0  0  0  0  0  0  0  0
  -24.8111  -14.7358   20.8647 C   0  0  0  0  0  0  0  0  0  0  0  0
  -23.9470  -16.7997   19.6395 C   0  0  0  0  0  0  0  0  0  0  0  0
  -28.8312  -25.4127   18.8021 C   0  0  0  0  0  0  0  0  0  0  0  0
  -23.7051  -29.3783   20.2752 C   0  0  0  0  0  0  0  0  0  0  0  0
  -27.6848  -25.7159   19.5613 C   0  0  0  0  0  0  0  0  0  0  0  0
  -23.2950  -29.6162   21.5948 C   0  0  0  0  0  0  0  0  0  0  0  0
  -21.2832  -21.9305   25.7786 C   0  0  0  0  0  0  0  0  0  0  0  0
  -19.6020  -23.8545   24.6585 C   0  0  0  0  0  0  0  0  0  0  0  0
  -19.3999  -22.5031   24.3778 C   0  0  0  0  0  0  0  0  0  0  0  0
  -20.2405  -21.5412   24.9379 C   0  0  0  0  0  0  0  0  0  0  0  0
  -25.2474  -11.9962   21.1593 C   0  0  0  0  0  0  0  0  0  0  0  0
  -21.1572  -28.5667   21.1065 C   0  0  0  0  0  0  0  0  0  0  0  0
  -24.4075   -9.8061   21.0165 C   0  0  0  0  0  0  0  0  0  0  0  0
  -22.2865   -8.0893   20.4364 C   0  0  0  0  0  0  0  0  0  0  0  0
  -23.9068   -8.9578   22.0040 C   0  0  0  0  0  0  0  0  0  0  0  0
  -24.5855  -16.1508   20.7134 C   0  0  0  0  0  0  0  0  0  0  0  0
  -23.9868  -18.1321   19.9709 C   0  0  0  0  0  0  0  0  0  0  0  0
  -23.3696  -16.2476   18.4490 C   0  0  0  0  0  0  0  0  0  0  0  0
  -26.5726  -28.6850   21.4586 C   0  0  0  0  0  0  0  0  0  0  0  0
  -26.3201  -31.6450   22.7615 C   0  0  0  0  0  0  0  0  0  0  0  0
  -24.2974  -34.1827   23.8174 C   0  0  0  0  0  0  0  0  0  0  0  0
  -24.3729  -21.0233   25.1999 C   0  0  0  0  0  0  0  0  0  0  0  0
  -30.2030  -25.8857   19.2134 C   0  0  0  0  0  0  0  0  0  0  0  0
  -25.0582  -29.8358   19.8038 C   0  0  0  0  0  0  0  0  0  0  0  0
  -24.1916  -30.3010   22.5926 C   0  0  0  0  0  0  0  0  0  0  0  0
  -30.1753  -27.0364   20.2161 C   0  0  0  0  0  0  0  0  0  0  0  0
  -26.5926  -21.3027   22.4301 C   0  0  0  0  0  0  0  0  0  0  0  0
  -29.1809  -26.7451   21.3356 C   0  0  0  0  0  0  0  0  0  0  0  0
  -26.2723  -20.0726   21.5792 C   0  0  0  0  0  0  0  0  0  0  0  0
  -26.4956  -20.9970   23.9232 C   0  0  0  0  0  0  0  0  0  0  0  0
  -24.8962  -19.1702   23.5003 C   0  0  0  0  0  0  0  0  0  0  0  0
  -18.2715  -26.3608   22.1508 C   0  0  0  0  0  0  0  0  0  0  0  0
  -20.2752  -25.8454   22.4378 C   0  0  0  0  0  0  0  0  0  0  0  0
  -27.7567  -26.6029   20.7852 C   0  0  1  0  0  0  0  0  0  0  0  0
  -26.0628  -30.0000   20.9402 C   0  0  1  0  0  0  0  0  0  0  0  0
  -24.9263  -19.4438   21.9869 C   0  0  2  0  0  0  0  0  0  0  0  0
  -19.5700  -26.7786   21.4380 C   0  0  0  0  0  0  0  0  0  1  0  0
  -18.2801  -22.0873   23.4771 C   0  0  0  0  0  0  0  0  0  0  0  0
  -18.8588  -19.5061   25.4237 C   0  0  0  0  0  0  0  0  0  0  0  0
  -24.3794  -36.4586   24.8715 C   0  0  0  0  0  0  0  0  0  0  0  0
  -26.9109  -30.3672   25.4686 C   0  0  0  0  0  0  0  0  0  0  0  0
  -26.0547  -32.4509   26.5608 C   0  0  0  0  0  0  0  0  0  0  0  0
  -28.0563  -32.5554   25.0757 C   0  0  0  0  0  0  0  0  0  0  0  0
  -22.9994  -35.4421   21.4747 C   0  0  0  0  0  0  0  0  0  0  0  0
  -20.0269  -20.0914   24.6376 C   0  0  0  0  0  0  0  0  0  0  0  0
  -22.1981  -20.9208   26.3910 C   0  0  0  0  0  0  0  0  0  0  0  0
  -18.7114  -24.9092   24.0708 C   0  0  0  0  0  0  0  0  0  0  0  0
  -25.7713  -32.2012   24.0532 C   0  0  1  0  0  0  0  0  0  0  0  0
  -24.3441  -35.6791   23.5662 C   0  0  2  0  0  0  0  0  0  0  0  0
  -26.6819  -31.8790   25.2715 C   0  0  0  0  0  0  0  0  0  0  0  0
  -25.0005  -17.0009   21.6563 N   0  0  0  0  0  0  0  0  0  0  0  0
  -24.6222  -18.1976   21.1760 N   0  0  0  0  0  0  0  0  0  0  0  0
  -25.5074  -30.7240   22.0854 N   0  0  0  0  0  0  0  0  0  0  0  0
  -25.1949  -20.4043   24.2438 N   0  0  0  0  0  0  0  0  0  0  0  0
  -23.5400  -19.2422   19.3461 N   0  0  0  0  0  0  0  0  0  0  0  0
  -23.4149  -14.8587   18.2666 N   0  0  0  0  0  0  0  0  0  0  0  0
  -27.1923  -27.9049   20.5011 N   0  0  0  0  0  0  0  0  0  0  0  0
  -25.5591  -33.6267   23.8262 N   0  0  0  0  0  0  0  0  0  0  0  0
  -23.1544  -20.4000   25.4397 N   0  0  0  0  0  0  0  0  0  0  0  0
  -18.9825  -25.1649   22.6392 N   0  3  0  0  0  0  0  0  0  0  0  0
  -23.1463  -36.1121   22.7924 N   0  3  0  0  0  0  0  0  0  0  0  0
  -22.8441  -16.9661   17.5652 O   0  0  0  0  0  0  0  0  0  0  0  0
  -26.4166  -28.4000   22.6402 O   0  0  0  0  0  0  0  0  0  0  0  0
  -27.4260  -32.0193   22.3634 O   0  0  0  0  0  0  0  0  0  0  0  0
  -23.2469  -33.5692   23.9924 O   0  0  0  0  0  0  0  0  0  0  0  0
  -24.6984  -22.0580   25.7919 O   0  0  0  0  0  0  0  0  0  0  0  0
  -25.4598  -10.6595   21.3030 O   0  0  0  0  0  0  0  0  0  0  0  0
  -19.9215  -28.1695   21.5153 O   0  0  0  0  0  0  0  0  0  1  0  0
  -21.2671   -7.2661   20.1582 F   0  0  0  0  0  0  0  0  0  0  0  0
  -24.4397   -8.9638   23.2336 F   0  0  0  0  0  0  0  0  0  0  0  0
  1  2  1  0  0  0  0
  1  5  2  0  0  0  0
  2  6  2  0  0  0  0
  3 10  2  0  0  0  0
  3 17  1  0  0  0  0
  4 11  1  0  0  0  0
  4 17  2  0  0  0  0
  5 19  1  0  0  0  0
  6 21  1  0  0  0  0
  7 12  2  0  0  0  0
  7 20  1  0  0  0  0
  8  9  1  0  0  0  0
  8 23  2  0  0  0  0
  9 24  2  0  0  0  0
 10 27  1  0  0  0  0
 11 27  2  0  0  0  0
 12 28  1  0  0  0  0
 13 14  2  0  0  0  0
 13 29  1  0  0  0  0
 14 30  1  0  0  0  0
 15 22  1  0  0  0  0
 15 28  2  0  0  0  0
 16 30  2  0  0  0  0
 16 31  1  0  0  0  0
 17 32  1  0  0  0  0
 18 32  1  0  0  0  0
 18 33  2  0  0  0  0
 18 34  1  0  0  0  0
 19 21  2  0  0  0  0
 19 39  1  0  0  0  0
 20 22  2  0  0  0  0
 20 40  1  0  0  0  0
 21 50  1  0  0  0  0
 22 41  1  0  0  0  0
 23 26  1  0  0  0  0
 23 62  1  0  0  0  0
 24 25  1  0  0  0  0
 24 63  1  0  0  0  0
 25 26  2  0  0  0  0
 25 54  1  0  0  0  0
 26 61  1  0  0  0  0
 27 83  1  0  0  0  0
 28 84  1  0  0  0  0
 29 31  2  0  0  0  0
 29 83  1  0  0  0  0
 30 85  1  0  0  0  0
 31 86  1  0  0  0  0
 32 67  2  0  0  0  0
 33 68  1  0  0  0  0
 33 71  1  0  0  0  0
 34 72  1  0  0  0  0
 34 78  2  0  0  0  0
 35 51  1  0  0  0  0
 35 73  1  0  0  0  0
 35 79  2  0  0  0  0
 36 64  1  0  0  0  0
 36 69  1  0  0  0  0
 36 80  2  0  0  0  0
 37 65  1  0  0  0  0
 37 74  1  0  0  0  0
 37 81  2  0  0  0  0
 38 70  1  0  0  0  0
 38 75  1  0  0  0  0
 38 82  2  0  0  0  0
 39 42  1  0  0  0  0
 40 51  1  0  0  0  0
 41 69  1  0  0  0  0
 42 44  1  0  0  0  0
 43 45  1  0  0  0  0
 43 46  1  0  0  0  0
 44 50  1  0  0  0  0
 45 52  1  0  0  0  0
 46 70  1  0  0  0  0
 47 52  1  0  0  0  0
 47 70  1  0  0  0  0
 48 53  1  0  0  0  0
 48 76  1  0  0  0  0
 49 53  1  0  0  0  0
 49 76  1  0  0  0  0
 50 73  1  0  0  0  0
 51 69  1  0  0  0  0
 52 68  1  0  0  0  0
 53 84  1  0  0  0  0
 55 61  1  0  0  0  0
 56 65  1  0  0  0  0
 57 66  1  0  0  0  0
 58 66  1  0  0  0  0
 59 66  1  0  0  0  0
 60 77  1  0  0  0  0
 62 75  1  0  0  0  0
 63 76  1  0  0  0  0
 64 66  1  0  0  0  0
 64 74  1  0  0  0  0
 65 77  1  0  0  0  0
 67 68  1  0  0  0  0
M  CHG  2  76   1  77   1
M  ISO  4  38 100  53 101  75 100  84 101
M  END
> <Batch ID>
0029

> <Smiles>
CCc1c(C[100NH:0][100C:0](=O)N2CCCC(n3nc(-c4ccc(Oc5ccc(F)cc5F)cc4)c(C(N)=O)c3N)C2)ccc(CN2C[101CH:1]([101O:1]c3ccc4c(c3)CN(C(=O)C(NC(=O)C(C)NC)C(C)(C)C)C(C(=O)NC3CCCc5ccccc53)C4)C2)c1C

> <Shape>
0.282

> <Color>
0.075

> <Negative vol penalty>
0.000

$$$$

  -OEChem-04042321343D

 85 94  0     1  0  0  0  0  0999 V2000
  -20.6012  -19.7566   20.3741 C   0  0  0  0  0  0  0  0  0  0  0  0
  -21.1063  -18.6356   21.0250 C   0  0  0  0  0  0  0  0  0  0  0  0
  -23.2862   -9.8003   19.9134 C   0  0  0  0  0  0  0  0  0  0  0  0
  -23.7340   -9.9422   22.2833 C   0  0  0  0  0  0  0  0  0  0  0  0
  -20.7994  -21.0251   20.9176 C   0  0  0  0  0  0  0  0  0  0  0  0
  -21.8108  -18.7827   22.2194 C   0  0  0  0  0  0  0  0  0  0  0  0
  -21.8206  -14.9368   26.9854 C   0  0  0  0  0  0  0  0  0  0  0  0
  -29.7289  -14.8996   27.1692 C   0  0  0  0  0  0  0  0  0  0  0  0
  -22.5587   -8.6285   20.1210 C   0  0  0  0  0  0  0  0  0  0  0  0
  -23.0065   -8.7704   22.4909 C   0  0  0  0  0  0  0  0  0  0  0  0
  -22.7106  -13.9408   27.3852 C   0  0  0  0  0  0  0  0  0  0  0  0
  -23.2091   -5.3540   20.6495 C   0  0  0  0  0  0  0  0  0  0  0  0
  -23.4379   -4.2874   19.7803 C   0  0  0  0  0  0  0  0  0  0  0  0
  -30.5019  -15.6930   26.3215 C   0  0  0  0  0  0  0  0  0  0  0  0
  -23.7809  -15.5048   28.8777 C   0  0  0  0  0  0  0  0  0  0  0  0
  -21.1167   -4.3345   19.1116 C   0  0  0  0  0  0  0  0  0  0  0  0
  -23.8739  -10.4572   20.9945 C   0  0  0  0  0  0  0  0  0  0  0  0
  -24.1355  -12.9868   20.7945 C   0  0  0  0  0  0  0  0  0  0  0  0
  -21.4983  -21.1870   22.1242 C   0  0  0  0  0  0  0  0  0  0  0  0
  -21.9112  -16.2293   27.5216 C   0  0  0  0  0  0  0  0  0  0  0  0
  -22.0196  -20.0547   22.7788 C   0  0  0  0  0  0  0  0  0  0  0  0
  -22.8892  -16.5146   28.4850 C   0  0  0  0  0  0  0  0  0  0  0  0
  -29.5881  -13.5358   26.9120 C   0  0  0  0  0  0  0  0  0  0  0  0
  -30.2202  -12.9656   25.8071 C   0  0  0  0  0  0  0  0  0  0  0  0
  -30.9933  -13.7590   24.9594 C   0  0  0  0  0  0  0  0  0  0  0  0
  -22.4188   -8.1135   21.4098 C   0  0  0  0  0  0  0  0  0  0  0  0
  -23.6927  -14.2255   28.3293 C   0  0  0  0  0  0  0  0  0  0  0  0
  -21.9341   -5.9108   20.7499 C   0  0  0  0  0  0  0  0  0  0  0  0
  -22.3917   -3.7777   19.0113 C   0  0  0  0  0  0  0  0  0  0  0  0
  -20.8879   -5.4011   19.9809 C   0  0  0  0  0  0  0  0  0  0  0  0
  -31.1341  -15.1227   25.2167 C   0  0  0  0  0  0  0  0  0  0  0  0
  -24.6261  -11.6674   20.7806 C   0  0  0  0  0  0  0  0  0  0  0  0
  -25.2379  -13.7657   20.5404 C   0  0  0  0  0  0  0  0  0  0  0  0
  -22.8025  -13.4656   21.0172 C   0  0  0  0  0  0  0  0  0  0  0  0
  -22.4724  -19.1201   26.3249 C   0  0  0  0  0  0  0  0  0  0  0  0
  -21.7973  -20.0766   29.3500 C   0  0  0  0  0  0  0  0  0  0  0  0
  -21.6454  -19.2974   32.6691 C   0  0  0  0  0  0  0  0  0  0  0  0
  -31.1072  -12.9189   21.3682 C   0  0  0  0  0  0  0  0  0  0  0  0
  -21.7282  -22.5824   22.6484 C   0  0  0  0  0  0  0  0  0  0  0  0
  -20.9266  -17.2853   27.0997 C   0  0  0  0  0  0  0  0  0  0  0  0
  -23.0157  -17.8809   29.1061 C   0  0  0  0  0  0  0  0  0  0  0  0
  -22.1620  -22.6196   24.1115 C   0  0  0  0  0  0  0  0  0  0  0  0
  -29.4628  -13.6574   18.2978 C   0  0  0  0  0  0  0  0  0  0  0  0
  -23.2631  -21.5955   24.3680 C   0  0  0  0  0  0  0  0  0  0  0  0
  -27.9925  -13.3502   18.5872 C   0  0  0  0  0  0  0  0  0  0  0  0
  -30.3944  -12.6778   19.0081 C   0  0  0  0  0  0  0  0  0  0  0  0
  -28.7052  -12.2509   20.7511 C   0  0  0  0  0  0  0  0  0  0  0  0
  -26.5448  -11.7463   28.2820 C   0  0  0  0  0  0  0  0  0  0  0  0
  -26.5418  -13.5166   27.1736 C   0  0  0  0  0  0  0  0  0  0  0  0
  -22.7677  -20.1713   24.0891 C   0  0  1  0  0  0  0  0  0  0  0  0
  -21.4367  -18.7044   27.3310 C   0  0  1  0  0  0  0  0  0  0  0  0
  -27.7288  -13.2464   20.1015 C   0  0  2  0  0  0  0  0  0  0  0  0
  -25.4131  -12.6380   27.7409 C   0  0  0  0  0  0  0  0  0  1  0  0
  -30.0669  -11.5023   25.5347 C   0  0  0  0  0  0  0  0  0  0  0  0
  -21.0939  -20.2968   34.9040 C   0  0  0  0  0  0  0  0  0  0  0  0
  -24.4654  -21.5568   29.3438 C   0  0  0  0  0  0  0  0  0  0  0  0
  -24.3021  -21.7187   31.8368 C   0  0  0  0  0  0  0  0  0  0  0  0
  -22.5787  -22.8117   30.4022 C   0  0  0  0  0  0  0  0  0  0  0  0
  -19.4525  -17.3624   33.1231 C   0  0  0  0  0  0  0  0  0  0  0  0
  -31.6661  -13.1339   23.7766 C   0  0  0  0  0  0  0  0  0  0  0  0
  -28.7522  -12.7058   27.8411 C   0  0  0  0  0  0  0  0  0  0  0  0
  -22.6033  -20.2920   30.6082 C   0  0  1  0  0  0  0  0  0  0  0  0
  -20.5617  -19.5226   33.7081 C   0  0  2  0  0  0  0  0  0  0  0  0
  -23.4865  -21.5695   30.5348 C   0  0  0  0  0  0  0  0  0  0  0  0
  -25.9379  -11.6076   20.5368 N   0  0  0  0  0  0  0  0  0  0  0  0
  -26.2810  -12.8992   20.3951 N   0  0  0  0  0  0  0  0  0  0  0  0
  -22.0338  -18.8814   28.6563 N   0  0  0  0  0  0  0  0  0  0  0  0
  -30.0932  -12.6276   20.4408 N   0  0  0  0  0  0  0  0  0  0  0  0
  -25.4069  -15.1004   20.4292 N   0  0  0  0  0  0  0  0  0  0  0  0
  -21.7889  -12.5296   21.2641 N   0  0  0  0  0  0  0  0  0  0  0  0
  -21.9485  -19.6976   25.1841 N   0  0  0  0  0  0  0  0  0  0  0  0
  -21.6478  -20.2886   31.7106 N   0  0  0  0  0  0  0  0  0  0  0  0
  -30.7357  -12.8546   22.7056 N   0  0  0  0  0  0  0  0  0  0  0  0
  -27.4348  -12.3472   27.2715 N   0  3  0  0  0  0  0  0  0  0  0  0
  -20.0292  -18.2176   34.1923 N   0  3  0  0  0  0  0  0  0  0  0  0
  -22.5156  -14.6862   20.9817 O   0  0  0  0  0  0  0  0  0  0  0  0
  -23.6590  -18.9322   26.5663 O   0  0  0  0  0  0  0  0  0  0  0  0
  -20.9825  -20.9340   28.9996 O   0  0  0  0  0  0  0  0  0  0  0  0
  -22.4153  -18.3401   32.7063 O   0  0  0  0  0  0  0  0  0  0  0  0
  -32.2568  -13.2196   21.0294 O   0  0  0  0  0  0  0  0  0  0  0  0
  -21.7088   -6.9702   21.6128 O   0  0  0  0  0  0  0  0  0  0  0  0
  -24.5631  -13.2554   28.7208 O   0  0  0  0  0  0  0  0  0  1  0  0
  -22.6119   -2.7544   18.1754 F   0  0  0  0  0  0  0  0  0  0  0  0
  -19.6612   -5.9326   20.0722 F   0  0  0  0  0  0  0  0  0  0  0  0
  -32.0819  -16.1388   24.1919 Cl  0  0  0  0  0  0  0  0  0  0  0  0
  1  2  1  0  0  0  0
  1  5  2  0  0  0  0
  2  6  2  0  0  0  0
  3  9  2  0  0  0  0
  3 17  1  0  0  0  0
  4 10  1  0  0  0  0
  4 17  2  0  0  0  0
  5 19  1  0  0  0  0
  6 21  1  0  0  0  0
  7 11  2  0  0  0  0
  7 20  1  0  0  0  0
  8 14  2  0  0  0  0
  8 23  1  0  0  0  0
  9 26  1  0  0  0  0
 10 26  2  0  0  0  0
 11 27  1  0  0  0  0
 12 13  2  0  0  0  0
 12 28  1  0  0  0  0
 13 29  1  0  0  0  0
 14 31  1  0  0  0  0
 15 22  1  0  0  0  0
 15 27  2  0  0  0  0
 16 29  2  0  0  0  0
 16 30  1  0  0  0  0
 17 32  1  0  0  0  0
 18 32  1  0  0  0  0
 18 33  2  0  0  0  0
 18 34  1  0  0  0  0
 19 21  2  0  0  0  0
 19 39  1  0  0  0  0
 20 22  2  0  0  0  0
 20 40  1  0  0  0  0
 21 50  1  0  0  0  0
 22 41  1  0  0  0  0
 23 24  2  0  0  0  0
 23 61  1  0  0  0  0
 24 25  1  0  0  0  0
 24 54  1  0  0  0  0
 25 31  2  0  0  0  0
 25 60  1  0  0  0  0
 26 81  1  0  0  0  0
 27 82  1  0  0  0  0
 28 30  2  0  0  0  0
 28 81  1  0  0  0  0
 29 83  1  0  0  0  0
 30 84  1  0  0  0  0
 31 85  1  0  0  0  0
 32 65  2  0  0  0  0
 33 66  1  0  0  0  0
 33 69  1  0  0  0  0
 34 70  1  0  0  0  0
 34 76  2  0  0  0  0
 35 51  1  0  0  0  0
 35 71  1  0  0  0  0
 35 77  2  0  0  0  0
 36 62  1  0  0  0  0
 36 67  1  0  0  0  0
 36 78  2  0  0  0  0
 37 63  1  0  0  0  0
 37 72  1  0  0  0  0
 37 79  2  0  0  0  0
 38 68  1  0  0  0  0
 38 73  1  0  0  0  0
 38 80  2  0  0  0  0
 39 42  1  0  0  0  0
 40 51  1  0  0  0  0
 41 67  1  0  0  0  0
 42 44  1  0  0  0  0
 43 45  1  0  0  0  0
 43 46  1  0  0  0  0
 44 50  1  0  0  0  0
 45 52  1  0  0  0  0
 46 68  1  0  0  0  0
 47 52  1  0  0  0  0
 47 68  1  0  0  0  0
 48 53  1  0  0  0  0
 48 74  1  0  0  0  0
 49 53  1  0  0  0  0
 49 74  1  0  0  0  0
 50 71  1  0  0  0  0
 51 67  1  0  0  0  0
 52 66  1  0  0  0  0
 53 82  1  0  0  0  0
 55 63  1  0  0  0  0
 56 64  1  0  0  0  0
 57 64  1  0  0  0  0
 58 64  1  0  0  0  0
 59 75  1  0  0  0  0
 60 73  1  0  0  0  0
 61 74  1  0  0  0  0
 62 64  1  0  0  0  0
 62 72  1  0  0  0  0
 63 75  1  0  0  0  0
 65 66  1  0  0  0  0
M  CHG  2  74   1  75   1
M  ISO  4  38 100  53 101  73 100  82 101
M  END
> <Batch ID>
0029

> <Smiles>
CNC(C)C(=O)NC(C(=O)N1Cc2cc([101O:1][101CH:1]3CN(Cc4ccc(Cl)c(C[100NH:0][100C:0](=O)N5CCCC(n6nc(-c7ccc(Oc8ccc(F)cc8F)cc7)c(C(N)=O)c6N)C5)c4C)C3)ccc2CC1C(=O)NC1CCCc2ccccc21)C(C)(C)C

> <Shape>
0.120

> <Color>
0.170

> <Negative vol penalty>
0.000

$$$$

  -OEChem-04042321343D

 83 92  0     1  0  0  0  0  0999 V2000
  -18.0677  -28.5628   18.7768 C   0  0  0  0  0  0  0  0  0  0  0  0
  -19.2899  -27.9005   18.8301 C   0  0  0  0  0  0  0  0  0  0  0  0
  -31.1048  -19.2389   20.1307 C   0  0  0  0  0  0  0  0  0  0  0  0
  -23.1711   -9.7394   20.1175 C   0  0  0  0  0  0  0  0  0  0  0  0
  -23.8439   -9.9963   22.4237 C   0  0  0  0  0  0  0  0  0  0  0  0
  -17.8828  -29.7414   19.4985 C   0  0  0  0  0  0  0  0  0  0  0  0
  -20.3284  -28.4169   19.6042 C   0  0  0  0  0  0  0  0  0  0  0  0
  -22.6617  -24.8573   22.3483 C   0  0  0  0  0  0  0  0  0  0  0  0
  -30.3250  -20.0998   20.9029 C   0  0  0  0  0  0  0  0  0  0  0  0
  -30.9660  -17.8580   20.2703 C   0  0  0  0  0  0  0  0  0  0  0  0
  -22.4559   -8.5902   20.4541 C   0  0  0  0  0  0  0  0  0  0  0  0
  -23.1285   -8.8471   22.7604 C   0  0  0  0  0  0  0  0  0  0  0  0
  -23.5736  -24.0377   21.6847 C   0  0  0  0  0  0  0  0  0  0  0  0
  -19.9074   -7.9970   23.3277 C   0  0  0  0  0  0  0  0  0  0  0  0
  -19.1087   -8.0440   24.4703 C   0  0  0  0  0  0  0  0  0  0  0  0
  -25.3900  -25.3698   22.5482 C   0  0  0  0  0  0  0  0  0  0  0  0
  -20.3833   -6.2328   25.4358 C   0  0  0  0  0  0  0  0  0  0  0  0
  -23.8652  -10.4424   21.1023 C   0  0  0  0  0  0  0  0  0  0  0  0
  -24.1299  -12.9546   20.7462 C   0  0  0  0  0  0  0  0  0  0  0  0
  -18.9163  -30.2673   20.2895 C   0  0  0  0  0  0  0  0  0  0  0  0
  -23.1072  -25.9477   23.1092 C   0  0  0  0  0  0  0  0  0  0  0  0
  -20.1576  -29.6043   20.3361 C   0  0  0  0  0  0  0  0  0  0  0  0
  -24.4818  -26.2002   23.2226 C   0  0  0  0  0  0  0  0  0  0  0  0
  -29.4064  -19.5798   21.8148 C   0  0  0  0  0  0  0  0  0  0  0  0
  -29.2676  -18.1989   21.9544 C   0  0  0  0  0  0  0  0  0  0  0  0
  -30.0474  -17.3380   21.1821 C   0  0  0  0  0  0  0  0  0  0  0  0
  -22.4345   -8.1441   21.7755 C   0  0  0  0  0  0  0  0  0  0  0  0
  -24.9378  -24.2956   21.7822 C   0  0  0  0  0  0  0  0  0  0  0  0
  -20.9440   -7.0678   23.2391 C   0  0  0  0  0  0  0  0  0  0  0  0
  -19.3466   -7.1620   25.5243 C   0  0  0  0  0  0  0  0  0  0  0  0
  -21.1819   -6.1857   24.2931 C   0  0  0  0  0  0  0  0  0  0  0  0
  -24.6047  -11.6293   20.7551 C   0  0  0  0  0  0  0  0  0  0  0  0
  -25.2103  -13.7037   20.3485 C   0  0  0  0  0  0  0  0  0  0  0  0
  -22.8287  -13.4630   21.0687 C   0  0  0  0  0  0  0  0  0  0  0  0
  -22.7009  -29.0971   22.9680 C   0  0  0  0  0  0  0  0  0  0  0  0
  -24.3180  -29.0399   25.7794 C   0  0  0  0  0  0  0  0  0  0  0  0
  -26.5045  -27.4104   27.8315 C   0  0  0  0  0  0  0  0  0  0  0  0
  -30.6296  -14.9556   20.6063 C   0  0  0  0  0  0  0  0  0  0  0  0
  -18.6848  -31.5694   21.0145 C   0  0  0  0  0  0  0  0  0  0  0  0
  -22.1121  -26.8063   23.8407 C   0  0  0  0  0  0  0  0  0  0  0  0
  -25.0126  -27.3460   24.0434 C   0  0  0  0  0  0  0  0  0  0  0  0
  -19.7133  -31.8494   22.1073 C   0  0  0  0  0  0  0  0  0  0  0  0
  -29.6830  -12.2849   18.4503 C   0  0  0  0  0  0  0  0  0  0  0  0
  -21.1248  -31.5878   21.5916 C   0  0  0  0  0  0  0  0  0  0  0  0
  -28.2384  -11.9853   18.8570 C   0  0  0  0  0  0  0  0  0  0  0  0
  -30.5446  -12.6618   19.6542 C   0  0  0  0  0  0  0  0  0  0  0  0
  -28.5648  -13.4486   20.8914 C   0  0  0  0  0  0  0  0  0  0  0  0
  -26.4556  -21.7260   22.8284 C   0  0  0  0  0  0  0  0  0  0  0  0
  -27.0690  -21.3124   20.8751 C   0  0  0  0  0  0  0  0  0  0  0  0
  -21.3000  -30.1199   21.1841 C   0  0  1  0  0  0  0  0  0  0  0  0
  -22.6494  -28.1959   24.1692 C   0  0  1  0  0  0  0  0  0  0  0  0
  -27.6430  -13.1272   19.7038 C   0  0  2  0  0  0  0  0  0  0  0  0
  -25.8773  -22.0970   21.4512 C   0  0  0  0  0  0  0  0  0  1  0  0
  -28.2806  -17.6456   22.9341 C   0  0  0  0  0  0  0  0  0  0  0  0
  -27.6630  -27.6290   30.0467 C   0  0  0  0  0  0  0  0  0  0  0  0
  -26.2461  -31.0708   24.5679 C   0  0  0  0  0  0  0  0  0  0  0  0
  -27.8579  -30.5333   26.4068 C   0  0  0  0  0  0  0  0  0  0  0  0
  -25.6285  -31.5114   26.9509 C   0  0  0  0  0  0  0  0  0  0  0  0
  -25.2262  -24.9529   28.8734 C   0  0  0  0  0  0  0  0  0  0  0  0
  -28.5803  -20.5282   22.6328 C   0  0  0  0  0  0  0  0  0  0  0  0
  -25.7725  -29.1086   26.1777 C   0  0  1  0  0  0  0  0  0  0  0  0
  -26.4453  -27.0880   29.3137 C   0  0  2  0  0  0  0  0  0  0  0  0
  -26.3665  -30.5355   26.0087 C   0  0  0  0  0  0  0  0  0  0  0  0
  -25.8868  -11.5385   20.3918 N   0  0  0  0  0  0  0  0  0  0  0  0
  -26.2268  -12.8161   20.1508 N   0  0  0  0  0  0  0  0  0  0  0  0
  -23.9996  -28.1606   24.7347 N   0  0  0  0  0  0  0  0  0  0  0  0
  -29.9202  -13.7524   20.4063 N   0  0  0  0  0  0  0  0  0  0  0  0
  -25.3804  -15.0284   20.1521 N   0  0  0  0  0  0  0  0  0  0  0  0
  -21.8346  -12.5554   21.4590 N   0  0  0  0  0  0  0  0  0  0  0  0
  -29.9226  -15.9321   21.3071 N   0  0  0  0  0  0  0  0  0  0  0  0
  -21.4773  -29.2880   22.3550 N   0  0  0  0  0  0  0  0  0  0  0  0
  -25.8483  -28.5871   27.5381 N   0  0  0  0  0  0  0  0  0  0  0  0
  -27.1774  -20.6200   22.1726 N   0  3  0  0  0  0  0  0  0  0  0  0
  -26.3886  -25.6133   29.5212 N   0  3  0  0  0  0  0  0  0  0  0  0
  -22.5510  -14.6841   20.9966 O   0  0  0  0  0  0  0  0  0  0  0  0
  -23.7713  -29.5844   22.6238 O   0  0  0  0  0  0  0  0  0  0  0  0
  -23.4935  -29.7353   26.3781 O   0  0  0  0  0  0  0  0  0  0  0  0
  -27.0788  -26.6923   27.0160 O   0  0  0  0  0  0  0  0  0  0  0  0
  -31.7695  -15.1182   20.1632 O   0  0  0  0  0  0  0  0  0  0  0  0
  -21.7365   -7.0228   22.1044 O   0  0  0  0  0  0  0  0  0  0  0  0
  -25.8301  -23.4976   21.1350 O   0  0  0  0  0  0  0  0  0  1  0  0
  -18.5806   -7.2083   26.6221 F   0  0  0  0  0  0  0  0  0  0  0  0
  -22.1770   -5.2917   24.2143 F   0  0  0  0  0  0  0  0  0  0  0  0
  1  2  1  0  0  0  0
  1  6  2  0  0  0  0
  2  7  2  0  0  0  0
  3  9  2  0  0  0  0
  3 10  1  0  0  0  0
  4 11  2  0  0  0  0
  4 18  1  0  0  0  0
  5 12  1  0  0  0  0
  5 18  2  0  0  0  0
  6 20  1  0  0  0  0
  7 22  1  0  0  0  0
  8 13  2  0  0  0  0
  8 21  1  0  0  0  0
  9 24  1  0  0  0  0
 10 26  2  0  0  0  0
 11 27  1  0  0  0  0
 12 27  2  0  0  0  0
 13 28  1  0  0  0  0
 14 15  2  0  0  0  0
 14 29  1  0  0  0  0
 15 30  1  0  0  0  0
 16 23  1  0  0  0  0
 16 28  2  0  0  0  0
 17 30  2  0  0  0  0
 17 31  1  0  0  0  0
 18 32  1  0  0  0  0
 19 32  1  0  0  0  0
 19 33  2  0  0  0  0
 19 34  1  0  0  0  0
 20 22  2  0  0  0  0
 20 39  1  0  0  0  0
 21 23  2  0  0  0  0
 21 40  1  0  0  0  0
 22 50  1  0  0  0  0
 23 41  1  0  0  0  0
 24 25  2  0  0  0  0
 24 60  1  0  0  0  0
 25 26  1  0  0  0  0
 25 54  1  0  0  0  0
 26 70  1  0  0  0  0
 27 80  1  0  0  0  0
 28 81  1  0  0  0  0
 29 31  2  0  0  0  0
 29 80  1  0  0  0  0
 30 82  1  0  0  0  0
 31 83  1  0  0  0  0
 32 64  2  0  0  0  0
 33 65  1  0  0  0  0
 33 68  1  0  0  0  0
 34 69  1  0  0  0  0
 34 75  2  0  0  0  0
 35 51  1  0  0  0  0
 35 71  1  0  0  0  0
 35 76  2  0  0  0  0
 36 61  1  0  0  0  0
 36 66  1  0  0  0  0
 36 77  2  0  0  0  0
 37 62  1  0  0  0  0
 37 72  1  0  0  0  0
 37 78  2  0  0  0  0
 38 67  1  0  0  0  0
 38 70  1  0  0  0  0
 38 79  2  0  0  0  0
 39 42  1  0  0  0  0
 40 51  1  0  0  0  0
 41 66  1  0  0  0  0
 42 44  1  0  0  0  0
 43 45  1  0  0  0  0
 43 46  1  0  0  0  0
 44 50  1  0  0  0  0
 45 52  1  0  0  0  0
 46 67  1  0  0  0  0
 47 52  1  0  0  0  0
 47 67  1  0  0  0  0
 48 53  1  0  0  0  0
 48 73  1  0  0  0  0
 49 53  1  0  0  0  0
 49 73  1  0  0  0  0
 50 71  1  0  0  0  0
 51 66  1  0  0  0  0
 52 65  1  0  0  0  0
 53 81  1  0  0  0  0
 55 62  1  0  0  0  0
 56 63  1  0  0  0  0
 57 63  1  0  0  0  0
 58 63  1  0  0  0  0
 59 74  1  0  0  0  0
 60 73  1  0  0  0  0
 61 63  1  0  0  0  0
 61 72  1  0  0  0  0
 62 74  1  0  0  0  0
 64 65  1  0  0  0  0
M  CHG  2  73   1  74   1
M  ISO  4  38 100  53 101  70 100  81 101
M  END
> <Batch ID>
0029

> <Smiles>
CNC(C)C(=O)NC(C(=O)N1Cc2cc([101O:1][101CH:1]3CN(Cc4cccc([100NH:0][100C:0](=O)N5CCCC(n6nc(-c7ccc(Oc8ccc(F)cc8F)cc7)c(C(N)=O)c6N)C5)c4C)C3)ccc2CC1C(=O)NC1CCCc2ccccc21)C(C)(C)C

> <Shape>
0.256

> <Color>
0.224

> <Negative vol penalty>
0.000

$$$$

  -OEChem-04042321343D

 84 93  0     1  0  0  0  0  0999 V2000
  -30.5899  -25.7512   36.4208 C   0  0  0  0  0  0  0  0  0  0  0  0
  -30.0686  -25.2176   35.2465 C   0  0  0  0  0  0  0  0  0  0  0  0
  -23.0753   -9.8683   19.9398 C   0  0  0  0  0  0  0  0  0  0  0  0
  -23.8347   -9.8741   22.2333 C   0  0  0  0  0  0  0  0  0  0  0  0
  -31.9708  -25.8349   36.5942 C   0  0  0  0  0  0  0  0  0  0  0  0
  -30.9280  -24.7684   34.2444 C   0  0  0  0  0  0  0  0  0  0  0  0
  -30.0325  -20.0197   30.4822 C   0  0  0  0  0  0  0  0  0  0  0  0
  -30.5972  -19.8662   21.4609 C   0  0  0  0  0  0  0  0  0  0  0  0
  -22.3311   -8.7152   20.1890 C   0  0  0  0  0  0  0  0  0  0  0  0
  -23.0904   -8.7210   22.4826 C   0  0  0  0  0  0  0  0  0  0  0  0
  -29.5726  -19.9375   29.1686 C   0  0  0  0  0  0  0  0  0  0  0  0
  -19.8620   -7.9236   23.0840 C   0  0  0  0  0  0  0  0  0  0  0  0
  -30.7757  -19.1313   20.2888 C   0  0  0  0  0  0  0  0  0  0  0  0
  -19.1048   -7.8833   24.2547 C   0  0  0  0  0  0  0  0  0  0  0  0
  -31.8518  -19.8994   28.3794 C   0  0  0  0  0  0  0  0  0  0  0  0
  -20.3456   -5.9452   24.9906 C   0  0  0  0  0  0  0  0  0  0  0  0
  -23.8271  -10.4477   20.9619 C   0  0  0  0  0  0  0  0  0  0  0  0
  -24.1696  -12.9729   20.8431 C   0  0  0  0  0  0  0  0  0  0  0  0
  -32.8475  -25.3776   35.5978 C   0  0  0  0  0  0  0  0  0  0  0  0
  -31.4078  -20.0535   30.7540 C   0  0  0  0  0  0  0  0  0  0  0  0
  -32.3219  -24.8473   34.4042 C   0  0  0  0  0  0  0  0  0  0  0  0
  -32.3266  -19.9795   29.6974 C   0  0  0  0  0  0  0  0  0  0  0  0
  -30.0734  -17.8328   22.6559 C   0  0  0  0  0  0  0  0  0  0  0  0
  -30.2461  -19.2169   22.6445 C   0  0  0  0  0  0  0  0  0  0  0  0
  -30.2519  -17.0980   21.4838 C   0  0  0  0  0  0  0  0  0  0  0  0
  -22.3386   -8.1416   21.4604 C   0  0  0  0  0  0  0  0  0  0  0  0
  -30.4822  -19.8802   28.1168 C   0  0  0  0  0  0  0  0  0  0  0  0
  -20.8610   -6.9747   22.8665 C   0  0  0  0  0  0  0  0  0  0  0  0
  -19.3466   -6.8941   25.2080 C   0  0  0  0  0  0  0  0  0  0  0  0
  -30.6031  -17.7473   20.3003 C   0  0  0  0  0  0  0  0  0  0  0  0
  -21.1028   -5.9855   23.8198 C   0  0  0  0  0  0  0  0  0  0  0  0
  -24.5965  -11.6386   20.7049 C   0  0  0  0  0  0  0  0  0  0  0  0
  -25.2620  -13.7223   20.4804 C   0  0  0  0  0  0  0  0  0  0  0  0
  -22.8991  -13.4888   21.2620 C   0  0  0  0  0  0  0  0  0  0  0  0
  -33.3756  -22.1496   32.1096 C   0  0  0  0  0  0  0  0  0  0  0  0
  -35.5366  -19.7551   31.7648 C   0  0  0  0  0  0  0  0  0  0  0  0
  -36.4845  -16.9236   30.1122 C   0  0  0  0  0  0  0  0  0  0  0  0
  -30.7283  -14.7666   20.6568 C   0  0  0  0  0  0  0  0  0  0  0  0
  -34.3326  -25.5322   35.8109 C   0  0  0  0  0  0  0  0  0  0  0  0
  -31.8879  -20.1154   32.1781 C   0  0  0  0  0  0  0  0  0  0  0  0
  -33.8135  -19.9920   29.9372 C   0  0  0  0  0  0  0  0  0  0  0  0
  -35.1757  -24.6894   34.8574 C   0  0  0  0  0  0  0  0  0  0  0  0
  -29.6139  -12.3541   18.2872 C   0  0  0  0  0  0  0  0  0  0  0  0
  -34.6651  -24.8299   33.4270 C   0  0  0  0  0  0  0  0  0  0  0  0
  -28.1741  -12.0626   18.7163 C   0  0  0  0  0  0  0  0  0  0  0  0
  -29.1797  -21.4959   25.3406 C   0  0  0  0  0  0  0  0  0  0  0  0
  -30.5288  -12.5821   19.4892 C   0  0  0  0  0  0  0  0  0  0  0  0
  -28.8018  -20.5461   24.2040 C   0  0  0  0  0  0  0  0  0  0  0  0
  -28.6217  -13.3064   20.8703 C   0  0  0  0  0  0  0  0  0  0  0  0
  -31.1451  -20.2540   24.7465 C   0  0  0  0  0  0  0  0  0  0  0  0
  -33.2217  -24.3266   33.3045 C   0  0  1  0  0  0  0  0  0  0  0  0
  -33.3065  -20.6617   32.3072 C   0  0  1  0  0  0  0  0  0  0  0  0
  -27.6491  -13.1339   19.6922 C   0  0  2  0  0  0  0  0  0  0  0  0
  -30.4152  -20.8493   25.9498 C   0  0  2  0  0  0  0  0  0  1  0  0
  -29.6962  -17.1372   23.9272 C   0  0  0  0  0  0  0  0  0  0  0  0
  -38.3172  -15.2115   30.0289 C   0  0  0  0  0  0  0  0  0  0  0  0
  -37.3363  -21.7553   30.3260 C   0  0  0  0  0  0  0  0  0  0  0  0
  -38.6693  -19.8233   29.4549 C   0  0  0  0  0  0  0  0  0  0  0  0
  -38.5281  -20.2322   31.9116 C   0  0  0  0  0  0  0  0  0  0  0  0
  -34.6198  -14.7255   30.7832 C   0  0  0  0  0  0  0  0  0  0  0  0
  -36.5061  -19.3371   30.6858 C   0  0  1  0  0  0  0  0  0  0  0  0
  -36.9630  -15.5746   30.6178 C   0  0  2  0  0  0  0  0  0  0  0  0
  -37.7320  -20.2887   30.5896 C   0  0  0  0  0  0  0  0  0  0  0  0
  -25.8615  -11.5426   20.2868 N   0  0  0  0  0  0  0  0  0  0  0  0
  -26.2387  -12.8262   20.1592 N   0  0  0  0  0  0  0  0  0  0  0  0
  -30.0745  -19.9613   23.7927 N   0  0  3  0  0  0  0  0  0  0  0  0
  -34.2335  -20.0599   31.3466 N   0  0  0  0  0  0  0  0  0  0  0  0
  -29.9699  -13.6127   20.3669 N   0  0  0  0  0  0  0  0  0  0  0  0
  -25.4727  -15.0537   20.4081 N   0  0  0  0  0  0  0  0  0  0  0  0
  -21.8869  -12.5797   21.5986 N   0  0  0  0  0  0  0  0  0  0  0  0
  -30.0810  -15.6914   21.4755 N   0  0  0  0  0  0  0  0  0  0  0  0
  -33.1922  -22.8802   33.2681 N   0  0  0  0  0  0  0  0  0  0  0  0
  -36.8495  -17.9464   30.9620 N   0  0  0  0  0  0  0  0  0  0  0  0
  -35.9892  -14.5083   30.2496 N   0  3  0  0  0  0  0  0  0  0  0  0
  -22.6631  -14.7194   21.3199 O   0  0  0  0  0  0  0  0  0  0  0  0
  -33.5816  -22.6014   30.9892 O   0  0  0  0  0  0  0  0  0  0  0  0
  -35.9193  -19.8023   32.9366 O   0  0  0  0  0  0  0  0  0  0  0  0
  -35.8534  -17.0573   29.0660 O   0  0  0  0  0  0  0  0  0  0  0  0
  -31.8576  -14.9352   20.1896 O   0  0  0  0  0  0  0  0  0  0  0  0
  -21.6124   -7.0165   21.7041 O   0  0  0  0  0  0  0  0  0  0  0  0
  -30.0360  -19.8005   26.8337 O   0  0  0  0  0  0  0  0  0  1  0  0
  -18.6204   -6.8565   26.3329 F   0  0  0  0  0  0  0  0  0  0  0  0
  -30.7781  -17.0518   19.1674 F   0  0  0  0  0  0  0  0  0  0  0  0
  -22.0619   -5.0719   23.6170 F   0  0  0  0  0  0  0  0  0  0  0  0
  1  2  1  0  0  0  0
  1  5  2  0  0  0  0
  2  6  2  0  0  0  0
  3  9  2  0  0  0  0
  3 17  1  0  0  0  0
  4 10  1  0  0  0  0
  4 17  2  0  0  0  0
  5 19  1  0  0  0  0
  6 21  1  0  0  0  0
  7 11  2  0  0  0  0
  7 20  1  0  0  0  0
  8 13  2  0  0  0  0
  8 24  1  0  0  0  0
  9 26  1  0  0  0  0
 10 26  2  0  0  0  0
 11 27  1  0  0  0  0
 12 14  2  0  0  0  0
 12 28  1  0  0  0  0
 13 30  1  0  0  0  0
 14 29  1  0  0  0  0
 15 22  1  0  0  0  0
 15 27  2  0  0  0  0
 16 29  2  0  0  0  0
 16 31  1  0  0  0  0
 17 32  1  0  0  0  0
 18 32  1  0  0  0  0
 18 33  2  0  0  0  0
 18 34  1  0  0  0  0
 19 21  2  0  0  0  0
 19 39  1  0  0  0  0
 20 22  2  0  0  0  0
 20 40  1  0  0  0  0
 21 51  1  0  0  0  0
 22 41  1  0  0  0  0
 23 24  2  0  0  0  0
 23 25  1  0  0  0  0
 23 55  1  0  0  0  0
 24 66  1  0  0  0  0
 25 30  2  0  0  0  0
 25 71  1  0  0  0  0
 26 80  1  0  0  0  0
 27 81  1  0  0  0  0
 28 31  2  0  0  0  0
 28 80  1  0  0  0  0
 29 82  1  0  0  0  0
 30 83  1  0  0  0  0
 31 84  1  0  0  0  0
 32 64  2  0  0  0  0
 33 65  1  0  0  0  0
 33 69  1  0  0  0  0
 34 70  1  0  0  0  0
 34 75  2  0  0  0  0
 35 52  1  0  0  0  0
 35 72  1  0  0  0  0
 35 76  2  0  0  0  0
 36 61  1  0  0  0  0
 36 67  1  0  0  0  0
 36 77  2  0  0  0  0
 37 62  1  0  0  0  0
 37 73  1  0  0  0  0
 37 78  2  0  0  0  0
 38 68  1  0  0  0  0
 38 71  1  0  0  0  0
 38 79  2  0  0  0  0
 39 42  1  0  0  0  0
 40 52  1  0  0  0  0
 41 67  1  0  0  0  0
 42 44  1  0  0  0  0
 43 45  1  0  0  0  0
 43 47  1  0  0  0  0
 44 51  1  0  0  0  0
 45 53  1  0  0  0  0
 46 48  1  0  0  0  0
 46 54  1  0  0  0  0
 47 68  1  0  0  0  0
 48 66  1  0  0  0  0
 49 53  1  0  0  0  0
 49 68  1  0  0  0  0
 50 54  1  0  0  0  0
 50 66  1  0  0  0  0
 51 72  1  0  0  0  0
 52 67  1  0  0  0  0
 53 65  1  0  0  0  0
 54 81  1  0  0  0  0
 56 62  1  0  0  0  0
 57 63  1  0  0  0  0
 58 63  1  0  0  0  0
 59 63  1  0  0  0  0
 60 74  1  0  0  0  0
 61 63  1  0  0  0  0
 61 73  1  0  0  0  0
 62 74  1  0  0  0  0
 64 65  1  0  0  0  0
M  CHG  1  74   1
M  ISO  4  38 100  54 101  71 100  81 101
M  END
> <Batch ID>
0029

> <Smiles>
CNC(C)C(=O)NC(C(=O)N1Cc2cc([101O:1][101CH:1]3CCN(c4ccc(F)c([100NH:0][100C:0](=O)N5CCCC(n6nc(-c7ccc(Oc8ccc(F)cc8F)cc7)c(C(N)=O)c6N)C5)c4C)C3)ccc2CC1C(=O)NC1CCCc2ccccc21)C(C)(C)C

> <Shape>
0.180

> <Color>
0.196

> <Negative vol penalty>
0.000

$$$$

  -OEChem-04042321343D

 86 95  0     1  0  0  0  0  0999 V2000
  -25.9715  -28.4488   18.5381 C   0  0  0  0  0  0  0  0  0  0  0  0
  -26.2039  -27.3643   19.3780 C   0  0  0  0  0  0  0  0  0  0  0  0
  -23.1806  -10.5351   22.4416 C   0  0  0  0  0  0  0  0  0  0  0  0
  -23.5035   -9.5721   20.2495 C   0  0  0  0  0  0  0  0  0  0  0  0
  -25.3525  -29.5946   19.0359 C   0  0  0  0  0  0  0  0  0  0  0  0
  -25.8183  -27.4255   20.7166 C   0  0  0  0  0  0  0  0  0  0  0  0
  -23.5092  -23.1942   22.2687 C   0  0  0  0  0  0  0  0  0  0  0  0
  -29.5533  -19.4303   19.2623 C   0  0  0  0  0  0  0  0  0  0  0  0
  -22.3760   -9.4531   22.7984 C   0  0  0  0  0  0  0  0  0  0  0  0
  -22.6989   -8.4900   20.6063 C   0  0  0  0  0  0  0  0  0  0  0  0
  -24.3188  -22.0971   22.5595 C   0  0  0  0  0  0  0  0  0  0  0  0
  -19.1931   -8.4395   22.2826 C   0  0  0  0  0  0  0  0  0  0  0  0
  -17.9984   -8.7130   22.9486 C   0  0  0  0  0  0  0  0  0  0  0  0
  -30.6253  -19.6359   18.3939 C   0  0  0  0  0  0  0  0  0  0  0  0
  -24.1557  -22.6078   24.9115 C   0  0  0  0  0  0  0  0  0  0  0  0
  -31.9212  -17.9956   19.6052 C   0  0  0  0  0  0  0  0  0  0  0  0
  -18.7463   -7.3964   24.8312 C   0  0  0  0  0  0  0  0  0  0  0  0
  -23.7443  -10.5947   21.1670 C   0  0  0  0  0  0  0  0  0  0  0  0
  -24.2070  -13.0708   20.7643 C   0  0  0  0  0  0  0  0  0  0  0  0
  -24.9505  -29.6662   20.3790 C   0  0  0  0  0  0  0  0  0  0  0  0
  -23.0249  -24.0142   23.2981 C   0  0  0  0  0  0  0  0  0  0  0  0
  -25.1946  -28.5739   21.2333 C   0  0  0  0  0  0  0  0  0  0  0  0
  -23.3381  -23.7133   24.6313 C   0  0  0  0  0  0  0  0  0  0  0  0
  -29.6652  -18.5073   20.3022 C   0  0  0  0  0  0  0  0  0  0  0  0
  -30.8491  -17.7900   20.4736 C   0  0  0  0  0  0  0  0  0  0  0  0
  -22.1352   -8.4305   21.8809 C   0  0  0  0  0  0  0  0  0  0  0  0
  -24.6445  -21.8054   23.8808 C   0  0  0  0  0  0  0  0  0  0  0  0
  -20.1644   -7.6443   22.8909 C   0  0  0  0  0  0  0  0  0  0  0  0
  -17.7750   -8.1915   24.2228 C   0  0  0  0  0  0  0  0  0  0  0  0
  -19.9410   -7.1228   24.1652 C   0  0  0  0  0  0  0  0  0  0  0  0
  -31.8092  -18.9186   18.5653 C   0  0  0  0  0  0  0  0  0  0  0  0
  -24.5751  -11.7125   20.7976 C   0  0  0  0  0  0  0  0  0  0  0  0
  -25.3427  -13.7243   20.3524 C   0  0  0  0  0  0  0  0  0  0  0  0
  -22.9508  -13.6869   21.0779 C   0  0  0  0  0  0  0  0  0  0  0  0
  -23.3671  -27.0775   24.0747 C   0  0  0  0  0  0  0  0  0  0  0  0
  -21.1487  -26.3513   26.3272 C   0  0  0  0  0  0  0  0  0  0  0  0
  -19.6552  -23.9681   28.2603 C   0  0  0  0  0  0  0  0  0  0  0  0
  -30.8607  -14.5209   20.6020 C   0  0  0  0  0  0  0  0  0  0  0  0
  -24.3277  -30.9439   20.8832 C   0  0  0  0  0  0  0  0  0  0  0  0
  -22.1308  -25.1783   22.9697 C   0  0  0  0  0  0  0  0  0  0  0  0
  -22.8270  -24.5504   25.7743 C   0  0  0  0  0  0  0  0  0  0  0  0
  -23.6115  -30.7855   22.2220 C   0  0  0  0  0  0  0  0  0  0  0  0
  -29.6797  -11.9224   18.4736 C   0  0  0  0  0  0  0  0  0  0  0  0
  -29.1803  -20.5736   24.2263 C   0  0  0  0  0  0  0  0  0  0  0  0
  -24.4814  -30.0070   23.2039 C   0  0  0  0  0  0  0  0  0  0  0  0
  -28.2186  -11.7442   18.8901 C   0  0  0  0  0  0  0  0  0  0  0  0
  -27.7570  -20.7215   24.7475 C   0  0  0  0  0  0  0  0  0  0  0  0
  -30.5724  -12.2438   19.6702 C   0  0  0  0  0  0  0  0  0  0  0  0
  -28.6691  -13.2150   20.8982 C   0  0  0  0  0  0  0  0  0  0  0  0
  -29.3268  -19.3525   23.3296 C   0  0  0  0  0  0  0  0  0  0  0  0
  -26.9018  -19.5080   22.7090 C   0  0  0  0  0  0  0  0  0  0  0  0
  -24.7686  -28.5928   22.6853 C   0  0  1  0  0  0  0  0  0  0  0  0
  -22.1156  -26.2460   24.0593 C   0  0  1  0  0  0  0  0  0  0  0  0
  -27.7209  -12.9447   19.7174 C   0  0  2  0  0  0  0  0  0  0  0  0
  -26.7441  -20.7282   23.6068 C   0  0  1  0  0  0  0  0  0  1  0  0
  -17.9012  -23.6836   30.0323 C   0  0  0  0  0  0  0  0  0  0  0  0
  -23.0658  -27.4983   28.4055 C   0  0  0  0  0  0  0  0  0  0  0  0
  -21.7225  -26.3479   30.1776 C   0  0  0  0  0  0  0  0  0  0  0  0
  -20.6644  -28.1029   28.7553 C   0  0  0  0  0  0  0  0  0  0  0  0
  -18.0425  -22.1791   26.5405 C   0  0  0  0  0  0  0  0  0  0  0  0
  -30.9925  -16.7977   21.5808 C   0  0  0  0  0  0  0  0  0  0  0  0
  -28.4993  -18.3036   21.2242 C   0  0  0  0  0  0  0  0  0  0  0  0
  -21.1946  -25.8451   27.7487 C   0  0  1  0  0  0  0  0  0  0  0  0
  -18.1936  -23.6684   28.5399 C   0  0  2  0  0  0  0  0  0  0  0  0
  -21.6732  -26.9337   28.7503 C   0  0  0  0  0  0  0  0  0  0  0  0
  -25.8452  -11.5134   20.4355 N   0  0  0  0  0  0  0  0  0  0  0  0
  -26.2851  -12.7553   20.1707 N   0  0  0  0  0  0  0  0  0  0  0  0
  -21.9615  -25.6815   25.4016 N   0  0  0  0  0  0  0  0  0  0  0  0
  -30.0461  -13.3926   20.4113 N   0  0  0  0  0  0  0  0  0  0  0  0
  -25.6170  -15.0275   20.1314 N   0  0  0  0  0  0  0  0  0  0  0  0
  -21.8886  -12.8684   21.4853 N   0  0  0  0  0  0  0  0  0  0  0  0
  -23.6188  -27.7373   22.8870 N   0  0  0  0  0  0  0  0  0  0  0  0
  -19.8672  -25.3118   28.0351 N   0  0  0  0  0  0  0  0  0  0  0  0
  -30.2824  -15.5677   21.3095 N   0  0  0  0  0  0  0  0  0  0  0  0
  -28.3207  -19.4289   22.2059 N   0  3  2  0  0  0  0  0  0  0  0  0
  -17.8278  -22.3272   28.0030 N   0  3  0  0  0  0  0  0  0  0  0  0
  -22.7709  -14.9247   20.9832 O   0  0  0  0  0  0  0  0  0  0  0  0
  -24.0527  -27.1185   25.0896 O   0  0  0  0  0  0  0  0  0  0  0  0
  -20.4133  -27.3011   26.0470 O   0  0  0  0  0  0  0  0  0  0  0  0
  -20.5229  -23.0977   28.2468 O   0  0  0  0  0  0  0  0  0  0  0  0
  -32.0158  -14.5924   20.1688 O   0  0  0  0  0  0  0  0  0  0  0  0
  -21.3503   -7.3743   22.2288 O   0  0  0  0  0  0  0  0  0  0  0  0
  -25.4351  -20.7355   24.1674 O   0  0  0  0  0  0  0  0  0  1  0  0
  -16.6283   -8.4555   24.8629 F   0  0  0  0  0  0  0  0  0  0  0  0
  -20.8709   -6.3593   24.7552 F   0  0  0  0  0  0  0  0  0  0  0  0
  -33.1320  -19.1738   17.4950 Cl  0  0  0  0  0  0  0  0  0  0  0  0
  1  2  1  0  0  0  0
  1  5  2  0  0  0  0
  2  6  2  0  0  0  0
  3  9  2  0  0  0  0
  3 18  1  0  0  0  0
  4 10  1  0  0  0  0
  4 18  2  0  0  0  0
  5 20  1  0  0  0  0
  6 22  1  0  0  0  0
  7 11  2  0  0  0  0
  7 21  1  0  0  0  0
  8 14  2  0  0  0  0
  8 24  1  0  0  0  0
  9 26  1  0  0  0  0
 10 26  2  0  0  0  0
 11 27  1  0  0  0  0
 12 13  2  0  0  0  0
 12 28  1  0  0  0  0
 13 29  1  0  0  0  0
 14 31  1  0  0  0  0
 15 23  1  0  0  0  0
 15 27  2  0  0  0  0
 16 25  1  0  0  0  0
 16 31  2  0  0  0  0
 17 29  2  0  0  0  0
 17 30  1  0  0  0  0
 18 32  1  0  0  0  0
 19 32  1  0  0  0  0
 19 33  2  0  0  0  0
 19 34  1  0  0  0  0
 20 22  2  0  0  0  0
 20 39  1  0  0  0  0
 21 23  2  0  0  0  0
 21 40  1  0  0  0  0
 22 52  1  0  0  0  0
 23 41  1  0  0  0  0
 24 25  2  0  0  0  0
 24 62  1  0  0  0  0
 25 61  1  0  0  0  0
 26 82  1  0  0  0  0
 27 83  1  0  0  0  0
 28 30  2  0  0  0  0
 28 82  1  0  0  0  0
 29 84  1  0  0  0  0
 30 85  1  0  0  0  0
 31 86  1  0  0  0  0
 32 66  2  0  0  0  0
 33 67  1  0  0  0  0
 33 70  1  0  0  0  0
 34 71  1  0  0  0  0
 34 77  2  0  0  0  0
 35 53  1  0  0  0  0
 35 72  1  0  0  0  0
 35 78  2  0  0  0  0
 36 63  1  0  0  0  0
 36 68  1  0  0  0  0
 36 79  2  0  0  0  0
 37 64  1  0  0  0  0
 37 73  1  0  0  0  0
 37 80  2  0  0  0  0
 38 69  1  0  0  0  0
 38 74  1  0  0  0  0
 38 81  2  0  0  0  0
 39 42  1  0  0  0  0
 40 53  1  0  0  0  0
 41 68  1  0  0  0  0
 42 45  1  0  0  0  0
 43 46  1  0  0  0  0
 43 48  1  0  0  0  0
 44 47  1  0  0  0  0
 44 50  1  0  0  0  0
 45 52  1  0  0  0  0
 46 54  1  0  0  0  0
 47 55  1  0  0  0  0
 48 69  1  0  0  0  0
 49 54  1  0  0  0  0
 49 69  1  0  0  0  0
 50 75  1  0  0  0  0
 51 55  1  0  0  0  0
 51 75  1  0  0  0  0
 52 72  1  0  0  0  0
 53 68  1  0  0  0  0
 54 67  1  0  0  0  0
 55 83  1  0  0  0  0
 56 64  1  0  0  0  0
 57 65  1  0  0  0  0
 58 65  1  0  0  0  0
 59 65  1  0  0  0  0
 60 76  1  0  0  0  0
 61 74  1  0  0  0  0
 62 75  1  0  0  0  0
 63 65  1  0  0  0  0
 63 73  1  0  0  0  0
 64 76  1  0  0  0  0
 66 67  1  0  0  0  0
M  CHG  2  75   1  76   1
M  ISO  4  38 100  55 101  74 100  83 101
M  END
> <Batch ID>
0029

> <Smiles>
CNC(C)C(=O)NC(C(=O)N1Cc2cc([101O:1][101CH:1]3CCCN(Cc4ccc(Cl)cc4C[100NH:0][100C:0](=O)N4CCCC(n5nc(-c6ccc(Oc7ccc(F)cc7F)cc6)c(C(N)=O)c5N)C4)C3)ccc2CC1C(=O)NC1CCCc2ccccc21)C(C)(C)C

> <Shape>
0.223

> <Color>
0.195

> <Negative vol penalty>
0.000

$$$$

  -OEChem-04042321343D

 91 99  0     1  0  0  0  0  0999 V2000
  -22.6050  -11.0508   21.8295 C   0  0  0  0  0  0  0  0  0  0  0  0
  -22.2405  -12.3440   22.1904 C   0  0  0  0  0  0  0  0  0  0  0  0
  -28.1514  -27.4459   18.9677 C   0  0  0  0  0  0  0  0  0  0  0  0
  -27.9999  -26.3736   21.1274 C   0  0  0  0  0  0  0  0  0  0  0  0
  -23.8630  -10.8105   21.2784 C   0  0  0  0  0  0  0  0  0  0  0  0
  -23.1343  -13.3975   22.0014 C   0  0  0  0  0  0  0  0  0  0  0  0
  -20.9247  -17.4806   19.9788 C   0  0  0  0  0  0  0  0  0  0  0  0
  -20.8598  -27.5945   22.8615 C   0  0  0  0  0  0  0  0  0  0  0  0
  -29.2984  -26.7060   18.6807 C   0  0  0  0  0  0  0  0  0  0  0  0
  -29.1469  -25.6335   20.8404 C   0  0  0  0  0  0  0  0  0  0  0  0
  -20.1693  -18.2840   20.8318 C   0  0  0  0  0  0  0  0  0  0  0  0
  -32.2396  -23.7245   20.8228 C   0  0  0  0  0  0  0  0  0  0  0  0
  -33.2110  -23.6220   21.8185 C   0  0  0  0  0  0  0  0  0  0  0  0
  -20.3377  -26.3702   22.4442 C   0  0  0  0  0  0  0  0  0  0  0  0
  -22.0161  -19.8262   21.0050 C   0  0  0  0  0  0  0  0  0  0  0  0
  -18.1929  -27.4149   22.0627 C   0  0  0  0  0  0  0  0  0  0  0  0
  -33.4638  -26.0247   21.8193 C   0  0  0  0  0  0  0  0  0  0  0  0
  -27.5021  -27.2798   20.1910 C   0  0  0  0  0  0  0  0  0  0  0  0
  -24.9837  -27.6853   20.2167 C   0  0  0  0  0  0  0  0  0  0  0  0
  -24.7690  -11.8630   21.0736 C   0  0  0  0  0  0  0  0  0  0  0  0
  -22.2376  -17.8389   19.6406 C   0  0  0  0  0  0  0  0  0  0  0  0
  -24.4061  -13.1708   21.4483 C   0  0  0  0  0  0  0  0  0  0  0  0
  -22.7852  -19.0269   20.1455 C   0  0  0  0  0  0  0  0  0  0  0  0
  -20.0485  -28.7290   22.8794 C   0  0  0  0  0  0  0  0  0  0  0  0
  -18.7150  -28.6392   22.4800 C   0  0  0  0  0  0  0  0  0  0  0  0
  -29.7962  -25.7998   19.6170 C   0  0  0  0  0  0  0  0  0  0  0  0
  -20.7159  -19.4555   21.3473 C   0  0  0  0  0  0  0  0  0  0  0  0
  -31.8804  -24.9771   20.3253 C   0  0  0  0  0  0  0  0  0  0  0  0
  -33.8231  -24.7720   22.3168 C   0  0  0  0  0  0  0  0  0  0  0  0
  -32.4925  -26.1272   20.8235 C   0  0  0  0  0  0  0  0  0  0  0  0
  -19.0042  -26.2804   22.0448 C   0  0  0  0  0  0  0  0  0  0  0  0
  -26.3175  -28.0443   20.4883 C   0  0  0  0  0  0  0  0  0  0  0  0
  -24.2413  -28.7399   20.6891 C   0  0  0  0  0  0  0  0  0  0  0  0
  -24.4624  -26.5042   19.5931 C   0  0  0  0  0  0  0  0  0  0  0  0
  -25.1010  -16.5252   20.0634 C   0  0  0  0  0  0  0  0  0  0  0  0
  -18.9952  -22.4418   22.4668 C   0  0  0  0  0  0  0  0  0  0  0  0
  -26.0779  -18.9940   18.1998 C   0  0  0  0  0  0  0  0  0  0  0  0
  -25.4930  -22.1434   17.0224 C   0  0  0  0  0  0  0  0  0  0  0  0
  -23.0857  -32.5702   24.4577 C   0  0  0  0  0  0  0  0  0  0  0  0
  -26.1353  -11.5472   20.5185 C   0  0  0  0  0  0  0  0  0  0  0  0
  -23.0300  -16.9752   18.6980 C   0  0  0  0  0  0  0  0  0  0  0  0
  -24.1829  -19.4667   19.7970 C   0  0  0  0  0  0  0  0  0  0  0  0
  -26.8826  -12.7750   20.0044 C   0  0  0  0  0  0  0  0  0  0  0  0
  -25.6457  -33.3333   22.2463 C   0  0  0  0  0  0  0  0  0  0  0  0
  -26.7941  -13.9152   21.0138 C   0  0  0  0  0  0  0  0  0  0  0  0
  -25.9513  -32.0006   21.5640 C   0  0  0  0  0  0  0  0  0  0  0  0
  -25.3845  -33.1354   23.7347 C   0  0  0  0  0  0  0  0  0  0  0  0
  -24.5688  -30.8312   23.3522 C   0  0  0  0  0  0  0  0  0  0  0  0
  -25.3386  -14.3436   21.2360 C   0  0  1  0  0  0  0  0  0  0  0  0
  -24.5369  -17.1727   18.8304 C   0  0  1  0  0  0  0  0  0  0  0  0
  -24.8405  -30.9723   21.8404 C   0  0  2  0  0  0  0  0  0  0  0  0
  -17.8278  -29.8405   22.4911 C   0  0  0  0  0  0  0  0  0  0  0  0
  -26.4887  -23.9106   15.5450 C   0  0  0  0  0  0  0  0  0  0  0  0
  -23.7456  -32.8430   27.6334 C   0  0  0  0  0  0  0  0  0  0  0  0
  -23.5496  -30.5971   28.7258 C   0  0  0  0  0  0  0  0  0  0  0  0
  -28.0914  -19.6838   20.3860 C   0  0  0  0  0  0  0  0  0  0  0  0
  -28.3700  -21.9333   19.3229 C   0  0  0  0  0  0  0  0  0  0  0  0
  -28.9770  -19.8727   18.0548 C   0  0  0  0  0  0  0  0  0  0  0  0
  -23.1657  -22.0909   15.1948 C   0  0  0  0  0  0  0  0  0  0  0  0
  -19.4409  -24.3874   20.1018 C   0  0  0  0  0  0  0  0  0  0  0  0
  -20.6298  -30.0286   23.3304 C   0  0  0  0  0  0  0  0  0  0  0  0
  -20.2519  -21.6421   22.1594 C   0  0  0  0  0  0  0  0  0  1  0  0
  -20.2777  -30.4140   24.7800 C   0  0  0  0  0  0  0  0  0  0  0  0
  -20.9151  -31.7172   25.2570 C   0  0  0  0  0  0  0  0  0  0  0  0
  -22.9713  -30.8345   26.2960 C   0  0  0  0  0  0  0  0  0  0  0  0
  -26.5388  -20.4088   18.4548 C   0  0  1  0  0  0  0  0  0  0  0  0
  -25.5454  -22.7201   15.6191 C   0  0  2  0  0  0  0  0  0  0  0  0
  -22.9640  -31.5276   27.6631 C   0  0  0  0  0  0  0  0  0  0  0  0
  -27.9686  -20.4657   19.0629 C   0  0  0  0  0  0  0  0  0  0  0  0
  -26.4197  -29.2340   21.0867 N   0  0  0  0  0  0  0  0  0  0  0  0
  -19.1398  -23.8501   22.4622 N   0  0  0  0  0  0  0  0  0  0  0  0
  -25.1406  -29.6318   21.1950 N   0  0  0  0  0  0  0  0  0  0  0  0
  -24.9200  -18.5852   18.8766 N   0  0  0  0  0  0  0  0  0  0  0  0
  -24.3278  -32.1488   23.9603 N   0  0  0  0  0  0  0  0  0  0  0  0
  -22.9135  -28.9820   20.7170 N   0  0  0  0  0  0  0  0  0  0  0  0
  -25.3646  -25.5200   19.1669 N   0  0  0  0  0  0  0  0  0  0  0  0
  -24.8793  -15.1632   20.1352 N   0  0  0  0  0  0  0  0  0  0  0  0
  -26.3999  -21.1180   17.1874 N   0  0  0  0  0  0  0  0  0  0  0  0
  -22.3700  -31.6604   25.2506 N   0  0  0  0  0  0  0  0  0  0  0  0
  -24.1895  -23.1674   15.1919 N   0  3  0  0  0  0  0  0  0  0  0  0
  -23.2340  -26.3342   19.4042 O   0  0  0  0  0  0  0  0  0  0  0  0
  -25.6948  -17.2104   20.8878 O   0  0  0  0  0  0  0  0  0  0  0  0
  -17.9307  -21.8691   22.6988 O   0  0  0  0  0  0  0  0  0  0  0  0
  -26.7174  -18.2803   17.4231 O   0  0  0  0  0  0  0  0  0  0  0  0
  -24.7268  -22.5632   17.8869 O   0  0  0  0  0  0  0  0  0  0  0  0
  -22.6426  -33.7000   24.2138 O   0  0  0  0  0  0  0  0  0  0  0  0
  -30.9153  -25.0773   19.3373 O   0  0  0  0  0  0  0  0  0  0  0  0
  -19.9810  -20.2412   22.1806 O   0  0  0  0  0  0  0  0  0  1  0  0
  -34.7548  -24.6735   23.2741 F   0  0  0  0  0  0  0  0  0  0  0  0
  -32.1506  -27.3335   20.3503 F   0  0  0  0  0  0  0  0  0  0  0  0
  -18.3250  -24.6853   21.5019 S   0  0  1  0  0  0  0  0  0  0  0  0
  1  2  1  0  0  0  0
  1  5  2  0  0  0  0
  2  6  2  0  0  0  0
  3  9  2  0  0  0  0
  3 18  1  0  0  0  0
  4 10  1  0  0  0  0
  4 18  2  0  0  0  0
  5 20  1  0  0  0  0
  6 22  1  0  0  0  0
  7 11  2  0  0  0  0
  7 21  1  0  0  0  0
  8 14  2  0  0  0  0
  8 24  1  0  0  0  0
  9 26  1  0  0  0  0
 10 26  2  0  0  0  0
 11 27  1  0  0  0  0
 12 13  2  0  0  0  0
 12 28  1  0  0  0  0
 13 29  1  0  0  0  0
 14 31  1  0  0  0  0
 15 23  1  0  0  0  0
 15 27  2  0  0  0  0
 16 25  1  0  0  0  0
 16 31  2  0  0  0  0
 17 29  2  0  0  0  0
 17 30  1  0  0  0  0
 18 32  1  0  0  0  0
 19 32  1  0  0  0  0
 19 33  2  0  0  0  0
 19 34  1  0  0  0  0
 20 22  2  0  0  0  0
 20 40  1  0  0  0  0
 21 23  2  0  0  0  0
 21 41  1  0  0  0  0
 22 49  1  0  0  0  0
 23 42  1  0  0  0  0
 24 25  2  0  0  0  0
 24 61  1  0  0  0  0
 25 52  1  0  0  0  0
 26 87  1  0  0  0  0
 27 88  1  0  0  0  0
 28 30  2  0  0  0  0
 28 87  1  0  0  0  0
 29 89  1  0  0  0  0
 30 90  1  0  0  0  0
 31 91  1  0  0  0  0
 32 70  2  0  0  0  0
 33 72  1  0  0  0  0
 33 75  1  0  0  0  0
 34 76  1  0  0  0  0
 34 81  2  0  0  0  0
 35 50  1  0  0  0  0
 35 77  1  0  0  0  0
 35 82  2  0  0  0  0
 36 62  1  0  0  0  0
 36 71  1  0  0  0  0
 36 83  2  0  0  0  0
 37 66  1  0  0  0  0
 37 73  1  0  0  0  0
 37 84  2  0  0  0  0
 38 67  1  0  0  0  0
 38 78  1  0  0  0  0
 38 85  2  0  0  0  0
 39 74  1  0  0  0  0
 39 79  1  0  0  0  0
 39 86  2  0  0  0  0
 40 43  1  0  0  0  0
 41 50  1  0  0  0  0
 42 73  1  0  0  0  0
 43 45  1  0  0  0  0
 44 46  1  0  0  0  0
 44 47  1  0  0  0  0
 45 49  1  0  0  0  0
 46 51  1  0  0  0  0
 47 74  1  0  0  0  0
 48 51  1  0  0  0  0
 48 74  1  0  0  0  0
 49 77  1  0  0  0  0
 50 73  1  0  0  0  0
 51 72  1  0  0  0  0
 53 67  1  0  0  0  0
 54 68  1  0  0  0  0
 55 68  1  0  0  0  0
 56 69  1  0  0  0  0
 57 69  1  0  0  0  0
 58 69  1  0  0  0  0
 59 80  1  0  0  0  0
 60 91  1  0  0  0  0
 61 63  1  0  0  0  0
 62 88  1  0  0  0  0
 63 64  1  0  0  0  0
 64 79  1  0  0  0  0
 65 68  1  0  0  0  0
 65 79  1  0  0  0  0
 66 69  1  0  0  0  0
 66 78  1  0  0  0  0
 67 80  1  0  0  0  0
 70 72  1  0  0  0  0
 71 91  2  0  0  0  0
M  CHG  1  80   1
M  ISO  4  39 100  62 101  79 100  88 101
M  END
> <Batch ID>
0029

> <Smiles>
CNC(C)C(=O)NC(C(=O)N1Cc2cc([101O:1][101CH2:1]C(=O)N=S(C)c3ccc(CCC[100N:0](CC(C)C)[100C:0](=O)N4CCCC(n5nc(-c6ccc(Oc7ccc(F)cc7F)cc6)c(C(N)=O)c5N)C4)c(C)c3)ccc2CC1C(=O)NC1CCCc2ccccc21)C(C)(C)C

> <Shape>
0.250

> <Color>
0.072

> <Negative vol penalty>
0.000

$$$$

  -OEChem-04042321343D

 84 93  0     1  0  0  0  0  0999 V2000
  -16.6906  -28.3886   22.8592 C   0  0  0  0  0  0  0  0  0  0  0  0
  -17.6074  -27.8803   21.9445 C   0  0  0  0  0  0  0  0  0  0  0  0
  -22.8486  -10.7197   22.0520 C   0  0  0  0  0  0  0  0  0  0  0  0
  -24.4925   -8.9943   21.6550 C   0  0  0  0  0  0  0  0  0  0  0  0
  -16.9933  -29.5435   23.5793 C   0  0  0  0  0  0  0  0  0  0  0  0
  -18.8270  -28.5273   21.7486 C   0  0  0  0  0  0  0  0  0  0  0  0
  -25.0641  -25.0969   22.8539 C   0  0  0  0  0  0  0  0  0  0  0  0
  -30.3771  -19.1036   22.3041 C   0  0  0  0  0  0  0  0  0  0  0  0
  -30.2528  -17.8105   21.7961 C   0  0  0  0  0  0  0  0  0  0  0  0
  -22.2354   -9.9147   23.0118 C   0  0  0  0  0  0  0  0  0  0  0  0
  -23.8793   -8.1892   22.6149 C   0  0  0  0  0  0  0  0  0  0  0  0
  -26.2986  -24.4473   22.8406 C   0  0  0  0  0  0  0  0  0  0  0  0
  -21.1655   -6.1830   22.8188 C   0  0  0  0  0  0  0  0  0  0  0  0
  -20.9612   -4.8397   22.5034 C   0  0  0  0  0  0  0  0  0  0  0  0
  -27.4043  -26.5361   22.3285 C   0  0  0  0  0  0  0  0  0  0  0  0
  -27.9593  -17.7340   22.5519 C   0  0  0  0  0  0  0  0  0  0  0  0
  -22.3286   -4.1897   24.3862 C   0  0  0  0  0  0  0  0  0  0  0  0
  -23.9772  -10.2595   21.3735 C   0  0  0  0  0  0  0  0  0  0  0  0
  -24.0331  -11.5963   19.2015 C   0  0  0  0  0  0  0  0  0  0  0  0
  -18.2212  -30.1995   23.3991 C   0  0  0  0  0  0  0  0  0  0  0  0
  -24.9967  -26.4731   22.6195 C   0  0  0  0  0  0  0  0  0  0  0  0
  -19.1458  -29.6928   22.4660 C   0  0  0  0  0  0  0  0  0  0  0  0
  -26.1720  -27.1945   22.3529 C   0  0  0  0  0  0  0  0  0  0  0  0
  -29.2925  -19.7119   22.9361 C   0  0  0  0  0  0  0  0  0  0  0  0
  -29.0439  -17.1257   21.9200 C   0  0  0  0  0  0  0  0  0  0  0  0
  -22.7507   -8.6494   23.2934 C   0  0  0  0  0  0  0  0  0  0  0  0
  -27.4658  -25.1651   22.5783 C   0  0  0  0  0  0  0  0  0  0  0  0
  -21.9514   -6.5297   23.9179 C   0  0  0  0  0  0  0  0  0  0  0  0
  -21.5427   -3.8431   23.2871 C   0  0  0  0  0  0  0  0  0  0  0  0
  -22.5329   -5.5330   24.7016 C   0  0  0  0  0  0  0  0  0  0  0  0
  -28.0836  -19.0271   23.0600 C   0  0  0  0  0  0  0  0  0  0  0  0
  -24.6108  -11.0904   20.3814 C   0  0  0  0  0  0  0  0  0  0  0  0
  -25.0393  -12.3199   18.6095 C   0  0  0  0  0  0  0  0  0  0  0  0
  -22.7057  -11.4273   18.6867 C   0  0  0  0  0  0  0  0  0  0  0  0
  -22.8348  -29.5263   22.3369 C   0  0  0  0  0  0  0  0  0  0  0  0
  -25.3749  -30.3688   23.8363 C   0  0  0  0  0  0  0  0  0  0  0  0
  -28.1210  -30.7890   25.8161 C   0  0  0  0  0  0  0  0  0  0  0  0
  -29.8966  -15.0647   20.7489 C   0  0  0  0  0  0  0  0  0  0  0  0
  -18.4840  -31.4714   24.1659 C   0  0  0  0  0  0  0  0  0  0  0  0
  -23.6823  -27.2032   22.5634 C   0  0  0  0  0  0  0  0  0  0  0  0
  -26.0476  -28.6671   22.0722 C   0  0  0  0  0  0  0  0  0  0  0  0
  -19.9532  -31.8859   24.1729 C   0  0  0  0  0  0  0  0  0  0  0  0
  -29.8122  -12.5120   18.2682 C   0  0  0  0  0  0  0  0  0  0  0  0
  -30.1612  -22.4555   25.3037 C   0  0  0  0  0  0  0  0  0  0  0  0
  -20.5410  -31.7923   22.7684 C   0  0  0  0  0  0  0  0  0  0  0  0
  -28.4140  -11.9079   18.4171 C   0  0  0  0  0  0  0  0  0  0  0  0
  -29.9043  -23.6780   24.4355 C   0  0  0  0  0  0  0  0  0  0  0  0
  -30.4812  -21.2244   24.4590 C   0  0  0  0  0  0  0  0  0  0  0  0
  -30.4046  -12.9107   19.6188 C   0  0  0  0  0  0  0  0  0  0  0  0
  -28.1547  -13.1793   20.5858 C   0  0  0  0  0  0  0  0  0  0  0  0
  -29.1190  -22.1546   22.5805 C   0  0  0  0  0  0  0  0  0  0  0  0
  -20.4896  -30.3523   22.2437 C   0  0  1  0  0  0  0  0  0  0  0  0
  -23.7659  -28.6395   23.1102 C   0  0  1  0  0  0  0  0  0  0  0  0
  -27.4905  -12.8219   19.2461 C   0  0  2  0  0  0  0  0  0  0  0  0
  -28.8030  -23.3915   23.4225 C   0  0  2  0  0  0  0  0  0  1  0  0
  -29.3390  -32.5301   27.1512 C   0  0  0  0  0  0  0  0  0  0  0  0
  -26.4717  -31.5736   21.2576 C   0  0  0  0  0  0  0  0  0  0  0  0
  -28.3203  -32.5930   22.6037 C   0  0  0  0  0  0  0  0  0  0  0  0
  -25.9525  -33.2392   23.0494 C   0  0  0  0  0  0  0  0  0  0  0  0
  -27.7554  -29.2795   28.3354 C   0  0  0  0  0  0  0  0  0  0  0  0
  -26.7640  -30.9482   23.7455 C   0  0  1  0  0  0  0  0  0  0  0  0
  -28.2898  -31.4296   27.1820 C   0  0  2  0  0  0  0  0  0  0  0  0
  -26.8727  -32.0604   22.6645 C   0  0  0  0  0  0  0  0  0  0  0  0
  -25.8852  -11.4611   20.5316 N   0  0  0  0  0  0  0  0  0  0  0  0
  -26.1166  -12.2076   19.4383 N   0  0  0  0  0  0  0  0  0  0  0  0
  -29.4481  -21.0108   23.4360 N   0  0  1  0  0  0  0  0  0  0  0  0
  -25.0893  -29.2775   23.0068 N   0  0  0  0  0  0  0  0  0  0  0  0
  -29.4765  -13.7794   20.3459 N   0  0  0  0  0  0  0  0  0  0  0  0
  -25.0987  -13.0349   17.4659 N   0  0  0  0  0  0  0  0  0  0  0  0
  -21.7976  -10.6528   19.4216 N   0  0  0  0  0  0  0  0  0  0  0  0
  -28.9183  -15.8122   21.4036 N   0  0  0  0  0  0  0  0  0  0  0  0
  -21.5466  -29.5606   22.8357 N   0  0  0  0  0  0  0  0  0  0  0  0
  -27.1117  -31.3879   25.0924 N   0  0  0  0  0  0  0  0  0  0  0  0
  -28.7082  -30.4093   28.1845 N   0  3  0  0  0  0  0  0  0  0  0  0
  -22.3406  -11.9341   17.5989 O   0  0  0  0  0  0  0  0  0  0  0  0
  -23.2535  -30.1365   21.3601 O   0  0  0  0  0  0  0  0  0  0  0  0
  -24.5615  -30.8718   24.6164 O   0  0  0  0  0  0  0  0  0  0  0  0
  -28.8175  -29.8535   25.4285 O   0  0  0  0  0  0  0  0  0  0  0  0
  -31.0316  -15.4824   20.5054 O   0  0  0  0  0  0  0  0  0  0  0  0
  -22.1527   -7.8637   24.2301 O   0  0  0  0  0  0  0  0  0  0  0  0
  -28.6681  -24.5254   22.5712 O   0  0  0  0  0  0  0  0  0  1  0  0
  -21.3452   -2.5532   22.9850 F   0  0  0  0  0  0  0  0  0  0  0  0
  -23.2880   -5.8599   25.7593 F   0  0  0  0  0  0  0  0  0  0  0  0
  -26.7161  -19.7435   23.8353 Cl  0  0  0  0  0  0  0  0  0  0  0  0
  1  2  1  0  0  0  0
  1  5  2  0  0  0  0
  2  6  2  0  0  0  0
  3 10  2  0  0  0  0
  3 18  1  0  0  0  0
  4 11  1  0  0  0  0
  4 18  2  0  0  0  0
  5 20  1  0  0  0  0
  6 22  1  0  0  0  0
  7 12  2  0  0  0  0
  7 21  1  0  0  0  0
  8  9  2  0  0  0  0
  8 24  1  0  0  0  0
  9 25  1  0  0  0  0
 10 26  1  0  0  0  0
 11 26  2  0  0  0  0
 12 27  1  0  0  0  0
 13 14  2  0  0  0  0
 13 28  1  0  0  0  0
 14 29  1  0  0  0  0
 15 23  1  0  0  0  0
 15 27  2  0  0  0  0
 16 25  2  0  0  0  0
 16 31  1  0  0  0  0
 17 29  2  0  0  0  0
 17 30  1  0  0  0  0
 18 32  1  0  0  0  0
 19 32  1  0  0  0  0
 19 33  2  0  0  0  0
 19 34  1  0  0  0  0
 20 22  2  0  0  0  0
 20 39  1  0  0  0  0
 21 23  2  0  0  0  0
 21 40  1  0  0  0  0
 22 52  1  0  0  0  0
 23 41  1  0  0  0  0
 24 31  2  0  0  0  0
 24 66  1  0  0  0  0
 25 71  1  0  0  0  0
 26 80  1  0  0  0  0
 27 81  1  0  0  0  0
 28 30  2  0  0  0  0
 28 80  1  0  0  0  0
 29 82  1  0  0  0  0
 30 83  1  0  0  0  0
 31 84  1  0  0  0  0
 32 64  2  0  0  0  0
 33 65  1  0  0  0  0
 33 69  1  0  0  0  0
 34 70  1  0  0  0  0
 34 75  2  0  0  0  0
 35 53  1  0  0  0  0
 35 72  1  0  0  0  0
 35 76  2  0  0  0  0
 36 61  1  0  0  0  0
 36 67  1  0  0  0  0
 36 77  2  0  0  0  0
 37 62  1  0  0  0  0
 37 73  1  0  0  0  0
 37 78  2  0  0  0  0
 38 68  1  0  0  0  0
 38 71  1  0  0  0  0
 38 79  2  0  0  0  0
 39 42  1  0  0  0  0
 40 53  1  0  0  0  0
 41 67  1  0  0  0  0
 42 45  1  0  0  0  0
 43 46  1  0  0  0  0
 43 49  1  0  0  0  0
 44 47  1  0  0  0  0
 44 48  1  0  0  0  0
 45 52  1  0  0  0  0
 46 54  1  0  0  0  0
 47 55  1  0  0  0  0
 48 66  1  0  0  0  0
 49 68  1  0  0  0  0
 50 54  1  0  0  0  0
 50 68  1  0  0  0  0
 51 55  1  0  0  0  0
 51 66  1  0  0  0  0
 52 72  1  0  0  0  0
 53 67  1  0  0  0  0
 54 65  1  0  0  0  0
 55 81  1  0  0  0  0
 56 62  1  0  0  0  0
 57 63  1  0  0  0  0
 58 63  1  0  0  0  0
 59 63  1  0  0  0  0
 60 74  1  0  0  0  0
 61 63  1  0  0  0  0
 61 73  1  0  0  0  0
 62 74  1  0  0  0  0
 64 65  1  0  0  0  0
M  CHG  1  74   1
M  ISO  4  38 100  55 101  71 100  81 101
M  END
> <Batch ID>
0029

> <Smiles>
CNC(C)C(=O)NC(C(=O)N1Cc2cc([101O:1][101CH:1]3CCCN(c4ccc([100NH:0][100C:0](=O)N5CCCC(n6nc(-c7ccc(Oc8ccc(F)cc8F)cc7)c(C(N)=O)c6N)C5)cc4Cl)C3)ccc2CC1C(=O)NC1CCCc2ccccc21)C(C)(C)C

> <Shape>
0.288

> <Color>
0.096

> <Negative vol penalty>
0.000

$$$$

  -OEChem-04042321343D

 87 96  0     1  0  0  0  0  0999 V2000
  -28.7851  -33.2256   25.4723 C   0  0  0  0  0  0  0  0  0  0  0  0
  -28.7532  -31.9679   24.8786 C   0  0  0  0  0  0  0  0  0  0  0  0
  -22.4795  -12.3823   21.4479 C   0  0  0  0  0  0  0  0  0  0  0  0
  -23.8311  -10.5935   22.3481 C   0  0  0  0  0  0  0  0  0  0  0  0
  -27.6002  -33.8244   25.8981 C   0  0  0  0  0  0  0  0  0  0  0  0
  -27.5364  -31.3078   24.7113 C   0  0  0  0  0  0  0  0  0  0  0  0
  -27.0688  -29.2306   20.1165 C   0  0  0  0  0  0  0  0  0  0  0  0
  -30.9530  -19.1407   21.4202 C   0  0  0  0  0  0  0  0  0  0  0  0
  -30.7771  -17.8215   21.0028 C   0  0  0  0  0  0  0  0  0  0  0  0
  -21.5595  -12.2074   22.4816 C   0  0  0  0  0  0  0  0  0  0  0  0
  -22.9111  -10.4187   23.3820 C   0  0  0  0  0  0  0  0  0  0  0  0
  -27.7424  -28.0315   19.8883 C   0  0  0  0  0  0  0  0  0  0  0  0
  -19.8926   -8.9572   23.8101 C   0  0  0  0  0  0  0  0  0  0  0  0
  -19.5140   -7.6527   24.1269 C   0  0  0  0  0  0  0  0  0  0  0  0
  -25.6879  -26.8173   20.2403 C   0  0  0  0  0  0  0  0  0  0  0  0
  -28.5093  -18.3321   20.3444 C   0  0  0  0  0  0  0  0  0  0  0  0
  -20.3569   -7.9532   26.3711 C   0  0  0  0  0  0  0  0  0  0  0  0
  -23.6152  -11.5753   21.3811 C   0  0  0  0  0  0  0  0  0  0  0  0
  -24.3246  -11.6345   18.9314 C   0  0  0  0  0  0  0  0  0  0  0  0
  -26.3672  -33.1755   25.7272 C   0  0  0  0  0  0  0  0  0  0  0  0
  -25.6996  -29.2313   20.4196 C   0  0  0  0  0  0  0  0  0  0  0  0
  -26.3340  -31.8979   25.1364 C   0  0  0  0  0  0  0  0  0  0  0  0
  -24.9987  -28.0179   20.4694 C   0  0  0  0  0  0  0  0  0  0  0  0
  -29.9070  -20.0557   21.2998 C   0  0  0  0  0  0  0  0  0  0  0  0
  -29.5553  -17.4172   20.4649 C   0  0  0  0  0  0  0  0  0  0  0  0
  -21.7753  -11.2257   23.4487 C   0  0  0  0  0  0  0  0  0  0  0  0
  -27.0527  -26.8244   19.9530 C   0  0  0  0  0  0  0  0  0  0  0  0
  -20.5034   -9.7598   24.7737 C   0  0  0  0  0  0  0  0  0  0  0  0
  -19.7461   -7.1507   25.4075 C   0  0  0  0  0  0  0  0  0  0  0  0
  -20.7355   -9.2578   26.0542 C   0  0  0  0  0  0  0  0  0  0  0  0
  -28.6852  -19.6514   20.7619 C   0  0  0  0  0  0  0  0  0  0  0  0
  -24.5656  -11.7550   20.3131 C   0  0  0  0  0  0  0  0  0  0  0  0
  -25.5388  -11.8996   18.3466 C   0  0  0  0  0  0  0  0  0  0  0  0
  -29.4677  -23.4772   20.5016 C   0  0  0  0  0  0  0  0  0  0  0  0
  -23.1116  -11.3118   18.2385 C   0  0  0  0  0  0  0  0  0  0  0  0
  -23.9535  -30.1602   22.9079 C   0  0  0  0  0  0  0  0  0  0  0  0
  -21.4757  -29.4284   20.9464 C   0  0  0  0  0  0  0  0  0  0  0  0
  -20.3277  -27.6522   18.2680 C   0  0  0  0  0  0  0  0  0  0  0  0
  -30.3111  -15.0430   20.0927 C   0  0  0  0  0  0  0  0  0  0  0  0
  -25.1179  -33.8421   26.2463 C   0  0  0  0  0  0  0  0  0  0  0  0
  -24.9818  -30.5351   20.6368 C   0  0  0  0  0  0  0  0  0  0  0  0
  -23.5240  -27.9658   20.7710 C   0  0  0  0  0  0  0  0  0  0  0  0
  -23.8301  -33.2379   25.6925 C   0  0  0  0  0  0  0  0  0  0  0  0
  -31.6167  -22.9680   18.5755 C   0  0  0  0  0  0  0  0  0  0  0  0
  -30.2442  -11.6007   19.1856 C   0  0  0  0  0  0  0  0  0  0  0  0
  -23.8809  -31.7151   25.7643 C   0  0  0  0  0  0  0  0  0  0  0  0
  -31.1002  -24.3802   18.7692 C   0  0  0  0  0  0  0  0  0  0  0  0
  -28.7579  -11.2402   19.2401 C   0  0  0  0  0  0  0  0  0  0  0  0
  -31.5703  -22.2221   19.8950 C   0  0  0  0  0  0  0  0  0  0  0  0
  -30.6296  -12.5862   20.2873 C   0  0  0  0  0  0  0  0  0  0  0  0
  -28.3222  -13.4418   20.4021 C   0  0  0  0  0  0  0  0  0  0  0  0
  -25.0311  -31.1608   24.9150 C   0  0  1  0  0  0  0  0  0  0  0  0
  -29.6515  -24.3211   19.2381 C   0  0  2  0  0  0  0  0  0  0  0  0
  -23.6965  -30.3823   21.4443 C   0  0  1  0  0  0  0  0  0  0  0  0
  -27.8728  -12.5017   19.2716 C   0  0  2  0  0  0  0  0  0  0  0  0
  -18.2484  -27.2335   16.9269 C   0  0  0  0  0  0  0  0  0  0  0  0
  -20.3974  -27.6491   23.1783 C   0  0  0  0  0  0  0  0  0  0  0  0
  -18.9050  -26.5563   21.4911 C   0  0  0  0  0  0  0  0  0  0  0  0
  -18.6587  -28.9898   21.9809 C   0  0  0  0  0  0  0  0  0  0  0  0
  -21.5745  -28.6926   15.7937 C   0  0  0  0  0  0  0  0  0  0  0  0
  -30.1371  -21.4660   21.7605 C   0  0  0  0  0  0  0  0  0  0  0  0
  -29.1020  -25.7333   19.4375 C   0  0  0  0  0  0  0  0  0  1  0  0
  -20.6639  -28.1867   20.6671 C   0  0  1  0  0  0  0  0  0  0  0  0
  -19.5122  -28.0693   17.0575 C   0  0  2  0  0  0  0  0  0  0  0  0
  -19.6845  -27.8460   21.8256 C   0  0  0  0  0  0  0  0  0  0  0  0
  -25.8334  -12.0719   20.5897 N   0  0  0  0  0  0  0  0  0  0  0  0
  -26.3998  -12.1526   19.3736 N   0  0  0  0  0  0  0  0  0  0  0  0
  -30.3230  -22.3815   20.6421 N   0  0  0  0  0  0  0  0  0  0  0  0
  -22.8680  -29.2668   20.9821 N   0  0  0  0  0  0  0  0  0  0  0  0
  -29.7514  -13.7578   20.2532 N   0  0  0  0  0  0  0  0  0  0  0  0
  -25.9432  -11.9386   17.0593 N   0  0  0  0  0  0  0  0  0  0  0  0
  -21.9557  -11.0684   18.9928 N   0  0  0  0  0  0  0  0  0  0  0  0
  -29.3765  -16.0767   20.0420 N   0  0  0  0  0  0  0  0  0  0  0  0
  -24.6746  -31.1721   23.5124 N   0  0  0  0  0  0  0  0  0  0  0  0
  -20.0136  -28.4052   19.3796 N   0  0  0  0  0  0  0  0  0  0  0  0
  -20.3139  -27.9068   15.8118 N   0  3  0  0  0  0  0  0  0  0  0  0
  -28.5445  -23.7225   21.2832 O   0  0  0  0  0  0  0  0  0  0  0  0
  -23.0583  -11.2252   16.9882 O   0  0  0  0  0  0  0  0  0  0  0  0
  -23.5277  -29.1465   23.4491 O   0  0  0  0  0  0  0  0  0  0  0  0
  -20.8963  -30.5036   21.1191 O   0  0  0  0  0  0  0  0  0  0  0  0
  -21.1576  -26.7463   18.2321 O   0  0  0  0  0  0  0  0  0  0  0  0
  -31.5280  -15.2114   19.9793 O   0  0  0  0  0  0  0  0  0  0  0  0
  -20.8780  -11.0550   24.4577 O   0  0  0  0  0  0  0  0  0  0  0  0
  -27.7079  -25.6525   19.7313 O   0  0  0  0  0  0  0  0  0  1  0  0
  -19.3811   -5.8984   25.7121 F   0  0  0  0  0  0  0  0  0  0  0  0
  -21.3209  -10.0244   26.9845 F   0  0  0  0  0  0  0  0  0  0  0  0
  -27.3684  -20.7554   20.5980 Cl  0  0  0  0  0  0  0  0  0  0  0  0
  1  2  1  0  0  0  0
  1  5  2  0  0  0  0
  2  6  2  0  0  0  0
  3 10  2  0  0  0  0
  3 18  1  0  0  0  0
  4 11  1  0  0  0  0
  4 18  2  0  0  0  0
  5 20  1  0  0  0  0
  6 22  1  0  0  0  0
  7 12  2  0  0  0  0
  7 21  1  0  0  0  0
  8  9  2  0  0  0  0
  8 24  1  0  0  0  0
  9 25  1  0  0  0  0
 10 26  1  0  0  0  0
 11 26  2  0  0  0  0
 12 27  1  0  0  0  0
 13 14  2  0  0  0  0
 13 28  1  0  0  0  0
 14 29  1  0  0  0  0
 15 23  1  0  0  0  0
 15 27  2  0  0  0  0
 16 25  2  0  0  0  0
 16 31  1  0  0  0  0
 17 29  2  0  0  0  0
 17 30  1  0  0  0  0
 18 32  1  0  0  0  0
 19 32  1  0  0  0  0
 19 33  2  0  0  0  0
 19 35  1  0  0  0  0
 20 22  2  0  0  0  0
 20 40  1  0  0  0  0
 21 23  2  0  0  0  0
 21 41  1  0  0  0  0
 22 52  1  0  0  0  0
 23 42  1  0  0  0  0
 24 31  2  0  0  0  0
 24 61  1  0  0  0  0
 25 73  1  0  0  0  0
 26 83  1  0  0  0  0
 27 84  1  0  0  0  0
 28 30  2  0  0  0  0
 28 83  1  0  0  0  0
 29 85  1  0  0  0  0
 30 86  1  0  0  0  0
 31 87  1  0  0  0  0
 32 66  2  0  0  0  0
 33 67  1  0  0  0  0
 33 71  1  0  0  0  0
 34 53  1  0  0  0  0
 34 68  1  0  0  0  0
 34 77  2  0  0  0  0
 35 72  1  0  0  0  0
 35 78  2  0  0  0  0
 36 54  1  0  0  0  0
 36 74  1  0  0  0  0
 36 79  2  0  0  0  0
 37 63  1  0  0  0  0
 37 69  1  0  0  0  0
 37 80  2  0  0  0  0
 38 64  1  0  0  0  0
 38 75  1  0  0  0  0
 38 81  2  0  0  0  0
 39 70  1  0  0  0  0
 39 73  1  0  0  0  0
 39 82  2  0  0  0  0
 40 43  1  0  0  0  0
 41 54  1  0  0  0  0
 42 69  1  0  0  0  0
 43 46  1  0  0  0  0
 44 47  1  0  0  0  0
 44 49  1  0  0  0  0
 45 48  1  0  0  0  0
 45 50  1  0  0  0  0
 46 52  1  0  0  0  0
 47 53  1  0  0  0  0
 48 55  1  0  0  0  0
 49 68  1  0  0  0  0
 50 70  1  0  0  0  0
 51 55  1  0  0  0  0
 51 70  1  0  0  0  0
 52 74  1  0  0  0  0
 53 62  1  0  0  0  0
 54 69  1  0  0  0  0
 55 67  1  0  0  0  0
 56 64  1  0  0  0  0
 57 65  1  0  0  0  0
 58 65  1  0  0  0  0
 59 65  1  0  0  0  0
 60 76  1  0  0  0  0
 61 68  1  0  0  0  0
 62 84  1  0  0  0  0
 63 65  1  0  0  0  0
 63 75  1  0  0  0  0
 64 76  1  0  0  0  0
 66 67  1  0  0  0  0
M  CHG  1  76   1
M  ISO  4  39 100  62 101  73 100  84 101
M  END
> <Batch ID>
0029

> <Smiles>
CNC(C)C(=O)NC(C(=O)N1Cc2cc([101O:1][101CH2:1]C3CCCN(Cc4ccc([100NH:0][100C:0](=O)N5CCCC(n6nc(-c7ccc(Oc8ccc(F)cc8F)cc7)c(C(N)=O)c6N)C5)cc4Cl)C3=O)ccc2CC1C(=O)NC1CCCc2ccccc21)C(C)(C)C

> <Shape>
0.335

> <Color>
0.095

> <Negative vol penalty>
0.000

$$$$

  -OEChem-04042321343D

 84 93  0     1  0  0  0  0  0999 V2000
  -30.9733  -25.5446   17.9402 C   0  0  0  0  0  0  0  0  0  0  0  0
  -29.5827  -25.5214   17.9073 C   0  0  0  0  0  0  0  0  0  0  0  0
  -24.1401  -12.0549   20.9687 C   0  0  0  0  0  0  0  0  0  0  0  0
  -25.4272  -14.0023   20.3458 C   0  0  0  0  0  0  0  0  0  0  0  0
  -31.6346  -26.0491   19.0592 C   0  0  0  0  0  0  0  0  0  0  0  0
  -28.8525  -26.0017   18.9938 C   0  0  0  0  0  0  0  0  0  0  0  0
  -23.4732  -28.9233   18.8122 C   0  0  0  0  0  0  0  0  0  0  0  0
  -24.9959  -11.2491   20.2179 C   0  0  0  0  0  0  0  0  0  0  0  0
  -26.2831  -13.1964   19.5950 C   0  0  0  0  0  0  0  0  0  0  0  0
  -22.1627  -28.4886   19.0054 C   0  0  0  0  0  0  0  0  0  0  0  0
  -28.8796  -11.1109   20.1689 C   0  0  0  0  0  0  0  0  0  0  0  0
  -30.2513  -11.3289   20.2974 C   0  0  0  0  0  0  0  0  0  0  0  0
  -22.2695  -29.2079   21.3055 C   0  0  0  0  0  0  0  0  0  0  0  0
  -20.4445  -24.0214   24.2543 C   0  0  0  0  0  0  0  0  0  0  0  0
  -19.3822  -22.3817   22.8330 C   0  0  0  0  0  0  0  0  0  0  0  0
  -30.3938  -11.8244   17.9371 C   0  0  0  0  0  0  0  0  0  0  0  0
  -24.3557  -13.4316   21.0326 C   0  0  0  0  0  0  0  0  0  0  0  0
  -23.6037  -14.6120   23.1654 C   0  0  0  0  0  0  0  0  0  0  0  0
  -30.9121  -26.5447   20.1560 C   0  0  0  0  0  0  0  0  0  0  0  0
  -24.1967  -29.4947   19.8690 C   0  0  0  0  0  0  0  0  0  0  0  0
  -29.5048  -26.5120   20.1291 C   0  0  0  0  0  0  0  0  0  0  0  0
  -23.5882  -29.6514   21.1225 C   0  0  0  0  0  0  0  0  0  0  0  0
  -19.5395  -23.7064   23.2407 C   0  0  0  0  0  0  0  0  0  0  0  0
  -21.1922  -23.0117   24.8603 C   0  0  0  0  0  0  0  0  0  0  0  0
  -21.0348  -21.6870   24.4527 C   0  0  0  0  0  0  0  0  0  0  0  0
  -20.1298  -21.3720   23.4390 C   0  0  0  0  0  0  0  0  0  0  0  0
  -26.0675  -11.8198   19.5311 C   0  0  0  0  0  0  0  0  0  0  0  0
  -21.5617  -28.6282   20.2529 C   0  0  0  0  0  0  0  0  0  0  0  0
  -28.2650  -11.2496   18.9244 C   0  0  0  0  0  0  0  0  0  0  0  0
  -31.0084  -11.6856   19.1816 C   0  0  0  0  0  0  0  0  0  0  0  0
  -29.0221  -11.6064   17.8085 C   0  0  0  0  0  0  0  0  0  0  0  0
  -23.4717  -14.2646   21.8076 C   0  0  0  0  0  0  0  0  0  0  0  0
  -22.5178  -15.4128   23.4221 C   0  0  0  0  0  0  0  0  0  0  0  0
  -24.6173  -14.2437   24.1102 C   0  0  0  0  0  0  0  0  0  0  0  0
  -26.8590  -28.7379   21.4321 C   0  0  0  0  0  0  0  0  0  0  0  0
  -26.3774  -31.6132   22.8546 C   0  0  0  0  0  0  0  0  0  0  0  0
  -24.1886  -34.0777   23.7388 C   0  0  0  0  0  0  0  0  0  0  0  0
  -19.0912  -19.5706   22.0170 C   0  0  0  0  0  0  0  0  0  0  0  0
  -31.6713  -27.0366   21.3629 C   0  0  0  0  0  0  0  0  0  0  0  0
  -25.6003  -29.9830   19.6372 C   0  0  0  0  0  0  0  0  0  0  0  0
  -24.3149  -30.2768   22.2841 C   0  0  0  0  0  0  0  0  0  0  0  0
  -30.8222  -27.8719   22.3177 C   0  0  0  0  0  0  0  0  0  0  0  0
  -18.3935  -16.3601   20.6446 C   0  0  0  0  0  0  0  0  0  0  0  0
  -29.4820  -27.1906   22.5755 C   0  0  0  0  0  0  0  0  0  0  0  0
  -19.6633  -15.5573   20.9365 C   0  0  0  0  0  0  0  0  0  0  0  0
  -18.7087  -17.8148   20.3006 C   0  0  0  0  0  0  0  0  0  0  0  0
  -20.8157  -17.7145   21.5734 C   0  0  0  0  0  0  0  0  0  0  0  0
  -18.5765  -26.3565   20.7127 C   0  0  0  0  0  0  0  0  0  0  0  0
  -20.5191  -25.8294   21.2705 C   0  0  0  0  0  0  0  0  0  0  0  0
  -28.6776  -27.0469   21.2779 C   0  0  1  0  0  0  0  0  0  0  0  0
  -26.4187  -30.0806   20.9210 C   0  0  1  0  0  0  0  0  0  0  0  0
  -20.5445  -16.2593   21.9884 C   0  0  2  0  0  0  0  0  0  0  0  0
  -19.9633  -26.8197   20.2321 C   0  0  0  0  0  0  0  0  0  1  0  0
  -22.1556  -23.3764   25.9419 C   0  0  0  0  0  0  0  0  0  0  0  0
  -21.8401  -20.6076   25.1055 C   0  0  0  0  0  0  0  0  0  0  0  0
  -24.0833  -36.2859   24.9263 C   0  0  0  0  0  0  0  0  0  0  0  0
  -26.5650  -30.1756   25.5394 C   0  0  0  0  0  0  0  0  0  0  0  0
  -25.5288  -32.1876   26.6102 C   0  0  0  0  0  0  0  0  0  0  0  0
  -27.7313  -32.3863   25.4561 C   0  0  0  0  0  0  0  0  0  0  0  0
  -23.2471  -35.4732   21.3046 C   0  0  0  0  0  0  0  0  0  0  0  0
  -18.7364  -24.7926   22.5878 C   0  0  0  0  0  0  0  0  0  0  0  0
  -25.6324  -32.0891   24.0783 C   0  0  1  0  0  0  0  0  0  0  0  0
  -24.2557  -35.5867   23.5869 C   0  0  2  0  0  0  0  0  0  0  0  0
  -26.3511  -31.6960   25.3998 C   0  0  0  0  0  0  0  0  0  0  0  0
  -22.3873  -14.8008   21.2413 N   0  0  0  0  0  0  0  0  0  0  0  0
  -21.8280  -15.4931   22.2483 N   0  0  0  0  0  0  0  0  0  0  0  0
  -25.6875  -30.7328   22.0091 N   0  0  0  0  0  0  0  0  0  0  0  0
  -19.5429  -18.4159   21.3435 N   0  0  0  0  0  0  0  0  0  0  0  0
  -22.0952  -16.0491   24.5352 N   0  0  0  0  0  0  0  0  0  0  0  0
  -25.6622  -13.4145   23.6799 N   0  0  0  0  0  0  0  0  0  0  0  0
  -19.9535  -20.0330   23.0105 N   0  0  0  0  0  0  0  0  0  0  0  0
  -28.0682  -28.3094   20.9186 N   0  0  0  0  0  0  0  0  0  0  0  0
  -25.4407  -33.5251   23.9066 N   0  0  0  0  0  0  0  0  0  0  0  0
  -19.2188  -25.1349   21.2319 N   0  3  0  0  0  0  0  0  0  0  0  0
  -23.1844  -36.0628   22.6668 N   0  3  0  0  0  0  0  0  0  0  0  0
  -24.5883  -14.6248   25.3049 O   0  0  0  0  0  0  0  0  0  0  0  0
  -26.1546  -28.1361   22.2341 O   0  0  0  0  0  0  0  0  0  0  0  0
  -27.5266  -32.0135   22.6525 O   0  0  0  0  0  0  0  0  0  0  0  0
  -23.1309  -33.4522   23.7150 O   0  0  0  0  0  0  0  0  0  0  0  0
  -18.0057  -20.0936   21.7518 O   0  0  0  0  0  0  0  0  0  0  0  0
  -26.9029  -11.0337   18.7985 O   0  0  0  0  0  0  0  0  0  0  0  0
  -20.2828  -28.2041   20.4444 O   0  0  0  0  0  0  0  0  0  1  0  0
  -32.3254  -11.8964   19.3055 F   0  0  0  0  0  0  0  0  0  0  0  0
  -28.4370  -11.7423   16.6106 F   0  0  0  0  0  0  0  0  0  0  0  0
  1  2  1  0  0  0  0
  1  5  2  0  0  0  0
  2  6  2  0  0  0  0
  3  8  2  0  0  0  0
  3 17  1  0  0  0  0
  4  9  1  0  0  0  0
  4 17  2  0  0  0  0
  5 19  1  0  0  0  0
  6 21  1  0  0  0  0
  7 10  2  0  0  0  0
  7 20  1  0  0  0  0
  8 27  1  0  0  0  0
  9 27  2  0  0  0  0
 10 28  1  0  0  0  0
 11 12  2  0  0  0  0
 11 29  1  0  0  0  0
 12 30  1  0  0  0  0
 13 22  1  0  0  0  0
 13 28  2  0  0  0  0
 14 23  1  0  0  0  0
 14 24  2  0  0  0  0
 15 23  2  0  0  0  0
 15 26  1  0  0  0  0
 16 30  2  0  0  0  0
 16 31  1  0  0  0  0
 17 32  1  0  0  0  0
 18 32  1  0  0  0  0
 18 33  2  0  0  0  0
 18 34  1  0  0  0  0
 19 21  2  0  0  0  0
 19 39  1  0  0  0  0
 20 22  2  0  0  0  0
 20 40  1  0  0  0  0
 21 50  1  0  0  0  0
 22 41  1  0  0  0  0
 23 61  1  0  0  0  0
 24 25  1  0  0  0  0
 24 54  1  0  0  0  0
 25 26  2  0  0  0  0
 25 55  1  0  0  0  0
 26 71  1  0  0  0  0
 27 81  1  0  0  0  0
 28 82  1  0  0  0  0
 29 31  2  0  0  0  0
 29 81  1  0  0  0  0
 30 83  1  0  0  0  0
 31 84  1  0  0  0  0
 32 65  2  0  0  0  0
 33 66  1  0  0  0  0
 33 69  1  0  0  0  0
 34 70  1  0  0  0  0
 34 76  2  0  0  0  0
 35 51  1  0  0  0  0
 35 72  1  0  0  0  0
 35 77  2  0  0  0  0
 36 62  1  0  0  0  0
 36 67  1  0  0  0  0
 36 78  2  0  0  0  0
 37 63  1  0  0  0  0
 37 73  1  0  0  0  0
 37 79  2  0  0  0  0
 38 68  1  0  0  0  0
 38 71  1  0  0  0  0
 38 80  2  0  0  0  0
 39 42  1  0  0  0  0
 40 51  1  0  0  0  0
 41 67  1  0  0  0  0
 42 44  1  0  0  0  0
 43 45  1  0  0  0  0
 43 46  1  0  0  0  0
 44 50  1  0  0  0  0
 45 52  1  0  0  0  0
 46 68  1  0  0  0  0
 47 52  1  0  0  0  0
 47 68  1  0  0  0  0
 48 53  1  0  0  0  0
 48 74  1  0  0  0  0
 49 53  1  0  0  0  0
 49 74  1  0  0  0  0
 50 72  1  0  0  0  0
 51 67  1  0  0  0  0
 52 66  1  0  0  0  0
 53 82  1  0  0  0  0
 56 63  1  0  0  0  0
 57 64  1  0  0  0  0
 58 64  1  0  0  0  0
 59 64  1  0  0  0  0
 60 75  1  0  0  0  0
 61 74  1  0  0  0  0
 62 64  1  0  0  0  0
 62 73  1  0  0  0  0
 63 75  1  0  0  0  0
 65 66  1  0  0  0  0
M  CHG  2  74   1  75   1
M  ISO  4  38 100  53 101  71 100  82 101
M  END
> <Batch ID>
0029

> <Smiles>
CNC(C)C(=O)NC(C(=O)N1Cc2cc([101O:1][101CH:1]3CN(Cc4cc(C)c(C)c([100NH:0][100C:0](=O)N5CCCC(n6nc(-c7ccc(Oc8ccc(F)cc8F)cc7)c(C(N)=O)c6N)C5)c4)C3)ccc2CC1C(=O)NC1CCCc2ccccc21)C(C)(C)C

> <Shape>
0.276

> <Color>
0.083

> <Negative vol penalty>
0.000

$$$$

  -OEChem-04042321343D

 86 95  0     1  0  0  0  0  0999 V2000
  -16.6248  -28.9419   24.1635 C   0  0  0  0  0  0  0  0  0  0  0  0
  -16.8560  -27.7809   23.4326 C   0  0  0  0  0  0  0  0  0  0  0  0
  -25.4336  -12.8506   20.5723 C   0  0  0  0  0  0  0  0  0  0  0  0
  -25.8853  -15.1250   19.8941 C   0  0  0  0  0  0  0  0  0  0  0  0
  -17.5043  -30.0184   24.0566 C   0  0  0  0  0  0  0  0  0  0  0  0
  -17.9664  -27.6963   22.5934 C   0  0  0  0  0  0  0  0  0  0  0  0
  -23.7549  -22.4517   22.4709 C   0  0  0  0  0  0  0  0  0  0  0  0
  -24.0942  -13.1790   20.7816 C   0  0  0  0  0  0  0  0  0  0  0  0
  -24.5459  -15.4534   20.1033 C   0  0  0  0  0  0  0  0  0  0  0  0
  -24.9148  -21.6769   22.4519 C   0  0  0  0  0  0  0  0  0  0  0  0
  -22.2510  -14.7270   23.1545 C   0  0  0  0  0  0  0  0  0  0  0  0
  -21.6474  -14.2688   24.3255 C   0  0  0  0  0  0  0  0  0  0  0  0
  -26.1441  -23.5217   21.4858 C   0  0  0  0  0  0  0  0  0  0  0  0
  -30.4910  -16.8504   19.8574 C   0  0  0  0  0  0  0  0  0  0  0  0
  -31.9516  -16.2115   18.0421 C   0  0  0  0  0  0  0  0  0  0  0  0
  -20.0272  -13.0484   23.0130 C   0  0  0  0  0  0  0  0  0  0  0  0
  -26.3292  -13.8236   20.1287 C   0  0  0  0  0  0  0  0  0  0  0  0
  -28.6259  -12.9922   20.8644 C   0  0  0  0  0  0  0  0  0  0  0  0
  -18.6314  -29.9433   23.2230 C   0  0  0  0  0  0  0  0  0  0  0  0
  -23.7888  -23.7711   22.0111 C   0  0  0  0  0  0  0  0  0  0  0  0
  -18.8612  -28.7733   22.4742 C   0  0  0  0  0  0  0  0  0  0  0  0
  -24.9884  -24.3067   21.5140 C   0  0  0  0  0  0  0  0  0  0  0  0
  -29.6232  -17.4535   18.9470 C   0  0  0  0  0  0  0  0  0  0  0  0
  -29.9196  -17.4355   17.5841 C   0  0  0  0  0  0  0  0  0  0  0  0
  -31.0838  -16.8145   17.1316 C   0  0  0  0  0  0  0  0  0  0  0  0
  -23.6503  -14.4804   20.5471 C   0  0  0  0  0  0  0  0  0  0  0  0
  -26.1064  -22.2105   21.9604 C   0  0  0  0  0  0  0  0  0  0  0  0
  -21.7426  -14.3460   21.9126 C   0  0  0  0  0  0  0  0  0  0  0  0
  -20.5356  -13.4295   24.2548 C   0  0  0  0  0  0  0  0  0  0  0  0
  -20.6308  -13.5067   21.8419 C   0  0  0  0  0  0  0  0  0  0  0  0
  -31.6552  -16.2295   19.4049 C   0  0  0  0  0  0  0  0  0  0  0  0
  -27.7130  -13.4852   19.9129 C   0  0  0  0  0  0  0  0  0  0  0  0
  -29.7976  -12.8327   20.1656 C   0  0  0  0  0  0  0  0  0  0  0  0
  -28.4322  -12.7042   22.2555 C   0  0  0  0  0  0  0  0  0  0  0  0
  -21.9000  -26.9575   21.4152 C   0  0  0  0  0  0  0  0  0  0  0  0
  -24.6591  -27.7466   22.4990 C   0  0  0  0  0  0  0  0  0  0  0  0
  -27.6370  -28.1764   24.1068 C   0  0  0  0  0  0  0  0  0  0  0  0
  -31.5707  -15.5916   14.9965 C   0  0  0  0  0  0  0  0  0  0  0  0
  -19.5279  -31.1502   23.1039 C   0  0  0  0  0  0  0  0  0  0  0  0
  -22.5495  -24.6224   21.9557 C   0  0  0  0  0  0  0  0  0  0  0  0
  -24.9697  -25.7194   20.9975 C   0  0  0  0  0  0  0  0  0  0  0  0
  -20.8858  -30.8410   22.4789 C   0  0  0  0  0  0  0  0  0  0  0  0
  -31.4790  -11.9749   15.7741 C   0  0  0  0  0  0  0  0  0  0  0  0
  -20.7155  -29.9815   21.2303 C   0  0  0  0  0  0  0  0  0  0  0  0
  -30.5115  -11.9060   16.9542 C   0  0  0  0  0  0  0  0  0  0  0  0
  -31.1704  -13.1543   14.8567 C   0  0  0  0  0  0  0  0  0  0  0  0
  -30.1676  -14.4003   16.7496 C   0  0  0  0  0  0  0  0  0  0  0  0
  -27.1575  -20.2165   19.7422 C   0  0  0  0  0  0  0  0  0  0  0  0
  -28.9969  -20.1148   20.7265 C   0  0  0  0  0  0  0  0  0  0  0  0
  -20.0682  -28.6341   21.5721 C   0  0  1  0  0  0  0  0  0  0  0  0
  -22.8261  -26.1101   22.2372 C   0  0  1  0  0  0  0  0  0  0  0  0
  -30.4826  -13.2443   17.7108 C   0  0  1  0  0  0  0  0  0  0  0  0
  -27.8861  -21.1792   20.6967 C   0  0  0  0  0  0  0  0  0  1  0  0
  -28.9855  -18.0837   16.6109 C   0  0  0  0  0  0  0  0  0  0  0  0
  -33.2939  -18.3406   15.4127 C   0  0  0  0  0  0  0  0  0  0  0  0
  -29.1525  -29.9656   25.0010 C   0  0  0  0  0  0  0  0  0  0  0  0
  -25.5662  -28.3923   19.6593 C   0  0  0  0  0  0  0  0  0  0  0  0
  -27.6402  -29.4062   20.6282 C   0  0  0  0  0  0  0  0  0  0  0  0
  -25.4072  -30.3718   21.1795 C   0  0  0  0  0  0  0  0  0  0  0  0
  -27.4186  -27.1420   26.8711 C   0  0  0  0  0  0  0  0  0  0  0  0
  -28.3778  -18.1146   19.4598 C   0  0  0  0  0  0  0  0  0  0  0  0
  -31.8444  -18.0301   15.0983 C   0  0  0  0  0  0  0  0  0  0  0  0
  -26.0767  -28.1478   22.1783 C   0  0  1  0  0  0  0  0  0  0  0  0
  -28.0164  -29.0063   25.3200 C   0  0  2  0  0  0  0  0  0  0  0  0
  -26.1657  -29.0525   20.9170 C   0  0  0  0  0  0  0  0  0  0  0  0
  -28.2579  -13.6295   18.7020 N   0  0  0  0  0  0  0  0  0  0  0  0
  -29.5259  -13.2249   18.8879 N   0  0  0  0  0  0  0  0  0  0  0  0
  -24.1827  -26.5740   21.9004 N   0  0  0  0  0  0  0  0  0  0  0  0
  -31.0866  -14.4126   15.5998 N   0  0  0  0  0  0  0  0  0  0  0  0
  -31.0234  -12.3968   20.5256 N   0  0  0  0  0  0  0  0  0  0  0  0
  -28.6684  -13.7234   23.1881 N   0  0  0  0  0  0  0  0  0  0  0  0
  -21.0419  -27.7411   22.1629 N   0  0  0  0  0  0  0  0  0  0  0  0
  -26.6124  -28.7580   23.3903 N   0  0  0  0  0  0  0  0  0  0  0  0
  -31.4100  -16.7845   15.7268 N   0  0  0  0  0  0  0  0  0  0  0  0
  -28.4619  -19.5915   19.4558 N   0  3  0  0  0  0  0  0  0  0  0  0
  -28.4486  -28.1213   26.4384 N   0  3  0  0  0  0  0  0  0  0  0  0
  -28.0764  -11.5716   22.6607 O   0  0  0  0  0  0  0  0  0  0  0  0
  -21.9595  -26.9062   20.1923 O   0  0  0  0  0  0  0  0  0  0  0  0
  -23.9883  -28.4549   23.2550 O   0  0  0  0  0  0  0  0  0  0  0  0
  -28.1962  -27.1199   23.8212 O   0  0  0  0  0  0  0  0  0  0  0  0
  -32.0623  -15.5914   13.8612 O   0  0  0  0  0  0  0  0  0  0  0  0
  -22.3434  -14.8011   20.7509 O   0  0  0  0  0  0  0  0  0  0  0  0
  -27.2361  -21.4501   21.9489 O   0  0  0  0  0  0  0  0  0  1  0  0
  -19.9571  -12.9883   25.3794 F   0  0  0  0  0  0  0  0  0  0  0  0
  -20.1386  -13.1363   20.6518 F   0  0  0  0  0  0  0  0  0  0  0  0
  -32.7262  -15.4866   20.5286 Cl  0  0  0  0  0  0  0  0  0  0  0  0
  1  2  1  0  0  0  0
  1  5  2  0  0  0  0
  2  6  2  0  0  0  0
  3  8  2  0  0  0  0
  3 17  1  0  0  0  0
  4  9  1  0  0  0  0
  4 17  2  0  0  0  0
  5 19  1  0  0  0  0
  6 21  1  0  0  0  0
  7 10  2  0  0  0  0
  7 20  1  0  0  0  0
  8 26  1  0  0  0  0
  9 26  2  0  0  0  0
 10 27  1  0  0  0  0
 11 12  2  0  0  0  0
 11 28  1  0  0  0  0
 12 29  1  0  0  0  0
 13 22  1  0  0  0  0
 13 27  2  0  0  0  0
 14 23  2  0  0  0  0
 14 31  1  0  0  0  0
 15 25  1  0  0  0  0
 15 31  2  0  0  0  0
 16 29  2  0  0  0  0
 16 30  1  0  0  0  0
 17 32  1  0  0  0  0
 18 32  1  0  0  0  0
 18 33  2  0  0  0  0
 18 34  1  0  0  0  0
 19 21  2  0  0  0  0
 19 39  1  0  0  0  0
 20 22  2  0  0  0  0
 20 40  1  0  0  0  0
 21 50  1  0  0  0  0
 22 41  1  0  0  0  0
 23 24  1  0  0  0  0
 23 61  1  0  0  0  0
 24 25  2  0  0  0  0
 24 54  1  0  0  0  0
 25 74  1  0  0  0  0
 26 82  1  0  0  0  0
 27 83  1  0  0  0  0
 28 30  2  0  0  0  0
 28 82  1  0  0  0  0
 29 84  1  0  0  0  0
 30 85  1  0  0  0  0
 31 86  1  0  0  0  0
 32 66  2  0  0  0  0
 33 67  1  0  0  0  0
 33 70  1  0  0  0  0
 34 71  1  0  0  0  0
 34 77  2  0  0  0  0
 35 51  1  0  0  0  0
 35 72  1  0  0  0  0
 35 78  2  0  0  0  0
 36 63  1  0  0  0  0
 36 68  1  0  0  0  0
 36 79  2  0  0  0  0
 37 64  1  0  0  0  0
 37 73  1  0  0  0  0
 37 80  2  0  0  0  0
 38 69  1  0  0  0  0
 38 74  1  0  0  0  0
 38 81  2  0  0  0  0
 39 42  1  0  0  0  0
 40 51  1  0  0  0  0
 41 68  1  0  0  0  0
 42 44  1  0  0  0  0
 43 45  1  0  0  0  0
 43 46  1  0  0  0  0
 44 50  1  0  0  0  0
 45 52  1  0  0  0  0
 46 69  1  0  0  0  0
 47 52  1  0  0  0  0
 47 69  1  0  0  0  0
 48 53  1  0  0  0  0
 48 75  1  0  0  0  0
 49 53  1  0  0  0  0
 49 75  1  0  0  0  0
 50 72  1  0  0  0  0
 51 68  1  0  0  0  0
 52 67  1  0  0  0  0
 53 83  1  0  0  0  0
 55 62  1  0  0  0  0
 56 64  1  0  0  0  0
 57 65  1  0  0  0  0
 58 65  1  0  0  0  0
 59 65  1  0  0  0  0
 60 76  1  0  0  0  0
 61 75  1  0  0  0  0
 62 74  1  0  0  0  0
 63 65  1  0  0  0  0
 63 73  1  0  0  0  0
 64 76  1  0  0  0  0
 66 67  1  0  0  0  0
M  CHG  2  75   1  76   1
M  ISO  4  38 100  53 101  74 100  83 101
M  END
> <Batch ID>
0029

> <Smiles>
CC[100N:0](c1cc(Cl)cc(CN2C[101CH:1]([101O:1]c3ccc4c(c3)CN(C(=O)C(NC(=O)C(C)NC)C(C)(C)C)C(C(=O)NC3CCCc5ccccc53)C4)C2)c1C)[100C:0](=O)N1CCCC(n2nc(-c3ccc(Oc4ccc(F)cc4F)cc3)c(C(N)=O)c2N)C1

> <Shape>
0.238

> <Color>
0.061

> <Negative vol penalty>
0.000

$$$$

  -OEChem-04042321343D

 90100  0     1  0  0  0  0  0999 V2000
  -23.3289   -7.8166   21.1955 C   0  0  0  0  0  0  0  0  0  0  0  0
  -24.2328   -8.8530   20.9852 C   0  0  0  0  0  0  0  0  0  0  0  0
  -24.8304  -29.7099   22.3417 C   0  0  0  0  0  0  0  0  0  0  0  0
  -24.0705  -29.5062   20.0574 C   0  0  0  0  0  0  0  0  0  0  0  0
  -21.9627   -8.0872   21.2608 C   0  0  0  0  0  0  0  0  0  0  0  0
  -23.7709  -10.1606   20.8390 C   0  0  0  0  0  0  0  0  0  0  0  0
  -26.4953  -13.4932   23.5065 C   0  0  0  0  0  0  0  0  0  0  0  0
  -25.2028  -31.0322   22.0999 C   0  0  0  0  0  0  0  0  0  0  0  0
  -24.4429  -30.8285   19.8156 C   0  0  0  0  0  0  0  0  0  0  0  0
  -27.7271  -13.8769   22.9779 C   0  0  0  0  0  0  0  0  0  0  0  0
  -23.6843  -34.0440   21.8626 C   0  0  0  0  0  0  0  0  0  0  0  0
  -23.3347  -35.0005   22.8156 C   0  0  0  0  0  0  0  0  0  0  0  0
  -26.7313  -15.9126   22.1511 C   0  0  0  0  0  0  0  0  0  0  0  0
  -27.1250  -17.4127   18.2558 C   0  0  0  0  0  0  0  0  0  0  0  0
  -29.8403  -17.5613   18.8782 C   0  0  0  0  0  0  0  0  0  0  0  0
  -25.6693  -35.5319   23.1389 C   0  0  0  0  0  0  0  0  0  0  0  0
  -24.2643  -28.9469   21.3204 C   0  0  0  0  0  0  0  0  0  0  0  0
  -22.6310  -27.1187   22.0258 C   0  0  0  0  0  0  0  0  0  0  0  0
  -21.4845   -9.4000   21.1249 C   0  0  0  0  0  0  0  0  0  0  0  0
  -25.3680  -14.3127   23.3517 C   0  0  0  0  0  0  0  0  0  0  0  0
  -22.3969  -10.4488   20.9012 C   0  0  0  0  0  0  0  0  0  0  0  0
  -25.4870  -15.5382   22.6809 C   0  0  0  0  0  0  0  0  0  0  0  0
  -27.8537  -16.2450   18.4815 C   0  0  0  0  0  0  0  0  0  0  0  0
  -27.7540  -18.6548   18.3413 C   0  0  0  0  0  0  0  0  0  0  0  0
  -29.2113  -16.3192   18.7927 C   0  0  0  0  0  0  0  0  0  0  0  0
  -29.1116  -18.7291   18.6525 C   0  0  0  0  0  0  0  0  0  0  0  0
  -25.0090  -31.5915   20.8369 C   0  0  0  0  0  0  0  0  0  0  0  0
  -27.8446  -15.0854   22.2976 C   0  0  0  0  0  0  0  0  0  0  0  0
  -25.0265  -33.8313   21.5477 C   0  0  0  0  0  0  0  0  0  0  0  0
  -24.3271  -35.7445   23.4538 C   0  0  0  0  0  0  0  0  0  0  0  0
  -26.0189  -34.5753   22.1858 C   0  0  0  0  0  0  0  0  0  0  0  0
  -23.8800  -27.5807   21.5694 C   0  0  0  0  0  0  0  0  0  0  0  0
  -22.7751  -25.7547   22.0986 C   0  0  0  0  0  0  0  0  0  0  0  0
  -21.4464  -27.8565   22.3546 C   0  0  0  0  0  0  0  0  0  0  0  0
  -22.5398  -13.9929   21.9363 C   0  0  0  0  0  0  0  0  0  0  0  0
  -21.9586  -16.8686   23.3202 C   0  0  0  0  0  0  0  0  0  0  0  0
  -23.2119  -19.7646   24.6199 C   0  0  0  0  0  0  0  0  0  0  0  0
  -26.3083  -22.0129   19.2054 C   0  0  0  0  0  0  0  0  0  0  0  0
  -19.9954   -9.6371   21.1555 C   0  0  0  0  0  0  0  0  0  0  0  0
  -24.0525  -13.8969   23.9509 C   0  0  0  0  0  0  0  0  0  0  0  0
  -24.3117  -16.4635   22.5051 C   0  0  0  0  0  0  0  0  0  0  0  0
  -19.6157  -11.1007   21.3648 C   0  0  0  0  0  0  0  0  0  0  0  0
  -30.6941  -21.9603   19.6361 C   0  0  0  0  0  0  0  0  0  0  0  0
  -30.9082  -21.9568   18.1361 C   0  0  0  0  0  0  0  0  0  0  0  0
  -26.0869  -22.3712   22.7998 C   0  0  0  0  0  0  0  0  0  0  0  0
  -30.9623  -13.0570   18.6982 C   0  0  0  0  0  0  0  0  0  0  0  0
  -20.4397  -12.0019   20.4506 C   0  0  0  0  0  0  0  0  0  0  0  0
  -25.3701  -23.7166   22.9278 C   0  0  0  0  0  0  0  0  0  0  0  0
  -31.7638  -13.8476   19.7202 C   0  0  0  0  0  0  0  0  0  0  0  0
  -30.4337  -20.4899   19.9424 C   0  0  0  0  0  0  0  0  0  0  0  0
  -29.8722  -20.9493   17.6508 C   0  0  0  0  0  0  0  0  0  0  0  0
  -30.1108  -14.1209   18.0127 C   0  0  0  0  0  0  0  0  0  0  0  0
  -27.0677  -22.3764   21.6310 C   0  0  0  0  0  0  0  0  0  0  0  0
  -25.7442  -24.0837   20.4448 C   0  0  0  0  0  0  0  0  0  0  0  0
  -21.9365  -11.8837   20.7625 C   0  0  1  0  0  0  0  0  0  0  0  0
  -22.8546  -14.5696   23.2877 C   0  0  1  0  0  0  0  0  0  0  0  0
  -24.7220  -24.1352   21.5948 C   0  0  2  0  0  0  0  0  0  0  0  0
  -30.7813  -14.9241   20.2022 C   0  0  2  0  0  0  0  0  0  0  0  0
  -27.1547  -14.9279   18.3818 C   0  0  0  0  0  0  0  0  0  0  0  0
  -22.4898  -21.9414   25.6383 C   0  0  0  0  0  0  0  0  0  0  0  0
  -21.1800  -17.9006   20.5563 C   0  0  0  0  0  0  0  0  0  0  0  0
  -21.3945  -20.2321   21.4431 C   0  0  0  0  0  0  0  0  0  0  0  0
  -19.7008  -18.6805   22.4159 C   0  0  0  0  0  0  0  0  0  0  0  0
  -24.6129  -19.1746   27.1592 C   0  0  0  0  0  0  0  0  0  0  0  0
  -26.9498  -19.8896   18.0931 C   0  0  0  0  0  0  0  0  0  0  0  0
  -29.9300  -14.4210   21.3672 C   0  0  0  0  0  0  0  0  0  1  0  0
  -22.1517  -18.3095   22.9131 C   0  0  1  0  0  0  0  0  0  0  0  0
  -22.9073  -20.5045   25.9099 C   0  0  2  0  0  0  0  0  0  0  0  0
  -21.1287  -18.7626   21.8336 C   0  0  0  0  0  0  0  0  0  0  0  0
  -24.7533  -26.5906   21.3666 N   0  0  0  0  0  0  0  0  0  0  0  0
  -24.0521  -25.4929   21.6973 N   0  0  0  0  0  0  0  0  0  0  0  0
  -29.7629  -19.9741   18.7426 N   0  0  0  0  0  0  0  0  0  0  0  0
  -29.9485  -15.1721   19.0189 N   0  0  3  0  0  0  0  0  0  0  0  0
  -23.0454  -16.0097   23.1035 N   0  0  0  0  0  0  0  0  0  0  0  0
  -26.3838  -22.7649   20.3895 N   0  0  0  0  0  0  0  0  0  0  0  0
  -21.9329  -24.7658   22.4662 N   0  0  0  0  0  0  0  0  0  0  0  0
  -21.4701  -29.2516   22.2230 N   0  0  0  0  0  0  0  0  0  0  0  0
  -22.2659  -12.6386   21.9525 N   0  0  0  0  0  0  0  0  0  0  0  0
  -22.1068  -19.0909   24.1443 N   0  0  0  0  0  0  0  0  0  0  0  0
  -26.9460  -20.7787   19.2335 N   0  0  0  0  0  0  0  0  0  0  0  0
  -24.1079  -20.5227   26.7926 N   0  3  0  0  0  0  0  0  0  0  0  0
  -20.4031  -27.2965   22.7688 O   0  0  0  0  0  0  0  0  0  0  0  0
  -22.5437  -14.7230   20.9521 O   0  0  0  0  0  0  0  0  0  0  0  0
  -20.8856  -16.5197   23.8187 O   0  0  0  0  0  0  0  0  0  0  0  0
  -24.3185  -19.7854   24.0855 O   0  0  0  0  0  0  0  0  0  0  0  0
  -25.7117  -22.4097   18.1985 O   0  0  0  0  0  0  0  0  0  0  0  0
  -25.3720  -32.8819   20.6007 O   0  0  0  0  0  0  0  0  0  0  0  0
  -29.0455  -15.4619   21.7801 O   0  0  0  0  0  0  0  0  0  1  0  0
  -23.9910  -36.6641   24.3679 F   0  0  0  0  0  0  0  0  0  0  0  0
  -27.3099  -34.3763   21.8867 F   0  0  0  0  0  0  0  0  0  0  0  0
  1  2  1  0  0  0  0
  1  5  2  0  0  0  0
  2  6  2  0  0  0  0
  3  8  2  0  0  0  0
  3 17  1  0  0  0  0
  4  9  1  0  0  0  0
  4 17  2  0  0  0  0
  5 19  1  0  0  0  0
  6 21  1  0  0  0  0
  7 10  2  0  0  0  0
  7 20  1  0  0  0  0
  8 27  1  0  0  0  0
  9 27  2  0  0  0  0
 10 28  1  0  0  0  0
 11 12  2  0  0  0  0
 11 29  1  0  0  0  0
 12 30  1  0  0  0  0
 13 22  1  0  0  0  0
 13 28  2  0  0  0  0
 14 23  1  0  0  0  0
 14 24  2  0  0  0  0
 15 25  1  0  0  0  0
 15 26  2  0  0  0  0
 16 30  2  0  0  0  0
 16 31  1  0  0  0  0
 17 32  1  0  0  0  0
 18 32  1  0  0  0  0
 18 33  2  0  0  0  0
 18 34  1  0  0  0  0
 19 21  2  0  0  0  0
 19 39  1  0  0  0  0
 20 22  2  0  0  0  0
 20 40  1  0  0  0  0
 21 55  1  0  0  0  0
 22 41  1  0  0  0  0
 23 25  2  0  0  0  0
 23 59  1  0  0  0  0
 24 26  1  0  0  0  0
 24 65  1  0  0  0  0
 25 73  1  0  0  0  0
 26 72  1  0  0  0  0
 27 87  1  0  0  0  0
 28 88  1  0  0  0  0
 29 31  2  0  0  0  0
 29 87  1  0  0  0  0
 30 89  1  0  0  0  0
 31 90  1  0  0  0  0
 32 70  2  0  0  0  0
 33 71  1  0  0  0  0
 33 76  1  0  0  0  0
 34 77  1  0  0  0  0
 34 82  2  0  0  0  0
 35 56  1  0  0  0  0
 35 78  1  0  0  0  0
 35 83  2  0  0  0  0
 36 67  1  0  0  0  0
 36 74  1  0  0  0  0
 36 84  2  0  0  0  0
 37 68  1  0  0  0  0
 37 79  1  0  0  0  0
 37 85  2  0  0  0  0
 38 75  1  0  0  0  0
 38 80  1  0  0  0  0
 38 86  2  0  0  0  0
 39 42  1  0  0  0  0
 40 56  1  0  0  0  0
 41 74  1  0  0  0  0
 42 47  1  0  0  0  0
 43 44  1  0  0  0  0
 43 50  1  0  0  0  0
 44 51  1  0  0  0  0
 45 48  1  0  0  0  0
 45 53  1  0  0  0  0
 46 49  1  0  0  0  0
 46 52  1  0  0  0  0
 47 55  1  0  0  0  0
 48 57  1  0  0  0  0
 49 58  1  0  0  0  0
 50 72  1  0  0  0  0
 51 72  1  0  0  0  0
 52 73  1  0  0  0  0
 53 75  1  0  0  0  0
 54 57  1  0  0  0  0
 54 75  1  0  0  0  0
 55 78  1  0  0  0  0
 56 74  1  0  0  0  0
 57 71  1  0  0  0  0
 58 66  1  0  0  0  0
 58 73  1  0  0  0  0
 60 68  1  0  0  0  0
 61 69  1  0  0  0  0
 62 69  1  0  0  0  0
 63 69  1  0  0  0  0
 64 81  1  0  0  0  0
 65 80  1  0  0  0  0
 66 88  1  0  0  0  0
 67 69  1  0  0  0  0
 67 79  1  0  0  0  0
 68 81  1  0  0  0  0
 70 71  1  0  0  0  0
M  CHG  1  81   1
M  ISO  4  38 100  66 101  80 100  88 101
M  END
> <Batch ID>
0029

> <Smiles>
CNC(C)C(=O)NC(C(=O)N1Cc2cc([101O:1][101CH2:1]C3CCCN3c3cc(N4CCCC4)c(C[100NH:0][100C:0](=O)N4CCCC(n5nc(-c6ccc(Oc7ccc(F)cc7F)cc6)c(C(N)=O)c5N)C4)cc3C)ccc2CC1C(=O)NC1CCCc2ccccc21)C(C)(C)C

> <Shape>
0.203

> <Color>
0.090

> <Negative vol penalty>
0.000

$$$$

  -OEChem-04042321343D

 85 94  0     1  0  0  0  0  0999 V2000
  -24.4532  -11.3628   20.2269 C   0  0  0  0  0  0  0  0  0  0  0  0
  -23.7201  -12.5450   20.2052 C   0  0  0  0  0  0  0  0  0  0  0  0
  -30.0938  -29.0329   19.8244 C   0  0  0  0  0  0  0  0  0  0  0  0
  -29.0664  -28.0586   21.7820 C   0  0  0  0  0  0  0  0  0  0  0  0
  -25.7521  -11.3586   20.7336 C   0  0  0  0  0  0  0  0  0  0  0  0
  -24.2852  -13.7235   20.6914 C   0  0  0  0  0  0  0  0  0  0  0  0
  -23.3726  -19.3941   18.5661 C   0  0  0  0  0  0  0  0  0  0  0  0
  -17.7315  -27.1480   21.5381 C   0  0  0  0  0  0  0  0  0  0  0  0
  -18.6063  -27.8491   22.3680 C   0  0  0  0  0  0  0  0  0  0  0  0
  -31.3394  -28.9756   20.4495 C   0  0  0  0  0  0  0  0  0  0  0  0
  -30.3120  -28.0012   22.4072 C   0  0  0  0  0  0  0  0  0  0  0  0
  -22.5419  -20.4314   18.9876 C   0  0  0  0  0  0  0  0  0  0  0  0
  -33.0549  -26.0292   22.3152 C   0  0  0  0  0  0  0  0  0  0  0  0
  -33.3898  -24.8510   22.9823 C   0  0  0  0  0  0  0  0  0  0  0  0
  -24.3759  -21.3875   20.2292 C   0  0  0  0  0  0  0  0  0  0  0  0
  -33.6095  -26.0834   25.0487 C   0  0  0  0  0  0  0  0  0  0  0  0
  -28.9573  -28.5744   20.4906 C   0  0  0  0  0  0  0  0  0  0  0  0
  -27.2923  -28.0070   18.6431 C   0  0  0  0  0  0  0  0  0  0  0  0
  -26.3368  -12.5396   21.2174 C   0  0  0  0  0  0  0  0  0  0  0  0
  -24.7105  -19.3397   18.9825 C   0  0  0  0  0  0  0  0  0  0  0  0
  -25.5926  -13.7347   21.2064 C   0  0  0  0  0  0  0  0  0  0  0  0
  -25.2222  -20.3499   19.8095 C   0  0  0  0  0  0  0  0  0  0  0  0
  -18.1332  -25.9437   20.9600 C   0  0  0  0  0  0  0  0  0  0  0  0
  -19.8828  -27.3462   22.6196 C   0  0  0  0  0  0  0  0  0  0  0  0
  -19.4097  -25.4408   21.2116 C   0  0  0  0  0  0  0  0  0  0  0  0
  -31.4485  -28.4597   21.7409 C   0  0  0  0  0  0  0  0  0  0  0  0
  -23.0427  -21.4267   19.8216 C   0  0  0  0  0  0  0  0  0  0  0  0
  -32.9973  -27.2346   23.0148 C   0  0  0  0  0  0  0  0  0  0  0  0
  -33.6671  -24.8780   24.3490 C   0  0  0  0  0  0  0  0  0  0  0  0
  -33.2746  -27.2617   24.3815 C   0  0  0  0  0  0  0  0  0  0  0  0
  -20.2845  -26.1420   22.0414 C   0  0  0  0  0  0  0  0  0  0  0  0
  -27.6702  -28.6339   19.8456 C   0  0  0  0  0  0  0  0  0  0  0  0
  -25.9802  -28.3715   18.4635 C   0  0  0  0  0  0  0  0  0  0  0  0
  -28.0586  -27.1701   17.7667 C   0  0  0  0  0  0  0  0  0  0  0  0
  -26.4508  -17.2895   20.6771 C   0  0  0  0  0  0  0  0  0  0  0  0
  -28.8867  -19.2548   19.8250 C   0  0  0  0  0  0  0  0  0  0  0  0
  -29.8904  -22.3606   18.8283 C   0  0  0  0  0  0  0  0  0  0  0  0
  -21.6637  -30.0644   22.2520 C   0  0  0  0  0  0  0  0  0  0  0  0
  -27.7269  -12.4759   21.7991 C   0  0  0  0  0  0  0  0  0  0  0  0
  -25.6008  -18.2286   18.4973 C   0  0  0  0  0  0  0  0  0  0  0  0
  -26.6567  -20.3484   20.2683 C   0  0  0  0  0  0  0  0  0  0  0  0
  -28.3873  -13.8439   21.9498 C   0  0  0  0  0  0  0  0  0  0  0  0
  -22.9029  -31.8963   19.4618 C   0  0  0  0  0  0  0  0  0  0  0  0
  -27.4186  -14.8375   22.5832 C   0  0  0  0  0  0  0  0  0  0  0  0
  -24.2311  -31.2114   19.1353 C   0  0  0  0  0  0  0  0  0  0  0  0
  -20.1062  -22.5043   19.0922 C   0  0  0  0  0  0  0  0  0  0  0  0
  -22.6456  -31.9405   20.9664 C   0  0  0  0  0  0  0  0  0  0  0  0
  -19.8965  -24.0140   19.2086 C   0  0  0  0  0  0  0  0  0  0  0  0
  -24.0544  -29.9496   21.3205 C   0  0  0  0  0  0  0  0  0  0  0  0
  -20.2380  -23.0800   21.4180 C   0  0  0  0  0  0  0  0  0  0  0  0
  -26.1798  -15.0385   21.7020 C   0  0  1  0  0  0  0  0  0  0  0  0
  -26.8087  -17.9939   19.3991 C   0  0  1  0  0  0  0  0  0  0  0  0
  -24.3315  -29.8311   19.8121 C   0  0  2  0  0  0  0  0  0  0  0  0
  -20.8479  -22.1476   20.3722 C   0  0  2  0  0  0  0  0  0  1  0  0
  -17.1755  -25.2140   20.0752 C   0  0  0  0  0  0  0  0  0  0  0  0
  -31.9484  -23.6736   18.2472 C   0  0  0  0  0  0  0  0  0  0  0  0
  -29.5815  -19.4726   22.7881 C   0  0  0  0  0  0  0  0  0  0  0  0
  -30.9775  -21.4779   22.2419 C   0  0  0  0  0  0  0  0  0  0  0  0
  -31.5548  -19.2554   21.2672 C   0  0  0  0  0  0  0  0  0  0  0  0
  -28.9323  -22.8641   16.0738 C   0  0  0  0  0  0  0  0  0  0  0  0
  -20.8151  -28.0990   23.5075 C   0  0  0  0  0  0  0  0  0  0  0  0
  -29.5198  -20.4911   20.4164 C   0  0  1  0  0  0  0  0  0  0  0  0
  -30.8164  -22.8102   17.7127 C   0  0  2  0  0  0  0  0  0  0  0  0
  -30.3808  -20.1735   21.6715 C   0  0  0  0  0  0  0  0  0  0  0  0
  -26.6786  -29.3429   20.3913 N   0  0  0  0  0  0  0  0  0  0  0  0
  -25.6645  -29.1639   19.5278 N   0  0  0  0  0  0  0  0  0  0  0  0
  -19.8206  -24.2516   20.6469 N   0  0  3  0  0  0  0  0  0  0  0  0
  -27.4857  -19.2375   19.7721 N   0  0  0  0  0  0  0  0  0  0  0  0
  -22.7541  -30.5998   21.5468 N   0  0  0  0  0  0  0  0  0  0  0  0
  -25.0774  -28.0883   17.5007 N   0  0  0  0  0  0  0  0  0  0  0  0
  -28.7783  -27.7737   16.7265 N   0  0  0  0  0  0  0  0  0  0  0  0
  -26.4874  -15.9109   20.5891 N   0  0  0  0  0  0  0  0  0  0  0  0
  -30.2572  -21.1306   19.3322 N   0  0  0  0  0  0  0  0  0  0  0  0
  -21.8478  -28.7859   22.7642 N   0  0  0  0  0  0  0  0  0  0  0  0
  -30.0613  -23.5998   16.6992 N   0  3  0  0  0  0  0  0  0  0  0  0
  -28.0907  -25.9224   17.8922 O   0  0  0  0  0  0  0  0  0  0  0  0
  -26.1641  -17.9479   21.6701 O   0  0  0  0  0  0  0  0  0  0  0  0
  -29.6089  -18.3412   19.4183 O   0  0  0  0  0  0  0  0  0  0  0  0
  -28.9391  -23.0350   19.2168 O   0  0  0  0  0  0  0  0  0  0  0  0
  -20.6026  -30.6781   22.4087 O   0  0  0  0  0  0  0  0  0  0  0  0
  -32.6638  -28.4034   22.3512 O   0  0  0  0  0  0  0  0  0  0  0  0
  -22.2338  -22.4400   20.2350 O   0  0  0  0  0  0  0  0  0  1  0  0
  -33.9872  -23.7462   24.9899 F   0  0  0  0  0  0  0  0  0  0  0  0
  -33.2197  -28.4165   25.0592 F   0  0  0  0  0  0  0  0  0  0  0  0
  -21.5127  -25.6603   22.2850 F   0  0  0  0  0  0  0  0  0  0  0  0
  1  2  1  0  0  0  0
  1  5  2  0  0  0  0
  2  6  2  0  0  0  0
  3 10  2  0  0  0  0
  3 17  1  0  0  0  0
  4 11  1  0  0  0  0
  4 17  2  0  0  0  0
  5 19  1  0  0  0  0
  6 21  1  0  0  0  0
  7 12  2  0  0  0  0
  7 20  1  0  0  0  0
  8  9  1  0  0  0  0
  8 23  2  0  0  0  0
  9 24  2  0  0  0  0
 10 26  1  0  0  0  0
 11 26  2  0  0  0  0
 12 27  1  0  0  0  0
 13 14  2  0  0  0  0
 13 28  1  0  0  0  0
 14 29  1  0  0  0  0
 15 22  1  0  0  0  0
 15 27  2  0  0  0  0
 16 29  2  0  0  0  0
 16 30  1  0  0  0  0
 17 32  1  0  0  0  0
 18 32  1  0  0  0  0
 18 33  2  0  0  0  0
 18 34  1  0  0  0  0
 19 21  2  0  0  0  0
 19 39  1  0  0  0  0
 20 22  2  0  0  0  0
 20 40  1  0  0  0  0
 21 51  1  0  0  0  0
 22 41  1  0  0  0  0
 23 25  1  0  0  0  0
 23 55  1  0  0  0  0
 24 31  1  0  0  0  0
 24 61  1  0  0  0  0
 25 31  2  0  0  0  0
 25 67  1  0  0  0  0
 26 81  1  0  0  0  0
 27 82  1  0  0  0  0
 28 30  2  0  0  0  0
 28 81  1  0  0  0  0
 29 83  1  0  0  0  0
 30 84  1  0  0  0  0
 31 85  1  0  0  0  0
 32 65  2  0  0  0  0
 33 66  1  0  0  0  0
 33 70  1  0  0  0  0
 34 71  1  0  0  0  0
 34 76  2  0  0  0  0
 35 52  1  0  0  0  0
 35 72  1  0  0  0  0
 35 77  2  0  0  0  0
 36 62  1  0  0  0  0
 36 68  1  0  0  0  0
 36 78  2  0  0  0  0
 37 63  1  0  0  0  0
 37 73  1  0  0  0  0
 37 79  2  0  0  0  0
 38 69  1  0  0  0  0
 38 74  1  0  0  0  0
 38 80  2  0  0  0  0
 39 42  1  0  0  0  0
 40 52  1  0  0  0  0
 41 68  1  0  0  0  0
 42 44  1  0  0  0  0
 43 45  1  0  0  0  0
 43 47  1  0  0  0  0
 44 51  1  0  0  0  0
 45 53  1  0  0  0  0
 46 48  1  0  0  0  0
 46 54  1  0  0  0  0
 47 69  1  0  0  0  0
 48 67  1  0  0  0  0
 49 53  1  0  0  0  0
 49 69  1  0  0  0  0
 50 54  1  0  0  0  0
 50 67  1  0  0  0  0
 51 72  1  0  0  0  0
 52 68  1  0  0  0  0
 53 66  1  0  0  0  0
 54 82  1  0  0  0  0
 56 63  1  0  0  0  0
 57 64  1  0  0  0  0
 58 64  1  0  0  0  0
 59 64  1  0  0  0  0
 60 75  1  0  0  0  0
 61 74  1  0  0  0  0
 62 64  1  0  0  0  0
 62 73  1  0  0  0  0
 63 75  1  0  0  0  0
 65 66  1  0  0  0  0
M  CHG  1  75   1
M  ISO  4  38 100  54 101  74 100  82 101
M  END
> <Batch ID>
0029

> <Smiles>
CNC(C)C(=O)NC(C(=O)N1Cc2cc([101O:1][101CH:1]3CCN(c4c(C)ccc(C[100NH:0][100C:0](=O)N5CCCC(n6nc(-c7ccc(Oc8ccc(F)cc8F)cc7)c(C(N)=O)c6N)C5)c4F)C3)ccc2CC1C(=O)NC1CCCc2ccccc21)C(C)(C)C

> <Shape>
0.228

> <Color>
0.066

> <Negative vol penalty>
0.000

$$$$

  -OEChem-04042321343D

 83 92  0     1  0  0  0  0  0999 V2000
  -31.8132  -26.9083   17.0481 C   0  0  0  0  0  0  0  0  0  0  0  0
  -30.7998  -26.0077   17.3599 C   0  0  0  0  0  0  0  0  0  0  0  0
  -22.9256  -10.1179   19.9150 C   0  0  0  0  0  0  0  0  0  0  0  0
  -24.2035   -9.6528   21.9120 C   0  0  0  0  0  0  0  0  0  0  0  0
  -26.5078  -16.8723   15.8511 C   0  0  0  0  0  0  0  0  0  0  0  0
  -31.9691  -28.0695   17.8039 C   0  0  0  0  0  0  0  0  0  0  0  0
  -29.9423  -26.2672   18.4285 C   0  0  0  0  0  0  0  0  0  0  0  0
  -25.0889  -25.3853   17.2831 C   0  0  0  0  0  0  0  0  0  0  0  0
  -25.4863  -17.8185   15.9344 C   0  0  0  0  0  0  0  0  0  0  0  0
  -22.2521   -8.9055   20.0636 C   0  0  0  0  0  0  0  0  0  0  0  0
  -23.5300   -8.4404   22.0606 C   0  0  0  0  0  0  0  0  0  0  0  0
  -24.6675  -24.0564   17.2770 C   0  0  0  0  0  0  0  0  0  0  0  0
  -20.5277   -7.3837   23.1964 C   0  0  0  0  0  0  0  0  0  0  0  0
  -20.0670   -7.0520   24.4705 C   0  0  0  0  0  0  0  0  0  0  0  0
  -23.7108  -24.3561   19.4711 C   0  0  0  0  0  0  0  0  0  0  0  0
  -21.4311   -5.0581   24.4446 C   0  0  0  0  0  0  0  0  0  0  0  0
  -23.9014  -10.4916   20.8392 C   0  0  0  0  0  0  0  0  0  0  0  0
  -27.4608  -16.7838   16.8658 C   0  0  0  0  0  0  0  0  0  0  0  0
  -24.2257  -12.9937   21.2155 C   0  0  0  0  0  0  0  0  0  0  0  0
  -31.1070  -28.3482   18.8763 C   0  0  0  0  0  0  0  0  0  0  0  0
  -24.8336  -26.2080   18.3897 C   0  0  0  0  0  0  0  0  0  0  0  0
  -30.0876  -27.4326   19.2002 C   0  0  0  0  0  0  0  0  0  0  0  0
  -24.1278  -25.6958   19.4877 C   0  0  0  0  0  0  0  0  0  0  0  0
  -27.3924  -17.6414   17.9637 C   0  0  0  0  0  0  0  0  0  0  0  0
  -26.3710  -18.5876   18.0469 C   0  0  0  0  0  0  0  0  0  0  0  0
  -25.4179  -18.6761   17.0323 C   0  0  0  0  0  0  0  0  0  0  0  0
  -22.5543   -8.0668   21.1364 C   0  0  0  0  0  0  0  0  0  0  0  0
  -23.9808  -23.5407   18.3723 C   0  0  0  0  0  0  0  0  0  0  0  0
  -21.4401   -6.5526   22.5463 C   0  0  0  0  0  0  0  0  0  0  0  0
  -20.5187   -5.8892   25.0946 C   0  0  0  0  0  0  0  0  0  0  0  0
  -21.8918   -5.3898   23.1704 C   0  0  0  0  0  0  0  0  0  0  0  0
  -24.5978  -11.7436   20.6859 C   0  0  0  0  0  0  0  0  0  0  0  0
  -25.2078  -13.8537   20.7883 C   0  0  0  0  0  0  0  0  0  0  0  0
  -28.5242  -15.7775   16.7496 C   0  0  0  0  0  0  0  0  0  0  0  0
  -23.0935  -13.3462   22.0215 C   0  0  0  0  0  0  0  0  0  0  0  0
  -26.6396  -27.7763   20.4831 C   0  0  0  0  0  0  0  0  0  0  0  0
  -23.7824  -28.9367   21.4891 C   0  0  0  0  0  0  0  0  0  0  0  0
  -20.4008  -28.5274   21.6989 C   0  0  0  0  0  0  0  0  0  0  0  0
  -31.3442  -29.5931   19.6938 C   0  0  0  0  0  0  0  0  0  0  0  0
  -25.2714  -27.6468   18.3695 C   0  0  0  0  0  0  0  0  0  0  0  0
  -23.8108  -26.5432   20.6918 C   0  0  0  0  0  0  0  0  0  0  0  0
  -30.1592  -29.9775   20.5761 C   0  0  0  0  0  0  0  0  0  0  0  0
  -29.6727  -12.9451   18.5937 C   0  0  0  0  0  0  0  0  0  0  0  0
  -29.6274  -28.7553   21.3178 C   0  0  0  0  0  0  0  0  0  0  0  0
  -28.4209  -12.4682   19.3324 C   0  0  0  0  0  0  0  0  0  0  0  0
  -22.2462  -20.5415   17.2786 C   0  0  0  0  0  0  0  0  0  0  0  0
  -29.3364  -13.4882   17.2072 C   0  0  0  0  0  0  0  0  0  0  0  0
  -23.1033  -19.3539   17.7165 C   0  0  0  0  0  0  0  0  0  0  0  0
  -27.0487  -14.0710   17.9364 C   0  0  0  0  0  0  0  0  0  0  0  0
  -24.4953  -20.9617   16.5554 C   0  0  0  0  0  0  0  0  0  0  0  0
  -29.1219  -27.6910   20.3363 C   0  0  1  0  0  0  0  0  0  0  0  0
  -25.4079  -28.2495   19.7643 C   0  0  1  0  0  0  0  0  0  0  0  0
  -27.3376  -13.5629   19.3585 C   0  0  1  0  0  0  0  0  0  0  0  0
  -23.2565  -21.6664   17.1067 C   0  0  2  0  0  0  0  0  0  1  0  0
  -28.4143  -17.5466   19.0530 C   0  0  0  0  0  0  0  0  0  0  0  0
  -26.2981  -19.5073   19.2256 C   0  0  0  0  0  0  0  0  0  0  0  0
  -18.3368  -29.6238   22.6128 C   0  0  0  0  0  0  0  0  0  0  0  0
  -24.5359  -28.0094   24.2967 C   0  0  0  0  0  0  0  0  0  0  0  0
  -22.1300  -28.2501   24.9464 C   0  0  0  0  0  0  0  0  0  0  0  0
  -23.4246  -30.2477   24.2005 C   0  0  0  0  0  0  0  0  0  0  0  0
  -19.2107  -28.7990   19.0028 C   0  0  0  0  0  0  0  0  0  0  0  0
  -22.7485  -28.5031   22.5001 C   0  0  1  0  0  0  0  0  0  0  0  0
  -19.2514  -29.4751   21.4069 C   0  0  2  0  0  0  0  0  0  0  0  0
  -23.2173  -28.7358   23.9642 C   0  0  0  0  0  0  0  0  0  0  0  0
  -25.7281  -11.7999   19.9764 N   0  0  0  0  0  0  0  0  0  0  0  0
  -26.0746  -13.0959   20.0571 N   0  0  0  0  0  0  0  0  0  0  0  0
  -24.4007  -19.6051   17.0961 N   0  0  3  0  0  0  0  0  0  0  0  0
  -28.2938  -14.5103   17.2907 N   0  0  0  0  0  0  0  0  0  0  0  0
  -24.2654  -27.9420   20.6271 N   0  0  0  0  0  0  0  0  0  0  0  0
  -25.4058  -15.1765   20.9705 N   0  0  0  0  0  0  0  0  0  0  0  0
  -22.1820  -12.3400   22.3695 N   0  0  0  0  0  0  0  0  0  0  0  0
  -27.8198  -28.0563   19.8211 N   0  0  0  0  0  0  0  0  0  0  0  0
  -21.5165  -29.2011   22.1491 N   0  0  0  0  0  0  0  0  0  0  0  0
  -18.4417  -28.9702   20.2623 N   0  3  0  0  0  0  0  0  0  0  0  0
  -29.5559  -16.1396   16.1862 O   0  0  0  0  0  0  0  0  0  0  0  0
  -22.8873  -14.5217   22.4075 O   0  0  0  0  0  0  0  0  0  0  0  0
  -26.5276  -27.2010   21.5593 O   0  0  0  0  0  0  0  0  0  0  0  0
  -24.1428  -30.1161   21.4605 O   0  0  0  0  0  0  0  0  0  0  0  0
  -20.3161  -27.3108   21.5466 O   0  0  0  0  0  0  0  0  0  0  0  0
  -21.8971   -6.8838   21.2818 O   0  0  0  0  0  0  0  0  0  0  0  0
  -23.5689  -22.2437   18.3693 O   0  0  0  0  0  0  0  0  0  1  0  0
  -20.0774   -5.5715   26.3187 F   0  0  0  0  0  0  0  0  0  0  0  0
  -22.7692   -4.5881   22.5514 F   0  0  0  0  0  0  0  0  0  0  0  0
  1  2  1  0  0  0  0
  1  6  2  0  0  0  0
  2  7  2  0  0  0  0
  3 10  2  0  0  0  0
  3 17  1  0  0  0  0
  4 11  1  0  0  0  0
  4 17  2  0  0  0  0
  5  9  2  0  0  0  0
  5 18  1  0  0  0  0
  6 20  1  0  0  0  0
  7 22  1  0  0  0  0
  8 12  2  0  0  0  0
  8 21  1  0  0  0  0
  9 26  1  0  0  0  0
 10 27  1  0  0  0  0
 11 27  2  0  0  0  0
 12 28  1  0  0  0  0
 13 14  2  0  0  0  0
 13 29  1  0  0  0  0
 14 30  1  0  0  0  0
 15 23  1  0  0  0  0
 15 28  2  0  0  0  0
 16 30  2  0  0  0  0
 16 31  1  0  0  0  0
 17 32  1  0  0  0  0
 18 24  2  0  0  0  0
 18 34  1  0  0  0  0
 19 32  1  0  0  0  0
 19 33  2  0  0  0  0
 19 35  1  0  0  0  0
 20 22  2  0  0  0  0
 20 39  1  0  0  0  0
 21 23  2  0  0  0  0
 21 40  1  0  0  0  0
 22 51  1  0  0  0  0
 23 41  1  0  0  0  0
 24 25  1  0  0  0  0
 24 55  1  0  0  0  0
 25 26  2  0  0  0  0
 25 56  1  0  0  0  0
 26 67  1  0  0  0  0
 27 80  1  0  0  0  0
 28 81  1  0  0  0  0
 29 31  2  0  0  0  0
 29 80  1  0  0  0  0
 30 82  1  0  0  0  0
 31 83  1  0  0  0  0
 32 65  2  0  0  0  0
 33 66  1  0  0  0  0
 33 70  1  0  0  0  0
 34 68  1  0  0  0  0
 34 75  2  0  0  0  0
 35 71  1  0  0  0  0
 35 76  2  0  0  0  0
 36 52  1  0  0  0  0
 36 72  1  0  0  0  0
 36 77  2  0  0  0  0
 37 62  1  0  0  0  0
 37 69  1  0  0  0  0
 37 78  2  0  0  0  0
 38 63  1  0  0  0  0
 38 73  1  0  0  0  0
 38 79  2  0  0  0  0
 39 42  1  0  0  0  0
 40 52  1  0  0  0  0
 41 69  1  0  0  0  0
 42 44  1  0  0  0  0
 43 45  1  0  0  0  0
 43 47  1  0  0  0  0
 44 51  1  0  0  0  0
 45 53  1  0  0  0  0
 46 48  1  0  0  0  0
 46 54  1  0  0  0  0
 47 68  1  0  0  0  0
 48 67  1  0  0  0  0
 49 53  1  0  0  0  0
 49 68  1  0  0  0  0
 50 54  1  0  0  0  0
 50 67  1  0  0  0  0
 51 72  1  0  0  0  0
 52 69  1  0  0  0  0
 53 66  1  0  0  0  0
 54 81  1  0  0  0  0
 57 63  1  0  0  0  0
 58 64  1  0  0  0  0
 59 64  1  0  0  0  0
 60 64  1  0  0  0  0
 61 74  1  0  0  0  0
 62 64  1  0  0  0  0
 62 73  1  0  0  0  0
 63 74  1  0  0  0  0
 65 66  1  0  0  0  0
M  CHG  1  74   1
M  ISO  4  18 100  34 100  54 101  81 101
M  END
> <Batch ID>
0029

> <Smiles>
CNC(C)C(=O)NC(C(=O)N1Cc2cc([101O:1][101CH:1]3CCN(c4cc[100c:0]([100C:0](=O)N5CCCC(n6nc(-c7ccc(Oc8ccc(F)cc8F)cc7)c(C(N)=O)c6N)C5)c(C)c4C)C3)ccc2CC1C(=O)NC1CCCc2ccccc21)C(C)(C)C

> <Shape>
0.268

> <Color>
0.147

> <Negative vol penalty>
0.000

$$$$

  -OEChem-04042321343D

 84 93  0     1  0  0  0  0  0999 V2000
  -28.4306  -34.6831   23.7875 C   0  0  0  0  0  0  0  0  0  0  0  0
  -28.5290  -33.3293   23.4825 C   0  0  0  0  0  0  0  0  0  0  0  0
  -23.2357  -10.0487   22.4802 C   0  0  0  0  0  0  0  0  0  0  0  0
  -23.4578   -9.9414   20.0768 C   0  0  0  0  0  0  0  0  0  0  0  0
  -27.2193  -35.2095   24.2345 C   0  0  0  0  0  0  0  0  0  0  0  0
  -27.4165  -32.5009   23.6253 C   0  0  0  0  0  0  0  0  0  0  0  0
  -26.7927  -29.3885   19.6795 C   0  0  0  0  0  0  0  0  0  0  0  0
  -22.5523   -8.8328   22.4714 C   0  0  0  0  0  0  0  0  0  0  0  0
  -22.7743   -8.7254   20.0680 C   0  0  0  0  0  0  0  0  0  0  0  0
  -27.6138  -28.2634   19.6200 C   0  0  0  0  0  0  0  0  0  0  0  0
  -23.3166   -5.5473   22.2383 C   0  0  0  0  0  0  0  0  0  0  0  0
  -23.6772   -4.5940   23.1906 C   0  0  0  0  0  0  0  0  0  0  0  0
  -25.8171  -26.9132   20.4963 C   0  0  0  0  0  0  0  0  0  0  0  0
  -27.5041  -20.9236   19.5491 C   0  0  0  0  0  0  0  0  0  0  0  0
  -29.6400  -19.5271   20.6761 C   0  0  0  0  0  0  0  0  0  0  0  0
  -21.4278   -4.6235   24.0719 C   0  0  0  0  0  0  0  0  0  0  0  0
  -23.6884  -10.6030   21.2829 C   0  0  0  0  0  0  0  0  0  0  0  0
  -25.7832  -12.0532   21.4108 C   0  0  0  0  0  0  0  0  0  0  0  0
  -26.0888  -34.3890   24.3736 C   0  0  0  0  0  0  0  0  0  0  0  0
  -25.4788  -29.2863   20.1589 C   0  0  0  0  0  0  0  0  0  0  0  0
  -26.1893  -33.0165   24.0758 C   0  0  0  0  0  0  0  0  0  0  0  0
  -24.9805  -28.0380   20.5584 C   0  0  0  0  0  0  0  0  0  0  0  0
  -27.7836  -19.6220   19.1328 C   0  0  0  0  0  0  0  0  0  0  0  0
  -28.8515  -18.9237   19.6964 C   0  0  0  0  0  0  0  0  0  0  0  0
  -28.2926  -21.5270   20.5288 C   0  0  0  0  0  0  0  0  0  0  0  0
  -22.3216   -8.1712   21.2653 C   0  0  0  0  0  0  0  0  0  0  0  0
  -27.1270  -27.0260   20.0311 C   0  0  0  0  0  0  0  0  0  0  0  0
  -22.0116   -6.0387   22.2029 C   0  0  0  0  0  0  0  0  0  0  0  0
  -22.7328   -4.1321   24.1074 C   0  0  0  0  0  0  0  0  0  0  0  0
  -21.0672   -5.5768   23.1196 C   0  0  0  0  0  0  0  0  0  0  0  0
  -29.3605  -20.8287   21.0924 C   0  0  0  0  0  0  0  0  0  0  0  0
  -24.3940  -11.8593   21.2913 C   0  0  0  0  0  0  0  0  0  0  0  0
  -25.9448  -13.4164   21.3640 C   0  0  0  0  0  0  0  0  0  0  0  0
  -26.8336  -11.0876   21.5514 C   0  0  0  0  0  0  0  0  0  0  0  0
  -23.8818  -30.5313   22.6090 C   0  0  0  0  0  0  0  0  0  0  0  0
  -21.3531  -29.0660   21.2016 C   0  0  0  0  0  0  0  0  0  0  0  0
  -20.2155  -26.5958   19.1398 C   0  0  0  0  0  0  0  0  0  0  0  0
  -24.7555  -18.3839   19.1158 C   0  0  0  0  0  0  0  0  0  0  0  0
  -24.8137  -34.9940   24.9053 C   0  0  0  0  0  0  0  0  0  0  0  0
  -24.5972  -30.5045   20.1917 C   0  0  0  0  0  0  0  0  0  0  0  0
  -23.5708  -27.8712   21.0619 C   0  0  0  0  0  0  0  0  0  0  0  0
  -23.5824  -34.1225   24.6718 C   0  0  0  0  0  0  0  0  0  0  0  0
  -22.5368  -17.1462   21.6102 C   0  0  0  0  0  0  0  0  0  0  0  0
  -23.8723  -32.6750   25.0558 C   0  0  0  0  0  0  0  0  0  0  0  0
  -22.9326  -15.6757   21.7547 C   0  0  0  0  0  0  0  0  0  0  0  0
  -22.6443  -17.6199   20.1625 C   0  0  0  0  0  0  0  0  0  0  0  0
  -24.3497  -15.9097   19.6724 C   0  0  0  0  0  0  0  0  0  0  0  0
  -26.9357  -23.6437   20.4329 C   0  0  0  0  0  0  0  0  0  0  0  0
  -28.9066  -23.8926   21.1267 C   0  0  0  0  0  0  0  0  0  0  0  0
  -24.9982  -32.0906   24.1942 C   0  0  1  0  0  0  0  0  0  0  0  0
  -23.4420  -30.3795   21.1803 C   0  0  1  0  0  0  0  0  0  0  0  0
  -24.3110  -15.4014   21.1238 C   0  0  2  0  0  0  0  0  0  0  0  0
  -27.7296  -24.8593   20.9317 C   0  0  0  0  0  0  0  0  0  1  0  0
  -29.1706  -17.5294   19.2667 C   0  0  0  0  0  0  0  0  0  0  0  0
  -18.0955  -25.6243   18.2128 C   0  0  0  0  0  0  0  0  0  0  0  0
  -20.7989  -27.7217   23.8840 C   0  0  0  0  0  0  0  0  0  0  0  0
  -19.3223  -26.0942   22.6844 C   0  0  0  0  0  0  0  0  0  0  0  0
  -18.7601  -28.5245   22.6786 C   0  0  0  0  0  0  0  0  0  0  0  0
  -21.0226  -27.1926   16.3557 C   0  0  0  0  0  0  0  0  0  0  0  0
  -26.9268  -18.9965   18.0817 C   0  0  0  0  0  0  0  0  0  0  0  0
  -20.7156  -27.7014   21.3036 C   0  0  1  0  0  0  0  0  0  0  0  0
  -19.2235  -26.6199   17.9909 C   0  0  2  0  0  0  0  0  0  0  0  0
  -19.9264  -27.5136   22.6300 C   0  0  0  0  0  0  0  0  0  0  0  0
  -23.7210  -13.0073   21.1774 N   0  0  0  0  0  0  0  0  0  0  0  0
  -24.6914  -13.9358   21.2251 N   0  0  0  0  0  0  0  0  0  0  0  0
  -27.9896  -22.8254   20.9236 N   0  0  0  0  0  0  0  0  0  0  0  0
  -22.7497  -29.0931   21.0810 N   0  0  0  0  0  0  0  0  0  0  0  0
  -23.9758  -17.3318   19.6240 N   0  0  0  0  0  0  0  0  0  0  0  0
  -27.0354  -14.2094   21.4286 N   0  0  0  0  0  0  0  0  0  0  0  0
  -26.4923   -9.7286   21.5813 N   0  0  0  0  0  0  0  0  0  0  0  0
  -24.4993  -31.7368   22.8826 N   0  0  0  0  0  0  0  0  0  0  0  0
  -19.9083  -27.5369   20.0996 N   0  0  0  0  0  0  0  0  0  0  0  0
  -26.0072  -18.0251   18.6307 N   0  0  0  0  0  0  0  0  0  0  0  0
  -19.9057  -26.2796   16.7104 N   0  3  0  0  0  0  0  0  0  0  0  0
  -28.0377  -11.4207   21.6642 O   0  0  0  0  0  0  0  0  0  0  0  0
  -23.6748  -29.6225   23.4047 O   0  0  0  0  0  0  0  0  0  0  0  0
  -20.6376  -30.0707   21.2207 O   0  0  0  0  0  0  0  0  0  0  0  0
  -21.1655  -25.8173   19.1834 O   0  0  0  0  0  0  0  0  0  0  0  0
  -24.3672  -19.5569   19.1007 O   0  0  0  0  0  0  0  0  0  0  0  0
  -21.6549   -6.9845   21.2564 O   0  0  0  0  0  0  0  0  0  0  0  0
  -27.9266  -25.9263   19.9747 O   0  0  0  0  0  0  0  0  0  1  0  0
  -23.0789   -3.2155   25.0208 F   0  0  0  0  0  0  0  0  0  0  0  0
  -19.8117   -6.0443   23.0897 F   0  0  0  0  0  0  0  0  0  0  0  0
  -30.3612  -21.5387   22.3086 Cl  0  0  0  0  0  0  0  0  0  0  0  0
  1  2  1  0  0  0  0
  1  5  2  0  0  0  0
  2  6  2  0  0  0  0
  3  8  2  0  0  0  0
  3 17  1  0  0  0  0
  4  9  1  0  0  0  0
  4 17  2  0  0  0  0
  5 19  1  0  0  0  0
  6 21  1  0  0  0  0
  7 10  2  0  0  0  0
  7 20  1  0  0  0  0
  8 26  1  0  0  0  0
  9 26  2  0  0  0  0
 10 27  1  0  0  0  0
 11 12  2  0  0  0  0
 11 28  1  0  0  0  0
 12 29  1  0  0  0  0
 13 22  1  0  0  0  0
 13 27  2  0  0  0  0
 14 23  2  0  0  0  0
 14 25  1  0  0  0  0
 15 24  2  0  0  0  0
 15 31  1  0  0  0  0
 16 29  2  0  0  0  0
 16 30  1  0  0  0  0
 17 32  1  0  0  0  0
 18 32  1  0  0  0  0
 18 33  2  0  0  0  0
 18 34  1  0  0  0  0
 19 21  2  0  0  0  0
 19 39  1  0  0  0  0
 20 22  2  0  0  0  0
 20 40  1  0  0  0  0
 21 50  1  0  0  0  0
 22 41  1  0  0  0  0
 23 24  1  0  0  0  0
 23 60  1  0  0  0  0
 24 54  1  0  0  0  0
 25 31  2  0  0  0  0
 25 66  1  0  0  0  0
 26 80  1  0  0  0  0
 27 81  1  0  0  0  0
 28 30  2  0  0  0  0
 28 80  1  0  0  0  0
 29 82  1  0  0  0  0
 30 83  1  0  0  0  0
 31 84  1  0  0  0  0
 32 64  2  0  0  0  0
 33 65  1  0  0  0  0
 33 69  1  0  0  0  0
 34 70  1  0  0  0  0
 34 75  2  0  0  0  0
 35 51  1  0  0  0  0
 35 71  1  0  0  0  0
 35 76  2  0  0  0  0
 36 61  1  0  0  0  0
 36 67  1  0  0  0  0
 36 77  2  0  0  0  0
 37 62  1  0  0  0  0
 37 72  1  0  0  0  0
 37 78  2  0  0  0  0
 38 68  1  0  0  0  0
 38 73  1  0  0  0  0
 38 79  2  0  0  0  0
 39 42  1  0  0  0  0
 40 51  1  0  0  0  0
 41 67  1  0  0  0  0
 42 44  1  0  0  0  0
 43 45  1  0  0  0  0
 43 46  1  0  0  0  0
 44 50  1  0  0  0  0
 45 52  1  0  0  0  0
 46 68  1  0  0  0  0
 47 52  1  0  0  0  0
 47 68  1  0  0  0  0
 48 53  1  0  0  0  0
 48 66  1  0  0  0  0
 49 53  1  0  0  0  0
 49 66  1  0  0  0  0
 50 71  1  0  0  0  0
 51 67  1  0  0  0  0
 52 65  1  0  0  0  0
 53 81  1  0  0  0  0
 55 62  1  0  0  0  0
 56 63  1  0  0  0  0
 57 63  1  0  0  0  0
 58 63  1  0  0  0  0
 59 74  1  0  0  0  0
 60 73  1  0  0  0  0
 61 63  1  0  0  0  0
 61 72  1  0  0  0  0
 62 74  1  0  0  0  0
 64 65  1  0  0  0  0
M  CHG  1  74   1
M  ISO  4  38 100  53 101  73 100  81 101
M  END
> <Batch ID>
0029

> <Smiles>
CNC(C)C(=O)NC(C(=O)N1Cc2cc([101O:1][101CH:1]3CN(c4cc(C[100NH:0][100C:0](=O)N5CCCC(n6nc(-c7ccc(Oc8ccc(F)cc8F)cc7)c(C(N)=O)c6N)C5)c(C)cc4Cl)C3)ccc2CC1C(=O)NC1CCCc2ccccc21)C(C)(C)C

> <Shape>
0.325

> <Color>
0.102

> <Negative vol penalty>
0.000

$$$$

  -OEChem-04042321343D

 84 93  0     1  0  0  0  0  0999 V2000
  -25.1180  -34.9356   25.7887 C   0  0  0  0  0  0  0  0  0  0  0  0
  -25.7427  -33.6988   25.9134 C   0  0  0  0  0  0  0  0  0  0  0  0
  -23.9301   -9.0465   19.6110 C   0  0  0  0  0  0  0  0  0  0  0  0
  -24.3705   -9.3752   21.9637 C   0  0  0  0  0  0  0  0  0  0  0  0
  -23.8951  -35.0340   25.1264 C   0  0  0  0  0  0  0  0  0  0  0  0
  -25.1441  -32.5594   25.3769 C   0  0  0  0  0  0  0  0  0  0  0  0
  -27.9497  -27.3814   20.2444 C   0  0  0  0  0  0  0  0  0  0  0  0
  -22.8104   -8.2775   19.9280 C   0  0  0  0  0  0  0  0  0  0  0  0
  -23.2507   -8.6062   22.2807 C   0  0  0  0  0  0  0  0  0  0  0  0
  -28.2767  -26.4882   19.2238 C   0  0  0  0  0  0  0  0  0  0  0  0
  -22.4419   -5.3269   22.4311 C   0  0  0  0  0  0  0  0  0  0  0  0
  -22.5772   -4.3684   23.4354 C   0  0  0  0  0  0  0  0  0  0  0  0
  -25.9303  -26.1837   18.7241 C   0  0  0  0  0  0  0  0  0  0  0  0
  -26.0163  -18.9325   17.8546 C   0  0  0  0  0  0  0  0  0  0  0  0
  -24.9628  -19.3910   15.7293 C   0  0  0  0  0  0  0  0  0  0  0  0
  -24.9348  -17.1506   16.6330 C   0  0  0  0  0  0  0  0  0  0  0  0
  -20.8518   -5.4697   24.7189 C   0  0  0  0  0  0  0  0  0  0  0  0
  -24.7102   -9.5953   20.6289 C   0  0  0  0  0  0  0  0  0  0  0  0
  -26.9995   -9.9812   19.5716 C   0  0  0  0  0  0  0  0  0  0  0  0
  -23.2859  -33.8968   24.5731 C   0  0  0  0  0  0  0  0  0  0  0  0
  -26.6108  -27.6912   20.4988 C   0  0  0  0  0  0  0  0  0  0  0  0
  -23.9112  -32.6425   24.7078 C   0  0  0  0  0  0  0  0  0  0  0  0
  -25.5973  -27.0871   19.7368 C   0  0  0  0  0  0  0  0  0  0  0  0
  -25.6745  -19.8321   16.8449 C   0  0  0  0  0  0  0  0  0  0  0  0
  -25.6465  -17.5917   17.7486 C   0  0  0  0  0  0  0  0  0  0  0  0
  -22.4707   -8.0574   21.2629 C   0  0  0  0  0  0  0  0  0  0  0  0
  -27.2694  -25.8907   18.4657 C   0  0  0  0  0  0  0  0  0  0  0  0
  -21.5116   -6.3569   22.5708 C   0  0  0  0  0  0  0  0  0  0  0  0
  -21.7821   -4.4397   24.5793 C   0  0  0  0  0  0  0  0  0  0  0  0
  -20.7166   -6.4282   23.7147 C   0  0  0  0  0  0  0  0  0  0  0  0
  -24.5930  -18.0502   15.6234 C   0  0  0  0  0  0  0  0  0  0  0  0
  -25.8673  -10.3892   20.3020 C   0  0  0  0  0  0  0  0  0  0  0  0
  -27.8052  -11.0931   19.5376 C   0  0  0  0  0  0  0  0  0  0  0  0
  -27.2963   -8.7108   18.9768 C   0  0  0  0  0  0  0  0  0  0  0  0
  -24.1580  -29.6514   22.5524 C   0  0  0  0  0  0  0  0  0  0  0  0
  -23.1468  -29.7140   19.6569 C   0  0  0  0  0  0  0  0  0  0  0  0
  -22.6031  -29.8971   16.2942 C   0  0  0  0  0  0  0  0  0  0  0  0
  -26.6980  -16.9507   19.9464 C   0  0  0  0  0  0  0  0  0  0  0  0
  -21.9407  -34.0451   23.9074 C   0  0  0  0  0  0  0  0  0  0  0  0
  -26.2095  -28.6004   21.6284 C   0  0  0  0  0  0  0  0  0  0  0  0
  -24.1692  -27.4238   20.0689 C   0  0  0  0  0  0  0  0  0  0  0  0
  -21.5548  -32.8493   23.0406 C   0  0  0  0  0  0  0  0  0  0  0  0
  -28.8493  -15.0389   22.0425 C   0  0  0  0  0  0  0  0  0  0  0  0
  -21.8167  -31.5438   23.7848 C   0  0  0  0  0  0  0  0  0  0  0  0
  -28.4360  -13.5922   21.7630 C   0  0  0  0  0  0  0  0  0  0  0  0
  -27.2009  -23.1489   16.0283 C   0  0  0  0  0  0  0  0  0  0  0  0
  -26.4568  -23.1194   18.4142 C   0  0  0  0  0  0  0  0  0  0  0  0
  -27.6495  -15.9844   22.0286 C   0  0  0  0  0  0  0  0  0  0  0  0
  -26.3032  -21.9510   15.7308 C   0  0  0  0  0  0  0  0  0  0  0  0
  -25.5549  -21.9251   18.1184 C   0  0  0  0  0  0  0  0  0  0  0  0
  -26.4032  -14.4660   20.5419 C   0  0  0  0  0  0  0  0  0  0  0  0
  -23.3054  -31.3875   24.1176 C   0  0  1  0  0  0  0  0  0  0  0  0
  -24.9688  -29.4524   21.3057 C   0  0  1  0  0  0  0  0  0  0  0  0
  -27.5865  -13.4863   20.4813 C   0  0  2  0  0  0  0  0  0  0  0  0
  -26.6626  -23.9891   17.1793 C   0  0  0  0  0  0  0  0  0  1  0  0
  -21.0071  -30.8452   14.6056 C   0  0  0  0  0  0  0  0  0  0  0  0
  -21.1344  -27.5244   20.3350 C   0  0  0  0  0  0  0  0  0  0  0  0
  -20.0773  -27.9012   18.0970 C   0  0  0  0  0  0  0  0  0  0  0  0
  -20.1176  -29.7411   19.7811 C   0  0  0  0  0  0  0  0  0  0  0  0
  -24.7211  -31.5444   15.0454 C   0  0  0  0  0  0  0  0  0  0  0  0
  -22.2609  -29.0832   18.6125 C   0  0  1  0  0  0  0  0  0  0  0  0
  -22.2920  -31.0735   15.3864 C   0  0  2  0  0  0  0  0  0  0  0  0
  -20.9252  -28.5559   19.2084 C   0  0  0  0  0  0  0  0  0  0  0  0
  -25.9434  -11.6609   20.7034 N   0  0  0  0  0  0  0  0  0  0  0  0
  -27.1330  -12.0616   20.2234 N   0  0  0  0  0  0  0  0  0  0  0  0
  -26.0457  -21.1785   16.9514 N   0  0  0  0  0  0  0  0  0  0  0  0
  -24.0397  -28.8669   20.3244 N   0  0  0  0  0  0  0  0  0  0  0  0
  -26.8946  -15.8317   20.7829 N   0  0  0  0  0  0  0  0  0  0  0  0
  -29.0160  -11.3269   18.9884 N   0  0  0  0  0  0  0  0  0  0  0  0
  -26.3587   -7.6771   19.1063 N   0  0  0  0  0  0  0  0  0  0  0  0
  -25.9940  -16.6776   18.7740 N   0  0  0  0  0  0  0  0  0  0  0  0
  -24.0444  -30.9715   22.9449 N   0  0  0  0  0  0  0  0  0  0  0  0
  -22.0936  -30.0817   17.5621 N   0  0  0  0  0  0  0  0  0  0  0  0
  -23.4015  -31.2851   14.4142 N   0  3  0  0  0  0  0  0  0  0  0  0
  -28.3686   -8.4938   18.3632 O   0  0  0  0  0  0  0  0  0  0  0  0
  -23.6695  -28.6797   23.1170 O   0  0  0  0  0  0  0  0  0  0  0  0
  -23.0479  -30.9237   19.8809 O   0  0  0  0  0  0  0  0  0  0  0  0
  -23.2318  -28.9114   15.9152 O   0  0  0  0  0  0  0  0  0  0  0  0
  -27.1463  -18.0633   20.2347 O   0  0  0  0  0  0  0  0  0  0  0  0
  -21.3780   -7.3073   21.5726 O   0  0  0  0  0  0  0  0  0  0  0  0
  -27.5959  -25.0231   17.4679 O   0  0  0  0  0  0  0  0  0  1  0  0
  -21.9111   -3.5183   25.5428 F   0  0  0  0  0  0  0  0  0  0  0  0
  -19.8203   -7.4147   23.8540 F   0  0  0  0  0  0  0  0  0  0  0  0
  -23.7154  -17.5057   14.2467 Cl  0  0  0  0  0  0  0  0  0  0  0  0
  1  2  1  0  0  0  0
  1  5  2  0  0  0  0
  2  6  2  0  0  0  0
  3  8  2  0  0  0  0
  3 18  1  0  0  0  0
  4  9  1  0  0  0  0
  4 18  2  0  0  0  0
  5 20  1  0  0  0  0
  6 22  1  0  0  0  0
  7 10  2  0  0  0  0
  7 21  1  0  0  0  0
  8 26  1  0  0  0  0
  9 26  2  0  0  0  0
 10 27  1  0  0  0  0
 11 12  2  0  0  0  0
 11 28  1  0  0  0  0
 12 29  1  0  0  0  0
 13 23  1  0  0  0  0
 13 27  2  0  0  0  0
 14 24  2  0  0  0  0
 14 25  1  0  0  0  0
 15 24  1  0  0  0  0
 15 31  2  0  0  0  0
 16 25  2  0  0  0  0
 16 31  1  0  0  0  0
 17 29  2  0  0  0  0
 17 30  1  0  0  0  0
 18 32  1  0  0  0  0
 19 32  1  0  0  0  0
 19 33  2  0  0  0  0
 19 34  1  0  0  0  0
 20 22  2  0  0  0  0
 20 39  1  0  0  0  0
 21 23  2  0  0  0  0
 21 40  1  0  0  0  0
 22 52  1  0  0  0  0
 23 41  1  0  0  0  0
 24 66  1  0  0  0  0
 25 71  1  0  0  0  0
 26 80  1  0  0  0  0
 27 81  1  0  0  0  0
 28 30  2  0  0  0  0
 28 80  1  0  0  0  0
 29 82  1  0  0  0  0
 30 83  1  0  0  0  0
 31 84  1  0  0  0  0
 32 64  2  0  0  0  0
 33 65  1  0  0  0  0
 33 69  1  0  0  0  0
 34 70  1  0  0  0  0
 34 75  2  0  0  0  0
 35 53  1  0  0  0  0
 35 72  1  0  0  0  0
 35 76  2  0  0  0  0
 36 61  1  0  0  0  0
 36 67  1  0  0  0  0
 36 77  2  0  0  0  0
 37 62  1  0  0  0  0
 37 73  1  0  0  0  0
 37 78  2  0  0  0  0
 38 68  1  0  0  0  0
 38 71  1  0  0  0  0
 38 79  2  0  0  0  0
 39 42  1  0  0  0  0
 40 53  1  0  0  0  0
 41 67  1  0  0  0  0
 42 44  1  0  0  0  0
 43 45  1  0  0  0  0
 43 48  1  0  0  0  0
 44 52  1  0  0  0  0
 45 54  1  0  0  0  0
 46 49  1  0  0  0  0
 46 55  1  0  0  0  0
 47 50  1  0  0  0  0
 47 55  1  0  0  0  0
 48 68  1  0  0  0  0
 49 66  1  0  0  0  0
 50 66  1  0  0  0  0
 51 54  1  0  0  0  0
 51 68  1  0  0  0  0
 52 72  1  0  0  0  0
 53 67  1  0  0  0  0
 54 65  1  0  0  0  0
 55 81  1  0  0  0  0
 56 62  1  0  0  0  0
 57 63  1  0  0  0  0
 58 63  1  0  0  0  0
 59 63  1  0  0  0  0
 60 74  1  0  0  0  0
 61 63  1  0  0  0  0
 61 73  1  0  0  0  0
 62 74  1  0  0  0  0
 64 65  1  0  0  0  0
M  CHG  1  74   1
M  ISO  4  38 100  55 101  71 100  81 101
M  END
> <Batch ID>
0029

> <Smiles>
CNC(C)C(=O)NC(C(=O)N1Cc2cc([101O:1][101CH:1]3CCN(c4cc(Cl)cc([100NH:0][100C:0](=O)N5CCCC(n6nc(-c7ccc(Oc8ccc(F)cc8F)cc7)c(C(N)=O)c6N)C5)c4)CC3)ccc2CC1C(=O)NC1CCCc2ccccc21)C(C)(C)C

> <Shape>
0.218

> <Color>
0.095

> <Negative vol penalty>
0.000

$$$$

  -OEChem-04042321343D

 83 92  0     1  0  0  0  0  0999 V2000
  -21.6470  -17.1089   16.3277 C   0  0  0  0  0  0  0  0  0  0  0  0
  -22.3585  -16.9016   17.5051 C   0  0  0  0  0  0  0  0  0  0  0  0
  -23.1998   -9.8509   19.9535 C   0  0  0  0  0  0  0  0  0  0  0  0
  -23.9113   -9.9307   22.2610 C   0  0  0  0  0  0  0  0  0  0  0  0
  -21.3318  -18.4057   15.9242 C   0  0  0  0  0  0  0  0  0  0  0  0
  -22.7561  -17.9912   18.2792 C   0  0  0  0  0  0  0  0  0  0  0  0
  -23.1433  -18.2224   24.3868 C   0  0  0  0  0  0  0  0  0  0  0  0
  -32.0630  -17.8842   22.7659 C   0  0  0  0  0  0  0  0  0  0  0  0
  -31.7217  -16.6736   22.1631 C   0  0  0  0  0  0  0  0  0  0  0  0
  -22.5078   -8.6668   20.2078 C   0  0  0  0  0  0  0  0  0  0  0  0
  -23.2191   -8.7466   22.5153 C   0  0  0  0  0  0  0  0  0  0  0  0
  -24.2180  -18.0860   25.2643 C   0  0  0  0  0  0  0  0  0  0  0  0
  -20.0217   -7.8018   23.0671 C   0  0  0  0  0  0  0  0  0  0  0  0
  -19.2437   -7.7433   24.2233 C   0  0  0  0  0  0  0  0  0  0  0  0
  -24.4528  -20.4857   25.3402 C   0  0  0  0  0  0  0  0  0  0  0  0
  -30.2502  -16.1681   24.0115 C   0  0  0  0  0  0  0  0  0  0  0  0
  -20.5621   -5.8804   25.0161 C   0  0  0  0  0  0  0  0  0  0  0  0
  -23.9017  -10.4828   20.9801 C   0  0  0  0  0  0  0  0  0  0  0  0
  -24.1231  -13.0194   20.8250 C   0  0  0  0  0  0  0  0  0  0  0  0
  -21.7173  -19.5112   16.6987 C   0  0  0  0  0  0  0  0  0  0  0  0
  -22.7215  -19.4932   23.9701 C   0  0  0  0  0  0  0  0  0  0  0  0
  -22.4469  -19.3041   17.8850 C   0  0  0  0  0  0  0  0  0  0  0  0
  -23.3709  -20.6356   24.4593 C   0  0  0  0  0  0  0  0  0  0  0  0
  -31.4980  -18.2368   23.9916 C   0  0  0  0  0  0  0  0  0  0  0  0
  -30.5916  -17.3788   24.6143 C   0  0  0  0  0  0  0  0  0  0  0  0
  -30.8153  -15.8155   22.7858 C   0  0  0  0  0  0  0  0  0  0  0  0
  -22.5173   -8.1147   21.4887 C   0  0  0  0  0  0  0  0  0  0  0  0
  -24.8748  -19.2176   25.7389 C   0  0  0  0  0  0  0  0  0  0  0  0
  -21.0699   -6.8996   22.8853 C   0  0  0  0  0  0  0  0  0  0  0  0
  -19.5139   -6.7826   25.1978 C   0  0  0  0  0  0  0  0  0  0  0  0
  -21.3401   -5.9389   23.8599 C   0  0  0  0  0  0  0  0  0  0  0  0
  -24.6173  -11.7056   20.7178 C   0  0  0  0  0  0  0  0  0  0  0  0
  -25.1849  -13.8155   20.4710 C   0  0  0  0  0  0  0  0  0  0  0  0
  -22.8208  -13.4791   21.2101 C   0  0  0  0  0  0  0  0  0  0  0  0
  -22.5370  -20.9897   21.1718 C   0  0  0  0  0  0  0  0  0  0  0  0
  -21.0676  -23.2816   22.9355 C   0  0  0  0  0  0  0  0  0  0  0  0
  -20.5855  -24.7210   25.9920 C   0  0  0  0  0  0  0  0  0  0  0  0
  -30.9338  -14.0860   20.9580 C   0  0  0  0  0  0  0  0  0  0  0  0
  -21.3947  -20.8967   16.1975 C   0  0  0  0  0  0  0  0  0  0  0  0
  -21.5435  -19.6244   23.0440 C   0  0  0  0  0  0  0  0  0  0  0  0
  -22.9440  -22.0232   24.0585 C   0  0  0  0  0  0  0  0  0  0  0  0
  -21.5275  -21.9776   17.2671 C   0  0  0  0  0  0  0  0  0  0  0  0
  -29.3627  -13.1183   17.9130 C   0  0  0  0  0  0  0  0  0  0  0  0
  -22.8331  -21.8087   18.0376 C   0  0  0  0  0  0  0  0  0  0  0  0
  -27.9302  -12.7835   18.3346 C   0  0  0  0  0  0  0  0  0  0  0  0
  -30.3790  -12.6976   18.9732 C   0  0  0  0  0  0  0  0  0  0  0  0
  -28.6781  -12.8683   20.7471 C   0  0  0  0  0  0  0  0  0  0  0  0
  -27.9483  -18.8367   25.0987 C   0  0  0  0  0  0  0  0  0  0  0  0
  -28.3951  -19.1964   27.1071 C   0  0  0  0  0  0  0  0  0  0  0  0
  -22.8742  -20.4591   18.7644 C   0  0  1  0  0  0  0  0  0  0  0  0
  -21.5263  -20.9464   22.2828 C   0  0  1  0  0  0  0  0  0  0  0  0
  -27.6134  -13.3322   19.7396 C   0  0  2  0  0  0  0  0  0  0  0  0
  -27.2104  -19.6010   26.2123 C   0  0  0  0  0  0  0  0  0  1  0  0
  -31.8795  -19.5378   24.6180 C   0  0  0  0  0  0  0  0  0  0  0  0
  -19.3578  -26.6011   27.1125 C   0  0  0  0  0  0  0  0  0  0  0  0
  -23.0830  -25.2712   21.7997 C   0  0  0  0  0  0  0  0  0  0  0  0
  -22.4373  -26.8600   23.6237 C   0  0  0  0  0  0  0  0  0  0  0  0
  -20.7391  -26.1305   21.9485 C   0  0  0  0  0  0  0  0  0  0  0  0
  -19.0780  -22.8568   27.7273 C   0  0  0  0  0  0  0  0  0  0  0  0
  -29.9697  -17.7379   25.9316 C   0  0  0  0  0  0  0  0  0  0  0  0
  -21.5268  -24.4947   23.7079 C   0  0  1  0  0  0  0  0  0  0  0  0
  -19.3204  -25.1313   26.7240 C   0  0  2  0  0  0  0  0  0  0  0  0
  -21.9561  -25.6630   22.7762 C   0  0  0  0  0  0  0  0  0  0  0  0
  -25.8936  -11.6650   20.3263 N   0  0  0  0  0  0  0  0  0  0  0  0
  -26.2104  -12.9633   20.1842 N   0  0  0  0  0  0  0  0  0  0  0  0
  -21.7911  -22.0992   23.1461 N   0  0  0  0  0  0  0  0  0  0  0  0
  -30.0168  -13.2577   20.2770 N   0  0  0  0  0  0  0  0  0  0  0  0
  -25.3320  -15.1543   20.3800 N   0  0  0  0  0  0  0  0  0  0  0  0
  -21.8474  -12.5270   21.5423 N   0  0  0  0  0  0  0  0  0  0  0  0
  -30.4667  -14.5865   22.1729 N   0  0  0  0  0  0  0  0  0  0  0  0
  -22.0677  -20.5070   19.9651 N   0  0  0  0  0  0  0  0  0  0  0  0
  -20.4425  -24.8292   24.6249 N   0  0  0  0  0  0  0  0  0  0  0  0
  -29.1885  -18.9930   25.8808 N   0  3  0  0  0  0  0  0  0  0  0  0
  -19.1536  -24.3215   27.9639 N   0  3  0  0  0  0  0  0  0  0  0  0
  -22.5241  -14.6975   21.2423 O   0  0  0  0  0  0  0  0  0  0  0  0
  -23.6591  -21.4299   21.3927 O   0  0  0  0  0  0  0  0  0  0  0  0
  -20.0983  -23.3778   22.1787 O   0  0  0  0  0  0  0  0  0  0  0  0
  -21.6004  -24.3459   26.5750 O   0  0  0  0  0  0  0  0  0  0  0  0
  -32.0409  -14.3550   20.4847 O   0  0  0  0  0  0  0  0  0  0  0  0
  -21.8419   -6.9595   21.7372 O   0  0  0  0  0  0  0  0  0  0  0  0
  -25.9245  -19.0873   26.5951 O   0  0  0  0  0  0  0  0  0  1  0  0
  -18.7677   -6.7275   26.3088 F   0  0  0  0  0  0  0  0  0  0  0  0
  -22.3465   -5.0703   23.6914 F   0  0  0  0  0  0  0  0  0  0  0  0
  1  2  1  0  0  0  0
  1  5  2  0  0  0  0
  2  6  2  0  0  0  0
  3 10  2  0  0  0  0
  3 18  1  0  0  0  0
  4 11  1  0  0  0  0
  4 18  2  0  0  0  0
  5 20  1  0  0  0  0
  6 22  1  0  0  0  0
  7 12  2  0  0  0  0
  7 21  1  0  0  0  0
  8  9  2  0  0  0  0
  8 24  1  0  0  0  0
  9 26  1  0  0  0  0
 10 27  1  0  0  0  0
 11 27  2  0  0  0  0
 12 28  1  0  0  0  0
 13 14  2  0  0  0  0
 13 29  1  0  0  0  0
 14 30  1  0  0  0  0
 15 23  1  0  0  0  0
 15 28  2  0  0  0  0
 16 25  1  0  0  0  0
 16 26  2  0  0  0  0
 17 30  2  0  0  0  0
 17 31  1  0  0  0  0
 18 32  1  0  0  0  0
 19 32  1  0  0  0  0
 19 33  2  0  0  0  0
 19 34  1  0  0  0  0
 20 22  2  0  0  0  0
 20 39  1  0  0  0  0
 21 23  2  0  0  0  0
 21 40  1  0  0  0  0
 22 50  1  0  0  0  0
 23 41  1  0  0  0  0
 24 25  2  0  0  0  0
 24 54  1  0  0  0  0
 25 60  1  0  0  0  0
 26 70  1  0  0  0  0
 27 80  1  0  0  0  0
 28 81  1  0  0  0  0
 29 31  2  0  0  0  0
 29 80  1  0  0  0  0
 30 82  1  0  0  0  0
 31 83  1  0  0  0  0
 32 64  2  0  0  0  0
 33 65  1  0  0  0  0
 33 68  1  0  0  0  0
 34 69  1  0  0  0  0
 34 75  2  0  0  0  0
 35 51  1  0  0  0  0
 35 71  1  0  0  0  0
 35 76  2  0  0  0  0
 36 61  1  0  0  0  0
 36 66  1  0  0  0  0
 36 77  2  0  0  0  0
 37 62  1  0  0  0  0
 37 72  1  0  0  0  0
 37 78  2  0  0  0  0
 38 67  1  0  0  0  0
 38 70  1  0  0  0  0
 38 79  2  0  0  0  0
 39 42  1  0  0  0  0
 40 51  1  0  0  0  0
 41 66  1  0  0  0  0
 42 44  1  0  0  0  0
 43 45  1  0  0  0  0
 43 46  1  0  0  0  0
 44 50  1  0  0  0  0
 45 52  1  0  0  0  0
 46 67  1  0  0  0  0
 47 52  1  0  0  0  0
 47 67  1  0  0  0  0
 48 53  1  0  0  0  0
 48 73  1  0  0  0  0
 49 53  1  0  0  0  0
 49 73  1  0  0  0  0
 50 71  1  0  0  0  0
 51 66  1  0  0  0  0
 52 65  1  0  0  0  0
 53 81  1  0  0  0  0
 55 62  1  0  0  0  0
 56 63  1  0  0  0  0
 57 63  1  0  0  0  0
 58 63  1  0  0  0  0
 59 74  1  0  0  0  0
 60 73  1  0  0  0  0
 61 63  1  0  0  0  0
 61 72  1  0  0  0  0
 62 74  1  0  0  0  0
 64 65  1  0  0  0  0
M  CHG  2  73   1  74   1
M  ISO  4  38 100  53 101  70 100  81 101
M  END
> <Batch ID>
0029

> <Smiles>
CNC(C)C(=O)NC(C(=O)N1Cc2cc([101O:1][101CH:1]3CN(Cc4cc([100NH:0][100C:0](=O)N5CCCC(n6nc(-c7ccc(Oc8ccc(F)cc8F)cc7)c(C(N)=O)c6N)C5)ccc4C)C3)ccc2CC1C(=O)NC1CCCc2ccccc21)C(C)(C)C

> <Shape>
0.177

> <Color>
0.182

> <Negative vol penalty>
0.000

$$$$

  -OEChem-04042321343D

 85 94  0     1  0  0  0  0  0999 V2000
  -22.7216  -11.1260   18.8479 C   0  0  0  0  0  0  0  0  0  0  0  0
  -22.1592  -12.3899   18.9955 C   0  0  0  0  0  0  0  0  0  0  0  0
  -29.7258  -26.6365   18.6473 C   0  0  0  0  0  0  0  0  0  0  0  0
  -29.4527  -26.5155   21.0448 C   0  0  0  0  0  0  0  0  0  0  0  0
  -23.9604  -10.8442   19.4222 C   0  0  0  0  0  0  0  0  0  0  0  0
  -22.8349  -13.3724   19.7183 C   0  0  0  0  0  0  0  0  0  0  0  0
  -22.8791  -19.3927   18.5960 C   0  0  0  0  0  0  0  0  0  0  0  0
  -18.9216  -25.0910   23.4072 C   0  0  0  0  0  0  0  0  0  0  0  0
  -31.0513  -26.2222   18.7773 C   0  0  0  0  0  0  0  0  0  0  0  0
  -30.7782  -26.1010   21.1748 C   0  0  0  0  0  0  0  0  0  0  0  0
  -22.1633  -20.4548   19.1468 C   0  0  0  0  0  0  0  0  0  0  0  0
  -34.0176  -27.5970   19.6347 C   0  0  0  0  0  0  0  0  0  0  0  0
  -18.6446  -26.1322   24.2930 C   0  0  0  0  0  0  0  0  0  0  0  0
  -34.9851  -28.2822   18.8998 C   0  0  0  0  0  0  0  0  0  0  0  0
  -23.9978  -20.9053   20.6471 C   0  0  0  0  0  0  0  0  0  0  0  0
  -19.9290  -26.6631   21.8741 C   0  0  0  0  0  0  0  0  0  0  0  0
  -35.5819  -26.2303   17.7725 C   0  0  0  0  0  0  0  0  0  0  0  0
  -28.9265  -26.7833   19.7810 C   0  0  0  0  0  0  0  0  0  0  0  0
  -26.5305  -26.5665   18.9326 C   0  0  0  0  0  0  0  0  0  0  0  0
  -24.6561  -11.8267   20.1443 C   0  0  0  0  0  0  0  0  0  0  0  0
  -24.1573  -19.0716   19.0749 C   0  0  0  0  0  0  0  0  0  0  0  0
  -24.0836  -13.1030   20.3039 C   0  0  0  0  0  0  0  0  0  0  0  0
  -24.7288  -19.8403   20.0989 C   0  0  0  0  0  0  0  0  0  0  0  0
  -19.6520  -27.7044   22.7599 C   0  0  0  0  0  0  0  0  0  0  0  0
  -19.5638  -25.3564   22.1977 C   0  0  0  0  0  0  0  0  0  0  0  0
  -31.5775  -25.9544   20.0411 C   0  0  0  0  0  0  0  0  0  0  0  0
  -22.7214  -21.2095   20.1744 C   0  0  0  0  0  0  0  0  0  0  0  0
  -33.8323  -26.2284   19.4385 C   0  0  0  0  0  0  0  0  0  0  0  0
  -35.7672  -27.5989   17.9687 C   0  0  0  0  0  0  0  0  0  0  0  0
  -19.0097  -27.4389   23.9693 C   0  0  0  0  0  0  0  0  0  0  0  0
  -34.6144  -25.5451   18.5074 C   0  0  0  0  0  0  0  0  0  0  0  0
  -27.5573  -27.2118   19.6474 C   0  0  0  0  0  0  0  0  0  0  0  0
  -25.4295  -27.3671   19.1152 C   0  0  0  0  0  0  0  0  0  0  0  0
  -19.1051  -23.1060   21.1329 C   0  0  0  0  0  0  0  0  0  0  0  0
  -26.5684  -25.3518   18.1718 C   0  0  0  0  0  0  0  0  0  0  0  0
  -25.4553  -16.5298   20.4742 C   0  0  0  0  0  0  0  0  0  0  0  0
  -28.1975  -18.2293   20.1359 C   0  0  0  0  0  0  0  0  0  0  0  0
  -29.6917  -21.2763   19.7751 C   0  0  0  0  0  0  0  0  0  0  0  0
  -22.1367  -30.4356   22.4148 C   0  0  0  0  0  0  0  0  0  0  0  0
  -25.9706  -11.4608   20.7868 C   0  0  0  0  0  0  0  0  0  0  0  0
  -24.9274  -17.9396   18.4519 C   0  0  0  0  0  0  0  0  0  0  0  0
  -26.1060  -19.5492   20.6347 C   0  0  0  0  0  0  0  0  0  0  0  0
  -19.7259  -22.3288   19.9931 C   0  0  0  0  0  0  0  0  0  0  0  0
  -26.7944  -12.6707   21.2201 C   0  0  0  0  0  0  0  0  0  0  0  0
  -25.0272  -32.0170   21.0654 C   0  0  0  0  0  0  0  0  0  0  0  0
  -25.9186  -13.6747   21.9628 C   0  0  0  0  0  0  0  0  0  0  0  0
  -25.8606  -30.8545   20.5232 C   0  0  0  0  0  0  0  0  0  0  0  0
  -24.3016  -31.6382   22.3545 C   0  0  0  0  0  0  0  0  0  0  0  0
  -24.3108  -29.2558   21.7236 C   0  0  0  0  0  0  0  0  0  0  0  0
  -20.9472  -24.3564   20.3442 C   0  0  0  0  0  0  0  0  0  0  0  0
  -24.7973  -14.2028   21.0598 C   0  0  1  0  0  0  0  0  0  0  0  0
  -26.0119  -17.3797   19.3672 C   0  0  1  0  0  0  0  0  0  0  0  0
  -25.0170  -29.5720   20.3941 C   0  0  2  0  0  0  0  0  0  0  0  0
  -21.1134  -22.9295   19.8597 C   0  0  1  0  0  0  0  0  0  1  0  0
  -31.9499  -22.3501   19.5632 C   0  0  0  0  0  0  0  0  0  0  0  0
  -28.6620  -17.8371   23.1259 C   0  0  0  0  0  0  0  0  0  0  0  0
  -30.3570  -19.6774   23.0331 C   0  0  0  0  0  0  0  0  0  0  0  0
  -30.7095  -17.5915   21.7111 C   0  0  0  0  0  0  0  0  0  0  0  0
  -29.0470  -22.3749   17.1038 C   0  0  0  0  0  0  0  0  0  0  0  0
  -20.0444  -29.1009   22.4123 C   0  0  0  0  0  0  0  0  0  0  0  0
  -28.9392  -19.2403   20.9765 C   0  0  1  0  0  0  0  0  0  0  0  0
  -30.7611  -21.7665   18.8156 C   0  0  2  0  0  0  0  0  0  0  0  0
  -29.6402  -18.5911   22.2031 C   0  0  0  0  0  0  0  0  0  0  0  0
  -27.1455  -28.3359   20.2397 N   0  0  0  0  0  0  0  0  0  0  0  0
  -25.8476  -28.4032   19.8974 N   0  0  0  0  0  0  0  0  0  0  0  0
  -19.8479  -24.2903   21.2918 N   0  0  0  0  0  0  0  0  0  0  0  0
  -26.8165  -18.4284   19.9973 N   0  0  0  0  0  0  0  0  0  0  0  0
  -23.5187  -30.4148   22.1642 N   0  0  0  0  0  0  0  0  0  0  0  0
  -24.1542  -27.2790   18.6813 N   0  0  0  0  0  0  0  0  0  0  0  0
  -26.2869  -24.1447   18.8259 N   0  0  0  0  0  0  0  0  0  0  0  0
  -25.3129  -15.1960   20.1421 N   0  0  0  0  0  0  0  0  0  0  0  0
  -29.8453  -19.9382   20.0707 N   0  0  0  0  0  0  0  0  0  0  0  0
  -21.4689  -29.2356   22.2035 N   0  0  0  0  0  0  0  0  0  0  0  0
  -30.2079  -22.8191   17.9174 N   0  3  0  0  0  0  0  0  0  0  0  0
  -18.1000  -22.7234   21.7146 O   0  0  0  0  0  0  0  0  0  0  0  0
  -26.8597  -25.3356   16.9518 O   0  0  0  0  0  0  0  0  0  0  0  0
  -25.1771  -17.0456   21.5504 O   0  0  0  0  0  0  0  0  0  0  0  0
  -28.8215  -17.3013   19.6153 O   0  0  0  0  0  0  0  0  0  0  0  0
  -28.8107  -22.0081   20.2210 O   0  0  0  0  0  0  0  0  0  0  0  0
  -21.5412  -31.4500   22.7933 O   0  0  0  0  0  0  0  0  0  0  0  0
  -32.8708  -25.5498   20.1683 O   0  0  0  0  0  0  0  0  0  0  0  0
  -22.0246  -22.2463   20.7143 O   0  0  0  0  0  0  0  0  0  1  0  0
  -36.6952  -28.2573   17.2620 F   0  0  0  0  0  0  0  0  0  0  0  0
  -18.7382  -28.4329   24.8264 F   0  0  0  0  0  0  0  0  0  0  0  0
  -34.4401  -24.2306   18.3137 F   0  0  0  0  0  0  0  0  0  0  0  0
  1  2  1  0  0  0  0
  1  5  2  0  0  0  0
  2  6  2  0  0  0  0
  3  9  2  0  0  0  0
  3 18  1  0  0  0  0
  4 10  1  0  0  0  0
  4 18  2  0  0  0  0
  5 20  1  0  0  0  0
  6 22  1  0  0  0  0
  7 11  2  0  0  0  0
  7 21  1  0  0  0  0
  8 13  2  0  0  0  0
  8 25  1  0  0  0  0
  9 26  1  0  0  0  0
 10 26  2  0  0  0  0
 11 27  1  0  0  0  0
 12 14  2  0  0  0  0
 12 28  1  0  0  0  0
 13 30  1  0  0  0  0
 14 29  1  0  0  0  0
 15 23  1  0  0  0  0
 15 27  2  0  0  0  0
 16 24  1  0  0  0  0
 16 25  2  0  0  0  0
 17 29  2  0  0  0  0
 17 31  1  0  0  0  0
 18 32  1  0  0  0  0
 19 32  1  0  0  0  0
 19 33  2  0  0  0  0
 19 35  1  0  0  0  0
 20 22  2  0  0  0  0
 20 40  1  0  0  0  0
 21 23  2  0  0  0  0
 21 41  1  0  0  0  0
 22 51  1  0  0  0  0
 23 42  1  0  0  0  0
 24 30  2  0  0  0  0
 24 60  1  0  0  0  0
 25 66  1  0  0  0  0
 26 81  1  0  0  0  0
 27 82  1  0  0  0  0
 28 31  2  0  0  0  0
 28 81  1  0  0  0  0
 29 83  1  0  0  0  0
 30 84  1  0  0  0  0
 31 85  1  0  0  0  0
 32 64  2  0  0  0  0
 33 65  1  0  0  0  0
 33 69  1  0  0  0  0
 34 43  1  0  0  0  0
 34 66  1  0  0  0  0
 34 75  2  0  0  0  0
 35 70  1  0  0  0  0
 35 76  2  0  0  0  0
 36 52  1  0  0  0  0
 36 71  1  0  0  0  0
 36 77  2  0  0  0  0
 37 61  1  0  0  0  0
 37 67  1  0  0  0  0
 37 78  2  0  0  0  0
 38 62  1  0  0  0  0
 38 72  1  0  0  0  0
 38 79  2  0  0  0  0
 39 68  1  0  0  0  0
 39 73  1  0  0  0  0
 39 80  2  0  0  0  0
 40 44  1  0  0  0  0
 41 52  1  0  0  0  0
 42 67  1  0  0  0  0
 43 54  1  0  0  0  0
 44 46  1  0  0  0  0
 45 47  1  0  0  0  0
 45 48  1  0  0  0  0
 46 51  1  0  0  0  0
 47 53  1  0  0  0  0
 48 68  1  0  0  0  0
 49 53  1  0  0  0  0
 49 68  1  0  0  0  0
 50 54  1  0  0  0  0
 50 66  1  0  0  0  0
 51 71  1  0  0  0  0
 52 67  1  0  0  0  0
 53 65  1  0  0  0  0
 54 82  1  0  0  0  0
 55 62  1  0  0  0  0
 56 63  1  0  0  0  0
 57 63  1  0  0  0  0
 58 63  1  0  0  0  0
 59 74  1  0  0  0  0
 60 73  1  0  0  0  0
 61 63  1  0  0  0  0
 61 72  1  0  0  0  0
 62 74  1  0  0  0  0
 64 65  1  0  0  0  0
M  CHG  1  74   1
M  ISO  4  39 100  54 101  73 100  82 101
M  END
> <Batch ID>
0029

> <Smiles>
CNC(C)C(=O)NC(C(=O)N1Cc2cc([101O:1][101CH:1]3CC(=O)N(c4ccc(F)c(C[100NH:0][100C:0](=O)N5CCCC(n6nc(-c7ccc(Oc8ccc(F)cc8F)cc7)c(C(N)=O)c6N)C5)c4)C3)ccc2CC1C(=O)NC1CCCc2ccccc21)C(C)(C)C

> <Shape>
0.254

> <Color>
0.082

> <Negative vol penalty>
0.000

$$$$

  -OEChem-04042321343D

 85 94  0     1  0  0  0  0  0999 V2000
  -31.8848  -34.4161   21.8161 C   0  0  0  0  0  0  0  0  0  0  0  0
  -31.6816  -33.1011   21.4100 C   0  0  0  0  0  0  0  0  0  0  0  0
  -23.2744   -9.7396   19.9189 C   0  0  0  0  0  0  0  0  0  0  0  0
  -23.9070   -9.8888   22.2458 C   0  0  0  0  0  0  0  0  0  0  0  0
  -31.1218  -34.9498   22.8538 C   0  0  0  0  0  0  0  0  0  0  0  0
  -30.7159  -32.3187   22.0422 C   0  0  0  0  0  0  0  0  0  0  0  0
  -27.2006  -28.0157   19.4668 C   0  0  0  0  0  0  0  0  0  0  0  0
  -22.6088   -8.5412   20.1767 C   0  0  0  0  0  0  0  0  0  0  0  0
  -23.2413   -8.6904   22.5036 C   0  0  0  0  0  0  0  0  0  0  0  0
  -27.3028  -26.6261   19.4184 C   0  0  0  0  0  0  0  0  0  0  0  0
  -20.0562   -7.6632   22.9727 C   0  0  0  0  0  0  0  0  0  0  0  0
  -19.2426   -7.6059   24.1042 C   0  0  0  0  0  0  0  0  0  0  0  0
  -25.8113  -26.4566   21.3068 C   0  0  0  0  0  0  0  0  0  0  0  0
  -29.5732  -19.6315   20.2967 C   0  0  0  0  0  0  0  0  0  0  0  0
  -20.5876   -5.7999   24.9798 C   0  0  0  0  0  0  0  0  0  0  0  0
  -23.9235  -10.4134   20.9535 C   0  0  0  0  0  0  0  0  0  0  0  0
  -24.0766  -12.9517   20.7500 C   0  0  0  0  0  0  0  0  0  0  0  0
  -30.1396  -34.1765   23.4926 C   0  0  0  0  0  0  0  0  0  0  0  0
  -26.4102  -28.6376   20.4440 C   0  0  0  0  0  0  0  0  0  0  0  0
  -29.9400  -32.8421   23.0903 C   0  0  0  0  0  0  0  0  0  0  0  0
  -25.6987  -27.8542   21.3638 C   0  0  0  0  0  0  0  0  0  0  0  0
  -29.8935  -20.3508   21.4480 C   0  0  0  0  0  0  0  0  0  0  0  0
  -29.5166  -18.2384   20.3378 C   0  0  0  0  0  0  0  0  0  0  0  0
  -30.1574  -19.6769   22.6405 C   0  0  0  0  0  0  0  0  0  0  0  0
  -30.1008  -18.2838   22.6816 C   0  0  0  0  0  0  0  0  0  0  0  0
  -29.7805  -17.5645   21.5302 C   0  0  0  0  0  0  0  0  0  0  0  0
  -22.5922   -8.0166   21.4690 C   0  0  0  0  0  0  0  0  0  0  0  0
  -26.6105  -25.8465   20.3403 C   0  0  0  0  0  0  0  0  0  0  0  0
  -21.1354   -6.7888   22.8446 C   0  0  0  0  0  0  0  0  0  0  0  0
  -19.5083   -6.6743   25.1078 C   0  0  0  0  0  0  0  0  0  0  0  0
  -21.4011   -5.8572   23.8482 C   0  0  0  0  0  0  0  0  0  0  0  0
  -24.6117  -11.6511   20.6877 C   0  0  0  0  0  0  0  0  0  0  0  0
  -25.1260  -13.7712   20.4130 C   0  0  0  0  0  0  0  0  0  0  0  0
  -22.7496  -13.3806   21.0828 C   0  0  0  0  0  0  0  0  0  0  0  0
  -26.9744  -30.6526   22.8367 C   0  0  0  0  0  0  0  0  0  0  0  0
  -23.7399  -30.6536   23.0827 C   0  0  0  0  0  0  0  0  0  0  0  0
  -20.7895  -29.0407   22.4996 C   0  0  0  0  0  0  0  0  0  0  0  0
  -30.4785  -15.2494   20.8235 C   0  0  0  0  0  0  0  0  0  0  0  0
  -29.3722  -34.7821   24.6411 C   0  0  0  0  0  0  0  0  0  0  0  0
  -26.2892  -30.1367   20.4660 C   0  0  0  0  0  0  0  0  0  0  0  0
  -24.8206  -28.4723   22.4199 C   0  0  0  0  0  0  0  0  0  0  0  0
  -28.1110  -34.0044   25.0083 C   0  0  0  0  0  0  0  0  0  0  0  0
  -29.6816  -12.6718   18.5001 C   0  0  0  0  0  0  0  0  0  0  0  0
  -28.4094  -32.5106   25.0886 C   0  0  0  0  0  0  0  0  0  0  0  0
  -28.2475  -12.2834   18.8673 C   0  0  0  0  0  0  0  0  0  0  0  0
  -30.5105  -13.0150   19.7366 C   0  0  0  0  0  0  0  0  0  0  0  0
  -28.4820  -13.6363   20.9890 C   0  0  0  0  0  0  0  0  0  0  0  0
  -28.7297  -23.9444   21.7158 C   0  0  0  0  0  0  0  0  0  0  0  0
  -27.5449  -22.2957   21.2255 C   0  0  0  0  0  0  0  0  0  0  0  0
  -28.8849  -31.9695   23.7349 C   0  0  1  0  0  0  0  0  0  0  0  0
  -25.8632  -30.6819   21.8257 C   0  0  1  0  0  0  0  0  0  0  0  0
  -27.5901  -13.3448   19.7712 C   0  0  2  0  0  0  0  0  0  0  0  0
  -27.2245  -23.7858   21.4370 C   0  0  0  0  0  0  0  0  0  1  0  0
  -29.1694  -17.4959   19.0880 C   0  0  0  0  0  0  0  0  0  0  0  0
  -30.5008  -20.4514   23.8735 C   0  0  0  0  0  0  0  0  0  0  0  0
  -30.3851  -17.5654   23.9639 C   0  0  0  0  0  0  0  0  0  0  0  0
  -18.3151  -29.2729   22.8476 C   0  0  0  0  0  0  0  0  0  0  0  0
  -24.0886  -29.9307   26.0265 C   0  0  0  0  0  0  0  0  0  0  0  0
  -21.6783  -29.2551   26.0741 C   0  0  0  0  0  0  0  0  0  0  0  0
  -22.2997  -31.6181   25.5715 C   0  0  0  0  0  0  0  0  0  0  0  0
  -20.2580  -28.9899   19.5886 C   0  0  0  0  0  0  0  0  0  0  0  0
  -29.9461  -21.8485   21.3770 C   0  0  0  0  0  0  0  0  0  0  0  0
  -22.7248  -29.8288   23.8366 C   0  0  1  0  0  0  0  0  0  0  0  0
  -19.4796  -29.5215   21.9016 C   0  0  2  0  0  0  0  0  0  0  0  0
  -22.7158  -30.1463   25.3586 C   0  0  0  0  0  0  0  0  0  0  0  0
  -25.9009  -11.6401   20.3385 N   0  0  0  0  0  0  0  0  0  0  0  0
  -26.1845  -12.9439   20.1782 N   0  0  0  0  0  0  0  0  0  0  0  0
  -24.7397  -29.9423   22.4045 N   0  0  0  0  0  0  0  0  0  0  0  0
  -29.8277  -14.0295   20.5425 N   0  0  0  0  0  0  0  0  0  0  0  0
  -25.2372  -15.1116   20.2976 N   0  0  0  0  0  0  0  0  0  0  0  0
  -21.7937  -12.4073   21.4043 N   0  0  0  0  0  0  0  0  0  0  0  0
  -29.7190  -16.1495   21.5702 N   0  0  0  0  0  0  0  0  0  0  0  0
  -27.7618  -31.7882   22.8403 N   0  0  0  0  0  0  0  0  0  0  0  0
  -21.4448  -30.0501   23.1725 N   0  0  0  0  0  0  0  0  0  0  0  0
  -28.7777  -22.5001   22.0085 N   0  3  0  0  0  0  0  0  0  0  0  0
  -19.2039  -28.8123   20.6202 N   0  3  0  0  0  0  0  0  0  0  0  0
  -22.4169  -14.5901   21.0788 O   0  0  0  0  0  0  0  0  0  0  0  0
  -27.1065  -29.6731   23.5610 O   0  0  0  0  0  0  0  0  0  0  0  0
  -23.6449  -31.8835   23.0894 O   0  0  0  0  0  0  0  0  0  0  0  0
  -21.1894  -27.8842   22.3846 O   0  0  0  0  0  0  0  0  0  0  0  0
  -31.6148  -15.4896   20.4075 O   0  0  0  0  0  0  0  0  0  0  0  0
  -21.9426   -6.8474   21.7210 O   0  0  0  0  0  0  0  0  0  0  0  0
  -26.7091  -24.4899   20.2957 O   0  0  0  0  0  0  0  0  0  1  0  0
  -18.7279   -6.6205   26.1951 F   0  0  0  0  0  0  0  0  0  0  0  0
  -22.4372   -5.0153   23.7313 F   0  0  0  0  0  0  0  0  0  0  0  0
  1  2  1  0  0  0  0
  1  5  2  0  0  0  0
  2  6  2  0  0  0  0
  3  8  2  0  0  0  0
  3 16  1  0  0  0  0
  4  9  1  0  0  0  0
  4 16  2  0  0  0  0
  5 18  1  0  0  0  0
  6 20  1  0  0  0  0
  7 10  2  0  0  0  0
  7 19  1  0  0  0  0
  8 27  1  0  0  0  0
  9 27  2  0  0  0  0
 10 28  1  0  0  0  0
 11 12  2  0  0  0  0
 11 29  1  0  0  0  0
 12 30  1  0  0  0  0
 13 21  1  0  0  0  0
 13 28  2  0  0  0  0
 14 22  1  0  0  0  0
 14 23  2  0  0  0  0
 15 30  2  0  0  0  0
 15 31  1  0  0  0  0
 16 32  1  0  0  0  0
 17 32  1  0  0  0  0
 17 33  2  0  0  0  0
 17 34  1  0  0  0  0
 18 20  2  0  0  0  0
 18 39  1  0  0  0  0
 19 21  2  0  0  0  0
 19 40  1  0  0  0  0
 20 50  1  0  0  0  0
 21 41  1  0  0  0  0
 22 24  2  0  0  0  0
 22 62  1  0  0  0  0
 23 26  1  0  0  0  0
 23 54  1  0  0  0  0
 24 25  1  0  0  0  0
 24 55  1  0  0  0  0
 25 26  2  0  0  0  0
 25 56  1  0  0  0  0
 26 72  1  0  0  0  0
 27 82  1  0  0  0  0
 28 83  1  0  0  0  0
 29 31  2  0  0  0  0
 29 82  1  0  0  0  0
 30 84  1  0  0  0  0
 31 85  1  0  0  0  0
 32 66  2  0  0  0  0
 33 67  1  0  0  0  0
 33 70  1  0  0  0  0
 34 71  1  0  0  0  0
 34 77  2  0  0  0  0
 35 51  1  0  0  0  0
 35 73  1  0  0  0  0
 35 78  2  0  0  0  0
 36 63  1  0  0  0  0
 36 68  1  0  0  0  0
 36 79  2  0  0  0  0
 37 64  1  0  0  0  0
 37 74  1  0  0  0  0
 37 80  2  0  0  0  0
 38 69  1  0  0  0  0
 38 72  1  0  0  0  0
 38 81  2  0  0  0  0
 39 42  1  0  0  0  0
 40 51  1  0  0  0  0
 41 68  1  0  0  0  0
 42 44  1  0  0  0  0
 43 45  1  0  0  0  0
 43 46  1  0  0  0  0
 44 50  1  0  0  0  0
 45 52  1  0  0  0  0
 46 69  1  0  0  0  0
 47 52  1  0  0  0  0
 47 69  1  0  0  0  0
 48 53  1  0  0  0  0
 48 75  1  0  0  0  0
 49 53  1  0  0  0  0
 49 75  1  0  0  0  0
 50 73  1  0  0  0  0
 51 68  1  0  0  0  0
 52 67  1  0  0  0  0
 53 83  1  0  0  0  0
 57 64  1  0  0  0  0
 58 65  1  0  0  0  0
 59 65  1  0  0  0  0
 60 65  1  0  0  0  0
 61 76  1  0  0  0  0
 62 75  1  0  0  0  0
 63 65  1  0  0  0  0
 63 74  1  0  0  0  0
 64 76  1  0  0  0  0
 66 67  1  0  0  0  0
M  CHG  2  75   1  76   1
M  ISO  4  38 100  53 101  72 100  83 101
M  END
> <Batch ID>
0029

> <Smiles>
CNC(C)C(=O)NC(C(=O)N1Cc2cc([101O:1][101CH:1]3CN(Cc4cc(C)c([100NH:0][100C:0](=O)N5CCCC(n6nc(-c7ccc(Oc8ccc(F)cc8F)cc7)c(C(N)=O)c6N)C5)c(C)c4C)C3)ccc2CC1C(=O)NC1CCCc2ccccc21)C(C)(C)C

> <Shape>
0.347

> <Color>
0.206

> <Negative vol penalty>
0.000

$$$$

  -OEChem-04042321343D

 86 95  0     1  0  0  0  0  0999 V2000
  -25.9993  -34.8991   26.2415 C   0  0  0  0  0  0  0  0  0  0  0  0
  -26.0769  -33.5447   25.9333 C   0  0  0  0  0  0  0  0  0  0  0  0
  -23.0103   -9.8970   21.7542 C   0  0  0  0  0  0  0  0  0  0  0  0
  -24.5562  -10.4155   23.5370 C   0  0  0  0  0  0  0  0  0  0  0  0
  -25.2496  -35.7545   25.4351 C   0  0  0  0  0  0  0  0  0  0  0  0
  -25.4038  -33.0446   24.8191 C   0  0  0  0  0  0  0  0  0  0  0  0
  -27.2426  -28.5107   21.1356 C   0  0  0  0  0  0  0  0  0  0  0  0
  -26.6017  -20.4411   18.6500 C   0  0  0  0  0  0  0  0  0  0  0  0
  -22.4366   -8.8990   22.5418 C   0  0  0  0  0  0  0  0  0  0  0  0
  -23.9825   -9.4175   24.3247 C   0  0  0  0  0  0  0  0  0  0  0  0
  -26.9167  -27.1563   21.0805 C   0  0  0  0  0  0  0  0  0  0  0  0
  -23.1531   -5.7229   23.4494 C   0  0  0  0  0  0  0  0  0  0  0  0
  -26.6950  -19.1451   18.1554 C   0  0  0  0  0  0  0  0  0  0  0  0
  -22.8959   -4.4911   22.8476 C   0  0  0  0  0  0  0  0  0  0  0  0
  -25.2727  -27.6273   19.3791 C   0  0  0  0  0  0  0  0  0  0  0  0
  -20.5449   -4.7384   23.3462 C   0  0  0  0  0  0  0  0  0  0  0  0
  -24.0701  -10.6553   22.2517 C   0  0  0  0  0  0  0  0  0  0  0  0
  -24.0240  -12.8201   20.9031 C   0  0  0  0  0  0  0  0  0  0  0  0
  -24.5749  -35.2664   24.3050 C   0  0  0  0  0  0  0  0  0  0  0  0
  -26.5773  -29.4367   20.3192 C   0  0  0  0  0  0  0  0  0  0  0  0
  -24.6433  -33.8941   23.9977 C   0  0  0  0  0  0  0  0  0  0  0  0
  -25.5939  -28.9925   19.4238 C   0  0  0  0  0  0  0  0  0  0  0  0
  -28.6329  -20.0973   19.9424 C   0  0  0  0  0  0  0  0  0  0  0  0
  -28.7129  -18.7704   19.4731 C   0  0  0  0  0  0  0  0  0  0  0  0
  -27.5648  -20.9150   19.5384 C   0  0  0  0  0  0  0  0  0  0  0  0
  -22.9227   -8.6592   23.8271 C   0  0  0  0  0  0  0  0  0  0  0  0
  -25.9296  -26.7148   20.2043 C   0  0  0  0  0  0  0  0  0  0  0  0
  -22.1061   -6.4625   23.9997 C   0  0  0  0  0  0  0  0  0  0  0  0
  -21.5918   -3.9989   22.7960 C   0  0  0  0  0  0  0  0  0  0  0  0
  -27.7444  -18.3185   18.5584 C   0  0  0  0  0  0  0  0  0  0  0  0
  -20.8021   -5.9702   23.9480 C   0  0  0  0  0  0  0  0  0  0  0  0
  -24.6635  -11.6860   21.4384 C   0  0  0  0  0  0  0  0  0  0  0  0
  -25.0129  -13.4786   20.2139 C   0  0  0  0  0  0  0  0  0  0  0  0
  -22.6582  -13.2408   21.0185 C   0  0  0  0  0  0  0  0  0  0  0  0
  -24.7305  -31.9699   20.8445 C   0  0  0  0  0  0  0  0  0  0  0  0
  -24.9414  -32.3040   17.6248 C   0  0  0  0  0  0  0  0  0  0  0  0
  -26.4226  -23.1507   19.7135 C   0  0  0  0  0  0  0  0  0  0  0  0
  -25.4903  -30.8425   14.5901 C   0  0  0  0  0  0  0  0  0  0  0  0
  -30.2362  -15.4110   19.8559 C   0  0  0  0  0  0  0  0  0  0  0  0
  -23.7385  -36.2211   23.4904 C   0  0  0  0  0  0  0  0  0  0  0  0
  -26.9592  -30.8906   20.3714 C   0  0  0  0  0  0  0  0  0  0  0  0
  -29.6424  -20.6583   20.9128 C   0  0  0  0  0  0  0  0  0  0  0  0
  -24.8642  -29.9434   18.5117 C   0  0  0  0  0  0  0  0  0  0  0  0
  -23.3608  -35.6783   22.1145 C   0  0  0  0  0  0  0  0  0  0  0  0
  -30.9457  -19.8663   20.9404 C   0  0  0  0  0  0  0  0  0  0  0  0
  -29.6871  -12.0102   18.9562 C   0  0  0  0  0  0  0  0  0  0  0  0
  -22.8579  -34.2426   22.2266 C   0  0  0  0  0  0  0  0  0  0  0  0
  -30.6490  -18.3800   21.0860 C   0  0  0  0  0  0  0  0  0  0  0  0
  -28.2817  -11.7148   19.4830 C   0  0  0  0  0  0  0  0  0  0  0  0
  -30.4549  -12.9437   19.8895 C   0  0  0  0  0  0  0  0  0  0  0  0
  -28.3533  -13.9067   20.7437 C   0  0  0  0  0  0  0  0  0  0  0  0
  -23.9475  -33.3183   22.7834 C   0  0  1  0  0  0  0  0  0  0  0  0
  -29.8631  -17.8645   19.8738 C   0  0  1  0  0  0  0  0  0  0  0  0
  -25.8581  -31.8162   19.8634 C   0  0  1  0  0  0  0  0  0  0  0  0
  -27.5202  -13.0139   19.8081 C   0  0  2  0  0  0  0  0  0  0  0  0
  -25.5585  -31.3633   12.1363 C   0  0  0  0  0  0  0  0  0  0  0  0
  -21.8918  -32.3777   17.5582 C   0  0  0  0  0  0  0  0  0  0  0  0
  -22.0045  -31.9412   15.0955 C   0  0  0  0  0  0  0  0  0  0  0  0
  -23.0085  -34.0208   16.0390 C   0  0  0  0  0  0  0  0  0  0  0  0
  -28.3344  -30.0506   14.3828 C   0  0  0  0  0  0  0  0  0  0  0  0
  -26.6469  -24.4603   20.4465 C   0  0  0  0  0  0  0  0  0  1  0  0
  -24.1479  -31.8004   16.4434 C   0  0  1  0  0  0  0  0  0  0  0  0
  -26.3667  -31.2501   13.4195 C   0  0  2  0  0  0  0  0  0  0  0  0
  -22.7754  -32.5171   16.3025 C   0  0  0  0  0  0  0  0  0  0  0  0
  -25.9584  -11.6243   21.1167 N   0  0  0  0  0  0  0  0  0  0  0  0
  -26.1406  -12.7280   20.3718 N   0  0  0  0  0  0  0  0  0  0  0  0
  -25.2689  -31.3559   18.6043 N   0  0  0  0  0  0  0  0  0  0  0  0
  -29.6789  -14.1572   20.1565 N   0  0  0  0  0  0  0  0  0  0  0  0
  -25.0191  -14.6207   19.4942 N   0  0  0  0  0  0  0  0  0  0  0  0
  -22.3042  -14.0752   22.0875 N   0  0  0  0  0  0  0  0  0  0  0  0
  -27.4258  -22.2380   20.0209 N   0  0  0  0  0  0  0  0  0  0  0  0
  -24.9111  -32.9951   21.7531 N   0  0  0  0  0  0  0  0  0  0  0  0
  -25.0165  -31.9386   15.2794 N   0  0  0  0  0  0  0  0  0  0  0  0
  -29.4315  -16.5092   20.1339 N   0  0  0  0  0  0  0  0  0  0  0  0
  -27.4474  -30.2461   13.2073 N   0  3  0  0  0  0  0  0  0  0  0  0
  -21.7745  -12.8739   20.2074 O   0  0  0  0  0  0  0  0  0  0  0  0
  -23.7671  -31.2152   20.7808 O   0  0  0  0  0  0  0  0  0  0  0  0
  -25.2651  -33.4934   17.6731 O   0  0  0  0  0  0  0  0  0  0  0  0
  -25.4637  -22.9891   18.9658 O   0  0  0  0  0  0  0  0  0  0  0  0
  -25.2472  -29.6691   14.8633 O   0  0  0  0  0  0  0  0  0  0  0  0
  -31.3650  -15.5418   19.3705 O   0  0  0  0  0  0  0  0  0  0  0  0
  -22.3630   -7.6856   24.5960 O   0  0  0  0  0  0  0  0  0  0  0  0
  -25.6091  -25.3934   20.1490 O   0  0  0  0  0  0  0  0  0  1  0  0
  -21.3448   -2.8167   22.2167 F   0  0  0  0  0  0  0  0  0  0  0  0
  -27.8192  -17.0839   18.0396 F   0  0  0  0  0  0  0  0  0  0  0  0
  -19.7920   -6.6767   24.4739 F   0  0  0  0  0  0  0  0  0  0  0  0
  1  2  1  0  0  0  0
  1  5  2  0  0  0  0
  2  6  2  0  0  0  0
  3  9  2  0  0  0  0
  3 17  1  0  0  0  0
  4 10  1  0  0  0  0
  4 17  2  0  0  0  0
  5 19  1  0  0  0  0
  6 21  1  0  0  0  0
  7 11  2  0  0  0  0
  7 20  1  0  0  0  0
  8 13  2  0  0  0  0
  8 25  1  0  0  0  0
  9 26  1  0  0  0  0
 10 26  2  0  0  0  0
 11 27  1  0  0  0  0
 12 14  2  0  0  0  0
 12 28  1  0  0  0  0
 13 30  1  0  0  0  0
 14 29  1  0  0  0  0
 15 22  1  0  0  0  0
 15 27  2  0  0  0  0
 16 29  2  0  0  0  0
 16 31  1  0  0  0  0
 17 32  1  0  0  0  0
 18 32  1  0  0  0  0
 18 33  2  0  0  0  0
 18 34  1  0  0  0  0
 19 21  2  0  0  0  0
 19 40  1  0  0  0  0
 20 22  2  0  0  0  0
 20 41  1  0  0  0  0
 21 52  1  0  0  0  0
 22 43  1  0  0  0  0
 23 24  1  0  0  0  0
 23 25  2  0  0  0  0
 23 42  1  0  0  0  0
 24 30  2  0  0  0  0
 24 53  1  0  0  0  0
 25 71  1  0  0  0  0
 26 82  1  0  0  0  0
 27 83  1  0  0  0  0
 28 31  2  0  0  0  0
 28 82  1  0  0  0  0
 29 84  1  0  0  0  0
 30 85  1  0  0  0  0
 31 86  1  0  0  0  0
 32 65  2  0  0  0  0
 33 66  1  0  0  0  0
 33 69  1  0  0  0  0
 34 70  1  0  0  0  0
 34 76  2  0  0  0  0
 35 54  1  0  0  0  0
 35 72  1  0  0  0  0
 35 77  2  0  0  0  0
 36 62  1  0  0  0  0
 36 67  1  0  0  0  0
 36 78  2  0  0  0  0
 37 61  1  0  0  0  0
 37 71  1  0  0  0  0
 37 79  2  0  0  0  0
 38 63  1  0  0  0  0
 38 73  1  0  0  0  0
 38 80  2  0  0  0  0
 39 68  1  0  0  0  0
 39 74  1  0  0  0  0
 39 81  2  0  0  0  0
 40 44  1  0  0  0  0
 41 54  1  0  0  0  0
 42 45  1  0  0  0  0
 43 67  1  0  0  0  0
 44 47  1  0  0  0  0
 45 48  1  0  0  0  0
 46 49  1  0  0  0  0
 46 50  1  0  0  0  0
 47 52  1  0  0  0  0
 48 53  1  0  0  0  0
 49 55  1  0  0  0  0
 50 68  1  0  0  0  0
 51 55  1  0  0  0  0
 51 68  1  0  0  0  0
 52 72  1  0  0  0  0
 53 74  1  0  0  0  0
 54 67  1  0  0  0  0
 55 66  1  0  0  0  0
 56 63  1  0  0  0  0
 57 64  1  0  0  0  0
 58 64  1  0  0  0  0
 59 64  1  0  0  0  0
 60 75  1  0  0  0  0
 61 83  1  0  0  0  0
 62 64  1  0  0  0  0
 62 73  1  0  0  0  0
 63 75  1  0  0  0  0
 65 66  1  0  0  0  0
M  CHG  1  75   1
M  ISO  4  39 100  61 101  74 100  83 101
M  END
> <Batch ID>
0029

> <Smiles>
CNC(C)C(=O)NC(C(=O)N1Cc2cc([101O:1][101CH2:1]C(=O)Nc3ccc(F)c4c3CCCC4[100NH:0][100C:0](=O)N3CCCC(n4nc(-c5ccc(Oc6ccc(F)cc6F)cc5)c(C(N)=O)c4N)C3)ccc2CC1C(=O)NC1CCCc2ccccc21)C(C)(C)C

> <Shape>
0.284

> <Color>
0.106

> <Negative vol penalty>
0.000

$$$$

  -OEChem-04042321343D

 85 94  0     1  0  0  0  0  0999 V2000
  -38.0497  -26.7259   30.5926 C   0  0  0  0  0  0  0  0  0  0  0  0
  -37.2796  -26.5994   29.4410 C   0  0  0  0  0  0  0  0  0  0  0  0
  -23.3069  -10.2171   22.2392 C   0  0  0  0  0  0  0  0  0  0  0  0
  -23.6011   -9.5282   19.9422 C   0  0  0  0  0  0  0  0  0  0  0  0
  -39.2009  -25.9549   30.7482 C   0  0  0  0  0  0  0  0  0  0  0  0
  -37.6608  -25.7024   28.4437 C   0  0  0  0  0  0  0  0  0  0  0  0
  -33.7704  -22.9728   26.6950 C   0  0  0  0  0  0  0  0  0  0  0  0
  -22.5617   -9.0649   22.4894 C   0  0  0  0  0  0  0  0  0  0  0  0
  -22.8559   -8.3759   20.1924 C   0  0  0  0  0  0  0  0  0  0  0  0
  -32.9086  -23.5969   25.7941 C   0  0  0  0  0  0  0  0  0  0  0  0
  -19.4108   -7.9697   21.9446 C   0  0  0  0  0  0  0  0  0  0  0  0
  -18.2273   -8.1089   22.6695 C   0  0  0  0  0  0  0  0  0  0  0  0
  -34.0274  -22.4898   23.9661 C   0  0  0  0  0  0  0  0  0  0  0  0
  -29.7052  -19.2894   22.3464 C   0  0  0  0  0  0  0  0  0  0  0  0
  -31.1544  -17.6804   20.5876 C   0  0  0  0  0  0  0  0  0  0  0  0
  -19.0913   -6.6212   24.3658 C   0  0  0  0  0  0  0  0  0  0  0  0
  -23.8266  -10.4488   20.9656 C   0  0  0  0  0  0  0  0  0  0  0  0
  -24.1685  -12.9737   20.8409 C   0  0  0  0  0  0  0  0  0  0  0  0
  -39.5912  -25.0411   29.7566 C   0  0  0  0  0  0  0  0  0  0  0  0
  -34.7758  -22.1095   26.2365 C   0  0  0  0  0  0  0  0  0  0  0  0
  -38.8191  -24.9195   28.5856 C   0  0  0  0  0  0  0  0  0  0  0  0
  -34.8990  -21.8540   24.8634 C   0  0  0  0  0  0  0  0  0  0  0  0
  -29.5246  -17.9064   22.3568 C   0  0  0  0  0  0  0  0  0  0  0  0
  -31.3349  -19.0635   20.5772 C   0  0  0  0  0  0  0  0  0  0  0  0
  -30.6103  -19.8680   21.4566 C   0  0  0  0  0  0  0  0  0  0  0  0
  -30.2492  -17.1018   21.4774 C   0  0  0  0  0  0  0  0  0  0  0  0
  -22.3362   -8.1442   21.4660 C   0  0  0  0  0  0  0  0  0  0  0  0
  -33.0389  -23.3578   24.4293 C   0  0  0  0  0  0  0  0  0  0  0  0
  -20.4346   -7.1562   22.4303 C   0  0  0  0  0  0  0  0  0  0  0  0
  -18.0675   -7.4347   23.8801 C   0  0  0  0  0  0  0  0  0  0  0  0
  -20.2748   -6.4820   23.6409 C   0  0  0  0  0  0  0  0  0  0  0  0
  -24.5959  -11.6392   20.7064 C   0  0  0  0  0  0  0  0  0  0  0  0
  -25.2611  -13.7225   20.4775 C   0  0  0  0  0  0  0  0  0  0  0  0
  -22.8975  -13.4904   21.2573 C   0  0  0  0  0  0  0  0  0  0  0  0
  -37.9519  -22.0980   26.3628 C   0  0  0  0  0  0  0  0  0  0  0  0
  -37.6054  -19.1571   25.0387 C   0  0  0  0  0  0  0  0  0  0  0  0
  -35.6838  -17.0127   23.2068 C   0  0  0  0  0  0  0  0  0  0  0  0
  -30.7271  -14.7685   20.6566 C   0  0  0  0  0  0  0  0  0  0  0  0
  -40.8693  -24.2637   29.9484 C   0  0  0  0  0  0  0  0  0  0  0  0
  -35.6803  -21.4232   27.2232 C   0  0  0  0  0  0  0  0  0  0  0  0
  -35.9490  -20.9199   24.3216 C   0  0  0  0  0  0  0  0  0  0  0  0
  -40.9997  -23.0653   29.0119 C   0  0  0  0  0  0  0  0  0  0  0  0
  -29.6155  -12.3500   18.2918 C   0  0  0  0  0  0  0  0  0  0  0  0
  -30.5618  -23.3889   20.2364 C   0  0  0  0  0  0  0  0  0  0  0  0
  -40.6409  -23.4625   27.5835 C   0  0  0  0  0  0  0  0  0  0  0  0
  -28.1753  -12.0592   18.7203 C   0  0  0  0  0  0  0  0  0  0  0  0
  -30.9896  -24.1351   21.4912 C   0  0  0  0  0  0  0  0  0  0  0  0
  -29.9128  -22.0486   20.5741 C   0  0  0  0  0  0  0  0  0  0  0  0
  -30.5292  -12.5812   19.4941 C   0  0  0  0  0  0  0  0  0  0  0  0
  -28.6206  -13.3084   20.8717 C   0  0  0  0  0  0  0  0  0  0  0  0
  -31.2614  -21.9208   22.6753 C   0  0  0  0  0  0  0  0  0  0  0  0
  -39.1863  -23.9395   27.4924 C   0  0  1  0  0  0  0  0  0  0  0  0
  -36.9977  -20.9633   26.6065 C   0  0  1  0  0  0  0  0  0  0  0  0
  -27.6492  -13.1327   19.6930 C   0  0  2  0  0  0  0  0  0  0  0  0
  -31.9075  -23.2664   22.3420 C   0  0  2  0  0  0  0  0  0  1  0  0
  -28.5479  -17.3139   23.3201 C   0  0  0  0  0  0  0  0  0  0  0  0
  -32.3108  -19.6571   19.6140 C   0  0  0  0  0  0  0  0  0  0  0  0
  -35.6833  -14.6903   22.2561 C   0  0  0  0  0  0  0  0  0  0  0  0
  -39.5172  -20.0599   22.8387 C   0  0  0  0  0  0  0  0  0  0  0  0
  -38.7439  -18.1150   21.4648 C   0  0  0  0  0  0  0  0  0  0  0  0
  -39.8866  -17.7224   23.6472 C   0  0  0  0  0  0  0  0  0  0  0  0
  -33.2988  -16.2438   24.7814 C   0  0  0  0  0  0  0  0  0  0  0  0
  -37.5239  -18.6221   23.6294 C   0  0  1  0  0  0  0  0  0  0  0  0
  -35.2914  -15.5645   23.4372 C   0  0  2  0  0  0  0  0  0  0  0  0
  -38.8992  -18.6490   22.9048 C   0  0  0  0  0  0  0  0  0  0  0  0
  -25.8613  -11.5425   20.2898 N   0  0  0  0  0  0  0  0  0  0  0  0
  -26.2383  -12.8258   20.1594 N   0  0  0  0  0  0  0  0  0  0  0  0
  -30.7789  -21.2583   21.4601 N   0  0  1  0  0  0  0  0  0  0  0  0
  -36.8134  -20.2779   25.3257 N   0  0  0  0  0  0  0  0  0  0  0  0
  -29.9691  -13.6137   20.3688 N   0  0  0  0  0  0  0  0  0  0  0  0
  -25.4716  -15.0538   20.4021 N   0  0  0  0  0  0  0  0  0  0  0  0
  -21.8852  -12.5819   21.5952 N   0  0  0  0  0  0  0  0  0  0  0  0
  -30.0787  -15.6952   21.4724 N   0  0  0  0  0  0  0  0  0  0  0  0
  -38.2823  -22.8094   27.5005 N   0  0  0  0  0  0  0  0  0  0  0  0
  -36.9278  -17.2944   23.7308 N   0  0  0  0  0  0  0  0  0  0  0  0
  -33.8188  -15.4523   23.6368 N   0  3  0  0  0  0  0  0  0  0  0  0
  -22.6612  -14.7211   21.3119 O   0  0  0  0  0  0  0  0  0  0  0  0
  -38.3595  -22.3114   25.2270 O   0  0  0  0  0  0  0  0  0  0  0  0
  -38.3393  -18.5969   25.8568 O   0  0  0  0  0  0  0  0  0  0  0  0
  -34.9608  -17.8131   22.6175 O   0  0  0  0  0  0  0  0  0  0  0  0
  -31.8567  -14.9363   20.1900 O   0  0  0  0  0  0  0  0  0  0  0  0
  -21.6093   -7.0196   21.7098 O   0  0  0  0  0  0  0  0  0  0  0  0
  -32.1994  -23.9662   23.5478 O   0  0  0  0  0  0  0  0  0  1  0  0
  -16.9315   -7.5697   24.5768 F   0  0  0  0  0  0  0  0  0  0  0  0
  -21.2553   -5.7000   24.1131 F   0  0  0  0  0  0  0  0  0  0  0  0
  1  2  1  0  0  0  0
  1  5  2  0  0  0  0
  2  6  2  0  0  0  0
  3  8  2  0  0  0  0
  3 17  1  0  0  0  0
  4  9  1  0  0  0  0
  4 17  2  0  0  0  0
  5 19  1  0  0  0  0
  6 21  1  0  0  0  0
  7 10  2  0  0  0  0
  7 20  1  0  0  0  0
  8 27  1  0  0  0  0
  9 27  2  0  0  0  0
 10 28  1  0  0  0  0
 11 12  2  0  0  0  0
 11 29  1  0  0  0  0
 12 30  1  0  0  0  0
 13 22  1  0  0  0  0
 13 28  2  0  0  0  0
 14 23  2  0  0  0  0
 14 25  1  0  0  0  0
 15 24  1  0  0  0  0
 15 26  2  0  0  0  0
 16 30  2  0  0  0  0
 16 31  1  0  0  0  0
 17 32  1  0  0  0  0
 18 32  1  0  0  0  0
 18 33  2  0  0  0  0
 18 34  1  0  0  0  0
 19 21  2  0  0  0  0
 19 39  1  0  0  0  0
 20 22  2  0  0  0  0
 20 40  1  0  0  0  0
 21 52  1  0  0  0  0
 22 41  1  0  0  0  0
 23 26  1  0  0  0  0
 23 56  1  0  0  0  0
 24 25  2  0  0  0  0
 24 57  1  0  0  0  0
 25 68  1  0  0  0  0
 26 73  1  0  0  0  0
 27 82  1  0  0  0  0
 28 83  1  0  0  0  0
 29 31  2  0  0  0  0
 29 82  1  0  0  0  0
 30 84  1  0  0  0  0
 31 85  1  0  0  0  0
 32 66  2  0  0  0  0
 33 67  1  0  0  0  0
 33 71  1  0  0  0  0
 34 72  1  0  0  0  0
 34 77  2  0  0  0  0
 35 53  1  0  0  0  0
 35 74  1  0  0  0  0
 35 78  2  0  0  0  0
 36 63  1  0  0  0  0
 36 69  1  0  0  0  0
 36 79  2  0  0  0  0
 37 64  1  0  0  0  0
 37 75  1  0  0  0  0
 37 80  2  0  0  0  0
 38 70  1  0  0  0  0
 38 73  1  0  0  0  0
 38 81  2  0  0  0  0
 39 42  1  0  0  0  0
 40 53  1  0  0  0  0
 41 69  1  0  0  0  0
 42 45  1  0  0  0  0
 43 46  1  0  0  0  0
 43 49  1  0  0  0  0
 44 47  1  0  0  0  0
 44 48  1  0  0  0  0
 45 52  1  0  0  0  0
 46 54  1  0  0  0  0
 47 55  1  0  0  0  0
 48 68  1  0  0  0  0
 49 70  1  0  0  0  0
 50 54  1  0  0  0  0
 50 70  1  0  0  0  0
 51 55  1  0  0  0  0
 51 68  1  0  0  0  0
 52 74  1  0  0  0  0
 53 69  1  0  0  0  0
 54 67  1  0  0  0  0
 55 83  1  0  0  0  0
 58 64  1  0  0  0  0
 59 65  1  0  0  0  0
 60 65  1  0  0  0  0
 61 65  1  0  0  0  0
 62 76  1  0  0  0  0
 63 65  1  0  0  0  0
 63 75  1  0  0  0  0
 64 76  1  0  0  0  0
 66 67  1  0  0  0  0
M  CHG  1  76   1
M  ISO  4  38 100  55 101  73 100  83 101
M  END
> <Batch ID>
0029

> <Smiles>
CNC(C)C(=O)NC(C(=O)N1Cc2cc([101O:1][101CH:1]3CCCN(c4cc(C)c([100NH:0][100C:0](=O)N5CCCC(n6nc(-c7ccc(Oc8ccc(F)cc8F)cc7)c(C(N)=O)c6N)C5)cc4C)C3)ccc2CC1C(=O)NC1CCCc2ccccc21)C(C)(C)C

> <Shape>
0.175

> <Color>
0.196

> <Negative vol penalty>
0.000

$$$$

  -OEChem-04042321343D

 85 94  0     1  0  0  0  0  0999 V2000
  -28.7549  -31.9593   26.0992 C   0  0  0  0  0  0  0  0  0  0  0  0
  -28.6488  -30.7888   25.3548 C   0  0  0  0  0  0  0  0  0  0  0  0
  -22.4302  -10.7381   20.8485 C   0  0  0  0  0  0  0  0  0  0  0  0
  -24.3964   -9.4540   21.4163 C   0  0  0  0  0  0  0  0  0  0  0  0
  -27.6044  -32.5972   26.5608 C   0  0  0  0  0  0  0  0  0  0  0  0
  -27.3919  -30.2549   25.0726 C   0  0  0  0  0  0  0  0  0  0  0  0
  -26.9428  -28.7896   20.2459 C   0  0  0  0  0  0  0  0  0  0  0  0
  -21.6474   -9.5891   20.9604 C   0  0  0  0  0  0  0  0  0  0  0  0
  -23.6135   -8.3049   21.5283 C   0  0  0  0  0  0  0  0  0  0  0  0
  -27.5300  -27.5757   19.8918 C   0  0  0  0  0  0  0  0  0  0  0  0
  -21.5155   -6.9334   23.7949 C   0  0  0  0  0  0  0  0  0  0  0  0
  -21.7313   -6.1091   24.8993 C   0  0  0  0  0  0  0  0  0  0  0  0
  -25.3756  -26.4996   20.0324 C   0  0  0  0  0  0  0  0  0  0  0  0
  -26.3482  -19.7934   21.1606 C   0  0  0  0  0  0  0  0  0  0  0  0
  -28.3507  -19.8132   22.5121 C   0  0  0  0  0  0  0  0  0  0  0  0
  -22.2949   -4.2805   23.4242 C   0  0  0  0  0  0  0  0  0  0  0  0
  -23.8047  -10.6705   21.0764 C   0  0  0  0  0  0  0  0  0  0  0  0
  -24.7817  -12.6634   19.8187 C   0  0  0  0  0  0  0  0  0  0  0  0
  -26.3324  -32.0762   26.2758 C   0  0  0  0  0  0  0  0  0  0  0  0
  -25.5672  -28.8655   20.5070 C   0  0  0  0  0  0  0  0  0  0  0  0
  -26.2233  -30.8858   25.5319 C   0  0  0  0  0  0  0  0  0  0  0  0
  -24.7730  -27.7162   20.3871 C   0  0  0  0  0  0  0  0  0  0  0  0
  -26.8120  -20.9050   20.4571 C   0  0  0  0  0  0  0  0  0  0  0  0
  -28.0451  -21.4707   20.7811 C   0  0  0  0  0  0  0  0  0  0  0  0
  -27.1176  -19.2475   22.1881 C   0  0  0  0  0  0  0  0  0  0  0  0
  -22.2390   -8.3725   21.3003 C   0  0  0  0  0  0  0  0  0  0  0  0
  -26.7468  -26.4298   19.7878 C   0  0  0  0  0  0  0  0  0  0  0  0
  -21.6893   -6.4313   22.5052 C   0  0  0  0  0  0  0  0  0  0  0  0
  -22.1210   -4.7827   24.7139 C   0  0  0  0  0  0  0  0  0  0  0  0
  -22.0790   -5.1049   22.3199 C   0  0  0  0  0  0  0  0  0  0  0  0
  -28.8145  -20.9248   21.8086 C   0  0  0  0  0  0  0  0  0  0  0  0
  -24.6140  -11.8570   20.9604 C   0  0  0  0  0  0  0  0  0  0  0  0
  -25.6395  -13.6569   20.2230 C   0  0  0  0  0  0  0  0  0  0  0  0
  -24.2127  -12.5266   18.5097 C   0  0  0  0  0  0  0  0  0  0  0  0
  -23.8033  -29.6282   23.0390 C   0  0  0  0  0  0  0  0  0  0  0  0
  -21.3540  -29.3418   20.9315 C   0  0  0  0  0  0  0  0  0  0  0  0
  -19.2439  -28.6061   18.3522 C   0  0  0  0  0  0  0  0  0  0  0  0
  -27.2853  -17.4534   23.9487 C   0  0  0  0  0  0  0  0  0  0  0  0
  -25.1193  -32.7753   26.8365 C   0  0  0  0  0  0  0  0  0  0  0  0
  -24.9446  -30.1880   20.8618 C   0  0  0  0  0  0  0  0  0  0  0  0
  -23.2881  -27.7487   20.6372 C   0  0  0  0  0  0  0  0  0  0  0  0
  -23.8109  -32.3490   26.1756 C   0  0  0  0  0  0  0  0  0  0  0  0
  -28.4026  -14.1087   24.4400 C   0  0  0  0  0  0  0  0  0  0  0  0
  -29.2086  -23.5153   17.8987 C   0  0  0  0  0  0  0  0  0  0  0  0
  -23.7409  -30.8295   26.0614 C   0  0  0  0  0  0  0  0  0  0  0  0
  -27.5304  -13.2910   23.4846 C   0  0  0  0  0  0  0  0  0  0  0  0
  -29.5439  -24.8339   18.5871 C   0  0  0  0  0  0  0  0  0  0  0  0
  -29.3057  -22.3384   18.8651 C   0  0  0  0  0  0  0  0  0  0  0  0
  -27.6251  -15.2625   25.0708 C   0  0  0  0  0  0  0  0  0  0  0  0
  -26.0695  -15.3279   23.1617 C   0  0  0  0  0  0  0  0  0  0  0  0
  -28.7420  -23.8483   20.7809 C   0  0  0  0  0  0  0  0  0  0  0  0
  -24.8767  -30.2893   25.1841 C   0  0  1  0  0  0  0  0  0  0  0  0
  -23.6210  -30.0446   21.6068 C   0  0  1  0  0  0  0  0  0  0  0  0
  -26.8266  -14.1934   22.4521 C   0  0  2  0  0  0  0  0  0  0  0  0
  -28.6772  -25.0414   19.8255 C   0  0  2  0  0  0  0  0  0  1  0  0
  -25.9643  -21.4664   19.3617 C   0  0  0  0  0  0  0  0  0  0  0  0
  -16.8044  -28.4813   17.7771 C   0  0  0  0  0  0  0  0  0  0  0  0
  -21.1259  -26.7214   22.4779 C   0  0  0  0  0  0  0  0  0  0  0  0
  -19.0832  -26.1862   21.1329 C   0  0  0  0  0  0  0  0  0  0  0  0
  -19.1082  -28.1926   22.6150 C   0  0  0  0  0  0  0  0  0  0  0  0
  -19.5167  -30.6650   16.2438 C   0  0  0  0  0  0  0  0  0  0  0  0
  -20.4599  -28.2129   20.4785 C   0  0  1  0  0  0  0  0  0  0  0  0
  -18.0510  -29.3523   17.7824 C   0  0  2  0  0  0  0  0  0  0  0  0
  -19.9691  -27.3337   21.6632 C   0  0  0  0  0  0  0  0  0  0  0  0
  -25.3097  -12.2998   22.0111 N   0  0  0  0  0  0  0  0  0  0  0  0
  -25.9228  -13.3952   21.5312 N   0  0  0  0  0  0  0  0  0  0  0  0
  -28.4997  -22.5866   20.0674 N   0  0  2  0  0  0  0  0  0  0  0  0
  -22.7271  -29.0640   20.9875 N   0  0  0  0  0  0  0  0  0  0  0  0
  -26.9892  -16.0765   24.0326 N   0  0  0  0  0  0  0  0  0  0  0  0
  -26.1717  -14.7200   19.5835 N   0  0  0  0  0  0  0  0  0  0  0  0
  -23.3514  -11.4485   18.2649 N   0  0  0  0  0  0  0  0  0  0  0  0
  -26.6467  -18.1177   22.9020 N   0  0  0  0  0  0  0  0  0  0  0  0
  -24.5767  -30.4980   23.7838 N   0  0  0  0  0  0  0  0  0  0  0  0
  -19.3860  -28.8277   19.7057 N   0  0  0  0  0  0  0  0  0  0  0  0
  -18.3295  -29.7829   16.3831 N   0  3  0  0  0  0  0  0  0  0  0  0
  -24.4738  -13.3273   17.5800 O   0  0  0  0  0  0  0  0  0  0  0  0
  -23.2797  -28.5950   23.4391 O   0  0  0  0  0  0  0  0  0  0  0  0
  -20.8532  -30.4321   21.2181 O   0  0  0  0  0  0  0  0  0  0  0  0
  -19.9741  -27.8945   17.6660 O   0  0  0  0  0  0  0  0  0  0  0  0
  -28.0703  -17.9972   24.7298 O   0  0  0  0  0  0  0  0  0  0  0  0
  -21.4754   -7.2511   21.4099 O   0  0  0  0  0  0  0  0  0  0  0  0
  -27.3175  -25.2435   19.4430 O   0  0  0  0  0  0  0  0  0  1  0  0
  -22.3297   -3.9917   25.7745 F   0  0  0  0  0  0  0  0  0  0  0  0
  -22.2488   -4.6171   21.0833 F   0  0  0  0  0  0  0  0  0  0  0  0
  -30.3479  -21.5924   22.2435 Cl  0  0  0  0  0  0  0  0  0  0  0  0
  1  2  1  0  0  0  0
  1  5  2  0  0  0  0
  2  6  2  0  0  0  0
  3  8  2  0  0  0  0
  3 17  1  0  0  0  0
  4  9  1  0  0  0  0
  4 17  2  0  0  0  0
  5 19  1  0  0  0  0
  6 21  1  0  0  0  0
  7 10  2  0  0  0  0
  7 20  1  0  0  0  0
  8 26  1  0  0  0  0
  9 26  2  0  0  0  0
 10 27  1  0  0  0  0
 11 12  2  0  0  0  0
 11 28  1  0  0  0  0
 12 29  1  0  0  0  0
 13 22  1  0  0  0  0
 13 27  2  0  0  0  0
 14 23  2  0  0  0  0
 14 25  1  0  0  0  0
 15 25  2  0  0  0  0
 15 31  1  0  0  0  0
 16 29  2  0  0  0  0
 16 30  1  0  0  0  0
 17 32  1  0  0  0  0
 18 32  1  0  0  0  0
 18 33  2  0  0  0  0
 18 34  1  0  0  0  0
 19 21  2  0  0  0  0
 19 39  1  0  0  0  0
 20 22  2  0  0  0  0
 20 40  1  0  0  0  0
 21 52  1  0  0  0  0
 22 41  1  0  0  0  0
 23 24  1  0  0  0  0
 23 56  1  0  0  0  0
 24 31  2  0  0  0  0
 24 67  1  0  0  0  0
 25 72  1  0  0  0  0
 26 81  1  0  0  0  0
 27 82  1  0  0  0  0
 28 30  2  0  0  0  0
 28 81  1  0  0  0  0
 29 83  1  0  0  0  0
 30 84  1  0  0  0  0
 31 85  1  0  0  0  0
 32 65  2  0  0  0  0
 33 66  1  0  0  0  0
 33 70  1  0  0  0  0
 34 71  1  0  0  0  0
 34 76  2  0  0  0  0
 35 53  1  0  0  0  0
 35 73  1  0  0  0  0
 35 77  2  0  0  0  0
 36 62  1  0  0  0  0
 36 68  1  0  0  0  0
 36 78  2  0  0  0  0
 37 63  1  0  0  0  0
 37 74  1  0  0  0  0
 37 79  2  0  0  0  0
 38 69  1  0  0  0  0
 38 72  1  0  0  0  0
 38 80  2  0  0  0  0
 39 42  1  0  0  0  0
 40 53  1  0  0  0  0
 41 68  1  0  0  0  0
 42 45  1  0  0  0  0
 43 46  1  0  0  0  0
 43 49  1  0  0  0  0
 44 47  1  0  0  0  0
 44 48  1  0  0  0  0
 45 52  1  0  0  0  0
 46 54  1  0  0  0  0
 47 55  1  0  0  0  0
 48 67  1  0  0  0  0
 49 69  1  0  0  0  0
 50 54  1  0  0  0  0
 50 69  1  0  0  0  0
 51 55  1  0  0  0  0
 51 67  1  0  0  0  0
 52 73  1  0  0  0  0
 53 68  1  0  0  0  0
 54 66  1  0  0  0  0
 55 82  1  0  0  0  0
 57 63  1  0  0  0  0
 58 64  1  0  0  0  0
 59 64  1  0  0  0  0
 60 64  1  0  0  0  0
 61 75  1  0  0  0  0
 62 64  1  0  0  0  0
 62 74  1  0  0  0  0
 63 75  1  0  0  0  0
 65 66  1  0  0  0  0
M  CHG  1  75   1
M  ISO  4  38 100  55 101  72 100  82 101
M  END
> <Batch ID>
0029

> <Smiles>
CNC(C)C(=O)NC(C(=O)N1Cc2cc([101O:1][101CH:1]3CCCN(c4c(C)cc([100NH:0][100C:0](=O)N5CCCC(n6nc(-c7ccc(Oc8ccc(F)cc8F)cc7)c(C(N)=O)c6N)C5)cc4Cl)C3)ccc2CC1C(=O)NC1CCCc2ccccc21)C(C)(C)C

> <Shape>
0.319

> <Color>
0.118

> <Negative vol penalty>
0.000

$$$$

  -OEChem-04042321343D

 89 99  0     1  0  0  0  0  0999 V2000
  -17.1929  -31.7122   21.2209 C   0  0  0  0  0  0  0  0  0  0  0  0
  -18.2982  -31.4563   20.4158 C   0  0  0  0  0  0  0  0  0  0  0  0
  -26.4131  -13.2898   19.2596 C   0  0  0  0  0  0  0  0  0  0  0  0
  -26.4294  -12.6817   21.5978 C   0  0  0  0  0  0  0  0  0  0  0  0
  -17.3179  -31.6691   22.6089 C   0  0  0  0  0  0  0  0  0  0  0  0
  -19.5296  -31.1582   20.9983 C   0  0  0  0  0  0  0  0  0  0  0  0
  -23.7854  -27.3149   18.8481 C   0  0  0  0  0  0  0  0  0  0  0  0
  -25.1534  -12.7079   19.1171 C   0  0  0  0  0  0  0  0  0  0  0  0
  -25.1697  -12.0999   21.4553 C   0  0  0  0  0  0  0  0  0  0  0  0
  -24.9573  -27.5240   18.1224 C   0  0  0  0  0  0  0  0  0  0  0  0
  -23.8792   -9.2158   20.2523 C   0  0  0  0  0  0  0  0  0  0  0  0
  -23.6754   -7.9622   20.8289 C   0  0  0  0  0  0  0  0  0  0  0  0
  -26.2261  -27.4927   20.1737 C   0  0  0  0  0  0  0  0  0  0  0  0
  -29.7475  -22.7541   18.9979 C   0  0  0  0  0  0  0  0  0  0  0  0
  -29.6018  -22.5504   21.7764 C   0  0  0  0  0  0  0  0  0  0  0  0
  -21.9117   -8.8802   22.2013 C   0  0  0  0  0  0  0  0  0  0  0  0
  -27.0511  -13.2766   20.5000 C   0  0  0  0  0  0  0  0  0  0  0  0
  -29.5339  -13.5235   19.9685 C   0  0  0  0  0  0  0  0  0  0  0  0
  -18.5492  -31.3608   23.2086 C   0  0  0  0  0  0  0  0  0  0  0  0
  -23.8238  -27.2039   20.2455 C   0  0  0  0  0  0  0  0  0  0  0  0
  -19.6715  -31.1123   22.3956 C   0  0  0  0  0  0  0  0  0  0  0  0
  -25.0536  -27.2798   20.9147 C   0  0  0  0  0  0  0  0  0  0  0  0
  -29.7557  -21.4991   19.6066 C   0  0  0  0  0  0  0  0  0  0  0  0
  -29.6666  -23.9073   19.7785 C   0  0  0  0  0  0  0  0  0  0  0  0
  -29.6828  -21.3972   20.9958 C   0  0  0  0  0  0  0  0  0  0  0  0
  -24.5317  -12.1131   20.2149 C   0  0  0  0  0  0  0  0  0  0  0  0
  -26.1775  -27.6158   18.7854 C   0  0  0  0  0  0  0  0  0  0  0  0
  -23.0993  -10.3017   20.6502 C   0  0  0  0  0  0  0  0  0  0  0  0
  -22.6916   -7.7944   21.8034 C   0  0  0  0  0  0  0  0  0  0  0  0
  -22.1155  -10.1339   21.6247 C   0  0  0  0  0  0  0  0  0  0  0  0
  -29.5937  -23.8054   21.1677 C   0  0  0  0  0  0  0  0  0  0  0  0
  -28.3526  -13.8769   20.6477 C   0  0  0  0  0  0  0  0  0  0  0  0
  -30.4836  -14.3855   20.4599 C   0  0  0  0  0  0  0  0  0  0  0  0
  -29.7531  -12.5069   18.9814 C   0  0  0  0  0  0  0  0  0  0  0  0
  -22.5865  -28.8574   22.6619 C   0  0  0  0  0  0  0  0  0  0  0  0
  -23.8238  -26.4413   24.4379 C   0  0  0  0  0  0  0  0  0  0  0  0
  -26.1239  -23.9358   24.7187 C   0  0  0  0  0  0  0  0  0  0  0  0
  -30.1811  -19.8298   22.9040 C   0  0  0  0  0  0  0  0  0  0  0  0
  -18.6467  -31.3725   24.7136 C   0  0  0  0  0  0  0  0  0  0  0  0
  -22.5541  -26.9519   21.0115 C   0  0  0  0  0  0  0  0  0  0  0  0
  -25.1514  -27.1469   22.4118 C   0  0  0  0  0  0  0  0  0  0  0  0
  -19.8981  -30.6809   25.2482 C   0  0  0  0  0  0  0  0  0  0  0  0
  -29.2164  -18.5315   17.4123 C   0  0  0  0  0  0  0  0  0  0  0  0
  -30.7178  -18.4965   17.6137 C   0  0  0  0  0  0  0  0  0  0  0  0
  -31.5815  -16.9078   24.3799 C   0  0  0  0  0  0  0  0  0  0  0  0
  -30.9716  -27.0101   18.1794 C   0  0  0  0  0  0  0  0  0  0  0  0
  -21.1311  -31.1342   24.4729 C   0  0  0  0  0  0  0  0  0  0  0  0
  -31.0247  -15.7673   23.5248 C   0  0  0  0  0  0  0  0  0  0  0  0
  -29.6789  -27.6540   17.7013 C   0  0  0  0  0  0  0  0  0  0  0  0
  -28.8624  -19.9708   17.7686 C   0  0  0  0  0  0  0  0  0  0  0  0
  -30.9094  -19.3476   18.8638 C   0  0  0  0  0  0  0  0  0  0  0  0
  -30.8284  -25.4958   18.3133 C   0  0  0  0  0  0  0  0  0  0  0  0
  -30.5577  -18.0255   24.5707 C   0  0  0  0  0  0  0  0  0  0  0  0
  -29.4180  -17.4113   22.4748 C   0  0  0  0  0  0  0  0  0  0  0  0
  -28.3835  -25.7629   18.7617 C   0  0  0  0  0  0  0  0  0  0  0  0
  -21.0182  -30.7610   22.9898 C   0  0  1  0  0  0  0  0  0  0  0  0
  -22.6474  -27.3675   22.4763 C   0  0  1  0  0  0  0  0  0  0  0  0
  -30.4353  -16.2916   22.2007 C   0  0  2  0  0  0  0  0  0  0  0  0
  -28.5237  -27.2793   18.6212 C   0  0  2  0  0  0  0  0  0  1  0  0
  -26.9160  -22.1572   26.3019 C   0  0  0  0  0  0  0  0  0  0  0  0
  -25.2451  -28.5635   26.1071 C   0  0  0  0  0  0  0  0  0  0  0  0
  -26.7208  -26.7582   27.0189 C   0  0  0  0  0  0  0  0  0  0  0  0
  -24.2614  -26.6824   27.4293 C   0  0  0  0  0  0  0  0  0  0  0  0
  -25.4596  -21.7757   22.8076 C   0  0  0  0  0  0  0  0  0  0  0  0
  -25.1478  -26.1818   25.1151 C   0  0  1  0  0  0  0  0  0  0  0  0
  -25.9862  -22.4850   25.1440 C   0  0  2  0  0  0  0  0  0  0  0  0
  -25.3421  -27.0509   26.3896 C   0  0  0  0  0  0  0  0  0  0  0  0
  -28.5329  -14.8848   21.5055 N   0  0  0  0  0  0  0  0  0  0  0  0
  -29.8386  -15.1720   21.3685 N   0  0  0  0  0  0  0  0  0  0  0  0
  -29.8371  -20.3483   18.7995 N   0  0  0  0  0  0  0  0  0  0  0  0
  -29.6619  -25.1531   19.1389 N   0  0  1  0  0  0  0  0  0  0  0  0
  -23.8813  -26.9076   23.1169 N   0  0  0  0  0  0  0  0  0  0  0  0
  -30.0462  -18.4749   23.2741 N   0  0  0  0  0  0  0  0  0  0  0  0
  -31.7991  -14.5398   20.1992 N   0  0  0  0  0  0  0  0  0  0  0  0
  -29.5843  -12.8398   17.6305 N   0  0  0  0  0  0  0  0  0  0  0  0
  -29.6871  -20.1329   21.6357 N   0  0  0  0  0  0  0  0  0  0  0  0
  -21.3049  -29.3553   22.7992 N   0  0  0  0  0  0  0  0  0  0  0  0
  -25.2076  -24.7444   25.3573 N   0  0  0  0  0  0  0  0  0  0  0  0
  -26.3136  -21.5787   24.0072 N   0  3  0  0  0  0  0  0  0  0  0  0
  -30.0728  -11.3336   19.2893 O   0  0  0  0  0  0  0  0  0  0  0  0
  -23.6255  -29.5068   22.6807 O   0  0  0  0  0  0  0  0  0  0  0  0
  -22.7771  -26.2310   25.0558 O   0  0  0  0  0  0  0  0  0  0  0  0
  -26.9629  -24.3144   23.9044 O   0  0  0  0  0  0  0  0  0  0  0  0
  -30.7214  -20.6544   23.6456 O   0  0  0  0  0  0  0  0  0  0  0  0
  -23.3024  -11.5455   20.0762 O   0  0  0  0  0  0  0  0  0  0  0  0
  -27.3228  -27.8205   18.0795 O   0  0  0  0  0  0  0  0  0  1  0  0
  -22.4949   -6.5901   22.3559 F   0  0  0  0  0  0  0  0  0  0  0  0
  -21.3624  -11.1731   22.0102 F   0  0  0  0  0  0  0  0  0  0  0  0
  -29.4949  -25.2081   22.1714 Cl  0  0  0  0  0  0  0  0  0  0  0  0
  1  2  1  0  0  0  0
  1  5  2  0  0  0  0
  2  6  2  0  0  0  0
  3  8  2  0  0  0  0
  3 17  1  0  0  0  0
  4  9  1  0  0  0  0
  4 17  2  0  0  0  0
  5 19  1  0  0  0  0
  6 21  1  0  0  0  0
  7 10  2  0  0  0  0
  7 20  1  0  0  0  0
  8 26  1  0  0  0  0
  9 26  2  0  0  0  0
 10 27  1  0  0  0  0
 11 12  2  0  0  0  0
 11 28  1  0  0  0  0
 12 29  1  0  0  0  0
 13 22  1  0  0  0  0
 13 27  2  0  0  0  0
 14 23  2  0  0  0  0
 14 24  1  0  0  0  0
 15 25  2  0  0  0  0
 15 31  1  0  0  0  0
 16 29  2  0  0  0  0
 16 30  1  0  0  0  0
 17 32  1  0  0  0  0
 18 32  1  0  0  0  0
 18 33  2  0  0  0  0
 18 34  1  0  0  0  0
 19 21  2  0  0  0  0
 19 39  1  0  0  0  0
 20 22  2  0  0  0  0
 20 40  1  0  0  0  0
 21 56  1  0  0  0  0
 22 41  1  0  0  0  0
 23 25  1  0  0  0  0
 23 70  1  0  0  0  0
 24 31  2  0  0  0  0
 24 71  1  0  0  0  0
 25 76  1  0  0  0  0
 26 85  1  0  0  0  0
 27 86  1  0  0  0  0
 28 30  2  0  0  0  0
 28 85  1  0  0  0  0
 29 87  1  0  0  0  0
 30 88  1  0  0  0  0
 31 89  1  0  0  0  0
 32 68  2  0  0  0  0
 33 69  1  0  0  0  0
 33 74  1  0  0  0  0
 34 75  1  0  0  0  0
 34 80  2  0  0  0  0
 35 57  1  0  0  0  0
 35 77  1  0  0  0  0
 35 81  2  0  0  0  0
 36 65  1  0  0  0  0
 36 72  1  0  0  0  0
 36 82  2  0  0  0  0
 37 66  1  0  0  0  0
 37 78  1  0  0  0  0
 37 83  2  0  0  0  0
 38 73  1  0  0  0  0
 38 76  1  0  0  0  0
 38 84  2  0  0  0  0
 39 42  1  0  0  0  0
 40 57  1  0  0  0  0
 41 72  1  0  0  0  0
 42 47  1  0  0  0  0
 43 44  1  0  0  0  0
 43 50  1  0  0  0  0
 44 51  1  0  0  0  0
 45 48  1  0  0  0  0
 45 53  1  0  0  0  0
 46 49  1  0  0  0  0
 46 52  1  0  0  0  0
 47 56  1  0  0  0  0
 48 58  1  0  0  0  0
 49 59  1  0  0  0  0
 50 70  1  0  0  0  0
 51 70  1  0  0  0  0
 52 71  1  0  0  0  0
 53 73  1  0  0  0  0
 54 58  1  0  0  0  0
 54 73  1  0  0  0  0
 55 59  1  0  0  0  0
 55 71  1  0  0  0  0
 56 77  1  0  0  0  0
 57 72  1  0  0  0  0
 58 69  1  0  0  0  0
 59 86  1  0  0  0  0
 60 66  1  0  0  0  0
 61 67  1  0  0  0  0
 62 67  1  0  0  0  0
 63 67  1  0  0  0  0
 64 79  1  0  0  0  0
 65 67  1  0  0  0  0
 65 78  1  0  0  0  0
 66 79  1  0  0  0  0
 68 69  1  0  0  0  0
M  CHG  1  79   1
M  ISO  4  38 100  59 101  76 100  86 101
M  END
> <Batch ID>
0029

> <Smiles>
CNC(C)C(=O)NC(C(=O)N1Cc2cc([101O:1][101CH:1]3CCCN(c4cc(N5CCCC5)c([100NH:0][100C:0](=O)N5CCCC(n6nc(-c7ccc(Oc8ccc(F)cc8F)cc7)c(C(N)=O)c6N)C5)cc4Cl)C3)ccc2CC1C(=O)NC1CCCc2ccccc21)C(C)(C)C

> <Shape>
0.264

> <Color>
0.075

> <Negative vol penalty>
0.000

$$$$

  -OEChem-04042321343D

 83 92  0     1  0  0  0  0  0999 V2000
  -26.1133  -35.3658   23.1423 C   0  0  0  0  0  0  0  0  0  0  0  0
  -26.6408  -34.1033   22.8908 C   0  0  0  0  0  0  0  0  0  0  0  0
  -26.5276  -12.8501   21.4556 C   0  0  0  0  0  0  0  0  0  0  0  0
  -26.3484  -13.5101   19.1384 C   0  0  0  0  0  0  0  0  0  0  0  0
  -24.8463  -35.4901   23.7109 C   0  0  0  0  0  0  0  0  0  0  0  0
  -25.9020  -32.9642   23.2089 C   0  0  0  0  0  0  0  0  0  0  0  0
  -25.9951  -29.4956   19.5204 C   0  0  0  0  0  0  0  0  0  0  0  0
  -25.2506  -12.2923   21.3955 C   0  0  0  0  0  0  0  0  0  0  0  0
  -25.0714  -12.9522   19.0782 C   0  0  0  0  0  0  0  0  0  0  0  0
  -27.1431  -28.7120   19.4121 C   0  0  0  0  0  0  0  0  0  0  0  0
  -23.8232   -9.4568   20.2311 C   0  0  0  0  0  0  0  0  0  0  0  0
  -23.6403   -8.1940   20.7946 C   0  0  0  0  0  0  0  0  0  0  0  0
  -26.0191  -26.9165   20.5663 C   0  0  0  0  0  0  0  0  0  0  0  0
  -29.0647  -21.5018   15.4816 C   0  0  0  0  0  0  0  0  0  0  0  0
  -29.6270  -22.3302   18.0855 C   0  0  0  0  0  0  0  0  0  0  0  0
  -21.9992   -9.1094   22.3131 C   0  0  0  0  0  0  0  0  0  0  0  0
  -27.0765  -13.4591   20.3271 C   0  0  0  0  0  0  0  0  0  0  0  0
  -29.6176  -13.3948   20.1114 C   0  0  0  0  0  0  0  0  0  0  0  0
  -24.0877  -34.3521   24.0272 C   0  0  0  0  0  0  0  0  0  0  0  0
  -24.8521  -28.9987   20.1632 C   0  0  0  0  0  0  0  0  0  0  0  0
  -24.6243  -33.0734   23.7835 C   0  0  0  0  0  0  0  0  0  0  0  0
  -24.8570  -27.6949   20.6792 C   0  0  0  0  0  0  0  0  0  0  0  0
  -28.9664  -22.8512   15.8207 C   0  0  0  0  0  0  0  0  0  0  0  0
  -29.2475  -23.2654   17.1226 C   0  0  0  0  0  0  0  0  0  0  0  0
  -29.7253  -20.9807   17.7464 C   0  0  0  0  0  0  0  0  0  0  0  0
  -24.5225  -12.3433   20.2068 C   0  0  0  0  0  0  0  0  0  0  0  0
  -27.1562  -27.4233   19.9376 C   0  0  0  0  0  0  0  0  0  0  0  0
  -23.0942  -10.5459   20.7087 C   0  0  0  0  0  0  0  0  0  0  0  0
  -22.7283   -8.0203   21.8356 C   0  0  0  0  0  0  0  0  0  0  0  0
  -22.1822  -10.3722   21.7497 C   0  0  0  0  0  0  0  0  0  0  0  0
  -29.4441  -20.5665   16.4444 C   0  0  0  0  0  0  0  0  0  0  0  0
  -28.3954  -14.0360   20.3887 C   0  0  0  0  0  0  0  0  0  0  0  0
  -30.5681  -14.3654   20.3135 C   0  0  0  0  0  0  0  0  0  0  0  0
  -29.8709  -12.0427   19.7072 C   0  0  0  0  0  0  0  0  0  0  0  0
  -23.1789  -29.8396   22.7316 C   0  0  0  0  0  0  0  0  0  0  0  0
  -21.1817  -27.4929   21.7183 C   0  0  0  0  0  0  0  0  0  0  0  0
  -20.7634  -24.6159   19.9310 C   0  0  0  0  0  0  0  0  0  0  0  0
  -30.4214  -20.3344   20.0796 C   0  0  0  0  0  0  0  0  0  0  0  0
  -22.7425  -34.5359   24.6840 C   0  0  0  0  0  0  0  0  0  0  0  0
  -23.6129  -29.8469   20.2482 C   0  0  0  0  0  0  0  0  0  0  0  0
  -23.6493  -27.1073   21.3607 C   0  0  0  0  0  0  0  0  0  0  0  0
  -21.8699  -33.2840   24.6459 C   0  0  0  0  0  0  0  0  0  0  0  0
  -31.3829  -18.3355   22.8648 C   0  0  0  0  0  0  0  0  0  0  0  0
  -22.6777  -32.0574   25.0580 C   0  0  0  0  0  0  0  0  0  0  0  0
  -30.8424  -16.9463   22.5178 C   0  0  0  0  0  0  0  0  0  0  0  0
  -30.4398  -19.4435   22.3993 C   0  0  0  0  0  0  0  0  0  0  0  0
  -29.5185  -17.9910   20.6355 C   0  0  0  0  0  0  0  0  0  0  0  0
  -29.9085  -25.2811   18.4757 C   0  0  0  0  0  0  0  0  0  0  0  0
  -27.9607  -25.3536   17.6829 C   0  0  0  0  0  0  0  0  0  0  0  0
  -23.8433  -31.8143   24.0917 C   0  0  1  0  0  0  0  0  0  0  0  0
  -22.6770  -29.4261   21.3771 C   0  0  1  0  0  0  0  0  0  0  0  0
  -30.4652  -16.8446   21.0269 C   0  0  2  0  0  0  0  0  0  0  0  0
  -28.7927  -26.3345   18.5215 C   0  0  0  0  0  0  0  0  0  1  0  0
  -28.5570  -23.8314   14.7700 C   0  0  0  0  0  0  0  0  0  0  0  0
  -19.0260  -22.9113   19.3202 C   0  0  0  0  0  0  0  0  0  0  0  0
  -21.3971  -26.2771   24.5086 C   0  0  0  0  0  0  0  0  0  0  0  0
  -20.4588  -24.1505   23.5785 C   0  0  0  0  0  0  0  0  0  0  0  0
  -19.0964  -26.2395   23.5290 C   0  0  0  0  0  0  0  0  0  0  0  0
  -21.0314  -25.2072   17.0435 C   0  0  0  0  0  0  0  0  0  0  0  0
  -21.0670  -26.0075   21.9621 C   0  0  1  0  0  0  0  0  0  0  0  0
  -19.7137  -24.2055   18.9140 C   0  0  2  0  0  0  0  0  0  0  0  0
  -20.5284  -25.6801   23.3835 C   0  0  0  0  0  0  0  0  0  0  0  0
  -28.5522  -15.3150   20.7403 N   0  0  0  0  0  0  0  0  0  0  0  0
  -29.8842  -15.4853   20.6854 N   0  0  0  0  0  0  0  0  0  0  0  0
  -29.1526  -24.6062   17.4786 N   0  0  0  0  0  0  0  0  0  0  0  0
  -22.4639  -27.9781   21.4244 N   0  0  0  0  0  0  0  0  0  0  0  0
  -30.1301  -19.2850   20.9767 N   0  0  0  0  0  0  0  0  0  0  0  0
  -31.9139  -14.3616   20.2076 N   0  0  0  0  0  0  0  0  0  0  0  0
  -28.7799  -11.1779   19.5460 N   0  0  0  0  0  0  0  0  0  0  0  0
  -30.1135  -20.0569   18.7481 N   0  0  0  0  0  0  0  0  0  0  0  0
  -23.3676  -31.2015   22.8700 N   0  0  0  0  0  0  0  0  0  0  0  0
  -20.2490  -25.4777   20.8765 N   0  0  0  0  0  0  0  0  0  0  0  0
  -20.3389  -24.0056   17.5761 N   0  3  0  0  0  0  0  0  0  0  0  0
  -31.0318  -11.6096   19.5111 O   0  0  0  0  0  0  0  0  0  0  0  0
  -23.3786  -28.9864   23.5883 O   0  0  0  0  0  0  0  0  0  0  0  0
  -20.1698  -28.1957   21.7792 O   0  0  0  0  0  0  0  0  0  0  0  0
  -21.9227  -24.2096   19.8927 O   0  0  0  0  0  0  0  0  0  0  0  0
  -30.9334  -21.3903   20.4603 O   0  0  0  0  0  0  0  0  0  0  0  0
  -23.2764  -11.7988   20.1477 O   0  0  0  0  0  0  0  0  0  0  0  0
  -28.2757  -26.6565   19.8339 O   0  0  0  0  0  0  0  0  0  1  0  0
  -22.5515   -6.8073   22.3755 F   0  0  0  0  0  0  0  0  0  0  0  0
  -21.4781  -11.4145   22.2119 F   0  0  0  0  0  0  0  0  0  0  0  0
  -29.5534  -18.9055   15.9821 Cl  0  0  0  0  0  0  0  0  0  0  0  0
  1  2  1  0  0  0  0
  1  5  2  0  0  0  0
  2  6  2  0  0  0  0
  3  8  2  0  0  0  0
  3 17  1  0  0  0  0
  4  9  1  0  0  0  0
  4 17  2  0  0  0  0
  5 19  1  0  0  0  0
  6 21  1  0  0  0  0
  7 10  2  0  0  0  0
  7 20  1  0  0  0  0
  8 26  1  0  0  0  0
  9 26  2  0  0  0  0
 10 27  1  0  0  0  0
 11 12  2  0  0  0  0
 11 28  1  0  0  0  0
 12 29  1  0  0  0  0
 13 22  1  0  0  0  0
 13 27  2  0  0  0  0
 14 23  1  0  0  0  0
 14 31  2  0  0  0  0
 15 24  1  0  0  0  0
 15 25  2  0  0  0  0
 16 29  2  0  0  0  0
 16 30  1  0  0  0  0
 17 32  1  0  0  0  0
 18 32  1  0  0  0  0
 18 33  2  0  0  0  0
 18 34  1  0  0  0  0
 19 21  2  0  0  0  0
 19 39  1  0  0  0  0
 20 22  2  0  0  0  0
 20 40  1  0  0  0  0
 21 50  1  0  0  0  0
 22 41  1  0  0  0  0
 23 24  2  0  0  0  0
 23 54  1  0  0  0  0
 24 65  1  0  0  0  0
 25 31  1  0  0  0  0
 25 70  1  0  0  0  0
 26 79  1  0  0  0  0
 27 80  1  0  0  0  0
 28 30  2  0  0  0  0
 28 79  1  0  0  0  0
 29 81  1  0  0  0  0
 30 82  1  0  0  0  0
 31 83  1  0  0  0  0
 32 63  2  0  0  0  0
 33 64  1  0  0  0  0
 33 68  1  0  0  0  0
 34 69  1  0  0  0  0
 34 74  2  0  0  0  0
 35 51  1  0  0  0  0
 35 71  1  0  0  0  0
 35 75  2  0  0  0  0
 36 60  1  0  0  0  0
 36 66  1  0  0  0  0
 36 76  2  0  0  0  0
 37 61  1  0  0  0  0
 37 72  1  0  0  0  0
 37 77  2  0  0  0  0
 38 67  1  0  0  0  0
 38 70  1  0  0  0  0
 38 78  2  0  0  0  0
 39 42  1  0  0  0  0
 40 51  1  0  0  0  0
 41 66  1  0  0  0  0
 42 44  1  0  0  0  0
 43 45  1  0  0  0  0
 43 46  1  0  0  0  0
 44 50  1  0  0  0  0
 45 52  1  0  0  0  0
 46 67  1  0  0  0  0
 47 52  1  0  0  0  0
 47 67  1  0  0  0  0
 48 53  1  0  0  0  0
 48 65  1  0  0  0  0
 49 53  1  0  0  0  0
 49 65  1  0  0  0  0
 50 71  1  0  0  0  0
 51 66  1  0  0  0  0
 52 64  1  0  0  0  0
 53 80  1  0  0  0  0
 55 61  1  0  0  0  0
 56 62  1  0  0  0  0
 57 62  1  0  0  0  0
 58 62  1  0  0  0  0
 59 73  1  0  0  0  0
 60 62  1  0  0  0  0
 60 72  1  0  0  0  0
 61 73  1  0  0  0  0
 63 64  1  0  0  0  0
M  CHG  1  73   1
M  ISO  4  38 100  53 101  70 100  80 101
M  END
> <Batch ID>
0029

> <Smiles>
CNC(C)C(=O)NC(C(=O)N1Cc2cc([101O:1][101CH:1]3CN(c4cc([100NH:0][100C:0](=O)N5CCCC(n6nc(-c7ccc(Oc8ccc(F)cc8F)cc7)c(C(N)=O)c6N)C5)c(Cl)cc4C)C3)ccc2CC1C(=O)NC1CCCc2ccccc21)C(C)(C)C

> <Shape>
0.324

> <Color>
0.106

> <Negative vol penalty>
0.000

$$$$

  -OEChem-04042321343D

 86 95  0     1  0  0  0  0  0999 V2000
  -20.9607  -27.5871   21.1639 C   0  0  0  0  0  0  0  0  0  0  0  0
  -21.7726  -26.4837   21.4064 C   0  0  0  0  0  0  0  0  0  0  0  0
  -23.0763   -9.8660   19.9411 C   0  0  0  0  0  0  0  0  0  0  0  0
  -23.8319   -9.8770   22.2359 C   0  0  0  0  0  0  0  0  0  0  0  0
  -20.9925  -28.6785   22.0309 C   0  0  0  0  0  0  0  0  0  0  0  0
  -22.6175  -26.4716   22.5155 C   0  0  0  0  0  0  0  0  0  0  0  0
  -24.1431  -21.6208   25.9285 C   0  0  0  0  0  0  0  0  0  0  0  0
  -31.5600  -19.3850   22.8534 C   0  0  0  0  0  0  0  0  0  0  0  0
  -22.3327   -8.7128   20.1915 C   0  0  0  0  0  0  0  0  0  0  0  0
  -23.0882   -8.7238   22.4863 C   0  0  0  0  0  0  0  0  0  0  0  0
  -25.2626  -20.7899   25.9302 C   0  0  0  0  0  0  0  0  0  0  0  0
  -19.3822   -7.9167   21.6385 C   0  0  0  0  0  0  0  0  0  0  0  0
  -18.0762   -7.8689   21.1509 C   0  0  0  0  0  0  0  0  0  0  0  0
  -31.4395  -19.1535   21.4832 C   0  0  0  0  0  0  0  0  0  0  0  0
  -26.2333  -22.1114   27.6996 C   0  0  0  0  0  0  0  0  0  0  0  0
  -18.6396   -5.9241   19.8328 C   0  0  0  0  0  0  0  0  0  0  0  0
  -23.8260  -10.4481   20.9633 C   0  0  0  0  0  0  0  0  0  0  0  0
  -24.1665  -12.9733   20.8400 C   0  0  0  0  0  0  0  0  0  0  0  0
  -21.8312  -28.6757   23.1566 C   0  0  0  0  0  0  0  0  0  0  0  0
  -24.0650  -22.7116   26.8063 C   0  0  0  0  0  0  0  0  0  0  0  0
  -22.6616  -27.5645   23.3977 C   0  0  0  0  0  0  0  0  0  0  0  0
  -25.1105  -22.9531   27.7088 C   0  0  0  0  0  0  0  0  0  0  0  0
  -31.1894  -18.3948   23.7633 C   0  0  0  0  0  0  0  0  0  0  0  0
  -30.6981  -17.1732   23.3029 C   0  0  0  0  0  0  0  0  0  0  0  0
  -30.5776  -16.9417   21.9327 C   0  0  0  0  0  0  0  0  0  0  0  0
  -22.3386   -8.1417   21.4641 C   0  0  0  0  0  0  0  0  0  0  0  0
  -26.3092  -21.0368   26.8138 C   0  0  0  0  0  0  0  0  0  0  0  0
  -20.3169   -6.9682   21.2232 C   0  0  0  0  0  0  0  0  0  0  0  0
  -17.7049   -6.8726   20.2481 C   0  0  0  0  0  0  0  0  0  0  0  0
  -19.9456   -5.9719   20.3204 C   0  0  0  0  0  0  0  0  0  0  0  0
  -30.9483  -17.9319   21.0228 C   0  0  0  0  0  0  0  0  0  0  0  0
  -24.5948  -11.6390   20.7052 C   0  0  0  0  0  0  0  0  0  0  0  0
  -25.2589  -13.7228   20.4776 C   0  0  0  0  0  0  0  0  0  0  0  0
  -30.1657  -19.2443   27.3028 C   0  0  0  0  0  0  0  0  0  0  0  0
  -30.5645  -18.3042   28.1679 C   0  0  0  0  0  0  0  0  0  0  0  0
  -22.8949  -13.4890   21.2557 C   0  0  0  0  0  0  0  0  0  0  0  0
  -23.8520  -25.8634   26.4542 C   0  0  0  0  0  0  0  0  0  0  0  0
  -23.4987  -25.8082   29.6782 C   0  0  0  0  0  0  0  0  0  0  0  0
  -24.0373  -24.1717   32.6242 C   0  0  0  0  0  0  0  0  0  0  0  0
  -30.7241  -14.7720   20.6608 C   0  0  0  0  0  0  0  0  0  0  0  0
  -21.8658  -29.8983   24.0391 C   0  0  0  0  0  0  0  0  0  0  0  0
  -22.8387  -23.5826   26.8104 C   0  0  0  0  0  0  0  0  0  0  0  0
  -25.0664  -24.0989   28.6853 C   0  0  0  0  0  0  0  0  0  0  0  0
  -29.6417  -20.5972   27.6711 C   0  0  0  0  0  0  0  0  0  0  0  0
  -22.5136  -29.6498   25.3988 C   0  0  0  0  0  0  0  0  0  0  0  0
  -29.6156  -12.3538   18.2943 C   0  0  0  0  0  0  0  0  0  0  0  0
  -23.8198  -28.8792   25.2351 C   0  0  0  0  0  0  0  0  0  0  0  0
  -28.1753  -12.0620   18.7216 C   0  0  0  0  0  0  0  0  0  0  0  0
  -30.5283  -12.5851   19.4973 C   0  0  0  0  0  0  0  0  0  0  0  0
  -28.6183  -13.3105   20.8738 C   0  0  0  0  0  0  0  0  0  0  0  0
  -29.2923  -20.1543   25.3295 C   0  0  0  0  0  0  0  0  0  0  0  0
  -23.5733  -27.5035   24.6040 C   0  0  1  0  0  0  0  0  0  0  0  0
  -23.0928  -24.9693   27.3933 C   0  0  1  0  0  0  0  0  0  0  0  0
  -27.6478  -13.1348   19.6945 C   0  0  2  0  0  0  0  0  0  0  0  0
  -28.6595  -20.8354   26.5348 C   0  0  1  0  0  0  0  0  0  1  0  0
  -30.3045  -16.1153   24.2864 C   0  0  0  0  0  0  0  0  0  0  0  0
  -23.6682  -24.3928   35.0965 C   0  0  0  0  0  0  0  0  0  0  0  0
  -25.7906  -27.8160   29.8384 C   0  0  0  0  0  0  0  0  0  0  0  0
  -26.0019  -27.2751   32.2738 C   0  0  0  0  0  0  0  0  0  0  0  0
  -23.8907  -28.2750   31.3985 C   0  0  0  0  0  0  0  0  0  0  0  0
  -22.3658  -21.7309   32.7103 C   0  0  0  0  0  0  0  0  0  0  0  0
  -31.3285  -18.6706   25.2315 C   0  0  0  0  0  0  0  0  0  0  0  0
  -24.4388  -25.8668   30.8579 C   0  0  1  0  0  0  0  0  0  0  0  0
  -23.1120  -23.8580   33.7860 C   0  0  2  0  0  0  0  0  0  0  0  0
  -25.0325  -27.2877   31.0725 C   0  0  0  0  0  0  0  0  0  0  0  0
  -25.8605  -11.5433   20.2894 N   0  0  0  0  0  0  0  0  0  0  0  0
  -26.2369  -12.8269   20.1597 N   0  0  0  0  0  0  0  0  0  0  0  0
  -23.8490  -24.9259   28.6464 N   0  0  0  0  0  0  0  0  0  0  0  0
  -29.9671  -13.6169   20.3720 N   0  0  0  0  0  0  0  0  0  0  0  0
  -25.4686  -15.0543   20.4028 N   0  0  0  0  0  0  0  0  0  0  0  0
  -21.8829  -12.5797   21.5925 N   0  0  0  0  0  0  0  0  0  0  0  0
  -30.0746  -15.6980   21.4766 N   0  0  0  0  0  0  0  0  0  0  0  0
  -23.0490  -26.5821   25.5892 N   0  0  0  0  0  0  0  0  0  0  0  0
  -23.6923  -25.3522   32.0008 N   0  0  0  0  0  0  0  0  0  0  0  0
  -30.0168  -18.9404   25.9054 N   0  3  1  0  0  0  0  0  0  0  0  0
  -22.9289  -22.3850   33.9194 N   0  3  0  0  0  0  0  0  0  0  0  0
  -22.6578  -14.7195   21.3106 O   0  0  0  0  0  0  0  0  0  0  0  0
  -25.0755  -25.8998   26.5112 O   0  0  0  0  0  0  0  0  0  0  0  0
  -22.4869  -26.5138   29.6757 O   0  0  0  0  0  0  0  0  0  0  0  0
  -24.9748  -23.4443   32.3041 O   0  0  0  0  0  0  0  0  0  0  0  0
  -31.8540  -14.9407   20.1951 O   0  0  0  0  0  0  0  0  0  0  0  0
  -21.6129   -7.0166   21.7089 O   0  0  0  0  0  0  0  0  0  0  0  0
  -27.4034  -20.2277   26.8171 O   0  0  0  0  0  0  0  0  0  1  0  0
  -16.4504   -6.8259   19.7811 F   0  0  0  0  0  0  0  0  0  0  0  0
  -20.8388   -5.0573   19.9187 F   0  0  0  0  0  0  0  0  0  0  0  0
  -30.8215  -17.6896   19.3164 Cl  0  0  0  0  0  0  0  0  0  0  0  0
  1  2  1  0  0  0  0
  1  5  2  0  0  0  0
  2  6  2  0  0  0  0
  3  9  2  0  0  0  0
  3 17  1  0  0  0  0
  4 10  1  0  0  0  0
  4 17  2  0  0  0  0
  5 19  1  0  0  0  0
  6 21  1  0  0  0  0
  7 11  2  0  0  0  0
  7 20  1  0  0  0  0
  8 14  2  0  0  0  0
  8 23  1  0  0  0  0
  9 26  1  0  0  0  0
 10 26  2  0  0  0  0
 11 27  1  0  0  0  0
 12 13  2  0  0  0  0
 12 28  1  0  0  0  0
 13 29  1  0  0  0  0
 14 31  1  0  0  0  0
 15 22  1  0  0  0  0
 15 27  2  0  0  0  0
 16 29  2  0  0  0  0
 16 30  1  0  0  0  0
 17 32  1  0  0  0  0
 18 32  1  0  0  0  0
 18 33  2  0  0  0  0
 18 36  1  0  0  0  0
 19 21  2  0  0  0  0
 19 41  1  0  0  0  0
 20 22  2  0  0  0  0
 20 42  1  0  0  0  0
 21 52  1  0  0  0  0
 22 43  1  0  0  0  0
 23 24  2  0  0  0  0
 23 62  1  0  0  0  0
 24 25  1  0  0  0  0
 24 56  1  0  0  0  0
 25 31  2  0  0  0  0
 25 72  1  0  0  0  0
 26 82  1  0  0  0  0
 27 83  1  0  0  0  0
 28 30  2  0  0  0  0
 28 82  1  0  0  0  0
 29 84  1  0  0  0  0
 30 85  1  0  0  0  0
 31 86  1  0  0  0  0
 32 66  2  0  0  0  0
 33 67  1  0  0  0  0
 33 70  1  0  0  0  0
 34 35  2  0  0  0  0
 34 44  1  0  0  0  0
 34 75  1  0  0  0  0
 36 71  1  0  0  0  0
 36 77  2  0  0  0  0
 37 53  1  0  0  0  0
 37 73  1  0  0  0  0
 37 78  2  0  0  0  0
 38 63  1  0  0  0  0
 38 68  1  0  0  0  0
 38 79  2  0  0  0  0
 39 64  1  0  0  0  0
 39 74  1  0  0  0  0
 39 80  2  0  0  0  0
 40 69  1  0  0  0  0
 40 72  1  0  0  0  0
 40 81  2  0  0  0  0
 41 45  1  0  0  0  0
 42 53  1  0  0  0  0
 43 68  1  0  0  0  0
 44 55  1  0  0  0  0
 45 47  1  0  0  0  0
 46 48  1  0  0  0  0
 46 49  1  0  0  0  0
 47 52  1  0  0  0  0
 48 54  1  0  0  0  0
 49 69  1  0  0  0  0
 50 54  1  0  0  0  0
 50 69  1  0  0  0  0
 51 55  1  0  0  0  0
 51 75  1  0  0  0  0
 52 73  1  0  0  0  0
 53 68  1  0  0  0  0
 54 67  1  0  0  0  0
 55 83  1  0  0  0  0
 57 64  1  0  0  0  0
 58 65  1  0  0  0  0
 59 65  1  0  0  0  0
 60 65  1  0  0  0  0
 61 76  1  0  0  0  0
 62 75  1  0  0  0  0
 63 65  1  0  0  0  0
 63 74  1  0  0  0  0
 64 76  1  0  0  0  0
 66 67  1  0  0  0  0
M  CHG  2  75   1  76   1
M  ISO  4  40 100  55 101  72 100  83 101
M  END
> <Batch ID>
0029

> <Smiles>
C=C1C[101CH:1]([101O:1]c2ccc3c(c2)CN(C(=O)C(NC(=O)C(C)NC)C(C)(C)C)C(C(=O)NC2CCCc4ccccc42)C3)CN1Cc1ccc(Cl)c([100NH:0][100C:0](=O)N2CCCC(n3nc(-c4ccc(Oc5ccc(F)cc5F)cc4)c(C(N)=O)c3N)C2)c1C

> <Shape>
0.186

> <Color>
0.187

> <Negative vol penalty>
0.000

$$$$

  -OEChem-04042321343D

 84 93  0     1  0  0  0  0  0999 V2000
  -31.4568  -34.9750   24.2386 C   0  0  0  0  0  0  0  0  0  0  0  0
  -31.5854  -33.6660   23.7854 C   0  0  0  0  0  0  0  0  0  0  0  0
  -23.3202   -9.7001   20.0709 C   0  0  0  0  0  0  0  0  0  0  0  0
  -23.7918  -10.0815   22.4095 C   0  0  0  0  0  0  0  0  0  0  0  0
  -30.3784  -35.3281   25.0487 C   0  0  0  0  0  0  0  0  0  0  0  0
  -30.6363  -32.7091   24.1430 C   0  0  0  0  0  0  0  0  0  0  0  0
  -28.6551  -28.0311   20.7229 C   0  0  0  0  0  0  0  0  0  0  0  0
  -22.6367   -8.5295   20.3996 C   0  0  0  0  0  0  0  0  0  0  0  0
  -23.1083   -8.9109   22.7383 C   0  0  0  0  0  0  0  0  0  0  0  0
  -28.9971  -26.6798   20.6935 C   0  0  0  0  0  0  0  0  0  0  0  0
  -19.8969   -7.9179   23.0873 C   0  0  0  0  0  0  0  0  0  0  0  0
  -19.0075   -7.9682   24.1607 C   0  0  0  0  0  0  0  0  0  0  0  0
  -27.1273  -26.1815   22.1339 C   0  0  0  0  0  0  0  0  0  0  0  0
  -30.6783  -18.2003   20.4819 C   0  0  0  0  0  0  0  0  0  0  0  0
  -28.9286  -19.9167   21.8142 C   0  0  0  0  0  0  0  0  0  0  0  0
  -20.2865   -6.2646   25.3004 C   0  0  0  0  0  0  0  0  0  0  0  0
  -23.8978  -10.4761   21.0758 C   0  0  0  0  0  0  0  0  0  0  0  0
  -24.0681  -12.9827   20.6336 C   0  0  0  0  0  0  0  0  0  0  0  0
  -29.4104  -34.3773   25.4086 C   0  0  0  0  0  0  0  0  0  0  0  0
  -27.5512  -28.4699   21.4681 C   0  0  0  0  0  0  0  0  0  0  0  0
  -29.5447  -33.0495   24.9599 C   0  0  0  0  0  0  0  0  0  0  0  0
  -26.7719  -27.5385   22.1690 C   0  0  0  0  0  0  0  0  0  0  0  0
  -30.7699  -19.5784   20.2871 C   0  0  0  0  0  0  0  0  0  0  0  0
  -29.8951  -20.4366   20.9532 C   0  0  0  0  0  0  0  0  0  0  0  0
  -29.7118  -17.6804   21.3429 C   0  0  0  0  0  0  0  0  0  0  0  0
  -22.5307   -8.1348   21.7333 C   0  0  0  0  0  0  0  0  0  0  0  0
  -28.2349  -25.7551   21.4013 C   0  0  0  0  0  0  0  0  0  0  0  0
  -20.9811   -7.0409   23.1205 C   0  0  0  0  0  0  0  0  0  0  0  0
  -19.2023   -7.1416   25.2672 C   0  0  0  0  0  0  0  0  0  0  0  0
  -21.1759   -6.2143   24.2270 C   0  0  0  0  0  0  0  0  0  0  0  0
  -28.8369  -18.5386   22.0090 C   0  0  0  0  0  0  0  0  0  0  0  0
  -24.6044  -11.6852   20.7369 C   0  0  0  0  0  0  0  0  0  0  0  0
  -25.1394  -13.7706   20.2899 C   0  0  0  0  0  0  0  0  0  0  0  0
  -22.7220  -13.4353   20.8308 C   0  0  0  0  0  0  0  0  0  0  0  0
  -27.1482  -30.4292   23.9384 C   0  0  0  0  0  0  0  0  0  0  0  0
  -24.0033  -29.9008   23.3448 C   0  0  0  0  0  0  0  0  0  0  0  0
  -21.6081  -27.8674   22.0124 C   0  0  0  0  0  0  0  0  0  0  0  0
  -30.4533  -15.3106   20.9178 C   0  0  0  0  0  0  0  0  0  0  0  0
  -28.2879  -34.7952   26.3251 C   0  0  0  0  0  0  0  0  0  0  0  0
  -27.1798  -29.9274   21.4680 C   0  0  0  0  0  0  0  0  0  0  0  0
  -25.5652  -27.9556   22.9679 C   0  0  0  0  0  0  0  0  0  0  0  0
  -27.1232  -33.8088   26.3508 C   0  0  0  0  0  0  0  0  0  0  0  0
  -29.8140  -12.5121   18.8113 C   0  0  0  0  0  0  0  0  0  0  0  0
  -27.6370  -32.3798   26.4954 C   0  0  0  0  0  0  0  0  0  0  0  0
  -28.3575  -12.1543   19.1160 C   0  0  0  0  0  0  0  0  0  0  0  0
  -30.2635  -23.8998   19.7405 C   0  0  0  0  0  0  0  0  0  0  0  0
  -30.5565  -12.9800   20.0617 C   0  0  0  0  0  0  0  0  0  0  0  0
  -29.8038  -22.4650   19.4826 C   0  0  0  0  0  0  0  0  0  0  0  0
  -28.4478  -13.7110   21.1048 C   0  0  0  0  0  0  0  0  0  0  0  0
  -30.2254  -22.7578   21.8506 C   0  0  0  0  0  0  0  0  0  0  0  0
  -28.5223  -31.9888   25.3060 C   0  0  1  0  0  0  0  0  0  0  0  0
  -26.3395  -30.3300   22.6760 C   0  0  1  0  0  0  0  0  0  0  0  0
  -27.6412  -13.2960   19.8635 C   0  0  2  0  0  0  0  0  0  0  0  0
  -29.9443  -24.1175   21.2124 C   0  0  2  0  0  0  0  0  0  1  0  0
  -31.8144  -20.1083   19.3593 C   0  0  0  0  0  0  0  0  0  0  0  0
  -19.1232  -27.6836   21.7143 C   0  0  0  0  0  0  0  0  0  0  0  0
  -23.7135  -29.0993   26.2746 C   0  0  0  0  0  0  0  0  0  0  0  0
  -21.5172  -28.0454   25.6967 C   0  0  0  0  0  0  0  0  0  0  0  0
  -21.8413  -30.4991   25.3859 C   0  0  0  0  0  0  0  0  0  0  0  0
  -21.8447  -27.8754   19.0624 C   0  0  0  0  0  0  0  0  0  0  0  0
  -22.9834  -28.8883   23.8071 C   0  0  1  0  0  0  0  0  0  0  0  0
  -20.4302  -28.1615   21.1010 C   0  0  2  0  0  0  0  0  0  0  0  0
  -22.5377  -29.1251   25.2777 C   0  0  0  0  0  0  0  0  0  0  0  0
  -25.9145  -11.6467   20.4795 N   0  0  0  0  0  0  0  0  0  0  0  0
  -26.2104  -12.9298   20.2110 N   0  0  0  0  0  0  0  0  0  0  0  0
  -29.9718  -21.8016   20.7722 N   0  0  3  0  0  0  0  0  0  0  0  0
  -25.2463  -29.3927   22.9417 N   0  0  0  0  0  0  0  0  0  0  0  0
  -29.8215  -14.0654   20.7148 N   0  0  0  0  0  0  0  0  0  0  0  0
  -25.2603  -15.0937   20.0505 N   0  0  0  0  0  0  0  0  0  0  0  0
  -21.7449  -12.4934   21.1806 N   0  0  0  0  0  0  0  0  0  0  0  0
  -29.6456  -16.2759   21.5182 N   0  0  0  0  0  0  0  0  0  0  0  0
  -27.7080  -31.6744   24.1516 N   0  0  0  0  0  0  0  0  0  0  0  0
  -21.8941  -28.9344   22.8377 N   0  0  0  0  0  0  0  0  0  0  0  0
  -20.6094  -27.4811   19.7873 N   0  3  0  0  0  0  0  0  0  0  0  0
  -22.3922  -14.6367   20.6845 O   0  0  0  0  0  0  0  0  0  0  0  0
  -27.2552  -29.4489   24.6660 O   0  0  0  0  0  0  0  0  0  0  0  0
  -23.7054  -31.0978   23.3347 O   0  0  0  0  0  0  0  0  0  0  0  0
  -22.2116  -26.7969   21.9966 O   0  0  0  0  0  0  0  0  0  0  0  0
  -31.6158  -15.5146   20.5589 O   0  0  0  0  0  0  0  0  0  0  0  0
  -21.8637   -6.9927   22.0544 O   0  0  0  0  0  0  0  0  0  0  0  0
  -28.5668  -24.4357   21.3748 O   0  0  0  0  0  0  0  0  0  1  0  0
  -18.3490   -7.1911   26.2985 F   0  0  0  0  0  0  0  0  0  0  0  0
  -22.2163   -5.3706   24.2651 F   0  0  0  0  0  0  0  0  0  0  0  0
  -27.6255  -17.9368   23.0839 Cl  0  0  0  0  0  0  0  0  0  0  0  0
  1  2  1  0  0  0  0
  1  5  2  0  0  0  0
  2  6  2  0  0  0  0
  3  8  2  0  0  0  0
  3 17  1  0  0  0  0
  4  9  1  0  0  0  0
  4 17  2  0  0  0  0
  5 19  1  0  0  0  0
  6 21  1  0  0  0  0
  7 10  2  0  0  0  0
  7 20  1  0  0  0  0
  8 26  1  0  0  0  0
  9 26  2  0  0  0  0
 10 27  1  0  0  0  0
 11 12  2  0  0  0  0
 11 28  1  0  0  0  0
 12 29  1  0  0  0  0
 13 22  1  0  0  0  0
 13 27  2  0  0  0  0
 14 23  1  0  0  0  0
 14 25  2  0  0  0  0
 15 24  1  0  0  0  0
 15 31  2  0  0  0  0
 16 29  2  0  0  0  0
 16 30  1  0  0  0  0
 17 32  1  0  0  0  0
 18 32  1  0  0  0  0
 18 33  2  0  0  0  0
 18 34  1  0  0  0  0
 19 21  2  0  0  0  0
 19 39  1  0  0  0  0
 20 22  2  0  0  0  0
 20 40  1  0  0  0  0
 21 51  1  0  0  0  0
 22 41  1  0  0  0  0
 23 24  2  0  0  0  0
 23 55  1  0  0  0  0
 24 66  1  0  0  0  0
 25 31  1  0  0  0  0
 25 71  1  0  0  0  0
 26 80  1  0  0  0  0
 27 81  1  0  0  0  0
 28 30  2  0  0  0  0
 28 80  1  0  0  0  0
 29 82  1  0  0  0  0
 30 83  1  0  0  0  0
 31 84  1  0  0  0  0
 32 64  2  0  0  0  0
 33 65  1  0  0  0  0
 33 69  1  0  0  0  0
 34 70  1  0  0  0  0
 34 75  2  0  0  0  0
 35 52  1  0  0  0  0
 35 72  1  0  0  0  0
 35 76  2  0  0  0  0
 36 61  1  0  0  0  0
 36 67  1  0  0  0  0
 36 77  2  0  0  0  0
 37 62  1  0  0  0  0
 37 73  1  0  0  0  0
 37 78  2  0  0  0  0
 38 68  1  0  0  0  0
 38 71  1  0  0  0  0
 38 79  2  0  0  0  0
 39 42  1  0  0  0  0
 40 52  1  0  0  0  0
 41 67  1  0  0  0  0
 42 44  1  0  0  0  0
 43 45  1  0  0  0  0
 43 47  1  0  0  0  0
 44 51  1  0  0  0  0
 45 53  1  0  0  0  0
 46 48  1  0  0  0  0
 46 54  1  0  0  0  0
 47 68  1  0  0  0  0
 48 66  1  0  0  0  0
 49 53  1  0  0  0  0
 49 68  1  0  0  0  0
 50 54  1  0  0  0  0
 50 66  1  0  0  0  0
 51 72  1  0  0  0  0
 52 67  1  0  0  0  0
 53 65  1  0  0  0  0
 54 81  1  0  0  0  0
 56 62  1  0  0  0  0
 57 63  1  0  0  0  0
 58 63  1  0  0  0  0
 59 63  1  0  0  0  0
 60 74  1  0  0  0  0
 61 63  1  0  0  0  0
 61 73  1  0  0  0  0
 62 74  1  0  0  0  0
 64 65  1  0  0  0  0
M  CHG  1  74   1
M  ISO  4  38 100  54 101  71 100  81 101
M  END
> <Batch ID>
0029

> <Smiles>
CNC(C)C(=O)NC(C(=O)N1Cc2cc([101O:1][101CH:1]3CCN(c4cc(Cl)c([100NH:0][100C:0](=O)N5CCCC(n6nc(-c7ccc(Oc8ccc(F)cc8F)cc7)c(C(N)=O)c6N)C5)cc4C)C3)ccc2CC1C(=O)NC1CCCc2ccccc21)C(C)(C)C

> <Shape>
0.343

> <Color>
0.187

> <Negative vol penalty>
0.000

$$$$

  -OEChem-04042321343D

 87 96  0     1  0  0  0  0  0999 V2000
  -27.4177  -28.3627   19.4333 C   0  0  0  0  0  0  0  0  0  0  0  0
  -26.7096  -27.1683   19.3636 C   0  0  0  0  0  0  0  0  0  0  0  0
  -30.2247  -23.5199   19.7285 C   0  0  0  0  0  0  0  0  0  0  0  0
  -28.7179  -22.7812   17.9904 C   0  0  0  0  0  0  0  0  0  0  0  0
  -26.8556  -29.4653   20.0732 C   0  0  0  0  0  0  0  0  0  0  0  0
  -25.4345  -27.0796   19.9232 C   0  0  0  0  0  0  0  0  0  0  0  0
  -22.9157  -22.9346   19.0996 C   0  0  0  0  0  0  0  0  0  0  0  0
  -30.5609  -24.6362   18.9628 C   0  0  0  0  0  0  0  0  0  0  0  0
  -29.0540  -23.8976   17.2246 C   0  0  0  0  0  0  0  0  0  0  0  0
  -23.2428  -21.7212   19.7034 C   0  0  0  0  0  0  0  0  0  0  0  0
  -32.0854  -27.4938   17.3095 C   0  0  0  0  0  0  0  0  0  0  0  0
  -33.4351  -27.8314   17.2100 C   0  0  0  0  0  0  0  0  0  0  0  0
  -21.3936  -21.9888   21.2292 C   0  0  0  0  0  0  0  0  0  0  0  0
  -24.1178  -12.1181   20.3740 C   0  0  0  0  0  0  0  0  0  0  0  0
  -26.4724  -12.6399   20.2303 C   0  0  0  0  0  0  0  0  0  0  0  0
  -33.9011  -25.6770   16.2208 C   0  0  0  0  0  0  0  0  0  0  0  0
  -29.3033  -22.5923   19.2423 C   0  0  0  0  0  0  0  0  0  0  0  0
  -27.9168  -21.3364   20.9768 C   0  0  0  0  0  0  0  0  0  0  0  0
  -25.5781  -29.3856   20.6515 C   0  0  0  0  0  0  0  0  0  0  0  0
  -21.8298  -23.6907   19.5639 C   0  0  0  0  0  0  0  0  0  0  0  0
  -24.8403  -28.1885   20.5523 C   0  0  0  0  0  0  0  0  0  0  0  0
  -21.0532  -23.2102   20.6279 C   0  0  0  0  0  0  0  0  0  0  0  0
  -25.4237  -11.7344   20.0691 C   0  0  0  0  0  0  0  0  0  0  0  0
  -23.8605  -13.4074   20.8401 C   0  0  0  0  0  0  0  0  0  0  0  0
  -26.2151  -13.9293   20.6964 C   0  0  0  0  0  0  0  0  0  0  0  0
  -24.9092  -14.3130   21.0013 C   0  0  0  0  0  0  0  0  0  0  0  0
  -29.9755  -24.8251   17.7108 C   0  0  0  0  0  0  0  0  0  0  0  0
  -22.4835  -21.2496   20.7702 C   0  0  0  0  0  0  0  0  0  0  0  0
  -31.6435  -26.2478   16.8647 C   0  0  0  0  0  0  0  0  0  0  0  0
  -34.3429  -26.9230   16.6657 C   0  0  0  0  0  0  0  0  0  0  0  0
  -32.5513  -25.3394   16.3203 C   0  0  0  0  0  0  0  0  0  0  0  0
  -28.9561  -21.4386   20.0327 C   0  0  0  0  0  0  0  0  0  0  0  0
  -28.0050  -20.0488   21.4464 C   0  0  0  0  0  0  0  0  0  0  0  0
  -26.9575  -22.3177   21.3920 C   0  0  0  0  0  0  0  0  0  0  0  0
  -21.4912  -26.5858   20.8318 C   0  0  0  0  0  0  0  0  0  0  0  0
  -18.3308  -25.8963   20.5886 C   0  0  0  0  0  0  0  0  0  0  0  0
  -15.8912  -23.5181   20.3905 C   0  0  0  0  0  0  0  0  0  0  0  0
  -28.6452  -14.5845   20.5891 C   0  0  0  0  0  0  0  0  0  0  0  0
  -25.0145  -30.6119   21.3251 C   0  0  0  0  0  0  0  0  0  0  0  0
  -21.4738  -24.9846   18.8845 C   0  0  0  0  0  0  0  0  0  0  0  0
  -19.8652  -23.9742   21.1509 C   0  0  0  0  0  0  0  0  0  0  0  0
  -23.8578  -30.2942   22.2671 C   0  0  0  0  0  0  0  0  0  0  0  0
  -20.3023  -14.5249   20.8941 C   0  0  0  0  0  0  0  0  0  0  0  0
  -20.5401  -14.1843   22.3513 C   0  0  0  0  0  0  0  0  0  0  0  0
  -31.6063  -16.5494   20.8088 C   0  0  0  0  0  0  0  0  0  0  0  0
  -22.8415  -29.4084   21.5621 C   0  0  0  0  0  0  0  0  0  0  0  0
  -31.0953  -17.9881   20.7041 C   0  0  0  0  0  0  0  0  0  0  0  0
  -21.4210  -13.7700   20.1851 C   0  0  0  0  0  0  0  0  0  0  0  0
  -22.0604  -14.2125   22.4596 C   0  0  0  0  0  0  0  0  0  0  0  0
  -30.8114  -15.5988   19.9154 C   0  0  0  0  0  0  0  0  0  0  0  0
  -28.8447  -17.0800   19.9991 C   0  0  0  0  0  0  0  0  0  0  0  0
  -23.4644  -28.0595   21.1805 C   0  0  1  0  0  0  0  0  0  0  0  0
  -20.6593  -25.9209   19.7718 C   0  0  1  0  0  0  0  0  0  0  0  0
  -29.5726  -18.0632   20.9304 C   0  0  2  0  0  0  0  0  0  0  0  0
  -25.6992  -10.3565   19.5694 C   0  0  0  0  0  0  0  0  0  0  0  0
  -13.3996  -23.2598   20.2398 C   0  0  0  0  0  0  0  0  0  0  0  0
  -18.0844  -26.5662   23.5552 C   0  0  0  0  0  0  0  0  0  0  0  0
  -15.8673  -25.4032   23.5622 C   0  0  0  0  0  0  0  0  0  0  0  0
  -16.2116  -27.4192   22.1340 C   0  0  0  0  0  0  0  0  0  0  0  0
  -16.0758  -22.1387   17.7786 C   0  0  0  0  0  0  0  0  0  0  0  0
  -23.7111  -17.8456   21.3935 C   0  0  0  0  0  0  0  0  0  0  0  0
  -24.3537  -16.7126   20.6026 C   0  0  0  0  0  0  0  0  0  0  0  0
  -23.4134  -19.0728   20.5401 C   0  0  0  0  0  0  0  0  0  1  0  0
  -17.3087  -25.2365   21.4824 C   0  0  1  0  0  0  0  0  0  0  0  0
  -14.7006  -23.3715   19.4602 C   0  0  2  0  0  0  0  0  0  0  0  0
  -16.8915  -26.1426   22.6751 C   0  0  0  0  0  0  0  0  0  0  0  0
  -29.6534  -20.3062   19.9088 N   0  0  0  0  0  0  0  0  0  0  0  0
  -29.0512  -19.4802   20.7812 N   0  0  0  0  0  0  0  0  0  0  0  0
  -22.5346  -13.7726   21.1418 N   0  0  0  0  0  0  0  0  0  0  0  0
  -19.5611  -25.2368   20.4575 N   0  0  0  0  0  0  0  0  0  0  0  0
  -29.3778  -15.7218   20.1884 N   0  0  0  0  0  0  0  0  0  0  0  0
  -27.2890  -19.3587   22.3594 N   0  0  0  0  0  0  0  0  0  0  0  0
  -27.0083  -23.5908   20.8080 N   0  0  0  0  0  0  0  0  0  0  0  0
  -27.2979  -14.8298   20.8523 N   0  0  0  0  0  0  0  0  0  0  0  0
  -24.6536  -15.5944   21.4640 N   0  0  0  0  0  0  0  0  0  0  0  0
  -22.5407  -27.3352   20.3355 N   0  0  0  0  0  0  0  0  0  0  0  0
  -16.2030  -24.8422   20.6162 N   0  0  0  0  0  0  0  0  0  0  0  0
  -14.8493  -22.1519   18.6168 N   0  3  0  0  0  0  0  0  0  0  0  0
  -26.0915  -22.0780   22.2673 O   0  0  0  0  0  0  0  0  0  0  0  0
  -21.2014  -26.4317   22.0124 O   0  0  0  0  0  0  0  0  0  0  0  0
  -18.0455  -26.9541   20.0218 O   0  0  0  0  0  0  0  0  0  0  0  0
  -16.4830  -22.5545   20.8719 O   0  0  0  0  0  0  0  0  0  0  0  0
  -29.1800  -13.4802   20.7175 O   0  0  0  0  0  0  0  0  0  0  0  0
  -30.3031  -25.9144   16.9634 O   0  0  0  0  0  0  0  0  0  0  0  0
  -22.8011  -20.0659   21.3618 O   0  0  0  0  0  0  0  0  0  1  0  0
  -35.6388  -27.2480   16.5688 F   0  0  0  0  0  0  0  0  0  0  0  0
  -32.1326  -24.1413   15.8902 F   0  0  0  0  0  0  0  0  0  0  0  0
  1  2  1  0  0  0  0
  1  5  2  0  0  0  0
  2  6  2  0  0  0  0
  3  8  2  0  0  0  0
  3 17  1  0  0  0  0
  4  9  1  0  0  0  0
  4 17  2  0  0  0  0
  5 19  1  0  0  0  0
  6 21  1  0  0  0  0
  7 10  2  0  0  0  0
  7 20  1  0  0  0  0
  8 27  1  0  0  0  0
  9 27  2  0  0  0  0
 10 28  1  0  0  0  0
 11 12  2  0  0  0  0
 11 29  1  0  0  0  0
 12 30  1  0  0  0  0
 13 22  1  0  0  0  0
 13 28  2  0  0  0  0
 14 23  2  0  0  0  0
 14 24  1  0  0  0  0
 15 23  1  0  0  0  0
 15 25  2  0  0  0  0
 16 30  2  0  0  0  0
 16 31  1  0  0  0  0
 17 32  1  0  0  0  0
 18 32  1  0  0  0  0
 18 33  2  0  0  0  0
 18 34  1  0  0  0  0
 19 21  2  0  0  0  0
 19 39  1  0  0  0  0
 20 22  2  0  0  0  0
 20 40  1  0  0  0  0
 21 52  1  0  0  0  0
 22 41  1  0  0  0  0
 23 55  1  0  0  0  0
 24 26  2  0  0  0  0
 24 69  1  0  0  0  0
 25 26  1  0  0  0  0
 25 74  1  0  0  0  0
 26 75  1  0  0  0  0
 27 84  1  0  0  0  0
 28 85  1  0  0  0  0
 29 31  2  0  0  0  0
 29 84  1  0  0  0  0
 30 86  1  0  0  0  0
 31 87  1  0  0  0  0
 32 67  2  0  0  0  0
 33 68  1  0  0  0  0
 33 72  1  0  0  0  0
 34 73  1  0  0  0  0
 34 79  2  0  0  0  0
 35 53  1  0  0  0  0
 35 76  1  0  0  0  0
 35 80  2  0  0  0  0
 36 64  1  0  0  0  0
 36 70  1  0  0  0  0
 36 81  2  0  0  0  0
 37 65  1  0  0  0  0
 37 77  1  0  0  0  0
 37 82  2  0  0  0  0
 38 71  1  0  0  0  0
 38 74  1  0  0  0  0
 38 83  2  0  0  0  0
 39 42  1  0  0  0  0
 40 53  1  0  0  0  0
 41 70  1  0  0  0  0
 42 46  1  0  0  0  0
 43 44  1  0  0  0  0
 43 48  1  0  0  0  0
 44 49  1  0  0  0  0
 45 47  1  0  0  0  0
 45 50  1  0  0  0  0
 46 52  1  0  0  0  0
 47 54  1  0  0  0  0
 48 69  1  0  0  0  0
 49 69  1  0  0  0  0
 50 71  1  0  0  0  0
 51 54  1  0  0  0  0
 51 71  1  0  0  0  0
 52 76  1  0  0  0  0
 53 70  1  0  0  0  0
 54 68  1  0  0  0  0
 56 65  1  0  0  0  0
 57 66  1  0  0  0  0
 58 66  1  0  0  0  0
 59 66  1  0  0  0  0
 60 78  1  0  0  0  0
 61 62  1  0  0  0  0
 61 63  1  0  0  0  0
 62 75  1  0  0  0  0
 63 85  1  0  0  0  0
 64 66  1  0  0  0  0
 64 77  1  0  0  0  0
 65 78  1  0  0  0  0
 67 68  1  0  0  0  0
M  CHG  1  78   1
M  ISO  4  38 100  63 101  74 100  85 101
M  END
> <Batch ID>
0029

> <Smiles>
CNC(C)C(=O)NC(C(=O)N1Cc2cc([101O:1][101CH2:1]CCNc3c([100NH:0][100C:0](=O)N4CCCC(n5nc(-c6ccc(Oc7ccc(F)cc7F)cc6)c(C(N)=O)c5N)C4)cc(C)cc3N3CCCC3)ccc2CC1C(=O)NC1CCCc2ccccc21)C(C)(C)C

> <Shape>
0.245

> <Color>
0.063

> <Negative vol penalty>
0.000

$$$$

  -OEChem-04042321343D

 85 94  0     1  0  0  0  0  0999 V2000
  -21.7066  -30.4065   23.7219 C   0  0  0  0  0  0  0  0  0  0  0  0
  -21.3773  -29.2262   23.0632 C   0  0  0  0  0  0  0  0  0  0  0  0
  -30.2553  -12.5226   20.3193 C   0  0  0  0  0  0  0  0  0  0  0  0
  -19.8357  -19.3794   20.5778 C   0  0  0  0  0  0  0  0  0  0  0  0
  -22.1764  -19.4054   19.9796 C   0  0  0  0  0  0  0  0  0  0  0  0
  -30.5071  -13.8841   20.4880 C   0  0  0  0  0  0  0  0  0  0  0  0
  -22.8247  -31.1376   23.3228 C   0  0  0  0  0  0  0  0  0  0  0  0
  -22.1654  -28.7768   22.0043 C   0  0  0  0  0  0  0  0  0  0  0  0
  -25.3287  -22.3086   22.2201 C   0  0  0  0  0  0  0  0  0  0  0  0
  -29.0893  -12.1030   19.6789 C   0  0  0  0  0  0  0  0  0  0  0  0
  -19.9290  -20.7054   21.0005 C   0  0  0  0  0  0  0  0  0  0  0  0
  -22.2696  -20.7314   20.4023 C   0  0  0  0  0  0  0  0  0  0  0  0
  -25.7945  -20.9996   22.0948 C   0  0  0  0  0  0  0  0  0  0  0  0
  -19.9946  -23.7736   19.5812 C   0  0  0  0  0  0  0  0  0  0  0  0
  -18.9845  -24.6517   19.1884 C   0  0  0  0  0  0  0  0  0  0  0  0
  -28.4267  -14.4066   19.3762 C   0  0  0  0  0  0  0  0  0  0  0  0
  -26.8018  -21.5502   19.9664 C   0  0  0  0  0  0  0  0  0  0  0  0
  -18.4526  -25.0767   21.5065 C   0  0  0  0  0  0  0  0  0  0  0  0
  -20.9594  -18.7294   20.0674 C   0  0  0  0  0  0  0  0  0  0  0  0
  -29.5927  -14.8261   20.0165 C   0  0  0  0  0  0  0  0  0  0  0  0
  -20.0318  -16.8460   18.6183 C   0  0  0  0  0  0  0  0  0  0  0  0
  -23.6324  -30.6919   22.2647 C   0  0  0  0  0  0  0  0  0  0  0  0
  -25.6112  -23.2485   21.2250 C   0  0  0  0  0  0  0  0  0  0  0  0
  -23.2946  -29.5033   21.5898 C   0  0  0  0  0  0  0  0  0  0  0  0
  -26.3485  -22.8661   20.0923 C   0  0  0  0  0  0  0  0  0  0  0  0
  -28.1750  -13.0450   19.2074 C   0  0  0  0  0  0  0  0  0  0  0  0
  -21.1459  -21.3814   20.9128 C   0  0  0  0  0  0  0  0  0  0  0  0
  -26.5290  -20.6213   20.9707 C   0  0  0  0  0  0  0  0  0  0  0  0
  -20.2336  -23.5469   20.9366 C   0  0  0  0  0  0  0  0  0  0  0  0
  -18.2136  -25.3033   20.1511 C   0  0  0  0  0  0  0  0  0  0  0  0
  -19.4627  -24.1985   21.8993 C   0  0  0  0  0  0  0  0  0  0  0  0
  -20.8639  -17.3595   19.6311 C   0  0  0  0  0  0  0  0  0  0  0  0
  -20.3138  -15.5020   18.5908 C   0  0  0  0  0  0  0  0  0  0  0  0
  -29.8590  -16.2623   20.1942 C   0  0  0  0  0  0  0  0  0  0  0  0
  -19.0885  -17.5233   17.7774 C   0  0  0  0  0  0  0  0  0  0  0  0
  -25.2575  -26.7879   20.0321 C   0  0  0  0  0  0  0  0  0  0  0  0
  -28.1216  -25.9079   19.3741 C   0  0  0  0  0  0  0  0  0  0  0  0
  -31.4709  -25.7488   18.7465 C   0  0  0  0  0  0  0  0  0  0  0  0
  -25.1184  -12.3102   20.1969 C   0  0  0  0  0  0  0  0  0  0  0  0
  -24.8039  -31.5407   21.8384 C   0  0  0  0  0  0  0  0  0  0  0  0
  -25.0772  -24.6537   21.2887 C   0  0  0  0  0  0  0  0  0  0  0  0
  -26.5988  -23.9020   19.0306 C   0  0  0  0  0  0  0  0  0  0  0  0
  -25.8012  -30.8007   20.9507 C   0  0  0  0  0  0  0  0  0  0  0  0
  -21.7918  -11.9278   21.4071 C   0  0  0  0  0  0  0  0  0  0  0  0
  -25.0713  -30.0308   19.8546 C   0  0  0  0  0  0  0  0  0  0  0  0
  -21.1017  -13.2302   20.9977 C   0  0  0  0  0  0  0  0  0  0  0  0
  -27.3077  -17.6136   22.5185 C   0  0  0  0  0  0  0  0  0  0  0  0
  -23.2456  -12.1624   21.8116 C   0  0  0  0  0  0  0  0  0  0  0  0
  -27.7091  -16.5137   21.5433 C   0  0  0  0  0  0  0  0  0  0  0  0
  -23.3692  -14.1797   20.4013 C   0  0  0  0  0  0  0  0  0  0  0  0
  -29.1631  -18.4081   21.2294 C   0  0  0  0  0  0  0  0  0  0  0  0
  -24.1390  -28.9703   20.4526 C   0  0  1  0  0  0  0  0  0  0  0  0
  -26.0430  -25.6939   20.6934 C   0  0  1  0  0  0  0  0  0  0  0  0
  -21.9173  -13.9858   19.9314 C   0  0  2  0  0  0  0  0  0  0  0  0
  -27.8663  -18.8781   21.8720 C   0  0  1  0  0  0  0  0  0  1  0  0
  -33.2495  -26.7407   17.2801 C   0  0  0  0  0  0  0  0  0  0  0  0
  -27.1292  -24.2201   17.0352 C   0  0  0  0  0  0  0  0  0  0  0  0
  -29.3830  -24.4874   15.9782 C   0  0  0  0  0  0  0  0  0  0  0  0
  -27.9612  -26.4924   16.4035 C   0  0  0  0  0  0  0  0  0  0  0  0
  -32.9576  -26.8149   21.0729 C   0  0  0  0  0  0  0  0  0  0  0  0
  -26.9280  -12.5964   18.5228 C   0  0  0  0  0  0  0  0  0  0  0  0
  -29.0600  -25.3161   18.3531 C   0  0  1  0  0  0  0  0  0  0  0  0
  -32.5237  -26.8343   18.6132 C   0  0  2  0  0  0  0  0  0  0  0  0
  -28.3808  -25.1179   16.9686 C   0  0  0  0  0  0  0  0  0  0  0  0
  -21.6178  -16.4184   20.2056 N   0  0  0  0  0  0  0  0  0  0  0  0
  -21.2605  -15.3001   19.5516 N   0  0  0  0  0  0  0  0  0  0  0  0
  -28.9400  -16.9996   20.9256 N   0  0  0  0  0  0  0  0  0  0  0  0
  -26.9556  -25.1854   19.6552 N   0  0  0  0  0  0  0  0  0  0  0  0
  -23.9638  -12.8817   20.7567 N   0  0  0  0  0  0  0  0  0  0  0  0
  -19.8418  -14.4851   17.8388 N   0  0  0  0  0  0  0  0  0  0  0  0
  -19.5354  -18.0418   16.5544 N   0  0  0  0  0  0  0  0  0  0  0  0
  -24.8974  -27.8154   20.8831 N   0  0  0  0  0  0  0  0  0  0  0  0
  -30.2324  -26.1840   18.3248 N   0  0  0  0  0  0  0  0  0  0  0  0
  -25.7347  -13.0548   19.1986 N   0  0  0  0  0  0  0  0  0  0  0  0
  -33.5304  -26.7165   19.7057 N   0  3  0  0  0  0  0  0  0  0  0  0
  -30.8857  -16.7129   19.6901 O   0  0  0  0  0  0  0  0  0  0  0  0
  -17.8886  -17.6788   18.1085 O   0  0  0  0  0  0  0  0  0  0  0  0
  -24.9978  -26.7079   18.8371 O   0  0  0  0  0  0  0  0  0  0  0  0
  -28.4093  -26.9841   19.9054 O   0  0  0  0  0  0  0  0  0  0  0  0
  -31.7229  -24.6259   19.1778 O   0  0  0  0  0  0  0  0  0  0  0  0
  -25.5637  -11.2150   20.5561 O   0  0  0  0  0  0  0  0  0  0  0  0
  -21.2372  -22.6754   21.3249 O   0  0  0  0  0  0  0  0  0  0  0  0
  -26.9845  -19.3429   20.8570 O   0  0  0  0  0  0  0  0  0  1  0  0
  -17.2447  -26.1478   19.7738 F   0  0  0  0  0  0  0  0  0  0  0  0
  -19.6884  -23.9856   23.2029 F   0  0  0  0  0  0  0  0  0  0  0  0
  1  2  1  0  0  0  0
  1  7  2  0  0  0  0
  2  8  2  0  0  0  0
  3  6  2  0  0  0  0
  3 10  1  0  0  0  0
  4 11  2  0  0  0  0
  4 19  1  0  0  0  0
  5 12  1  0  0  0  0
  5 19  2  0  0  0  0
  6 20  1  0  0  0  0
  7 22  1  0  0  0  0
  8 24  1  0  0  0  0
  9 13  2  0  0  0  0
  9 23  1  0  0  0  0
 10 26  2  0  0  0  0
 11 27  1  0  0  0  0
 12 27  2  0  0  0  0
 13 28  1  0  0  0  0
 14 15  2  0  0  0  0
 14 29  1  0  0  0  0
 15 30  1  0  0  0  0
 16 20  2  0  0  0  0
 16 26  1  0  0  0  0
 17 25  1  0  0  0  0
 17 28  2  0  0  0  0
 18 30  2  0  0  0  0
 18 31  1  0  0  0  0
 19 32  1  0  0  0  0
 20 34  1  0  0  0  0
 21 32  1  0  0  0  0
 21 33  2  0  0  0  0
 21 35  1  0  0  0  0
 22 24  2  0  0  0  0
 22 40  1  0  0  0  0
 23 25  2  0  0  0  0
 23 41  1  0  0  0  0
 24 52  1  0  0  0  0
 25 42  1  0  0  0  0
 26 61  1  0  0  0  0
 27 82  1  0  0  0  0
 28 83  1  0  0  0  0
 29 31  2  0  0  0  0
 29 82  1  0  0  0  0
 30 84  1  0  0  0  0
 31 85  1  0  0  0  0
 32 65  2  0  0  0  0
 33 66  1  0  0  0  0
 33 70  1  0  0  0  0
 34 67  1  0  0  0  0
 34 76  2  0  0  0  0
 35 71  1  0  0  0  0
 35 77  2  0  0  0  0
 36 53  1  0  0  0  0
 36 72  1  0  0  0  0
 36 78  2  0  0  0  0
 37 62  1  0  0  0  0
 37 68  1  0  0  0  0
 37 79  2  0  0  0  0
 38 63  1  0  0  0  0
 38 73  1  0  0  0  0
 38 80  2  0  0  0  0
 39 69  1  0  0  0  0
 39 74  1  0  0  0  0
 39 81  2  0  0  0  0
 40 43  1  0  0  0  0
 41 53  1  0  0  0  0
 42 68  1  0  0  0  0
 43 45  1  0  0  0  0
 44 46  1  0  0  0  0
 44 48  1  0  0  0  0
 45 52  1  0  0  0  0
 46 54  1  0  0  0  0
 47 49  1  0  0  0  0
 47 55  1  0  0  0  0
 48 69  1  0  0  0  0
 49 67  1  0  0  0  0
 50 54  1  0  0  0  0
 50 69  1  0  0  0  0
 51 55  1  0  0  0  0
 51 67  1  0  0  0  0
 52 72  1  0  0  0  0
 53 68  1  0  0  0  0
 54 66  1  0  0  0  0
 55 83  1  0  0  0  0
 56 63  1  0  0  0  0
 57 64  1  0  0  0  0
 58 64  1  0  0  0  0
 59 64  1  0  0  0  0
 60 75  1  0  0  0  0
 61 74  1  0  0  0  0
 62 64  1  0  0  0  0
 62 73  1  0  0  0  0
 63 75  1  0  0  0  0
 65 66  1  0  0  0  0
M  CHG  1  75   1
M  ISO  4  39 100  55 101  74 100  83 101
M  END
> <Batch ID>
0029

> <Smiles>
CNC(C)C(=O)NC(C(=O)N1Cc2cc([101O:1][101CH:1]3CCN(C(=O)c4cccc(C[100NH:0][100C:0](=O)N5CCCC(n6nc(-c7ccc(Oc8ccc(F)cc8F)cc7)c(C(N)=O)c6N)C5)c4)C3)ccc2CC1C(=O)NC1CCCc2ccccc21)C(C)(C)C

> <Shape>
0.215

> <Color>
0.068

> <Negative vol penalty>
0.000

$$$$

  -OEChem-04042321343D

 87 96  0     1  0  0  0  0  0999 V2000
  -27.1418  -38.1376   20.8105 C   0  0  0  0  0  0  0  0  0  0  0  0
  -27.2740  -37.0844   19.9113 C   0  0  0  0  0  0  0  0  0  0  0  0
  -30.5084   -9.5683   22.5384 C   0  0  0  0  0  0  0  0  0  0  0  0
  -29.7368   -8.1198   20.7654 C   0  0  0  0  0  0  0  0  0  0  0  0
  -27.1413  -37.8860   22.1819 C   0  0  0  0  0  0  0  0  0  0  0  0
  -27.4070  -35.7789   20.3830 C   0  0  0  0  0  0  0  0  0  0  0  0
  -25.7173  -29.0287   18.6811 C   0  0  0  0  0  0  0  0  0  0  0  0
  -29.4008  -23.5761   20.6202 C   0  0  0  0  0  0  0  0  0  0  0  0
  -31.0306   -8.4647   23.2128 C   0  0  0  0  0  0  0  0  0  0  0  0
  -30.2591   -7.0162   21.4398 C   0  0  0  0  0  0  0  0  0  0  0  0
  -26.3092  -27.7754   18.5310 C   0  0  0  0  0  0  0  0  0  0  0  0
  -33.7720   -6.4950   23.0186 C   0  0  0  0  0  0  0  0  0  0  0  0
  -35.0547   -6.6101   23.5544 C   0  0  0  0  0  0  0  0  0  0  0  0
  -30.0507  -22.3820   20.3086 C   0  0  0  0  0  0  0  0  0  0  0  0
  -26.2154  -27.4516   20.9196 C   0  0  0  0  0  0  0  0  0  0  0  0
  -34.1702   -6.1875   25.7626 C   0  0  0  0  0  0  0  0  0  0  0  0
  -29.8614   -9.3959   21.3147 C   0  0  0  0  0  0  0  0  0  0  0  0
  -29.9793  -11.3434   19.6712 C   0  0  0  0  0  0  0  0  0  0  0  0
  -27.2646  -36.5757   22.6704 C   0  0  0  0  0  0  0  0  0  0  0  0
  -25.3794  -29.5083   19.9548 C   0  0  0  0  0  0  0  0  0  0  0  0
  -27.4095  -35.5097   21.7622 C   0  0  0  0  0  0  0  0  0  0  0  0
  -25.6169  -28.7103   21.0830 C   0  0  0  0  0  0  0  0  0  0  0  0
  -28.0402  -23.7210   20.3493 C   0  0  0  0  0  0  0  0  0  0  0  0
  -27.3295  -22.6717   19.7666 C   0  0  0  0  0  0  0  0  0  0  0  0
  -27.9794  -21.4775   19.4549 C   0  0  0  0  0  0  0  0  0  0  0  0
  -30.9060   -7.1886   22.6635 C   0  0  0  0  0  0  0  0  0  0  0  0
  -26.5610  -26.9878   19.6506 C   0  0  0  0  0  0  0  0  0  0  0  0
  -32.6884   -6.2262   23.8548 C   0  0  0  0  0  0  0  0  0  0  0  0
  -35.2538   -6.4563   24.9263 C   0  0  0  0  0  0  0  0  0  0  0  0
  -32.8875   -6.0724   25.2268 C   0  0  0  0  0  0  0  0  0  0  0  0
  -29.3401  -21.3326   19.7259 C   0  0  0  0  0  0  0  0  0  0  0  0
  -29.3212  -10.5355   20.6178 C   0  0  0  0  0  0  0  0  0  0  0  0
  -29.0433  -12.2817   19.3107 C   0  0  0  0  0  0  0  0  0  0  0  0
  -31.3170  -11.2536   19.1631 C   0  0  0  0  0  0  0  0  0  0  0  0
  -26.2669  -31.9960   21.7232 C   0  0  0  0  0  0  0  0  0  0  0  0
  -23.9275  -30.9288   23.7007 C   0  0  0  0  0  0  0  0  0  0  0  0
  -22.0014  -28.3212   24.7674 C   0  0  0  0  0  0  0  0  0  0  0  0
  -25.1516  -15.9681   21.2138 C   0  0  0  0  0  0  0  0  0  0  0  0
  -27.3063  -36.3581   24.1623 C   0  0  0  0  0  0  0  0  0  0  0  0
  -24.7170  -30.8512   20.0974 C   0  0  0  0  0  0  0  0  0  0  0  0
  -25.2545  -29.1706   22.4705 C   0  0  0  0  0  0  0  0  0  0  0  0
  -27.0755  -34.9061   24.5727 C   0  0  0  0  0  0  0  0  0  0  0  0
  -24.0912  -12.5507   20.2508 C   0  0  0  0  0  0  0  0  0  0  0  0
  -27.9185  -33.9683   23.7143 C   0  0  0  0  0  0  0  0  0  0  0  0
  -25.4104  -11.7804   20.2605 C   0  0  0  0  0  0  0  0  0  0  0  0
  -24.1161  -13.7282   21.2202 C   0  0  0  0  0  0  0  0  0  0  0  0
  -26.4861  -17.9854   21.7398 C   0  0  0  0  0  0  0  0  0  0  0  0
  -26.5759  -13.8936   21.0090 C   0  0  0  0  0  0  0  0  0  0  0  0
  -27.1488  -16.6234   19.7948 C   0  0  0  0  0  0  0  0  0  0  0  0
  -26.3106  -19.2185   20.8683 C   0  0  0  0  0  0  0  0  0  0  0  0
  -27.5311  -34.0771   22.2346 C   0  0  1  0  0  0  0  0  0  0  0  0
  -24.8848  -31.4555   21.4881 C   0  0  1  0  0  0  0  0  0  0  0  0
  -26.5982  -12.7257   20.0111 C   0  0  1  0  0  0  0  0  0  0  0  0
  -26.9959  -17.8258   18.8512 C   0  0  1  0  0  0  0  0  0  0  0  0
  -25.8701  -22.8309   19.4776 C   0  0  0  0  0  0  0  0  0  0  0  0
  -25.6513  -17.8248   18.1242 C   0  0  0  0  0  0  0  0  0  0  0  0
  -20.2048  -27.7473   26.4227 C   0  0  0  0  0  0  0  0  0  0  0  0
  -25.9980  -30.9218   25.9419 C   0  0  0  0  0  0  0  0  0  0  0  0
  -24.4469  -29.4788   27.2760 C   0  0  0  0  0  0  0  0  0  0  0  0
  -23.7439  -31.7768   26.6069 C   0  0  0  0  0  0  0  0  0  0  0  0
  -20.1086  -27.5588   22.6238 C   0  0  0  0  0  0  0  0  0  0  0  0
  -27.2030  -20.3571   18.8280 C   0  0  0  0  0  0  0  0  0  0  0  0
  -27.3690  -25.0098   20.6949 C   0  0  0  0  0  0  0  0  0  1  0  0
  -23.8637  -29.9578   24.8550 C   0  0  1  0  0  0  0  0  0  0  0  0
  -20.5065  -28.2039   25.0038 C   0  0  2  0  0  0  0  0  0  0  0  0
  -24.5219  -30.5257   26.1441 C   0  0  0  0  0  0  0  0  0  0  0  0
  -28.0644  -10.9265   20.8446 N   0  0  0  0  0  0  0  0  0  0  0  0
  -27.9252  -11.9904   20.0354 N   0  0  0  0  0  0  0  0  0  0  0  0
  -24.6147  -30.4936   22.5587 N   0  0  0  0  0  0  0  0  0  0  0  0
  -25.2786  -14.5869   20.9934 N   0  0  0  0  0  0  0  0  0  0  0  0
  -26.2879  -16.7561   20.9767 N   0  0  0  0  0  0  0  0  0  0  0  0
  -29.0759  -13.3194   18.4479 N   0  0  0  0  0  0  0  0  0  0  0  0
  -32.1457  -10.2291   19.6405 N   0  0  0  0  0  0  0  0  0  0  0  0
  -26.3042  -33.3535   21.9788 N   0  0  0  0  0  0  0  0  0  0  0  0
  -22.4580  -29.5995   25.0097 N   0  0  0  0  0  0  0  0  0  0  0  0
  -27.2075  -19.1012   19.6562 N   0  3  1  0  0  0  0  0  0  0  0  0
  -19.9078  -27.2213   24.0566 N   0  3  0  0  0  0  0  0  0  0  0  0
  -31.7695  -12.0680   18.3231 O   0  0  0  0  0  0  0  0  0  0  0  0
  -27.2282  -31.2373   21.6777 O   0  0  0  0  0  0  0  0  0  0  0  0
  -23.3815  -32.0299   23.8059 O   0  0  0  0  0  0  0  0  0  0  0  0
  -22.6954  -27.3728   24.4075 O   0  0  0  0  0  0  0  0  0  0  0  0
  -24.0844  -16.4669   21.5926 O   0  0  0  0  0  0  0  0  0  0  0  0
  -31.4157   -6.1115   23.3212 O   0  0  0  0  0  0  0  0  0  0  0  0
  -27.1434  -25.7556   19.5059 O   0  0  0  0  0  0  0  0  0  1  0  0
  -36.4858   -6.5653   25.4405 F   0  0  0  0  0  0  0  0  0  0  0  0
  -31.8505   -5.8129   26.0350 F   0  0  0  0  0  0  0  0  0  0  0  0
  -30.1810  -19.8711   19.3553 Cl  0  0  0  0  0  0  0  0  0  0  0  0
  1  2  1  0  0  0  0
  1  5  2  0  0  0  0
  2  6  2  0  0  0  0
  3  9  2  0  0  0  0
  3 17  1  0  0  0  0
  4 10  1  0  0  0  0
  4 17  2  0  0  0  0
  5 19  1  0  0  0  0
  6 21  1  0  0  0  0
  7 11  2  0  0  0  0
  7 20  1  0  0  0  0
  8 14  2  0  0  0  0
  8 23  1  0  0  0  0
  9 26  1  0  0  0  0
 10 26  2  0  0  0  0
 11 27  1  0  0  0  0
 12 13  2  0  0  0  0
 12 28  1  0  0  0  0
 13 29  1  0  0  0  0
 14 31  1  0  0  0  0
 15 22  1  0  0  0  0
 15 27  2  0  0  0  0
 16 29  2  0  0  0  0
 16 30  1  0  0  0  0
 17 32  1  0  0  0  0
 18 32  1  0  0  0  0
 18 33  2  0  0  0  0
 18 34  1  0  0  0  0
 19 21  2  0  0  0  0
 19 39  1  0  0  0  0
 20 22  2  0  0  0  0
 20 40  1  0  0  0  0
 21 51  1  0  0  0  0
 22 41  1  0  0  0  0
 23 24  2  0  0  0  0
 23 63  1  0  0  0  0
 24 25  1  0  0  0  0
 24 55  1  0  0  0  0
 25 31  2  0  0  0  0
 25 62  1  0  0  0  0
 26 83  1  0  0  0  0
 27 84  1  0  0  0  0
 28 30  2  0  0  0  0
 28 83  1  0  0  0  0
 29 85  1  0  0  0  0
 30 86  1  0  0  0  0
 31 87  1  0  0  0  0
 32 67  2  0  0  0  0
 33 68  1  0  0  0  0
 33 72  1  0  0  0  0
 34 73  1  0  0  0  0
 34 78  2  0  0  0  0
 35 52  1  0  0  0  0
 35 74  1  0  0  0  0
 35 79  2  0  0  0  0
 36 64  1  0  0  0  0
 36 69  1  0  0  0  0
 36 80  2  0  0  0  0
 37 65  1  0  0  0  0
 37 75  1  0  0  0  0
 37 81  2  0  0  0  0
 38 70  1  0  0  0  0
 38 71  1  0  0  0  0
 38 82  2  0  0  0  0
 39 42  1  0  0  0  0
 40 52  1  0  0  0  0
 41 69  1  0  0  0  0
 42 44  1  0  0  0  0
 43 45  1  0  0  0  0
 43 46  1  0  0  0  0
 44 51  1  0  0  0  0
 45 53  1  0  0  0  0
 46 70  1  0  0  0  0
 47 50  1  0  0  0  0
 47 71  1  0  0  0  0
 48 53  1  0  0  0  0
 48 70  1  0  0  0  0
 49 54  1  0  0  0  0
 49 71  1  0  0  0  0
 50 76  1  0  0  0  0
 51 74  1  0  0  0  0
 52 69  1  0  0  0  0
 53 68  1  0  0  0  0
 54 56  1  0  0  0  0
 54 76  1  0  0  0  0
 57 65  1  0  0  0  0
 58 66  1  0  0  0  0
 59 66  1  0  0  0  0
 60 66  1  0  0  0  0
 61 77  1  0  0  0  0
 62 76  1  0  0  0  0
 63 84  1  0  0  0  0
 64 66  1  0  0  0  0
 64 75  1  0  0  0  0
 65 77  1  0  0  0  0
 67 68  1  0  0  0  0
M  CHG  2  76   1  77   1
M  ISO  4  38 100  63 101  71 100  84 101
M  END
> <Batch ID>
0029

> <Smiles>
CNC(C)C(=O)NC(C(=O)N1Cc2cc([101O:1][101CH2:1]c3ccc(Cl)c(CN4CC[100N:0]([100C:0](=O)N5CCCC(n6nc(-c7ccc(Oc8ccc(F)cc8F)cc7)c(C(N)=O)c6N)C5)CC4C)c3C)ccc2CC1C(=O)NC1CCCc2ccccc21)C(C)(C)C

> <Shape>
0.242

> <Color>
0.069

> <Negative vol penalty>
0.000

$$$$

  -OEChem-04042321343D

 86 95  0     1  0  0  0  0  0999 V2000
  -21.6417  -27.0246   23.4040 C   0  0  0  0  0  0  0  0  0  0  0  0
  -22.8566  -26.3498   23.4691 C   0  0  0  0  0  0  0  0  0  0  0  0
  -27.2282  -27.6833   21.1126 C   0  0  0  0  0  0  0  0  0  0  0  0
  -26.1665  -27.6163   18.9434 C   0  0  0  0  0  0  0  0  0  0  0  0
  -20.4791  -26.4113   23.8688 C   0  0  0  0  0  0  0  0  0  0  0  0
  -22.9096  -25.0616   24.0001 C   0  0  0  0  0  0  0  0  0  0  0  0
  -25.5940  -18.4488   20.8233 C   0  0  0  0  0  0  0  0  0  0  0  0
  -30.0070  -18.3771   22.8662 C   0  0  0  0  0  0  0  0  0  0  0  0
  -29.6885  -19.3902   21.9619 C   0  0  0  0  0  0  0  0  0  0  0  0
  -26.1539  -28.4170   21.6158 C   0  0  0  0  0  0  0  0  0  0  0  0
  -25.0921  -28.3500   19.4466 C   0  0  0  0  0  0  0  0  0  0  0  0
  -25.8929  -17.1865   20.3101 C   0  0  0  0  0  0  0  0  0  0  0  0
  -23.8575  -30.6170   23.3793 C   0  0  0  0  0  0  0  0  0  0  0  0
  -24.1437  -31.7242   24.1778 C   0  0  0  0  0  0  0  0  0  0  0  0
  -29.7972  -17.8021   20.1445 C   0  0  0  0  0  0  0  0  0  0  0  0
  -24.3047  -16.1803   21.8310 C   0  0  0  0  0  0  0  0  0  0  0  0
  -25.3608  -32.7289   22.3485 C   0  0  0  0  0  0  0  0  0  0  0  0
  -27.2345  -27.2830   19.7764 C   0  0  0  0  0  0  0  0  0  0  0  0
  -30.1157  -16.7890   21.0488 C   0  0  0  0  0  0  0  0  0  0  0  0
  -29.6946  -26.9205   19.2069 C   0  0  0  0  0  0  0  0  0  0  0  0
  -20.5163  -25.1112   24.3969 C   0  0  0  0  0  0  0  0  0  0  0  0
  -24.6369  -18.5834   21.8329 C   0  0  0  0  0  0  0  0  0  0  0  0
  -21.7466  -24.4308   24.4737 C   0  0  0  0  0  0  0  0  0  0  0  0
  -23.9920  -17.4435   22.3403 C   0  0  0  0  0  0  0  0  0  0  0  0
  -30.2207  -17.0765   22.4097 C   0  0  0  0  0  0  0  0  0  0  0  0
  -29.5835  -19.1027   20.6011 C   0  0  0  0  0  0  0  0  0  0  0  0
  -25.0859  -28.7503   20.7828 C   0  0  0  0  0  0  0  0  0  0  0  0
  -25.2500  -16.0551   20.8129 C   0  0  0  0  0  0  0  0  0  0  0  0
  -24.3230  -30.5656   22.0653 C   0  0  0  0  0  0  0  0  0  0  0  0
  -24.8953  -32.7802   23.6625 C   0  0  0  0  0  0  0  0  0  0  0  0
  -25.0746  -31.6216   21.5500 C   0  0  0  0  0  0  0  0  0  0  0  0
  -28.3442  -26.5256   19.2558 C   0  0  0  0  0  0  0  0  0  0  0  0
  -30.3425  -25.8571   18.6274 C   0  0  0  0  0  0  0  0  0  0  0  0
  -30.3349  -15.4285   20.5415 C   0  0  0  0  0  0  0  0  0  0  0  0
  -30.3084  -28.1394   19.6462 C   0  0  0  0  0  0  0  0  0  0  0  0
  -22.7521  -20.8939   24.1101 C   0  0  0  0  0  0  0  0  0  0  0  0
  -20.7527  -18.7856   23.1263 C   0  0  0  0  0  0  0  0  0  0  0  0
  -18.7804  -16.5370   21.4859 C   0  0  0  0  0  0  0  0  0  0  0  0
  -29.1191  -20.0174   18.3002 C   0  0  0  0  0  0  0  0  0  0  0  0
  -19.2413  -24.5076   24.9304 C   0  0  0  0  0  0  0  0  0  0  0  0
  -24.3278  -19.9166   22.4581 C   0  0  0  0  0  0  0  0  0  0  0  0
  -22.9946  -17.6325   23.4504 C   0  0  0  0  0  0  0  0  0  0  0  0
  -19.3212  -22.9968   25.1339 C   0  0  0  0  0  0  0  0  0  0  0  0
  -29.6162  -22.2453   15.5677 C   0  0  0  0  0  0  0  0  0  0  0  0
  -28.4281  -12.9159   18.8200 C   0  0  0  0  0  0  0  0  0  0  0  0
  -20.6149  -22.6222   25.8500 C   0  0  0  0  0  0  0  0  0  0  0  0
  -29.4753  -23.6318   16.2001 C   0  0  0  0  0  0  0  0  0  0  0  0
  -26.9921  -13.2146   19.2426 C   0  0  0  0  0  0  0  0  0  0  0  0
  -29.4169  -13.2124   19.9453 C   0  0  0  0  0  0  0  0  0  0  0  0
  -28.6489  -21.2383   16.1875 C   0  0  0  0  0  0  0  0  0  0  0  0
  -28.5655  -22.5291   18.2842 C   0  0  0  0  0  0  0  0  0  0  0  0
  -27.8762  -14.8839   20.9153 C   0  0  0  0  0  0  0  0  0  0  0  0
  -21.8407  -23.0227   25.0201 C   0  0  1  0  0  0  0  0  0  0  0  0
  -22.8503  -20.0653   22.8630 C   0  0  1  0  0  0  0  0  0  0  0  0
  -29.5646  -23.5618   17.7372 C   0  0  2  0  0  0  0  0  0  0  0  0
  -26.8610  -14.6316   19.8025 C   0  0  2  0  0  0  0  0  0  1  0  0
  -30.5605  -16.0104   23.3997 C   0  0  0  0  0  0  0  0  0  0  0  0
  -16.3998  -15.7620   21.3144 C   0  0  0  0  0  0  0  0  0  0  0  0
  -21.0496  -17.2998   25.7736 C   0  0  0  0  0  0  0  0  0  0  0  0
  -19.1240  -15.8508   25.0949 C   0  0  0  0  0  0  0  0  0  0  0  0
  -18.7924  -18.3056   25.3888 C   0  0  0  0  0  0  0  0  0  0  0  0
  -18.6256  -17.2715   18.6231 C   0  0  0  0  0  0  0  0  0  0  0  0
  -20.0821  -17.4602   23.3853 C   0  0  1  0  0  0  0  0  0  0  0  0
  -17.4591  -16.6997   20.7564 C   0  0  2  0  0  0  0  0  0  0  0  0
  -19.7852  -17.2311   24.8942 C   0  0  0  0  0  0  0  0  0  0  0  0
  -28.1447  -25.3066   18.7477 N   0  0  0  0  0  0  0  0  0  0  0  0
  -29.3783  -24.9263   18.3739 N   0  0  0  0  0  0  0  0  0  0  0  0
  -29.2352  -14.5707   20.4590 N   0  0  0  0  0  0  0  0  0  0  0  0
  -22.1519  -18.8065   23.1741 N   0  0  0  0  0  0  0  0  0  0  0  0
  -28.7931  -21.2237   17.6449 N   0  0  0  0  0  0  0  0  0  0  0  0
  -31.6372  -25.6368   18.3149 N   0  0  0  0  0  0  0  0  0  0  0  0
  -29.4964  -29.1275   20.2196 N   0  0  0  0  0  0  0  0  0  0  0  0
  -29.2620  -20.1326   19.6825 N   0  0  0  0  0  0  0  0  0  0  0  0
  -22.0556  -22.0761   23.9467 N   0  0  0  0  0  0  0  0  0  0  0  0
  -18.8993  -17.4276   22.5318 N   0  0  0  0  0  0  0  0  0  0  0  0
  -17.6291  -16.4063   19.3052 N   0  3  0  0  0  0  0  0  0  0  0  0
  -31.4875  -15.1500   20.2141 O   0  0  0  0  0  0  0  0  0  0  0  0
  -31.5379  -28.3530   19.5185 O   0  0  0  0  0  0  0  0  0  0  0  0
  -23.2687  -20.4907   25.1456 O   0  0  0  0  0  0  0  0  0  0  0  0
  -20.0572  -19.7782   22.8933 O   0  0  0  0  0  0  0  0  0  0  0  0
  -19.6211  -15.7008   21.1628 O   0  0  0  0  0  0  0  0  0  0  0  0
  -29.2879  -18.9658   17.6777 O   0  0  0  0  0  0  0  0  0  0  0  0
  -24.0373  -29.4660   21.2736 O   0  0  0  0  0  0  0  0  0  0  0  0
  -25.5433  -14.8262   20.3042 O   0  0  0  0  0  0  0  0  0  1  0  0
  -25.1688  -33.8441   24.4289 F   0  0  0  0  0  0  0  0  0  0  0  0
  -25.5235  -31.5785   20.2880 F   0  0  0  0  0  0  0  0  0  0  0  0
  1  2  1  0  0  0  0
  1  5  2  0  0  0  0
  2  6  2  0  0  0  0
  3 10  2  0  0  0  0
  3 18  1  0  0  0  0
  4 11  1  0  0  0  0
  4 18  2  0  0  0  0
  5 21  1  0  0  0  0
  6 23  1  0  0  0  0
  7 12  2  0  0  0  0
  7 22  1  0  0  0  0
  8  9  2  0  0  0  0
  8 25  1  0  0  0  0
  9 26  1  0  0  0  0
 10 27  1  0  0  0  0
 11 27  2  0  0  0  0
 12 28  1  0  0  0  0
 13 14  2  0  0  0  0
 13 29  1  0  0  0  0
 14 30  1  0  0  0  0
 15 19  1  0  0  0  0
 15 26  2  0  0  0  0
 16 24  1  0  0  0  0
 16 28  2  0  0  0  0
 17 30  2  0  0  0  0
 17 31  1  0  0  0  0
 18 32  1  0  0  0  0
 19 25  2  0  0  0  0
 19 34  1  0  0  0  0
 20 32  1  0  0  0  0
 20 33  2  0  0  0  0
 20 35  1  0  0  0  0
 21 23  2  0  0  0  0
 21 40  1  0  0  0  0
 22 24  2  0  0  0  0
 22 41  1  0  0  0  0
 23 53  1  0  0  0  0
 24 42  1  0  0  0  0
 25 57  1  0  0  0  0
 26 73  1  0  0  0  0
 27 83  1  0  0  0  0
 28 84  1  0  0  0  0
 29 31  2  0  0  0  0
 29 83  1  0  0  0  0
 30 85  1  0  0  0  0
 31 86  1  0  0  0  0
 32 66  2  0  0  0  0
 33 67  1  0  0  0  0
 33 71  1  0  0  0  0
 34 68  1  0  0  0  0
 34 77  2  0  0  0  0
 35 72  1  0  0  0  0
 35 78  2  0  0  0  0
 36 54  1  0  0  0  0
 36 74  1  0  0  0  0
 36 79  2  0  0  0  0
 37 63  1  0  0  0  0
 37 69  1  0  0  0  0
 37 80  2  0  0  0  0
 38 64  1  0  0  0  0
 38 75  1  0  0  0  0
 38 81  2  0  0  0  0
 39 70  1  0  0  0  0
 39 73  1  0  0  0  0
 39 82  2  0  0  0  0
 40 43  1  0  0  0  0
 41 54  1  0  0  0  0
 42 69  1  0  0  0  0
 43 46  1  0  0  0  0
 44 47  1  0  0  0  0
 44 50  1  0  0  0  0
 45 48  1  0  0  0  0
 45 49  1  0  0  0  0
 46 53  1  0  0  0  0
 47 55  1  0  0  0  0
 48 56  1  0  0  0  0
 49 68  1  0  0  0  0
 50 70  1  0  0  0  0
 51 55  1  0  0  0  0
 51 70  1  0  0  0  0
 52 56  1  0  0  0  0
 52 68  1  0  0  0  0
 53 74  1  0  0  0  0
 54 69  1  0  0  0  0
 55 67  1  0  0  0  0
 56 84  1  0  0  0  0
 58 64  1  0  0  0  0
 59 65  1  0  0  0  0
 60 65  1  0  0  0  0
 61 65  1  0  0  0  0
 62 76  1  0  0  0  0
 63 65  1  0  0  0  0
 63 75  1  0  0  0  0
 64 76  1  0  0  0  0
 66 67  1  0  0  0  0
M  CHG  1  76   1
M  ISO  4  39 100  56 101  73 100  84 101
M  END
> <Batch ID>
0029

> <Smiles>
CNC(C)C(=O)NC(C(=O)N1Cc2cc([101O:1][101CH:1]3CCCN(C(=O)c4cc([100NH:0][100C:0](=O)N5CCCC(n6nc(-c7ccc(Oc8ccc(F)cc8F)cc7)c(C(N)=O)c6N)C5)ccc4C)C3)ccc2CC1C(=O)NC1CCCc2ccccc21)C(C)(C)C

> <Shape>
0.236

> <Color>
0.052

> <Negative vol penalty>
0.000

$$$$

  -OEChem-04042321343D

 82 91  0     1  0  0  0  0  0999 V2000
  -27.6169  -33.2798   22.1719 C   0  0  0  0  0  0  0  0  0  0  0  0
  -28.3157  -32.0934   22.3705 C   0  0  0  0  0  0  0  0  0  0  0  0
  -32.7416  -17.3395   23.2934 C   0  0  0  0  0  0  0  0  0  0  0  0
  -22.8892   -9.9384   20.0945 C   0  0  0  0  0  0  0  0  0  0  0  0
  -23.5730  -10.1035   22.4058 C   0  0  0  0  0  0  0  0  0  0  0  0
  -26.4268  -33.5102   22.8608 C   0  0  0  0  0  0  0  0  0  0  0  0
  -27.8254  -31.1371   23.2591 C   0  0  0  0  0  0  0  0  0  0  0  0
  -28.2609  -25.0516   22.7271 C   0  0  0  0  0  0  0  0  0  0  0  0
  -31.9832  -18.3121   23.9448 C   0  0  0  0  0  0  0  0  0  0  0  0
  -32.1196  -16.4198   22.4490 C   0  0  0  0  0  0  0  0  0  0  0  0
  -22.0797   -8.8477   20.4119 C   0  0  0  0  0  0  0  0  0  0  0  0
  -22.7635   -9.0129   22.7232 C   0  0  0  0  0  0  0  0  0  0  0  0
  -29.1356  -24.1213   23.2867 C   0  0  0  0  0  0  0  0  0  0  0  0
  -22.9028   -5.6454   22.4553 C   0  0  0  0  0  0  0  0  0  0  0  0
  -23.4414   -4.6564   23.2782 C   0  0  0  0  0  0  0  0  0  0  0  0
  -27.5317  -23.6717   25.0315 C   0  0  0  0  0  0  0  0  0  0  0  0
  -21.6961   -5.0558   24.9005 C   0  0  0  0  0  0  0  0  0  0  0  0
  -23.6359  -10.5663   21.0914 C   0  0  0  0  0  0  0  0  0  0  0  0
  -24.1098  -13.0528   20.7745 C   0  0  0  0  0  0  0  0  0  0  0  0
  -25.9166  -32.5520   23.7509 C   0  0  0  0  0  0  0  0  0  0  0  0
  -27.0174  -25.3073   23.3227 C   0  0  0  0  0  0  0  0  0  0  0  0
  -26.6281  -31.3554   23.9615 C   0  0  0  0  0  0  0  0  0  0  0  0
  -26.6419  -24.6038   24.4761 C   0  0  0  0  0  0  0  0  0  0  0  0
  -29.9807  -17.4454   22.9075 C   0  0  0  0  0  0  0  0  0  0  0  0
  -30.6028  -18.3651   23.7519 C   0  0  0  0  0  0  0  0  0  0  0  0
  -30.7392  -16.4728   22.2561 C   0  0  0  0  0  0  0  0  0  0  0  0
  -22.0169   -8.3849   21.7263 C   0  0  0  0  0  0  0  0  0  0  0  0
  -28.7723  -23.4333   24.4407 C   0  0  0  0  0  0  0  0  0  0  0  0
  -21.7609   -6.3397   22.8549 C   0  0  0  0  0  0  0  0  0  0  0  0
  -22.8381   -4.3615   24.5008 C   0  0  0  0  0  0  0  0  0  0  0  0
  -21.1576   -6.0449   24.0775 C   0  0  0  0  0  0  0  0  0  0  0  0
  -24.4727  -11.6926   20.7641 C   0  0  0  0  0  0  0  0  0  0  0  0
  -25.2500  -13.7154   20.3906 C   0  0  0  0  0  0  0  0  0  0  0  0
  -22.8542  -13.6627   21.1019 C   0  0  0  0  0  0  0  0  0  0  0  0
  -25.6334  -27.8581   24.6193 C   0  0  0  0  0  0  0  0  0  0  0  0
  -23.0546  -25.8964   24.7743 C   0  0  0  0  0  0  0  0  0  0  0  0
  -21.8423  -22.7082   24.8860 C   0  0  0  0  0  0  0  0  0  0  0  0
  -30.7537  -14.5082   20.6792 C   0  0  0  0  0  0  0  0  0  0  0  0
  -24.6508  -32.8661   24.5084 C   0  0  0  0  0  0  0  0  0  0  0  0
  -26.0741  -26.2943   22.6916 C   0  0  0  0  0  0  0  0  0  0  0  0
  -25.3099  -24.8270   25.1426 C   0  0  0  0  0  0  0  0  0  0  0  0
  -24.0050  -31.6408   25.1500 C   0  0  0  0  0  0  0  0  0  0  0  0
  -29.5958  -11.9583   18.4804 C   0  0  0  0  0  0  0  0  0  0  0  0
  -25.0533  -30.8026   25.8747 C   0  0  0  0  0  0  0  0  0  0  0  0
  -28.1298  -11.7738   18.8794 C   0  0  0  0  0  0  0  0  0  0  0  0
  -30.4816  -12.2441   19.6918 C   0  0  0  0  0  0  0  0  0  0  0  0
  -28.5699  -13.1740   20.9368 C   0  0  0  0  0  0  0  0  0  0  0  0
  -29.0655  -20.3560   23.8127 C   0  0  0  0  0  0  0  0  0  0  0  0
  -30.2871  -20.1353   25.5117 C   0  0  0  0  0  0  0  0  0  0  0  0
  -26.1156  -30.2831   24.8983 C   0  0  1  0  0  0  0  0  0  0  0  0
  -25.0463  -26.8498   23.6726 C   0  0  1  0  0  0  0  0  0  0  0  0
  -27.6285  -12.9483   19.7424 C   0  0  2  0  0  0  0  0  0  0  0  0
  -29.2011  -21.1480   25.1208 C   0  0  0  0  0  0  0  0  0  1  0  0
  -28.4989  -17.5031   22.6999 C   0  0  0  0  0  0  0  0  0  0  0  0
  -19.6934  -21.4225   25.0485 C   0  0  0  0  0  0  0  0  0  0  0  0
  -22.8850  -26.5604   27.7476 C   0  0  0  0  0  0  0  0  0  0  0  0
  -21.3828  -24.5780   28.0334 C   0  0  0  0  0  0  0  0  0  0  0  0
  -20.6800  -26.4727   26.5709 C   0  0  0  0  0  0  0  0  0  0  0  0
  -22.2959  -21.3943   22.2732 C   0  0  0  0  0  0  0  0  0  0  0  0
  -22.5148  -24.9185   25.7898 C   0  0  1  0  0  0  0  0  0  0  0  0
  -20.7283  -22.0265   24.1121 C   0  0  2  0  0  0  0  0  0  0  0  0
  -21.8917  -25.6294   27.0242 C   0  0  0  0  0  0  0  0  0  0  0  0
  -25.7440  -11.5010   20.4021 N   0  0  0  0  0  0  0  0  0  0  0  0
  -26.1899  -12.7494   20.1815 N   0  0  0  0  0  0  0  0  0  0  0  0
  -29.8648  -19.3431   24.4095 N   0  0  0  0  0  0  0  0  0  0  0  0
  -24.4249  -25.8068   24.4912 N   0  0  0  0  0  0  0  0  0  0  0  0
  -29.9475  -13.3714   20.4592 N   0  0  0  0  0  0  0  0  0  0  0  0
  -25.5303  -15.0242   20.2149 N   0  0  0  0  0  0  0  0  0  0  0  0
  -21.7868  -12.8352   21.4761 N   0  0  0  0  0  0  0  0  0  0  0  0
  -30.1279  -15.5294   21.3934 N   0  0  0  0  0  0  0  0  0  0  0  0
  -25.6041  -29.1566   24.1475 N   0  0  0  0  0  0  0  0  0  0  0  0
  -21.5890  -24.0512   25.0693 N   0  0  0  0  0  0  0  0  0  0  0  0
  -21.2819  -20.9377   23.2583 N   0  3  0  0  0  0  0  0  0  0  0  0
  -22.6792  -14.9037   21.0479 O   0  0  0  0  0  0  0  0  0  0  0  0
  -26.0785  -27.4859   25.6986 O   0  0  0  0  0  0  0  0  0  0  0  0
  -22.2873  -26.7052   24.2464 O   0  0  0  0  0  0  0  0  0  0  0  0
  -22.8358  -22.1086   25.2908 O   0  0  0  0  0  0  0  0  0  0  0  0
  -31.9046  -14.5821   20.2411 O   0  0  0  0  0  0  0  0  0  0  0  0
  -21.2269   -7.3208   22.0364 O   0  0  0  0  0  0  0  0  0  0  0  0
  -29.6245  -22.5252   24.9894 O   0  0  0  0  0  0  0  0  0  1  0  0
  -23.3545   -3.4107   25.2903 F   0  0  0  0  0  0  0  0  0  0  0  0
  -20.0597   -6.7077   24.4663 F   0  0  0  0  0  0  0  0  0  0  0  0
  1  2  1  0  0  0  0
  1  6  2  0  0  0  0
  2  7  2  0  0  0  0
  3  9  2  0  0  0  0
  3 10  1  0  0  0  0
  4 11  2  0  0  0  0
  4 18  1  0  0  0  0
  5 12  1  0  0  0  0
  5 18  2  0  0  0  0
  6 20  1  0  0  0  0
  7 22  1  0  0  0  0
  8 13  2  0  0  0  0
  8 21  1  0  0  0  0
  9 25  1  0  0  0  0
 10 26  2  0  0  0  0
 11 27  1  0  0  0  0
 12 27  2  0  0  0  0
 13 28  1  0  0  0  0
 14 15  2  0  0  0  0
 14 29  1  0  0  0  0
 15 30  1  0  0  0  0
 16 23  1  0  0  0  0
 16 28  2  0  0  0  0
 17 30  2  0  0  0  0
 17 31  1  0  0  0  0
 18 32  1  0  0  0  0
 19 32  1  0  0  0  0
 19 33  2  0  0  0  0
 19 34  1  0  0  0  0
 20 22  2  0  0  0  0
 20 39  1  0  0  0  0
 21 23  2  0  0  0  0
 21 40  1  0  0  0  0
 22 50  1  0  0  0  0
 23 41  1  0  0  0  0
 24 25  2  0  0  0  0
 24 26  1  0  0  0  0
 24 54  1  0  0  0  0
 25 65  1  0  0  0  0
 26 70  1  0  0  0  0
 27 79  1  0  0  0  0
 28 80  1  0  0  0  0
 29 31  2  0  0  0  0
 29 79  1  0  0  0  0
 30 81  1  0  0  0  0
 31 82  1  0  0  0  0
 32 63  2  0  0  0  0
 33 64  1  0  0  0  0
 33 68  1  0  0  0  0
 34 69  1  0  0  0  0
 34 74  2  0  0  0  0
 35 51  1  0  0  0  0
 35 71  1  0  0  0  0
 35 75  2  0  0  0  0
 36 60  1  0  0  0  0
 36 66  1  0  0  0  0
 36 76  2  0  0  0  0
 37 61  1  0  0  0  0
 37 72  1  0  0  0  0
 37 77  2  0  0  0  0
 38 67  1  0  0  0  0
 38 70  1  0  0  0  0
 38 78  2  0  0  0  0
 39 42  1  0  0  0  0
 40 51  1  0  0  0  0
 41 66  1  0  0  0  0
 42 44  1  0  0  0  0
 43 45  1  0  0  0  0
 43 46  1  0  0  0  0
 44 50  1  0  0  0  0
 45 52  1  0  0  0  0
 46 67  1  0  0  0  0
 47 52  1  0  0  0  0
 47 67  1  0  0  0  0
 48 53  1  0  0  0  0
 48 65  1  0  0  0  0
 49 53  1  0  0  0  0
 49 65  1  0  0  0  0
 50 71  1  0  0  0  0
 51 66  1  0  0  0  0
 52 64  1  0  0  0  0
 53 80  1  0  0  0  0
 55 61  1  0  0  0  0
 56 62  1  0  0  0  0
 57 62  1  0  0  0  0
 58 62  1  0  0  0  0
 59 73  1  0  0  0  0
 60 62  1  0  0  0  0
 60 72  1  0  0  0  0
 61 73  1  0  0  0  0
 63 64  1  0  0  0  0
M  CHG  1  73   1
M  ISO  4  38 100  53 101  70 100  80 101
M  END
> <Batch ID>
0029

> <Smiles>
CNC(C)C(=O)NC(C(=O)N1Cc2cc([101O:1][101CH:1]3CN(c4cccc([100NH:0][100C:0](=O)N5CCCC(n6nc(-c7ccc(Oc8ccc(F)cc8F)cc7)c(C(N)=O)c6N)C5)c4C)C3)ccc2CC1C(=O)NC1CCCc2ccccc21)C(C)(C)C

> <Shape>
0.239

> <Color>
0.194

> <Negative vol penalty>
0.000

$$$$

  -OEChem-04042321343D

 85 94  0     1  0  0  0  0  0999 V2000
  -26.5366  -36.3810   20.1799 C   0  0  0  0  0  0  0  0  0  0  0  0
  -27.0862  -35.1093   20.3076 C   0  0  0  0  0  0  0  0  0  0  0  0
  -24.1961  -13.6140   20.4620 C   0  0  0  0  0  0  0  0  0  0  0  0
  -26.4675  -13.4594   21.2705 C   0  0  0  0  0  0  0  0  0  0  0  0
  -25.3956  -36.7221   20.9048 C   0  0  0  0  0  0  0  0  0  0  0  0
  -26.4955  -34.1784   21.1613 C   0  0  0  0  0  0  0  0  0  0  0  0
  -26.1066  -29.5876   19.0592 C   0  0  0  0  0  0  0  0  0  0  0  0
  -31.0709  -24.1352   23.5683 C   0  0  0  0  0  0  0  0  0  0  0  0
  -30.1680  -23.3058   24.2336 C   0  0  0  0  0  0  0  0  0  0  0  0
  -24.1839  -12.2381   20.2330 C   0  0  0  0  0  0  0  0  0  0  0  0
  -26.4553  -12.0835   21.0416 C   0  0  0  0  0  0  0  0  0  0  0  0
  -27.2607  -28.8065   19.0176 C   0  0  0  0  0  0  0  0  0  0  0  0
  -23.8197   -9.4129   22.0547 C   0  0  0  0  0  0  0  0  0  0  0  0
  -22.6965   -8.6968   22.4684 C   0  0  0  0  0  0  0  0  0  0  0  0
  -26.4935  -27.5809   20.9486 C   0  0  0  0  0  0  0  0  0  0  0  0
  -30.1608  -23.4239   21.4463 C   0  0  0  0  0  0  0  0  0  0  0  0
  -22.3058   -7.9937   20.1902 C   0  0  0  0  0  0  0  0  0  0  0  0
  -25.3379  -14.2247   20.9807 C   0  0  0  0  0  0  0  0  0  0  0  0
  -24.9767  -16.3151   22.3974 C   0  0  0  0  0  0  0  0  0  0  0  0
  -24.7851  -35.7917   21.7606 C   0  0  0  0  0  0  0  0  0  0  0  0
  -25.1408  -29.3781   20.0541 C   0  0  0  0  0  0  0  0  0  0  0  0
  -25.3460  -34.5078   21.8995 C   0  0  0  0  0  0  0  0  0  0  0  0
  -25.3268  -28.3590   20.9991 C   0  0  0  0  0  0  0  0  0  0  0  0
  -31.0673  -24.1942   22.1747 C   0  0  0  0  0  0  0  0  0  0  0  0
  -29.2616  -22.5355   23.5052 C   0  0  0  0  0  0  0  0  0  0  0  0
  -29.2580  -22.5945   22.1116 C   0  0  0  0  0  0  0  0  0  0  0  0
  -25.3135  -11.4729   20.5229 C   0  0  0  0  0  0  0  0  0  0  0  0
  -27.4556  -27.8049   19.9641 C   0  0  0  0  0  0  0  0  0  0  0  0
  -24.1860   -9.4194   20.7088 C   0  0  0  0  0  0  0  0  0  0  0  0
  -21.9395   -7.9872   21.5361 C   0  0  0  0  0  0  0  0  0  0  0  0
  -23.4291   -8.7098   19.7765 C   0  0  0  0  0  0  0  0  0  0  0  0
  -25.3512  -15.6460   21.2169 C   0  0  0  0  0  0  0  0  0  0  0  0
  -25.1690  -17.6452   22.1140 C   0  0  0  0  0  0  0  0  0  0  0  0
  -31.4777  -26.1843   19.2602 C   0  0  0  0  0  0  0  0  0  0  0  0
  -24.4979  -15.7820   23.6393 C   0  0  0  0  0  0  0  0  0  0  0  0
  -23.9363  -31.1316   22.4159 C   0  0  0  0  0  0  0  0  0  0  0  0
  -21.9367  -28.5997   22.7534 C   0  0  0  0  0  0  0  0  0  0  0  0
  -21.3705  -25.2699   22.2652 C   0  0  0  0  0  0  0  0  0  0  0  0
  -28.2231  -21.7756   19.9657 C   0  0  0  0  0  0  0  0  0  0  0  0
  -23.5805  -36.2218   22.5596 C   0  0  0  0  0  0  0  0  0  0  0  0
  -23.8888  -30.2115   20.0692 C   0  0  0  0  0  0  0  0  0  0  0  0
  -24.3107  -28.0803   22.0753 C   0  0  0  0  0  0  0  0  0  0  0  0
  -30.7094  -27.4184   18.8459 C   0  0  0  0  0  0  0  0  0  0  0  0
  -22.7981  -35.0554   23.1577 C   0  0  0  0  0  0  0  0  0  0  0  0
  -26.1276  -19.9721   17.7221 C   0  0  0  0  0  0  0  0  0  0  0  0
  -23.7461  -34.0601   23.8193 C   0  0  0  0  0  0  0  0  0  0  0  0
  -25.7080  -18.7409   18.5285 C   0  0  0  0  0  0  0  0  0  0  0  0
  -27.5704  -20.3785   18.0171 C   0  0  0  0  0  0  0  0  0  0  0  0
  -27.4649  -19.3339   20.2457 C   0  0  0  0  0  0  0  0  0  0  0  0
  -30.5869  -27.1385   21.2350 C   0  0  0  0  0  0  0  0  0  0  0  0
  -24.7198  -33.4622   22.7966 C   0  0  1  0  0  0  0  0  0  0  0  0
  -23.2134  -30.2507   21.4365 C   0  0  1  0  0  0  0  0  0  0  0  0
  -25.9984  -18.9254   20.0309 C   0  0  2  0  0  0  0  0  0  0  0  0
  -29.8280  -27.7179   20.0554 C   0  0  2  0  0  0  0  0  0  1  0  0
  -28.3065  -21.6554   24.2444 C   0  0  0  0  0  0  0  0  0  0  0  0
  -19.6610  -23.4806   22.6815 C   0  0  0  0  0  0  0  0  0  0  0  0
  -22.7558  -28.5041   25.6910 C   0  0  0  0  0  0  0  0  0  0  0  0
  -21.7954  -26.1951   25.8116 C   0  0  0  0  0  0  0  0  0  0  0  0
  -20.3180  -28.1322   25.2751 C   0  0  0  0  0  0  0  0  0  0  0  0
  -21.0463  -24.7440   19.3708 C   0  0  0  0  0  0  0  0  0  0  0  0
  -32.0394  -25.0874   21.4595 C   0  0  0  0  0  0  0  0  0  0  0  0
  -21.9654  -27.3124   23.5414 C   0  0  1  0  0  0  0  0  0  0  0  0
  -20.1750  -24.5235   21.7012 C   0  0  2  0  0  0  0  0  0  0  0  0
  -21.7289  -27.5422   25.0608 C   0  0  0  0  0  0  0  0  0  0  0  0
  -25.7511  -16.4820   20.2550 N   0  0  0  0  0  0  0  0  0  0  0  0
  -25.6288  -17.6902   20.8307 N   0  0  0  0  0  0  0  0  0  0  0  0
  -31.3674  -26.0750   20.6427 N   0  0  0  0  0  0  0  0  0  0  0  0
  -23.1060  -28.9263   22.0520 N   0  0  0  0  0  0  0  0  0  0  0  0
  -27.7701  -20.5392   19.4590 N   0  0  0  0  0  0  0  0  0  0  0  0
  -24.9879  -18.7690   22.8397 N   0  0  0  0  0  0  0  0  0  0  0  0
  -24.3593  -14.3926   23.7608 N   0  0  0  0  0  0  0  0  0  0  0  0
  -28.3445  -21.8201   21.3542 N   0  0  0  0  0  0  0  0  0  0  0  0
  -24.0606  -32.4453   22.0057 N   0  0  0  0  0  0  0  0  0  0  0  0
  -20.9914  -26.4269   22.9123 N   0  0  0  0  0  0  0  0  0  0  0  0
  -20.5459  -23.8341   20.4331 N   0  3  0  0  0  0  0  0  0  0  0  0
  -32.1049  -25.4686   18.4933 O   0  0  0  0  0  0  0  0  0  0  0  0
  -24.1862  -16.5170   24.6068 O   0  0  0  0  0  0  0  0  0  0  0  0
  -24.3493  -30.6551   23.4666 O   0  0  0  0  0  0  0  0  0  0  0  0
  -20.9121  -29.2866   22.7542 O   0  0  0  0  0  0  0  0  0  0  0  0
  -22.5249  -24.8650   22.1469 O   0  0  0  0  0  0  0  0  0  0  0  0
  -28.4581  -22.7336   19.2248 O   0  0  0  0  0  0  0  0  0  0  0  0
  -25.3019  -10.1302   20.2998 O   0  0  0  0  0  0  0  0  0  0  0  0
  -28.5815  -27.0415   19.9262 O   0  0  0  0  0  0  0  0  0  1  0  0
  -20.8618   -7.2983   21.9337 F   0  0  0  0  0  0  0  0  0  0  0  0
  -23.7767   -8.7113   18.4823 F   0  0  0  0  0  0  0  0  0  0  0  0
  1  2  1  0  0  0  0
  1  5  2  0  0  0  0
  2  6  2  0  0  0  0
  3 10  2  0  0  0  0
  3 18  1  0  0  0  0
  4 11  1  0  0  0  0
  4 18  2  0  0  0  0
  5 20  1  0  0  0  0
  6 22  1  0  0  0  0
  7 12  2  0  0  0  0
  7 21  1  0  0  0  0
  8  9  2  0  0  0  0
  8 24  1  0  0  0  0
  9 25  1  0  0  0  0
 10 27  1  0  0  0  0
 11 27  2  0  0  0  0
 12 28  1  0  0  0  0
 13 14  2  0  0  0  0
 13 29  1  0  0  0  0
 14 30  1  0  0  0  0
 15 23  1  0  0  0  0
 15 28  2  0  0  0  0
 16 24  2  0  0  0  0
 16 26  1  0  0  0  0
 17 30  2  0  0  0  0
 17 31  1  0  0  0  0
 18 32  1  0  0  0  0
 19 32  1  0  0  0  0
 19 33  2  0  0  0  0
 19 35  1  0  0  0  0
 20 22  2  0  0  0  0
 20 40  1  0  0  0  0
 21 23  2  0  0  0  0
 21 41  1  0  0  0  0
 22 51  1  0  0  0  0
 23 42  1  0  0  0  0
 24 61  1  0  0  0  0
 25 26  2  0  0  0  0
 25 55  1  0  0  0  0
 26 72  1  0  0  0  0
 27 82  1  0  0  0  0
 28 83  1  0  0  0  0
 29 31  2  0  0  0  0
 29 82  1  0  0  0  0
 30 84  1  0  0  0  0
 31 85  1  0  0  0  0
 32 65  2  0  0  0  0
 33 66  1  0  0  0  0
 33 70  1  0  0  0  0
 34 43  1  0  0  0  0
 34 67  1  0  0  0  0
 34 76  2  0  0  0  0
 35 71  1  0  0  0  0
 35 77  2  0  0  0  0
 36 52  1  0  0  0  0
 36 73  1  0  0  0  0
 36 78  2  0  0  0  0
 37 62  1  0  0  0  0
 37 68  1  0  0  0  0
 37 79  2  0  0  0  0
 38 63  1  0  0  0  0
 38 74  1  0  0  0  0
 38 80  2  0  0  0  0
 39 69  1  0  0  0  0
 39 72  1  0  0  0  0
 39 81  2  0  0  0  0
 40 44  1  0  0  0  0
 41 52  1  0  0  0  0
 42 68  1  0  0  0  0
 43 54  1  0  0  0  0
 44 46  1  0  0  0  0
 45 47  1  0  0  0  0
 45 48  1  0  0  0  0
 46 51  1  0  0  0  0
 47 53  1  0  0  0  0
 48 69  1  0  0  0  0
 49 53  1  0  0  0  0
 49 69  1  0  0  0  0
 50 54  1  0  0  0  0
 50 67  1  0  0  0  0
 51 73  1  0  0  0  0
 52 68  1  0  0  0  0
 53 66  1  0  0  0  0
 54 83  1  0  0  0  0
 56 63  1  0  0  0  0
 57 64  1  0  0  0  0
 58 64  1  0  0  0  0
 59 64  1  0  0  0  0
 60 75  1  0  0  0  0
 61 67  1  0  0  0  0
 62 64  1  0  0  0  0
 62 74  1  0  0  0  0
 63 75  1  0  0  0  0
 65 66  1  0  0  0  0
M  CHG  1  75   1
M  ISO  4  39 100  54 101  72 100  83 101
M  END
> <Batch ID>
0029

> <Smiles>
CNC(C)C(=O)NC(C(=O)N1Cc2cc([101O:1][101CH:1]3CC(=O)N(Cc4ccc(C)c([100NH:0][100C:0](=O)N5CCCC(n6nc(-c7ccc(Oc8ccc(F)cc8F)cc7)c(C(N)=O)c6N)C5)c4)C3)ccc2CC1C(=O)NC1CCCc2ccccc21)C(C)(C)C

> <Shape>
0.253

> <Color>
0.091

> <Negative vol penalty>
0.000

$$$$

  -OEChem-04042321343D

 84 93  0     1  0  0  0  0  0999 V2000
  -28.0324  -33.0623   22.0090 C   0  0  0  0  0  0  0  0  0  0  0  0
  -28.4657  -31.7403   22.0010 C   0  0  0  0  0  0  0  0  0  0  0  0
  -23.0039   -9.8897   19.9806 C   0  0  0  0  0  0  0  0  0  0  0  0
  -23.7259   -9.9450   22.2855 C   0  0  0  0  0  0  0  0  0  0  0  0
  -27.3677  -33.5700   23.1245 C   0  0  0  0  0  0  0  0  0  0  0  0
  -28.2354  -30.9255   23.1089 C   0  0  0  0  0  0  0  0  0  0  0  0
  -27.0341  -24.9204   23.0764 C   0  0  0  0  0  0  0  0  0  0  0  0
  -22.2383   -8.7547   20.2477 C   0  0  0  0  0  0  0  0  0  0  0  0
  -22.9603   -8.8101   22.5526 C   0  0  0  0  0  0  0  0  0  0  0  0
  -27.8393  -23.8016   23.2857 C   0  0  0  0  0  0  0  0  0  0  0  0
  -23.2090   -5.4707   22.0862 C   0  0  0  0  0  0  0  0  0  0  0  0
  -23.7967   -4.4553   22.8407 C   0  0  0  0  0  0  0  0  0  0  0  0
  -27.1469  -23.7429   25.5957 C   0  0  0  0  0  0  0  0  0  0  0  0
  -31.8449  -18.3549   24.1659 C   0  0  0  0  0  0  0  0  0  0  0  0
  -32.0502  -16.5588   22.5632 C   0  0  0  0  0  0  0  0  0  0  0  0
  -22.0703   -4.6989   24.5133 C   0  0  0  0  0  0  0  0  0  0  0  0
  -23.7478  -10.4848   20.9995 C   0  0  0  0  0  0  0  0  0  0  0  0
  -24.1305  -13.0005   20.8201 C   0  0  0  0  0  0  0  0  0  0  0  0
  -27.1206  -32.7583   24.2428 C   0  0  0  0  0  0  0  0  0  0  0  0
  -26.2864  -25.4663   24.1297 C   0  0  0  0  0  0  0  0  0  0  0  0
  -27.5679  -31.4232   24.2409 C   0  0  0  0  0  0  0  0  0  0  0  0
  -26.3310  -24.8671   25.3966 C   0  0  0  0  0  0  0  0  0  0  0  0
  -30.4615  -18.3562   23.9873 C   0  0  0  0  0  0  0  0  0  0  0  0
  -30.6668  -16.5600   22.3846 C   0  0  0  0  0  0  0  0  0  0  0  0
  -22.2164   -8.2149   21.5337 C   0  0  0  0  0  0  0  0  0  0  0  0
  -27.8980  -23.2144   24.5462 C   0  0  0  0  0  0  0  0  0  0  0  0
  -22.0520   -6.1003   22.5453 C   0  0  0  0  0  0  0  0  0  0  0  0
  -23.2274   -4.0694   24.0542 C   0  0  0  0  0  0  0  0  0  0  0  0
  -32.6392  -17.4563   23.4538 C   0  0  0  0  0  0  0  0  0  0  0  0
  -21.4826   -5.7143   23.7588 C   0  0  0  0  0  0  0  0  0  0  0  0
  -29.8725  -17.4587   23.0967 C   0  0  0  0  0  0  0  0  0  0  0  0
  -24.5393  -11.6569   20.7241 C   0  0  0  0  0  0  0  0  0  0  0  0
  -25.2399  -13.7238   20.4561 C   0  0  0  0  0  0  0  0  0  0  0  0
  -22.8614  -13.5461   21.2041 C   0  0  0  0  0  0  0  0  0  0  0  0
  -26.2394  -28.2678   25.6307 C   0  0  0  0  0  0  0  0  0  0  0  0
  -23.6519  -26.9902   27.1121 C   0  0  0  0  0  0  0  0  0  0  0  0
  -21.9555  -24.1913   28.0791 C   0  0  0  0  0  0  0  0  0  0  0  0
  -30.7180  -14.6914   20.6958 C   0  0  0  0  0  0  0  0  0  0  0  0
  -26.4400  -33.3651   25.4442 C   0  0  0  0  0  0  0  0  0  0  0  0
  -25.4021  -26.6573   23.8811 C   0  0  0  0  0  0  0  0  0  0  0  0
  -25.5320  -25.4025   26.5557 C   0  0  0  0  0  0  0  0  0  0  0  0
  -25.9042  -32.3289   26.4288 C   0  0  0  0  0  0  0  0  0  0  0  0
  -29.6055  -12.2337   18.3722 C   0  0  0  0  0  0  0  0  0  0  0  0
  -26.9545  -31.2561   26.6989 C   0  0  0  0  0  0  0  0  0  0  0  0
  -28.1547  -11.9751   18.7848 C   0  0  0  0  0  0  0  0  0  0  0  0
  -28.7334  -20.4430   26.4891 C   0  0  0  0  0  0  0  0  0  0  0  0
  -30.5042  -12.4800   19.5828 C   0  0  0  0  0  0  0  0  0  0  0  0
  -30.0143  -19.7527   26.0208 C   0  0  0  0  0  0  0  0  0  0  0  0
  -28.5862  -13.2688   20.9125 C   0  0  0  0  0  0  0  0  0  0  0  0
  -28.4159  -19.7958   24.2003 C   0  0  0  0  0  0  0  0  0  0  0  0
  -27.3149  -30.5010   25.4138 C   0  0  1  0  0  0  0  0  0  0  0  0
  -25.0814  -27.4390   25.1514 C   0  0  1  0  0  0  0  0  0  0  0  0
  -27.6303  -13.0795   19.7234 C   0  0  2  0  0  0  0  0  0  0  0  0
  -28.0852  -20.9090   25.1935 C   0  0  2  0  0  0  0  0  0  1  0  0
  -19.8910  -23.4648   29.3069 C   0  0  0  0  0  0  0  0  0  0  0  0
  -25.0002  -27.6547   29.7674 C   0  0  0  0  0  0  0  0  0  0  0  0
  -23.3972  -26.0946   30.8920 C   0  0  0  0  0  0  0  0  0  0  0  0
  -22.5426  -28.1134   29.7017 C   0  0  0  0  0  0  0  0  0  0  0  0
  -20.8733  -22.8248   25.6873 C   0  0  0  0  0  0  0  0  0  0  0  0
  -23.4317  -26.1656   28.3573 C   0  0  1  0  0  0  0  0  0  0  0  0
  -20.4926  -23.8060   27.9525 C   0  0  2  0  0  0  0  0  0  0  0  0
  -23.6096  -26.9979   29.6584 C   0  0  0  0  0  0  0  0  0  0  0  0
  -25.8092  -11.5312   20.3298 N   0  0  0  0  0  0  0  0  0  0  0  0
  -26.2080  -12.8052   20.1748 N   0  0  0  0  0  0  0  0  0  0  0  0
  -29.6787  -19.2450   24.6939 N   0  0  3  0  0  0  0  0  0  0  0  0
  -24.6872  -26.5724   26.2639 N   0  0  0  0  0  0  0  0  0  0  0  0
  -29.9468  -13.5416   20.4237 N   0  0  0  0  0  0  0  0  0  0  0  0
  -25.4720  -15.0496   20.3523 N   0  0  0  0  0  0  0  0  0  0  0  0
  -21.8301  -12.6613   21.5476 N   0  0  0  0  0  0  0  0  0  0  0  0
  -30.0716  -15.6471   21.4790 N   0  0  0  0  0  0  0  0  0  0  0  0
  -26.2852  -29.5378   25.0879 N   0  0  0  0  0  0  0  0  0  0  0  0
  -22.1148  -25.5542   28.2144 N   0  0  0  0  0  0  0  0  0  0  0  0
  -20.3443  -22.6213   27.0606 N   0  3  0  0  0  0  0  0  0  0  0  0
  -22.6433  -14.7812   21.2257 O   0  0  0  0  0  0  0  0  0  0  0  0
  -27.0319  -27.7910   26.4347 O   0  0  0  0  0  0  0  0  0  0  0  0
  -22.9272  -27.9648   26.8962 O   0  0  0  0  0  0  0  0  0  0  0  0
  -22.8656  -23.3654   28.0635 O   0  0  0  0  0  0  0  0  0  0  0  0
  -31.8571  -14.8309   20.2431 O   0  0  0  0  0  0  0  0  0  0  0  0
  -21.4693   -7.1076   21.7947 O   0  0  0  0  0  0  0  0  0  0  0  0
  -28.6836  -22.1227   24.7533 O   0  0  0  0  0  0  0  0  0  1  0  0
  -23.7910   -3.0933   24.7778 F   0  0  0  0  0  0  0  0  0  0  0  0
  -33.9678  -17.4557   23.6244 F   0  0  0  0  0  0  0  0  0  0  0  0
  -20.3705   -6.3146   24.2044 F   0  0  0  0  0  0  0  0  0  0  0  0
  -28.5415  -17.4594   22.9255 F   0  0  0  0  0  0  0  0  0  0  0  0
  1  2  1  0  0  0  0
  1  5  2  0  0  0  0
  2  6  2  0  0  0  0
  3  8  2  0  0  0  0
  3 17  1  0  0  0  0
  4  9  1  0  0  0  0
  4 17  2  0  0  0  0
  5 19  1  0  0  0  0
  6 21  1  0  0  0  0
  7 10  2  0  0  0  0
  7 20  1  0  0  0  0
  8 25  1  0  0  0  0
  9 25  2  0  0  0  0
 10 26  1  0  0  0  0
 11 12  2  0  0  0  0
 11 27  1  0  0  0  0
 12 28  1  0  0  0  0
 13 22  1  0  0  0  0
 13 26  2  0  0  0  0
 14 23  1  0  0  0  0
 14 29  2  0  0  0  0
 15 24  2  0  0  0  0
 15 29  1  0  0  0  0
 16 28  2  0  0  0  0
 16 30  1  0  0  0  0
 17 32  1  0  0  0  0
 18 32  1  0  0  0  0
 18 33  2  0  0  0  0
 18 34  1  0  0  0  0
 19 21  2  0  0  0  0
 19 39  1  0  0  0  0
 20 22  2  0  0  0  0
 20 40  1  0  0  0  0
 21 51  1  0  0  0  0
 22 41  1  0  0  0  0
 23 31  2  0  0  0  0
 23 65  1  0  0  0  0
 24 31  1  0  0  0  0
 24 70  1  0  0  0  0
 25 79  1  0  0  0  0
 26 80  1  0  0  0  0
 27 30  2  0  0  0  0
 27 79  1  0  0  0  0
 28 81  1  0  0  0  0
 29 82  1  0  0  0  0
 30 83  1  0  0  0  0
 31 84  1  0  0  0  0
 32 63  2  0  0  0  0
 33 64  1  0  0  0  0
 33 68  1  0  0  0  0
 34 69  1  0  0  0  0
 34 74  2  0  0  0  0
 35 52  1  0  0  0  0
 35 71  1  0  0  0  0
 35 75  2  0  0  0  0
 36 60  1  0  0  0  0
 36 66  1  0  0  0  0
 36 76  2  0  0  0  0
 37 61  1  0  0  0  0
 37 72  1  0  0  0  0
 37 77  2  0  0  0  0
 38 67  1  0  0  0  0
 38 70  1  0  0  0  0
 38 78  2  0  0  0  0
 39 42  1  0  0  0  0
 40 52  1  0  0  0  0
 41 66  1  0  0  0  0
 42 44  1  0  0  0  0
 43 45  1  0  0  0  0
 43 47  1  0  0  0  0
 44 51  1  0  0  0  0
 45 53  1  0  0  0  0
 46 48  1  0  0  0  0
 46 54  1  0  0  0  0
 47 67  1  0  0  0  0
 48 65  1  0  0  0  0
 49 53  1  0  0  0  0
 49 67  1  0  0  0  0
 50 54  1  0  0  0  0
 50 65  1  0  0  0  0
 51 71  1  0  0  0  0
 52 66  1  0  0  0  0
 53 64  1  0  0  0  0
 54 80  1  0  0  0  0
 55 61  1  0  0  0  0
 56 62  1  0  0  0  0
 57 62  1  0  0  0  0
 58 62  1  0  0  0  0
 59 73  1  0  0  0  0
 60 62  1  0  0  0  0
 60 72  1  0  0  0  0
 61 73  1  0  0  0  0
 63 64  1  0  0  0  0
M  CHG  1  73   1
M  ISO  4  38 100  54 101  70 100  80 101
M  END
> <Batch ID>
0029

> <Smiles>
CNC(C)C(=O)NC(C(=O)N1Cc2cc([101O:1][101CH:1]3CCN(c4cc(F)cc([100NH:0][100C:0](=O)N5CCCC(n6nc(-c7ccc(Oc8ccc(F)cc8F)cc7)c(C(N)=O)c6N)C5)c4F)C3)ccc2CC1C(=O)NC1CCCc2ccccc21)C(C)(C)C

> <Shape>
0.231

> <Color>
0.202

> <Negative vol penalty>
0.000

$$$$

  -OEChem-04042321343D

 83 92  0     1  0  0  0  0  0999 V2000
  -28.4423  -24.4235   17.1683 C   0  0  0  0  0  0  0  0  0  0  0  0
  -27.2024  -24.6830   17.7436 C   0  0  0  0  0  0  0  0  0  0  0  0
  -24.1414  -12.0580   20.9698 C   0  0  0  0  0  0  0  0  0  0  0  0
  -25.4303  -14.0050   20.3493 C   0  0  0  0  0  0  0  0  0  0  0  0
  -29.6044  -24.8956   17.7771 C   0  0  0  0  0  0  0  0  0  0  0  0
  -27.1241  -25.4137   18.9286 C   0  0  0  0  0  0  0  0  0  0  0  0
  -23.4831  -28.9312   18.8050 C   0  0  0  0  0  0  0  0  0  0  0  0
  -20.4372  -24.0261   24.2338 C   0  0  0  0  0  0  0  0  0  0  0  0
  -21.1819  -23.0156   24.8420 C   0  0  0  0  0  0  0  0  0  0  0  0
  -24.9998  -11.2515   20.2226 C   0  0  0  0  0  0  0  0  0  0  0  0
  -26.2888  -13.1985   19.6022 C   0  0  0  0  0  0  0  0  0  0  0  0
  -22.1718  -28.4972   18.9944 C   0  0  0  0  0  0  0  0  0  0  0  0
  -28.8836  -11.1138   20.1868 C   0  0  0  0  0  0  0  0  0  0  0  0
  -30.2548  -11.3320   20.3198 C   0  0  0  0  0  0  0  0  0  0  0  0
  -22.2735  -29.2138   21.2956 C   0  0  0  0  0  0  0  0  0  0  0  0
  -19.3771  -22.3875   22.8096 C   0  0  0  0  0  0  0  0  0  0  0  0
  -30.4052  -11.8253   17.9594 C   0  0  0  0  0  0  0  0  0  0  0  0
  -24.3566  -13.4348   21.0331 C   0  0  0  0  0  0  0  0  0  0  0  0
  -23.5973  -14.6171   23.1622 C   0  0  0  0  0  0  0  0  0  0  0  0
  -29.5396  -25.6407   18.9650 C   0  0  0  0  0  0  0  0  0  0  0  0
  -24.2044  -29.5008   19.8641 C   0  0  0  0  0  0  0  0  0  0  0  0
  -28.2866  -25.8950   19.5546 C   0  0  0  0  0  0  0  0  0  0  0  0
  -23.5929  -29.6565   21.1163 C   0  0  0  0  0  0  0  0  0  0  0  0
  -19.5347  -23.7120   23.2176 C   0  0  0  0  0  0  0  0  0  0  0  0
  -21.0242  -21.6911   24.4340 C   0  0  0  0  0  0  0  0  0  0  0  0
  -20.1218  -21.3770   23.4178 C   0  0  0  0  0  0  0  0  0  0  0  0
  -26.0735  -11.8217   19.5389 C   0  0  0  0  0  0  0  0  0  0  0  0
  -21.5678  -28.6358   20.2406 C   0  0  0  0  0  0  0  0  0  0  0  0
  -28.2732  -11.2513   18.9401 C   0  0  0  0  0  0  0  0  0  0  0  0
  -31.0157  -11.6878   19.2061 C   0  0  0  0  0  0  0  0  0  0  0  0
  -29.0340  -11.6071   17.8265 C   0  0  0  0  0  0  0  0  0  0  0  0
  -23.4698  -14.2685   21.8043 C   0  0  0  0  0  0  0  0  0  0  0  0
  -22.5104  -15.4181   23.4145 C   0  0  0  0  0  0  0  0  0  0  0  0
  -24.6078  -14.2498   24.1108 C   0  0  0  0  0  0  0  0  0  0  0  0
  -26.8622  -28.7403   21.4329 C   0  0  0  0  0  0  0  0  0  0  0  0
  -26.3792  -31.6142   22.8576 C   0  0  0  0  0  0  0  0  0  0  0  0
  -24.1900  -34.0794   23.7392 C   0  0  0  0  0  0  0  0  0  0  0  0
  -19.0881  -19.5741   21.9939 C   0  0  0  0  0  0  0  0  0  0  0  0
  -30.8262  -26.0895   19.6114 C   0  0  0  0  0  0  0  0  0  0  0  0
  -25.6089  -29.9883   19.6364 C   0  0  0  0  0  0  0  0  0  0  0  0
  -24.3172  -30.2801   22.2804 C   0  0  0  0  0  0  0  0  0  0  0  0
  -30.6314  -27.1764   20.6655 C   0  0  0  0  0  0  0  0  0  0  0  0
  -18.3954  -16.3623   20.6222 C   0  0  0  0  0  0  0  0  0  0  0  0
  -29.4795  -26.8155   21.5979 C   0  0  0  0  0  0  0  0  0  0  0  0
  -19.6643  -15.5599   20.9192 C   0  0  0  0  0  0  0  0  0  0  0  0
  -18.7117  -17.8167   20.2779 C   0  0  0  0  0  0  0  0  0  0  0  0
  -20.8143  -17.7179   21.5579 C   0  0  0  0  0  0  0  0  0  0  0  0
  -18.5799  -26.3657   20.6904 C   0  0  0  0  0  0  0  0  0  0  0  0
  -20.5207  -25.8366   21.2523 C   0  0  0  0  0  0  0  0  0  0  0  0
  -28.1589  -26.7053   20.8263 C   0  0  1  0  0  0  0  0  0  0  0  0
  -26.4242  -30.0838   20.9223 C   0  0  1  0  0  0  0  0  0  0  0  0
  -20.5418  -16.2629   21.9734 C   0  0  2  0  0  0  0  0  0  0  0  0
  -19.9681  -26.8284   20.2137 C   0  0  0  0  0  0  0  0  0  1  0  0
  -21.8359  -20.6294   25.1028 C   0  0  0  0  0  0  0  0  0  0  0  0
  -24.0834  -36.2863   24.9290 C   0  0  0  0  0  0  0  0  0  0  0  0
  -26.5591  -30.1735   25.5412 C   0  0  0  0  0  0  0  0  0  0  0  0
  -25.5217  -32.1849   26.6118 C   0  0  0  0  0  0  0  0  0  0  0  0
  -27.7273  -32.3834   25.4633 C   0  0  0  0  0  0  0  0  0  0  0  0
  -23.2556  -35.4783   21.3044 C   0  0  0  0  0  0  0  0  0  0  0  0
  -18.7340  -24.7995   22.5640 C   0  0  0  0  0  0  0  0  0  0  0  0
  -25.6315  -32.0893   24.0800 C   0  0  1  0  0  0  0  0  0  0  0  0
  -24.2586  -35.5884   23.5892 C   0  0  2  0  0  0  0  0  0  0  0  0
  -26.3467  -31.6942   25.4028 C   0  0  0  0  0  0  0  0  0  0  0  0
  -22.3873  -14.8040   21.2338 N   0  0  0  0  0  0  0  0  0  0  0  0
  -21.8246  -15.4972   22.2383 N   0  0  0  0  0  0  0  0  0  0  0  0
  -25.6907  -30.7354   22.0094 N   0  0  0  0  0  0  0  0  0  0  0  0
  -19.5422  -18.4189   21.3231 N   0  0  0  0  0  0  0  0  0  0  0  0
  -22.0840  -16.0554   24.5256 N   0  0  0  0  0  0  0  0  0  0  0  0
  -25.6541  -13.4203   23.6848 N   0  0  0  0  0  0  0  0  0  0  0  0
  -19.9471  -20.0376   22.9900 N   0  0  0  0  0  0  0  0  0  0  0  0
  -27.6309  -28.0214   20.5375 N   0  0  0  0  0  0  0  0  0  0  0  0
  -25.4413  -33.5257   23.9095 N   0  0  0  0  0  0  0  0  0  0  0  0
  -19.2199  -25.1431   21.2097 N   0  3  0  0  0  0  0  0  0  0  0  0
  -23.1899  -36.0664   22.6670 N   0  3  0  0  0  0  0  0  0  0  0  0
  -24.5747  -14.6320   25.3050 O   0  0  0  0  0  0  0  0  0  0  0  0
  -26.5288  -28.3830   22.5567 O   0  0  0  0  0  0  0  0  0  0  0  0
  -27.5292  -32.0140   22.6588 O   0  0  0  0  0  0  0  0  0  0  0  0
  -23.1320  -33.4547   23.7121 O   0  0  0  0  0  0  0  0  0  0  0  0
  -18.0036  -20.0968   21.7246 O   0  0  0  0  0  0  0  0  0  0  0  0
  -26.9116  -11.0351   18.8099 O   0  0  0  0  0  0  0  0  0  0  0  0
  -20.2882  -28.2124   20.4284 O   0  0  0  0  0  0  0  0  0  1  0  0
  -32.3322  -11.8988   19.3342 F   0  0  0  0  0  0  0  0  0  0  0  0
  -28.4529  -11.7418   16.6264 F   0  0  0  0  0  0  0  0  0  0  0  0
  1  2  1  0  0  0  0
  1  5  2  0  0  0  0
  2  6  2  0  0  0  0
  3 10  2  0  0  0  0
  3 18  1  0  0  0  0
  4 11  1  0  0  0  0
  4 18  2  0  0  0  0
  5 20  1  0  0  0  0
  6 22  1  0  0  0  0
  7 12  2  0  0  0  0
  7 21  1  0  0  0  0
  8  9  2  0  0  0  0
  8 24  1  0  0  0  0
  9 25  1  0  0  0  0
 10 27  1  0  0  0  0
 11 27  2  0  0  0  0
 12 28  1  0  0  0  0
 13 14  2  0  0  0  0
 13 29  1  0  0  0  0
 14 30  1  0  0  0  0
 15 23  1  0  0  0  0
 15 28  2  0  0  0  0
 16 24  2  0  0  0  0
 16 26  1  0  0  0  0
 17 30  2  0  0  0  0
 17 31  1  0  0  0  0
 18 32  1  0  0  0  0
 19 32  1  0  0  0  0
 19 33  2  0  0  0  0
 19 34  1  0  0  0  0
 20 22  2  0  0  0  0
 20 39  1  0  0  0  0
 21 23  2  0  0  0  0
 21 40  1  0  0  0  0
 22 50  1  0  0  0  0
 23 41  1  0  0  0  0
 24 60  1  0  0  0  0
 25 26  2  0  0  0  0
 25 54  1  0  0  0  0
 26 70  1  0  0  0  0
 27 80  1  0  0  0  0
 28 81  1  0  0  0  0
 29 31  2  0  0  0  0
 29 80  1  0  0  0  0
 30 82  1  0  0  0  0
 31 83  1  0  0  0  0
 32 64  2  0  0  0  0
 33 65  1  0  0  0  0
 33 68  1  0  0  0  0
 34 69  1  0  0  0  0
 34 75  2  0  0  0  0
 35 51  1  0  0  0  0
 35 71  1  0  0  0  0
 35 76  2  0  0  0  0
 36 61  1  0  0  0  0
 36 66  1  0  0  0  0
 36 77  2  0  0  0  0
 37 62  1  0  0  0  0
 37 72  1  0  0  0  0
 37 78  2  0  0  0  0
 38 67  1  0  0  0  0
 38 70  1  0  0  0  0
 38 79  2  0  0  0  0
 39 42  1  0  0  0  0
 40 51  1  0  0  0  0
 41 66  1  0  0  0  0
 42 44  1  0  0  0  0
 43 45  1  0  0  0  0
 43 46  1  0  0  0  0
 44 50  1  0  0  0  0
 45 52  1  0  0  0  0
 46 67  1  0  0  0  0
 47 52  1  0  0  0  0
 47 67  1  0  0  0  0
 48 53  1  0  0  0  0
 48 73  1  0  0  0  0
 49 53  1  0  0  0  0
 49 73  1  0  0  0  0
 50 71  1  0  0  0  0
 51 66  1  0  0  0  0
 52 65  1  0  0  0  0
 53 81  1  0  0  0  0
 55 62  1  0  0  0  0
 56 63  1  0  0  0  0
 57 63  1  0  0  0  0
 58 63  1  0  0  0  0
 59 74  1  0  0  0  0
 60 73  1  0  0  0  0
 61 63  1  0  0  0  0
 61 72  1  0  0  0  0
 62 74  1  0  0  0  0
 64 65  1  0  0  0  0
M  CHG  2  73   1  74   1
M  ISO  4  38 100  53 101  70 100  81 101
M  END
> <Batch ID>
0029

> <Smiles>
CNC(C)C(=O)NC(C(=O)N1Cc2cc([101O:1][101CH:1]3CN(Cc4ccc(C)c([100NH:0][100C:0](=O)N5CCCC(n6nc(-c7ccc(Oc8ccc(F)cc8F)cc7)c(C(N)=O)c6N)C5)c4)C3)ccc2CC1C(=O)NC1CCCc2ccccc21)C(C)(C)C

> <Shape>
0.277

> <Color>
0.083

> <Negative vol penalty>
0.000

$$$$

  -OEChem-04042321343D

 85 94  0     1  0  0  0  0  0999 V2000
  -29.6070  -35.3722   16.1600 C   0  0  0  0  0  0  0  0  0  0  0  0
  -29.6159  -33.9965   15.9530 C   0  0  0  0  0  0  0  0  0  0  0  0
  -22.9803   -9.9701   19.9786 C   0  0  0  0  0  0  0  0  0  0  0  0
  -24.3477   -9.4379   21.8980 C   0  0  0  0  0  0  0  0  0  0  0  0
  -29.4831  -35.8807   17.4523 C   0  0  0  0  0  0  0  0  0  0  0  0
  -29.5020  -33.1285   17.0383 C   0  0  0  0  0  0  0  0  0  0  0  0
  -26.6619  -27.7035   17.1312 C   0  0  0  0  0  0  0  0  0  0  0  0
  -22.3639   -8.7223   20.0718 C   0  0  0  0  0  0  0  0  0  0  0  0
  -23.7312   -8.1901   21.9912 C   0  0  0  0  0  0  0  0  0  0  0  0
  -27.1328  -26.3961   17.0177 C   0  0  0  0  0  0  0  0  0  0  0  0
  -20.8187   -6.9334   23.1567 C   0  0  0  0  0  0  0  0  0  0  0  0
  -20.4185   -6.5028   24.4216 C   0  0  0  0  0  0  0  0  0  0  0  0
  -27.1771  -26.2097   19.4224 C   0  0  0  0  0  0  0  0  0  0  0  0
  -28.7931  -18.8864   21.8208 C   0  0  0  0  0  0  0  0  0  0  0  0
  -29.2258  -19.7959   19.2192 C   0  0  0  0  0  0  0  0  0  0  0  0
  -21.8630   -4.5764   24.2228 C   0  0  0  0  0  0  0  0  0  0  0  0
  -23.9723  -10.3278   20.8917 C   0  0  0  0  0  0  0  0  0  0  0  0
  -24.2051  -12.8135   21.4162 C   0  0  0  0  0  0  0  0  0  0  0  0
  -29.3579  -35.0185   18.5531 C   0  0  0  0  0  0  0  0  0  0  0  0
  -26.4551  -28.2784   18.3934 C   0  0  0  0  0  0  0  0  0  0  0  0
  -29.3776  -33.6259   18.3467 C   0  0  0  0  0  0  0  0  0  0  0  0
  -26.7010  -27.5236   19.5492 C   0  0  0  0  0  0  0  0  0  0  0  0
  -28.9842  -17.9720   20.7850 C   0  0  0  0  0  0  0  0  0  0  0  0
  -29.0347  -20.7104   20.2550 C   0  0  0  0  0  0  0  0  0  0  0  0
  -22.7393   -7.8323   21.0781 C   0  0  0  0  0  0  0  0  0  0  0  0
  -27.3932  -25.6500   18.1633 C   0  0  0  0  0  0  0  0  0  0  0  0
  -21.7410   -6.1855   22.4248 C   0  0  0  0  0  0  0  0  0  0  0  0
  -20.9407   -5.3243   24.9547 C   0  0  0  0  0  0  0  0  0  0  0  0
  -22.2631   -5.0070   22.9578 C   0  0  0  0  0  0  0  0  0  0  0  0
  -28.8183  -20.2557   21.5557 C   0  0  0  0  0  0  0  0  0  0  0  0
  -29.2006  -18.4267   19.4842 C   0  0  0  0  0  0  0  0  0  0  0  0
  -24.6098  -11.6164   20.7957 C   0  0  0  0  0  0  0  0  0  0  0  0
  -25.1343  -13.7408   21.0124 C   0  0  0  0  0  0  0  0  0  0  0  0
  -23.0890  -13.0647   22.2804 C   0  0  0  0  0  0  0  0  0  0  0  0
  -27.6720  -30.7676   19.9511 C   0  0  0  0  0  0  0  0  0  0  0  0
  -25.3924  -30.0201   22.1344 C   0  0  0  0  0  0  0  0  0  0  0  0
  -23.3290  -27.6552   23.4747 C   0  0  0  0  0  0  0  0  0  0  0  0
  -30.6717  -14.8313   20.3303 C   0  0  0  0  0  0  0  0  0  0  0  0
  -29.2740  -35.6144   19.9360 C   0  0  0  0  0  0  0  0  0  0  0  0
  -25.9213  -29.6807   18.4987 C   0  0  0  0  0  0  0  0  0  0  0  0
  -26.4760  -28.0876   20.9275 C   0  0  0  0  0  0  0  0  0  0  0  0
  -28.7813  -34.6307   20.9942 C   0  0  0  0  0  0  0  0  0  0  0  0
  -28.7287  -13.5008   17.4743 C   0  0  0  0  0  0  0  0  0  0  0  0
  -29.5065  -33.2954   20.8606 C   0  0  0  0  0  0  0  0  0  0  0  0
  -27.4859  -12.9292   18.1545 C   0  0  0  0  0  0  0  0  0  0  0  0
  -29.9421  -13.4787   18.3990 C   0  0  0  0  0  0  0  0  0  0  0  0
  -28.4734  -13.5834   20.3855 C   0  0  0  0  0  0  0  0  0  0  0  0
  -28.0166  -23.0094   20.1602 C   0  0  0  0  0  0  0  0  0  0  0  0
  -29.5669  -22.6759   18.7770 C   0  0  0  0  0  0  0  0  0  0  0  0
  -29.2314  -32.6523   19.4959 C   0  0  1  0  0  0  0  0  0  0  0  0
  -26.2359  -30.3408   19.8376 C   0  0  1  0  0  0  0  0  0  0  0  0
  -27.2218  -13.6340   19.4964 C   0  0  2  0  0  0  0  0  0  0  0  0
  -28.6935  -23.8955   19.1051 C   0  0  0  0  0  0  0  0  0  1  0  0
  -21.6087  -27.3327   25.2730 C   0  0  0  0  0  0  0  0  0  0  0  0
  -27.6048  -29.9479   24.2344 C   0  0  0  0  0  0  0  0  0  0  0  0
  -26.0320  -28.7220   25.7483 C   0  0  0  0  0  0  0  0  0  0  0  0
  -25.4833  -31.0346   24.9911 C   0  0  0  0  0  0  0  0  0  0  0  0
  -31.3086  -16.6986   21.8091 C   0  0  0  0  0  0  0  0  0  0  0  0
  -21.2343  -26.9516   21.5060 C   0  0  0  0  0  0  0  0  0  0  0  0
  -28.9500  -16.5135   21.1103 C   0  0  0  0  0  0  0  0  0  0  0  0
  -25.3259  -29.1216   23.3457 C   0  0  1  0  0  0  0  0  0  0  0  0
  -21.8495  -27.6844   23.8132 C   0  0  2  0  0  0  0  0  0  0  0  0
  -26.1177  -29.6963   24.5541 C   0  0  0  0  0  0  0  0  0  0  0  0
  -25.7104  -11.7666   20.0539 N   0  0  0  0  0  0  0  0  0  0  0  0
  -26.0050  -13.0690   20.2057 N   0  0  0  0  0  0  0  0  0  0  0  0
  -29.0638  -22.0690   19.9601 N   0  0  0  0  0  0  0  0  0  0  0  0
  -25.9592  -29.4652   20.9782 N   0  0  0  0  0  0  0  0  0  0  0  0
  -29.6503  -14.1166   19.6832 N   0  0  0  0  0  0  0  0  0  0  0  0
  -25.2833  -15.0571   21.2721 N   0  0  0  0  0  0  0  0  0  0  0  0
  -22.2335  -11.9997   22.5937 N   0  0  0  0  0  0  0  0  0  0  0  0
  -27.9188  -32.0430   19.4798 N   0  0  0  0  0  0  0  0  0  0  0  0
  -23.9088  -28.8988   23.6113 N   0  0  0  0  0  0  0  0  0  0  0  0
  -30.2850  -15.9195   21.1271 N   0  0  0  0  0  0  0  0  0  0  0  0
  -21.1050  -26.7101   22.9661 N   0  3  0  0  0  0  0  0  0  0  0  0
  -22.8478  -14.2037   22.7475 O   0  0  0  0  0  0  0  0  0  0  0  0
  -28.4950  -29.9975   20.4320 O   0  0  0  0  0  0  0  0  0  0  0  0
  -24.9510  -31.1695   22.2091 O   0  0  0  0  0  0  0  0  0  0  0  0
  -23.9129  -26.6309   23.1277 O   0  0  0  0  0  0  0  0  0  0  0  0
  -31.8622  -14.5205   20.1954 O   0  0  0  0  0  0  0  0  0  0  0  0
  -22.1378   -6.6148   21.1694 O   0  0  0  0  0  0  0  0  0  0  0  0
  -27.8535  -24.3739   18.0554 O   0  0  0  0  0  0  0  0  0  1  0  0
  -20.5575   -4.9117   26.1700 F   0  0  0  0  0  0  0  0  0  0  0  0
  -23.1504   -4.2849   22.2599 F   0  0  0  0  0  0  0  0  0  0  0  0
  -28.5768  -21.3541   22.8672 Cl  0  0  0  0  0  0  0  0  0  0  0  0
  -29.4419  -17.3246   18.1778 Cl  0  0  0  0  0  0  0  0  0  0  0  0
  1  2  1  0  0  0  0
  1  5  2  0  0  0  0
  2  6  2  0  0  0  0
  3  8  2  0  0  0  0
  3 17  1  0  0  0  0
  4  9  1  0  0  0  0
  4 17  2  0  0  0  0
  5 19  1  0  0  0  0
  6 21  1  0  0  0  0
  7 10  2  0  0  0  0
  7 20  1  0  0  0  0
  8 25  1  0  0  0  0
  9 25  2  0  0  0  0
 10 26  1  0  0  0  0
 11 12  2  0  0  0  0
 11 27  1  0  0  0  0
 12 28  1  0  0  0  0
 13 22  1  0  0  0  0
 13 26  2  0  0  0  0
 14 23  2  0  0  0  0
 14 30  1  0  0  0  0
 15 24  1  0  0  0  0
 15 31  2  0  0  0  0
 16 28  2  0  0  0  0
 16 29  1  0  0  0  0
 17 32  1  0  0  0  0
 18 32  1  0  0  0  0
 18 33  2  0  0  0  0
 18 34  1  0  0  0  0
 19 21  2  0  0  0  0
 19 39  1  0  0  0  0
 20 22  2  0  0  0  0
 20 40  1  0  0  0  0
 21 50  1  0  0  0  0
 22 41  1  0  0  0  0
 23 31  1  0  0  0  0
 23 60  1  0  0  0  0
 24 30  2  0  0  0  0
 24 66  1  0  0  0  0
 25 80  1  0  0  0  0
 26 81  1  0  0  0  0
 27 29  2  0  0  0  0
 27 80  1  0  0  0  0
 28 82  1  0  0  0  0
 29 83  1  0  0  0  0
 30 84  1  0  0  0  0
 31 85  1  0  0  0  0
 32 64  2  0  0  0  0
 33 65  1  0  0  0  0
 33 69  1  0  0  0  0
 34 70  1  0  0  0  0
 34 75  2  0  0  0  0
 35 51  1  0  0  0  0
 35 71  1  0  0  0  0
 35 76  2  0  0  0  0
 36 61  1  0  0  0  0
 36 67  1  0  0  0  0
 36 77  2  0  0  0  0
 37 62  1  0  0  0  0
 37 72  1  0  0  0  0
 37 78  2  0  0  0  0
 38 68  1  0  0  0  0
 38 73  1  0  0  0  0
 38 79  2  0  0  0  0
 39 42  1  0  0  0  0
 40 51  1  0  0  0  0
 41 67  1  0  0  0  0
 42 44  1  0  0  0  0
 43 45  1  0  0  0  0
 43 46  1  0  0  0  0
 44 50  1  0  0  0  0
 45 52  1  0  0  0  0
 46 68  1  0  0  0  0
 47 52  1  0  0  0  0
 47 68  1  0  0  0  0
 48 53  1  0  0  0  0
 48 66  1  0  0  0  0
 49 53  1  0  0  0  0
 49 66  1  0  0  0  0
 50 71  1  0  0  0  0
 51 67  1  0  0  0  0
 52 65  1  0  0  0  0
 53 81  1  0  0  0  0
 54 62  1  0  0  0  0
 55 63  1  0  0  0  0
 56 63  1  0  0  0  0
 57 63  1  0  0  0  0
 58 73  1  0  0  0  0
 59 74  1  0  0  0  0
 60 73  1  0  0  0  0
 61 63  1  0  0  0  0
 61 72  1  0  0  0  0
 62 74  1  0  0  0  0
 64 65  1  0  0  0  0
M  CHG  1  74   1
M  ISO  4  38 100  53 101  73 100  81 101
M  END
> <Batch ID>
0029

> <Smiles>
CNC(C)C(=O)NC(C(=O)N1Cc2cc([101O:1][101CH:1]3CN(c4cc(Cl)c(C[100N:0](C)[100C:0](=O)N5CCCC(n6nc(-c7ccc(Oc8ccc(F)cc8F)cc7)c(C(N)=O)c6N)C5)cc4Cl)C3)ccc2CC1C(=O)NC1CCCc2ccccc21)C(C)(C)C

> <Shape>
0.348

> <Color>
0.151

> <Negative vol penalty>
0.000

$$$$

  -OEChem-04042321343D

 86 95  0     1  0  0  0  0  0999 V2000
  -26.5169  -36.3641   20.0277 C   0  0  0  0  0  0  0  0  0  0  0  0
  -27.0704  -35.0957   20.1693 C   0  0  0  0  0  0  0  0  0  0  0  0
  -24.2119  -13.6528   20.4619 C   0  0  0  0  0  0  0  0  0  0  0  0
  -26.4804  -13.4934   21.2777 C   0  0  0  0  0  0  0  0  0  0  0  0
  -25.3886  -36.7175   20.7666 C   0  0  0  0  0  0  0  0  0  0  0  0
  -26.4964  -34.1801   21.0506 C   0  0  0  0  0  0  0  0  0  0  0  0
  -26.0763  -29.5506   19.0417 C   0  0  0  0  0  0  0  0  0  0  0  0
  -24.1974  -12.2769   20.2334 C   0  0  0  0  0  0  0  0  0  0  0  0
  -26.4659  -12.1175   21.0492 C   0  0  0  0  0  0  0  0  0  0  0  0
  -27.2305  -28.7701   18.9940 C   0  0  0  0  0  0  0  0  0  0  0  0
  -23.8211   -9.4531   22.0549 C   0  0  0  0  0  0  0  0  0  0  0  0
  -22.6950   -8.7397   22.4652 C   0  0  0  0  0  0  0  0  0  0  0  0
  -26.4997  -27.5799   20.9608 C   0  0  0  0  0  0  0  0  0  0  0  0
  -30.1899  -23.4454   21.4491 C   0  0  0  0  0  0  0  0  0  0  0  0
  -30.2061  -23.3517   24.2372 C   0  0  0  0  0  0  0  0  0  0  0  0
  -22.3100   -8.0366   20.1860 C   0  0  0  0  0  0  0  0  0  0  0  0
  -25.3534  -14.2611   20.9840 C   0  0  0  0  0  0  0  0  0  0  0  0
  -24.9925  -16.3528   22.3989 C   0  0  0  0  0  0  0  0  0  0  0  0
  -24.7947  -35.8026   21.6502 C   0  0  0  0  0  0  0  0  0  0  0  0
  -25.1287  -29.3586   20.0574 C   0  0  0  0  0  0  0  0  0  0  0  0
  -25.3598  -34.5221   21.8030 C   0  0  0  0  0  0  0  0  0  0  0  0
  -25.3330  -28.3576   21.0177 C   0  0  0  0  0  0  0  0  0  0  0  0
  -31.0993  -24.2214   22.1677 C   0  0  0  0  0  0  0  0  0  0  0  0
  -31.1074  -24.1746   23.5617 C   0  0  0  0  0  0  0  0  0  0  0  0
  -29.2886  -22.6225   22.1245 C   0  0  0  0  0  0  0  0  0  0  0  0
  -25.3244  -11.5092   20.5271 C   0  0  0  0  0  0  0  0  0  0  0  0
  -27.4437  -27.7865   19.9553 C   0  0  0  0  0  0  0  0  0  0  0  0
  -24.1917   -9.4584   20.7101 C   0  0  0  0  0  0  0  0  0  0  0  0
  -21.9394   -8.0314   21.5308 C   0  0  0  0  0  0  0  0  0  0  0  0
  -23.4362   -8.7501   19.7757 C   0  0  0  0  0  0  0  0  0  0  0  0
  -29.2967  -22.5757   23.5185 C   0  0  0  0  0  0  0  0  0  0  0  0
  -25.3692  -15.6825   21.2197 C   0  0  0  0  0  0  0  0  0  0  0  0
  -25.1886  -17.6824   22.1156 C   0  0  0  0  0  0  0  0  0  0  0  0
  -31.4548  -26.1573   19.2097 C   0  0  0  0  0  0  0  0  0  0  0  0
  -24.5085  -15.8212   23.6394 C   0  0  0  0  0  0  0  0  0  0  0  0
  -23.9642  -31.1546   22.4073 C   0  0  0  0  0  0  0  0  0  0  0  0
  -21.9744  -28.6274   22.8276 C   0  0  0  0  0  0  0  0  0  0  0  0
  -21.4042  -25.2884   22.4116 C   0  0  0  0  0  0  0  0  0  0  0  0
  -28.2587  -21.8053   19.9756 C   0  0  0  0  0  0  0  0  0  0  0  0
  -23.6040  -36.2463   22.4626 C   0  0  0  0  0  0  0  0  0  0  0  0
  -23.8760  -30.1909   20.0793 C   0  0  0  0  0  0  0  0  0  0  0  0
  -24.3367  -28.0979   22.1169 C   0  0  0  0  0  0  0  0  0  0  0  0
  -30.6776  -27.3826   18.7864 C   0  0  0  0  0  0  0  0  0  0  0  0
  -22.8341  -35.0904   23.0962 C   0  0  0  0  0  0  0  0  0  0  0  0
  -26.1664  -20.0056   17.7260 C   0  0  0  0  0  0  0  0  0  0  0  0
  -23.7951  -34.1086   23.7591 C   0  0  0  0  0  0  0  0  0  0  0  0
  -25.7415  -18.7756   18.5314 C   0  0  0  0  0  0  0  0  0  0  0  0
  -27.6091  -20.4089   18.0254 C   0  0  0  0  0  0  0  0  0  0  0  0
  -27.4942  -19.3653   20.2540 C   0  0  0  0  0  0  0  0  0  0  0  0
  -30.5981  -27.1472   21.1821 C   0  0  0  0  0  0  0  0  0  0  0  0
  -24.7512  -33.4928   22.7304 C   0  0  1  0  0  0  0  0  0  0  0  0
  -23.2251  -30.2548   21.4576 C   0  0  1  0  0  0  0  0  0  0  0  0
  -26.0274  -18.9600   20.0347 C   0  0  2  0  0  0  0  0  0  0  0  0
  -29.8175  -27.7037   20.0057 C   0  0  2  0  0  0  0  0  0  1  0  0
  -32.0716  -24.9967   24.3524 C   0  0  0  0  0  0  0  0  0  0  0  0
  -19.7049  -23.5054   22.8917 C   0  0  0  0  0  0  0  0  0  0  0  0
  -22.8461  -28.5874   25.7514 C   0  0  0  0  0  0  0  0  0  0  0  0
  -21.8911  -26.2801   25.9320 C   0  0  0  0  0  0  0  0  0  0  0  0
  -20.4017  -28.2052   25.3862 C   0  0  0  0  0  0  0  0  0  0  0  0
  -21.0291  -24.7084   19.5338 C   0  0  0  0  0  0  0  0  0  0  0  0
  -32.0572  -25.1021   21.4187 C   0  0  0  0  0  0  0  0  0  0  0  0
  -22.0190  -27.3550   23.6387 C   0  0  1  0  0  0  0  0  0  0  0  0
  -20.1998  -24.5304   21.8832 C   0  0  2  0  0  0  0  0  0  0  0  0
  -21.8094  -27.6129   25.1576 C   0  0  0  0  0  0  0  0  0  0  0  0
  -25.7740  -16.5173   20.2588 N   0  0  0  0  0  0  0  0  0  0  0  0
  -25.6526  -17.7259   20.8338 N   0  0  0  0  0  0  0  0  0  0  0  0
  -31.3694  -26.0737   20.5958 N   0  0  0  0  0  0  0  0  0  0  0  0
  -23.1306  -28.9421   22.0994 N   0  0  0  0  0  0  0  0  0  0  0  0
  -27.8046  -20.5696   19.4679 N   0  0  0  0  0  0  0  0  0  0  0  0
  -25.0077  -18.8069   22.8404 N   0  0  0  0  0  0  0  0  0  0  0  0
  -24.3664  -14.4322   23.7610 N   0  0  0  0  0  0  0  0  0  0  0  0
  -28.3758  -21.8500   21.3644 N   0  0  0  0  0  0  0  0  0  0  0  0
  -24.0793  -32.4605   21.9705 N   0  0  0  0  0  0  0  0  0  0  0  0
  -21.0351  -26.4570   23.0438 N   0  0  0  0  0  0  0  0  0  0  0  0
  -20.5489  -23.8179   20.6217 N   0  3  0  0  0  0  0  0  0  0  0  0
  -32.0691  -25.4280   18.4452 O   0  0  0  0  0  0  0  0  0  0  0  0
  -24.1953  -16.5573   24.6057 O   0  0  0  0  0  0  0  0  0  0  0  0
  -24.3965  -30.6982   23.4592 O   0  0  0  0  0  0  0  0  0  0  0  0
  -20.9490  -29.3131   22.8339 O   0  0  0  0  0  0  0  0  0  0  0  0
  -22.5569  -24.8826   22.2803 O   0  0  0  0  0  0  0  0  0  0  0  0
  -28.4983  -22.7625   19.2351 O   0  0  0  0  0  0  0  0  0  0  0  0
  -25.3105  -10.1665   20.3044 O   0  0  0  0  0  0  0  0  0  0  0  0
  -28.5698  -27.0237   19.9114 O   0  0  0  0  0  0  0  0  0  1  0  0
  -20.8589   -7.3451   21.9252 F   0  0  0  0  0  0  0  0  0  0  0  0
  -23.7879   -8.7504   18.4826 F   0  0  0  0  0  0  0  0  0  0  0  0
  -28.1983  -21.5700   24.3948 Cl  0  0  0  0  0  0  0  0  0  0  0  0
  1  2  1  0  0  0  0
  1  5  2  0  0  0  0
  2  6  2  0  0  0  0
  3  8  2  0  0  0  0
  3 17  1  0  0  0  0
  4  9  1  0  0  0  0
  4 17  2  0  0  0  0
  5 19  1  0  0  0  0
  6 21  1  0  0  0  0
  7 10  2  0  0  0  0
  7 20  1  0  0  0  0
  8 26  1  0  0  0  0
  9 26  2  0  0  0  0
 10 27  1  0  0  0  0
 11 12  2  0  0  0  0
 11 28  1  0  0  0  0
 12 29  1  0  0  0  0
 13 22  1  0  0  0  0
 13 27  2  0  0  0  0
 14 23  1  0  0  0  0
 14 25  2  0  0  0  0
 15 24  1  0  0  0  0
 15 31  2  0  0  0  0
 16 29  2  0  0  0  0
 16 30  1  0  0  0  0
 17 32  1  0  0  0  0
 18 32  1  0  0  0  0
 18 33  2  0  0  0  0
 18 35  1  0  0  0  0
 19 21  2  0  0  0  0
 19 40  1  0  0  0  0
 20 22  2  0  0  0  0
 20 41  1  0  0  0  0
 21 51  1  0  0  0  0
 22 42  1  0  0  0  0
 23 24  2  0  0  0  0
 23 61  1  0  0  0  0
 24 55  1  0  0  0  0
 25 31  1  0  0  0  0
 25 72  1  0  0  0  0
 26 82  1  0  0  0  0
 27 83  1  0  0  0  0
 28 30  2  0  0  0  0
 28 82  1  0  0  0  0
 29 84  1  0  0  0  0
 30 85  1  0  0  0  0
 31 86  1  0  0  0  0
 32 65  2  0  0  0  0
 33 66  1  0  0  0  0
 33 70  1  0  0  0  0
 34 43  1  0  0  0  0
 34 67  1  0  0  0  0
 34 76  2  0  0  0  0
 35 71  1  0  0  0  0
 35 77  2  0  0  0  0
 36 52  1  0  0  0  0
 36 73  1  0  0  0  0
 36 78  2  0  0  0  0
 37 62  1  0  0  0  0
 37 68  1  0  0  0  0
 37 79  2  0  0  0  0
 38 63  1  0  0  0  0
 38 74  1  0  0  0  0
 38 80  2  0  0  0  0
 39 69  1  0  0  0  0
 39 72  1  0  0  0  0
 39 81  2  0  0  0  0
 40 44  1  0  0  0  0
 41 52  1  0  0  0  0
 42 68  1  0  0  0  0
 43 54  1  0  0  0  0
 44 46  1  0  0  0  0
 45 47  1  0  0  0  0
 45 48  1  0  0  0  0
 46 51  1  0  0  0  0
 47 53  1  0  0  0  0
 48 69  1  0  0  0  0
 49 53  1  0  0  0  0
 49 69  1  0  0  0  0
 50 54  1  0  0  0  0
 50 67  1  0  0  0  0
 51 73  1  0  0  0  0
 52 68  1  0  0  0  0
 53 66  1  0  0  0  0
 54 83  1  0  0  0  0
 56 63  1  0  0  0  0
 57 64  1  0  0  0  0
 58 64  1  0  0  0  0
 59 64  1  0  0  0  0
 60 75  1  0  0  0  0
 61 67  1  0  0  0  0
 62 64  1  0  0  0  0
 62 74  1  0  0  0  0
 63 75  1  0  0  0  0
 65 66  1  0  0  0  0
M  CHG  1  75   1
M  ISO  4  39 100  54 101  72 100  83 101
M  END
> <Batch ID>
0029

> <Smiles>
CNC(C)C(=O)NC(C(=O)N1Cc2cc([101O:1][101CH:1]3CC(=O)N(Cc4cc([100NH:0][100C:0](=O)N5CCCC(n6nc(-c7ccc(Oc8ccc(F)cc8F)cc7)c(C(N)=O)c6N)C5)c(Cl)cc4C)C3)ccc2CC1C(=O)NC1CCCc2ccccc21)C(C)(C)C

> <Shape>
0.250

> <Color>
0.092

> <Negative vol penalty>
0.000

$$$$

  -OEChem-04042321343D

 84 93  0     1  0  0  0  0  0999 V2000
  -29.5408  -32.2892   26.0225 C   0  0  0  0  0  0  0  0  0  0  0  0
  -29.1988  -31.0966   25.3931 C   0  0  0  0  0  0  0  0  0  0  0  0
  -23.4076   -9.8417   19.8181 C   0  0  0  0  0  0  0  0  0  0  0  0
  -24.4757   -9.6556   21.9771 C   0  0  0  0  0  0  0  0  0  0  0  0
  -28.5544  -33.2308   26.3126 C   0  0  0  0  0  0  0  0  0  0  0  0
  -27.8699  -30.8444   25.0543 C   0  0  0  0  0  0  0  0  0  0  0  0
  -27.3803  -28.9618   20.3788 C   0  0  0  0  0  0  0  0  0  0  0  0
  -29.4749  -20.5197   21.3533 C   0  0  0  0  0  0  0  0  0  0  0  0
  -29.6000  -19.1511   21.1145 C   0  0  0  0  0  0  0  0  0  0  0  0
  -22.9775   -8.5185   19.9168 C   0  0  0  0  0  0  0  0  0  0  0  0
  -24.0455   -8.3324   22.0759 C   0  0  0  0  0  0  0  0  0  0  0  0
  -27.6741  -27.6103   20.2026 C   0  0  0  0  0  0  0  0  0  0  0  0
  -21.1925   -6.6936   22.8473 C   0  0  0  0  0  0  0  0  0  0  0  0
  -20.6426   -6.2814   24.0611 C   0  0  0  0  0  0  0  0  0  0  0  0
  -25.3176  -27.0972   20.2568 C   0  0  0  0  0  0  0  0  0  0  0  0
  -22.3701   -4.6060   24.2749 C   0  0  0  0  0  0  0  0  0  0  0  0
  -24.1568  -10.4103   20.8482 C   0  0  0  0  0  0  0  0  0  0  0  0
  -23.9195  -12.9280   21.1836 C   0  0  0  0  0  0  0  0  0  0  0  0
  -27.2141  -32.9943   25.9686 C   0  0  0  0  0  0  0  0  0  0  0  0
  -26.0513  -29.3905   20.5065 C   0  0  0  0  0  0  0  0  0  0  0  0
  -26.8643  -31.7832   25.3413 C   0  0  0  0  0  0  0  0  0  0  0  0
  -25.0095  -28.4550   20.4320 C   0  0  0  0  0  0  0  0  0  0  0  0
  -28.7332  -20.9724   22.4445 C   0  0  0  0  0  0  0  0  0  0  0  0
  -28.1164  -20.0565   23.2967 C   0  0  0  0  0  0  0  0  0  0  0  0
  -28.2413  -18.6879   23.0579 C   0  0  0  0  0  0  0  0  0  0  0  0
  -28.9832  -18.2352   21.9668 C   0  0  0  0  0  0  0  0  0  0  0  0
  -23.2964   -7.7639   21.0457 C   0  0  0  0  0  0  0  0  0  0  0  0
  -26.6428  -26.6775   20.1445 C   0  0  0  0  0  0  0  0  0  0  0  0
  -22.3313   -6.0619   22.3473 C   0  0  0  0  0  0  0  0  0  0  0  0
  -21.2313   -5.2377   24.7749 C   0  0  0  0  0  0  0  0  0  0  0  0
  -22.9201   -5.0182   23.0611 C   0  0  0  0  0  0  0  0  0  0  0  0
  -24.6019  -11.7769   20.7465 C   0  0  0  0  0  0  0  0  0  0  0  0
  -24.7569  -13.9673   20.8598 C   0  0  0  0  0  0  0  0  0  0  0  0
  -22.6427  -13.0471   21.8250 C   0  0  0  0  0  0  0  0  0  0  0  0
  -24.3718  -30.8438   22.7805 C   0  0  0  0  0  0  0  0  0  0  0  0
  -22.0641  -30.8939   20.5015 C   0  0  0  0  0  0  0  0  0  0  0  0
  -20.7791  -29.5304   17.6490 C   0  0  0  0  0  0  0  0  0  0  0  0
  -29.8296  -16.2546   20.6602 C   0  0  0  0  0  0  0  0  0  0  0  0
  -26.1758  -34.0214   26.3450 C   0  0  0  0  0  0  0  0  0  0  0  0
  -25.7497  -30.8551   20.6693 C   0  0  0  0  0  0  0  0  0  0  0  0
  -23.5649  -28.8663   20.5434 C   0  0  0  0  0  0  0  0  0  0  0  0
  -24.8471  -33.8400   25.6158 C   0  0  0  0  0  0  0  0  0  0  0  0
  -28.9322  -14.0650   17.9998 C   0  0  0  0  0  0  0  0  0  0  0  0
  -24.4152  -32.3774   25.6490 C   0  0  0  0  0  0  0  0  0  0  0  0
  -27.6695  -13.3692   18.5132 C   0  0  0  0  0  0  0  0  0  0  0  0
  -29.9417  -14.3074   19.1205 C   0  0  0  0  0  0  0  0  0  0  0  0
  -28.1465  -14.3152   20.8077 C   0  0  0  0  0  0  0  0  0  0  0  0
  -27.2767  -24.4656   22.3139 C   0  0  0  0  0  0  0  0  0  0  0  0
  -27.0880  -22.9930   20.8448 C   0  0  0  0  0  0  0  0  0  0  0  0
  -25.4374  -31.4840   24.9359 C   0  0  1  0  0  0  0  0  0  0  0  0
  -24.3871  -31.1177   21.3032 C   0  0  1  0  0  0  0  0  0  0  0  0
  -27.0727  -14.1083   19.7270 C   0  0  2  0  0  0  0  0  0  0  0  0
  -26.5162  -24.4154   20.9769 C   0  0  0  0  0  0  0  0  0  1  0  0
  -27.3215  -20.5450   24.4662 C   0  0  0  0  0  0  0  0  0  0  0  0
  -27.5786  -17.7068   23.9738 C   0  0  0  0  0  0  0  0  0  0  0  0
  -18.8635  -29.7617   16.0446 C   0  0  0  0  0  0  0  0  0  0  0  0
  -20.2104  -29.5625   22.5266 C   0  0  0  0  0  0  0  0  0  0  0  0
  -18.6841  -28.9670   20.6334 C   0  0  0  0  0  0  0  0  0  0  0  0
  -19.1406  -31.3624   21.1589 C   0  0  0  0  0  0  0  0  0  0  0  0
  -22.5946  -30.1043   15.3832 C   0  0  0  0  0  0  0  0  0  0  0  0
  -28.6148  -22.4496   22.6784 C   0  0  0  0  0  0  0  0  0  0  0  0
  -20.9515  -29.9620   20.0859 C   0  0  1  0  0  0  0  0  0  0  0  0
  -20.2957  -30.1659   16.3579 C   0  0  2  0  0  0  0  0  0  0  0  0
  -19.7739  -29.9552   21.1010 C   0  0  0  0  0  0  0  0  0  0  0  0
  -25.7820  -12.0581   20.1876 N   0  0  0  0  0  0  0  0  0  0  0  0
  -25.8475  -13.3978   20.2711 N   0  0  0  0  0  0  0  0  0  0  0  0
  -23.3214  -30.3089   20.7079 N   0  0  0  0  0  0  0  0  0  0  0  0
  -29.3067  -15.0153   20.2343 N   0  0  0  0  0  0  0  0  0  0  0  0
  -24.6595  -15.3037   21.0240 N   0  0  0  0  0  0  0  0  0  0  0  0
  -21.9136  -11.8785   22.0841 N   0  0  0  0  0  0  0  0  0  0  0  0
  -29.1236  -16.8497   21.7052 N   0  0  0  0  0  0  0  0  0  0  0  0
  -25.2860  -31.5891   23.5004 N   0  0  0  0  0  0  0  0  0  0  0  0
  -20.5724  -30.3565   18.7335 N   0  0  0  0  0  0  0  0  0  0  0  0
  -27.2896  -22.9911   22.3056 N   0  3  0  0  0  0  0  0  0  0  0  0
  -21.1616  -29.7484   15.2191 N   0  3  0  0  0  0  0  0  0  0  0  0
  -22.1553  -14.1581   22.1436 O   0  0  0  0  0  0  0  0  0  0  0  0
  -23.5876  -30.0184   23.2339 O   0  0  0  0  0  0  0  0  0  0  0  0
  -21.8279  -32.0977   20.6310 O   0  0  0  0  0  0  0  0  0  0  0  0
  -21.2858  -28.4115   17.6917 O   0  0  0  0  0  0  0  0  0  0  0  0
  -30.8138  -16.7644   20.1185 O   0  0  0  0  0  0  0  0  0  0  0  0
  -22.8766   -6.4728   21.1425 O   0  0  0  0  0  0  0  0  0  0  0  0
  -26.9268  -25.3577   19.9732 O   0  0  0  0  0  0  0  0  0  1  0  0
  -20.7040   -4.8430   25.9412 F   0  0  0  0  0  0  0  0  0  0  0  0
  -24.0149   -4.4083   22.5864 F   0  0  0  0  0  0  0  0  0  0  0  0
  1  2  1  0  0  0  0
  1  5  2  0  0  0  0
  2  6  2  0  0  0  0
  3 10  2  0  0  0  0
  3 17  1  0  0  0  0
  4 11  1  0  0  0  0
  4 17  2  0  0  0  0
  5 19  1  0  0  0  0
  6 21  1  0  0  0  0
  7 12  2  0  0  0  0
  7 20  1  0  0  0  0
  8  9  2  0  0  0  0
  8 23  1  0  0  0  0
  9 26  1  0  0  0  0
 10 27  1  0  0  0  0
 11 27  2  0  0  0  0
 12 28  1  0  0  0  0
 13 14  2  0  0  0  0
 13 29  1  0  0  0  0
 14 30  1  0  0  0  0
 15 22  1  0  0  0  0
 15 28  2  0  0  0  0
 16 30  2  0  0  0  0
 16 31  1  0  0  0  0
 17 32  1  0  0  0  0
 18 32  1  0  0  0  0
 18 33  2  0  0  0  0
 18 34  1  0  0  0  0
 19 21  2  0  0  0  0
 19 39  1  0  0  0  0
 20 22  2  0  0  0  0
 20 40  1  0  0  0  0
 21 50  1  0  0  0  0
 22 41  1  0  0  0  0
 23 24  2  0  0  0  0
 23 61  1  0  0  0  0
 24 25  1  0  0  0  0
 24 54  1  0  0  0  0
 25 26  2  0  0  0  0
 25 55  1  0  0  0  0
 26 71  1  0  0  0  0
 27 81  1  0  0  0  0
 28 82  1  0  0  0  0
 29 31  2  0  0  0  0
 29 81  1  0  0  0  0
 30 83  1  0  0  0  0
 31 84  1  0  0  0  0
 32 65  2  0  0  0  0
 33 66  1  0  0  0  0
 33 69  1  0  0  0  0
 34 70  1  0  0  0  0
 34 76  2  0  0  0  0
 35 51  1  0  0  0  0
 35 72  1  0  0  0  0
 35 77  2  0  0  0  0
 36 62  1  0  0  0  0
 36 67  1  0  0  0  0
 36 78  2  0  0  0  0
 37 63  1  0  0  0  0
 37 73  1  0  0  0  0
 37 79  2  0  0  0  0
 38 68  1  0  0  0  0
 38 71  1  0  0  0  0
 38 80  2  0  0  0  0
 39 42  1  0  0  0  0
 40 51  1  0  0  0  0
 41 67  1  0  0  0  0
 42 44  1  0  0  0  0
 43 45  1  0  0  0  0
 43 46  1  0  0  0  0
 44 50  1  0  0  0  0
 45 52  1  0  0  0  0
 46 68  1  0  0  0  0
 47 52  1  0  0  0  0
 47 68  1  0  0  0  0
 48 53  1  0  0  0  0
 48 74  1  0  0  0  0
 49 53  1  0  0  0  0
 49 74  1  0  0  0  0
 50 72  1  0  0  0  0
 51 67  1  0  0  0  0
 52 66  1  0  0  0  0
 53 82  1  0  0  0  0
 56 63  1  0  0  0  0
 57 64  1  0  0  0  0
 58 64  1  0  0  0  0
 59 64  1  0  0  0  0
 60 75  1  0  0  0  0
 61 74  1  0  0  0  0
 62 64  1  0  0  0  0
 62 73  1  0  0  0  0
 63 75  1  0  0  0  0
 65 66  1  0  0  0  0
M  CHG  2  74   1  75   1
M  ISO  4  38 100  53 101  71 100  82 101
M  END
> <Batch ID>
0029

> <Smiles>
CNC(C)C(=O)NC(C(=O)N1Cc2cc([101O:1][101CH:1]3CN(Cc4ccc([100NH:0][100C:0](=O)N5CCCC(n6nc(-c7ccc(Oc8ccc(F)cc8F)cc7)c(C(N)=O)c6N)C5)c(C)c4C)C3)ccc2CC1C(=O)NC1CCCc2ccccc21)C(C)(C)C

> <Shape>
0.330

> <Color>
0.138

> <Negative vol penalty>
0.000

$$$$

  -OEChem-04042321343D

 86 95  0     1  0  0  0  0  0999 V2000
  -29.5078  -31.2134   21.0955 C   0  0  0  0  0  0  0  0  0  0  0  0
  -29.1237  -29.9968   21.6501 C   0  0  0  0  0  0  0  0  0  0  0  0
  -24.3227  -15.5317   22.3969 C   0  0  0  0  0  0  0  0  0  0  0  0
  -23.3476  -15.5496   20.1865 C   0  0  0  0  0  0  0  0  0  0  0  0
  -28.5996  -32.2697   21.0377 C   0  0  0  0  0  0  0  0  0  0  0  0
  -27.8313  -29.8361   22.1484 C   0  0  0  0  0  0  0  0  0  0  0  0
  -25.7341  -25.4501   20.7309 C   0  0  0  0  0  0  0  0  0  0  0  0
  -23.6889  -16.7400   22.6863 C   0  0  0  0  0  0  0  0  0  0  0  0
  -22.7137  -16.7580   20.4759 C   0  0  0  0  0  0  0  0  0  0  0  0
  -26.1329  -24.3029   21.4156 C   0  0  0  0  0  0  0  0  0  0  0  0
  -19.9822  -17.7911   22.1765 C   0  0  0  0  0  0  0  0  0  0  0  0
  -18.6414  -17.9208   21.8146 C   0  0  0  0  0  0  0  0  0  0  0  0
  -24.1246  -24.4072   22.7479 C   0  0  0  0  0  0  0  0  0  0  0  0
  -28.6206  -17.0883   21.8194 C   0  0  0  0  0  0  0  0  0  0  0  0
  -26.9851  -18.1557   23.2417 C   0  0  0  0  0  0  0  0  0  0  0  0
  -19.2055  -19.7936   20.3962 C   0  0  0  0  0  0  0  0  0  0  0  0
  -24.1521  -14.9365   21.1469 C   0  0  0  0  0  0  0  0  0  0  0  0
  -24.3027  -12.3915   21.0588 C   0  0  0  0  0  0  0  0  0  0  0  0
  -27.2924  -32.1188   21.5267 C   0  0  0  0  0  0  0  0  0  0  0  0
  -24.5307  -26.0917   21.0575 C   0  0  0  0  0  0  0  0  0  0  0  0
  -26.9051  -30.8918   22.0984 C   0  0  0  0  0  0  0  0  0  0  0  0
  -23.7116  -25.5608   22.0641 C   0  0  0  0  0  0  0  0  0  0  0  0
  -28.2305  -17.9049   20.7580 C   0  0  0  0  0  0  0  0  0  0  0  0
  -27.2178  -18.8469   20.9384 C   0  0  0  0  0  0  0  0  0  0  0  0
  -26.5950  -18.9723   22.1803 C   0  0  0  0  0  0  0  0  0  0  0  0
  -22.8844  -17.3531   21.7259 C   0  0  0  0  0  0  0  0  0  0  0  0
  -25.3296  -23.7830   22.4262 C   0  0  0  0  0  0  0  0  0  0  0  0
  -20.9346  -18.6627   21.6484 C   0  0  0  0  0  0  0  0  0  0  0  0
  -18.2530  -18.9220   20.9244 C   0  0  0  0  0  0  0  0  0  0  0  0
  -20.5463  -19.6639   20.7582 C   0  0  0  0  0  0  0  0  0  0  0  0
  -27.9979  -17.2137   23.0613 C   0  0  0  0  0  0  0  0  0  0  0  0
  -24.8070  -13.6886   20.8471 C   0  0  0  0  0  0  0  0  0  0  0  0
  -25.2989  -11.5584   20.6116 C   0  0  0  0  0  0  0  0  0  0  0  0
  -23.0459  -11.9766   21.6104 C   0  0  0  0  0  0  0  0  0  0  0  0
  -23.7502  -28.9693   22.1592 C   0  0  0  0  0  0  0  0  0  0  0  0
  -20.7251  -27.9143   21.6513 C   0  0  0  0  0  0  0  0  0  0  0  0
  -18.5956  -25.2669   21.3302 C   0  0  0  0  0  0  0  0  0  0  0  0
  -28.4691  -15.3307   19.0135 C   0  0  0  0  0  0  0  0  0  0  0  0
  -26.3606  -33.3040   21.4855 C   0  0  0  0  0  0  0  0  0  0  0  0
  -24.1018  -27.3129   20.2914 C   0  0  0  0  0  0  0  0  0  0  0  0
  -22.4006  -26.2005   22.4392 C   0  0  0  0  0  0  0  0  0  0  0  0
  -24.8945  -32.9337   21.6948 C   0  0  0  0  0  0  0  0  0  0  0  0
  -31.0565  -17.8284   18.3412 C   0  0  0  0  0  0  0  0  0  0  0  0
  -30.1010  -12.0848   20.1769 C   0  0  0  0  0  0  0  0  0  0  0  0
  -30.1812  -18.6154   19.3060 C   0  0  0  0  0  0  0  0  0  0  0  0
  -24.7481  -31.9811   22.8772 C   0  0  0  0  0  0  0  0  0  0  0  0
  -28.7101  -11.6899   20.6613 C   0  0  0  0  0  0  0  0  0  0  0  0
  -30.1451  -13.5641   19.7855 C   0  0  0  0  0  0  0  0  0  0  0  0
  -30.7805  -16.3829   18.7275 C   0  0  0  0  0  0  0  0  0  0  0  0
  -28.1205  -12.9415   18.4979 C   0  0  0  0  0  0  0  0  0  0  0  0
  -28.9219  -17.7484   19.4216 C   0  0  1  0  0  0  0  0  0  0  0  0
  -25.5044  -30.6708   22.6268 C   0  0  1  0  0  0  0  0  0  0  0  0
  -23.1053  -28.1786   21.0562 C   0  0  1  0  0  0  0  0  0  0  0  0
  -27.6364  -11.9571   19.5830 C   0  0  2  0  0  0  0  0  0  0  0  0
  -26.8013  -19.7204   19.7968 C   0  0  0  0  0  0  0  0  0  0  0  0
  -16.1750  -24.7197   20.9580 C   0  0  0  0  0  0  0  0  0  0  0  0
  -20.1158  -28.6495   24.5493 C   0  0  0  0  0  0  0  0  0  0  0  0
  -18.0515  -27.2408   24.3996 C   0  0  0  0  0  0  0  0  0  0  0  0
  -18.3086  -29.2346   22.9226 C   0  0  0  0  0  0  0  0  0  0  0  0
  -19.1876  -23.8318   18.8105 C   0  0  0  0  0  0  0  0  0  0  0  0
  -25.1877  -20.3858   23.6794 C   0  0  0  0  0  0  0  0  0  0  0  0
  -24.6849  -21.8175   23.5998 C   0  0  0  0  0  0  0  0  0  1  0  0
  -19.6996  -27.1717   22.4735 C   0  0  1  0  0  0  0  0  0  0  0  0
  -17.5257  -24.9539   20.2997 C   0  0  2  0  0  0  0  0  0  0  0  0
  -19.0695  -28.0630   23.5807 C   0  0  0  0  0  0  0  0  0  0  0  0
  -26.0289  -13.6850   20.3075 N   0  0  0  0  0  0  0  0  0  0  0  0
  -26.3006  -12.3754   20.1765 N   0  0  0  0  0  0  0  0  0  0  0  0
  -22.0278  -27.3962   21.6654 N   0  0  0  0  0  0  0  0  0  0  0  0
  -28.9493  -14.0120   19.0575 N   0  0  0  0  0  0  0  0  0  0  0  0
  -29.3831  -16.3753   19.1574 N   0  0  0  0  0  0  0  0  0  0  0  0
  -25.4071  -10.2141   20.5522 N   0  0  0  0  0  0  0  0  0  0  0  0
  -22.1379  -12.9627   22.0198 N   0  0  0  0  0  0  0  0  0  0  0  0
  -25.5678  -19.9205   22.3828 N   0  0  0  0  0  0  0  0  0  0  0  0
  -24.7538  -29.8172   21.7310 N   0  0  0  0  0  0  0  0  0  0  0  0
  -18.7349  -26.6247   21.5257 N   0  0  0  0  0  0  0  0  0  0  0  0
  -17.8909  -23.7321   19.5286 N   0  3  0  0  0  0  0  0  0  0  0  0
  -22.7440  -10.7673   21.7516 O   0  0  0  0  0  0  0  0  0  0  0  0
  -23.3648  -28.8222   23.3131 O   0  0  0  0  0  0  0  0  0  0  0  0
  -20.3812  -28.9131   21.0142 O   0  0  0  0  0  0  0  0  0  0  0  0
  -19.2405  -24.3940   21.9070 O   0  0  0  0  0  0  0  0  0  0  0  0
  -27.2602  -15.5712   18.8851 O   0  0  0  0  0  0  0  0  0  0  0  0
  -22.2655  -18.5321   22.0081 O   0  0  0  0  0  0  0  0  0  0  0  0
  -25.7195  -22.6559   23.1012 O   0  0  0  0  0  0  0  0  0  1  0  0
  -16.9656  -19.0455   20.5757 F   0  0  0  0  0  0  0  0  0  0  0  0
  -21.4569  -20.5034   20.2466 F   0  0  0  0  0  0  0  0  0  0  0  0
  -28.4799  -16.2066   24.3710 Cl  0  0  0  0  0  0  0  0  0  0  0  0
  1  2  1  0  0  0  0
  1  5  2  0  0  0  0
  2  6  2  0  0  0  0
  3  8  2  0  0  0  0
  3 17  1  0  0  0  0
  4  9  1  0  0  0  0
  4 17  2  0  0  0  0
  5 19  1  0  0  0  0
  6 21  1  0  0  0  0
  7 10  2  0  0  0  0
  7 20  1  0  0  0  0
  8 26  1  0  0  0  0
  9 26  2  0  0  0  0
 10 27  1  0  0  0  0
 11 12  2  0  0  0  0
 11 28  1  0  0  0  0
 12 29  1  0  0  0  0
 13 22  1  0  0  0  0
 13 27  2  0  0  0  0
 14 23  2  0  0  0  0
 14 31  1  0  0  0  0
 15 25  1  0  0  0  0
 15 31  2  0  0  0  0
 16 29  2  0  0  0  0
 16 30  1  0  0  0  0
 17 32  1  0  0  0  0
 18 32  1  0  0  0  0
 18 33  2  0  0  0  0
 18 34  1  0  0  0  0
 19 21  2  0  0  0  0
 19 39  1  0  0  0  0
 20 22  2  0  0  0  0
 20 40  1  0  0  0  0
 21 52  1  0  0  0  0
 22 41  1  0  0  0  0
 23 24  1  0  0  0  0
 23 51  1  0  0  0  0
 24 25  2  0  0  0  0
 24 55  1  0  0  0  0
 25 73  1  0  0  0  0
 26 82  1  0  0  0  0
 27 83  1  0  0  0  0
 28 30  2  0  0  0  0
 28 82  1  0  0  0  0
 29 84  1  0  0  0  0
 30 85  1  0  0  0  0
 31 86  1  0  0  0  0
 32 66  2  0  0  0  0
 33 67  1  0  0  0  0
 33 71  1  0  0  0  0
 34 72  1  0  0  0  0
 34 77  2  0  0  0  0
 35 53  1  0  0  0  0
 35 74  1  0  0  0  0
 35 78  2  0  0  0  0
 36 63  1  0  0  0  0
 36 68  1  0  0  0  0
 36 79  2  0  0  0  0
 37 64  1  0  0  0  0
 37 75  1  0  0  0  0
 37 80  2  0  0  0  0
 38 69  1  0  0  0  0
 38 70  1  0  0  0  0
 38 81  2  0  0  0  0
 39 42  1  0  0  0  0
 40 53  1  0  0  0  0
 41 68  1  0  0  0  0
 42 46  1  0  0  0  0
 43 45  1  0  0  0  0
 43 49  1  0  0  0  0
 44 47  1  0  0  0  0
 44 48  1  0  0  0  0
 45 51  1  0  0  0  0
 46 52  1  0  0  0  0
 47 54  1  0  0  0  0
 48 69  1  0  0  0  0
 49 70  1  0  0  0  0
 50 54  1  0  0  0  0
 50 69  1  0  0  0  0
 51 70  1  0  0  0  0
 52 74  1  0  0  0  0
 53 68  1  0  0  0  0
 54 67  1  0  0  0  0
 56 64  1  0  0  0  0
 57 65  1  0  0  0  0
 58 65  1  0  0  0  0
 59 65  1  0  0  0  0
 60 76  1  0  0  0  0
 61 62  1  0  0  0  0
 61 73  1  0  0  0  0
 62 83  1  0  0  0  0
 63 65  1  0  0  0  0
 63 75  1  0  0  0  0
 64 76  1  0  0  0  0
 66 67  1  0  0  0  0
M  CHG  1  76   1
M  ISO  4  38 100  62 101  70 100  83 101
M  END
> <Batch ID>
0029

> <Smiles>
CNC(C)C(=O)NC(C(=O)N1Cc2cc([101O:1][101CH2:1]CNc3cc(Cl)cc(C4CCC[100N:0]4[100C:0](=O)N4CCCC(n5nc(-c6ccc(Oc7ccc(F)cc7F)cc6)c(C(N)=O)c5N)C4)c3C)ccc2CC1C(=O)NC1CCCc2ccccc21)C(C)(C)C

> <Shape>
0.227

> <Color>
0.081

> <Negative vol penalty>
0.000

$$$$

  -OEChem-04042321343D

 85 94  0     1  0  0  0  0  0999 V2000
  -23.7086  -17.7883   36.1384 C   0  0  0  0  0  0  0  0  0  0  0  0
  -24.3619  -17.8170   34.9105 C   0  0  0  0  0  0  0  0  0  0  0  0
  -23.0754   -9.8685   19.9405 C   0  0  0  0  0  0  0  0  0  0  0  0
  -23.8349   -9.8747   22.2340 C   0  0  0  0  0  0  0  0  0  0  0  0
  -22.6742  -16.8789   36.3553 C   0  0  0  0  0  0  0  0  0  0  0  0
  -23.9820  -16.9355   33.8991 C   0  0  0  0  0  0  0  0  0  0  0  0
  -23.6003  -19.2034   29.3874 C   0  0  0  0  0  0  0  0  0  0  0  0
  -22.3311   -8.7156   20.1900 C   0  0  0  0  0  0  0  0  0  0  0  0
  -23.0905   -8.7218   22.4836 C   0  0  0  0  0  0  0  0  0  0  0  0
  -24.7869  -19.4649   28.7038 C   0  0  0  0  0  0  0  0  0  0  0  0
  -19.8619   -7.9250   23.0852 C   0  0  0  0  0  0  0  0  0  0  0  0
  -19.1047   -7.8850   24.2560 C   0  0  0  0  0  0  0  0  0  0  0  0
  -24.4241  -17.5098   27.3382 C   0  0  0  0  0  0  0  0  0  0  0  0
  -29.8806  -17.4554   23.1413 C   0  0  0  0  0  0  0  0  0  0  0  0
  -32.0644  -16.6064   22.5521 C   0  0  0  0  0  0  0  0  0  0  0  0
  -20.3453   -5.9470   24.9922 C   0  0  0  0  0  0  0  0  0  0  0  0
  -23.8274  -10.4481   20.9625 C   0  0  0  0  0  0  0  0  0  0  0  0
  -24.1701  -12.9731   20.8431 C   0  0  0  0  0  0  0  0  0  0  0  0
  -22.2750  -15.9923   35.3428 C   0  0  0  0  0  0  0  0  0  0  0  0
  -22.8209  -18.0851   29.0582 C   0  0  0  0  0  0  0  0  0  0  0  0
  -22.9423  -16.0124   34.1031 C   0  0  0  0  0  0  0  0  0  0  0  0
  -23.2267  -17.2377   28.0174 C   0  0  0  0  0  0  0  0  0  0  0  0
  -30.4683  -18.3393   24.0462 C   0  0  0  0  0  0  0  0  0  0  0  0
  -31.8541  -18.3568   24.2041 C   0  0  0  0  0  0  0  0  0  0  0  0
  -30.6787  -16.5889   22.3943 C   0  0  0  0  0  0  0  0  0  0  0  0
  -22.3386   -8.1422   21.4615 C   0  0  0  0  0  0  0  0  0  0  0  0
  -25.2005  -18.6165   27.6810 C   0  0  0  0  0  0  0  0  0  0  0  0
  -20.8608   -6.9759   22.8679 C   0  0  0  0  0  0  0  0  0  0  0  0
  -19.3464   -6.8961   25.2095 C   0  0  0  0  0  0  0  0  0  0  0  0
  -32.6522  -17.4904   23.4571 C   0  0  0  0  0  0  0  0  0  0  0  0
  -21.1025   -5.9869   23.8214 C   0  0  0  0  0  0  0  0  0  0  0  0
  -24.5969  -11.6388   20.7051 C   0  0  0  0  0  0  0  0  0  0  0  0
  -25.2626  -13.7223   20.4802 C   0  0  0  0  0  0  0  0  0  0  0  0
  -22.8997  -13.4893   21.2619 C   0  0  0  0  0  0  0  0  0  0  0  0
  -21.8796  -15.4729   30.6056 C   0  0  0  0  0  0  0  0  0  0  0  0
  -20.1467  -14.9727   27.9095 C   0  0  0  0  0  0  0  0  0  0  0  0
  -20.6577  -15.2970   24.3526 C   0  0  0  0  0  0  0  0  0  0  0  0
  -30.7291  -14.7660   20.6563 C   0  0  0  0  0  0  0  0  0  0  0  0
  -21.1833  -14.9950   35.6400 C   0  0  0  0  0  0  0  0  0  0  0  0
  -21.5299  -17.8317   29.7873 C   0  0  0  0  0  0  0  0  0  0  0  0
  -22.4156  -16.0352   27.6118 C   0  0  0  0  0  0  0  0  0  0  0  0
  -20.5914  -14.3493   34.3898 C   0  0  0  0  0  0  0  0  0  0  0  0
  -29.6144  -12.3531   18.2872 C   0  0  0  0  0  0  0  0  0  0  0  0
  -21.7013  -13.8973   33.4460 C   0  0  0  0  0  0  0  0  0  0  0  0
  -28.1745  -12.0619   18.7164 C   0  0  0  0  0  0  0  0  0  0  0  0
  -28.1883  -17.5128   27.7829 C   0  0  0  0  0  0  0  0  0  0  0  0
  -30.5293  -12.5813   19.4891 C   0  0  0  0  0  0  0  0  0  0  0  0
  -28.6223  -13.3061   20.8701 C   0  0  0  0  0  0  0  0  0  0  0  0
  -28.8772  -17.4502   26.4345 C   0  0  0  0  0  0  0  0  0  0  0  0
  -28.5910  -19.7877   27.1081 C   0  0  0  0  0  0  0  0  0  0  0  0
  -22.5425  -15.0889   32.9729 C   0  0  1  0  0  0  0  0  0  0  0  0
  -21.0772  -16.3768   29.7129 C   0  0  1  0  0  0  0  0  0  0  0  0
  -27.6497  -13.1335   19.6921 C   0  0  2  0  0  0  0  0  0  0  0  0
  -27.5601  -18.8958   27.7821 C   0  0  1  0  0  0  0  0  0  1  0  0
  -32.5030  -19.2965   25.1668 C   0  0  0  0  0  0  0  0  0  0  0  0
  -19.0160  -15.7048   22.4990 C   0  0  0  0  0  0  0  0  0  0  0  0
  -20.1198  -11.9322   27.6551 C   0  0  0  0  0  0  0  0  0  0  0  0
  -19.9988  -12.2108   25.1700 C   0  0  0  0  0  0  0  0  0  0  0  0
  -18.1600  -13.0837   26.6121 C   0  0  0  0  0  0  0  0  0  0  0  0
  -22.1421  -17.6754   23.4048 C   0  0  0  0  0  0  0  0  0  0  0  0
  -29.5897  -19.2622   24.8383 C   0  0  0  0  0  0  0  0  0  0  0  0
  -20.3921  -14.2709   26.5957 C   0  0  1  0  0  0  0  0  0  0  0  0
  -20.0351  -16.3345   23.4359 C   0  0  2  0  0  0  0  0  0  0  0  0
  -19.6890  -12.8861   26.5231 C   0  0  0  0  0  0  0  0  0  0  0  0
  -25.8619  -11.5426   20.2871 N   0  0  0  0  0  0  0  0  0  0  0  0
  -26.2392  -12.8260   20.1591 N   0  0  0  0  0  0  0  0  0  0  0  0
  -21.1642  -15.8263   28.3588 N   0  0  0  0  0  0  0  0  0  0  0  0
  -29.9705  -13.6121   20.3666 N   0  0  0  0  0  0  0  0  0  0  0  0
  -25.4735  -15.0537   20.4075 N   0  0  0  0  0  0  0  0  0  0  0  0
  -21.8874  -12.5804   21.5987 N   0  0  0  0  0  0  0  0  0  0  0  0
  -30.0819  -15.6910   21.4748 N   0  0  0  0  0  0  0  0  0  0  0  0
  -21.8423  -15.8242   31.9416 N   0  0  0  0  0  0  0  0  0  0  0  0
  -19.9831  -15.2042   25.5516 N   0  0  0  0  0  0  0  0  0  0  0  0
  -29.4362  -18.8436   26.2652 N   0  3  2  0  0  0  0  0  0  0  0  0
  -21.0863  -16.9949   22.6115 N   0  3  0  0  0  0  0  0  0  0  0  0
  -22.6639  -14.7200   21.3194 O   0  0  0  0  0  0  0  0  0  0  0  0
  -22.4862  -14.5261   30.1187 O   0  0  0  0  0  0  0  0  0  0  0  0
  -19.0879  -14.7765   28.5113 O   0  0  0  0  0  0  0  0  0  0  0  0
  -21.6417  -14.6325   24.0353 O   0  0  0  0  0  0  0  0  0  0  0  0
  -31.8584  -14.9344   20.1889 O   0  0  0  0  0  0  0  0  0  0  0  0
  -21.6122   -7.0173   21.7055 O   0  0  0  0  0  0  0  0  0  0  0  0
  -26.3586  -18.8691   27.0125 O   0  0  0  0  0  0  0  0  0  1  0  0
  -18.6202   -6.8588   26.3344 F   0  0  0  0  0  0  0  0  0  0  0  0
  -33.9850  -17.5011   23.5994 F   0  0  0  0  0  0  0  0  0  0  0  0
  -22.0615   -5.0731   23.6188 F   0  0  0  0  0  0  0  0  0  0  0  0
  1  2  1  0  0  0  0
  1  5  2  0  0  0  0
  2  6  2  0  0  0  0
  3  8  2  0  0  0  0
  3 17  1  0  0  0  0
  4  9  1  0  0  0  0
  4 17  2  0  0  0  0
  5 19  1  0  0  0  0
  6 21  1  0  0  0  0
  7 10  2  0  0  0  0
  7 20  1  0  0  0  0
  8 26  1  0  0  0  0
  9 26  2  0  0  0  0
 10 27  1  0  0  0  0
 11 12  2  0  0  0  0
 11 28  1  0  0  0  0
 12 29  1  0  0  0  0
 13 22  1  0  0  0  0
 13 27  2  0  0  0  0
 14 23  1  0  0  0  0
 14 25  2  0  0  0  0
 15 25  1  0  0  0  0
 15 30  2  0  0  0  0
 16 29  2  0  0  0  0
 16 31  1  0  0  0  0
 17 32  1  0  0  0  0
 18 32  1  0  0  0  0
 18 33  2  0  0  0  0
 18 34  1  0  0  0  0
 19 21  2  0  0  0  0
 19 39  1  0  0  0  0
 20 22  2  0  0  0  0
 20 40  1  0  0  0  0
 21 51  1  0  0  0  0
 22 41  1  0  0  0  0
 23 24  2  0  0  0  0
 23 61  1  0  0  0  0
 24 30  1  0  0  0  0
 24 55  1  0  0  0  0
 25 71  1  0  0  0  0
 26 81  1  0  0  0  0
 27 82  1  0  0  0  0
 28 31  2  0  0  0  0
 28 81  1  0  0  0  0
 29 83  1  0  0  0  0
 30 84  1  0  0  0  0
 31 85  1  0  0  0  0
 32 65  2  0  0  0  0
 33 66  1  0  0  0  0
 33 69  1  0  0  0  0
 34 70  1  0  0  0  0
 34 76  2  0  0  0  0
 35 52  1  0  0  0  0
 35 72  1  0  0  0  0
 35 77  2  0  0  0  0
 36 62  1  0  0  0  0
 36 67  1  0  0  0  0
 36 78  2  0  0  0  0
 37 63  1  0  0  0  0
 37 73  1  0  0  0  0
 37 79  2  0  0  0  0
 38 68  1  0  0  0  0
 38 71  1  0  0  0  0
 38 80  2  0  0  0  0
 39 42  1  0  0  0  0
 40 52  1  0  0  0  0
 41 67  1  0  0  0  0
 42 44  1  0  0  0  0
 43 45  1  0  0  0  0
 43 47  1  0  0  0  0
 44 51  1  0  0  0  0
 45 53  1  0  0  0  0
 46 49  1  0  0  0  0
 46 54  1  0  0  0  0
 47 68  1  0  0  0  0
 48 53  1  0  0  0  0
 48 68  1  0  0  0  0
 49 74  1  0  0  0  0
 50 54  1  0  0  0  0
 50 74  1  0  0  0  0
 51 72  1  0  0  0  0
 52 67  1  0  0  0  0
 53 66  1  0  0  0  0
 54 82  1  0  0  0  0
 56 63  1  0  0  0  0
 57 64  1  0  0  0  0
 58 64  1  0  0  0  0
 59 64  1  0  0  0  0
 60 75  1  0  0  0  0
 61 74  1  0  0  0  0
 62 64  1  0  0  0  0
 62 73  1  0  0  0  0
 63 75  1  0  0  0  0
 65 66  1  0  0  0  0
M  CHG  2  74   1  75   1
M  ISO  4  38 100  54 101  71 100  82 101
M  END
> <Batch ID>
0029

> <Smiles>
CNC(C)C(=O)NC(C(=O)N1Cc2cc([101O:1][101CH:1]3CCN(Cc4cc([100NH:0][100C:0](=O)N5CCCC(n6nc(-c7ccc(Oc8ccc(F)cc8F)cc7)c(C(N)=O)c6N)C5)cc(F)c4C)C3)ccc2CC1C(=O)NC1CCCc2ccccc21)C(C)(C)C

> <Shape>
0.165

> <Color>
0.188

> <Negative vol penalty>
0.000

$$$$

  -OEChem-04042321343D

 86 96  0     1  0  0  0  0  0999 V2000
  -23.8180   -8.4996   22.0141 C   0  0  0  0  0  0  0  0  0  0  0  0
  -24.9469   -9.2844   21.8021 C   0  0  0  0  0  0  0  0  0  0  0  0
  -29.8505  -26.0268   17.8513 C   0  0  0  0  0  0  0  0  0  0  0  0
  -19.9137  -29.0437   23.1671 C   0  0  0  0  0  0  0  0  0  0  0  0
  -20.6280  -27.0241   22.0500 C   0  0  0  0  0  0  0  0  0  0  0  0
  -22.5657   -8.9571   21.6062 C   0  0  0  0  0  0  0  0  0  0  0  0
  -24.8243  -10.5268   21.1808 C   0  0  0  0  0  0  0  0  0  0  0  0
  -29.1884  -26.7251   18.8633 C   0  0  0  0  0  0  0  0  0  0  0  0
  -28.1127  -15.5620   22.3382 C   0  0  0  0  0  0  0  0  0  0  0  0
  -30.1303  -24.6575   17.9904 C   0  0  0  0  0  0  0  0  0  0  0  0
  -18.6051  -28.5622   23.2010 C   0  0  0  0  0  0  0  0  0  0  0  0
  -19.3193  -26.5425   22.0839 C   0  0  0  0  0  0  0  0  0  0  0  0
  -29.2195  -16.1256   21.7049 C   0  0  0  0  0  0  0  0  0  0  0  0
  -16.4464  -27.0126   20.3645 C   0  0  0  0  0  0  0  0  0  0  0  0
  -15.9388  -26.4329   19.2018 C   0  0  0  0  0  0  0  0  0  0  0  0
  -27.7567  -17.5868   20.4621 C   0  0  0  0  0  0  0  0  0  0  0  0
  -15.5934  -24.3565   20.3877 C   0  0  0  0  0  0  0  0  0  0  0  0
  -20.9252  -28.2747   22.5915 C   0  0  0  0  0  0  0  0  0  0  0  0
  -22.7339  -29.9485   21.9325 C   0  0  0  0  0  0  0  0  0  0  0  0
  -22.4264  -10.2099   20.9883 C   0  0  0  0  0  0  0  0  0  0  0  0
  -26.8167  -15.9998   22.0297 C   0  0  0  0  0  0  0  0  0  0  0  0
  -28.8213  -26.0314   20.0029 C   0  0  0  0  0  0  0  0  0  0  0  0
  -23.5692  -11.0009   20.7630 C   0  0  0  0  0  0  0  0  0  0  0  0
  -26.6353  -17.0289   21.0948 C   0  0  0  0  0  0  0  0  0  0  0  0
  -29.0994  -24.6680   20.1414 C   0  0  0  0  0  0  0  0  0  0  0  0
  -29.7528  -23.9664   19.1439 C   0  0  0  0  0  0  0  0  0  0  0  0
  -18.3079  -27.3116   22.6594 C   0  0  0  0  0  0  0  0  0  0  0  0
  -29.0414  -17.1362   20.7646 C   0  0  0  0  0  0  0  0  0  0  0  0
  -16.5276  -26.2642   21.5388 C   0  0  0  0  0  0  0  0  0  0  0  0
  -15.5123  -25.1049   19.2133 C   0  0  0  0  0  0  0  0  0  0  0  0
  -16.1011  -24.9362   21.5504 C   0  0  0  0  0  0  0  0  0  0  0  0
  -22.2771  -28.7718   22.5557 C   0  0  0  0  0  0  0  0  0  0  0  0
  -24.0838  -29.9691   22.1852 C   0  0  0  0  0  0  0  0  0  0  0  0
  -22.0034  -30.9349   21.1916 C   0  0  0  0  0  0  0  0  0  0  0  0
  -24.2228  -14.6375   20.7970 C   0  0  0  0  0  0  0  0  0  0  0  0
  -22.8613  -17.4955   21.5044 C   0  0  0  0  0  0  0  0  0  0  0  0
  -23.2672  -20.8350   22.0784 C   0  0  0  0  0  0  0  0  0  0  0  0
  -27.8432  -25.3874   23.4896 C   0  0  0  0  0  0  0  0  0  0  0  0
  -21.0585  -10.6413   20.5220 C   0  0  0  0  0  0  0  0  0  0  0  0
  -25.6349  -15.4001   22.7413 C   0  0  0  0  0  0  0  0  0  0  0  0
  -28.0917  -26.5374   21.2046 C   0  0  0  0  0  0  0  0  0  0  0  0
  -25.2661  -17.5486   20.7431 C   0  0  0  0  0  0  0  0  0  0  0  0
  -28.6048  -24.1697   21.4572 C   0  0  0  0  0  0  0  0  0  0  0  0
  -20.9639  -12.1324   20.2089 C   0  0  0  0  0  0  0  0  0  0  0  0
  -27.3265  -28.4856   25.3850 C   0  0  0  0  0  0  0  0  0  0  0  0
  -22.1535  -12.5769   19.3638 C   0  0  0  0  0  0  0  0  0  0  0  0
  -31.5846  -19.5320   17.6445 C   0  0  0  0  0  0  0  0  0  0  0  0
  -25.9863  -28.9883   24.8435 C   0  0  0  0  0  0  0  0  0  0  0  0
  -31.2313  -18.0950   18.0241 C   0  0  0  0  0  0  0  0  0  0  0  0
  -29.5400  -19.6583   18.8581 C   0  0  0  0  0  0  0  0  0  0  0  0
  -27.4254  -26.9620   25.3457 C   0  0  0  0  0  0  0  0  0  0  0  0
  -25.7944  -26.8633   23.5027 C   0  0  0  0  0  0  0  0  0  0  0  0
  -23.4736  -12.3650   20.1148 C   0  0  1  0  0  0  0  0  0  0  0  0
  -24.3274  -15.5667   21.9732 C   0  0  1  0  0  0  0  0  0  0  0  0
  -30.8736  -20.3859   18.6898 C   0  0  2  0  0  0  0  0  0  0  0  0
  -25.6868  -28.3930   23.4542 C   0  0  1  0  0  0  0  0  0  0  0  0
  -29.9238  -18.1797   18.8188 C   0  0  2  0  0  0  0  0  0  1  0  0
  -22.6402  -23.1836   22.7016 C   0  0  0  0  0  0  0  0  0  0  0  0
  -21.9395  -17.6340   18.5990 C   0  0  0  0  0  0  0  0  0  0  0  0
  -21.5057  -20.0780   18.9261 C   0  0  0  0  0  0  0  0  0  0  0  0
  -20.2424  -18.3980   20.2695 C   0  0  0  0  0  0  0  0  0  0  0  0
  -23.7908  -20.3369   24.9484 C   0  0  0  0  0  0  0  0  0  0  0  0
  -30.7139  -21.8366   18.2687 C   0  0  0  0  0  0  0  0  0  0  0  0
  -22.6858  -18.8057   20.7753 C   0  0  1  0  0  0  0  0  0  0  0  0
  -22.7339  -21.7410   23.1735 C   0  0  2  0  0  0  0  0  0  0  0  0
  -21.6192  -18.7180   19.6474 C   0  0  0  0  0  0  0  0  0  0  0  0
  -23.2573  -28.0938   23.1587 N   0  0  0  0  0  0  0  0  0  0  0  0
  -24.3435  -28.8469   22.9156 N   0  0  0  0  0  0  0  0  0  0  0  0
  -24.1418  -16.9260   21.4612 N   0  0  0  0  0  0  0  0  0  0  0  0
  -28.0502  -25.3684   22.1081 N   0  0  0  0  0  0  0  0  0  0  0  0
  -27.1070  -26.4556   24.0117 N   0  0  0  0  0  0  0  0  0  0  0  0
  -25.0622  -30.8373   21.8515 N   0  0  0  0  0  0  0  0  0  0  0  0
  -21.4589  -32.0241   21.8855 N   0  0  0  0  0  0  0  0  0  0  0  0
  -30.0371  -22.5961   19.2775 N   0  0  0  0  0  0  0  0  0  0  0  0
  -23.6684  -13.4082   21.0988 N   0  0  0  0  0  0  0  0  0  0  0  0
  -22.3943  -19.8055   21.7970 N   0  0  0  0  0  0  0  0  0  0  0  0
  -23.6268  -21.6936   24.3657 N   0  3  0  0  0  0  0  0  0  0  0  0
  -21.8242  -30.8443   19.9533 O   0  0  0  0  0  0  0  0  0  0  0  0
  -24.6146  -15.0088   19.6969 O   0  0  0  0  0  0  0  0  0  0  0  0
  -21.8997  -16.9994   22.0965 O   0  0  0  0  0  0  0  0  0  0  0  0
  -24.3483  -21.0241   21.5252 O   0  0  0  0  0  0  0  0  0  0  0  0
  -28.3379  -24.5253   24.2270 O   0  0  0  0  0  0  0  0  0  0  0  0
  -17.0310  -26.8413   22.6926 O   0  0  0  0  0  0  0  0  0  0  0  0
  -30.1267  -17.6910   20.1406 O   0  0  0  0  0  0  0  0  0  1  0  0
  -15.0235  -24.5489   18.0971 F   0  0  0  0  0  0  0  0  0  0  0  0
  -16.1755  -24.2126   22.6759 F   0  0  0  0  0  0  0  0  0  0  0  0
  1  2  1  0  0  0  0
  1  6  2  0  0  0  0
  2  7  2  0  0  0  0
  3  8  1  0  0  0  0
  3 10  2  0  0  0  0
  4 11  2  0  0  0  0
  4 18  1  0  0  0  0
  5 12  1  0  0  0  0
  5 18  2  0  0  0  0
  6 20  1  0  0  0  0
  7 23  1  0  0  0  0
  8 22  2  0  0  0  0
  9 13  2  0  0  0  0
  9 21  1  0  0  0  0
 10 26  1  0  0  0  0
 11 27  1  0  0  0  0
 12 27  2  0  0  0  0
 13 28  1  0  0  0  0
 14 15  2  0  0  0  0
 14 29  1  0  0  0  0
 15 30  1  0  0  0  0
 16 24  1  0  0  0  0
 16 28  2  0  0  0  0
 17 30  2  0  0  0  0
 17 31  1  0  0  0  0
 18 32  1  0  0  0  0
 19 32  1  0  0  0  0
 19 33  2  0  0  0  0
 19 34  1  0  0  0  0
 20 23  2  0  0  0  0
 20 39  1  0  0  0  0
 21 24  2  0  0  0  0
 21 40  1  0  0  0  0
 22 25  1  0  0  0  0
 22 41  1  0  0  0  0
 23 53  1  0  0  0  0
 24 42  1  0  0  0  0
 25 26  2  0  0  0  0
 25 43  1  0  0  0  0
 26 74  1  0  0  0  0
 27 83  1  0  0  0  0
 28 84  1  0  0  0  0
 29 31  2  0  0  0  0
 29 83  1  0  0  0  0
 30 85  1  0  0  0  0
 31 86  1  0  0  0  0
 32 67  2  0  0  0  0
 33 68  1  0  0  0  0
 33 72  1  0  0  0  0
 34 73  1  0  0  0  0
 34 78  2  0  0  0  0
 35 54  1  0  0  0  0
 35 75  1  0  0  0  0
 35 79  2  0  0  0  0
 36 64  1  0  0  0  0
 36 69  1  0  0  0  0
 36 80  2  0  0  0  0
 37 65  1  0  0  0  0
 37 76  1  0  0  0  0
 37 81  2  0  0  0  0
 38 70  1  0  0  0  0
 38 71  1  0  0  0  0
 38 82  2  0  0  0  0
 39 44  1  0  0  0  0
 40 54  1  0  0  0  0
 41 70  1  0  0  0  0
 42 69  1  0  0  0  0
 43 70  1  0  0  0  0
 44 46  1  0  0  0  0
 45 48  1  0  0  0  0
 45 51  1  0  0  0  0
 46 53  1  0  0  0  0
 47 49  1  0  0  0  0
 47 55  1  0  0  0  0
 48 56  1  0  0  0  0
 49 57  1  0  0  0  0
 50 55  1  0  0  0  0
 50 57  1  0  0  0  0
 51 71  1  0  0  0  0
 52 56  1  0  0  0  0
 52 71  1  0  0  0  0
 53 75  1  0  0  0  0
 54 69  1  0  0  0  0
 55 63  1  0  0  0  0
 56 68  1  0  0  0  0
 57 84  1  0  0  0  0
 58 65  1  0  0  0  0
 59 66  1  0  0  0  0
 60 66  1  0  0  0  0
 61 66  1  0  0  0  0
 62 77  1  0  0  0  0
 63 74  1  0  0  0  0
 64 66  1  0  0  0  0
 64 76  1  0  0  0  0
 65 77  1  0  0  0  0
 67 68  1  0  0  0  0
M  CHG  1  77   1
M  ISO  4  38 100  57 101  70 100  84 101
M  END
> <Batch ID>
0029

> <Smiles>
CNC(C)C(=O)NC(C(=O)N1Cc2cc([101O:1][101CH:1]3CCC(CNc4cccc5c4C[100N:0]([100C:0](=O)N4CCCC(n6nc(-c7ccc(Oc8ccc(F)cc8F)cc7)c(C(N)=O)c6N)C4)C5)C3)ccc2CC1C(=O)NC1CCCc2ccccc21)C(C)(C)C

> <Shape>
0.233

> <Color>
0.063

> <Negative vol penalty>
0.000

$$$$

  -OEChem-04042321343D

 83 92  0     1  0  0  0  0  0999 V2000
  -27.7577  -32.0675   30.9310 C   0  0  0  0  0  0  0  0  0  0  0  0
  -27.7224  -30.7118   30.6207 C   0  0  0  0  0  0  0  0  0  0  0  0
  -23.0014   -9.8614   19.9998 C   0  0  0  0  0  0  0  0  0  0  0  0
  -23.7094   -9.9569   22.3078 C   0  0  0  0  0  0  0  0  0  0  0  0
  -27.6315  -33.0169   29.9177 C   0  0  0  0  0  0  0  0  0  0  0  0
  -27.5597  -30.3047   29.2970 C   0  0  0  0  0  0  0  0  0  0  0  0
  -30.0344  -25.3784   26.6299 C   0  0  0  0  0  0  0  0  0  0  0  0
  -30.6091  -19.8240   21.3226 C   0  0  0  0  0  0  0  0  0  0  0  0
  -22.2362   -8.7297   20.2814 C   0  0  0  0  0  0  0  0  0  0  0  0
  -22.9442   -8.8252   22.5894 C   0  0  0  0  0  0  0  0  0  0  0  0
  -29.5318  -24.1064   26.3592 C   0  0  0  0  0  0  0  0  0  0  0  0
  -23.2016   -5.4789   22.1808 C   0  0  0  0  0  0  0  0  0  0  0  0
  -23.7865   -4.4775   22.9558 C   0  0  0  0  0  0  0  0  0  0  0  0
  -30.8112  -19.0630   20.1713 C   0  0  0  0  0  0  0  0  0  0  0  0
  -28.9707  -24.8110   24.1213 C   0  0  0  0  0  0  0  0  0  0  0  0
  -22.0497   -4.7460   24.6136 C   0  0  0  0  0  0  0  0  0  0  0  0
  -23.7381  -10.4750   21.0130 C   0  0  0  0  0  0  0  0  0  0  0  0
  -24.1174  -12.9881   20.7935 C   0  0  0  0  0  0  0  0  0  0  0  0
  -27.4769  -32.6212   28.5797 C   0  0  0  0  0  0  0  0  0  0  0  0
  -29.9989  -26.3811   25.6502 C   0  0  0  0  0  0  0  0  0  0  0  0
  -27.4300  -31.2496   28.2650 C   0  0  0  0  0  0  0  0  0  0  0  0
  -29.4758  -26.0941   24.3813 C   0  0  0  0  0  0  0  0  0  0  0  0
  -30.0375  -17.8208   22.5464 C   0  0  0  0  0  0  0  0  0  0  0  0
  -30.2222  -19.2029   22.5102 C   0  0  0  0  0  0  0  0  0  0  0  0
  -30.2396  -17.0598   21.3950 C   0  0  0  0  0  0  0  0  0  0  0  0
  -22.2076   -8.2116   21.5762 C   0  0  0  0  0  0  0  0  0  0  0  0
  -28.9972  -23.8234   25.1057 C   0  0  0  0  0  0  0  0  0  0  0  0
  -22.0407   -6.1140   22.6223 C   0  0  0  0  0  0  0  0  0  0  0  0
  -23.2105   -4.1110   24.1722 C   0  0  0  0  0  0  0  0  0  0  0  0
  -21.4648   -5.7475   23.8386 C   0  0  0  0  0  0  0  0  0  0  0  0
  -30.6265  -17.6809   20.2075 C   0  0  0  0  0  0  0  0  0  0  0  0
  -24.5292  -11.6437   20.7226 C   0  0  0  0  0  0  0  0  0  0  0  0
  -25.2278  -13.7072   20.4240 C   0  0  0  0  0  0  0  0  0  0  0  0
  -22.8451  -13.5377   21.1606 C   0  0  0  0  0  0  0  0  0  0  0  0
  -28.6092  -29.2293   25.4049 C   0  0  0  0  0  0  0  0  0  0  0  0
  -30.3345  -29.4016   22.6633 C   0  0  0  0  0  0  0  0  0  0  0  0
  -31.9441  -27.7546   20.1447 C   0  0  0  0  0  0  0  0  0  0  0  0
  -30.7026  -14.6889   20.6802 C   0  0  0  0  0  0  0  0  0  0  0  0
  -27.2970  -33.6838   27.5246 C   0  0  0  0  0  0  0  0  0  0  0  0
  -30.5694  -27.7403   25.9494 C   0  0  0  0  0  0  0  0  0  0  0  0
  -29.4330  -27.1296   23.2885 C   0  0  0  0  0  0  0  0  0  0  0  0
  -27.5038  -33.1706   26.1019 C   0  0  0  0  0  0  0  0  0  0  0  0
  -29.6085  -12.1903   18.3918 C   0  0  0  0  0  0  0  0  0  0  0  0
  -26.7558  -31.8576   25.8940 C   0  0  0  0  0  0  0  0  0  0  0  0
  -28.1556  -11.9359   18.8000 C   0  0  0  0  0  0  0  0  0  0  0  0
  -30.4994  -12.4586   19.6034 C   0  0  0  0  0  0  0  0  0  0  0  0
  -28.5720  -13.2661   20.9081 C   0  0  0  0  0  0  0  0  0  0  0  0
  -28.8286  -20.1124   24.3973 C   0  0  0  0  0  0  0  0  0  0  0  0
  -30.4671  -21.3158   23.8541 C   0  0  0  0  0  0  0  0  0  0  0  0
  -27.2799  -30.7687   26.8381 C   0  0  1  0  0  0  0  0  0  0  0  0
  -30.0132  -28.8344   25.0433 C   0  0  1  0  0  0  0  0  0  0  0  0
  -27.6237  -13.0550   19.7166 C   0  0  2  0  0  0  0  0  0  0  0  0
  -29.3846  -21.4380   24.9363 C   0  0  0  0  0  0  0  0  0  1  0  0
  -29.6226  -17.1584   23.8242 C   0  0  0  0  0  0  0  0  0  0  0  0
  -33.2265  -28.1645   18.0270 C   0  0  0  0  0  0  0  0  0  0  0  0
  -27.7275  -30.0351   21.2100 C   0  0  0  0  0  0  0  0  0  0  0  0
  -28.8798  -29.4962   19.0537 C   0  0  0  0  0  0  0  0  0  0  0  0
  -29.6939  -31.3873   20.4622 C   0  0  0  0  0  0  0  0  0  0  0  0
  -34.3688  -26.4437   21.2224 C   0  0  0  0  0  0  0  0  0  0  0  0
  -30.0973  -29.0107   21.2246 C   0  0  1  0  0  0  0  0  0  0  0  0
  -33.3181  -27.9505   19.5299 C   0  0  2  0  0  0  0  0  0  0  0  0
  -29.0985  -29.9632   20.5086 C   0  0  0  0  0  0  0  0  0  0  0  0
  -25.8017  -11.5138   20.3381 N   0  0  0  0  0  0  0  0  0  0  0  0
  -26.1991  -12.7857   20.1640 N   0  0  0  0  0  0  0  0  0  0  0  0
  -30.0291  -19.9792   23.6475 N   0  0  0  0  0  0  0  0  0  0  0  0
  -29.9972  -28.4454   23.6317 N   0  0  0  0  0  0  0  0  0  0  0  0
  -29.9351  -13.5332   20.4230 N   0  0  0  0  0  0  0  0  0  0  0  0
  -25.4582  -15.0315   20.2992 N   0  0  0  0  0  0  0  0  0  0  0  0
  -21.8133  -12.6569   21.5128 N   0  0  0  0  0  0  0  0  0  0  0  0
  -30.0498  -15.6564   21.4434 N   0  0  0  0  0  0  0  0  0  0  0  0
  -28.5333  -30.2358   26.3486 N   0  0  0  0  0  0  0  0  0  0  0  0
  -31.4130  -28.9437   20.5976 N   0  0  0  0  0  0  0  0  0  0  0  0
  -34.1740  -26.7570   19.7833 N   0  3  0  0  0  0  0  0  0  0  0  0
  -22.6247  -14.7726   21.1601 O   0  0  0  0  0  0  0  0  0  0  0  0
  -27.6648  -28.6638   24.8664 O   0  0  0  0  0  0  0  0  0  0  0  0
  -30.8084  -30.5116   22.9182 O   0  0  0  0  0  0  0  0  0  0  0  0
  -31.3951  -26.6571   20.2128 O   0  0  0  0  0  0  0  0  0  0  0  0
  -31.8441  -14.8229   20.2321 O   0  0  0  0  0  0  0  0  0  0  0  0
  -21.4608   -7.1075   21.8513 O   0  0  0  0  0  0  0  0  0  0  0  0
  -28.5054  -22.5829   24.8390 O   0  0  0  0  0  0  0  0  0  1  0  0
  -23.7715   -3.1483   24.9156 F   0  0  0  0  0  0  0  0  0  0  0  0
  -20.3489   -6.3531   24.2674 F   0  0  0  0  0  0  0  0  0  0  0  0
  -30.8891  -16.7803   18.7561 Cl  0  0  0  0  0  0  0  0  0  0  0  0
  1  2  1  0  0  0  0
  1  5  2  0  0  0  0
  2  6  2  0  0  0  0
  3  9  2  0  0  0  0
  3 17  1  0  0  0  0
  4 10  1  0  0  0  0
  4 17  2  0  0  0  0
  5 19  1  0  0  0  0
  6 21  1  0  0  0  0
  7 11  2  0  0  0  0
  7 20  1  0  0  0  0
  8 14  2  0  0  0  0
  8 24  1  0  0  0  0
  9 26  1  0  0  0  0
 10 26  2  0  0  0  0
 11 27  1  0  0  0  0
 12 13  2  0  0  0  0
 12 28  1  0  0  0  0
 13 29  1  0  0  0  0
 14 31  1  0  0  0  0
 15 22  1  0  0  0  0
 15 27  2  0  0  0  0
 16 29  2  0  0  0  0
 16 30  1  0  0  0  0
 17 32  1  0  0  0  0
 18 32  1  0  0  0  0
 18 33  2  0  0  0  0
 18 34  1  0  0  0  0
 19 21  2  0  0  0  0
 19 39  1  0  0  0  0
 20 22  2  0  0  0  0
 20 40  1  0  0  0  0
 21 50  1  0  0  0  0
 22 41  1  0  0  0  0
 23 24  2  0  0  0  0
 23 25  1  0  0  0  0
 23 54  1  0  0  0  0
 24 65  1  0  0  0  0
 25 31  2  0  0  0  0
 25 70  1  0  0  0  0
 26 79  1  0  0  0  0
 27 80  1  0  0  0  0
 28 30  2  0  0  0  0
 28 79  1  0  0  0  0
 29 81  1  0  0  0  0
 30 82  1  0  0  0  0
 31 83  1  0  0  0  0
 32 63  2  0  0  0  0
 33 64  1  0  0  0  0
 33 68  1  0  0  0  0
 34 69  1  0  0  0  0
 34 74  2  0  0  0  0
 35 51  1  0  0  0  0
 35 71  1  0  0  0  0
 35 75  2  0  0  0  0
 36 60  1  0  0  0  0
 36 66  1  0  0  0  0
 36 76  2  0  0  0  0
 37 61  1  0  0  0  0
 37 72  1  0  0  0  0
 37 77  2  0  0  0  0
 38 67  1  0  0  0  0
 38 70  1  0  0  0  0
 38 78  2  0  0  0  0
 39 42  1  0  0  0  0
 40 51  1  0  0  0  0
 41 66  1  0  0  0  0
 42 44  1  0  0  0  0
 43 45  1  0  0  0  0
 43 46  1  0  0  0  0
 44 50  1  0  0  0  0
 45 52  1  0  0  0  0
 46 67  1  0  0  0  0
 47 52  1  0  0  0  0
 47 67  1  0  0  0  0
 48 53  1  0  0  0  0
 48 65  1  0  0  0  0
 49 53  1  0  0  0  0
 49 65  1  0  0  0  0
 50 71  1  0  0  0  0
 51 66  1  0  0  0  0
 52 64  1  0  0  0  0
 53 80  1  0  0  0  0
 55 61  1  0  0  0  0
 56 62  1  0  0  0  0
 57 62  1  0  0  0  0
 58 62  1  0  0  0  0
 59 73  1  0  0  0  0
 60 62  1  0  0  0  0
 60 72  1  0  0  0  0
 61 73  1  0  0  0  0
 63 64  1  0  0  0  0
M  CHG  1  73   1
M  ISO  4  38 100  53 101  70 100  80 101
M  END
> <Batch ID>
0029

> <Smiles>
CNC(C)C(=O)NC(C(=O)N1Cc2cc([101O:1][101CH:1]3CN(c4ccc(Cl)c([100NH:0][100C:0](=O)N5CCCC(n6nc(-c7ccc(Oc8ccc(F)cc8F)cc7)c(C(N)=O)c6N)C5)c4C)C3)ccc2CC1C(=O)NC1CCCc2ccccc21)C(C)(C)C

> <Shape>
0.243

> <Color>
0.203

> <Negative vol penalty>
0.000

$$$$

  -OEChem-04042321343D

 84 93  0     1  0  0  0  0  0999 V2000
  -18.5454   -9.7582   31.5908 C   0  0  0  0  0  0  0  0  0  0  0  0
  -19.7749   -9.6326   30.9521 C   0  0  0  0  0  0  0  0  0  0  0  0
  -23.2885   -9.7996   19.9125 C   0  0  0  0  0  0  0  0  0  0  0  0
  -23.7386   -9.9399   22.2821 C   0  0  0  0  0  0  0  0  0  0  0  0
  -18.4831  -10.2713   32.8857 C   0  0  0  0  0  0  0  0  0  0  0  0
  -20.9428  -10.0211   31.6076 C   0  0  0  0  0  0  0  0  0  0  0  0
  -26.4672   -7.4199   31.1386 C   0  0  0  0  0  0  0  0  0  0  0  0
  -29.8098  -12.8940   27.6249 C   0  0  0  0  0  0  0  0  0  0  0  0
  -22.5621   -8.6271   20.1199 C   0  0  0  0  0  0  0  0  0  0  0  0
  -23.0121   -8.7673   22.4895 C   0  0  0  0  0  0  0  0  0  0  0  0
  -27.5979   -7.7475   30.3915 C   0  0  0  0  0  0  0  0  0  0  0  0
  -19.7649   -7.8564   22.7057 C   0  0  0  0  0  0  0  0  0  0  0  0
  -18.8622   -7.8346   23.7688 C   0  0  0  0  0  0  0  0  0  0  0  0
  -30.1042  -14.1413   27.0743 C   0  0  0  0  0  0  0  0  0  0  0  0
  -28.5100   -8.9151   32.2951 C   0  0  0  0  0  0  0  0  0  0  0  0
  -20.0676   -5.9872   24.7544 C   0  0  0  0  0  0  0  0  0  0  0  0
  -23.8769  -10.4560   20.9936 C   0  0  0  0  0  0  0  0  0  0  0  0
  -24.1364  -12.9860   20.7954 C   0  0  0  0  0  0  0  0  0  0  0  0
  -19.6517  -10.6574   33.5610 C   0  0  0  0  0  0  0  0  0  0  0  0
  -26.3444   -7.8475   32.4685 C   0  0  0  0  0  0  0  0  0  0  0  0
  -20.8958  -10.5412   32.9122 C   0  0  0  0  0  0  0  0  0  0  0  0
  -27.3780   -8.5895   33.0577 C   0  0  0  0  0  0  0  0  0  0  0  0
  -30.7259  -11.8137   25.6676 C   0  0  0  0  0  0  0  0  0  0  0  0
  -31.0203  -13.0610   25.1170 C   0  0  0  0  0  0  0  0  0  0  0  0
  -30.1206  -11.7302   26.9216 C   0  0  0  0  0  0  0  0  0  0  0  0
  -22.4238   -8.1110   21.4083 C   0  0  0  0  0  0  0  0  0  0  0  0
  -28.6182   -8.4977   30.9688 C   0  0  0  0  0  0  0  0  0  0  0  0
  -20.8189   -6.9435   22.6668 C   0  0  0  0  0  0  0  0  0  0  0  0
  -19.0136   -6.9000   24.7932 C   0  0  0  0  0  0  0  0  0  0  0  0
  -20.9703   -6.0090   23.6912 C   0  0  0  0  0  0  0  0  0  0  0  0
  -30.7094  -14.2248   25.8204 C   0  0  0  0  0  0  0  0  0  0  0  0
  -24.6279  -11.6669   20.7800 C   0  0  0  0  0  0  0  0  0  0  0  0
  -25.2380  -13.7659   20.5409 C   0  0  0  0  0  0  0  0  0  0  0  0
  -22.8033  -13.4636   21.0199 C   0  0  0  0  0  0  0  0  0  0  0  0
  -24.3157   -9.7194   34.0445 C   0  0  0  0  0  0  0  0  0  0  0  0
  -26.0067   -8.7195   36.6258 C   0  0  0  0  0  0  0  0  0  0  0  0
  -28.9298   -7.4707   37.8679 C   0  0  0  0  0  0  0  0  0  0  0  0
  -31.1087  -12.9225   21.3622 C   0  0  0  0  0  0  0  0  0  0  0  0
  -19.5296  -11.2507   34.9422 C   0  0  0  0  0  0  0  0  0  0  0  0
  -25.1305   -7.4631   33.2691 C   0  0  0  0  0  0  0  0  0  0  0  0
  -27.3038   -9.0555   34.4881 C   0  0  0  0  0  0  0  0  0  0  0  0
  -20.8499  -11.2897   35.7073 C   0  0  0  0  0  0  0  0  0  0  0  0
  -29.4607  -13.6625   18.2940 C   0  0  0  0  0  0  0  0  0  0  0  0
  -21.9657  -11.8312   34.8193 C   0  0  0  0  0  0  0  0  0  0  0  0
  -27.9909  -13.3539   18.5846 C   0  0  0  0  0  0  0  0  0  0  0  0
  -30.3938  -12.6829   19.0025 C   0  0  0  0  0  0  0  0  0  0  0  0
  -28.7066  -12.2534   20.7469 C   0  0  0  0  0  0  0  0  0  0  0  0
  -28.7529  -10.2037   28.3809 C   0  0  0  0  0  0  0  0  0  0  0  0
  -30.7356   -9.5743   28.0637 C   0  0  0  0  0  0  0  0  0  0  0  0
  -22.1872  -10.9287   33.5995 C   0  0  1  0  0  0  0  0  0  0  0  0
  -24.8796   -8.3887   34.4556 C   0  0  1  0  0  0  0  0  0  0  0  0
  -27.7289  -13.2487   20.0991 C   0  0  2  0  0  0  0  0  0  0  0  0
  -29.5509   -8.9727   28.8333 C   0  0  0  0  0  0  0  0  0  1  0  0
  -31.0587  -10.5645   24.9126 C   0  0  0  0  0  0  0  0  0  0  0  0
  -30.0251   -6.7934   40.0218 C   0  0  0  0  0  0  0  0  0  0  0  0
  -26.4195  -11.6578   37.3370 C   0  0  0  0  0  0  0  0  0  0  0  0
  -28.2568  -10.9530   38.8848 C   0  0  0  0  0  0  0  0  0  0  0  0
  -25.9218  -10.1725   39.2866 C   0  0  0  0  0  0  0  0  0  0  0  0
  -29.2716   -4.6777   36.9506 C   0  0  0  0  0  0  0  0  0  0  0  0
  -31.6698  -13.1359   23.7702 C   0  0  0  0  0  0  0  0  0  0  0  0
  -27.2356   -9.2084   37.3536 C   0  0  1  0  0  0  0  0  0  0  0  0
  -29.2101   -6.3267   38.8256 C   0  0  2  0  0  0  0  0  0  0  0  0
  -26.9593  -10.4910   38.1879 C   0  0  0  0  0  0  0  0  0  0  0  0
  -25.9396  -11.6082   20.5348 N   0  0  0  0  0  0  0  0  0  0  0  0
  -26.2816  -12.9002   20.3938 N   0  0  0  0  0  0  0  0  0  0  0  0
  -29.8196  -10.4964   27.4879 N   0  0  0  0  0  0  0  0  0  0  0  0
  -26.0940   -8.6597   35.2277 N   0  0  0  0  0  0  0  0  0  0  0  0
  -30.0940  -12.6313   20.4355 N   0  0  0  0  0  0  0  0  0  0  0  0
  -25.4060  -15.1008   20.4307 N   0  0  0  0  0  0  0  0  0  0  0  0
  -21.7906  -12.5267   21.2669 N   0  0  0  0  0  0  0  0  0  0  0  0
  -22.9360   -9.7481   33.9736 N   0  0  0  0  0  0  0  0  0  0  0  0
  -27.7220   -8.0785   38.1380 N   0  0  0  0  0  0  0  0  0  0  0  0
  -30.7386  -12.8568   22.6999 N   0  0  0  0  0  0  0  0  0  0  0  0
  -29.9676   -5.2457   38.1338 N   0  3  0  0  0  0  0  0  0  0  0  0
  -22.5155  -14.6841   20.9857 O   0  0  0  0  0  0  0  0  0  0  0  0
  -25.0760  -10.6516   33.8106 O   0  0  0  0  0  0  0  0  0  0  0  0
  -25.0087   -8.3955   37.2743 O   0  0  0  0  0  0  0  0  0  0  0  0
  -29.7064   -7.7951   36.9723 O   0  0  0  0  0  0  0  0  0  0  0  0
  -32.2578  -13.2243   21.0224 O   0  0  0  0  0  0  0  0  0  0  0  0
  -21.7148   -6.9670   21.6111 O   0  0  0  0  0  0  0  0  0  0  0  0
  -29.7225   -8.8193   30.2417 O   0  0  0  0  0  0  0  0  0  1  0  0
  -18.1476   -6.8802   25.8148 F   0  0  0  0  0  0  0  0  0  0  0  0
  -21.9816   -5.1303   23.6600 F   0  0  0  0  0  0  0  0  0  0  0  0
  -31.0584  -15.7880   25.1755 Cl  0  0  0  0  0  0  0  0  0  0  0  0
  1  2  1  0  0  0  0
  1  5  2  0  0  0  0
  2  6  2  0  0  0  0
  3  9  2  0  0  0  0
  3 17  1  0  0  0  0
  4 10  1  0  0  0  0
  4 17  2  0  0  0  0
  5 19  1  0  0  0  0
  6 21  1  0  0  0  0
  7 11  2  0  0  0  0
  7 20  1  0  0  0  0
  8 14  2  0  0  0  0
  8 25  1  0  0  0  0
  9 26  1  0  0  0  0
 10 26  2  0  0  0  0
 11 27  1  0  0  0  0
 12 13  2  0  0  0  0
 12 28  1  0  0  0  0
 13 29  1  0  0  0  0
 14 31  1  0  0  0  0
 15 22  1  0  0  0  0
 15 27  2  0  0  0  0
 16 29  2  0  0  0  0
 16 30  1  0  0  0  0
 17 32  1  0  0  0  0
 18 32  1  0  0  0  0
 18 33  2  0  0  0  0
 18 34  1  0  0  0  0
 19 21  2  0  0  0  0
 19 39  1  0  0  0  0
 20 22  2  0  0  0  0
 20 40  1  0  0  0  0
 21 50  1  0  0  0  0
 22 41  1  0  0  0  0
 23 24  1  0  0  0  0
 23 25  2  0  0  0  0
 23 54  1  0  0  0  0
 24 31  2  0  0  0  0
 24 60  1  0  0  0  0
 25 66  1  0  0  0  0
 26 80  1  0  0  0  0
 27 81  1  0  0  0  0
 28 30  2  0  0  0  0
 28 80  1  0  0  0  0
 29 82  1  0  0  0  0
 30 83  1  0  0  0  0
 31 84  1  0  0  0  0
 32 64  2  0  0  0  0
 33 65  1  0  0  0  0
 33 69  1  0  0  0  0
 34 70  1  0  0  0  0
 34 75  2  0  0  0  0
 35 51  1  0  0  0  0
 35 71  1  0  0  0  0
 35 76  2  0  0  0  0
 36 61  1  0  0  0  0
 36 67  1  0  0  0  0
 36 77  2  0  0  0  0
 37 62  1  0  0  0  0
 37 72  1  0  0  0  0
 37 78  2  0  0  0  0
 38 68  1  0  0  0  0
 38 73  1  0  0  0  0
 38 79  2  0  0  0  0
 39 42  1  0  0  0  0
 40 51  1  0  0  0  0
 41 67  1  0  0  0  0
 42 44  1  0  0  0  0
 43 45  1  0  0  0  0
 43 46  1  0  0  0  0
 44 50  1  0  0  0  0
 45 52  1  0  0  0  0
 46 68  1  0  0  0  0
 47 52  1  0  0  0  0
 47 68  1  0  0  0  0
 48 53  1  0  0  0  0
 48 66  1  0  0  0  0
 49 53  1  0  0  0  0
 49 66  1  0  0  0  0
 50 71  1  0  0  0  0
 51 67  1  0  0  0  0
 52 65  1  0  0  0  0
 53 81  1  0  0  0  0
 55 62  1  0  0  0  0
 56 63  1  0  0  0  0
 57 63  1  0  0  0  0
 58 63  1  0  0  0  0
 59 74  1  0  0  0  0
 60 73  1  0  0  0  0
 61 63  1  0  0  0  0
 61 72  1  0  0  0  0
 62 74  1  0  0  0  0
 64 65  1  0  0  0  0
M  CHG  1  74   1
M  ISO  4  38 100  53 101  73 100  81 101
M  END
> <Batch ID>
0029

> <Smiles>
CNC(C)C(=O)NC(C(=O)N1Cc2cc([101O:1][101CH:1]3CN(c4ccc(Cl)c(C[100NH:0][100C:0](=O)N5CCCC(n6nc(-c7ccc(Oc8ccc(F)cc8F)cc7)c(C(N)=O)c6N)C5)c4C)C3)ccc2CC1C(=O)NC1CCCc2ccccc21)C(C)(C)C

> <Shape>
0.133

> <Color>
0.178

> <Negative vol penalty>
0.000

$$$$

  -OEChem-04042321343D

 85 94  0     1  0  0  0  0  0999 V2000
  -26.5473  -26.8765   14.0529 C   0  0  0  0  0  0  0  0  0  0  0  0
  -25.7205  -26.5593   15.1259 C   0  0  0  0  0  0  0  0  0  0  0  0
  -23.9916   -9.7833   21.9788 C   0  0  0  0  0  0  0  0  0  0  0  0
  -22.1436  -10.6045   20.6569 C   0  0  0  0  0  0  0  0  0  0  0  0
  -27.7305  -27.5812   14.2706 C   0  0  0  0  0  0  0  0  0  0  0  0
  -26.0771  -26.9456   16.4174 C   0  0  0  0  0  0  0  0  0  0  0  0
  -22.1916  -28.9176   18.9979 C   0  0  0  0  0  0  0  0  0  0  0  0
  -22.4763  -22.3968   19.4458 C   0  0  0  0  0  0  0  0  0  0  0  0
  -23.4485   -8.4992   21.9404 C   0  0  0  0  0  0  0  0  0  0  0  0
  -21.6005   -9.3202   20.6185 C   0  0  0  0  0  0  0  0  0  0  0  0
  -21.2618  -28.0250   19.5294 C   0  0  0  0  0  0  0  0  0  0  0  0
  -20.9873   -6.7884   23.5025 C   0  0  0  0  0  0  0  0  0  0  0  0
  -20.9543   -6.0636   24.6937 C   0  0  0  0  0  0  0  0  0  0  0  0
  -23.1748  -21.3475   18.8485 C   0  0  0  0  0  0  0  0  0  0  0  0
  -22.3165  -28.2222   21.6899 C   0  0  0  0  0  0  0  0  0  0  0  0
  -22.4449  -21.1860   21.5363 C   0  0  0  0  0  0  0  0  0  0  0  0
  -22.3277   -4.3489   23.6885 C   0  0  0  0  0  0  0  0  0  0  0  0
  -23.3391  -10.8360   21.3371 C   0  0  0  0  0  0  0  0  0  0  0  0
  -24.8060  -12.7307   20.4618 C   0  0  0  0  0  0  0  0  0  0  0  0
  -28.0970  -27.9848   15.5642 C   0  0  0  0  0  0  0  0  0  0  0  0
  -23.1992  -29.4617   19.8073 C   0  0  0  0  0  0  0  0  0  0  0  0
  -27.2670  -27.6552   16.6527 C   0  0  0  0  0  0  0  0  0  0  0  0
  -23.2563  -29.1234   21.1669 C   0  0  0  0  0  0  0  0  0  0  0  0
  -22.1114  -22.3161   20.7897 C   0  0  0  0  0  0  0  0  0  0  0  0
  -23.1435  -20.1367   20.9390 C   0  0  0  0  0  0  0  0  0  0  0  0
  -22.2530   -8.2676   21.2602 C   0  0  0  0  0  0  0  0  0  0  0  0
  -21.3259  -27.6749   20.8749 C   0  0  0  0  0  0  0  0  0  0  0  0
  -21.6904   -6.2934   22.4041 C   0  0  0  0  0  0  0  0  0  0  0  0
  -21.6245   -4.8439   24.7868 C   0  0  0  0  0  0  0  0  0  0  0  0
  -22.3607   -5.0737   22.4972 C   0  0  0  0  0  0  0  0  0  0  0  0
  -23.5084  -20.2175   19.5951 C   0  0  0  0  0  0  0  0  0  0  0  0
  -23.8993  -12.1629   21.3769 C   0  0  0  0  0  0  0  0  0  0  0  0
  -25.0268  -13.9994   20.9395 C   0  0  0  0  0  0  0  0  0  0  0  0
  -25.3957  -12.1622   19.2850 C   0  0  0  0  0  0  0  0  0  0  0  0
  -26.3761  -29.3557   19.8098 C   0  0  0  0  0  0  0  0  0  0  0  0
  -26.0574  -31.5067   22.2170 C   0  0  0  0  0  0  0  0  0  0  0  0
  -24.1125  -32.8075   24.7014 C   0  0  0  0  0  0  0  0  0  0  0  0
  -23.1645  -18.7944   23.0707 C   0  0  0  0  0  0  0  0  0  0  0  0
  -29.4090  -28.7035   15.7560 C   0  0  0  0  0  0  0  0  0  0  0  0
  -24.1783  -30.4437   19.2249 C   0  0  0  0  0  0  0  0  0  0  0  0
  -24.3062  -29.6953   22.0829 C   0  0  0  0  0  0  0  0  0  0  0  0
  -29.5286  -29.4025   17.1078 C   0  0  0  0  0  0  0  0  0  0  0  0
  -23.7525  -16.1255   25.3528 C   0  0  0  0  0  0  0  0  0  0  0  0
  -29.0798  -28.4730   18.2310 C   0  0  0  0  0  0  0  0  0  0  0  0
  -23.9177  -14.9033   24.4466 C   0  0  0  0  0  0  0  0  0  0  0  0
  -19.7913  -24.7213   22.4359 C   0  0  0  0  0  0  0  0  0  0  0  0
  -22.6959  -17.0900   24.8172 C   0  0  0  0  0  0  0  0  0  0  0  0
  -23.0517  -16.2854   22.5161 C   0  0  0  0  0  0  0  0  0  0  0  0
  -21.6110  -24.7385   20.9133 C   0  0  0  0  0  0  0  0  0  0  0  0
  -27.6073  -28.0785   18.0653 C   0  0  1  0  0  0  0  0  0  0  0  0
  -25.4751  -30.5392   20.0228 C   0  0  1  0  0  0  0  0  0  0  0  0
  -24.1515  -15.3166   22.9802 C   0  0  2  0  0  0  0  0  0  0  0  0
  -20.9260  -25.6084   21.9583 C   0  0  1  0  0  0  0  0  0  1  0  0
  -20.4163  -23.3025   22.4771 C   0  0  0  0  0  0  0  0  0  0  0  0
  -19.2938  -22.2900   22.2278 C   0  0  0  0  0  0  0  0  0  0  0  0
  -21.0902  -23.0864   23.8398 C   0  0  0  0  0  0  0  0  0  0  0  0
  -24.1385  -34.5306   26.5255 C   0  0  0  0  0  0  0  0  0  0  0  0
  -27.8157  -29.6798   23.9143 C   0  0  0  0  0  0  0  0  0  0  0  0
  -27.0349  -30.9264   25.9402 C   0  0  0  0  0  0  0  0  0  0  0  0
  -28.3067  -32.1200   24.1567 C   0  0  0  0  0  0  0  0  0  0  0  0
  -21.8435  -34.2806   23.5012 C   0  0  0  0  0  0  0  0  0  0  0  0
  -25.9176  -31.4189   23.7176 C   0  0  1  0  0  0  0  0  0  0  0  0
  -23.7820  -34.2410   25.0757 C   0  0  2  0  0  0  0  0  0  0  0  0
  -27.2500  -31.0238   24.4148 C   0  0  0  0  0  0  0  0  0  0  0  0
  -23.5672  -13.0020   22.3616 N   0  0  0  0  0  0  0  0  0  0  0  0
  -24.2689  -14.1099   22.0680 N   0  0  0  0  0  0  0  0  0  0  0  0
  -21.4180  -23.3583   21.3824 N   0  0  3  0  0  0  0  0  0  0  0  0
  -25.2448  -30.6465   21.4649 N   0  0  0  0  0  0  0  0  0  0  0  0
  -22.9847  -17.4405   23.4249 N   0  0  0  0  0  0  0  0  0  0  0  0
  -25.7936  -15.0199   20.5002 N   0  0  0  0  0  0  0  0  0  0  0  0
  -25.0599  -10.8463   18.9384 N   0  0  0  0  0  0  0  0  0  0  0  0
  -23.4667  -19.0032   21.7255 N   0  0  0  0  0  0  0  0  0  0  0  0
  -26.7435  -29.1582   18.4925 N   0  0  0  0  0  0  0  0  0  0  0  0
  -25.3728  -32.7005   24.1524 N   0  0  0  0  0  0  0  0  0  0  0  0
  -22.3270  -34.5031   24.8882 N   0  3  0  0  0  0  0  0  0  0  0  0
  -26.2093  -12.7965   18.5714 O   0  0  0  0  0  0  0  0  0  0  0  0
  -26.7141  -28.6733   20.7699 O   0  0  0  0  0  0  0  0  0  0  0  0
  -26.8529  -32.3139   21.7299 O   0  0  0  0  0  0  0  0  0  0  0  0
  -23.3321  -31.8752   24.8815 O   0  0  0  0  0  0  0  0  0  0  0  0
  -23.0852  -19.6996   23.9052 O   0  0  0  0  0  0  0  0  0  0  0  0
  -21.7228   -7.0146   21.2224 O   0  0  0  0  0  0  0  0  0  0  0  0
  -20.4199  -26.8035   21.3961 O   0  0  0  0  0  0  0  0  0  1  0  0
  -21.5941   -4.1487   25.9313 F   0  0  0  0  0  0  0  0  0  0  0  0
  -23.0389   -4.5936   21.4458 F   0  0  0  0  0  0  0  0  0  0  0  0
  -24.3739  -18.9416   18.8156 Cl  0  0  0  0  0  0  0  0  0  0  0  0
  1  2  1  0  0  0  0
  1  5  2  0  0  0  0
  2  6  2  0  0  0  0
  3  9  2  0  0  0  0
  3 18  1  0  0  0  0
  4 10  1  0  0  0  0
  4 18  2  0  0  0  0
  5 20  1  0  0  0  0
  6 22  1  0  0  0  0
  7 11  2  0  0  0  0
  7 21  1  0  0  0  0
  8 14  2  0  0  0  0
  8 24  1  0  0  0  0
  9 26  1  0  0  0  0
 10 26  2  0  0  0  0
 11 27  1  0  0  0  0
 12 13  2  0  0  0  0
 12 28  1  0  0  0  0
 13 29  1  0  0  0  0
 14 31  1  0  0  0  0
 15 23  1  0  0  0  0
 15 27  2  0  0  0  0
 16 24  2  0  0  0  0
 16 25  1  0  0  0  0
 17 29  2  0  0  0  0
 17 30  1  0  0  0  0
 18 32  1  0  0  0  0
 19 32  1  0  0  0  0
 19 33  2  0  0  0  0
 19 34  1  0  0  0  0
 20 22  2  0  0  0  0
 20 39  1  0  0  0  0
 21 23  2  0  0  0  0
 21 40  1  0  0  0  0
 22 50  1  0  0  0  0
 23 41  1  0  0  0  0
 24 67  1  0  0  0  0
 25 31  2  0  0  0  0
 25 72  1  0  0  0  0
 26 81  1  0  0  0  0
 27 82  1  0  0  0  0
 28 30  2  0  0  0  0
 28 81  1  0  0  0  0
 29 83  1  0  0  0  0
 30 84  1  0  0  0  0
 31 85  1  0  0  0  0
 32 65  2  0  0  0  0
 33 66  1  0  0  0  0
 33 70  1  0  0  0  0
 34 71  1  0  0  0  0
 34 76  2  0  0  0  0
 35 51  1  0  0  0  0
 35 73  1  0  0  0  0
 35 77  2  0  0  0  0
 36 62  1  0  0  0  0
 36 68  1  0  0  0  0
 36 78  2  0  0  0  0
 37 63  1  0  0  0  0
 37 74  1  0  0  0  0
 37 79  2  0  0  0  0
 38 69  1  0  0  0  0
 38 72  1  0  0  0  0
 38 80  2  0  0  0  0
 39 42  1  0  0  0  0
 40 51  1  0  0  0  0
 41 68  1  0  0  0  0
 42 44  1  0  0  0  0
 43 45  1  0  0  0  0
 43 47  1  0  0  0  0
 44 50  1  0  0  0  0
 45 52  1  0  0  0  0
 46 53  1  0  0  0  0
 46 54  1  0  0  0  0
 47 69  1  0  0  0  0
 48 52  1  0  0  0  0
 48 69  1  0  0  0  0
 49 53  1  0  0  0  0
 49 67  1  0  0  0  0
 50 73  1  0  0  0  0
 51 68  1  0  0  0  0
 52 66  1  0  0  0  0
 53 82  1  0  0  0  0
 54 55  1  0  0  0  0
 54 56  1  0  0  0  0
 54 67  1  0  0  0  0
 57 63  1  0  0  0  0
 58 64  1  0  0  0  0
 59 64  1  0  0  0  0
 60 64  1  0  0  0  0
 61 75  1  0  0  0  0
 62 64  1  0  0  0  0
 62 74  1  0  0  0  0
 63 75  1  0  0  0  0
 65 66  1  0  0  0  0
M  CHG  1  75   1
M  ISO  4  38 100  53 101  72 100  82 101
M  END
> <Batch ID>
0029

> <Smiles>
CNC(C)C(=O)NC(C(=O)N1Cc2cc([101O:1][101CH:1]3CN(c4ccc(Cl)c([100NH:0][100C:0](=O)N5CCCC(n6nc(-c7ccc(Oc8ccc(F)cc8F)cc7)c(C(N)=O)c6N)C5)c4)C(C)(C)C3)ccc2CC1C(=O)NC1CCCc2ccccc21)C(C)(C)C

> <Shape>
0.234

> <Color>
0.115

> <Negative vol penalty>
0.000

$$$$

  -OEChem-04042321343D

 83 92  0     1  0  0  0  0  0999 V2000
  -22.2896  -23.5417   19.6030 C   0  0  0  0  0  0  0  0  0  0  0  0
  -23.5052  -22.9123   19.8507 C   0  0  0  0  0  0  0  0  0  0  0  0
  -22.2863  -29.2374   21.5847 C   0  0  0  0  0  0  0  0  0  0  0  0
  -23.2212  -28.3880   23.6442 C   0  0  0  0  0  0  0  0  0  0  0  0
  -21.1014  -22.9569   20.0392 C   0  0  0  0  0  0  0  0  0  0  0  0
  -23.5335  -21.6981   20.5359 C   0  0  0  0  0  0  0  0  0  0  0  0
  -26.6305  -18.3217   18.3786 C   0  0  0  0  0  0  0  0  0  0  0  0
  -31.4104  -22.2467   23.9079 C   0  0  0  0  0  0  0  0  0  0  0  0
  -30.8444  -23.3513   24.5444 C   0  0  0  0  0  0  0  0  0  0  0  0
  -21.0061  -28.9075   22.0298 C   0  0  0  0  0  0  0  0  0  0  0  0
  -21.9410  -28.0581   24.0893 C   0  0  0  0  0  0  0  0  0  0  0  0
  -27.9973  -18.4743   18.6073 C   0  0  0  0  0  0  0  0  0  0  0  0
  -18.6929  -30.1918   24.1351 C   0  0  0  0  0  0  0  0  0  0  0  0
  -17.6824  -31.1375   23.9611 C   0  0  0  0  0  0  0  0  0  0  0  0
  -27.9007  -16.7542   20.2958 C   0  0  0  0  0  0  0  0  0  0  0  0
  -30.9511  -23.2498   21.7585 C   0  0  0  0  0  0  0  0  0  0  0  0
  -16.4475  -29.5676   22.6018 C   0  0  0  0  0  0  0  0  0  0  0  0
  -23.3938  -28.9776   22.3920 C   0  0  0  0  0  0  0  0  0  0  0  0
  -25.3968  -30.5347   22.1260 C   0  0  0  0  0  0  0  0  0  0  0  0
  -21.1144  -21.7302   20.7215 C   0  0  0  0  0  0  0  0  0  0  0  0
  -25.8851  -17.3903   19.1157 C   0  0  0  0  0  0  0  0  0  0  0  0
  -22.3445  -21.0970   20.9828 C   0  0  0  0  0  0  0  0  0  0  0  0
  -26.5250  -16.5899   20.0728 C   0  0  0  0  0  0  0  0  0  0  0  0
  -31.4638  -22.1960   22.5150 C   0  0  0  0  0  0  0  0  0  0  0  0
  -30.3317  -24.4051   23.7880 C   0  0  0  0  0  0  0  0  0  0  0  0
  -30.3851  -24.3544   22.3950 C   0  0  0  0  0  0  0  0  0  0  0  0
  -20.8335  -28.3179   23.2820 C   0  0  0  0  0  0  0  0  0  0  0  0
  -28.6320  -17.6926   19.5680 C   0  0  0  0  0  0  0  0  0  0  0  0
  -18.5808  -28.9341   23.5424 C   0  0  0  0  0  0  0  0  0  0  0  0
  -16.5597  -30.8254   23.1945 C   0  0  0  0  0  0  0  0  0  0  0  0
  -17.4580  -28.6220   22.7758 C   0  0  0  0  0  0  0  0  0  0  0  0
  -24.7165  -29.3176   21.9326 C   0  0  0  0  0  0  0  0  0  0  0  0
  -26.6075  -30.3542   21.5029 C   0  0  0  0  0  0  0  0  0  0  0  0
  -24.9724  -31.7224   22.8079 C   0  0  0  0  0  0  0  0  0  0  0  0
  -23.4363  -17.5703   21.1343 C   0  0  0  0  0  0  0  0  0  0  0  0
  -23.5723  -14.3331   20.9765 C   0  0  0  0  0  0  0  0  0  0  0  0
  -25.4286  -11.5384   20.3517 C   0  0  0  0  0  0  0  0  0  0  0  0
  -29.8540  -25.5051   20.2178 C   0  0  0  0  0  0  0  0  0  0  0  0
  -19.8082  -21.1603   21.2151 C   0  0  0  0  0  0  0  0  0  0  0  0
  -24.4167  -17.2190   18.8383 C   0  0  0  0  0  0  0  0  0  0  0  0
  -25.7739  -15.5614   20.8767 C   0  0  0  0  0  0  0  0  0  0  0  0
  -19.8952  -19.6870   21.6053 C   0  0  0  0  0  0  0  0  0  0  0  0
  -28.6452  -27.9315   17.9095 C   0  0  0  0  0  0  0  0  0  0  0  0
  -21.1281  -19.4350   22.4674 C   0  0  0  0  0  0  0  0  0  0  0  0
  -27.5667  -28.6771   18.6988 C   0  0  0  0  0  0  0  0  0  0  0  0
  -28.6664  -26.4416   18.2461 C   0  0  0  0  0  0  0  0  0  0  0  0
  -27.6917  -26.8755   20.4667 C   0  0  0  0  0  0  0  0  0  0  0  0
  -30.0448  -19.6705   21.5373 C   0  0  0  0  0  0  0  0  0  0  0  0
  -31.8402  -18.6325   21.2891 C   0  0  0  0  0  0  0  0  0  0  0  0
  -22.4143  -19.7669   21.7011 C   0  0  1  0  0  0  0  0  0  0  0  0
  -23.6559  -16.6010   20.0073 C   0  0  1  0  0  0  0  0  0  0  0  0
  -27.6749  -28.3911   20.2094 C   0  0  2  0  0  0  0  0  0  0  0  0
  -30.3663  -18.2248   21.1187 C   0  0  0  0  0  0  0  0  0  1  0  0
  -29.7304  -25.5753   24.4966 C   0  0  0  0  0  0  0  0  0  0  0  0
  -25.2762   -9.0336   20.3429 C   0  0  0  0  0  0  0  0  0  0  0  0
  -23.7212  -14.3158   24.0241 C   0  0  0  0  0  0  0  0  0  0  0  0
  -24.5114  -11.9432   23.9025 C   0  0  0  0  0  0  0  0  0  0  0  0
  -22.2497  -12.5485   23.0415 C   0  0  0  0  0  0  0  0  0  0  0  0
  -26.0433  -11.3953   17.4602 C   0  0  0  0  0  0  0  0  0  0  0  0
  -32.0729  -21.0075   21.8312 C   0  0  0  0  0  0  0  0  0  0  0  0
  -24.3004  -13.2551   21.7425 C   0  0  1  0  0  0  0  0  0  0  0  0
  -25.1404  -10.3035   19.5172 C   0  0  2  0  0  0  0  0  0  0  0  0
  -23.7098  -13.0363   23.1640 C   0  0  0  0  0  0  0  0  0  0  0  0
  -25.4351  -28.4294   21.2406 N   0  0  0  0  0  0  0  0  0  0  0  0
  -26.5796  -29.0892   20.9937 N   0  0  0  0  0  0  0  0  0  0  0  0
  -24.3387  -15.4358   20.5733 N   0  0  0  0  0  0  0  0  0  0  0  0
  -28.7748  -26.2476   19.6937 N   0  0  0  0  0  0  0  0  0  0  0  0
  -27.6824  -31.1556   21.3463 N   0  0  0  0  0  0  0  0  0  0  0  0
  -23.6985  -31.7384   23.3919 N   0  0  0  0  0  0  0  0  0  0  0  0
  -29.8703  -25.4153   21.6093 N   0  0  0  0  0  0  0  0  0  0  0  0
  -22.7369  -18.7055   20.7716 N   0  0  0  0  0  0  0  0  0  0  0  0
  -24.2774  -12.0668   20.8965 N   0  0  0  0  0  0  0  0  0  0  0  0
  -31.3837  -19.7383   22.1513 N   0  3  0  0  0  0  0  0  0  0  0  0
  -26.0873  -10.2213   18.3694 N   0  3  0  0  0  0  0  0  0  0  0  0
  -25.6949  -32.7451   22.8826 O   0  0  0  0  0  0  0  0  0  0  0  0
  -23.8680  -17.3069   22.2505 O   0  0  0  0  0  0  0  0  0  0  0  0
  -22.3695  -14.1984   20.7384 O   0  0  0  0  0  0  0  0  0  0  0  0
  -26.5621  -11.9871   20.5078 O   0  0  0  0  0  0  0  0  0  0  0  0
  -30.7165  -25.0101   19.4876 O   0  0  0  0  0  0  0  0  0  0  0  0
  -19.5845  -27.9961   23.7167 O   0  0  0  0  0  0  0  0  0  0  0  0
  -29.9659  -17.8399   19.7937 O   0  0  0  0  0  0  0  0  0  1  0  0
  -15.5887  -31.7330   23.0288 F   0  0  0  0  0  0  0  0  0  0  0  0
  -17.3441  -27.4150   22.2049 F   0  0  0  0  0  0  0  0  0  0  0  0
  1  2  1  0  0  0  0
  1  5  2  0  0  0  0
  2  6  2  0  0  0  0
  3 10  2  0  0  0  0
  3 18  1  0  0  0  0
  4 11  1  0  0  0  0
  4 18  2  0  0  0  0
  5 20  1  0  0  0  0
  6 22  1  0  0  0  0
  7 12  2  0  0  0  0
  7 21  1  0  0  0  0
  8  9  2  0  0  0  0
  8 24  1  0  0  0  0
  9 25  1  0  0  0  0
 10 27  1  0  0  0  0
 11 27  2  0  0  0  0
 12 28  1  0  0  0  0
 13 14  2  0  0  0  0
 13 29  1  0  0  0  0
 14 30  1  0  0  0  0
 15 23  1  0  0  0  0
 15 28  2  0  0  0  0
 16 24  2  0  0  0  0
 16 26  1  0  0  0  0
 17 30  2  0  0  0  0
 17 31  1  0  0  0  0
 18 32  1  0  0  0  0
 19 32  1  0  0  0  0
 19 33  2  0  0  0  0
 19 34  1  0  0  0  0
 20 22  2  0  0  0  0
 20 39  1  0  0  0  0
 21 23  2  0  0  0  0
 21 40  1  0  0  0  0
 22 50  1  0  0  0  0
 23 41  1  0  0  0  0
 24 60  1  0  0  0  0
 25 26  2  0  0  0  0
 25 54  1  0  0  0  0
 26 70  1  0  0  0  0
 27 80  1  0  0  0  0
 28 81  1  0  0  0  0
 29 31  2  0  0  0  0
 29 80  1  0  0  0  0
 30 82  1  0  0  0  0
 31 83  1  0  0  0  0
 32 64  2  0  0  0  0
 33 65  1  0  0  0  0
 33 68  1  0  0  0  0
 34 69  1  0  0  0  0
 34 75  2  0  0  0  0
 35 51  1  0  0  0  0
 35 71  1  0  0  0  0
 35 76  2  0  0  0  0
 36 61  1  0  0  0  0
 36 66  1  0  0  0  0
 36 77  2  0  0  0  0
 37 62  1  0  0  0  0
 37 72  1  0  0  0  0
 37 78  2  0  0  0  0
 38 67  1  0  0  0  0
 38 70  1  0  0  0  0
 38 79  2  0  0  0  0
 39 42  1  0  0  0  0
 40 51  1  0  0  0  0
 41 66  1  0  0  0  0
 42 44  1  0  0  0  0
 43 45  1  0  0  0  0
 43 46  1  0  0  0  0
 44 50  1  0  0  0  0
 45 52  1  0  0  0  0
 46 67  1  0  0  0  0
 47 52  1  0  0  0  0
 47 67  1  0  0  0  0
 48 53  1  0  0  0  0
 48 73  1  0  0  0  0
 49 53  1  0  0  0  0
 49 73  1  0  0  0  0
 50 71  1  0  0  0  0
 51 66  1  0  0  0  0
 52 65  1  0  0  0  0
 53 81  1  0  0  0  0
 55 62  1  0  0  0  0
 56 63  1  0  0  0  0
 57 63  1  0  0  0  0
 58 63  1  0  0  0  0
 59 74  1  0  0  0  0
 60 73  1  0  0  0  0
 61 63  1  0  0  0  0
 61 72  1  0  0  0  0
 62 74  1  0  0  0  0
 64 65  1  0  0  0  0
M  CHG  2  73   1  74   1
M  ISO  4  38 100  53 101  70 100  81 101
M  END
> <Batch ID>
0029

> <Smiles>
CNC(C)C(=O)NC(C(=O)N1Cc2cc([101O:1][101CH:1]3CN(Cc4ccc(C)c([100NH:0][100C:0](=O)N5CCCC(n6nc(-c7ccc(Oc8ccc(F)cc8F)cc7)c(C(N)=O)c6N)C5)c4)C3)ccc2CC1C(=O)NC1CCCc2ccccc21)C(C)(C)C

> <Shape>
0.239

> <Color>
0.078

> <Negative vol penalty>
0.000

$$$$

  -OEChem-04042321343D

 84 93  0     1  0  0  0  0  0999 V2000
  -20.8999  -16.3547   36.5608 C   0  0  0  0  0  0  0  0  0  0  0  0
  -21.8361  -16.9283   35.7064 C   0  0  0  0  0  0  0  0  0  0  0  0
  -23.0732   -9.8700   19.9419 C   0  0  0  0  0  0  0  0  0  0  0  0
  -23.8313   -9.8783   22.2359 C   0  0  0  0  0  0  0  0  0  0  0  0
  -20.2240  -15.1975   36.1764 C   0  0  0  0  0  0  0  0  0  0  0  0
  -22.0977  -16.3443   34.4675 C   0  0  0  0  0  0  0  0  0  0  0  0
  -23.4899  -19.2390   29.2533 C   0  0  0  0  0  0  0  0  0  0  0  0
  -32.6509  -17.4928   23.4555 C   0  0  0  0  0  0  0  0  0  0  0  0
  -32.0639  -16.6067   22.5523 C   0  0  0  0  0  0  0  0  0  0  0  0
  -22.3282   -8.7177   20.1923 C   0  0  0  0  0  0  0  0  0  0  0  0
  -23.0862   -8.7260   22.4863 C   0  0  0  0  0  0  0  0  0  0  0  0
  -24.7041  -19.4929   28.6167 C   0  0  0  0  0  0  0  0  0  0  0  0
  -19.3781   -7.9248   21.6419 C   0  0  0  0  0  0  0  0  0  0  0  0
  -18.0716   -7.8792   21.1557 C   0  0  0  0  0  0  0  0  0  0  0  0
  -24.3806  -17.5423   27.2348 C   0  0  0  0  0  0  0  0  0  0  0  0
  -29.8796  -17.4580   23.1367 C   0  0  0  0  0  0  0  0  0  0  0  0
  -18.6307   -5.9345   19.8356 C   0  0  0  0  0  0  0  0  0  0  0  0
  -23.8248  -10.4503   20.9637 C   0  0  0  0  0  0  0  0  0  0  0  0
  -24.1689  -12.9750   20.8417 C   0  0  0  0  0  0  0  0  0  0  0  0
  -20.4704  -14.6044   34.9281 C   0  0  0  0  0  0  0  0  0  0  0  0
  -22.7159  -18.1268   28.8922 C   0  0  0  0  0  0  0  0  0  0  0  0
  -21.4255  -15.1772   34.0666 C   0  0  0  0  0  0  0  0  0  0  0  0
  -23.1558  -17.2779   27.8665 C   0  0  0  0  0  0  0  0  0  0  0  0
  -31.8523  -18.3615   24.1994 C   0  0  0  0  0  0  0  0  0  0  0  0
  -30.4667  -18.3441   24.0399 C   0  0  0  0  0  0  0  0  0  0  0  0
  -30.6783  -16.5893   22.3928 C   0  0  0  0  0  0  0  0  0  0  0  0
  -22.3346   -8.1457   21.4645 C   0  0  0  0  0  0  0  0  0  0  0  0
  -25.1510  -18.6429   27.6093 C   0  0  0  0  0  0  0  0  0  0  0  0
  -20.3110   -6.9753   21.2250 C   0  0  0  0  0  0  0  0  0  0  0  0
  -17.6979   -6.8841   20.2525 C   0  0  0  0  0  0  0  0  0  0  0  0
  -19.9373   -5.9802   20.3218 C   0  0  0  0  0  0  0  0  0  0  0  0
  -24.5951  -11.6403   20.7056 C   0  0  0  0  0  0  0  0  0  0  0  0
  -25.2620  -13.7233   20.4787 C   0  0  0  0  0  0  0  0  0  0  0  0
  -22.8985  -13.4923   21.2592 C   0  0  0  0  0  0  0  0  0  0  0  0
  -21.6965  -15.5194   30.3975 C   0  0  0  0  0  0  0  0  0  0  0  0
  -20.0661  -15.0355   27.6352 C   0  0  0  0  0  0  0  0  0  0  0  0
  -19.8069  -15.6217   24.2832 C   0  0  0  0  0  0  0  0  0  0  0  0
  -30.7289  -14.7644   20.6569 C   0  0  0  0  0  0  0  0  0  0  0  0
  -19.7496  -13.3272   34.5762 C   0  0  0  0  0  0  0  0  0  0  0  0
  -21.3958  -17.8818   29.5701 C   0  0  0  0  0  0  0  0  0  0  0  0
  -22.3524  -16.0819   27.4277 C   0  0  0  0  0  0  0  0  0  0  0  0
  -19.8121  -12.9819   33.0906 C   0  0  0  0  0  0  0  0  0  0  0  0
  -29.6143  -12.3495   18.2898 C   0  0  0  0  0  0  0  0  0  0  0  0
  -21.2358  -13.1384   32.5656 C   0  0  0  0  0  0  0  0  0  0  0  0
  -28.1741  -12.0595   18.7185 C   0  0  0  0  0  0  0  0  0  0  0  0
  -28.1793  -17.5322   27.7752 C   0  0  0  0  0  0  0  0  0  0  0  0
  -30.5287  -12.5786   19.4920 C   0  0  0  0  0  0  0  0  0  0  0  0
  -28.6212  -13.3058   20.8711 C   0  0  0  0  0  0  0  0  0  0  0  0
  -28.8704  -17.4645   26.4283 C   0  0  0  0  0  0  0  0  0  0  0  0
  -28.5860  -19.8045   27.0940 C   0  0  0  0  0  0  0  0  0  0  0  0
  -21.7188  -14.5872   32.7043 C   0  0  1  0  0  0  0  0  0  0  0  0
  -20.9359  -16.4302   29.4758 C   0  0  1  0  0  0  0  0  0  0  0  0
  -27.6492  -13.1324   19.6926 C   0  0  2  0  0  0  0  0  0  0  0  0
  -27.5528  -18.9160   27.7690 C   0  0  1  0  0  0  0  0  0  1  0  0
  -32.5036  -19.3006   25.1608 C   0  0  0  0  0  0  0  0  0  0  0  0
  -18.3906  -15.0607   22.2890 C   0  0  0  0  0  0  0  0  0  0  0  0
  -21.3275  -12.2595   27.5234 C   0  0  0  0  0  0  0  0  0  0  0  0
  -20.6599  -12.1294   25.1139 C   0  0  0  0  0  0  0  0  0  0  0  0
  -18.9116  -12.3341   26.8815 C   0  0  0  0  0  0  0  0  0  0  0  0
  -19.1073  -18.4623   23.8354 C   0  0  0  0  0  0  0  0  0  0  0  0
  -29.5880  -19.2706   24.8276 C   0  0  0  0  0  0  0  0  0  0  0  0
  -20.3574  -14.3337   26.3308 C   0  0  1  0  0  0  0  0  0  0  0  0
  -18.6303  -16.0455   23.4228 C   0  0  2  0  0  0  0  0  0  0  0  0
  -20.3304  -12.7855   26.4718 C   0  0  0  0  0  0  0  0  0  0  0  0
  -25.8602  -11.5430   20.2884 N   0  0  0  0  0  0  0  0  0  0  0  0
  -26.2383  -12.8262   20.1592 N   0  0  0  0  0  0  0  0  0  0  0  0
  -21.0715  -15.8810   28.1251 N   0  0  0  0  0  0  0  0  0  0  0  0
  -29.9699  -13.6106   20.3680 N   0  0  0  0  0  0  0  0  0  0  0  0
  -25.4735  -15.0545   20.4047 N   0  0  0  0  0  0  0  0  0  0  0  0
  -21.8855  -12.5843   21.5965 N   0  0  0  0  0  0  0  0  0  0  0  0
  -30.0816  -15.6907   21.4739 N   0  0  0  0  0  0  0  0  0  0  0  0
  -21.1480  -15.4123   31.6613 N   0  0  0  0  0  0  0  0  0  0  0  0
  -19.4040  -14.8621   25.3612 N   0  0  0  0  0  0  0  0  0  0  0  0
  -29.4314  -18.8567   26.2556 N   0  3  2  0  0  0  0  0  0  0  0  0
  -18.8786  -17.3909   22.8320 N   0  3  0  0  0  0  0  0  0  0  0  0
  -22.6632  -14.7231   21.3153 O   0  0  0  0  0  0  0  0  0  0  0  0
  -22.7053  -14.9544   29.9917 O   0  0  0  0  0  0  0  0  0  0  0  0
  -18.9834  -14.8461   28.1952 O   0  0  0  0  0  0  0  0  0  0  0  0
  -20.9678  -15.9302   24.0229 O   0  0  0  0  0  0  0  0  0  0  0  0
  -31.8585  -14.9318   20.1900 O   0  0  0  0  0  0  0  0  0  0  0  0
  -21.6076   -7.0214   21.7092 O   0  0  0  0  0  0  0  0  0  0  0  0
  -26.3360  -18.8881   26.9868 O   0  0  0  0  0  0  0  0  0  1  0  0
  -16.4427   -6.8395   19.7868 F   0  0  0  0  0  0  0  0  0  0  0  0
  -20.8288   -5.0645   19.9185 F   0  0  0  0  0  0  0  0  0  0  0  0
  1  2  1  0  0  0  0
  1  5  2  0  0  0  0
  2  6  2  0  0  0  0
  3 10  2  0  0  0  0
  3 18  1  0  0  0  0
  4 11  1  0  0  0  0
  4 18  2  0  0  0  0
  5 20  1  0  0  0  0
  6 22  1  0  0  0  0
  7 12  2  0  0  0  0
  7 21  1  0  0  0  0
  8  9  2  0  0  0  0
  8 24  1  0  0  0  0
  9 26  1  0  0  0  0
 10 27  1  0  0  0  0
 11 27  2  0  0  0  0
 12 28  1  0  0  0  0
 13 14  2  0  0  0  0
 13 29  1  0  0  0  0
 14 30  1  0  0  0  0
 15 23  1  0  0  0  0
 15 28  2  0  0  0  0
 16 25  1  0  0  0  0
 16 26  2  0  0  0  0
 17 30  2  0  0  0  0
 17 31  1  0  0  0  0
 18 32  1  0  0  0  0
 19 32  1  0  0  0  0
 19 33  2  0  0  0  0
 19 34  1  0  0  0  0
 20 22  2  0  0  0  0
 20 39  1  0  0  0  0
 21 23  2  0  0  0  0
 21 40  1  0  0  0  0
 22 51  1  0  0  0  0
 23 41  1  0  0  0  0
 24 25  2  0  0  0  0
 24 55  1  0  0  0  0
 25 61  1  0  0  0  0
 26 71  1  0  0  0  0
 27 81  1  0  0  0  0
 28 82  1  0  0  0  0
 29 31  2  0  0  0  0
 29 81  1  0  0  0  0
 30 83  1  0  0  0  0
 31 84  1  0  0  0  0
 32 65  2  0  0  0  0
 33 66  1  0  0  0  0
 33 69  1  0  0  0  0
 34 70  1  0  0  0  0
 34 76  2  0  0  0  0
 35 52  1  0  0  0  0
 35 72  1  0  0  0  0
 35 77  2  0  0  0  0
 36 62  1  0  0  0  0
 36 67  1  0  0  0  0
 36 78  2  0  0  0  0
 37 63  1  0  0  0  0
 37 73  1  0  0  0  0
 37 79  2  0  0  0  0
 38 68  1  0  0  0  0
 38 71  1  0  0  0  0
 38 80  2  0  0  0  0
 39 42  1  0  0  0  0
 40 52  1  0  0  0  0
 41 67  1  0  0  0  0
 42 44  1  0  0  0  0
 43 45  1  0  0  0  0
 43 47  1  0  0  0  0
 44 51  1  0  0  0  0
 45 53  1  0  0  0  0
 46 49  1  0  0  0  0
 46 54  1  0  0  0  0
 47 68  1  0  0  0  0
 48 53  1  0  0  0  0
 48 68  1  0  0  0  0
 49 74  1  0  0  0  0
 50 54  1  0  0  0  0
 50 74  1  0  0  0  0
 51 72  1  0  0  0  0
 52 67  1  0  0  0  0
 53 66  1  0  0  0  0
 54 82  1  0  0  0  0
 56 63  1  0  0  0  0
 57 64  1  0  0  0  0
 58 64  1  0  0  0  0
 59 64  1  0  0  0  0
 60 75  1  0  0  0  0
 61 74  1  0  0  0  0
 62 64  1  0  0  0  0
 62 73  1  0  0  0  0
 63 75  1  0  0  0  0
 65 66  1  0  0  0  0
M  CHG  2  74   1  75   1
M  ISO  4  38 100  54 101  71 100  82 101
M  END
> <Batch ID>
0029

> <Smiles>
CNC(C)C(=O)NC(C(=O)N1Cc2cc([101O:1][101CH:1]3CCN(Cc4cc([100NH:0][100C:0](=O)N5CCCC(n6nc(-c7ccc(Oc8ccc(F)cc8F)cc7)c(C(N)=O)c6N)C5)ccc4C)C3)ccc2CC1C(=O)NC1CCCc2ccccc21)C(C)(C)C

> <Shape>
0.146

> <Color>
0.187

> <Negative vol penalty>
0.000

$$$$

  -OEChem-04042321343D

 81 89  0     1  0  0  0  0  0999 V2000
  -21.6892  -12.9312   19.0350 C   0  0  0  0  0  0  0  0  0  0  0  0
  -21.7042  -14.2439   19.4954 C   0  0  0  0  0  0  0  0  0  0  0  0
  -20.4118  -24.5400   24.9848 C   0  0  0  0  0  0  0  0  0  0  0  0
  -29.8538  -27.5670   20.5303 C   0  0  0  0  0  0  0  0  0  0  0  0
  -28.5791  -25.6682   21.3093 C   0  0  0  0  0  0  0  0  0  0  0  0
  -22.7896  -12.1039   19.2551 C   0  0  0  0  0  0  0  0  0  0  0  0
  -22.8194  -14.7297   20.1772 C   0  0  0  0  0  0  0  0  0  0  0  0
  -24.1972  -19.3437   18.6093 C   0  0  0  0  0  0  0  0  0  0  0  0
  -20.3862  -25.9288   24.8577 C   0  0  0  0  0  0  0  0  0  0  0  0
  -20.5813  -23.7393   23.8553 C   0  0  0  0  0  0  0  0  0  0  0  0
  -31.0003  -27.0419   21.1264 C   0  0  0  0  0  0  0  0  0  0  0  0
  -29.7256  -25.1431   21.9054 C   0  0  0  0  0  0  0  0  0  0  0  0
  -23.4501  -20.4242   19.0761 C   0  0  0  0  0  0  0  0  0  0  0  0
  -34.1853  -26.3783   22.7508 C   0  0  0  0  0  0  0  0  0  0  0  0
  -34.9934  -27.2477   23.4834 C   0  0  0  0  0  0  0  0  0  0  0  0
  -25.1513  -20.8807   20.7243 C   0  0  0  0  0  0  0  0  0  0  0  0
  -20.6993  -25.7162   22.4715 C   0  0  0  0  0  0  0  0  0  0  0  0
  -33.1423  -27.7229   24.9614 C   0  0  0  0  0  0  0  0  0  0  0  0
  -28.6431  -26.8801   20.6218 C   0  0  0  0  0  0  0  0  0  0  0  0
  -26.9997  -27.1921   18.6958 C   0  0  0  0  0  0  0  0  0  0  0  0
  -23.9228  -12.5827   19.9314 C   0  0  0  0  0  0  0  0  0  0  0  0
  -25.4239  -19.0163   19.2046 C   0  0  0  0  0  0  0  0  0  0  0  0
  -23.9355  -13.9076   20.4077 C   0  0  0  0  0  0  0  0  0  0  0  0
  -25.9133  -19.7971   20.2615 C   0  0  0  0  0  0  0  0  0  0  0  0
  -20.5299  -26.5169   23.6011 C   0  0  0  0  0  0  0  0  0  0  0  0
  -30.9362  -25.8299   21.8140 C   0  0  0  0  0  0  0  0  0  0  0  0
  -23.9257  -21.1912   20.1356 C   0  0  0  0  0  0  0  0  0  0  0  0
  -20.7250  -24.3274   22.5986 C   0  0  0  0  0  0  0  0  0  0  0  0
  -32.8556  -26.1812   23.1234 C   0  0  0  0  0  0  0  0  0  0  0  0
  -34.4719  -27.9200   24.5887 C   0  0  0  0  0  0  0  0  0  0  0  0
  -32.3341  -26.8535   24.2287 C   0  0  0  0  0  0  0  0  0  0  0  0
  -27.4583  -27.4223   20.0067 C   0  0  0  0  0  0  0  0  0  0  0  0
  -25.8440  -27.9284   18.6021 C   0  0  0  0  0  0  0  0  0  0  0  0
  -27.5675  -26.3848   17.6558 C   0  0  0  0  0  0  0  0  0  0  0  0
  -26.5593  -16.4857   20.7572 C   0  0  0  0  0  0  0  0  0  0  0  0
  -29.3433  -18.1459   20.6326 C   0  0  0  0  0  0  0  0  0  0  0  0
  -30.9044  -21.1677   20.3520 C   0  0  0  0  0  0  0  0  0  0  0  0
  -21.9134  -29.8834   22.6739 C   0  0  0  0  0  0  0  0  0  0  0  0
  -25.0693  -11.6367   20.1870 C   0  0  0  0  0  0  0  0  0  0  0  0
  -26.2305  -17.8639   18.6719 C   0  0  0  0  0  0  0  0  0  0  0  0
  -27.2339  -19.4997   20.9218 C   0  0  0  0  0  0  0  0  0  0  0  0
  -26.3622  -12.3414   20.5895 C   0  0  0  0  0  0  0  0  0  0  0  0
  -23.7564  -31.8600   20.3558 C   0  0  0  0  0  0  0  0  0  0  0  0
  -26.0857  -13.3956   21.6568 C   0  0  0  0  0  0  0  0  0  0  0  0
  -24.8728  -30.9260   19.8852 C   0  0  0  0  0  0  0  0  0  0  0  0
  -23.4314  -31.6513   21.8333 C   0  0  0  0  0  0  0  0  0  0  0  0
  -24.2392  -29.3249   21.7383 C   0  0  0  0  0  0  0  0  0  0  0  0
  -25.1367  -14.4786   21.1297 C   0  0  1  0  0  0  0  0  0  0  0  0
  -27.2226  -17.3082   19.6889 C   0  0  1  0  0  0  0  0  0  0  0  0
  -24.5638  -29.4592   20.2407 C   0  0  2  0  0  0  0  0  0  0  0  0
  -33.1867  -22.2105   20.3214 C   0  0  0  0  0  0  0  0  0  0  0  0
  -29.5374  -17.8039   23.6584 C   0  0  0  0  0  0  0  0  0  0  0  0
  -31.2587  -19.6218   23.6834 C   0  0  0  0  0  0  0  0  0  0  0  0
  -31.6980  -17.5078   22.4342 C   0  0  0  0  0  0  0  0  0  0  0  0
  -30.5122  -22.2240   17.6153 C   0  0  0  0  0  0  0  0  0  0  0  0
  -20.5020  -28.0018   23.4653 C   0  0  0  0  0  0  0  0  0  0  0  0
  -22.3456  -22.9688   19.6750 C   0  0  0  0  0  0  0  0  0  1  0  0
  -21.6531  -24.0924   20.4217 C   0  0  0  0  0  0  0  0  0  0  0  0
  -30.0217  -19.1635   21.5176 C   0  0  1  0  0  0  0  0  0  0  0  0
  -32.0606  -21.6272   19.4821 C   0  0  2  0  0  0  0  0  0  0  0  0
  -30.6031  -18.5290   22.8124 C   0  0  0  0  0  0  0  0  0  0  0  0
  -26.6593  -28.2409   20.6962 N   0  0  0  0  0  0  0  0  0  0  0  0
  -25.6870  -28.5316   19.8152 N   0  0  0  0  0  0  0  0  0  0  0  0
  -27.9827  -18.3588   20.3692 N   0  0  0  0  0  0  0  0  0  0  0  0
  -23.1465  -30.2400   22.1034 N   0  0  0  0  0  0  0  0  0  0  0  0
  -24.9571  -28.1123   17.6011 N   0  0  0  0  0  0  0  0  0  0  0  0
  -28.7584  -25.6949   17.9205 N   0  0  0  0  0  0  0  0  0  0  0  0
  -25.8498  -15.4028   20.2742 N   0  0  0  0  0  0  0  0  0  0  0  0
  -31.0133  -19.8336   20.6832 N   0  0  0  0  0  0  0  0  0  0  0  0
  -21.7218  -28.5245   22.8911 N   0  0  0  0  0  0  0  0  0  0  0  0
  -31.6028  -22.6695   18.5203 N   0  3  0  0  0  0  0  0  0  0  0  0
  -27.0434  -26.2915   16.5200 O   0  0  0  0  0  0  0  0  0  0  0  0
  -26.6834  -16.8087   21.9328 O   0  0  0  0  0  0  0  0  0  0  0  0
  -29.9982  -17.2011   20.1854 O   0  0  0  0  0  0  0  0  0  0  0  0
  -29.9975  -21.9181   20.7055 O   0  0  0  0  0  0  0  0  0  0  0  0
  -21.0454  -30.7140   22.9629 O   0  0  0  0  0  0  0  0  0  0  0  0
  -32.0549  -25.3172   22.3956 O   0  0  0  0  0  0  0  0  0  0  0  0
  -23.1982  -22.2461   20.5937 O   0  0  0  0  0  0  0  0  0  1  0  0
  -20.8921  -23.5409   21.4893 O   0  0  0  0  0  0  0  0  0  0  0  0
  -35.2485  -28.7537   25.2930 F   0  0  0  0  0  0  0  0  0  0  0  0
  -31.0578  -26.6674   24.5923 F   0  0  0  0  0  0  0  0  0  0  0  0
  1  2  1  0  0  0  0
  1  6  2  0  0  0  0
  2  7  2  0  0  0  0
  3  9  1  0  0  0  0
  3 10  2  0  0  0  0
  4 11  2  0  0  0  0
  4 19  1  0  0  0  0
  5 12  1  0  0  0  0
  5 19  2  0  0  0  0
  6 21  1  0  0  0  0
  7 23  1  0  0  0  0
  8 13  2  0  0  0  0
  8 22  1  0  0  0  0
  9 25  2  0  0  0  0
 10 28  1  0  0  0  0
 11 26  1  0  0  0  0
 12 26  2  0  0  0  0
 13 27  1  0  0  0  0
 14 15  2  0  0  0  0
 14 29  1  0  0  0  0
 15 30  1  0  0  0  0
 16 24  1  0  0  0  0
 16 27  2  0  0  0  0
 17 25  1  0  0  0  0
 17 28  2  0  0  0  0
 18 30  2  0  0  0  0
 18 31  1  0  0  0  0
 19 32  1  0  0  0  0
 20 32  1  0  0  0  0
 20 33  2  0  0  0  0
 20 34  1  0  0  0  0
 21 23  2  0  0  0  0
 21 39  1  0  0  0  0
 22 24  2  0  0  0  0
 22 40  1  0  0  0  0
 23 48  1  0  0  0  0
 24 41  1  0  0  0  0
 25 56  1  0  0  0  0
 26 77  1  0  0  0  0
 27 78  1  0  0  0  0
 28 79  1  0  0  0  0
 29 31  2  0  0  0  0
 29 77  1  0  0  0  0
 30 80  1  0  0  0  0
 31 81  1  0  0  0  0
 32 62  2  0  0  0  0
 33 63  1  0  0  0  0
 33 66  1  0  0  0  0
 34 67  1  0  0  0  0
 34 72  2  0  0  0  0
 35 49  1  0  0  0  0
 35 68  1  0  0  0  0
 35 73  2  0  0  0  0
 36 59  1  0  0  0  0
 36 64  1  0  0  0  0
 36 74  2  0  0  0  0
 37 60  1  0  0  0  0
 37 69  1  0  0  0  0
 37 75  2  0  0  0  0
 38 65  1  0  0  0  0
 38 70  1  0  0  0  0
 38 76  2  0  0  0  0
 39 42  1  0  0  0  0
 40 49  1  0  0  0  0
 41 64  1  0  0  0  0
 42 44  1  0  0  0  0
 43 45  1  0  0  0  0
 43 46  1  0  0  0  0
 44 48  1  0  0  0  0
 45 50  1  0  0  0  0
 46 65  1  0  0  0  0
 47 50  1  0  0  0  0
 47 65  1  0  0  0  0
 48 68  1  0  0  0  0
 49 64  1  0  0  0  0
 50 63  1  0  0  0  0
 51 60  1  0  0  0  0
 52 61  1  0  0  0  0
 53 61  1  0  0  0  0
 54 61  1  0  0  0  0
 55 71  1  0  0  0  0
 56 70  1  0  0  0  0
 57 58  1  0  0  0  0
 57 78  1  0  0  0  0
 58 79  1  0  0  0  0
 59 61  1  0  0  0  0
 59 69  1  0  0  0  0
 60 71  1  0  0  0  0
 62 63  1  0  0  0  0
M  CHG  1  71   1
M  ISO  4  38 100  57 101  70 100  78 101
M  END
> <Batch ID>
0029

> <Smiles>
CNC(C)C(=O)NC(C(=O)N1Cc2cc([101O:1][101CH2:1]COc3cccc(C[100NH:0][100C:0](=O)N4CCCC(n5nc(-c6ccc(Oc7ccc(F)cc7F)cc6)c(C(N)=O)c5N)C4)c3)ccc2CC1C(=O)NC1CCCc2ccccc21)C(C)(C)C

> <Shape>
0.209

> <Color>
0.071

> <Negative vol penalty>
0.000

$$$$

  -OEChem-04042321343D

 86 95  0     1  0  0  0  0  0999 V2000
  -16.5154  -29.4451   23.7530 C   0  0  0  0  0  0  0  0  0  0  0  0
  -16.9073  -29.1298   22.4559 C   0  0  0  0  0  0  0  0  0  0  0  0
  -22.6258  -11.7102   21.7652 C   0  0  0  0  0  0  0  0  0  0  0  0
  -24.2398  -10.1434   22.6468 C   0  0  0  0  0  0  0  0  0  0  0  0
  -17.4099  -30.0768   24.6161 C   0  0  0  0  0  0  0  0  0  0  0  0
  -18.1935  -29.4470   22.0208 C   0  0  0  0  0  0  0  0  0  0  0  0
  -23.7393  -24.8336   19.0227 C   0  0  0  0  0  0  0  0  0  0  0  0
  -21.7982  -11.4755   22.8632 C   0  0  0  0  0  0  0  0  0  0  0  0
  -23.4122   -9.9088   23.7449 C   0  0  0  0  0  0  0  0  0  0  0  0
  -24.8534  -24.0924   18.6286 C   0  0  0  0  0  0  0  0  0  0  0  0
  -20.6288   -8.1155   24.4284 C   0  0  0  0  0  0  0  0  0  0  0  0
  -20.4341   -6.7916   24.8220 C   0  0  0  0  0  0  0  0  0  0  0  0
  -26.3171  -25.7842   19.5471 C   0  0  0  0  0  0  0  0  0  0  0  0
  -30.1926  -19.6267   19.6923 C   0  0  0  0  0  0  0  0  0  0  0  0
  -21.3664   -7.2996   26.9922 C   0  0  0  0  0  0  0  0  0  0  0  0
  -23.8466  -11.0441   21.6570 C   0  0  0  0  0  0  0  0  0  0  0  0
  -24.3950  -11.0705   19.1658 C   0  0  0  0  0  0  0  0  0  0  0  0
  -18.7109  -30.3933   24.1944 C   0  0  0  0  0  0  0  0  0  0  0  0
  -23.9099  -26.0470   19.6951 C   0  0  0  0  0  0  0  0  0  0  0  0
  -19.1057  -30.0847   22.8786 C   0  0  0  0  0  0  0  0  0  0  0  0
  -25.2048  -26.5249   19.9554 C   0  0  0  0  0  0  0  0  0  0  0  0
  -27.9236  -18.1946   18.9286 C   0  0  0  0  0  0  0  0  0  0  0  0
  -29.1239  -20.2855   19.0843 C   0  0  0  0  0  0  0  0  0  0  0  0
  -28.9922  -17.5358   19.5365 C   0  0  0  0  0  0  0  0  0  0  0  0
  -22.1914  -10.5748   23.8530 C   0  0  0  0  0  0  0  0  0  0  0  0
  -26.1392  -24.5667   18.8899 C   0  0  0  0  0  0  0  0  0  0  0  0
  -21.1923   -9.0315   25.3167 C   0  0  0  0  0  0  0  0  0  0  0  0
  -20.8029   -6.3836   26.1039 C   0  0  0  0  0  0  0  0  0  0  0  0
  -21.5611   -8.6236   26.5986 C   0  0  0  0  0  0  0  0  0  0  0  0
  -30.1268  -18.2518   19.9184 C   0  0  0  0  0  0  0  0  0  0  0  0
  -27.9894  -19.5694   18.7025 C   0  0  0  0  0  0  0  0  0  0  0  0
  -24.7017  -11.2857   20.5227 C   0  0  0  0  0  0  0  0  0  0  0  0
  -25.5298  -11.4519   18.4925 C   0  0  0  0  0  0  0  0  0  0  0  0
  -23.1918  -10.5705   18.5673 C   0  0  0  0  0  0  0  0  0  0  0  0
  -22.2854  -29.0026   21.3386 C   0  0  0  0  0  0  0  0  0  0  0  0
  -24.6889  -28.2249   23.0789 C   0  0  0  0  0  0  0  0  0  0  0  0
  -27.1646  -26.7893   24.9356 C   0  0  0  0  0  0  0  0  0  0  0  0
  -29.9728  -15.2296   19.7938 C   0  0  0  0  0  0  0  0  0  0  0  0
  -19.6268  -31.1187   25.1480 C   0  0  0  0  0  0  0  0  0  0  0  0
  -22.7391  -26.9084   20.0836 C   0  0  0  0  0  0  0  0  0  0  0  0
  -25.3405  -27.8521   20.6505 C   0  0  0  0  0  0  0  0  0  0  0  0
  -21.0943  -31.0831   24.7289 C   0  0  0  0  0  0  0  0  0  0  0  0
  -30.2778  -11.7647   19.0332 C   0  0  0  0  0  0  0  0  0  0  0  0
  -29.9796  -23.4900   17.3988 C   0  0  0  0  0  0  0  0  0  0  0  0
  -21.2346  -31.4180   23.2474 C   0  0  0  0  0  0  0  0  0  0  0  0
  -28.8534  -11.2303   19.1994 C   0  0  0  0  0  0  0  0  0  0  0  0
  -29.5480  -24.5037   18.4531 C   0  0  0  0  0  0  0  0  0  0  0  0
  -30.3255  -22.1426   18.0258 C   0  0  0  0  0  0  0  0  0  0  0  0
  -30.6037  -12.8416   20.0665 C   0  0  0  0  0  0  0  0  0  0  0  0
  -28.2193  -13.4165   20.2973 C   0  0  0  0  0  0  0  0  0  0  0  0
  -28.7290  -22.5909   19.9015 C   0  0  0  0  0  0  0  0  0  0  0  0
  -20.5006  -30.3904   22.3775 C   0  0  1  0  0  0  0  0  0  0  0  0
  -22.9580  -27.6631   21.4071 C   0  0  1  0  0  0  0  0  0  0  0  0
  -27.8227  -12.3756   19.2377 C   0  0  2  0  0  0  0  0  0  0  0  0
  -28.4019  -23.9591   19.3000 C   0  0  2  0  0  0  0  0  0  1  0  0
  -26.7107  -17.4126   18.5235 C   0  0  0  0  0  0  0  0  0  0  0  0
  -28.4298  -27.0697   27.0845 C   0  0  0  0  0  0  0  0  0  0  0  0
  -26.3001  -30.4939   21.8300 C   0  0  0  0  0  0  0  0  0  0  0  0
  -28.0741  -30.0853   23.5488 C   0  0  0  0  0  0  0  0  0  0  0  0
  -25.7896  -30.7910   24.2601 C   0  0  0  0  0  0  0  0  0  0  0  0
  -26.2324  -24.1741   25.9606 C   0  0  0  0  0  0  0  0  0  0  0  0
  -26.1475  -28.4437   23.3919 C   0  0  1  0  0  0  0  0  0  0  0  0
  -27.2350  -26.4181   26.4058 C   0  0  2  0  0  0  0  0  0  0  0  0
  -26.5693  -29.9325   23.2404 C   0  0  0  0  0  0  0  0  0  0  0  0
  -25.9348  -11.7665   20.7027 N   0  0  0  0  0  0  0  0  0  0  0  0
  -26.4129  -11.8564   19.4499 N   0  0  0  0  0  0  0  0  0  0  0  0
  -29.2239  -21.6662   18.8721 N   0  0  2  0  0  0  0  0  0  0  0  0
  -24.3627  -27.9479   21.7457 N   0  0  0  0  0  0  0  0  0  0  0  0
  -29.5870  -13.8954   20.0425 N   0  0  0  0  0  0  0  0  0  0  0  0
  -25.8483  -11.4774   17.1809 N   0  0  0  0  0  0  0  0  0  0  0  0
  -22.1222  -10.2259   19.4049 N   0  0  0  0  0  0  0  0  0  0  0  0
  -28.9162  -16.1390   19.7625 N   0  0  0  0  0  0  0  0  0  0  0  0
  -21.2773  -29.1742   22.2680 N   0  0  0  0  0  0  0  0  0  0  0  0
  -26.3659  -27.8934   24.7252 N   0  0  0  0  0  0  0  0  0  0  0  0
  -27.3539  -24.9408   26.5619 N   0  3  0  0  0  0  0  0  0  0  0  0
  -23.0747  -10.4180   17.3277 O   0  0  0  0  0  0  0  0  0  0  0  0
  -22.6541  -29.8219   20.5051 O   0  0  0  0  0  0  0  0  0  0  0  0
  -23.8586  -28.3025   23.9887 O   0  0  0  0  0  0  0  0  0  0  0  0
  -27.7617  -26.1647   24.0615 O   0  0  0  0  0  0  0  0  0  0  0  0
  -31.1505  -15.5381   19.5943 O   0  0  0  0  0  0  0  0  0  0  0  0
  -21.3842  -10.3457   24.9247 O   0  0  0  0  0  0  0  0  0  0  0  0
  -27.2225  -23.8358   18.5064 O   0  0  0  0  0  0  0  0  0  1  0  0
  -20.6145   -5.1126   26.4822 F   0  0  0  0  0  0  0  0  0  0  0  0
  -22.1019   -9.4993   27.4567 F   0  0  0  0  0  0  0  0  0  0  0  0
  -31.4753  -17.4789   20.6742 Cl  0  0  0  0  0  0  0  0  0  0  0  0
  -26.6604  -20.3877   17.9463 Cl  0  0  0  0  0  0  0  0  0  0  0  0
  1  2  1  0  0  0  0
  1  5  2  0  0  0  0
  2  6  2  0  0  0  0
  3  8  2  0  0  0  0
  3 16  1  0  0  0  0
  4  9  1  0  0  0  0
  4 16  2  0  0  0  0
  5 18  1  0  0  0  0
  6 20  1  0  0  0  0
  7 10  2  0  0  0  0
  7 19  1  0  0  0  0
  8 25  1  0  0  0  0
  9 25  2  0  0  0  0
 10 26  1  0  0  0  0
 11 12  2  0  0  0  0
 11 27  1  0  0  0  0
 12 28  1  0  0  0  0
 13 21  1  0  0  0  0
 13 26  2  0  0  0  0
 14 23  1  0  0  0  0
 14 30  2  0  0  0  0
 15 28  2  0  0  0  0
 15 29  1  0  0  0  0
 16 32  1  0  0  0  0
 17 32  1  0  0  0  0
 17 33  2  0  0  0  0
 17 34  1  0  0  0  0
 18 20  2  0  0  0  0
 18 39  1  0  0  0  0
 19 21  2  0  0  0  0
 19 40  1  0  0  0  0
 20 52  1  0  0  0  0
 21 41  1  0  0  0  0
 22 24  2  0  0  0  0
 22 31  1  0  0  0  0
 22 56  1  0  0  0  0
 23 31  2  0  0  0  0
 23 67  1  0  0  0  0
 24 30  1  0  0  0  0
 24 72  1  0  0  0  0
 25 81  1  0  0  0  0
 26 82  1  0  0  0  0
 27 29  2  0  0  0  0
 27 81  1  0  0  0  0
 28 83  1  0  0  0  0
 29 84  1  0  0  0  0
 30 85  1  0  0  0  0
 31 86  1  0  0  0  0
 32 65  2  0  0  0  0
 33 66  1  0  0  0  0
 33 70  1  0  0  0  0
 34 71  1  0  0  0  0
 34 76  2  0  0  0  0
 35 53  1  0  0  0  0
 35 73  1  0  0  0  0
 35 77  2  0  0  0  0
 36 62  1  0  0  0  0
 36 68  1  0  0  0  0
 36 78  2  0  0  0  0
 37 63  1  0  0  0  0
 37 74  1  0  0  0  0
 37 79  2  0  0  0  0
 38 69  1  0  0  0  0
 38 72  1  0  0  0  0
 38 80  2  0  0  0  0
 39 42  1  0  0  0  0
 40 53  1  0  0  0  0
 41 68  1  0  0  0  0
 42 45  1  0  0  0  0
 43 46  1  0  0  0  0
 43 49  1  0  0  0  0
 44 47  1  0  0  0  0
 44 48  1  0  0  0  0
 45 52  1  0  0  0  0
 46 54  1  0  0  0  0
 47 55  1  0  0  0  0
 48 67  1  0  0  0  0
 49 69  1  0  0  0  0
 50 54  1  0  0  0  0
 50 69  1  0  0  0  0
 51 55  1  0  0  0  0
 51 67  1  0  0  0  0
 52 73  1  0  0  0  0
 53 68  1  0  0  0  0
 54 66  1  0  0  0  0
 55 82  1  0  0  0  0
 57 63  1  0  0  0  0
 58 64  1  0  0  0  0
 59 64  1  0  0  0  0
 60 64  1  0  0  0  0
 61 75  1  0  0  0  0
 62 64  1  0  0  0  0
 62 74  1  0  0  0  0
 63 75  1  0  0  0  0
 65 66  1  0  0  0  0
M  CHG  1  75   1
M  ISO  4  38 100  55 101  72 100  82 101
M  END
> <Batch ID>
0029

> <Smiles>
CNC(C)C(=O)NC(C(=O)N1Cc2cc([101O:1][101CH:1]3CCCN(c4cc(Cl)c([100NH:0][100C:0](=O)N5CCCC(n6nc(-c7ccc(Oc8ccc(F)cc8F)cc7)c(C(N)=O)c6N)C5)c(C)c4Cl)C3)ccc2CC1C(=O)NC1CCCc2ccccc21)C(C)(C)C

> <Shape>
0.274

> <Color>
0.089

> <Negative vol penalty>
0.000

$$$$

  -OEChem-04042321343D

 85 94  0     1  0  0  0  0  0999 V2000
  -25.7274  -18.7937   24.1432 C   0  0  0  0  0  0  0  0  0  0  0  0
  -26.1096  -19.7937   23.2548 C   0  0  0  0  0  0  0  0  0  0  0  0
  -26.4114  -11.5262   21.2099 C   0  0  0  0  0  0  0  0  0  0  0  0
  -25.5264  -13.2766   19.7994 C   0  0  0  0  0  0  0  0  0  0  0  0
  -24.4005  -18.7044   24.5617 C   0  0  0  0  0  0  0  0  0  0  0  0
  -25.1647  -20.7044   22.7834 C   0  0  0  0  0  0  0  0  0  0  0  0
  -26.8608  -25.4755   22.8552 C   0  0  0  0  0  0  0  0  0  0  0  0
  -26.8427  -22.0924   16.5492 C   0  0  0  0  0  0  0  0  0  0  0  0
  -25.1186  -11.0527   21.4336 C   0  0  0  0  0  0  0  0  0  0  0  0
  -24.2335  -12.8032   20.0230 C   0  0  0  0  0  0  0  0  0  0  0  0
  -27.7287  -25.8582   21.8334 C   0  0  0  0  0  0  0  0  0  0  0  0
  -22.8295   -9.1868   19.7870 C   0  0  0  0  0  0  0  0  0  0  0  0
  -22.6198   -7.8104   19.7037 C   0  0  0  0  0  0  0  0  0  0  0  0
  -26.0410  -21.0555   17.0264 C   0  0  0  0  0  0  0  0  0  0  0  0
  -25.8942  -26.9187   20.6805 C   0  0  0  0  0  0  0  0  0  0  0  0
  -28.6280  -21.3874   18.0163 C   0  0  0  0  0  0  0  0  0  0  0  0
  -21.8709   -7.7854   22.0005 C   0  0  0  0  0  0  0  0  0  0  0  0
  -26.6153  -12.6382   20.3928 C   0  0  0  0  0  0  0  0  0  0  0  0
  -29.0241  -12.4279   19.5798 C   0  0  0  0  0  0  0  0  0  0  0  0
  -23.4408  -19.6205   24.1028 C   0  0  0  0  0  0  0  0  0  0  0  0
  -25.4987  -25.8027   22.7919 C   0  0  0  0  0  0  0  0  0  0  0  0
  -23.8234  -20.6266   23.1951 C   0  0  0  0  0  0  0  0  0  0  0  0
  -25.0116  -26.5413   21.7040 C   0  0  0  0  0  0  0  0  0  0  0  0
  -28.1363  -22.2583   17.0441 C   0  0  0  0  0  0  0  0  0  0  0  0
  -27.8263  -20.3505   18.4936 C   0  0  0  0  0  0  0  0  0  0  0  0
  -24.0297  -11.6912   20.8402 C   0  0  0  0  0  0  0  0  0  0  0  0
  -27.2450  -26.5774   20.7445 C   0  0  0  0  0  0  0  0  0  0  0  0
  -22.5600   -9.8626   20.9771 C   0  0  0  0  0  0  0  0  0  0  0  0
  -22.1405   -7.1097   20.8104 C   0  0  0  0  0  0  0  0  0  0  0  0
  -22.0807   -9.1619   22.0839 C   0  0  0  0  0  0  0  0  0  0  0  0
  -26.5328  -20.1846   17.9987 C   0  0  0  0  0  0  0  0  0  0  0  0
  -27.9505  -13.1281   20.1618 C   0  0  0  0  0  0  0  0  0  0  0  0
  -30.0636  -13.3255   19.5868 C   0  0  0  0  0  0  0  0  0  0  0  0
  -29.0770  -11.0860   19.0776 C   0  0  0  0  0  0  0  0  0  0  0  0
  -22.7948  -24.1361   22.6681 C   0  0  0  0  0  0  0  0  0  0  0  0
  -21.4322  -27.0668   22.9450 C   0  0  0  0  0  0  0  0  0  0  0  0
  -21.9867  -30.3668   21.5957 C   0  0  0  0  0  0  0  0  0  0  0  0
  -29.6240  -19.5305   20.0671 C   0  0  0  0  0  0  0  0  0  0  0  0
  -22.0089  -19.4551   24.5464 C   0  0  0  0  0  0  0  0  0  0  0  0
  -24.5806  -25.4057   23.9152 C   0  0  0  0  0  0  0  0  0  0  0  0
  -23.5617  -26.9351   21.5984 C   0  0  0  0  0  0  0  0  0  0  0  0
  -21.1460  -20.6883   24.2916 C   0  0  0  0  0  0  0  0  0  0  0  0
  -31.4469  -17.1480   22.2258 C   0  0  0  0  0  0  0  0  0  0  0  0
  -28.2303  -27.0828   16.0012 C   0  0  0  0  0  0  0  0  0  0  0  0
  -21.3745  -21.2172   22.8792 C   0  0  0  0  0  0  0  0  0  0  0  0
  -31.0537  -15.7514   21.7419 C   0  0  0  0  0  0  0  0  0  0  0  0
  -28.3321  -27.5607   17.4437 C   0  0  0  0  0  0  0  0  0  0  0  0
  -31.4314  -18.1866   21.1126 C   0  0  0  0  0  0  0  0  0  0  0  0
  -29.3990  -16.9954   20.2632 C   0  0  0  0  0  0  0  0  0  0  0  0
  -28.9474  -25.7560   15.7964 C   0  0  0  0  0  0  0  0  0  0  0  0
  -28.5607  -25.1669   18.2033 C   0  0  0  0  0  0  0  0  0  0  0  0
  -22.8327  -21.6483   22.6808 C   0  0  1  0  0  0  0  0  0  0  0  0
  -23.1147  -25.3480   23.4968 C   0  0  1  0  0  0  0  0  0  0  0  0
  -30.3114  -15.7660   20.3952 C   0  0  2  0  0  0  0  0  0  0  0  0
  -27.8451  -26.4939   18.4193 C   0  0  1  0  0  0  0  0  0  1  0  0
  -21.4336  -32.6273   22.5345 C   0  0  0  0  0  0  0  0  0  0  0  0
  -18.8709  -26.7994   21.3085 C   0  0  0  0  0  0  0  0  0  0  0  0
  -19.0408  -29.2392   20.7732 C   0  0  0  0  0  0  0  0  0  0  0  0
  -18.7661  -28.4995   23.1396 C   0  0  0  0  0  0  0  0  0  0  0  0
  -24.7908  -31.2817   21.3534 C   0  0  0  0  0  0  0  0  0  0  0  0
  -28.9984  -23.3735   16.5302 C   0  0  0  0  0  0  0  0  0  0  0  0
  -20.9798  -28.1314   21.9750 C   0  0  1  0  0  0  0  0  0  0  0  0
  -22.5167  -31.5770   22.3434 C   0  0  2  0  0  0  0  0  0  0  0  0
  -19.4358  -28.1497   21.7928 C   0  0  0  0  0  0  0  0  0  0  0  0
  -28.2778  -14.3745   20.5132 N   0  0  0  0  0  0  0  0  0  0  0  0
  -29.5689  -14.4644   20.1509 N   0  0  0  0  0  0  0  0  0  0  0  0
  -22.7025  -26.5181   22.7189 N   0  0  0  0  0  0  0  0  0  0  0  0
  -30.1166  -18.2651   20.4694 N   0  0  0  0  0  0  0  0  0  0  0  0
  -31.3436  -13.2439   19.1654 N   0  0  0  0  0  0  0  0  0  0  0  0
  -28.7611  -10.8638   17.7303 N   0  0  0  0  0  0  0  0  0  0  0  0
  -28.3560  -19.4843   19.4822 N   0  0  0  0  0  0  0  0  0  0  0  0
  -23.0672  -22.9364   23.2974 N   0  0  0  0  0  0  0  0  0  0  0  0
  -21.5393  -29.3889   22.4588 N   0  0  0  0  0  0  0  0  0  0  0  0
  -28.4046  -24.7347   16.7675 N   0  3  2  0  0  0  0  0  0  0  0  0
  -23.6449  -32.1966   21.5923 N   0  3  0  0  0  0  0  0  0  0  0  0
  -29.3791  -10.1106   19.8062 O   0  0  0  0  0  0  0  0  0  0  0  0
  -22.3335  -24.2789   21.5419 O   0  0  0  0  0  0  0  0  0  0  0  0
  -20.6889  -26.7394   23.8734 O   0  0  0  0  0  0  0  0  0  0  0  0
  -21.9678  -30.2974   20.3688 O   0  0  0  0  0  0  0  0  0  0  0  0
  -30.2724  -20.5640   20.2445 O   0  0  0  0  0  0  0  0  0  0  0  0
  -22.7680  -11.2293   21.0580 O   0  0  0  0  0  0  0  0  0  0  0  0
  -28.0898  -26.9516   19.7455 O   0  0  0  0  0  0  0  0  0  1  0  0
  -21.9377   -5.7881   20.7298 F   0  0  0  0  0  0  0  0  0  0  0  0
  -21.8188   -9.8059   23.2295 F   0  0  0  0  0  0  0  0  0  0  0  0
  -25.5058  -18.9145   18.5618 Cl  0  0  0  0  0  0  0  0  0  0  0  0
  1  2  1  0  0  0  0
  1  5  2  0  0  0  0
  2  6  2  0  0  0  0
  3  9  2  0  0  0  0
  3 18  1  0  0  0  0
  4 10  1  0  0  0  0
  4 18  2  0  0  0  0
  5 20  1  0  0  0  0
  6 22  1  0  0  0  0
  7 11  2  0  0  0  0
  7 21  1  0  0  0  0
  8 14  2  0  0  0  0
  8 24  1  0  0  0  0
  9 26  1  0  0  0  0
 10 26  2  0  0  0  0
 11 27  1  0  0  0  0
 12 13  2  0  0  0  0
 12 28  1  0  0  0  0
 13 29  1  0  0  0  0
 14 31  1  0  0  0  0
 15 23  1  0  0  0  0
 15 27  2  0  0  0  0
 16 24  2  0  0  0  0
 16 25  1  0  0  0  0
 17 29  2  0  0  0  0
 17 30  1  0  0  0  0
 18 32  1  0  0  0  0
 19 32  1  0  0  0  0
 19 33  2  0  0  0  0
 19 34  1  0  0  0  0
 20 22  2  0  0  0  0
 20 39  1  0  0  0  0
 21 23  2  0  0  0  0
 21 40  1  0  0  0  0
 22 52  1  0  0  0  0
 23 41  1  0  0  0  0
 24 61  1  0  0  0  0
 25 31  2  0  0  0  0
 25 71  1  0  0  0  0
 26 81  1  0  0  0  0
 27 82  1  0  0  0  0
 28 30  2  0  0  0  0
 28 81  1  0  0  0  0
 29 83  1  0  0  0  0
 30 84  1  0  0  0  0
 31 85  1  0  0  0  0
 32 65  2  0  0  0  0
 33 66  1  0  0  0  0
 33 69  1  0  0  0  0
 34 70  1  0  0  0  0
 34 76  2  0  0  0  0
 35 53  1  0  0  0  0
 35 72  1  0  0  0  0
 35 77  2  0  0  0  0
 36 62  1  0  0  0  0
 36 67  1  0  0  0  0
 36 78  2  0  0  0  0
 37 63  1  0  0  0  0
 37 73  1  0  0  0  0
 37 79  2  0  0  0  0
 38 68  1  0  0  0  0
 38 71  1  0  0  0  0
 38 80  2  0  0  0  0
 39 42  1  0  0  0  0
 40 53  1  0  0  0  0
 41 67  1  0  0  0  0
 42 45  1  0  0  0  0
 43 46  1  0  0  0  0
 43 48  1  0  0  0  0
 44 47  1  0  0  0  0
 44 50  1  0  0  0  0
 45 52  1  0  0  0  0
 46 54  1  0  0  0  0
 47 55  1  0  0  0  0
 48 68  1  0  0  0  0
 49 54  1  0  0  0  0
 49 68  1  0  0  0  0
 50 74  1  0  0  0  0
 51 55  1  0  0  0  0
 51 74  1  0  0  0  0
 52 72  1  0  0  0  0
 53 67  1  0  0  0  0
 54 66  1  0  0  0  0
 55 82  1  0  0  0  0
 56 63  1  0  0  0  0
 57 64  1  0  0  0  0
 58 64  1  0  0  0  0
 59 64  1  0  0  0  0
 60 75  1  0  0  0  0
 61 74  1  0  0  0  0
 62 64  1  0  0  0  0
 62 73  1  0  0  0  0
 63 75  1  0  0  0  0
 65 66  1  0  0  0  0
M  CHG  2  74   1  75   1
M  ISO  4  38 100  55 101  71 100  82 101
M  END
> <Batch ID>
0029

> <Smiles>
CNC(C)C(=O)NC(C(=O)N1Cc2cc([101O:1][101CH:1]3CCCN(Cc4ccc(Cl)c([100NH:0][100C:0](=O)N5CCCC(n6nc(-c7ccc(Oc8ccc(F)cc8F)cc7)c(C(N)=O)c6N)C5)c4)C3)ccc2CC1C(=O)NC1CCCc2ccccc21)C(C)(C)C

> <Shape>
0.255

> <Color>
0.070

> <Negative vol penalty>
0.000

$$$$

  -OEChem-04042321343D

 82 91  0     1  0  0  0  0  0999 V2000
  -18.5711  -27.2251   23.0374 C   0  0  0  0  0  0  0  0  0  0  0  0
  -19.3226  -26.3447   22.2657 C   0  0  0  0  0  0  0  0  0  0  0  0
  -23.1834  -10.6944   17.8259 C   0  0  0  0  0  0  0  0  0  0  0  0
  -22.9779   -9.7352   20.0339 C   0  0  0  0  0  0  0  0  0  0  0  0
  -18.9170  -28.5747   23.0893 C   0  0  0  0  0  0  0  0  0  0  0  0
  -20.4199  -26.8138   21.5444 C   0  0  0  0  0  0  0  0  0  0  0  0
  -24.4654  -23.7993   21.9830 C   0  0  0  0  0  0  0  0  0  0  0  0
  -22.3364   -9.7089   17.3190 C   0  0  0  0  0  0  0  0  0  0  0  0
  -22.1308   -8.7498   19.5269 C   0  0  0  0  0  0  0  0  0  0  0  0
  -24.4742  -22.6308   21.2225 C   0  0  0  0  0  0  0  0  0  0  0  0
  -22.4267   -5.8539   17.8072 C   0  0  0  0  0  0  0  0  0  0  0  0
  -22.6499   -4.5374   18.2104 C   0  0  0  0  0  0  0  0  0  0  0  0
  -29.6372  -16.4838   17.9125 C   0  0  0  0  0  0  0  0  0  0  0  0
  -25.9084  -23.7013   19.6051 C   0  0  0  0  0  0  0  0  0  0  0  0
  -28.5546  -17.9975   19.9907 C   0  0  0  0  0  0  0  0  0  0  0  0
  -20.4270   -4.4492   19.1528 C   0  0  0  0  0  0  0  0  0  0  0  0
  -23.5042  -10.7075   19.1834 C   0  0  0  0  0  0  0  0  0  0  0  0
  -29.7817  -16.0592   19.2332 C   0  0  0  0  0  0  0  0  0  0  0  0
  -24.0099  -12.9830   20.2198 C   0  0  0  0  0  0  0  0  0  0  0  0
  -20.0249  -29.0588   22.3759 C   0  0  0  0  0  0  0  0  0  0  0  0
  -25.1704  -24.9330   21.5540 C   0  0  0  0  0  0  0  0  0  0  0  0
  -20.7802  -28.1714   21.5857 C   0  0  0  0  0  0  0  0  0  0  0  0
  -25.9091  -24.8822   20.3632 C   0  0  0  0  0  0  0  0  0  0  0  0
  -28.9514  -17.6653   17.6308 C   0  0  0  0  0  0  0  0  0  0  0  0
  -28.4102  -18.4222   18.6699 C   0  0  0  0  0  0  0  0  0  0  0  0
  -21.8101   -8.7366   18.1695 C   0  0  0  0  0  0  0  0  0  0  0  0
  -25.1934  -22.5826   20.0320 C   0  0  0  0  0  0  0  0  0  0  0  0
  -21.2037   -6.4681   18.0769 C   0  0  0  0  0  0  0  0  0  0  0  0
  -21.6500   -3.8350   18.8832 C   0  0  0  0  0  0  0  0  0  0  0  0
  -20.2038   -5.7658   18.7496 C   0  0  0  0  0  0  0  0  0  0  0  0
  -29.2404  -16.8160   20.2724 C   0  0  0  0  0  0  0  0  0  0  0  0
  -24.3795  -11.7249   19.7075 C   0  0  0  0  0  0  0  0  0  0  0  0
  -25.1978  -13.5675   20.5852 C   0  0  0  0  0  0  0  0  0  0  0  0
  -30.5127  -14.8097   19.4809 C   0  0  0  0  0  0  0  0  0  0  0  0
  -22.7089  -13.5706   20.3536 C   0  0  0  0  0  0  0  0  0  0  0  0
  -24.3678  -27.9001   20.7439 C   0  0  0  0  0  0  0  0  0  0  0  0
  -27.5818  -28.3137   20.5979 C   0  0  0  0  0  0  0  0  0  0  0  0
  -30.6680  -26.9127   20.1985 C   0  0  0  0  0  0  0  0  0  0  0  0
  -20.3318  -30.5346   22.4254 C   0  0  0  0  0  0  0  0  0  0  0  0
  -25.1726  -26.1772   22.3992 C   0  0  0  0  0  0  0  0  0  0  0  0
  -26.6991  -26.0654   19.8689 C   0  0  0  0  0  0  0  0  0  0  0  0
  -21.7329  -30.8824   21.9291 C   0  0  0  0  0  0  0  0  0  0  0  0
  -29.8546  -11.6324   20.9686 C   0  0  0  0  0  0  0  0  0  0  0  0
  -22.0302  -30.1589   20.6195 C   0  0  0  0  0  0  0  0  0  0  0  0
  -28.3436  -11.4647   20.7992 C   0  0  0  0  0  0  0  0  0  0  0  0
  -30.4784  -12.3561   19.7779 C   0  0  0  0  0  0  0  0  0  0  0  0
  -28.3400  -13.4913   19.2848 C   0  0  0  0  0  0  0  0  0  0  0  0
  -27.6346  -20.7444   19.2500 C   0  0  0  0  0  0  0  0  0  0  0  0
  -26.4153  -19.7290   17.8681 C   0  0  0  0  0  0  0  0  0  0  0  0
  -21.9924  -28.6376   20.8088 C   0  0  1  0  0  0  0  0  0  0  0  0
  -25.5074  -27.4372   21.6069 C   0  0  1  0  0  0  0  0  0  0  0  0
  -27.6644  -12.8114   20.4871 C   0  0  1  0  0  0  0  0  0  0  0  0
  -26.3646  -21.1357   18.4815 C   0  0  0  0  0  0  0  0  0  1  0  0
  -28.8090  -18.0948   16.2068 C   0  0  0  0  0  0  0  0  0  0  0  0
  -33.1031  -27.5094   20.0890 C   0  0  0  0  0  0  0  0  0  0  0  0
  -27.1897  -29.3842   17.7677 C   0  0  0  0  0  0  0  0  0  0  0  0
  -29.6425  -29.0635   17.3814 C   0  0  0  0  0  0  0  0  0  0  0  0
  -28.8554  -30.6482   19.1397 C   0  0  0  0  0  0  0  0  0  0  0  0
  -31.3018  -25.2459   22.5605 C   0  0  0  0  0  0  0  0  0  0  0  0
  -28.6319  -28.1594   19.5244 C   0  0  1  0  0  0  0  0  0  0  0  0
  -31.9559  -27.0715   20.9862 C   0  0  2  0  0  0  0  0  0  0  0  0
  -28.5635  -29.2920   18.4614 C   0  0  0  0  0  0  0  0  0  0  0  0
  -25.6992  -11.5215   19.7425 N   0  0  0  0  0  0  0  0  0  0  0  0
  -26.1691  -12.6595   20.2811 N   0  0  0  0  0  0  0  0  0  0  0  0
  -27.7246  -19.6031   18.4072 N   0  0  0  0  0  0  0  0  0  0  0  0
  -29.7856  -13.6175   19.5182 N   0  0  0  0  0  0  0  0  0  0  0  0
  -26.6648  -27.2610   20.7274 N   0  0  0  0  0  0  0  0  0  0  0  0
  -25.4960  -14.7644   21.1337 N   0  0  0  0  0  0  0  0  0  0  0  0
  -21.5956  -12.8328   19.9286 N   0  0  0  0  0  0  0  0  0  0  0  0
  -23.2087  -28.1769   21.4434 N   0  0  0  0  0  0  0  0  0  0  0  0
  -29.9128  -28.0662   20.2166 N   0  0  0  0  0  0  0  0  0  0  0  0
  -32.3304  -25.7817   21.6321 N   0  3  0  0  0  0  0  0  0  0  0  0
  -31.7265  -14.9147   19.6507 O   0  0  0  0  0  0  0  0  0  0  0  0
  -22.5402  -14.7226   20.8204 O   0  0  0  0  0  0  0  0  0  0  0  0
  -24.5287  -28.0002   19.5332 O   0  0  0  0  0  0  0  0  0  0  0  0
  -27.5798  -29.3275   21.3006 O   0  0  0  0  0  0  0  0  0  0  0  0
  -30.3643  -25.8709   19.6215 O   0  0  0  0  0  0  0  0  0  0  0  0
  -20.9834   -7.7749   17.6752 O   0  0  0  0  0  0  0  0  0  0  0  0
  -25.2031  -21.4435   19.2875 O   0  0  0  0  0  0  0  0  0  1  0  0
  -21.8639   -2.5703   19.2690 F   0  0  0  0  0  0  0  0  0  0  0  0
  -19.0264   -6.3501   19.0104 F   0  0  0  0  0  0  0  0  0  0  0  0
  -29.3980  -16.3241   21.9204 Cl  0  0  0  0  0  0  0  0  0  0  0  0
  1  2  1  0  0  0  0
  1  5  2  0  0  0  0
  2  6  2  0  0  0  0
  3  8  2  0  0  0  0
  3 17  1  0  0  0  0
  4  9  1  0  0  0  0
  4 17  2  0  0  0  0
  5 20  1  0  0  0  0
  6 22  1  0  0  0  0
  7 10  2  0  0  0  0
  7 21  1  0  0  0  0
  8 26  1  0  0  0  0
  9 26  2  0  0  0  0
 10 27  1  0  0  0  0
 11 12  2  0  0  0  0
 11 28  1  0  0  0  0
 12 29  1  0  0  0  0
 13 18  2  0  0  0  0
 13 24  1  0  0  0  0
 14 23  1  0  0  0  0
 14 27  2  0  0  0  0
 15 25  1  0  0  0  0
 15 31  2  0  0  0  0
 16 29  2  0  0  0  0
 16 30  1  0  0  0  0
 17 32  1  0  0  0  0
 18 31  1  0  0  0  0
 18 34  1  0  0  0  0
 19 32  1  0  0  0  0
 19 33  2  0  0  0  0
 19 35  1  0  0  0  0
 20 22  2  0  0  0  0
 20 39  1  0  0  0  0
 21 23  2  0  0  0  0
 21 40  1  0  0  0  0
 22 50  1  0  0  0  0
 23 41  1  0  0  0  0
 24 25  2  0  0  0  0
 24 54  1  0  0  0  0
 25 65  1  0  0  0  0
 26 78  1  0  0  0  0
 27 79  1  0  0  0  0
 28 30  2  0  0  0  0
 28 78  1  0  0  0  0
 29 80  1  0  0  0  0
 30 81  1  0  0  0  0
 31 82  1  0  0  0  0
 32 63  2  0  0  0  0
 33 64  1  0  0  0  0
 33 68  1  0  0  0  0
 34 66  1  0  0  0  0
 34 73  2  0  0  0  0
 35 69  1  0  0  0  0
 35 74  2  0  0  0  0
 36 51  1  0  0  0  0
 36 70  1  0  0  0  0
 36 75  2  0  0  0  0
 37 60  1  0  0  0  0
 37 67  1  0  0  0  0
 37 76  2  0  0  0  0
 38 61  1  0  0  0  0
 38 71  1  0  0  0  0
 38 77  2  0  0  0  0
 39 42  1  0  0  0  0
 40 51  1  0  0  0  0
 41 67  1  0  0  0  0
 42 44  1  0  0  0  0
 43 45  1  0  0  0  0
 43 46  1  0  0  0  0
 44 50  1  0  0  0  0
 45 52  1  0  0  0  0
 46 66  1  0  0  0  0
 47 52  1  0  0  0  0
 47 66  1  0  0  0  0
 48 53  1  0  0  0  0
 48 65  1  0  0  0  0
 49 53  1  0  0  0  0
 49 65  1  0  0  0  0
 50 70  1  0  0  0  0
 51 67  1  0  0  0  0
 52 64  1  0  0  0  0
 53 79  1  0  0  0  0
 55 61  1  0  0  0  0
 56 62  1  0  0  0  0
 57 62  1  0  0  0  0
 58 62  1  0  0  0  0
 59 72  1  0  0  0  0
 60 62  1  0  0  0  0
 60 71  1  0  0  0  0
 61 72  1  0  0  0  0
 63 64  1  0  0  0  0
M  CHG  1  72   1
M  ISO  4  18 100  34 100  53 101  79 101
M  END
> <Batch ID>
0029

> <Smiles>
CNC(C)C(=O)NC(C(=O)N1Cc2cc([101O:1][101CH:1]3CN(c4cc(Cl)[100c:0]([100C:0](=O)N5CCCC(n6nc(-c7ccc(Oc8ccc(F)cc8F)cc7)c(C(N)=O)c6N)C5)cc4C)C3)ccc2CC1C(=O)NC1CCCc2ccccc21)C(C)(C)C

> <Shape>
0.249

> <Color>
0.126

> <Negative vol penalty>
0.000

$$$$

  -OEChem-04042321343D

 85 94  0     1  0  0  0  0  0999 V2000
  -17.1745  -32.0909   21.8576 C   0  0  0  0  0  0  0  0  0  0  0  0
  -18.3183  -32.1743   21.0700 C   0  0  0  0  0  0  0  0  0  0  0  0
  -26.5376  -17.4857   20.1170 C   0  0  0  0  0  0  0  0  0  0  0  0
  -28.6518  -17.1034   19.0119 C   0  0  0  0  0  0  0  0  0  0  0  0
  -17.2362  -31.4870   23.1127 C   0  0  0  0  0  0  0  0  0  0  0  0
  -19.5248  -31.6546   21.5377 C   0  0  0  0  0  0  0  0  0  0  0  0
  -33.6314  -23.7710   17.9170 C   0  0  0  0  0  0  0  0  0  0  0  0
  -25.5130  -28.4845   19.2122 C   0  0  0  0  0  0  0  0  0  0  0  0
  -33.2781  -24.4528   19.0782 C   0  0  0  0  0  0  0  0  0  0  0  0
  -26.1224  -16.2009   19.7671 C   0  0  0  0  0  0  0  0  0  0  0  0
  -28.2366  -15.8186   18.6620 C   0  0  0  0  0  0  0  0  0  0  0  0
  -26.8992  -28.6107   19.2918 C   0  0  0  0  0  0  0  0  0  0  0  0
  -26.6286  -13.0380   20.8502 C   0  0  0  0  0  0  0  0  0  0  0  0
  -26.0066  -12.2677   21.8327 C   0  0  0  0  0  0  0  0  0  0  0  0
  -26.8691  -27.5190   21.4427 C   0  0  0  0  0  0  0  0  0  0  0  0
  -31.0804  -24.8516   18.1612 C   0  0  0  0  0  0  0  0  0  0  0  0
  -24.0233  -12.1196   20.4609 C   0  0  0  0  0  0  0  0  0  0  0  0
  -27.8023  -17.9370   19.7393 C   0  0  0  0  0  0  0  0  0  0  0  0
  -28.9130  -19.6488   21.2703 C   0  0  0  0  0  0  0  0  0  0  0  0
  -18.4420  -30.9511   23.5919 C   0  0  0  0  0  0  0  0  0  0  0  0
  -24.7921  -27.8833   20.2540 C   0  0  0  0  0  0  0  0  0  0  0  0
  -19.6030  -31.0442   22.8010 C   0  0  0  0  0  0  0  0  0  0  0  0
  -32.7081  -23.6082   16.8707 C   0  0  0  0  0  0  0  0  0  0  0  0
  -25.4742  -27.3841   21.3728 C   0  0  0  0  0  0  0  0  0  0  0  0
  -32.0056  -24.9982   19.1968 C   0  0  0  0  0  0  0  0  0  0  0  0
  -31.4062  -24.1383   16.9957 C   0  0  0  0  0  0  0  0  0  0  0  0
  -26.9719  -15.3673   19.0396 C   0  0  0  0  0  0  0  0  0  0  0  0
  -27.5772  -28.1306   20.4084 C   0  0  0  0  0  0  0  0  0  0  0  0
  -25.9479  -13.3492   19.6731 C   0  0  0  0  0  0  0  0  0  0  0  0
  -24.7040  -11.8085   21.6381 C   0  0  0  0  0  0  0  0  0  0  0  0
  -24.6453  -12.8900   19.4784 C   0  0  0  0  0  0  0  0  0  0  0  0
  -28.2315  -19.2643   20.1000 C   0  0  0  0  0  0  0  0  0  0  0  0
  -29.0887  -21.0043   21.1357 C   0  0  0  0  0  0  0  0  0  0  0  0
  -29.3483  -18.8518   22.3798 C   0  0  0  0  0  0  0  0  0  0  0  0
  -22.5269  -28.8499   22.2636 C   0  0  0  0  0  0  0  0  0  0  0  0
  -22.5132  -25.7258   23.1365 C   0  0  0  0  0  0  0  0  0  0  0  0
  -24.1926  -22.7603   23.3159 C   0  0  0  0  0  0  0  0  0  0  0  0
  -29.1098  -24.3448   15.9962 C   0  0  0  0  0  0  0  0  0  0  0  0
  -18.4703  -30.3499   24.9749 C   0  0  0  0  0  0  0  0  0  0  0  0
  -23.3000  -27.7308   20.1409 C   0  0  0  0  0  0  0  0  0  0  0  0
  -33.1719  -22.9144   15.6145 C   0  0  0  0  0  0  0  0  0  0  0  0
  -24.7489  -26.7123   22.5091 C   0  0  0  0  0  0  0  0  0  0  0  0
  -19.7033  -29.4900   25.2400 C   0  0  0  0  0  0  0  0  0  0  0  0
  -32.0150  -22.5022   14.7169 C   0  0  0  0  0  0  0  0  0  0  0  0
  -27.1601  -24.8727   19.1016 C   0  0  0  0  0  0  0  0  0  0  0  0
  -20.9655  -30.2082   24.7734 C   0  0  0  0  0  0  0  0  0  0  0  0
  -27.2009  -23.4968   19.7633 C   0  0  0  0  0  0  0  0  0  0  0  0
  -31.0087  -23.6345   14.6090 C   0  0  0  0  0  0  0  0  0  0  0  0
  -27.2627  -24.7733   17.5828 C   0  0  0  0  0  0  0  0  0  0  0  0
  -28.5113  -22.6404   17.7799 C   0  0  0  0  0  0  0  0  0  0  0  0
  -20.9248  -30.4701   23.2630 C   0  0  1  0  0  0  0  0  0  0  0  0
  -22.6124  -27.5632   21.4923 C   0  0  1  0  0  0  0  0  0  0  0  0
  -28.4461  -22.7159   19.3128 C   0  0  2  0  0  0  0  0  0  0  0  0
  -24.5604  -20.3147   23.7417 C   0  0  0  0  0  0  0  0  0  0  0  0
  -22.9108  -26.6576   26.0146 C   0  0  0  0  0  0  0  0  0  0  0  0
  -23.5877  -24.3204   26.6043 C   0  0  0  0  0  0  0  0  0  0  0  0
  -21.2905  -24.7721   25.7430 C   0  0  0  0  0  0  0  0  0  0  0  0
  -23.3198  -22.0345   20.5826 C   0  0  0  0  0  0  0  0  0  0  0  0
  -32.8927  -27.7747   19.7212 C   0  0  0  0  0  0  0  0  0  0  0  0
  -31.6291  -25.7493   20.4295 C   0  0  0  0  0  0  0  0  0  0  0  0
  -31.1256  -27.9565   21.4665 C   0  0  0  0  0  0  0  0  0  0  0  0
  -29.6321  -27.7601   21.6368 C   0  0  0  0  0  0  0  0  0  1  0  0
  -23.2556  -24.8977   24.1573 C   0  0  1  0  0  0  0  0  0  0  0  0
  -23.7850  -21.3474   22.9385 C   0  0  2  0  0  0  0  0  0  0  0  0
  -22.7749  -25.1763   25.6094 C   0  0  0  0  0  0  0  0  0  0  0  0
  -27.9906  -20.2926   19.2823 N   0  0  0  0  0  0  0  0  0  0  0  0
  -28.5235  -21.3365   19.9397 N   0  0  0  0  0  0  0  0  0  0  0  0
  -30.4624  -23.9756   15.9228 N   0  0  0  0  0  0  0  0  0  0  0  0
  -23.2896  -26.5927   22.3546 N   0  0  0  0  0  0  0  0  0  0  0  0
  -28.4164  -23.9751   17.1658 N   0  0  0  0  0  0  0  0  0  0  0  0
  -29.6699  -21.9326   21.9250 N   0  0  0  0  0  0  0  0  0  0  0  0
  -29.0866  -17.4751   22.3570 N   0  0  0  0  0  0  0  0  0  0  0  0
  -21.2350  -29.2604   22.5317 N   0  0  0  0  0  0  0  0  0  0  0  0
  -23.1133  -23.5079   23.7371 N   0  0  0  0  0  0  0  0  0  0  0  0
  -24.0393  -21.1043   21.4904 N   0  3  0  0  0  0  0  0  0  0  0  0
  -31.5860  -27.2245   20.2323 N   0  3  1  0  0  0  0  0  0  0  0  0
  -29.9369  -19.3485   23.3699 O   0  0  0  0  0  0  0  0  0  0  0  0
  -23.5569  -29.4267   22.5924 O   0  0  0  0  0  0  0  0  0  0  0  0
  -21.2903  -25.6026   23.0317 O   0  0  0  0  0  0  0  0  0  0  0  0
  -25.3529  -23.1595   23.2476 O   0  0  0  0  0  0  0  0  0  0  0  0
  -28.5470  -24.9053   15.0477 O   0  0  0  0  0  0  0  0  0  0  0  0
  -26.5671  -14.1134   18.6982 O   0  0  0  0  0  0  0  0  0  0  0  0
  -28.9533  -28.2552   20.4903 O   0  0  0  0  0  0  0  0  0  1  0  0
  -24.1074  -11.0675   22.5810 F   0  0  0  0  0  0  0  0  0  0  0  0
  -23.9868  -13.1847   18.3492 F   0  0  0  0  0  0  0  0  0  0  0  0
  1  2  1  0  0  0  0
  1  5  2  0  0  0  0
  2  6  2  0  0  0  0
  3 10  2  0  0  0  0
  3 18  1  0  0  0  0
  4 11  1  0  0  0  0
  4 18  2  0  0  0  0
  5 20  1  0  0  0  0
  6 22  1  0  0  0  0
  7  9  2  0  0  0  0
  7 23  1  0  0  0  0
  8 12  2  0  0  0  0
  8 21  1  0  0  0  0
  9 25  1  0  0  0  0
 10 27  1  0  0  0  0
 11 27  2  0  0  0  0
 12 28  1  0  0  0  0
 13 14  2  0  0  0  0
 13 29  1  0  0  0  0
 14 30  1  0  0  0  0
 15 24  1  0  0  0  0
 15 28  2  0  0  0  0
 16 25  2  0  0  0  0
 16 26  1  0  0  0  0
 17 30  2  0  0  0  0
 17 31  1  0  0  0  0
 18 32  1  0  0  0  0
 19 32  1  0  0  0  0
 19 33  2  0  0  0  0
 19 34  1  0  0  0  0
 20 22  2  0  0  0  0
 20 39  1  0  0  0  0
 21 24  2  0  0  0  0
 21 40  1  0  0  0  0
 22 51  1  0  0  0  0
 23 26  2  0  0  0  0
 23 41  1  0  0  0  0
 24 42  1  0  0  0  0
 25 60  1  0  0  0  0
 26 68  1  0  0  0  0
 27 82  1  0  0  0  0
 28 83  1  0  0  0  0
 29 31  2  0  0  0  0
 29 82  1  0  0  0  0
 30 84  1  0  0  0  0
 31 85  1  0  0  0  0
 32 66  2  0  0  0  0
 33 67  1  0  0  0  0
 33 71  1  0  0  0  0
 34 72  1  0  0  0  0
 34 77  2  0  0  0  0
 35 52  1  0  0  0  0
 35 73  1  0  0  0  0
 35 78  2  0  0  0  0
 36 63  1  0  0  0  0
 36 69  1  0  0  0  0
 36 79  2  0  0  0  0
 37 64  1  0  0  0  0
 37 74  1  0  0  0  0
 37 80  2  0  0  0  0
 38 68  1  0  0  0  0
 38 70  1  0  0  0  0
 38 81  2  0  0  0  0
 39 43  1  0  0  0  0
 40 52  1  0  0  0  0
 41 44  1  0  0  0  0
 42 69  1  0  0  0  0
 43 46  1  0  0  0  0
 44 48  1  0  0  0  0
 45 47  1  0  0  0  0
 45 49  1  0  0  0  0
 46 51  1  0  0  0  0
 47 53  1  0  0  0  0
 48 68  1  0  0  0  0
 49 70  1  0  0  0  0
 50 53  1  0  0  0  0
 50 70  1  0  0  0  0
 51 73  1  0  0  0  0
 52 69  1  0  0  0  0
 53 67  1  0  0  0  0
 54 64  1  0  0  0  0
 55 65  1  0  0  0  0
 56 65  1  0  0  0  0
 57 65  1  0  0  0  0
 58 75  1  0  0  0  0
 59 76  1  0  0  0  0
 60 76  1  0  0  0  0
 61 62  1  0  0  0  0
 61 76  1  0  0  0  0
 62 83  1  0  0  0  0
 63 65  1  0  0  0  0
 63 74  1  0  0  0  0
 64 75  1  0  0  0  0
 66 67  1  0  0  0  0
M  CHG  2  75   1  76   1
M  ISO  4  38 100  62 101  68 100  83 101
M  END
> <Batch ID>
0029

> <Smiles>
CNC(C)C(=O)NC(C(=O)N1Cc2cc([101O:1][101CH2:1]CN(C)Cc3ccc4c(c3)[100N:0]([100C:0](=O)N3CCCC(n5nc(-c6ccc(Oc7ccc(F)cc7F)cc6)c(C(N)=O)c5N)C3)CCC4)ccc2CC1C(=O)NC1CCCc2ccccc21)C(C)(C)C

> <Shape>
0.210

> <Color>
0.065

> <Negative vol penalty>
0.000

$$$$

  -OEChem-04042321343D

 84 93  0     1  0  0  0  0  0999 V2000
  -16.1916  -31.1439   20.7524 C   0  0  0  0  0  0  0  0  0  0  0  0
  -17.4317  -31.7526   20.5880 C   0  0  0  0  0  0  0  0  0  0  0  0
  -25.3846  -13.7041   21.5528 C   0  0  0  0  0  0  0  0  0  0  0  0
  -26.0168  -13.7605   19.2217 C   0  0  0  0  0  0  0  0  0  0  0  0
  -16.0249  -30.1545   21.7205 C   0  0  0  0  0  0  0  0  0  0  0  0
  -18.5056  -31.3730   21.3923 C   0  0  0  0  0  0  0  0  0  0  0  0
  -25.5845  -28.7553   19.3764 C   0  0  0  0  0  0  0  0  0  0  0  0
  -30.3959  -24.0592   14.2737 C   0  0  0  0  0  0  0  0  0  0  0  0
  -24.4275  -12.7298   21.2697 C   0  0  0  0  0  0  0  0  0  0  0  0
  -25.0596  -12.7861   18.9386 C   0  0  0  0  0  0  0  0  0  0  0  0
  -26.8120  -28.1336   19.1467 C   0  0  0  0  0  0  0  0  0  0  0  0
  -24.3571   -9.3966   20.7057 C   0  0  0  0  0  0  0  0  0  0  0  0
  -30.7132  -23.1904   13.2297 C   0  0  0  0  0  0  0  0  0  0  0  0
  -24.2779   -8.2978   21.5612 C   0  0  0  0  0  0  0  0  0  0  0  0
  -26.6924  -27.0719   21.3162 C   0  0  0  0  0  0  0  0  0  0  0  0
  -29.9842  -21.3158   14.5683 C   0  0  0  0  0  0  0  0  0  0  0  0
  -21.9870   -8.8651   22.0779 C   0  0  0  0  0  0  0  0  0  0  0  0
  -26.1793  -14.2195   20.5288 C   0  0  0  0  0  0  0  0  0  0  0  0
  -28.2641  -15.1127   21.6963 C   0  0  0  0  0  0  0  0  0  0  0  0
  -17.0998  -29.7557   22.5306 C   0  0  0  0  0  0  0  0  0  0  0  0
  -24.8981  -28.5253   20.5720 C   0  0  0  0  0  0  0  0  0  0  0  0
  -18.3528  -30.3782   22.3731 C   0  0  0  0  0  0  0  0  0  0  0  0
  -25.4565  -27.6821   21.5467 C   0  0  0  0  0  0  0  0  0  0  0  0
  -29.8728  -23.5564   15.4650 C   0  0  0  0  0  0  0  0  0  0  0  0
  -29.6669  -22.1847   15.6123 C   0  0  0  0  0  0  0  0  0  0  0  0
  -24.2649  -12.2708   19.9626 C   0  0  0  0  0  0  0  0  0  0  0  0
  -27.3647  -27.2942   20.1143 C   0  0  0  0  0  0  0  0  0  0  0  0
  -23.2512  -10.2298   20.5363 C   0  0  0  0  0  0  0  0  0  0  0  0
  -30.5073  -21.8187   13.3770 C   0  0  0  0  0  0  0  0  0  0  0  0
  -23.0929   -8.0320   22.2472 C   0  0  0  0  0  0  0  0  0  0  0  0
  -22.0662   -9.9640   21.2224 C   0  0  0  0  0  0  0  0  0  0  0  0
  -27.1678  -15.2263   20.8205 C   0  0  0  0  0  0  0  0  0  0  0  0
  -28.8917  -16.3322   21.6208 C   0  0  0  0  0  0  0  0  0  0  0  0
  -28.6783  -14.0041   22.5056 C   0  0  0  0  0  0  0  0  0  0  0  0
  -21.8498  -29.2169   22.6469 C   0  0  0  0  0  0  0  0  0  0  0  0
  -22.4937  -26.2356   22.9754 C   0  0  0  0  0  0  0  0  0  0  0  0
  -23.2913  -22.9274   22.7374 C   0  0  0  0  0  0  0  0  0  0  0  0
  -28.8778  -20.3108   17.1123 C   0  0  0  0  0  0  0  0  0  0  0  0
  -16.8592  -28.7152   23.5955 C   0  0  0  0  0  0  0  0  0  0  0  0
  -23.6025  -29.2221   20.8878 C   0  0  0  0  0  0  0  0  0  0  0  0
  -24.6990  -27.4912   22.8322 C   0  0  0  0  0  0  0  0  0  0  0  0
  -18.1431  -28.1062   24.1532 C   0  0  0  0  0  0  0  0  0  0  0  0
  -27.2065  -20.7374   20.5400 C   0  0  0  0  0  0  0  0  0  0  0  0
  -19.1576  -29.1996   24.4728 C   0  0  0  0  0  0  0  0  0  0  0  0
  -27.7906  -19.5241   21.2596 C   0  0  0  0  0  0  0  0  0  0  0  0
  -30.2574  -25.7344   18.4828 C   0  0  0  0  0  0  0  0  0  0  0  0
  -27.8333  -25.4401   17.9497 C   0  0  0  0  0  0  0  0  0  0  0  0
  -28.0702  -21.1845   19.3673 C   0  0  0  0  0  0  0  0  0  0  0  0
  -30.6252  -25.2817   17.0724 C   0  0  0  0  0  0  0  0  0  0  0  0
  -28.1980  -24.9920   16.5378 C   0  0  0  0  0  0  0  0  0  0  0  0
  -28.0149  -18.7406   18.8376 C   0  0  0  0  0  0  0  0  0  0  0  0
  -19.5481  -29.9762   23.2095 C   0  0  1  0  0  0  0  0  0  0  0  0
  -22.6317  -28.3502   21.7042 C   0  0  1  0  0  0  0  0  0  0  0  0
  -28.4276  -18.5011   20.2983 C   0  0  2  0  0  0  0  0  0  0  0  0
  -28.8805  -26.3843   18.5289 C   0  0  0  0  0  0  0  0  0  1  0  0
  -22.5924  -20.6674   23.5749 C   0  0  0  0  0  0  0  0  0  0  0  0
  -23.7947  -26.8353   25.6683 C   0  0  0  0  0  0  0  0  0  0  0  0
  -23.9261  -24.3683   26.0742 C   0  0  0  0  0  0  0  0  0  0  0  0
  -21.7043  -25.4689   25.8005 C   0  0  0  0  0  0  0  0  0  0  0  0
  -22.6975  -21.9686   20.0011 C   0  0  0  0  0  0  0  0  0  0  0  0
  -23.1990  -25.1753   23.7827 C   0  0  1  0  0  0  0  0  0  0  0  0
  -22.4365  -21.7016   22.4708 C   0  0  2  0  0  0  0  0  0  0  0  0
  -23.1680  -25.4735   25.3083 C   0  0  0  0  0  0  0  0  0  0  0  0
  -27.0998  -16.4234   20.2320 N   0  0  0  0  0  0  0  0  0  0  0  0
  -28.1613  -17.0733   20.7390 N   0  0  0  0  0  0  0  0  0  0  0  0
  -29.5624  -24.4471   16.5006 N   0  0  0  0  0  0  0  0  0  0  0  0
  -23.2647  -27.3242   22.5502 N   0  0  0  0  0  0  0  0  0  0  0  0
  -28.3465  -20.1044   18.4090 N   0  0  0  0  0  0  0  0  0  0  0  0
  -29.9914  -16.8321   22.2234 N   0  0  0  0  0  0  0  0  0  0  0  0
  -29.5684  -13.0714   21.9561 N   0  0  0  0  0  0  0  0  0  0  0  0
  -29.1380  -21.6509   16.8140 N   0  0  0  0  0  0  0  0  0  0  0  0
  -20.4873  -29.2122   22.4167 N   0  0  0  0  0  0  0  0  0  0  0  0
  -22.5878  -23.9043   23.4097 N   0  0  0  0  0  0  0  0  0  0  0  0
  -22.8247  -21.0706   21.1777 N   0  3  0  0  0  0  0  0  0  0  0  0
  -28.2582  -13.8363   23.6756 O   0  0  0  0  0  0  0  0  0  0  0  0
  -22.4381  -29.8432   23.5206 O   0  0  0  0  0  0  0  0  0  0  0  0
  -21.2905  -26.1075   22.7319 O   0  0  0  0  0  0  0  0  0  0  0  0
  -24.4667  -23.0087   22.3877 O   0  0  0  0  0  0  0  0  0  0  0  0
  -29.0928  -19.3715   16.3433 O   0  0  0  0  0  0  0  0  0  0  0  0
  -23.3312  -11.3199   19.6861 O   0  0  0  0  0  0  0  0  0  0  0  0
  -28.5612  -26.6869   19.8817 O   0  0  0  0  0  0  0  0  0  1  0  0
  -30.8120  -20.9846   12.3742 F   0  0  0  0  0  0  0  0  0  0  0  0
  -23.0165   -6.9759   23.0675 F   0  0  0  0  0  0  0  0  0  0  0  0
  -21.0001  -10.7602   21.0628 F   0  0  0  0  0  0  0  0  0  0  0  0
  1  2  1  0  0  0  0
  1  5  2  0  0  0  0
  2  6  2  0  0  0  0
  3  9  2  0  0  0  0
  3 18  1  0  0  0  0
  4 10  1  0  0  0  0
  4 18  2  0  0  0  0
  5 20  1  0  0  0  0
  6 22  1  0  0  0  0
  7 11  2  0  0  0  0
  7 21  1  0  0  0  0
  8 13  2  0  0  0  0
  8 24  1  0  0  0  0
  9 26  1  0  0  0  0
 10 26  2  0  0  0  0
 11 27  1  0  0  0  0
 12 14  2  0  0  0  0
 12 28  1  0  0  0  0
 13 29  1  0  0  0  0
 14 30  1  0  0  0  0
 15 23  1  0  0  0  0
 15 27  2  0  0  0  0
 16 25  1  0  0  0  0
 16 29  2  0  0  0  0
 17 30  2  0  0  0  0
 17 31  1  0  0  0  0
 18 32  1  0  0  0  0
 19 32  1  0  0  0  0
 19 33  2  0  0  0  0
 19 34  1  0  0  0  0
 20 22  2  0  0  0  0
 20 39  1  0  0  0  0
 21 23  2  0  0  0  0
 21 40  1  0  0  0  0
 22 52  1  0  0  0  0
 23 41  1  0  0  0  0
 24 25  2  0  0  0  0
 24 66  1  0  0  0  0
 25 71  1  0  0  0  0
 26 80  1  0  0  0  0
 27 81  1  0  0  0  0
 28 31  2  0  0  0  0
 28 80  1  0  0  0  0
 29 82  1  0  0  0  0
 30 83  1  0  0  0  0
 31 84  1  0  0  0  0
 32 64  2  0  0  0  0
 33 65  1  0  0  0  0
 33 69  1  0  0  0  0
 34 70  1  0  0  0  0
 34 75  2  0  0  0  0
 35 53  1  0  0  0  0
 35 72  1  0  0  0  0
 35 76  2  0  0  0  0
 36 61  1  0  0  0  0
 36 67  1  0  0  0  0
 36 77  2  0  0  0  0
 37 62  1  0  0  0  0
 37 73  1  0  0  0  0
 37 78  2  0  0  0  0
 38 68  1  0  0  0  0
 38 71  1  0  0  0  0
 38 79  2  0  0  0  0
 39 42  1  0  0  0  0
 40 53  1  0  0  0  0
 41 67  1  0  0  0  0
 42 44  1  0  0  0  0
 43 45  1  0  0  0  0
 43 48  1  0  0  0  0
 44 52  1  0  0  0  0
 45 54  1  0  0  0  0
 46 49  1  0  0  0  0
 46 55  1  0  0  0  0
 47 50  1  0  0  0  0
 47 55  1  0  0  0  0
 48 68  1  0  0  0  0
 49 66  1  0  0  0  0
 50 66  1  0  0  0  0
 51 54  1  0  0  0  0
 51 68  1  0  0  0  0
 52 72  1  0  0  0  0
 53 67  1  0  0  0  0
 54 65  1  0  0  0  0
 55 81  1  0  0  0  0
 56 62  1  0  0  0  0
 57 63  1  0  0  0  0
 58 63  1  0  0  0  0
 59 63  1  0  0  0  0
 60 74  1  0  0  0  0
 61 63  1  0  0  0  0
 61 73  1  0  0  0  0
 62 74  1  0  0  0  0
 64 65  1  0  0  0  0
M  CHG  1  74   1
M  ISO  4  38 100  55 101  71 100  81 101
M  END
> <Batch ID>
0029

> <Smiles>
CNC(C)C(=O)NC(C(=O)N1Cc2cc([101O:1][101CH:1]3CCN(c4ccc(F)cc4[100NH:0][100C:0](=O)N4CCCC(n5nc(-c6ccc(Oc7ccc(F)cc7F)cc6)c(C(N)=O)c5N)C4)CC3)ccc2CC1C(=O)NC1CCCc2ccccc21)C(C)(C)C

> <Shape>
0.234

> <Color>
0.095

> <Negative vol penalty>
0.000

$$$$

  -OEChem-04042321343D

 84 93  0     1  0  0  0  0  0999 V2000
  -16.9535  -28.9055   24.6701 C   0  0  0  0  0  0  0  0  0  0  0  0
  -17.7508  -27.9352   24.0715 C   0  0  0  0  0  0  0  0  0  0  0  0
  -30.2358  -12.6194   19.4383 C   0  0  0  0  0  0  0  0  0  0  0  0
  -29.2451  -12.1709   17.2809 C   0  0  0  0  0  0  0  0  0  0  0  0
  -17.0153  -30.2266   24.2286 C   0  0  0  0  0  0  0  0  0  0  0  0
  -18.6096  -28.2853   23.0302 C   0  0  0  0  0  0  0  0  0  0  0  0
  -26.3296  -27.2920   22.3659 C   0  0  0  0  0  0  0  0  0  0  0  0
  -29.0874  -23.8047   18.6508 C   0  0  0  0  0  0  0  0  0  0  0  0
  -28.5262  -22.6438   18.1187 C   0  0  0  0  0  0  0  0  0  0  0  0
  -31.2556  -11.7097   19.1592 C   0  0  0  0  0  0  0  0  0  0  0  0
  -30.2650  -11.2611   17.0017 C   0  0  0  0  0  0  0  0  0  0  0  0
  -27.7147  -27.3143   22.2006 C   0  0  0  0  0  0  0  0  0  0  0  0
  -31.0476   -8.0719   17.8062 C   0  0  0  0  0  0  0  0  0  0  0  0
  -30.6869   -6.8445   17.2504 C   0  0  0  0  0  0  0  0  0  0  0  0
  -27.5210  -29.2379   20.7480 C   0  0  0  0  0  0  0  0  0  0  0  0
  -30.4487  -22.4676   20.1326 C   0  0  0  0  0  0  0  0  0  0  0  0
  -32.0463   -7.3232   15.3112 C   0  0  0  0  0  0  0  0  0  0  0  0
  -29.2305  -12.8500   18.4992 C   0  0  0  0  0  0  0  0  0  0  0  0
  -27.2547  -13.7331   19.8497 C   0  0  0  0  0  0  0  0  0  0  0  0
  -17.8824  -30.5948   23.1879 C   0  0  0  0  0  0  0  0  0  0  0  0
  -25.5354  -28.2531   21.7344 C   0  0  0  0  0  0  0  0  0  0  0  0
  -18.6821  -29.6123   22.5735 C   0  0  0  0  0  0  0  0  0  0  0  0
  -26.1342  -29.2282   20.9199 C   0  0  0  0  0  0  0  0  0  0  0  0
  -30.0487  -23.7166   19.6577 C   0  0  0  0  0  0  0  0  0  0  0  0
  -28.9263  -21.3948   18.5936 C   0  0  0  0  0  0  0  0  0  0  0  0
  -31.2702  -11.0305   17.9409 C   0  0  0  0  0  0  0  0  0  0  0  0
  -28.3088  -28.2847   21.3934 C   0  0  0  0  0  0  0  0  0  0  0  0
  -31.9076   -8.9250   17.1146 C   0  0  0  0  0  0  0  0  0  0  0  0
  -31.1863   -6.4701   16.0029 C   0  0  0  0  0  0  0  0  0  0  0  0
  -29.8875  -21.3066   19.6006 C   0  0  0  0  0  0  0  0  0  0  0  0
  -32.4069   -8.5507   15.8671 C   0  0  0  0  0  0  0  0  0  0  0  0
  -28.1765  -13.7892   18.7872 C   0  0  0  0  0  0  0  0  0  0  0  0
  -26.4692  -14.8472   19.6820 C   0  0  0  0  0  0  0  0  0  0  0  0
  -27.1207  -12.7610   20.8950 C   0  0  0  0  0  0  0  0  0  0  0  0
  -22.0859  -29.6017   21.1358 C   0  0  0  0  0  0  0  0  0  0  0  0
  -23.9419  -32.0206   21.4750 C   0  0  0  0  0  0  0  0  0  0  0  0
  -26.2361  -34.3989   22.3220 C   0  0  0  0  0  0  0  0  0  0  0  0
  -27.3886  -20.1317   17.0488 C   0  0  0  0  0  0  0  0  0  0  0  0
  -17.8799  -32.0264   22.7132 C   0  0  0  0  0  0  0  0  0  0  0  0
  -24.0343  -28.2299   21.8348 C   0  0  0  0  0  0  0  0  0  0  0  0
  -25.2373  -30.2211   20.2324 C   0  0  0  0  0  0  0  0  0  0  0  0
  -19.0905  -32.3859   21.8556 C   0  0  0  0  0  0  0  0  0  0  0  0
  -24.8196  -17.7888   16.2819 C   0  0  0  0  0  0  0  0  0  0  0  0
  -32.5977  -25.9899   21.1483 C   0  0  0  0  0  0  0  0  0  0  0  0
  -19.3375  -31.3098   20.8030 C   0  0  0  0  0  0  0  0  0  0  0  0
  -25.3021  -16.4937   16.9392 C   0  0  0  0  0  0  0  0  0  0  0  0
  -31.8347  -27.3059   21.1675 C   0  0  0  0  0  0  0  0  0  0  0  0
  -32.0673  -25.0493   20.0688 C   0  0  0  0  0  0  0  0  0  0  0  0
  -25.9788  -18.5945   15.6981 C   0  0  0  0  0  0  0  0  0  0  0  0
  -27.5582  -17.5767   17.2915 C   0  0  0  0  0  0  0  0  0  0  0  0
  -29.8095  -26.1069   20.2512 C   0  0  0  0  0  0  0  0  0  0  0  0
  -19.6445  -29.9576   21.4579 C   0  0  1  0  0  0  0  0  0  0  0  0
  -23.4083  -29.6361   21.8440 C   0  0  1  0  0  0  0  0  0  0  0  0
  -26.4331  -16.7627   17.9512 C   0  0  2  0  0  0  0  0  0  0  0  0
  -30.3407  -27.0545   21.3277 C   0  0  2  0  0  0  0  0  0  1  0  0
  -26.4869  -36.8789   22.6125 C   0  0  0  0  0  0  0  0  0  0  0  0
  -24.0119  -32.3647   18.4451 C   0  0  0  0  0  0  0  0  0  0  0  0
  -25.1745  -34.5547   18.7918 C   0  0  0  0  0  0  0  0  0  0  0  0
  -22.8681  -34.2148   19.6793 C   0  0  0  0  0  0  0  0  0  0  0  0
  -26.9401  -34.1097   25.1821 C   0  0  0  0  0  0  0  0  0  0  0  0
  -24.8121  -33.0515   20.8018 C   0  0  1  0  0  0  0  0  0  0  0  0
  -26.1708  -35.5591   23.2989 C   0  0  2  0  0  0  0  0  0  0  0  0
  -24.2276  -33.5224   19.4401 C   0  0  0  0  0  0  0  0  0  0  0  0
  -27.9944  -14.8545   18.0023 N   0  0  0  0  0  0  0  0  0  0  0  0
  -26.9492  -15.4781   18.5722 N   0  0  0  0  0  0  0  0  0  0  0  0
  -30.6125  -24.8822   20.1914 N   0  0  1  0  0  0  0  0  0  0  0  0
  -24.1911  -30.6793   21.1599 N   0  0  0  0  0  0  0  0  0  0  0  0
  -27.0098  -18.8143   16.7147 N   0  0  0  0  0  0  0  0  0  0  0  0
  -25.4215  -15.3389   20.3770 N   0  0  0  0  0  0  0  0  0  0  0  0
  -28.0108  -11.6786   20.9190 N   0  0  0  0  0  0  0  0  0  0  0  0
  -28.3540  -20.2174   18.0514 N   0  0  0  0  0  0  0  0  0  0  0  0
  -21.0093  -29.9271   21.9385 N   0  0  0  0  0  0  0  0  0  0  0  0
  -25.0015  -34.1232   21.7734 N   0  0  0  0  0  0  0  0  0  0  0  0
  -27.1480  -35.3594   24.4062 N   0  3  0  0  0  0  0  0  0  0  0  0
  -26.2274  -12.8407   21.7720 O   0  0  0  0  0  0  0  0  0  0  0  0
  -22.0443  -29.3036   19.9479 O   0  0  0  0  0  0  0  0  0  0  0  0
  -23.0606  -32.3919   22.2552 O   0  0  0  0  0  0  0  0  0  0  0  0
  -27.2787  -33.7998   22.0681 O   0  0  0  0  0  0  0  0  0  0  0  0
  -26.8735  -21.1125   16.5059 O   0  0  0  0  0  0  0  0  0  0  0  0
  -32.2653  -10.1429   17.6681 O   0  0  0  0  0  0  0  0  0  0  0  0
  -29.6619  -28.3035   21.2399 O   0  0  0  0  0  0  0  0  0  1  0  0
  -30.8410   -5.2907   15.4699 F   0  0  0  0  0  0  0  0  0  0  0  0
  -30.2791  -20.1114   20.0648 F   0  0  0  0  0  0  0  0  0  0  0  0
  -33.2344   -9.3655   15.1984 F   0  0  0  0  0  0  0  0  0  0  0  0
  1  2  1  0  0  0  0
  1  5  2  0  0  0  0
  2  6  2  0  0  0  0
  3 10  2  0  0  0  0
  3 18  1  0  0  0  0
  4 11  1  0  0  0  0
  4 18  2  0  0  0  0
  5 20  1  0  0  0  0
  6 22  1  0  0  0  0
  7 12  2  0  0  0  0
  7 21  1  0  0  0  0
  8  9  2  0  0  0  0
  8 24  1  0  0  0  0
  9 25  1  0  0  0  0
 10 26  1  0  0  0  0
 11 26  2  0  0  0  0
 12 27  1  0  0  0  0
 13 14  2  0  0  0  0
 13 28  1  0  0  0  0
 14 29  1  0  0  0  0
 15 23  1  0  0  0  0
 15 27  2  0  0  0  0
 16 24  2  0  0  0  0
 16 30  1  0  0  0  0
 17 29  2  0  0  0  0
 17 31  1  0  0  0  0
 18 32  1  0  0  0  0
 19 32  1  0  0  0  0
 19 33  2  0  0  0  0
 19 34  1  0  0  0  0
 20 22  2  0  0  0  0
 20 39  1  0  0  0  0
 21 23  2  0  0  0  0
 21 40  1  0  0  0  0
 22 52  1  0  0  0  0
 23 41  1  0  0  0  0
 24 66  1  0  0  0  0
 25 30  2  0  0  0  0
 25 71  1  0  0  0  0
 26 80  1  0  0  0  0
 27 81  1  0  0  0  0
 28 31  2  0  0  0  0
 28 80  1  0  0  0  0
 29 82  1  0  0  0  0
 30 83  1  0  0  0  0
 31 84  1  0  0  0  0
 32 64  2  0  0  0  0
 33 65  1  0  0  0  0
 33 69  1  0  0  0  0
 34 70  1  0  0  0  0
 34 75  2  0  0  0  0
 35 53  1  0  0  0  0
 35 72  1  0  0  0  0
 35 76  2  0  0  0  0
 36 61  1  0  0  0  0
 36 67  1  0  0  0  0
 36 77  2  0  0  0  0
 37 62  1  0  0  0  0
 37 73  1  0  0  0  0
 37 78  2  0  0  0  0
 38 68  1  0  0  0  0
 38 71  1  0  0  0  0
 38 79  2  0  0  0  0
 39 42  1  0  0  0  0
 40 53  1  0  0  0  0
 41 67  1  0  0  0  0
 42 45  1  0  0  0  0
 43 46  1  0  0  0  0
 43 49  1  0  0  0  0
 44 47  1  0  0  0  0
 44 48  1  0  0  0  0
 45 52  1  0  0  0  0
 46 54  1  0  0  0  0
 47 55  1  0  0  0  0
 48 66  1  0  0  0  0
 49 68  1  0  0  0  0
 50 54  1  0  0  0  0
 50 68  1  0  0  0  0
 51 55  1  0  0  0  0
 51 66  1  0  0  0  0
 52 72  1  0  0  0  0
 53 67  1  0  0  0  0
 54 65  1  0  0  0  0
 55 81  1  0  0  0  0
 56 62  1  0  0  0  0
 57 63  1  0  0  0  0
 58 63  1  0  0  0  0
 59 63  1  0  0  0  0
 60 74  1  0  0  0  0
 61 63  1  0  0  0  0
 61 73  1  0  0  0  0
 62 74  1  0  0  0  0
 64 65  1  0  0  0  0
M  CHG  1  74   1
M  ISO  4  38 100  55 101  71 100  81 101
M  END
> <Batch ID>
0029

> <Smiles>
CNC(C)C(=O)NC(C(=O)N1Cc2cc([101O:1][101CH:1]3CCCN(c4ccc([100NH:0][100C:0](=O)N5CCCC(n6nc(-c7ccc(Oc8ccc(F)cc8F)cc7)c(C(N)=O)c6N)C5)c(F)c4)C3)ccc2CC1C(=O)NC1CCCc2ccccc21)C(C)(C)C

> <Shape>
0.248

> <Color>
0.086

> <Negative vol penalty>
0.000

$$$$

  -OEChem-04042321343D

 87 96  0     1  0  0  0  0  0999 V2000
  -30.9769  -30.3152   13.2960 C   0  0  0  0  0  0  0  0  0  0  0  0
  -30.7623  -29.1402   14.0093 C   0  0  0  0  0  0  0  0  0  0  0  0
  -30.8948  -18.2525   23.4327 C   0  0  0  0  0  0  0  0  0  0  0  0
  -23.6910   -9.4248   21.2334 C   0  0  0  0  0  0  0  0  0  0  0  0
  -23.0561  -11.5946   22.0855 C   0  0  0  0  0  0  0  0  0  0  0  0
  -30.8889  -31.5475   13.9420 C   0  0  0  0  0  0  0  0  0  0  0  0
  -30.4607  -29.1969   15.3695 C   0  0  0  0  0  0  0  0  0  0  0  0
  -26.7464  -25.4475   18.4763 C   0  0  0  0  0  0  0  0  0  0  0  0
  -29.8338  -19.0878   23.7819 C   0  0  0  0  0  0  0  0  0  0  0  0
  -30.6846  -17.1862   22.5582 C   0  0  0  0  0  0  0  0  0  0  0  0
  -22.8951   -8.8118   22.2010 C   0  0  0  0  0  0  0  0  0  0  0  0
  -22.2602  -10.9816   23.0532 C   0  0  0  0  0  0  0  0  0  0  0  0
  -26.9947  -24.3371   19.2819 C   0  0  0  0  0  0  0  0  0  0  0  0
  -23.1005   -8.0761   25.4936 C   0  0  0  0  0  0  0  0  0  0  0  0
  -23.6408   -6.9912   26.1838 C   0  0  0  0  0  0  0  0  0  0  0  0
  -26.9109  -25.7455   21.2386 C   0  0  0  0  0  0  0  0  0  0  0  0
  -21.8553   -5.5829   25.3679 C   0  0  0  0  0  0  0  0  0  0  0  0
  -23.7715  -10.8162   21.1756 C   0  0  0  0  0  0  0  0  0  0  0  0
  -24.2065  -11.8451   18.8822 C   0  0  0  0  0  0  0  0  0  0  0  0
  -30.5765  -31.6198   15.3087 C   0  0  0  0  0  0  0  0  0  0  0  0
  -26.5891  -26.7192   19.0459 C   0  0  0  0  0  0  0  0  0  0  0  0
  -30.3697  -30.4314   16.0348 C   0  0  0  0  0  0  0  0  0  0  0  0
  -26.6582  -26.8700   20.4382 C   0  0  0  0  0  0  0  0  0  0  0  0
  -28.5623  -18.8568   23.2567 C   0  0  0  0  0  0  0  0  0  0  0  0
  -28.3520  -17.7905   22.3823 C   0  0  0  0  0  0  0  0  0  0  0  0
  -29.4131  -16.9553   22.0331 C   0  0  0  0  0  0  0  0  0  0  0  0
  -22.1796   -9.5902   23.1109 C   0  0  0  0  0  0  0  0  0  0  0  0
  -27.0798  -24.4864   20.6630 C   0  0  0  0  0  0  0  0  0  0  0  0
  -21.9375   -7.9145   24.7405 C   0  0  0  0  0  0  0  0  0  0  0  0
  -23.0182   -5.7445   26.1210 C   0  0  0  0  0  0  0  0  0  0  0  0
  -21.3149   -6.6679   24.6777 C   0  0  0  0  0  0  0  0  0  0  0  0
  -24.5940  -11.4499   20.1766 C   0  0  0  0  0  0  0  0  0  0  0  0
  -25.3416  -12.3926   18.3361 C   0  0  0  0  0  0  0  0  0  0  0  0
  -22.9342  -11.7278   18.2316 C   0  0  0  0  0  0  0  0  0  0  0  0
  -28.1446  -29.4827   18.8280 C   0  0  0  0  0  0  0  0  0  0  0  0
  -25.6864  -30.5633   20.6478 C   0  0  0  0  0  0  0  0  0  0  0  0
  -23.2025  -29.8539   22.8780 C   0  0  0  0  0  0  0  0  0  0  0  0
  -30.1884  -14.9548   20.7126 C   0  0  0  0  0  0  0  0  0  0  0  0
  -30.5389  -32.9728   15.9742 C   0  0  0  0  0  0  0  0  0  0  0  0
  -26.2953  -27.9026   18.1652 C   0  0  0  0  0  0  0  0  0  0  0  0
  -26.4765  -28.2104   21.1007 C   0  0  0  0  0  0  0  0  0  0  0  0
  -29.8459  -32.9635   17.3343 C   0  0  0  0  0  0  0  0  0  0  0  0
  -25.0561  -17.8517   20.6372 C   0  0  0  0  0  0  0  0  0  0  0  0
  -24.9820  -16.5381   21.3889 C   0  0  0  0  0  0  0  0  0  0  0  0
  -30.1170  -12.1153   18.5657 C   0  0  0  0  0  0  0  0  0  0  0  0
  -30.3407  -31.7927   18.1776 C   0  0  0  0  0  0  0  0  0  0  0  0
  -28.6560  -11.6620   18.6126 C   0  0  0  0  0  0  0  0  0  0  0  0
  -26.5531  -18.1377   20.6060 C   0  0  0  0  0  0  0  0  0  0  0  0
  -26.0423  -16.7093   22.4706 C   0  0  0  0  0  0  0  0  0  0  0  0
  -30.5935  -12.6344   19.9212 C   0  0  0  0  0  0  0  0  0  0  0  0
  -28.2900  -13.2259   20.5639 C   0  0  0  0  0  0  0  0  0  0  0  0
  -30.0160  -30.4529   17.5060 C   0  0  1  0  0  0  0  0  0  0  0  0
  -26.6628  -29.2346   18.8118 C   0  0  1  0  0  0  0  0  0  0  0  0
  -27.7455  -12.7553   19.2053 C   0  0  2  0  0  0  0  0  0  0  0  0
  -27.1965  -19.8036   25.1622 C   0  0  0  0  0  0  0  0  0  0  0  0
  -21.3821  -30.9494   24.2134 C   0  0  0  0  0  0  0  0  0  0  0  0
  -27.7694  -31.6377   22.6014 C   0  0  0  0  0  0  0  0  0  0  0  0
  -25.9536  -31.8512   24.3117 C   0  0  0  0  0  0  0  0  0  0  0  0
  -25.8327  -33.1671   22.1960 C   0  0  0  0  0  0  0  0  0  0  0  0
  -21.0994  -28.2654   21.5315 C   0  0  0  0  0  0  0  0  0  0  0  0
  -26.4204  -22.0158   23.1954 C   0  0  0  0  0  0  0  0  0  0  0  0
  -26.7780  -23.4263   22.7704 C   0  0  0  0  0  0  0  0  0  1  0  0
  -27.4330  -19.7790   23.6542 C   0  0  1  0  0  0  0  0  0  0  0  0
  -25.4213  -30.6734   22.1299 C   0  0  1  0  0  0  0  0  0  0  0  0
  -21.7367  -30.2471   22.9119 C   0  0  2  0  0  0  0  0  0  0  0  0
  -26.2497  -31.8073   22.7974 C   0  0  0  0  0  0  0  0  0  0  0  0
  -25.8752  -11.7230   20.4372 N   0  0  0  0  0  0  0  0  0  0  0  0
  -26.3026  -12.2956   19.2989 N   0  0  0  0  0  0  0  0  0  0  0  0
  -27.0671  -17.5610   21.8544 N   0  0  0  0  0  0  0  0  0  0  0  0
  -26.1974  -29.3381   20.1964 N   0  0  0  0  0  0  0  0  0  0  0  0
  -29.6851  -13.6700   20.4184 N   0  0  0  0  0  0  0  0  0  0  0  0
  -25.6014  -12.9427   17.1310 N   0  0  0  0  0  0  0  0  0  0  0  0
  -21.8749  -11.1402   18.9366 N   0  0  0  0  0  0  0  0  0  0  0  0
  -29.2259  -15.8656   21.1469 N   0  0  0  0  0  0  0  0  0  0  0  0
  -28.6212  -30.1170   17.6966 N   0  0  0  0  0  0  0  0  0  0  0  0
  -23.9774  -30.8227   22.2763 N   0  0  0  0  0  0  0  0  0  0  0  0
  -20.8732  -29.0398   22.7790 N   0  3  0  0  0  0  0  0  0  0  0  0
  -27.6467  -21.1787   23.1970 N   0  3  0  0  0  0  0  0  0  0  0  0
  -22.7467  -12.1172   17.0540 O   0  0  0  0  0  0  0  0  0  0  0  0
  -28.8064  -29.1263   19.7959 O   0  0  0  0  0  0  0  0  0  0  0  0
  -25.4422  -31.5262   19.9166 O   0  0  0  0  0  0  0  0  0  0  0  0
  -23.6190  -28.7949   23.3424 O   0  0  0  0  0  0  0  0  0  0  0  0
  -31.3805  -15.2349   20.5625 O   0  0  0  0  0  0  0  0  0  0  0  0
  -21.4027   -8.9925   24.0552 O   0  0  0  0  0  0  0  0  0  0  0  0
  -27.3227  -23.4043   21.4517 O   0  0  0  0  0  0  0  0  0  1  0  0
  -23.5381   -4.7023   26.7826 F   0  0  0  0  0  0  0  0  0  0  0  0
  -20.1981   -6.5062   23.9549 F   0  0  0  0  0  0  0  0  0  0  0  0
  1  2  1  0  0  0  0
  1  6  2  0  0  0  0
  2  7  2  0  0  0  0
  3  9  2  0  0  0  0
  3 10  1  0  0  0  0
  4 11  2  0  0  0  0
  4 18  1  0  0  0  0
  5 12  1  0  0  0  0
  5 18  2  0  0  0  0
  6 20  1  0  0  0  0
  7 22  1  0  0  0  0
  8 13  2  0  0  0  0
  8 21  1  0  0  0  0
  9 24  1  0  0  0  0
 10 26  2  0  0  0  0
 11 27  1  0  0  0  0
 12 27  2  0  0  0  0
 13 28  1  0  0  0  0
 14 15  2  0  0  0  0
 14 29  1  0  0  0  0
 15 30  1  0  0  0  0
 16 23  1  0  0  0  0
 16 28  2  0  0  0  0
 17 30  2  0  0  0  0
 17 31  1  0  0  0  0
 18 32  1  0  0  0  0
 19 32  1  0  0  0  0
 19 33  2  0  0  0  0
 19 34  1  0  0  0  0
 20 22  2  0  0  0  0
 20 39  1  0  0  0  0
 21 23  2  0  0  0  0
 21 40  1  0  0  0  0
 22 52  1  0  0  0  0
 23 41  1  0  0  0  0
 24 25  2  0  0  0  0
 24 63  1  0  0  0  0
 25 26  1  0  0  0  0
 25 69  1  0  0  0  0
 26 74  1  0  0  0  0
 27 84  1  0  0  0  0
 28 85  1  0  0  0  0
 29 31  2  0  0  0  0
 29 84  1  0  0  0  0
 30 86  1  0  0  0  0
 31 87  1  0  0  0  0
 32 67  2  0  0  0  0
 33 68  1  0  0  0  0
 33 72  1  0  0  0  0
 34 73  1  0  0  0  0
 34 79  2  0  0  0  0
 35 53  1  0  0  0  0
 35 75  1  0  0  0  0
 35 80  2  0  0  0  0
 36 64  1  0  0  0  0
 36 70  1  0  0  0  0
 36 81  2  0  0  0  0
 37 65  1  0  0  0  0
 37 76  1  0  0  0  0
 37 82  2  0  0  0  0
 38 71  1  0  0  0  0
 38 74  1  0  0  0  0
 38 83  2  0  0  0  0
 39 42  1  0  0  0  0
 40 53  1  0  0  0  0
 41 70  1  0  0  0  0
 42 46  1  0  0  0  0
 43 44  1  0  0  0  0
 43 48  1  0  0  0  0
 44 49  1  0  0  0  0
 45 47  1  0  0  0  0
 45 50  1  0  0  0  0
 46 52  1  0  0  0  0
 47 54  1  0  0  0  0
 48 69  1  0  0  0  0
 49 69  1  0  0  0  0
 50 71  1  0  0  0  0
 51 54  1  0  0  0  0
 51 71  1  0  0  0  0
 52 75  1  0  0  0  0
 53 70  1  0  0  0  0
 54 68  1  0  0  0  0
 55 63  1  0  0  0  0
 56 65  1  0  0  0  0
 57 66  1  0  0  0  0
 58 66  1  0  0  0  0
 59 66  1  0  0  0  0
 60 77  1  0  0  0  0
 61 62  1  0  0  0  0
 61 78  1  0  0  0  0
 62 85  1  0  0  0  0
 63 78  1  0  0  0  0
 64 66  1  0  0  0  0
 64 76  1  0  0  0  0
 65 77  1  0  0  0  0
 67 68  1  0  0  0  0
M  CHG  2  77   1  78   1
M  ISO  4  38 100  62 101  74 100  85 101
M  END
> <Batch ID>
0029

> <Smiles>
CNC(C)C(=O)NC(C(=O)N1Cc2cc([101O:1][101CH2:1]CNC(C)c3cccc([100NH:0][100C:0](=O)N4CCCC(n5nc(-c6ccc(Oc7ccc(F)cc7F)cc6)c(C(N)=O)c5N)C4)c3N3CCCC3)ccc2CC1C(=O)NC1CCCc2ccccc21)C(C)(C)C

> <Shape>
0.238

> <Color>
0.094

> <Negative vol penalty>
0.000

$$$$

  -OEChem-04042321343D

 84 93  0     1  0  0  0  0  0999 V2000
  -31.4394  -35.0358   24.2785 C   0  0  0  0  0  0  0  0  0  0  0  0
  -31.5630  -33.7230   23.8348 C   0  0  0  0  0  0  0  0  0  0  0  0
  -23.3466   -9.6985   20.0434 C   0  0  0  0  0  0  0  0  0  0  0  0
  -23.7933  -10.0698   22.3886 C   0  0  0  0  0  0  0  0  0  0  0  0
  -30.3553  -35.4021   25.0749 C   0  0  0  0  0  0  0  0  0  0  0  0
  -30.6029  -32.7755   24.1882 C   0  0  0  0  0  0  0  0  0  0  0  0
  -28.6227  -28.0912   20.7762 C   0  0  0  0  0  0  0  0  0  0  0  0
  -30.6954  -19.6515   20.3980 C   0  0  0  0  0  0  0  0  0  0  0  0
  -30.6221  -18.2700   20.5761 C   0  0  0  0  0  0  0  0  0  0  0  0
  -22.6704   -8.5200   20.3588 C   0  0  0  0  0  0  0  0  0  0  0  0
  -23.1170   -8.8912   22.7039 C   0  0  0  0  0  0  0  0  0  0  0  0
  -28.9547  -26.7373   20.7588 C   0  0  0  0  0  0  0  0  0  0  0  0
  -19.9114   -7.8683   23.0172 C   0  0  0  0  0  0  0  0  0  0  0  0
  -19.0118   -7.9043   24.0825 C   0  0  0  0  0  0  0  0  0  0  0  0
  -27.0661  -26.2620   22.1823 C   0  0  0  0  0  0  0  0  0  0  0  0
  -20.2951   -6.2049   25.2238 C   0  0  0  0  0  0  0  0  0  0  0  0
  -23.9081  -10.4734   21.0584 C   0  0  0  0  0  0  0  0  0  0  0  0
  -24.0606  -12.9840   20.6328 C   0  0  0  0  0  0  0  0  0  0  0  0
  -29.3764  -34.4608   25.4304 C   0  0  0  0  0  0  0  0  0  0  0  0
  -27.5143  -28.5429   21.5070 C   0  0  0  0  0  0  0  0  0  0  0  0
  -29.5054  -33.1293   24.9913 C   0  0  0  0  0  0  0  0  0  0  0  0
  -26.7206  -27.6218   22.2053 C   0  0  0  0  0  0  0  0  0  0  0  0
  -28.8366  -19.9455   21.9132 C   0  0  0  0  0  0  0  0  0  0  0  0
  -28.7633  -18.5640   22.0912 C   0  0  0  0  0  0  0  0  0  0  0  0
  -29.8027  -20.4893   21.0666 C   0  0  0  0  0  0  0  0  0  0  0  0
  -29.6560  -17.7263   21.4227 C   0  0  0  0  0  0  0  0  0  0  0  0
  -22.5556   -8.1164   21.6890 C   0  0  0  0  0  0  0  0  0  0  0  0
  -28.1781  -25.8228   21.4642 C   0  0  0  0  0  0  0  0  0  0  0  0
  -21.0029   -7.0005   23.0551 C   0  0  0  0  0  0  0  0  0  0  0  0
  -19.2036   -7.0727   25.1858 C   0  0  0  0  0  0  0  0  0  0  0  0
  -21.1948   -6.1689   24.1584 C   0  0  0  0  0  0  0  0  0  0  0  0
  -24.6072  -11.6906   20.7332 C   0  0  0  0  0  0  0  0  0  0  0  0
  -25.1280  -13.7833   20.3038 C   0  0  0  0  0  0  0  0  0  0  0  0
  -22.7088  -13.4237   20.8202 C   0  0  0  0  0  0  0  0  0  0  0  0
  -27.1001  -30.5206   23.9607 C   0  0  0  0  0  0  0  0  0  0  0  0
  -23.9576  -30.0121   23.3371 C   0  0  0  0  0  0  0  0  0  0  0  0
  -21.5614  -27.9884   21.9920 C   0  0  0  0  0  0  0  0  0  0  0  0
  -30.4221  -15.3657   20.9902 C   0  0  0  0  0  0  0  0  0  0  0  0
  -28.2474  -34.8928   26.3323 C   0  0  0  0  0  0  0  0  0  0  0  0
  -27.1539  -30.0032   21.4939 C   0  0  0  0  0  0  0  0  0  0  0  0
  -25.5087  -28.0529   22.9888 C   0  0  0  0  0  0  0  0  0  0  0  0
  -27.0751  -33.9153   26.3518 C   0  0  0  0  0  0  0  0  0  0  0  0
  -29.8269  -12.5747   18.8611 C   0  0  0  0  0  0  0  0  0  0  0  0
  -27.5765  -32.4835   26.5107 C   0  0  0  0  0  0  0  0  0  0  0  0
  -28.3709  -12.2023   19.1501 C   0  0  0  0  0  0  0  0  0  0  0  0
  -30.2100  -23.9419   19.8365 C   0  0  0  0  0  0  0  0  0  0  0  0
  -30.5537  -13.0414   20.1211 C   0  0  0  0  0  0  0  0  0  0  0  0
  -29.7422  -22.5090   19.5826 C   0  0  0  0  0  0  0  0  0  0  0  0
  -28.4291  -13.7476   21.1490 C   0  0  0  0  0  0  0  0  0  0  0  0
  -30.1410  -22.8135   21.9531 C   0  0  0  0  0  0  0  0  0  0  0  0
  -28.4714  -32.0784   25.3331 C   0  0  1  0  0  0  0  0  0  0  0  0
  -26.3040  -30.4196   22.6904 C   0  0  1  0  0  0  0  0  0  0  0  0
  -27.6377  -13.3332   19.8978 C   0  0  2  0  0  0  0  0  0  0  0  0
  -29.8770  -24.1712   21.3036 C   0  0  2  0  0  0  0  0  0  1  0  0
  -27.8777  -20.8426   22.6318 C   0  0  0  0  0  0  0  0  0  0  0  0
  -27.7254  -17.9816   22.9995 C   0  0  0  0  0  0  0  0  0  0  0  0
  -19.0784  -27.8214   21.6686 C   0  0  0  0  0  0  0  0  0  0  0  0
  -23.6309  -29.2311   26.2685 C   0  0  0  0  0  0  0  0  0  0  0  0
  -21.4329  -28.1901   25.6739 C   0  0  0  0  0  0  0  0  0  0  0  0
  -21.7788  -30.6394   25.3514 C   0  0  0  0  0  0  0  0  0  0  0  0
  -21.8292  -27.9761   19.0446 C   0  0  0  0  0  0  0  0  0  0  0  0
  -22.9253  -29.0102   23.7947 C   0  0  1  0  0  0  0  0  0  0  0  0
  -20.3955  -28.2856   21.0663 C   0  0  2  0  0  0  0  0  0  0  0  0
  -22.4659  -29.2595   25.2590 C   0  0  0  0  0  0  0  0  0  0  0  0
  -25.9199  -11.6651   20.4878 N   0  0  0  0  0  0  0  0  0  0  0  0
  -26.2070  -12.9524   20.2298 N   0  0  0  0  0  0  0  0  0  0  0  0
  -29.8916  -21.8525   20.8780 N   0  0  3  0  0  0  0  0  0  0  0  0
  -25.2010  -29.4922   22.9503 N   0  0  0  0  0  0  0  0  0  0  0  0
  -29.8032  -14.1163   20.7738 N   0  0  0  0  0  0  0  0  0  0  0  0
  -25.2395  -15.1088   20.0735 N   0  0  0  0  0  0  0  0  0  0  0  0
  -21.7368  -12.4712   21.1553 N   0  0  0  0  0  0  0  0  0  0  0  0
  -29.6005  -16.3202   21.5889 N   0  0  0  0  0  0  0  0  0  0  0  0
  -27.6670  -31.7629   24.1722 N   0  0  0  0  0  0  0  0  0  0  0  0
  -21.8467  -29.0583   22.8136 N   0  0  0  0  0  0  0  0  0  0  0  0
  -20.5833  -27.5957   19.7588 N   0  3  0  0  0  0  0  0  0  0  0  0
  -22.3698  -14.6230   20.6781 O   0  0  0  0  0  0  0  0  0  0  0  0
  -27.1919  -29.5441   24.6955 O   0  0  0  0  0  0  0  0  0  0  0  0
  -23.6690  -31.2112   23.3164 O   0  0  0  0  0  0  0  0  0  0  0  0
  -22.1569  -26.9133   21.9892 O   0  0  0  0  0  0  0  0  0  0  0  0
  -31.5861  -15.5820   20.6433 O   0  0  0  0  0  0  0  0  0  0  0  0
  -21.8957   -6.9665   21.9971 O   0  0  0  0  0  0  0  0  0  0  0  0
  -28.5003  -24.5007   21.4494 O   0  0  0  0  0  0  0  0  0  1  0  0
  -18.3404   -7.1084   26.2095 F   0  0  0  0  0  0  0  0  0  0  0  0
  -22.2422   -5.3341   24.2011 F   0  0  0  0  0  0  0  0  0  0  0  0
  1  2  1  0  0  0  0
  1  5  2  0  0  0  0
  2  6  2  0  0  0  0
  3 10  2  0  0  0  0
  3 17  1  0  0  0  0
  4 11  1  0  0  0  0
  4 17  2  0  0  0  0
  5 19  1  0  0  0  0
  6 21  1  0  0  0  0
  7 12  2  0  0  0  0
  7 20  1  0  0  0  0
  8  9  2  0  0  0  0
  8 25  1  0  0  0  0
  9 26  1  0  0  0  0
 10 27  1  0  0  0  0
 11 27  2  0  0  0  0
 12 28  1  0  0  0  0
 13 14  2  0  0  0  0
 13 29  1  0  0  0  0
 14 30  1  0  0  0  0
 15 22  1  0  0  0  0
 15 28  2  0  0  0  0
 16 30  2  0  0  0  0
 16 31  1  0  0  0  0
 17 32  1  0  0  0  0
 18 32  1  0  0  0  0
 18 33  2  0  0  0  0
 18 34  1  0  0  0  0
 19 21  2  0  0  0  0
 19 39  1  0  0  0  0
 20 22  2  0  0  0  0
 20 40  1  0  0  0  0
 21 51  1  0  0  0  0
 22 41  1  0  0  0  0
 23 24  1  0  0  0  0
 23 25  2  0  0  0  0
 23 55  1  0  0  0  0
 24 26  2  0  0  0  0
 24 56  1  0  0  0  0
 25 67  1  0  0  0  0
 26 72  1  0  0  0  0
 27 81  1  0  0  0  0
 28 82  1  0  0  0  0
 29 31  2  0  0  0  0
 29 81  1  0  0  0  0
 30 83  1  0  0  0  0
 31 84  1  0  0  0  0
 32 65  2  0  0  0  0
 33 66  1  0  0  0  0
 33 70  1  0  0  0  0
 34 71  1  0  0  0  0
 34 76  2  0  0  0  0
 35 52  1  0  0  0  0
 35 73  1  0  0  0  0
 35 77  2  0  0  0  0
 36 62  1  0  0  0  0
 36 68  1  0  0  0  0
 36 78  2  0  0  0  0
 37 63  1  0  0  0  0
 37 74  1  0  0  0  0
 37 79  2  0  0  0  0
 38 69  1  0  0  0  0
 38 72  1  0  0  0  0
 38 80  2  0  0  0  0
 39 42  1  0  0  0  0
 40 52  1  0  0  0  0
 41 68  1  0  0  0  0
 42 44  1  0  0  0  0
 43 45  1  0  0  0  0
 43 47  1  0  0  0  0
 44 51  1  0  0  0  0
 45 53  1  0  0  0  0
 46 48  1  0  0  0  0
 46 54  1  0  0  0  0
 47 69  1  0  0  0  0
 48 67  1  0  0  0  0
 49 53  1  0  0  0  0
 49 69  1  0  0  0  0
 50 54  1  0  0  0  0
 50 67  1  0  0  0  0
 51 73  1  0  0  0  0
 52 68  1  0  0  0  0
 53 66  1  0  0  0  0
 54 82  1  0  0  0  0
 57 63  1  0  0  0  0
 58 64  1  0  0  0  0
 59 64  1  0  0  0  0
 60 64  1  0  0  0  0
 61 75  1  0  0  0  0
 62 64  1  0  0  0  0
 62 74  1  0  0  0  0
 63 75  1  0  0  0  0
 65 66  1  0  0  0  0
M  CHG  1  75   1
M  ISO  4  38 100  54 101  72 100  82 101
M  END
> <Batch ID>
0029

> <Smiles>
CNC(C)C(=O)NC(C(=O)N1Cc2cc([101O:1][101CH:1]3CCN(c4ccc([100NH:0][100C:0](=O)N5CCCC(n6nc(-c7ccc(Oc8ccc(F)cc8F)cc7)c(C(N)=O)c6N)C5)c(C)c4C)C3)ccc2CC1C(=O)NC1CCCc2ccccc21)C(C)(C)C

> <Shape>
0.345

> <Color>
0.189

> <Negative vol penalty>
0.000

$$$$

  -OEChem-04042321343D

 84 93  0     1  0  0  0  0  0999 V2000
  -22.2085  -23.4762   19.4601 C   0  0  0  0  0  0  0  0  0  0  0  0
  -23.4257  -22.8636   19.7403 C   0  0  0  0  0  0  0  0  0  0  0  0
  -22.2712  -29.2675   21.5736 C   0  0  0  0  0  0  0  0  0  0  0  0
  -23.2315  -28.4481   23.6336 C   0  0  0  0  0  0  0  0  0  0  0  0
  -21.0178  -22.8796   19.8728 C   0  0  0  0  0  0  0  0  0  0  0  0
  -23.4530  -21.6545   20.4344 C   0  0  0  0  0  0  0  0  0  0  0  0
  -26.6405  -18.3026   18.3731 C   0  0  0  0  0  0  0  0  0  0  0  0
  -20.9970  -28.9419   22.0380 C   0  0  0  0  0  0  0  0  0  0  0  0
  -21.9572  -28.1225   24.0980 C   0  0  0  0  0  0  0  0  0  0  0  0
  -27.9996  -18.4737   18.6322 C   0  0  0  0  0  0  0  0  0  0  0  0
  -18.7062  -30.2515   24.1523 C   0  0  0  0  0  0  0  0  0  0  0  0
  -17.6921  -31.1931   23.9771 C   0  0  0  0  0  0  0  0  0  0  0  0
  -27.8850  -16.7640   20.3301 C   0  0  0  0  0  0  0  0  0  0  0  0
  -30.3405  -24.4963   23.7481 C   0  0  0  0  0  0  0  0  0  0  0  0
  -30.9528  -23.2890   21.7470 C   0  0  0  0  0  0  0  0  0  0  0  0
  -16.4441  -29.6027   22.6540 C   0  0  0  0  0  0  0  0  0  0  0  0
  -23.3885  -29.0206   22.3713 C   0  0  0  0  0  0  0  0  0  0  0  0
  -25.3857  -30.5771   22.0606 C   0  0  0  0  0  0  0  0  0  0  0  0
  -21.0300  -21.6578   20.5639 C   0  0  0  0  0  0  0  0  0  0  0  0
  -25.8897  -17.3669   19.0993 C   0  0  0  0  0  0  0  0  0  0  0  0
  -22.2614  -21.0417   20.8579 C   0  0  0  0  0  0  0  0  0  0  0  0
  -26.5171  -16.5811   20.0765 C   0  0  0  0  0  0  0  0  0  0  0  0
  -30.8590  -23.4640   24.5296 C   0  0  0  0  0  0  0  0  0  0  0  0
  -31.4714  -22.2566   22.5285 C   0  0  0  0  0  0  0  0  0  0  0  0
  -31.4245  -22.3441   23.9199 C   0  0  0  0  0  0  0  0  0  0  0  0
  -30.3873  -24.4089   22.3567 C   0  0  0  0  0  0  0  0  0  0  0  0
  -20.8399  -28.3693   23.3002 C   0  0  0  0  0  0  0  0  0  0  0  0
  -28.6215  -17.7064   19.6128 C   0  0  0  0  0  0  0  0  0  0  0  0
  -18.5893  -28.9856   23.5783 C   0  0  0  0  0  0  0  0  0  0  0  0
  -16.5611  -30.8687   23.2280 C   0  0  0  0  0  0  0  0  0  0  0  0
  -17.4583  -28.6612   22.8292 C   0  0  0  0  0  0  0  0  0  0  0  0
  -24.7052  -29.3563   21.8919 C   0  0  0  0  0  0  0  0  0  0  0  0
  -26.5893  -30.3898   21.4260 C   0  0  0  0  0  0  0  0  0  0  0  0
  -24.9672  -31.7734   22.7310 C   0  0  0  0  0  0  0  0  0  0  0  0
  -23.3927  -17.5299   21.0593 C   0  0  0  0  0  0  0  0  0  0  0  0
  -23.5722  -14.2938   20.9275 C   0  0  0  0  0  0  0  0  0  0  0  0
  -25.4767  -11.5183   20.3654 C   0  0  0  0  0  0  0  0  0  0  0  0
  -29.8290  -25.5285   20.1701 C   0  0  0  0  0  0  0  0  0  0  0  0
  -19.7198  -21.0749   21.0311 C   0  0  0  0  0  0  0  0  0  0  0  0
  -24.4304  -17.1755   18.7892 C   0  0  0  0  0  0  0  0  0  0  0  0
  -25.7602  -15.5487   20.8700 C   0  0  0  0  0  0  0  0  0  0  0  0
  -19.8159  -19.6056   21.4336 C   0  0  0  0  0  0  0  0  0  0  0  0
  -28.5892  -27.9209   17.8428 C   0  0  0  0  0  0  0  0  0  0  0  0
  -21.0315  -19.3748   22.3257 C   0  0  0  0  0  0  0  0  0  0  0  0
  -27.5187  -28.6756   18.6343 C   0  0  0  0  0  0  0  0  0  0  0  0
  -28.6168  -26.4358   18.1997 C   0  0  0  0  0  0  0  0  0  0  0  0
  -27.6674  -26.8988   20.4253 C   0  0  0  0  0  0  0  0  0  0  0  0
  -30.0455  -19.7189   21.5935 C   0  0  0  0  0  0  0  0  0  0  0  0
  -31.8400  -18.6827   21.3311 C   0  0  0  0  0  0  0  0  0  0  0  0
  -22.3309  -19.7174   21.5870 C   0  0  1  0  0  0  0  0  0  0  0  0
  -23.6503  -16.5559   19.9446 C   0  0  1  0  0  0  0  0  0  0  0  0
  -27.6450  -28.4107   20.1474 C   0  0  2  0  0  0  0  0  0  0  0  0
  -30.3649  -18.2701   21.1841 C   0  0  0  0  0  0  0  0  0  1  0  0
  -30.7959  -23.5817   26.0174 C   0  0  0  0  0  0  0  0  0  0  0  0
  -31.9810  -21.2374   24.7582 C   0  0  0  0  0  0  0  0  0  0  0  0
  -25.3553   -9.0117   20.3707 C   0  0  0  0  0  0  0  0  0  0  0  0
  -23.6505  -14.2988   23.9778 C   0  0  0  0  0  0  0  0  0  0  0  0
  -24.4724  -11.9355   23.8911 C   0  0  0  0  0  0  0  0  0  0  0  0
  -22.2241  -12.5067   22.9738 C   0  0  0  0  0  0  0  0  0  0  0  0
  -26.1600  -11.3633   17.4900 C   0  0  0  0  0  0  0  0  0  0  0  0
  -32.0742  -21.0632   21.8479 C   0  0  0  0  0  0  0  0  0  0  0  0
  -24.2955  -13.2301   21.7177 C   0  0  1  0  0  0  0  0  0  0  0  0
  -25.2231  -10.2742   19.5332 C   0  0  2  0  0  0  0  0  0  0  0  0
  -23.6747  -13.0135   23.1267 C   0  0  0  0  0  0  0  0  0  0  0  0
  -25.4173  -28.4598   21.2040 N   0  0  0  0  0  0  0  0  0  0  0  0
  -26.5577  -29.1179   20.9346 N   0  0  0  0  0  0  0  0  0  0  0  0
  -24.3341  -15.4032   20.5344 N   0  0  0  0  0  0  0  0  0  0  0  0
  -28.7424  -26.2620   19.6485 N   0  0  0  0  0  0  0  0  0  0  0  0
  -27.6610  -31.1907   21.2458 N   0  0  0  0  0  0  0  0  0  0  0  0
  -23.7001  -31.7955   23.3295 N   0  0  0  0  0  0  0  0  0  0  0  0
  -29.8616  -25.4580   21.5625 N   0  0  0  0  0  0  0  0  0  0  0  0
  -22.6880  -18.6540   20.6727 N   0  0  0  0  0  0  0  0  0  0  0  0
  -24.3068  -12.0359   20.8797 N   0  0  0  0  0  0  0  0  0  0  0  0
  -31.3923  -19.7955   22.1890 N   0  3  0  0  0  0  0  0  0  0  0  0
  -26.1973  -10.1961   18.4082 N   0  3  0  0  0  0  0  0  0  0  0  0
  -25.6887  -32.7982   22.7831 O   0  0  0  0  0  0  0  0  0  0  0  0
  -23.8016  -17.2795   22.1871 O   0  0  0  0  0  0  0  0  0  0  0  0
  -22.3770  -14.1424   20.6626 O   0  0  0  0  0  0  0  0  0  0  0  0
  -26.6007  -11.9821   20.5445 O   0  0  0  0  0  0  0  0  0  0  0  0
  -30.6837  -25.0248   19.4369 O   0  0  0  0  0  0  0  0  0  0  0  0
  -19.5966  -28.0516   23.7539 O   0  0  0  0  0  0  0  0  0  0  0  0
  -29.9479  -17.8719   19.8682 O   0  0  0  0  0  0  0  0  0  1  0  0
  -15.5867  -31.7724   23.0611 F   0  0  0  0  0  0  0  0  0  0  0  0
  -17.3398  -27.4462   22.2764 F   0  0  0  0  0  0  0  0  0  0  0  0
  1  2  1  0  0  0  0
  1  5  2  0  0  0  0
  2  6  2  0  0  0  0
  3  8  2  0  0  0  0
  3 17  1  0  0  0  0
  4  9  1  0  0  0  0
  4 17  2  0  0  0  0
  5 19  1  0  0  0  0
  6 21  1  0  0  0  0
  7 10  2  0  0  0  0
  7 20  1  0  0  0  0
  8 27  1  0  0  0  0
  9 27  2  0  0  0  0
 10 28  1  0  0  0  0
 11 12  2  0  0  0  0
 11 29  1  0  0  0  0
 12 30  1  0  0  0  0
 13 22  1  0  0  0  0
 13 28  2  0  0  0  0
 14 23  2  0  0  0  0
 14 26  1  0  0  0  0
 15 24  1  0  0  0  0
 15 26  2  0  0  0  0
 16 30  2  0  0  0  0
 16 31  1  0  0  0  0
 17 32  1  0  0  0  0
 18 32  1  0  0  0  0
 18 33  2  0  0  0  0
 18 34  1  0  0  0  0
 19 21  2  0  0  0  0
 19 39  1  0  0  0  0
 20 22  2  0  0  0  0
 20 40  1  0  0  0  0
 21 50  1  0  0  0  0
 22 41  1  0  0  0  0
 23 25  1  0  0  0  0
 23 54  1  0  0  0  0
 24 25  2  0  0  0  0
 24 61  1  0  0  0  0
 25 55  1  0  0  0  0
 26 71  1  0  0  0  0
 27 81  1  0  0  0  0
 28 82  1  0  0  0  0
 29 31  2  0  0  0  0
 29 81  1  0  0  0  0
 30 83  1  0  0  0  0
 31 84  1  0  0  0  0
 32 65  2  0  0  0  0
 33 66  1  0  0  0  0
 33 69  1  0  0  0  0
 34 70  1  0  0  0  0
 34 76  2  0  0  0  0
 35 51  1  0  0  0  0
 35 72  1  0  0  0  0
 35 77  2  0  0  0  0
 36 62  1  0  0  0  0
 36 67  1  0  0  0  0
 36 78  2  0  0  0  0
 37 63  1  0  0  0  0
 37 73  1  0  0  0  0
 37 79  2  0  0  0  0
 38 68  1  0  0  0  0
 38 71  1  0  0  0  0
 38 80  2  0  0  0  0
 39 42  1  0  0  0  0
 40 51  1  0  0  0  0
 41 67  1  0  0  0  0
 42 44  1  0  0  0  0
 43 45  1  0  0  0  0
 43 46  1  0  0  0  0
 44 50  1  0  0  0  0
 45 52  1  0  0  0  0
 46 68  1  0  0  0  0
 47 52  1  0  0  0  0
 47 68  1  0  0  0  0
 48 53  1  0  0  0  0
 48 74  1  0  0  0  0
 49 53  1  0  0  0  0
 49 74  1  0  0  0  0
 50 72  1  0  0  0  0
 51 67  1  0  0  0  0
 52 66  1  0  0  0  0
 53 82  1  0  0  0  0
 56 63  1  0  0  0  0
 57 64  1  0  0  0  0
 58 64  1  0  0  0  0
 59 64  1  0  0  0  0
 60 75  1  0  0  0  0
 61 74  1  0  0  0  0
 62 64  1  0  0  0  0
 62 73  1  0  0  0  0
 63 75  1  0  0  0  0
 65 66  1  0  0  0  0
M  CHG  2  74   1  75   1
M  ISO  4  38 100  53 101  71 100  82 101
M  END
> <Batch ID>
0029

> <Smiles>
CNC(C)C(=O)NC(C(=O)N1Cc2cc([101O:1][101CH:1]3CN(Cc4cc([100NH:0][100C:0](=O)N5CCCC(n6nc(-c7ccc(Oc8ccc(F)cc8F)cc7)c(C(N)=O)c6N)C5)cc(C)c4C)C3)ccc2CC1C(=O)NC1CCCc2ccccc21)C(C)(C)C

> <Shape>
0.239

> <Color>
0.077

> <Negative vol penalty>
0.000

$$$$

  -OEChem-04042321343D

 92102  0     1  0  0  0  0  0999 V2000
  -16.5036  -29.5838   23.4941 C   0  0  0  0  0  0  0  0  0  0  0  0
  -17.5194  -30.5325   23.5259 C   0  0  0  0  0  0  0  0  0  0  0  0
  -31.0011  -12.6668   17.3485 C   0  0  0  0  0  0  0  0  0  0  0  0
  -28.8319  -12.4278   16.3120 C   0  0  0  0  0  0  0  0  0  0  0  0
  -16.8167  -28.2389   23.3090 C   0  0  0  0  0  0  0  0  0  0  0  0
  -18.8475  -30.1381   23.3605 C   0  0  0  0  0  0  0  0  0  0  0  0
  -26.7413  -30.9246   22.8189 C   0  0  0  0  0  0  0  0  0  0  0  0
  -31.6143  -12.3079   16.1481 C   0  0  0  0  0  0  0  0  0  0  0  0
  -29.4450  -12.0690   15.1116 C   0  0  0  0  0  0  0  0  0  0  0  0
  -27.9386  -30.2158   22.9069 C   0  0  0  0  0  0  0  0  0  0  0  0
  -32.2513   -9.4687   14.4285 C   0  0  0  0  0  0  0  0  0  0  0  0
  -33.2975   -8.5480   14.4859 C   0  0  0  0  0  0  0  0  0  0  0  0
  -27.1437  -28.6764   21.2283 C   0  0  0  0  0  0  0  0  0  0  0  0
  -30.0214  -20.3286   20.9969 C   0  0  0  0  0  0  0  0  0  0  0  0
  -27.9382  -21.5092   20.6750 C   0  0  0  0  0  0  0  0  0  0  0  0
  -34.7886  -10.1817   13.5139 C   0  0  0  0  0  0  0  0  0  0  0  0
  -29.6099  -12.7267   17.4304 C   0  0  0  0  0  0  0  0  0  0  0  0
  -29.0810  -12.4362   19.9091 C   0  0  0  0  0  0  0  0  0  0  0  0
  -18.1506  -27.8272   23.1539 C   0  0  0  0  0  0  0  0  0  0  0  0
  -25.7301  -30.5076   21.9414 C   0  0  0  0  0  0  0  0  0  0  0  0
  -19.1819  -28.7884   23.1486 C   0  0  0  0  0  0  0  0  0  0  0  0
  -25.9355  -29.3831   21.1292 C   0  0  0  0  0  0  0  0  0  0  0  0
  -30.7135  -21.5389   20.9564 C   0  0  0  0  0  0  0  0  0  0  0  0
  -30.0180  -22.7344   20.7753 C   0  0  0  0  0  0  0  0  0  0  0  0
  -28.6337  -20.3137   20.8561 C   0  0  0  0  0  0  0  0  0  0  0  0
  -30.8362  -12.0091   15.0297 C   0  0  0  0  0  0  0  0  0  0  0  0
  -28.1389  -29.0899   22.1137 C   0  0  0  0  0  0  0  0  0  0  0  0
  -32.4737  -10.7459   13.9137 C   0  0  0  0  0  0  0  0  0  0  0  0
  -34.5662   -8.9045   14.0286 C   0  0  0  0  0  0  0  0  0  0  0  0
  -33.7424  -11.1024   13.4565 C   0  0  0  0  0  0  0  0  0  0  0  0
  -28.6303  -22.7195   20.6346 C   0  0  0  0  0  0  0  0  0  0  0  0
  -28.9760  -13.0967   18.6703 C   0  0  0  0  0  0  0  0  0  0  0  0
  -28.2975  -13.1764   20.7604 C   0  0  0  0  0  0  0  0  0  0  0  0
  -29.7906  -26.1760   21.4290 C   0  0  0  0  0  0  0  0  0  0  0  0
  -29.8208  -11.2590   20.2590 C   0  0  0  0  0  0  0  0  0  0  0  0
  -22.7302  -29.5148   22.2855 C   0  0  0  0  0  0  0  0  0  0  0  0
  -22.7379  -29.6108   19.0431 C   0  0  0  0  0  0  0  0  0  0  0  0
  -25.0083  -28.7110   16.3874 C   0  0  0  0  0  0  0  0  0  0  0  0
  -26.5555  -18.8922   20.7735 C   0  0  0  0  0  0  0  0  0  0  0  0
  -18.4323  -26.3596   22.9488 C   0  0  0  0  0  0  0  0  0  0  0  0
  -24.4549  -31.2986   21.8389 C   0  0  0  0  0  0  0  0  0  0  0  0
  -24.8894  -28.9059   20.1564 C   0  0  0  0  0  0  0  0  0  0  0  0
  -19.8853  -25.9886   23.2269 C   0  0  0  0  0  0  0  0  0  0  0  0
  -30.1068  -25.4040   24.2381 C   0  0  0  0  0  0  0  0  0  0  0  0
  -24.4467  -16.0234   20.7826 C   0  0  0  0  0  0  0  0  0  0  0  0
  -33.8585  -20.6859   17.9184 C   0  0  0  0  0  0  0  0  0  0  0  0
  -34.9448  -20.7525   18.9730 C   0  0  0  0  0  0  0  0  0  0  0  0
  -20.8152  -26.9431   22.4928 C   0  0  0  0  0  0  0  0  0  0  0  0
  -30.0711  -26.8699   23.8597 C   0  0  0  0  0  0  0  0  0  0  0  0
  -25.3799  -14.8862   20.3606 C   0  0  0  0  0  0  0  0  0  0  0  0
  -30.7849  -24.6087   23.1369 C   0  0  0  0  0  0  0  0  0  0  0  0
  -24.7695  -17.3238   20.0487 C   0  0  0  0  0  0  0  0  0  0  0  0
  -27.1046  -16.6153   19.7107 C   0  0  0  0  0  0  0  0  0  0  0  0
  -32.5921  -20.7478   18.7451 C   0  0  0  0  0  0  0  0  0  0  0  0
  -34.4391  -21.7917   19.9582 C   0  0  0  0  0  0  0  0  0  0  0  0
  -20.6363  -28.3791   23.0016 C   0  0  1  0  0  0  0  0  0  0  0  0
  -29.2747  -27.0305   22.5798 C   0  0  1  0  0  0  0  0  0  1  0  0
  -23.2900  -30.4848   21.2838 C   0  0  1  0  0  0  0  0  0  0  0  0
  -26.8601  -15.3015   20.4708 C   0  0  2  0  0  0  0  0  0  0  0  0
  -25.2370  -29.6185   14.0590 C   0  0  0  0  0  0  0  0  0  0  0  0
  -20.8866  -27.3099   18.2757 C   0  0  0  0  0  0  0  0  0  0  0  0
  -22.2288  -27.0203   16.1821 C   0  0  0  0  0  0  0  0  0  0  0  0
  -21.0082  -29.1566   16.5936 C   0  0  0  0  0  0  0  0  0  0  0  0
  -27.8757  -29.3271   16.7845 C   0  0  0  0  0  0  0  0  0  0  0  0
  -30.7783  -24.0284   20.7329 C   0  0  0  0  0  0  0  0  0  0  0  0
  -32.1996  -21.5260   21.1088 C   0  0  0  0  0  0  0  0  0  0  0  0
  -23.0794  -28.6323   17.9454 C   0  0  1  0  0  0  0  0  0  0  0  0
  -25.7707  -29.6619   15.4824 C   0  0  2  0  0  0  0  0  0  0  0  0
  -21.8133  -28.0285   17.2747 C   0  0  0  0  0  0  0  0  0  0  0  0
  -28.1877  -14.1736   18.7253 N   0  0  0  0  0  0  0  0  0  0  0  0
  -27.7902  -14.1954   20.0089 N   0  0  0  0  0  0  0  0  0  0  0  0
  -30.3508  -24.9464   21.7802 N   0  0  0  0  0  0  0  0  0  0  0  0
  -23.6570  -29.7091   20.0973 N   0  0  0  0  0  0  0  0  0  0  0  0
  -26.1877  -17.6563   20.2007 N   0  0  0  0  0  0  0  0  0  0  0  0
  -27.9998  -13.0485   22.0709 N   0  0  0  0  0  0  0  0  0  0  0  0
  -30.5735  -10.6221   19.2628 N   0  0  0  0  0  0  0  0  0  0  0  0
  -27.9312  -19.0838   20.8969 N   0  0  0  0  0  0  0  0  0  0  0  0
  -21.3759  -29.2792   22.1444 N   0  0  0  0  0  0  0  0  0  0  0  0
  -23.9618  -29.3422   17.0257 N   0  0  0  0  0  0  0  0  0  0  0  0
  -32.9277  -21.7547   19.8234 N   0  3  0  0  0  0  0  0  0  0  0  0
  -27.2166  -29.3021   15.4534 N   0  3  0  0  0  0  0  0  0  0  0  0
  -29.6408  -26.5572   20.2652 O   0  0  0  0  0  0  0  0  0  0  0  0
  -29.8015  -10.7764   21.4167 O   0  0  0  0  0  0  0  0  0  0  0  0
  -23.4723  -29.0158   23.1233 O   0  0  0  0  0  0  0  0  0  0  0  0
  -21.6975  -30.2689   18.9645 O   0  0  0  0  0  0  0  0  0  0  0  0
  -25.3088  -27.5258   16.5125 O   0  0  0  0  0  0  0  0  0  0  0  0
  -25.7117  -19.7082   21.1534 O   0  0  0  0  0  0  0  0  0  0  0  0
  -31.4342  -11.6591   13.8581 O   0  0  0  0  0  0  0  0  0  0  0  0
  -29.3064  -28.3958   22.1980 O   0  0  0  0  0  0  0  0  0  1  0  0
  -35.5712   -8.0207   14.0853 F   0  0  0  0  0  0  0  0  0  0  0  0
  -33.9624  -12.3284   12.9620 F   0  0  0  0  0  0  0  0  0  0  0  0
  -27.7324  -24.1773   20.4111 Cl  0  0  0  0  0  0  0  0  0  0  0  0
  1  2  1  0  0  0  0
  1  5  2  0  0  0  0
  2  6  2  0  0  0  0
  3  8  2  0  0  0  0
  3 17  1  0  0  0  0
  4  9  1  0  0  0  0
  4 17  2  0  0  0  0
  5 19  1  0  0  0  0
  6 21  1  0  0  0  0
  7 10  2  0  0  0  0
  7 20  1  0  0  0  0
  8 26  1  0  0  0  0
  9 26  2  0  0  0  0
 10 27  1  0  0  0  0
 11 12  2  0  0  0  0
 11 28  1  0  0  0  0
 12 29  1  0  0  0  0
 13 22  1  0  0  0  0
 13 27  2  0  0  0  0
 14 23  1  0  0  0  0
 14 25  2  0  0  0  0
 15 25  1  0  0  0  0
 15 31  2  0  0  0  0
 16 29  2  0  0  0  0
 16 30  1  0  0  0  0
 17 32  1  0  0  0  0
 18 32  1  0  0  0  0
 18 33  2  0  0  0  0
 18 35  1  0  0  0  0
 19 21  2  0  0  0  0
 19 40  1  0  0  0  0
 20 22  2  0  0  0  0
 20 41  1  0  0  0  0
 21 56  1  0  0  0  0
 22 42  1  0  0  0  0
 23 24  2  0  0  0  0
 23 66  1  0  0  0  0
 24 31  1  0  0  0  0
 24 65  1  0  0  0  0
 25 77  1  0  0  0  0
 26 88  1  0  0  0  0
 27 89  1  0  0  0  0
 28 30  2  0  0  0  0
 28 88  1  0  0  0  0
 29 90  1  0  0  0  0
 30 91  1  0  0  0  0
 31 92  1  0  0  0  0
 32 70  2  0  0  0  0
 33 71  1  0  0  0  0
 33 75  1  0  0  0  0
 34 57  1  0  0  0  0
 34 72  1  0  0  0  0
 34 82  2  0  0  0  0
 35 76  1  0  0  0  0
 35 83  2  0  0  0  0
 36 58  1  0  0  0  0
 36 78  1  0  0  0  0
 36 84  2  0  0  0  0
 37 67  1  0  0  0  0
 37 73  1  0  0  0  0
 37 85  2  0  0  0  0
 38 68  1  0  0  0  0
 38 79  1  0  0  0  0
 38 86  2  0  0  0  0
 39 74  1  0  0  0  0
 39 77  1  0  0  0  0
 39 87  2  0  0  0  0
 40 43  1  0  0  0  0
 41 58  1  0  0  0  0
 42 73  1  0  0  0  0
 43 48  1  0  0  0  0
 44 49  1  0  0  0  0
 44 51  1  0  0  0  0
 45 50  1  0  0  0  0
 45 52  1  0  0  0  0
 46 47  1  0  0  0  0
 46 54  1  0  0  0  0
 47 55  1  0  0  0  0
 48 56  1  0  0  0  0
 49 57  1  0  0  0  0
 50 59  1  0  0  0  0
 51 72  1  0  0  0  0
 52 74  1  0  0  0  0
 53 59  1  0  0  0  0
 53 74  1  0  0  0  0
 54 80  1  0  0  0  0
 55 80  1  0  0  0  0
 56 78  1  0  0  0  0
 57 89  1  0  0  0  0
 58 73  1  0  0  0  0
 59 71  1  0  0  0  0
 60 68  1  0  0  0  0
 61 69  1  0  0  0  0
 62 69  1  0  0  0  0
 63 69  1  0  0  0  0
 64 81  1  0  0  0  0
 65 72  1  0  0  0  0
 66 80  1  0  0  0  0
 67 69  1  0  0  0  0
 67 79  1  0  0  0  0
 68 81  1  0  0  0  0
 70 71  1  0  0  0  0
M  CHG  2  80   1  81   1
M  ISO  4  39 100  57 101  77 100  89 101
M  END
> <Batch ID>
0029

> <Smiles>
CNC(C)C(=O)NC(C(=O)N1Cc2cc([101O:1][101CH:1]3CCCN(Cc4c(Cl)cc([100NH:0][100C:0](=O)N5CCCC(n6nc(-c7ccc(Oc8ccc(F)cc8F)cc7)c(C(N)=O)c6N)C5)cc4CN4CCCC4)C3=O)ccc2CC1C(=O)NC1CCCc2ccccc21)C(C)(C)C

> <Shape>
0.263

> <Color>
0.098

> <Negative vol penalty>
0.000

$$$$

  -OEChem-04042321343D

 86 95  0     1  0  0  0  0  0999 V2000
  -23.8675  -36.8679   27.5135 C   0  0  0  0  0  0  0  0  0  0  0  0
  -23.1396  -35.8336   26.9342 C   0  0  0  0  0  0  0  0  0  0  0  0
  -23.6446   -9.9882   22.3747 C   0  0  0  0  0  0  0  0  0  0  0  0
  -24.1119   -9.5593   20.0434 C   0  0  0  0  0  0  0  0  0  0  0  0
  -25.0224  -37.3398   26.8910 C   0  0  0  0  0  0  0  0  0  0  0  0
  -23.5655  -35.2712   25.7314 C   0  0  0  0  0  0  0  0  0  0  0  0
  -23.3645  -30.2113   25.7738 C   0  0  0  0  0  0  0  0  0  0  0  0
  -23.5546   -8.6161   22.6091 C   0  0  0  0  0  0  0  0  0  0  0  0
  -24.0220   -8.1872   20.2778 C   0  0  0  0  0  0  0  0  0  0  0  0
  -22.1132  -29.6223   25.5977 C   0  0  0  0  0  0  0  0  0  0  0  0
  -22.8463   -5.2357   23.7471 C   0  0  0  0  0  0  0  0  0  0  0  0
  -21.7819   -4.7773   24.5232 C   0  0  0  0  0  0  0  0  0  0  0  0
  -22.6387  -29.2132   23.2792 C   0  0  0  0  0  0  0  0  0  0  0  0
  -18.2167  -24.2943   22.3457 C   0  0  0  0  0  0  0  0  0  0  0  0
  -20.3726  -24.6278   21.3074 C   0  0  0  0  0  0  0  0  0  0  0  0
  -20.2206   -5.6930   22.9228 C   0  0  0  0  0  0  0  0  0  0  0  0
  -23.9232  -10.4598   21.0919 C   0  0  0  0  0  0  0  0  0  0  0  0
  -19.3462  -22.4408   21.2850 C   0  0  0  0  0  0  0  0  0  0  0  0
  -25.1689  -12.6803   20.9322 C   0  0  0  0  0  0  0  0  0  0  0  0
  -25.4681  -36.7764   25.6849 C   0  0  0  0  0  0  0  0  0  0  0  0
  -24.2596  -30.3156   24.6994 C   0  0  0  0  0  0  0  0  0  0  0  0
  -24.7267  -35.7369   25.0915 C   0  0  0  0  0  0  0  0  0  0  0  0
  -23.9018  -29.8017   23.4449 C   0  0  0  0  0  0  0  0  0  0  0  0
  -18.2511  -22.9475   21.9846 C   0  0  0  0  0  0  0  0  0  0  0  0
  -19.2774  -25.1345   22.0071 C   0  0  0  0  0  0  0  0  0  0  0  0
  -23.7433   -7.7156   21.5606 C   0  0  0  0  0  0  0  0  0  0  0  0
  -21.7490  -29.1257   24.3495 C   0  0  0  0  0  0  0  0  0  0  0  0
  -22.5979   -5.9229   22.5589 C   0  0  0  0  0  0  0  0  0  0  0  0
  -20.4690   -5.0059   24.1111 C   0  0  0  0  0  0  0  0  0  0  0  0
  -21.2851   -6.1515   22.1467 C   0  0  0  0  0  0  0  0  0  0  0  0
  -20.4070  -23.2809   20.9463 C   0  0  0  0  0  0  0  0  0  0  0  0
  -24.0157  -11.8770   20.8490 C   0  0  0  0  0  0  0  0  0  0  0  0
  -24.7320  -13.9424   20.6116 C   0  0  0  0  0  0  0  0  0  0  0  0
  -19.3645  -21.0152   20.9122 C   0  0  0  0  0  0  0  0  0  0  0  0
  -26.5146  -12.3179   21.2691 C   0  0  0  0  0  0  0  0  0  0  0  0
  -25.6269  -32.7278   23.1452 C   0  0  0  0  0  0  0  0  0  0  0  0
  -27.2359  -30.3407   21.6501 C   0  0  0  0  0  0  0  0  0  0  0  0
  -27.3391  -27.0613   20.7111 C   0  0  0  0  0  0  0  0  0  0  0  0
  -21.0977  -18.0000   21.2730 C   0  0  0  0  0  0  0  0  0  0  0  0
  -26.6962  -37.3517   25.0251 C   0  0  0  0  0  0  0  0  0  0  0  0
  -25.6161  -30.9297   24.9123 C   0  0  0  0  0  0  0  0  0  0  0  0
  -24.8344  -29.8709   22.2642 C   0  0  0  0  0  0  0  0  0  0  0  0
  -27.2864  -36.4492   23.9446 C   0  0  0  0  0  0  0  0  0  0  0  0
  -20.3444  -15.5275   18.6838 C   0  0  0  0  0  0  0  0  0  0  0  0
  -26.1869  -35.9299   23.0235 C   0  0  0  0  0  0  0  0  0  0  0  0
  -21.3157  -14.4070   19.0495 C   0  0  0  0  0  0  0  0  0  0  0  0
  -18.4244  -28.5859   22.9870 C   0  0  0  0  0  0  0  0  0  0  0  0
  -19.8053  -16.2371   19.9246 C   0  0  0  0  0  0  0  0  0  0  0  0
  -18.1431  -27.0873   23.0956 C   0  0  0  0  0  0  0  0  0  0  0  0
  -21.8389  -15.6382   21.1958 C   0  0  0  0  0  0  0  0  0  0  0  0
  -20.3077  -27.4232   22.0601 C   0  0  0  0  0  0  0  0  0  0  0  0
  -25.1703  -35.0844   23.8002 C   0  0  1  0  0  0  0  0  0  0  0  0
  -26.2475  -31.4455   23.6229 C   0  0  1  0  0  0  0  0  0  0  0  0
  -22.4331  -14.9271   19.9690 C   0  0  1  0  0  0  0  0  0  0  0  0
  -19.9409  -28.6575   22.8829 C   0  0  2  0  0  0  0  0  0  1  0  0
  -17.0989  -22.0738   22.3624 C   0  0  0  0  0  0  0  0  0  0  0  0
  -28.7639  -25.4125   19.4668 C   0  0  0  0  0  0  0  0  0  0  0  0
  -26.3211  -31.5515   19.0030 C   0  0  0  0  0  0  0  0  0  0  0  0
  -26.9402  -29.3989   17.8844 C   0  0  0  0  0  0  0  0  0  0  0  0
  -28.6933  -30.7598   19.0235 C   0  0  0  0  0  0  0  0  0  0  0  0
  -27.6748  -25.3637   23.1120 C   0  0  0  0  0  0  0  0  0  0  0  0
  -27.0007  -29.5014   20.4175 C   0  0  1  0  0  0  0  0  0  0  0  0
  -28.4336  -26.0154   20.8232 C   0  0  2  0  0  0  0  0  0  0  0  0
  -27.2202  -30.3032   19.1037 C   0  0  0  0  0  0  0  0  0  0  0  0
  -22.9281  -12.5707   20.5029 N   0  0  0  0  0  0  0  0  0  0  0  0
  -20.2915  -20.2124   21.3237 N   0  0  0  0  0  0  0  0  0  0  0  0
  -23.3958  -13.8231   20.3658 N   0  0  0  0  0  0  0  0  0  0  0  0
  -19.2432  -26.4662   22.3641 N   0  0  3  0  0  0  0  0  0  0  0  0
  -26.1470  -30.4861   22.5212 N   0  0  0  0  0  0  0  0  0  0  0  0
  -20.9026  -16.6938   20.7910 N   0  0  0  0  0  0  0  0  0  0  0  0
  -25.3644  -15.1315   20.5189 N   0  0  0  0  0  0  0  0  0  0  0  0
  -26.7897  -10.9774   21.5716 N   0  0  0  0  0  0  0  0  0  0  0  0
  -25.7029  -33.7634   24.0569 N   0  0  0  0  0  0  0  0  0  0  0  0
  -27.8582  -28.3288   20.5524 N   0  0  0  0  0  0  0  0  0  0  0  0
  -20.1521  -18.9364   20.8850 N   0  0  0  0  0  0  0  0  0  0  0  0
  -28.0081  -24.9162   21.7351 N   0  3  0  0  0  0  0  0  0  0  0  0
  -27.4422  -13.1610   21.3169 O   0  0  0  0  0  0  0  0  0  0  0  0
  -25.1182  -32.7746   22.0313 O   0  0  0  0  0  0  0  0  0  0  0  0
  -28.3471  -30.8429   21.8367 O   0  0  0  0  0  0  0  0  0  0  0  0
  -26.1432  -26.7815   20.7558 O   0  0  0  0  0  0  0  0  0  0  0  0
  -22.0489  -18.3077   22.0005 O   0  0  0  0  0  0  0  0  0  0  0  0
  -23.6558   -6.3767   21.7890 O   0  0  0  0  0  0  0  0  0  0  0  0
  -20.5279  -28.5509   24.1748 O   0  0  0  0  0  0  0  0  0  1  0  0
  -19.4469   -4.5642   24.8557 F   0  0  0  0  0  0  0  0  0  0  0  0
  -21.0402   -6.8099   21.0056 F   0  0  0  0  0  0  0  0  0  0  0  0
  -21.7835  -22.6972   20.0804 Cl  0  0  0  0  0  0  0  0  0  0  0  0
  1  2  1  0  0  0  0
  1  5  2  0  0  0  0
  2  6  2  0  0  0  0
  3  8  2  0  0  0  0
  3 17  1  0  0  0  0
  4  9  1  0  0  0  0
  4 17  2  0  0  0  0
  5 20  1  0  0  0  0
  6 22  1  0  0  0  0
  7 10  2  0  0  0  0
  7 21  1  0  0  0  0
  8 26  1  0  0  0  0
  9 26  2  0  0  0  0
 10 27  1  0  0  0  0
 11 12  2  0  0  0  0
 11 28  1  0  0  0  0
 12 29  1  0  0  0  0
 13 23  1  0  0  0  0
 13 27  2  0  0  0  0
 14 24  2  0  0  0  0
 14 25  1  0  0  0  0
 15 25  2  0  0  0  0
 15 31  1  0  0  0  0
 16 29  2  0  0  0  0
 16 30  1  0  0  0  0
 17 32  1  0  0  0  0
 18 24  1  0  0  0  0
 18 31  2  0  0  0  0
 18 34  1  0  0  0  0
 19 32  1  0  0  0  0
 19 33  2  0  0  0  0
 19 35  1  0  0  0  0
 20 22  2  0  0  0  0
 20 40  1  0  0  0  0
 21 23  2  0  0  0  0
 21 41  1  0  0  0  0
 22 52  1  0  0  0  0
 23 42  1  0  0  0  0
 24 56  1  0  0  0  0
 25 68  1  0  0  0  0
 26 82  1  0  0  0  0
 27 83  1  0  0  0  0
 28 30  2  0  0  0  0
 28 82  1  0  0  0  0
 29 84  1  0  0  0  0
 30 85  1  0  0  0  0
 31 86  1  0  0  0  0
 32 65  2  0  0  0  0
 33 67  1  0  0  0  0
 33 71  1  0  0  0  0
 34 66  2  0  0  0  0
 35 72  1  0  0  0  0
 35 77  2  0  0  0  0
 36 53  1  0  0  0  0
 36 73  1  0  0  0  0
 36 78  2  0  0  0  0
 37 62  1  0  0  0  0
 37 69  1  0  0  0  0
 37 79  2  0  0  0  0
 38 63  1  0  0  0  0
 38 74  1  0  0  0  0
 38 80  2  0  0  0  0
 39 70  1  0  0  0  0
 39 75  1  0  0  0  0
 39 81  2  0  0  0  0
 40 43  1  0  0  0  0
 41 53  1  0  0  0  0
 42 69  1  0  0  0  0
 43 45  1  0  0  0  0
 44 46  1  0  0  0  0
 44 48  1  0  0  0  0
 45 52  1  0  0  0  0
 46 54  1  0  0  0  0
 47 49  1  0  0  0  0
 47 55  1  0  0  0  0
 48 70  1  0  0  0  0
 49 68  1  0  0  0  0
 50 54  1  0  0  0  0
 50 70  1  0  0  0  0
 51 55  1  0  0  0  0
 51 68  1  0  0  0  0
 52 73  1  0  0  0  0
 53 69  1  0  0  0  0
 54 67  1  0  0  0  0
 55 83  1  0  0  0  0
 57 63  1  0  0  0  0
 58 64  1  0  0  0  0
 59 64  1  0  0  0  0
 60 64  1  0  0  0  0
 61 76  1  0  0  0  0
 62 64  1  0  0  0  0
 62 74  1  0  0  0  0
 63 76  1  0  0  0  0
 65 67  1  0  0  0  0
 66 75  1  0  0  0  0
M  CHG  1  76   1
M  ISO  4  39 100  55 101  75 100  83 101
M  END
> <Batch ID>
0029

> <Smiles>
CNC(C)C(=O)NC(C(=O)N1Cc2cc([101O:1][101CH:1]3CCN(c4cc(C)c(C=N[100NH:0][100C:0](=O)N5CCCC(n6nc(-c7ccc(Oc8ccc(F)cc8F)cc7)c(C(N)=O)c6N)C5)c(Cl)c4)C3)ccc2CC1C(=O)NC1CCCc2ccccc21)C(C)(C)C

> <Shape>
0.281

> <Color>
0.111

> <Negative vol penalty>
0.000

$$$$

  -OEChem-04042321343D

 85 94  0     1  0  0  0  0  0999 V2000
  -28.8586  -33.0715   23.6299 C   0  0  0  0  0  0  0  0  0  0  0  0
  -28.8421  -31.7272   23.2720 C   0  0  0  0  0  0  0  0  0  0  0  0
  -22.5829  -12.2301   22.1653 C   0  0  0  0  0  0  0  0  0  0  0  0
  -24.0944  -10.4233   22.7020 C   0  0  0  0  0  0  0  0  0  0  0  0
  -27.7106  -33.6673   24.1504 C   0  0  0  0  0  0  0  0  0  0  0  0
  -27.6777  -30.9777   23.4355 C   0  0  0  0  0  0  0  0  0  0  0  0
  -26.6534  -28.0774   19.4125 C   0  0  0  0  0  0  0  0  0  0  0  0
  -28.4023  -19.8219   21.5810 C   0  0  0  0  0  0  0  0  0  0  0  0
  -30.7486  -19.3536   21.9167 C   0  0  0  0  0  0  0  0  0  0  0  0
  -28.2247  -18.5469   21.0439 C   0  0  0  0  0  0  0  0  0  0  0  0
  -30.5710  -18.0786   21.3796 C   0  0  0  0  0  0  0  0  0  0  0  0
  -21.7990  -11.9029   23.2717 C   0  0  0  0  0  0  0  0  0  0  0  0
  -23.3105  -10.0962   23.8084 C   0  0  0  0  0  0  0  0  0  0  0  0
  -27.3845  -26.8983   19.2749 C   0  0  0  0  0  0  0  0  0  0  0  0
  -20.4179   -8.4541   24.4143 C   0  0  0  0  0  0  0  0  0  0  0  0
  -20.1261   -7.1067   24.6262 C   0  0  0  0  0  0  0  0  0  0  0  0
  -25.5308  -25.6500   20.1830 C   0  0  0  0  0  0  0  0  0  0  0  0
  -21.2184   -7.2087   26.7788 C   0  0  0  0  0  0  0  0  0  0  0  0
  -23.7306  -11.4902   21.8804 C   0  0  0  0  0  0  0  0  0  0  0  0
  -24.1414  -11.8420   19.3874 C   0  0  0  0  0  0  0  0  0  0  0  0
  -26.5287  -32.9271   24.3113 C   0  0  0  0  0  0  0  0  0  0  0  0
  -25.3574  -28.0530   19.9474 C   0  0  0  0  0  0  0  0  0  0  0  0
  -26.5131  -31.5638   23.9599 C   0  0  0  0  0  0  0  0  0  0  0  0
  -24.7843  -26.8299   20.3239 C   0  0  0  0  0  0  0  0  0  0  0  0
  -29.6643  -20.2252   22.0174 C   0  0  0  0  0  0  0  0  0  0  0  0
  -29.3090  -17.6753   20.9432 C   0  0  0  0  0  0  0  0  0  0  0  0
  -22.1628  -10.8360   24.0933 C   0  0  0  0  0  0  0  0  0  0  0  0
  -26.8243  -25.6847   19.6629 C   0  0  0  0  0  0  0  0  0  0  0  0
  -21.1100   -9.1788   25.3846 C   0  0  0  0  0  0  0  0  0  0  0  0
  -20.5263   -6.4840   25.8084 C   0  0  0  0  0  0  0  0  0  0  0  0
  -21.5102   -8.5561   26.5669 C   0  0  0  0  0  0  0  0  0  0  0  0
  -24.5404  -11.8273   20.7374 C   0  0  0  0  0  0  0  0  0  0  0  0
  -25.2674  -12.2255   18.7007 C   0  0  0  0  0  0  0  0  0  0  0  0
  -28.6627  -23.2619   21.2245 C   0  0  0  0  0  0  0  0  0  0  0  0
  -22.8669  -11.5363   18.8062 C   0  0  0  0  0  0  0  0  0  0  0  0
  -23.9648  -29.3142   22.5113 C   0  0  0  0  0  0  0  0  0  0  0  0
  -21.2752  -28.0950   21.1688 C   0  0  0  0  0  0  0  0  0  0  0  0
  -20.3205  -25.0515   19.4828 C   0  0  0  0  0  0  0  0  0  0  0  0
  -30.0989  -15.3928   20.2270 C   0  0  0  0  0  0  0  0  0  0  0  0
  -25.3266  -33.6026   24.9223 C   0  0  0  0  0  0  0  0  0  0  0  0
  -24.5718  -29.3303   20.0644 C   0  0  0  0  0  0  0  0  0  0  0  0
  -23.3890  -26.7472   20.8849 C   0  0  0  0  0  0  0  0  0  0  0  0
  -24.0244  -32.8337   24.7140 C   0  0  0  0  0  0  0  0  0  0  0  0
  -31.1831  -23.9785   19.9125 C   0  0  0  0  0  0  0  0  0  0  0  0
  -30.0468  -12.0664   18.9585 C   0  0  0  0  0  0  0  0  0  0  0  0
  -24.2211  -31.3548   25.0317 C   0  0  0  0  0  0  0  0  0  0  0  0
  -29.8699  -24.1973   19.1907 C   0  0  0  0  0  0  0  0  0  0  0  0
  -28.5911  -11.6311   19.1422 C   0  0  0  0  0  0  0  0  0  0  0  0
  -31.0887  -22.7352   20.7786 C   0  0  0  0  0  0  0  0  0  0  0  0
  -30.5251  -12.9475   20.1111 C   0  0  0  0  0  0  0  0  0  0  0  0
  -28.2188  -13.6740   20.5826 C   0  0  0  0  0  0  0  0  0  0  0  0
  -25.2621  -30.7238   24.0991 C   0  0  1  0  0  0  0  0  0  0  0  0
  -28.7705  -24.3978   20.2150 C   0  0  1  0  0  0  0  0  0  1  0  0
  -23.4540  -29.2516   21.0996 C   0  0  1  0  0  0  0  0  0  0  0  0
  -27.6720  -12.8381   19.4139 C   0  0  2  0  0  0  0  0  0  0  0  0
  -18.5222  -24.6214   17.7862 C   0  0  0  0  0  0  0  0  0  0  0  0
  -19.5832  -27.3180   23.5861 C   0  0  0  0  0  0  0  0  0  0  0  0
  -18.5862  -25.4796   22.2097 C   0  0  0  0  0  0  0  0  0  0  0  0
  -18.2728  -27.8579   21.5256 C   0  0  0  0  0  0  0  0  0  0  0  0
  -22.2513  -23.9025   17.5566 C   0  0  0  0  0  0  0  0  0  0  0  0
  -29.8554  -21.5976   22.5955 C   0  0  0  0  0  0  0  0  0  0  0  0
  -20.5421  -26.7779   21.2505 C   0  0  1  0  0  0  0  0  0  0  0  0
  -20.0024  -24.8914   18.0071 C   0  0  2  0  0  0  0  0  0  0  0  0
  -19.2742  -26.8599   22.1467 C   0  0  0  0  0  0  0  0  0  0  0  0
  -25.8200  -12.1738   20.9006 N   0  0  0  0  0  0  0  0  0  0  0  0
  -26.2348  -12.4098   19.6443 N   0  0  0  0  0  0  0  0  0  0  0  0
  -29.8588  -22.6276   21.5652 N   0  0  0  0  0  0  0  0  0  0  0  0
  -22.6635  -28.0243   20.9856 N   0  0  0  0  0  0  0  0  0  0  0  0
  -29.6081  -14.0724   20.3073 N   0  0  0  0  0  0  0  0  0  0  0  0
  -25.5144  -12.4197   17.3878 N   0  0  0  0  0  0  0  0  0  0  0  0
  -21.8181  -11.1593   19.6560 N   0  0  0  0  0  0  0  0  0  0  0  0
  -29.1288  -16.3799   20.3979 N   0  0  0  0  0  0  0  0  0  0  0  0
  -24.6822  -30.4595   22.7997 N   0  0  0  0  0  0  0  0  0  0  0  0
  -20.2760  -26.3728   19.8745 N   0  0  0  0  0  0  0  0  0  0  0  0
  -20.7783  -23.7574   17.4301 N   0  3  0  0  0  0  0  0  0  0  0  0
  -27.5720  -22.9961   21.7363 O   0  0  0  0  0  0  0  0  0  0  0  0
  -22.6686  -11.5799   17.5683 O   0  0  0  0  0  0  0  0  0  0  0  0
  -23.7245  -28.3925   23.2822 O   0  0  0  0  0  0  0  0  0  0  0  0
  -20.6386  -29.1479   21.2569 O   0  0  0  0  0  0  0  0  0  0  0  0
  -20.5786  -24.0992   20.2157 O   0  0  0  0  0  0  0  0  0  0  0  0
  -31.2869  -15.6306   19.9947 O   0  0  0  0  0  0  0  0  0  0  0  0
  -21.3983  -10.5167   25.1731 O   0  0  0  0  0  0  0  0  0  0  0  0
  -27.5360  -24.5324   19.5303 O   0  0  0  0  0  0  0  0  0  1  0  0
  -20.2447   -5.1904   26.0124 F   0  0  0  0  0  0  0  0  0  0  0  0
  -22.1744   -9.2475   27.5032 F   0  0  0  0  0  0  0  0  0  0  0  0
  1  2  1  0  0  0  0
  1  5  2  0  0  0  0
  2  6  2  0  0  0  0
  3 12  2  0  0  0  0
  3 19  1  0  0  0  0
  4 13  1  0  0  0  0
  4 19  2  0  0  0  0
  5 21  1  0  0  0  0
  6 23  1  0  0  0  0
  7 14  2  0  0  0  0
  7 22  1  0  0  0  0
  8 10  2  0  0  0  0
  8 25  1  0  0  0  0
  9 11  1  0  0  0  0
  9 25  2  0  0  0  0
 10 26  1  0  0  0  0
 11 26  2  0  0  0  0
 12 27  1  0  0  0  0
 13 27  2  0  0  0  0
 14 28  1  0  0  0  0
 15 16  2  0  0  0  0
 15 29  1  0  0  0  0
 16 30  1  0  0  0  0
 17 24  1  0  0  0  0
 17 28  2  0  0  0  0
 18 30  2  0  0  0  0
 18 31  1  0  0  0  0
 19 32  1  0  0  0  0
 20 32  1  0  0  0  0
 20 33  2  0  0  0  0
 20 35  1  0  0  0  0
 21 23  2  0  0  0  0
 21 40  1  0  0  0  0
 22 24  2  0  0  0  0
 22 41  1  0  0  0  0
 23 52  1  0  0  0  0
 24 42  1  0  0  0  0
 25 61  1  0  0  0  0
 26 72  1  0  0  0  0
 27 82  1  0  0  0  0
 28 83  1  0  0  0  0
 29 31  2  0  0  0  0
 29 82  1  0  0  0  0
 30 84  1  0  0  0  0
 31 85  1  0  0  0  0
 32 65  2  0  0  0  0
 33 66  1  0  0  0  0
 33 70  1  0  0  0  0
 34 53  1  0  0  0  0
 34 67  1  0  0  0  0
 34 76  2  0  0  0  0
 35 71  1  0  0  0  0
 35 77  2  0  0  0  0
 36 54  1  0  0  0  0
 36 73  1  0  0  0  0
 36 78  2  0  0  0  0
 37 62  1  0  0  0  0
 37 68  1  0  0  0  0
 37 79  2  0  0  0  0
 38 63  1  0  0  0  0
 38 74  1  0  0  0  0
 38 80  2  0  0  0  0
 39 69  1  0  0  0  0
 39 72  1  0  0  0  0
 39 81  2  0  0  0  0
 40 43  1  0  0  0  0
 41 54  1  0  0  0  0
 42 68  1  0  0  0  0
 43 46  1  0  0  0  0
 44 47  1  0  0  0  0
 44 49  1  0  0  0  0
 45 48  1  0  0  0  0
 45 50  1  0  0  0  0
 46 52  1  0  0  0  0
 47 53  1  0  0  0  0
 48 55  1  0  0  0  0
 49 67  1  0  0  0  0
 50 69  1  0  0  0  0
 51 55  1  0  0  0  0
 51 69  1  0  0  0  0
 52 73  1  0  0  0  0
 53 83  1  0  0  0  0
 54 68  1  0  0  0  0
 55 66  1  0  0  0  0
 56 63  1  0  0  0  0
 57 64  1  0  0  0  0
 58 64  1  0  0  0  0
 59 64  1  0  0  0  0
 60 75  1  0  0  0  0
 61 67  1  0  0  0  0
 62 64  1  0  0  0  0
 62 74  1  0  0  0  0
 63 75  1  0  0  0  0
 65 66  1  0  0  0  0
M  CHG  1  75   1
M  ISO  4  39 100  53 101  72 100  83 101
M  END
> <Batch ID>
0029

> <Smiles>
CNC(C)C(=O)NC(C(=O)N1Cc2cc([101O:1][101CH:1]3CCCN(Cc4ccc([100NH:0][100C:0](=O)N5CCCC(n6nc(-c7ccc(Oc8ccc(F)cc8F)cc7)c(C(N)=O)c6N)C5)cc4)C3=O)ccc2CC1C(=O)NC1CCCc2ccccc21)C(C)(C)C

> <Shape>
0.304

> <Color>
0.063

> <Negative vol penalty>
0.000

$$$$

  -OEChem-04042321343D

 84 93  0     1  0  0  0  0  0999 V2000
  -22.2742  -23.5560   19.7186 C   0  0  0  0  0  0  0  0  0  0  0  0
  -23.4926  -22.9256   19.9497 C   0  0  0  0  0  0  0  0  0  0  0  0
  -22.2882  -29.2177   21.5767 C   0  0  0  0  0  0  0  0  0  0  0  0
  -23.2265  -28.3816   23.6401 C   0  0  0  0  0  0  0  0  0  0  0  0
  -21.0905  -22.9658   20.1595 C   0  0  0  0  0  0  0  0  0  0  0  0
  -23.5281  -21.7049   20.6230 C   0  0  0  0  0  0  0  0  0  0  0  0
  -26.6097  -18.3528   18.4067 C   0  0  0  0  0  0  0  0  0  0  0  0
  -21.0090  -28.8890   22.0252 C   0  0  0  0  0  0  0  0  0  0  0  0
  -21.9473  -28.0529   24.0886 C   0  0  0  0  0  0  0  0  0  0  0  0
  -27.9783  -18.5047   18.6249 C   0  0  0  0  0  0  0  0  0  0  0  0
  -18.6967  -30.1829   24.1256 C   0  0  0  0  0  0  0  0  0  0  0  0
  -17.6848  -31.1263   23.9472 C   0  0  0  0  0  0  0  0  0  0  0  0
  -27.8982  -16.7685   20.2977 C   0  0  0  0  0  0  0  0  0  0  0  0
  -30.8559  -23.3590   24.5611 C   0  0  0  0  0  0  0  0  0  0  0  0
  -30.9605  -23.2418   21.7757 C   0  0  0  0  0  0  0  0  0  0  0  0
  -16.4502  -29.5470   22.5986 C   0  0  0  0  0  0  0  0  0  0  0  0
  -23.3970  -28.9640   22.3841 C   0  0  0  0  0  0  0  0  0  0  0  0
  -25.3978  -30.5220   22.1066 C   0  0  0  0  0  0  0  0  0  0  0  0
  -21.1107  -21.7326   20.8299 C   0  0  0  0  0  0  0  0  0  0  0  0
  -25.8717  -17.4135   19.1413 C   0  0  0  0  0  0  0  0  0  0  0  0
  -22.3437  -21.0983   21.0744 C   0  0  0  0  0  0  0  0  0  0  0  0
  -26.5208  -16.6048   20.0851 C   0  0  0  0  0  0  0  0  0  0  0  0
  -31.4225  -22.2514   23.9304 C   0  0  0  0  0  0  0  0  0  0  0  0
  -30.3415  -24.4080   23.7990 C   0  0  0  0  0  0  0  0  0  0  0  0
  -31.4748  -22.1927   22.5378 C   0  0  0  0  0  0  0  0  0  0  0  0
  -30.3938  -24.3494   22.4064 C   0  0  0  0  0  0  0  0  0  0  0  0
  -20.8385  -28.3066   23.2811 C   0  0  0  0  0  0  0  0  0  0  0  0
  -28.6222  -17.7145   19.5726 C   0  0  0  0  0  0  0  0  0  0  0  0
  -18.5853  -28.9216   23.5404 C   0  0  0  0  0  0  0  0  0  0  0  0
  -16.5616  -30.8083   23.1837 C   0  0  0  0  0  0  0  0  0  0  0  0
  -17.4621  -28.6036   22.7770 C   0  0  0  0  0  0  0  0  0  0  0  0
  -24.7187  -29.3029   21.9212 C   0  0  0  0  0  0  0  0  0  0  0  0
  -26.6079  -30.3392   21.4832 C   0  0  0  0  0  0  0  0  0  0  0  0
  -24.9727  -31.7132   22.7820 C   0  0  0  0  0  0  0  0  0  0  0  0
  -23.4404  -17.5715   21.1826 C   0  0  0  0  0  0  0  0  0  0  0  0
  -23.5784  -14.3362   20.9928 C   0  0  0  0  0  0  0  0  0  0  0  0
  -25.4321  -11.5496   20.3251 C   0  0  0  0  0  0  0  0  0  0  0  0
  -29.8589  -25.4866   20.2230 C   0  0  0  0  0  0  0  0  0  0  0  0
  -19.8094  -21.1565   21.3294 C   0  0  0  0  0  0  0  0  0  0  0  0
  -24.4012  -17.2433   18.8750 C   0  0  0  0  0  0  0  0  0  0  0  0
  -25.7777  -15.5678   20.8856 C   0  0  0  0  0  0  0  0  0  0  0  0
  -19.9013  -19.6797   21.7047 C   0  0  0  0  0  0  0  0  0  0  0  0
  -28.6444  -27.8978   17.9018 C   0  0  0  0  0  0  0  0  0  0  0  0
  -21.1420  -19.4208   22.5536 C   0  0  0  0  0  0  0  0  0  0  0  0
  -27.5659  -28.6467   18.6880 C   0  0  0  0  0  0  0  0  0  0  0  0
  -28.6678  -26.4099   18.2473 C   0  0  0  0  0  0  0  0  0  0  0  0
  -27.6952  -26.8558   20.4664 C   0  0  0  0  0  0  0  0  0  0  0  0
  -30.0500  -19.6751   21.5483 C   0  0  0  0  0  0  0  0  0  0  0  0
  -31.8442  -18.6416   21.2747 C   0  0  0  0  0  0  0  0  0  0  0  0
  -22.4211  -19.7614   21.7793 C   0  0  1  0  0  0  0  0  0  0  0  0
  -23.6512  -16.6133   20.0446 C   0  0  1  0  0  0  0  0  0  0  0  0
  -27.6762  -28.3698   20.2002 C   0  0  2  0  0  0  0  0  0  0  0  0
  -30.3693  -18.2339   21.1131 C   0  0  0  0  0  0  0  0  0  1  0  0
  -31.9665  -21.1401   24.7670 C   0  0  0  0  0  0  0  0  0  0  0  0
  -29.7405  -25.5822   24.5012 C   0  0  0  0  0  0  0  0  0  0  0  0
  -25.2822   -9.0448   20.2937 C   0  0  0  0  0  0  0  0  0  0  0  0
  -23.7538  -14.2899   24.0386 C   0  0  0  0  0  0  0  0  0  0  0  0
  -24.5453  -11.9194   23.8875 C   0  0  0  0  0  0  0  0  0  0  0  0
  -22.2757  -12.5303   23.0520 C   0  0  0  0  0  0  0  0  0  0  0  0
  -26.0217  -11.4348   17.4271 C   0  0  0  0  0  0  0  0  0  0  0  0
  -32.0792  -21.0116   21.8374 C   0  0  0  0  0  0  0  0  0  0  0  0
  -24.3143  -13.2517   21.7421 C   0  0  1  0  0  0  0  0  0  0  0  0
  -25.1379  -10.3224   19.4814 C   0  0  2  0  0  0  0  0  0  0  0  0
  -23.7362  -13.0186   23.1665 C   0  0  0  0  0  0  0  0  0  0  0  0
  -25.4376  -28.4116   21.2337 N   0  0  0  0  0  0  0  0  0  0  0  0
  -26.5810  -29.0712   20.9816 N   0  0  0  0  0  0  0  0  0  0  0  0
  -24.3401  -15.4435   20.5935 N   0  0  0  0  0  0  0  0  0  0  0  0
  -28.7781  -26.2247   19.6958 N   0  0  0  0  0  0  0  0  0  0  0  0
  -27.6817  -31.1411   21.3207 N   0  0  0  0  0  0  0  0  0  0  0  0
  -23.6994  -31.7311   23.3675 N   0  0  0  0  0  0  0  0  0  0  0  0
  -29.8769  -25.4050   21.6150 N   0  0  0  0  0  0  0  0  0  0  0  0
  -22.7367  -18.7094   20.8370 N   0  0  0  0  0  0  0  0  0  0  0  0
  -24.2852  -12.0715   20.8849 N   0  0  0  0  0  0  0  0  0  0  0  0
  -31.3941  -19.7386   22.1513 N   0  3  0  0  0  0  0  0  0  0  0  0
  -26.0749  -10.2522   18.3247 N   0  3  0  0  0  0  0  0  0  0  0  0
  -25.6941  -32.7372   22.8498 O   0  0  0  0  0  0  0  0  0  0  0  0
  -23.8820  -17.2979   22.2925 O   0  0  0  0  0  0  0  0  0  0  0  0
  -22.3737  -14.2023   20.7638 O   0  0  0  0  0  0  0  0  0  0  0  0
  -26.5664  -11.9981   20.4757 O   0  0  0  0  0  0  0  0  0  0  0  0
  -30.7211  -24.9883   19.4948 O   0  0  0  0  0  0  0  0  0  0  0  0
  -19.5904  -27.9858   23.7191 O   0  0  0  0  0  0  0  0  0  0  0  0
  -29.9578  -17.8613   19.7881 O   0  0  0  0  0  0  0  0  0  1  0  0
  -15.5893  -31.7138   23.0138 F   0  0  0  0  0  0  0  0  0  0  0  0
  -17.3490  -27.3931   22.2133 F   0  0  0  0  0  0  0  0  0  0  0  0
  1  2  1  0  0  0  0
  1  5  2  0  0  0  0
  2  6  2  0  0  0  0
  3  8  2  0  0  0  0
  3 17  1  0  0  0  0
  4  9  1  0  0  0  0
  4 17  2  0  0  0  0
  5 19  1  0  0  0  0
  6 21  1  0  0  0  0
  7 10  2  0  0  0  0
  7 20  1  0  0  0  0
  8 27  1  0  0  0  0
  9 27  2  0  0  0  0
 10 28  1  0  0  0  0
 11 12  2  0  0  0  0
 11 29  1  0  0  0  0
 12 30  1  0  0  0  0
 13 22  1  0  0  0  0
 13 28  2  0  0  0  0
 14 23  1  0  0  0  0
 14 24  2  0  0  0  0
 15 25  1  0  0  0  0
 15 26  2  0  0  0  0
 16 30  2  0  0  0  0
 16 31  1  0  0  0  0
 17 32  1  0  0  0  0
 18 32  1  0  0  0  0
 18 33  2  0  0  0  0
 18 34  1  0  0  0  0
 19 21  2  0  0  0  0
 19 39  1  0  0  0  0
 20 22  2  0  0  0  0
 20 40  1  0  0  0  0
 21 50  1  0  0  0  0
 22 41  1  0  0  0  0
 23 25  2  0  0  0  0
 23 54  1  0  0  0  0
 24 26  1  0  0  0  0
 24 55  1  0  0  0  0
 25 61  1  0  0  0  0
 26 71  1  0  0  0  0
 27 81  1  0  0  0  0
 28 82  1  0  0  0  0
 29 31  2  0  0  0  0
 29 81  1  0  0  0  0
 30 83  1  0  0  0  0
 31 84  1  0  0  0  0
 32 65  2  0  0  0  0
 33 66  1  0  0  0  0
 33 69  1  0  0  0  0
 34 70  1  0  0  0  0
 34 76  2  0  0  0  0
 35 51  1  0  0  0  0
 35 72  1  0  0  0  0
 35 77  2  0  0  0  0
 36 62  1  0  0  0  0
 36 67  1  0  0  0  0
 36 78  2  0  0  0  0
 37 63  1  0  0  0  0
 37 73  1  0  0  0  0
 37 79  2  0  0  0  0
 38 68  1  0  0  0  0
 38 71  1  0  0  0  0
 38 80  2  0  0  0  0
 39 42  1  0  0  0  0
 40 51  1  0  0  0  0
 41 67  1  0  0  0  0
 42 44  1  0  0  0  0
 43 45  1  0  0  0  0
 43 46  1  0  0  0  0
 44 50  1  0  0  0  0
 45 52  1  0  0  0  0
 46 68  1  0  0  0  0
 47 52  1  0  0  0  0
 47 68  1  0  0  0  0
 48 53  1  0  0  0  0
 48 74  1  0  0  0  0
 49 53  1  0  0  0  0
 49 74  1  0  0  0  0
 50 72  1  0  0  0  0
 51 67  1  0  0  0  0
 52 66  1  0  0  0  0
 53 82  1  0  0  0  0
 56 63  1  0  0  0  0
 57 64  1  0  0  0  0
 58 64  1  0  0  0  0
 59 64  1  0  0  0  0
 60 75  1  0  0  0  0
 61 74  1  0  0  0  0
 62 64  1  0  0  0  0
 62 73  1  0  0  0  0
 63 75  1  0  0  0  0
 65 66  1  0  0  0  0
M  CHG  2  74   1  75   1
M  ISO  4  38 100  53 101  71 100  82 101
M  END
> <Batch ID>
0029

> <Smiles>
CNC(C)C(=O)NC(C(=O)N1Cc2cc([101O:1][101CH:1]3CN(Cc4cc([100NH:0][100C:0](=O)N5CCCC(n6nc(-c7ccc(Oc8ccc(F)cc8F)cc7)c(C(N)=O)c6N)C5)c(C)cc4C)C3)ccc2CC1C(=O)NC1CCCc2ccccc21)C(C)(C)C

> <Shape>
0.238

> <Color>
0.078

> <Negative vol penalty>
0.000

$$$$

  -OEChem-04042321343D

 84 93  0     1  0  0  0  0  0999 V2000
  -33.3055  -25.0871   20.0483 C   0  0  0  0  0  0  0  0  0  0  0  0
  -32.5669  -24.5842   21.1135 C   0  0  0  0  0  0  0  0  0  0  0  0
  -25.4906  -28.5306   20.5455 C   0  0  0  0  0  0  0  0  0  0  0  0
  -24.9400  -26.4914   19.3727 C   0  0  0  0  0  0  0  0  0  0  0  0
  -32.8600  -24.8920   18.7427 C   0  0  0  0  0  0  0  0  0  0  0  0
  -31.3890  -23.8760   20.8730 C   0  0  0  0  0  0  0  0  0  0  0  0
  -25.6595  -20.8618   23.9546 C   0  0  0  0  0  0  0  0  0  0  0  0
  -26.8274  -28.1367   20.6030 C   0  0  0  0  0  0  0  0  0  0  0  0
  -26.2769  -26.0975   19.4301 C   0  0  0  0  0  0  0  0  0  0  0  0
  -24.2663  -20.8597   24.0073 C   0  0  0  0  0  0  0  0  0  0  0  0
  -29.4980  -28.0771   18.5300 C   0  0  0  0  0  0  0  0  0  0  0  0
  -30.4682  -29.0287   18.2159 C   0  0  0  0  0  0  0  0  0  0  0  0
  -24.1965  -19.6022   21.9499 C   0  0  0  0  0  0  0  0  0  0  0  0
  -15.6102  -21.4059   20.8499 C   0  0  0  0  0  0  0  0  0  0  0  0
  -15.8339  -23.6535   21.7073 C   0  0  0  0  0  0  0  0  0  0  0  0
  -31.4197  -28.7873   20.4235 C   0  0  0  0  0  0  0  0  0  0  0  0
  -24.5469  -27.7079   19.9304 C   0  0  0  0  0  0  0  0  0  0  0  0
  -22.5433  -28.8655   18.8565 C   0  0  0  0  0  0  0  0  0  0  0  0
  -31.6694  -24.1917   18.4875 C   0  0  0  0  0  0  0  0  0  0  0  0
  -26.3326  -20.2425   22.8917 C   0  0  0  0  0  0  0  0  0  0  0  0
  -30.9353  -23.6480   19.5612 C   0  0  0  0  0  0  0  0  0  0  0  0
  -25.5983  -19.5957   21.8874 C   0  0  0  0  0  0  0  0  0  0  0  0
  -16.9863  -21.3533   20.6286 C   0  0  0  0  0  0  0  0  0  0  0  0
  -17.7863  -22.4508   20.9467 C   0  0  0  0  0  0  0  0  0  0  0  0
  -17.2101  -23.6009   21.4861 C   0  0  0  0  0  0  0  0  0  0  0  0
  -27.2206  -26.9201   20.0452 C   0  0  0  0  0  0  0  0  0  0  0  0
  -23.5345  -20.2323   23.0034 C   0  0  0  0  0  0  0  0  0  0  0  0
  -29.4885  -27.4807   19.7909 C   0  0  0  0  0  0  0  0  0  0  0  0
  -31.4291  -29.3838   19.1627 C   0  0  0  0  0  0  0  0  0  0  0  0
  -30.4493  -27.8357   20.7376 C   0  0  0  0  0  0  0  0  0  0  0  0
  -15.0339  -22.5561   21.3892 C   0  0  0  0  0  0  0  0  0  0  0  0
  -23.1657  -28.1141   19.8713 C   0  0  0  0  0  0  0  0  0  0  0  0
  -21.2375  -28.9811   19.2667 C   0  0  0  0  0  0  0  0  0  0  0  0
  -23.0959  -29.4103   17.6509 C   0  0  0  0  0  0  0  0  0  0  0  0
  -28.2957  -21.2351   20.5972 C   0  0  0  0  0  0  0  0  0  0  0  0
  -28.5234  -18.0632   19.9577 C   0  0  0  0  0  0  0  0  0  0  0  0
  -27.1236  -14.9577   20.1667 C   0  0  0  0  0  0  0  0  0  0  0  0
  -17.7667  -25.6625   22.8227 C   0  0  0  0  0  0  0  0  0  0  0  0
  -31.2377  -24.0030   17.0546 C   0  0  0  0  0  0  0  0  0  0  0  0
  -27.8364  -20.2306   22.8635 C   0  0  0  0  0  0  0  0  0  0  0  0
  -26.2735  -18.8989   20.7353 C   0  0  0  0  0  0  0  0  0  0  0  0
  -29.7643  -23.6322   16.9215 C   0  0  0  0  0  0  0  0  0  0  0  0
  -18.5555  -29.1103   23.2321 C   0  0  0  0  0  0  0  0  0  0  0  0
  -29.4299  -22.4849   17.8631 C   0  0  0  0  0  0  0  0  0  0  0  0
  -19.7669  -29.3159   22.3197 C   0  0  0  0  0  0  0  0  0  0  0  0
  -18.5826  -27.7421   23.9111 C   0  0  0  0  0  0  0  0  0  0  0  0
  -19.9505  -26.8060   22.0885 C   0  0  0  0  0  0  0  0  0  0  0  0
  -19.9460  -21.4069   22.8424 C   0  0  0  0  0  0  0  0  0  0  0  0
  -21.4879  -22.2654   21.7253 C   0  0  0  0  0  0  0  0  0  0  0  0
  -29.6351  -22.9009   19.3252 C   0  0  1  0  0  0  0  0  0  0  0  0
  -28.4061  -20.0135   21.4650 C   0  0  1  0  0  0  0  0  0  0  0  0
  -19.9339  -28.1444   21.3322 C   0  0  2  0  0  0  0  0  0  0  0  0
  -21.4693  -21.4809   23.0489 C   0  0  0  0  0  0  0  0  0  1  0  0
  -17.5782  -20.1100   20.0500 C   0  0  0  0  0  0  0  0  0  0  0  0
  -27.5283  -12.5670   19.5201 C   0  0  0  0  0  0  0  0  0  0  0  0
  -27.7689  -18.7178   17.0746 C   0  0  0  0  0  0  0  0  0  0  0  0
  -27.2643  -16.2900   16.7288 C   0  0  0  0  0  0  0  0  0  0  0  0
  -29.5793  -17.0095   17.3170 C   0  0  0  0  0  0  0  0  0  0  0  0
  -27.1191  -14.0718   22.9905 C   0  0  0  0  0  0  0  0  0  0  0  0
  -19.2661  -22.3896   20.7071 C   0  0  0  0  0  0  0  0  0  0  0  0
  -27.7698  -17.0926   19.0807 C   0  0  1  0  0  0  0  0  0  0  0  0
  -27.6972  -13.6216   20.6027 C   0  0  2  0  0  0  0  0  0  0  0  0
  -28.0825  -17.2922   17.5708 C   0  0  0  0  0  0  0  0  0  0  0  0
  -22.3246  -27.7763   20.8523 N   0  0  0  0  0  0  0  0  0  0  0  0
  -21.1603  -28.3180   20.4560 N   0  0  0  0  0  0  0  0  0  0  0  0
  -27.7455  -18.9201   20.7491 N   0  0  0  0  0  0  0  0  0  0  0  0
  -18.7387  -26.6812   22.9137 N   0  0  0  0  0  0  0  0  0  0  0  0
  -20.1594  -29.5844   18.7225 N   0  0  0  0  0  0  0  0  0  0  0  0
  -24.4552  -29.1979   17.3835 N   0  0  0  0  0  0  0  0  0  0  0  0
  -18.0041  -24.7272   21.8160 N   0  0  0  0  0  0  0  0  0  0  0  0
  -29.5117  -21.7335   20.1700 N   0  0  0  0  0  0  0  0  0  0  0  0
  -28.0825  -15.7596   19.5846 N   0  0  0  0  0  0  0  0  0  0  0  0
  -20.0611  -22.5687   21.9417 N   0  3  0  0  0  0  0  0  0  0  0  0
  -27.0130  -13.1420   21.8367 N   0  3  0  0  0  0  0  0  0  0  0  0
  -22.4086  -30.0799   16.8430 O   0  0  0  0  0  0  0  0  0  0  0  0
  -27.1892  -21.6910   20.3335 O   0  0  0  0  0  0  0  0  0  0  0  0
  -29.7569  -18.0562   19.9464 O   0  0  0  0  0  0  0  0  0  0  0  0
  -25.9423  -15.2584   20.3232 O   0  0  0  0  0  0  0  0  0  0  0  0
  -16.7809  -25.6382   23.5640 O   0  0  0  0  0  0  0  0  0  0  0  0
  -28.5250  -26.5355   20.1009 O   0  0  0  0  0  0  0  0  0  0  0  0
  -22.1746  -20.2293   23.0520 O   0  0  0  0  0  0  0  0  0  1  0  0
  -32.3617  -30.2964   18.8604 F   0  0  0  0  0  0  0  0  0  0  0  0
  -30.4460  -27.2652   21.9502 F   0  0  0  0  0  0  0  0  0  0  0  0
  -13.3358  -22.6211   21.6609 Cl  0  0  0  0  0  0  0  0  0  0  0  0
  1  2  1  0  0  0  0
  1  5  2  0  0  0  0
  2  6  2  0  0  0  0
  3  8  2  0  0  0  0
  3 17  1  0  0  0  0
  4  9  1  0  0  0  0
  4 17  2  0  0  0  0
  5 19  1  0  0  0  0
  6 21  1  0  0  0  0
  7 10  2  0  0  0  0
  7 20  1  0  0  0  0
  8 26  1  0  0  0  0
  9 26  2  0  0  0  0
 10 27  1  0  0  0  0
 11 12  2  0  0  0  0
 11 28  1  0  0  0  0
 12 29  1  0  0  0  0
 13 22  1  0  0  0  0
 13 27  2  0  0  0  0
 14 23  2  0  0  0  0
 14 31  1  0  0  0  0
 15 25  1  0  0  0  0
 15 31  2  0  0  0  0
 16 29  2  0  0  0  0
 16 30  1  0  0  0  0
 17 32  1  0  0  0  0
 18 32  1  0  0  0  0
 18 33  2  0  0  0  0
 18 34  1  0  0  0  0
 19 21  2  0  0  0  0
 19 39  1  0  0  0  0
 20 22  2  0  0  0  0
 20 40  1  0  0  0  0
 21 50  1  0  0  0  0
 22 41  1  0  0  0  0
 23 24  1  0  0  0  0
 23 54  1  0  0  0  0
 24 25  2  0  0  0  0
 24 60  1  0  0  0  0
 25 70  1  0  0  0  0
 26 80  1  0  0  0  0
 27 81  1  0  0  0  0
 28 30  2  0  0  0  0
 28 80  1  0  0  0  0
 29 82  1  0  0  0  0
 30 83  1  0  0  0  0
 31 84  1  0  0  0  0
 32 64  2  0  0  0  0
 33 65  1  0  0  0  0
 33 68  1  0  0  0  0
 34 69  1  0  0  0  0
 34 75  2  0  0  0  0
 35 51  1  0  0  0  0
 35 71  1  0  0  0  0
 35 76  2  0  0  0  0
 36 61  1  0  0  0  0
 36 66  1  0  0  0  0
 36 77  2  0  0  0  0
 37 62  1  0  0  0  0
 37 72  1  0  0  0  0
 37 78  2  0  0  0  0
 38 67  1  0  0  0  0
 38 70  1  0  0  0  0
 38 79  2  0  0  0  0
 39 42  1  0  0  0  0
 40 51  1  0  0  0  0
 41 66  1  0  0  0  0
 42 44  1  0  0  0  0
 43 45  1  0  0  0  0
 43 46  1  0  0  0  0
 44 50  1  0  0  0  0
 45 52  1  0  0  0  0
 46 67  1  0  0  0  0
 47 52  1  0  0  0  0
 47 67  1  0  0  0  0
 48 53  1  0  0  0  0
 48 73  1  0  0  0  0
 49 53  1  0  0  0  0
 49 73  1  0  0  0  0
 50 71  1  0  0  0  0
 51 66  1  0  0  0  0
 52 65  1  0  0  0  0
 53 81  1  0  0  0  0
 55 62  1  0  0  0  0
 56 63  1  0  0  0  0
 57 63  1  0  0  0  0
 58 63  1  0  0  0  0
 59 74  1  0  0  0  0
 60 73  1  0  0  0  0
 61 63  1  0  0  0  0
 61 72  1  0  0  0  0
 62 74  1  0  0  0  0
 64 65  1  0  0  0  0
M  CHG  2  73   1  74   1
M  ISO  4  38 100  53 101  70 100  81 101
M  END
> <Batch ID>
0029

> <Smiles>
CNC(C)C(=O)NC(C(=O)N1Cc2cc([101O:1][101CH:1]3CN(Cc4c(C)cc(Cl)cc4[100NH:0][100C:0](=O)N4CCCC(n5nc(-c6ccc(Oc7ccc(F)cc7F)cc6)c(C(N)=O)c5N)C4)C3)ccc2CC1C(=O)NC1CCCc2ccccc21)C(C)(C)C

> <Shape>
0.206

> <Color>
0.067

> <Negative vol penalty>
0.000

$$$$

  -OEChem-04042321343D

 84 93  0     1  0  0  0  0  0999 V2000
  -27.6889  -33.1708   27.2958 C   0  0  0  0  0  0  0  0  0  0  0  0
  -27.7679  -32.0209   26.5167 C   0  0  0  0  0  0  0  0  0  0  0  0
  -24.4487   -9.0807   21.9386 C   0  0  0  0  0  0  0  0  0  0  0  0
  -23.3522   -9.3138   19.7984 C   0  0  0  0  0  0  0  0  0  0  0  0
  -26.4952  -33.8885   27.3582 C   0  0  0  0  0  0  0  0  0  0  0  0
  -26.6528  -31.5875   25.8004 C   0  0  0  0  0  0  0  0  0  0  0  0
  -27.7994  -30.2197   21.0613 C   0  0  0  0  0  0  0  0  0  0  0  0
  -23.4620   -8.1831   22.3464 C   0  0  0  0  0  0  0  0  0  0  0  0
  -22.3654   -8.4161   20.2062 C   0  0  0  0  0  0  0  0  0  0  0  0
  -28.3899  -28.9691   20.8847 C   0  0  0  0  0  0  0  0  0  0  0  0
  -22.7114   -4.9208   21.8700 C   0  0  0  0  0  0  0  0  0  0  0  0
  -23.1225   -3.7553   22.5166 C   0  0  0  0  0  0  0  0  0  0  0  0
  -28.7214  -21.9082   21.8287 C   0  0  0  0  0  0  0  0  0  0  0  0
  -26.2523  -28.0579   20.2368 C   0  0  0  0  0  0  0  0  0  0  0  0
  -30.3419  -22.1979   20.0644 C   0  0  0  0  0  0  0  0  0  0  0  0
  -21.8416   -4.3849   24.4659 C   0  0  0  0  0  0  0  0  0  0  0  0
  -24.3938   -9.6461   20.6646 C   0  0  0  0  0  0  0  0  0  0  0  0
  -26.6218  -10.2693   19.5899 C   0  0  0  0  0  0  0  0  0  0  0  0
  -25.3678  -33.4690   26.6347 C   0  0  0  0  0  0  0  0  0  0  0  0
  -26.4264  -30.3965   20.8371 C   0  0  0  0  0  0  0  0  0  0  0  0
  -25.4425  -32.2995   25.8543 C   0  0  0  0  0  0  0  0  0  0  0  0
  -28.8809  -20.5166   21.7640 C   0  0  0  0  0  0  0  0  0  0  0  0
  -25.6473  -29.3123   20.4088 C   0  0  0  0  0  0  0  0  0  0  0  0
  -29.7654  -19.9630   20.8216 C   0  0  0  0  0  0  0  0  0  0  0  0
  -29.4512  -22.7442   20.9845 C   0  0  0  0  0  0  0  0  0  0  0  0
  -22.4204   -7.8508   21.4803 C   0  0  0  0  0  0  0  0  0  0  0  0
  -27.6158  -27.8873   20.4752 C   0  0  0  0  0  0  0  0  0  0  0  0
  -21.8654   -5.8185   22.5214 C   0  0  0  0  0  0  0  0  0  0  0  0
  -22.6876   -3.4873   23.8146 C   0  0  0  0  0  0  0  0  0  0  0  0
  -21.4305   -5.5505   23.8193 C   0  0  0  0  0  0  0  0  0  0  0  0
  -30.4999  -20.8147   19.9837 C   0  0  0  0  0  0  0  0  0  0  0  0
  -25.4124  -10.5738   20.2429 C   0  0  0  0  0  0  0  0  0  0  0  0
  -27.2307  -11.4872   19.4096 C   0  0  0  0  0  0  0  0  0  0  0  0
  -27.1478   -8.9992   19.1826 C   0  0  0  0  0  0  0  0  0  0  0  0
  -23.9527  -31.2597   22.6368 C   0  0  0  0  0  0  0  0  0  0  0  0
  -22.3675  -31.1858   19.8077 C   0  0  0  0  0  0  0  0  0  0  0  0
  -22.1784  -29.9725   16.6235 C   0  0  0  0  0  0  0  0  0  0  0  0
  -28.8025  -16.3410   21.1024 C   0  0  0  0  0  0  0  0  0  0  0  0
  -24.0855  -34.2512   26.7709 C   0  0  0  0  0  0  0  0  0  0  0  0
  -25.8098  -31.7580   21.0062 C   0  0  0  0  0  0  0  0  0  0  0  0
  -28.0612  -19.6325   22.6683 C   0  0  0  0  0  0  0  0  0  0  0  0
  -24.1730  -29.4543   20.1352 C   0  0  0  0  0  0  0  0  0  0  0  0
  -29.9730  -18.4741   20.7191 C   0  0  0  0  0  0  0  0  0  0  0  0
  -23.0600  -33.9335   25.6857 C   0  0  0  0  0  0  0  0  0  0  0  0
  -25.4654  -16.1819   20.0003 C   0  0  0  0  0  0  0  0  0  0  0  0
  -22.9320  -32.4252   25.4972 C   0  0  0  0  0  0  0  0  0  0  0  0
  -25.2455  -14.6721   19.9139 C   0  0  0  0  0  0  0  0  0  0  0  0
  -28.6330  -18.2231   22.7794 C   0  0  0  0  0  0  0  0  0  0  0  0
  -26.2829  -16.5726   21.2326 C   0  0  0  0  0  0  0  0  0  0  0  0
  -27.3502  -14.3416   21.2655 C   0  0  0  0  0  0  0  0  0  0  0  0
  -24.2618  -31.8112   25.0433 C   0  0  1  0  0  0  0  0  0  0  0  0
  -24.3040  -31.7063   21.2458 C   0  0  1  0  0  0  0  0  0  0  0  0
  -26.5815  -13.9140   20.0057 C   0  0  1  0  0  0  0  0  0  0  0  0
  -20.7490  -30.0624   14.5628 C   0  0  0  0  0  0  0  0  0  0  0  0
  -20.3444  -29.3254   21.1327 C   0  0  0  0  0  0  0  0  0  0  0  0
  -19.5221  -28.7076   18.8501 C   0  0  0  0  0  0  0  0  0  0  0  0
  -19.3415  -31.0659   19.6430 C   0  0  0  0  0  0  0  0  0  0  0  0
  -24.3785  -31.1142   15.0064 C   0  0  0  0  0  0  0  0  0  0  0  0
  -30.0011  -25.0576   20.2292 C   0  0  0  0  0  0  0  0  0  0  0  0
  -29.5917  -26.4871   20.5416 C   0  0  0  0  0  0  0  0  0  1  0  0
  -21.6111  -30.1336   19.0332 C   0  0  1  0  0  0  0  0  0  0  0  0
  -21.9383  -30.6652   15.2942 C   0  0  2  0  0  0  0  0  0  0  0  0
  -20.2321  -29.8047   19.6717 C   0  0  0  0  0  0  0  0  0  0  0  0
  -25.2604  -11.8824   20.4628 N   0  0  0  0  0  0  0  0  0  0  0  0
  -26.3822  -12.4111   19.9450 N   0  0  0  0  0  0  0  0  0  0  0  0
  -23.6151  -30.8040   20.3209 N   0  0  0  0  0  0  0  0  0  0  0  0
  -28.9850  -17.6880   21.4595 N   0  0  0  0  0  0  0  0  0  0  0  0
  -27.5266  -15.7951   21.3023 N   0  0  0  0  0  0  0  0  0  0  0  0
  -28.4038  -11.8472   18.8469 N   0  0  0  0  0  0  0  0  0  0  0  0
  -26.3925   -7.8481   19.4451 N   0  0  0  0  0  0  0  0  0  0  0  0
  -29.2857  -24.1425   21.0635 N   0  0  0  0  0  0  0  0  0  0  0  0
  -24.4781  -32.0592   23.6339 N   0  0  0  0  0  0  0  0  0  0  0  0
  -21.5332  -30.6158   17.6585 N   0  0  0  0  0  0  0  0  0  0  0  0
  -23.1395  -30.5406   14.4209 N   0  3  0  0  0  0  0  0  0  0  0  0
  -28.2622   -8.8868   18.6179 O   0  0  0  0  0  0  0  0  0  0  0  0
  -23.2552  -30.2644   22.7937 O   0  0  0  0  0  0  0  0  0  0  0  0
  -21.8728  -32.3073   19.9459 O   0  0  0  0  0  0  0  0  0  0  0  0
  -22.8661  -28.9597   16.7322 O   0  0  0  0  0  0  0  0  0  0  0  0
  -29.7292  -15.6673   20.6341 O   0  0  0  0  0  0  0  0  0  0  0  0
  -21.4575   -6.9748   21.8778 O   0  0  0  0  0  0  0  0  0  0  0  0
  -28.1993  -26.6448   20.2998 O   0  0  0  0  0  0  0  0  0  1  0  0
  -23.0813   -2.3673   24.4348 F   0  0  0  0  0  0  0  0  0  0  0  0
  -20.6168   -6.4085   24.4498 F   0  0  0  0  0  0  0  0  0  0  0  0
  -31.6177  -20.2134   18.8052 Cl  0  0  0  0  0  0  0  0  0  0  0  0
  1  2  1  0  0  0  0
  1  5  2  0  0  0  0
  2  6  2  0  0  0  0
  3  8  2  0  0  0  0
  3 17  1  0  0  0  0
  4  9  1  0  0  0  0
  4 17  2  0  0  0  0
  5 19  1  0  0  0  0
  6 21  1  0  0  0  0
  7 10  2  0  0  0  0
  7 20  1  0  0  0  0
  8 26  1  0  0  0  0
  9 26  2  0  0  0  0
 10 27  1  0  0  0  0
 11 12  2  0  0  0  0
 11 28  1  0  0  0  0
 12 29  1  0  0  0  0
 13 22  1  0  0  0  0
 13 25  2  0  0  0  0
 14 23  1  0  0  0  0
 14 27  2  0  0  0  0
 15 25  1  0  0  0  0
 15 31  2  0  0  0  0
 16 29  2  0  0  0  0
 16 30  1  0  0  0  0
 17 32  1  0  0  0  0
 18 32  1  0  0  0  0
 18 33  2  0  0  0  0
 18 34  1  0  0  0  0
 19 21  2  0  0  0  0
 19 39  1  0  0  0  0
 20 23  2  0  0  0  0
 20 40  1  0  0  0  0
 21 51  1  0  0  0  0
 22 24  2  0  0  0  0
 22 41  1  0  0  0  0
 23 42  1  0  0  0  0
 24 31  1  0  0  0  0
 24 43  1  0  0  0  0
 25 71  1  0  0  0  0
 26 80  1  0  0  0  0
 27 81  1  0  0  0  0
 28 30  2  0  0  0  0
 28 80  1  0  0  0  0
 29 82  1  0  0  0  0
 30 83  1  0  0  0  0
 31 84  1  0  0  0  0
 32 64  2  0  0  0  0
 33 65  1  0  0  0  0
 33 69  1  0  0  0  0
 34 70  1  0  0  0  0
 34 75  2  0  0  0  0
 35 52  1  0  0  0  0
 35 72  1  0  0  0  0
 35 76  2  0  0  0  0
 36 61  1  0  0  0  0
 36 66  1  0  0  0  0
 36 77  2  0  0  0  0
 37 62  1  0  0  0  0
 37 73  1  0  0  0  0
 37 78  2  0  0  0  0
 38 67  1  0  0  0  0
 38 68  1  0  0  0  0
 38 79  2  0  0  0  0
 39 44  1  0  0  0  0
 40 52  1  0  0  0  0
 41 48  1  0  0  0  0
 42 66  1  0  0  0  0
 43 67  1  0  0  0  0
 44 46  1  0  0  0  0
 45 47  1  0  0  0  0
 45 49  1  0  0  0  0
 46 51  1  0  0  0  0
 47 53  1  0  0  0  0
 48 67  1  0  0  0  0
 49 68  1  0  0  0  0
 50 53  1  0  0  0  0
 50 68  1  0  0  0  0
 51 72  1  0  0  0  0
 52 66  1  0  0  0  0
 53 65  1  0  0  0  0
 54 62  1  0  0  0  0
 55 63  1  0  0  0  0
 56 63  1  0  0  0  0
 57 63  1  0  0  0  0
 58 74  1  0  0  0  0
 59 60  1  0  0  0  0
 59 71  1  0  0  0  0
 60 81  1  0  0  0  0
 61 63  1  0  0  0  0
 61 73  1  0  0  0  0
 62 74  1  0  0  0  0
 64 65  1  0  0  0  0
M  CHG  1  74   1
M  ISO  4  38 100  60 101  67 100  81 101
M  END
> <Batch ID>
0029

> <Smiles>
CNC(C)C(=O)NC(C(=O)N1Cc2cc([101O:1][101CH2:1]CNc3cc(Cl)c4c(c3)CC[100N:0]([100C:0](=O)N3CCCC(n5nc(-c6ccc(Oc7ccc(F)cc7F)cc6)c(C(N)=O)c5N)C3)C4)ccc2CC1C(=O)NC1CCCc2ccccc21)C(C)(C)C

> <Shape>
0.315

> <Color>
0.087

> <Negative vol penalty>
0.000

$$$$

  -OEChem-04042321343D

 86 95  0     1  0  0  0  0  0999 V2000
  -28.2289  -32.3598   24.3387 C   0  0  0  0  0  0  0  0  0  0  0  0
  -28.0404  -30.9880   24.4735 C   0  0  0  0  0  0  0  0  0  0  0  0
  -23.1561   -9.8817   19.8835 C   0  0  0  0  0  0  0  0  0  0  0  0
  -23.9279   -9.8067   22.1716 C   0  0  0  0  0  0  0  0  0  0  0  0
  -28.3831  -32.9198   23.0713 C   0  0  0  0  0  0  0  0  0  0  0  0
  -28.0047  -30.1756   23.3407 C   0  0  0  0  0  0  0  0  0  0  0  0
  -30.0826  -24.4347   22.8607 C   0  0  0  0  0  0  0  0  0  0  0  0
  -22.4610   -8.6883   20.0788 C   0  0  0  0  0  0  0  0  0  0  0  0
  -23.2328   -8.6133   22.3670 C   0  0  0  0  0  0  0  0  0  0  0  0
  -29.4430  -23.1975   22.9225 C   0  0  0  0  0  0  0  0  0  0  0  0
  -20.0431   -7.6558   22.9410 C   0  0  0  0  0  0  0  0  0  0  0  0
  -19.2949   -7.5274   24.1112 C   0  0  0  0  0  0  0  0  0  0  0  0
  -29.3047  -23.1555   20.5145 C   0  0  0  0  0  0  0  0  0  0  0  0
  -30.8157  -15.9972   25.3238 C   0  0  0  0  0  0  0  0  0  0  0  0
  -29.2846  -17.8447   25.6061 C   0  0  0  0  0  0  0  0  0  0  0  0
  -20.6180   -5.6083   24.7465 C   0  0  0  0  0  0  0  0  0  0  0  0
  -23.8896  -10.4409   20.9299 C   0  0  0  0  0  0  0  0  0  0  0  0
  -24.1280  -12.9807   20.9336 C   0  0  0  0  0  0  0  0  0  0  0  0
  -28.3590  -32.1126   21.9230 C   0  0  0  0  0  0  0  0  0  0  0  0
  -30.3287  -25.0478   21.6238 C   0  0  0  0  0  0  0  0  0  0  0  0
  -28.1574  -30.7256   22.0566 C   0  0  0  0  0  0  0  0  0  0  0  0
  -29.9499  -24.3994   20.4396 C   0  0  0  0  0  0  0  0  0  0  0  0
  -30.6882  -16.1031   23.9389 C   0  0  0  0  0  0  0  0  0  0  0  0
  -29.8590  -17.0798   23.3875 C   0  0  0  0  0  0  0  0  0  0  0  0
  -29.1572  -17.9507   24.2211 C   0  0  0  0  0  0  0  0  0  0  0  0
  -22.4993   -8.0540   21.3205 C   0  0  0  0  0  0  0  0  0  0  0  0
  -29.0514  -22.5590   21.7494 C   0  0  0  0  0  0  0  0  0  0  0  0
  -21.0786   -6.7604   22.6734 C   0  0  0  0  0  0  0  0  0  0  0  0
  -19.5824   -6.5037   25.0139 C   0  0  0  0  0  0  0  0  0  0  0  0
  -21.3661   -5.7366   23.5762 C   0  0  0  0  0  0  0  0  0  0  0  0
  -30.1138  -16.8680   26.1575 C   0  0  0  0  0  0  0  0  0  0  0  0
  -24.6083  -11.6734   20.7285 C   0  0  0  0  0  0  0  0  0  0  0  0
  -25.1869  -13.7911   20.6039 C   0  0  0  0  0  0  0  0  0  0  0  0
  -27.1788  -18.7484   22.8580 C   0  0  0  0  0  0  0  0  0  0  0  0
  -22.8401  -13.4231   21.3821 C   0  0  0  0  0  0  0  0  0  0  0  0
  -29.4146  -27.7614   20.2439 C   0  0  0  0  0  0  0  0  0  0  0  0
  -31.5086  -26.8422   17.9433 C   0  0  0  0  0  0  0  0  0  0  0  0
  -33.1944  -24.3036   16.4070 C   0  0  0  0  0  0  0  0  0  0  0  0
  -30.9631  -13.9602   20.9507 C   0  0  0  0  0  0  0  0  0  0  0  0
  -28.4827  -32.7697   20.5711 C   0  0  0  0  0  0  0  0  0  0  0  0
  -31.0437  -26.3702   21.5730 C   0  0  0  0  0  0  0  0  0  0  0  0
  -30.2092  -25.0058   19.0856 C   0  0  0  0  0  0  0  0  0  0  0  0
  -26.5348  -20.0958   22.6168 C   0  0  0  0  0  0  0  0  0  0  0  0
  -28.8073  -31.7908   19.4456 C   0  0  0  0  0  0  0  0  0  0  0  0
  -29.2852  -13.2393   17.8944 C   0  0  0  0  0  0  0  0  0  0  0  0
  -27.9127  -30.5586   19.5351 C   0  0  0  0  0  0  0  0  0  0  0  0
  -27.8635  -12.8835   18.3327 C   0  0  0  0  0  0  0  0  0  0  0  0
  -30.3259  -12.7373   18.8929 C   0  0  0  0  0  0  0  0  0  0  0  0
  -28.6797  -12.8061   20.7257 C   0  0  0  0  0  0  0  0  0  0  0  0
  -28.4743  -20.3653   23.9921 C   0  0  0  0  0  0  0  0  0  0  0  0
  -28.1376  -29.8081   20.8533 C   0  0  1  0  0  0  0  0  0  0  0  0
  -30.7827  -27.1413   20.2828 C   0  0  1  0  0  0  0  0  0  0  0  0
  -27.5916  -13.3404   19.7786 C   0  0  2  0  0  0  0  0  0  0  0  0
  -27.6320  -21.0872   22.9587 C   0  0  1  0  0  0  0  0  0  1  0  0
  -29.7254  -17.1898   21.9010 C   0  0  0  0  0  0  0  0  0  0  0  0
  -34.8029  -23.8575   14.5332 C   0  0  0  0  0  0  0  0  0  0  0  0
  -29.2471  -27.1848   15.9238 C   0  0  0  0  0  0  0  0  0  0  0  0
  -30.5958  -25.8484   14.2918 C   0  0  0  0  0  0  0  0  0  0  0  0
  -31.4733  -28.0205   15.1489 C   0  0  0  0  0  0  0  0  0  0  0  0
  -35.2308  -23.2164   18.2591 C   0  0  0  0  0  0  0  0  0  0  0  0
  -31.4506  -15.1584   23.0688 C   0  0  0  0  0  0  0  0  0  0  0  0
  -31.4183  -26.0131   16.6850 C   0  0  1  0  0  0  0  0  0  0  0  0
  -34.6540  -24.1546   16.0172 C   0  0  2  0  0  0  0  0  0  0  0  0
  -30.6768  -26.7559   15.5378 C   0  0  0  0  0  0  0  0  0  0  0  0
  -25.8736  -11.6499   20.3015 N   0  0  0  0  0  0  0  0  0  0  0  0
  -26.1974  -12.9526   20.2354 N   0  0  0  0  0  0  0  0  0  0  0  0
  -28.3028  -18.9572   23.6780 N   0  0  0  0  0  0  0  0  0  0  0  0
  -30.9056  -26.3030   19.0885 N   0  0  0  0  0  0  0  0  0  0  0  0
  -30.0111  -13.2068   20.2443 N   0  0  0  0  0  0  0  0  0  0  0  0
  -25.3427  -15.1320   20.5960 N   0  0  0  0  0  0  0  0  0  0  0  0
  -21.8678  -12.4579   21.6776 N   0  0  0  0  0  0  0  0  0  0  0  0
  -29.3559  -29.0294   20.7900 N   0  0  0  0  0  0  0  0  0  0  0  0
  -32.7841  -25.6190   16.3569 N   0  0  0  0  0  0  0  0  0  0  0  0
  -30.5821  -14.3710   22.2223 N   0  0  0  0  0  0  0  0  0  0  0  0
  -35.2842  -23.0433   16.7846 N   0  3  0  0  0  0  0  0  0  0  0  0
  -26.7015  -17.7085   22.4268 O   0  0  0  0  0  0  0  0  0  0  0  0
  -22.5544  -14.6387   21.5010 O   0  0  0  0  0  0  0  0  0  0  0  0
  -28.4817  -27.1364   19.7533 O   0  0  0  0  0  0  0  0  0  0  0  0
  -32.0988  -27.9250   17.9131 O   0  0  0  0  0  0  0  0  0  0  0  0
  -32.4878  -23.3481   16.7207 O   0  0  0  0  0  0  0  0  0  0  0  0
  -32.0686  -14.2501   20.4809 O   0  0  0  0  0  0  0  0  0  0  0  0
  -21.8210   -6.8896   21.5116 O   0  0  0  0  0  0  0  0  0  0  0  0
  -28.4263  -21.3516   21.8069 O   0  0  0  0  0  0  0  0  0  1  0  0
  -18.8649   -6.3815   26.1384 F   0  0  0  0  0  0  0  0  0  0  0  0
  -22.3605   -4.8741   23.3252 F   0  0  0  0  0  0  0  0  0  0  0  0
  -30.2704  -16.7362   27.8662 Cl  0  0  0  0  0  0  0  0  0  0  0  0
  1  2  1  0  0  0  0
  1  5  2  0  0  0  0
  2  6  2  0  0  0  0
  3  8  2  0  0  0  0
  3 17  1  0  0  0  0
  4  9  1  0  0  0  0
  4 17  2  0  0  0  0
  5 19  1  0  0  0  0
  6 21  1  0  0  0  0
  7 10  2  0  0  0  0
  7 20  1  0  0  0  0
  8 26  1  0  0  0  0
  9 26  2  0  0  0  0
 10 27  1  0  0  0  0
 11 12  2  0  0  0  0
 11 28  1  0  0  0  0
 12 29  1  0  0  0  0
 13 22  1  0  0  0  0
 13 27  2  0  0  0  0
 14 23  2  0  0  0  0
 14 31  1  0  0  0  0
 15 25  1  0  0  0  0
 15 31  2  0  0  0  0
 16 29  2  0  0  0  0
 16 30  1  0  0  0  0
 17 32  1  0  0  0  0
 18 32  1  0  0  0  0
 18 33  2  0  0  0  0
 18 35  1  0  0  0  0
 19 21  2  0  0  0  0
 19 40  1  0  0  0  0
 20 22  2  0  0  0  0
 20 41  1  0  0  0  0
 21 51  1  0  0  0  0
 22 42  1  0  0  0  0
 23 24  1  0  0  0  0
 23 61  1  0  0  0  0
 24 25  2  0  0  0  0
 24 55  1  0  0  0  0
 25 67  1  0  0  0  0
 26 82  1  0  0  0  0
 27 83  1  0  0  0  0
 28 30  2  0  0  0  0
 28 82  1  0  0  0  0
 29 84  1  0  0  0  0
 30 85  1  0  0  0  0
 31 86  1  0  0  0  0
 32 65  2  0  0  0  0
 33 66  1  0  0  0  0
 33 70  1  0  0  0  0
 34 43  1  0  0  0  0
 34 67  1  0  0  0  0
 34 76  2  0  0  0  0
 35 71  1  0  0  0  0
 35 77  2  0  0  0  0
 36 52  1  0  0  0  0
 36 72  1  0  0  0  0
 36 78  2  0  0  0  0
 37 62  1  0  0  0  0
 37 68  1  0  0  0  0
 37 79  2  0  0  0  0
 38 63  1  0  0  0  0
 38 73  1  0  0  0  0
 38 80  2  0  0  0  0
 39 69  1  0  0  0  0
 39 74  1  0  0  0  0
 39 81  2  0  0  0  0
 40 44  1  0  0  0  0
 41 52  1  0  0  0  0
 42 68  1  0  0  0  0
 43 54  1  0  0  0  0
 44 46  1  0  0  0  0
 45 47  1  0  0  0  0
 45 48  1  0  0  0  0
 46 51  1  0  0  0  0
 47 53  1  0  0  0  0
 48 69  1  0  0  0  0
 49 53  1  0  0  0  0
 49 69  1  0  0  0  0
 50 54  1  0  0  0  0
 50 67  1  0  0  0  0
 51 72  1  0  0  0  0
 52 68  1  0  0  0  0
 53 66  1  0  0  0  0
 54 83  1  0  0  0  0
 56 63  1  0  0  0  0
 57 64  1  0  0  0  0
 58 64  1  0  0  0  0
 59 64  1  0  0  0  0
 60 75  1  0  0  0  0
 61 74  1  0  0  0  0
 62 64  1  0  0  0  0
 62 73  1  0  0  0  0
 63 75  1  0  0  0  0
 65 66  1  0  0  0  0
M  CHG  1  75   1
M  ISO  4  39 100  54 101  74 100  83 101
M  END
> <Batch ID>
0029

> <Smiles>
CNC(C)C(=O)NC(C(=O)N1Cc2cc([101O:1][101CH:1]3CC(=O)N(c4cc(Cl)cc(C[100NH:0][100C:0](=O)N5CCCC(n6nc(-c7ccc(Oc8ccc(F)cc8F)cc7)c(C(N)=O)c6N)C5)c4C)C3)ccc2CC1C(=O)NC1CCCc2ccccc21)C(C)(C)C

> <Shape>
0.270

> <Color>
0.200

> <Negative vol penalty>
0.000

$$$$

  -OEChem-04042321343D

 85 94  0     1  0  0  0  0  0999 V2000
  -17.0609  -30.4065   25.5000 C   0  0  0  0  0  0  0  0  0  0  0  0
  -17.8380  -29.2616   25.3566 C   0  0  0  0  0  0  0  0  0  0  0  0
  -22.6641  -10.2346   20.1687 C   0  0  0  0  0  0  0  0  0  0  0  0
  -24.2867   -9.4357   21.7706 C   0  0  0  0  0  0  0  0  0  0  0  0
  -16.9527  -31.3109   24.4444 C   0  0  0  0  0  0  0  0  0  0  0  0
  -18.5065  -29.0197   24.1570 C   0  0  0  0  0  0  0  0  0  0  0  0
  -29.4504  -18.4374   21.1659 C   0  0  0  0  0  0  0  0  0  0  0  0
  -23.9657  -26.3328   23.4618 C   0  0  0  0  0  0  0  0  0  0  0  0
  -28.5281  -19.4664   21.3524 C   0  0  0  0  0  0  0  0  0  0  0  0
  -21.8999   -9.0852   20.3695 C   0  0  0  0  0  0  0  0  0  0  0  0
  -23.5224   -8.2863   21.9715 C   0  0  0  0  0  0  0  0  0  0  0  0
  -24.3344  -25.0295   23.1314 C   0  0  0  0  0  0  0  0  0  0  0  0
  -20.7412   -7.4138   23.6814 C   0  0  0  0  0  0  0  0  0  0  0  0
  -20.5372   -6.9946   24.9960 C   0  0  0  0  0  0  0  0  0  0  0  0
  -28.7225  -19.2007   23.7413 C   0  0  0  0  0  0  0  0  0  0  0  0
  -24.5672  -25.6871   20.8222 C   0  0  0  0  0  0  0  0  0  0  0  0
  -21.6129   -4.8908   24.4919 C   0  0  0  0  0  0  0  0  0  0  0  0
  -23.8576  -10.4099   20.8692 C   0  0  0  0  0  0  0  0  0  0  0  0
  -24.2528  -12.9301   20.8809 C   0  0  0  0  0  0  0  0  0  0  0  0
  -17.6281  -31.0849   23.2346 C   0  0  0  0  0  0  0  0  0  0  0  0
  -23.8843  -27.3222   22.4714 C   0  0  0  0  0  0  0  0  0  0  0  0
  -18.4062  -29.9213   23.0838 C   0  0  0  0  0  0  0  0  0  0  0  0
  -30.0217  -17.7753   22.2659 C   0  0  0  0  0  0  0  0  0  0  0  0
  -29.6454  -18.1571   23.5683 C   0  0  0  0  0  0  0  0  0  0  0  0
  -24.1998  -27.0029   21.1430 C   0  0  0  0  0  0  0  0  0  0  0  0
  -28.1643  -19.8479   22.6398 C   0  0  0  0  0  0  0  0  0  0  0  0
  -22.3290   -8.1111   21.2709 C   0  0  0  0  0  0  0  0  0  0  0  0
  -24.6324  -24.7058   21.8110 C   0  0  0  0  0  0  0  0  0  0  0  0
  -21.3809   -6.5715   22.7720 C   0  0  0  0  0  0  0  0  0  0  0  0
  -20.9731   -5.7331   25.4013 C   0  0  0  0  0  0  0  0  0  0  0  0
  -21.8168   -5.3100   23.1773 C   0  0  0  0  0  0  0  0  0  0  0  0
  -24.6478  -11.5968   20.6617 C   0  0  0  0  0  0  0  0  0  0  0  0
  -25.3542  -13.6753   20.5374 C   0  0  0  0  0  0  0  0  0  0  0  0
  -23.0022  -13.4486   21.3529 C   0  0  0  0  0  0  0  0  0  0  0  0
  -21.5562  -29.1502   21.3129 C   0  0  0  0  0  0  0  0  0  0  0  0
  -23.9861  -30.5211   19.6581 C   0  0  0  0  0  0  0  0  0  0  0  0
  -26.5897  -21.6474   21.8535 C   0  0  0  0  0  0  0  0  0  0  0  0
  -27.1227  -30.2314   18.3446 C   0  0  0  0  0  0  0  0  0  0  0  0
  -30.8617  -14.5669   20.6711 C   0  0  0  0  0  0  0  0  0  0  0  0
  -17.4428  -32.0673   22.1053 C   0  0  0  0  0  0  0  0  0  0  0  0
  -23.5110  -28.7297   22.8484 C   0  0  0  0  0  0  0  0  0  0  0  0
  -30.2595  -17.5230   24.7917 C   0  0  0  0  0  0  0  0  0  0  0  0
  -24.1472  -28.0333   20.0457 C   0  0  0  0  0  0  0  0  0  0  0  0
  -18.4841  -31.9259   20.9981 C   0  0  0  0  0  0  0  0  0  0  0  0
  -30.9758  -16.2055   24.5052 C   0  0  0  0  0  0  0  0  0  0  0  0
  -29.6268  -12.3423   18.1806 C   0  0  0  0  0  0  0  0  0  0  0  0
  -18.6612  -30.4599   20.6158 C   0  0  0  0  0  0  0  0  0  0  0  0
  -31.8481  -16.3333   23.2615 C   0  0  0  0  0  0  0  0  0  0  0  0
  -28.1916  -12.0554   18.6255 C   0  0  0  0  0  0  0  0  0  0  0  0
  -30.5711  -12.4772   19.3731 C   0  0  0  0  0  0  0  0  0  0  0  0
  -28.7125  -13.1704   20.8356 C   0  0  0  0  0  0  0  0  0  0  0  0
  -19.1665  -29.6364   21.8067 C   0  0  1  0  0  0  0  0  0  0  0  0
  -30.9984  -16.6440   22.0224 C   0  0  1  0  0  0  0  0  0  0  0  0
  -22.9621  -29.5367   21.6759 C   0  0  1  0  0  0  0  0  0  0  0  0
  -27.7126  -13.0816   19.6700 C   0  0  2  0  0  0  0  0  0  0  0  0
  -28.8263  -31.5055   17.0135 C   0  0  0  0  0  0  0  0  0  0  0  0
  -22.3724  -30.0197   17.1175 C   0  0  0  0  0  0  0  0  0  0  0  0
  -24.4614  -30.4163   15.7957 C   0  0  0  0  0  0  0  0  0  0  0  0
  -23.5145  -32.2428   17.2063 C   0  0  0  0  0  0  0  0  0  0  0  0
  -29.0999  -30.1128   20.5436 C   0  0  0  0  0  0  0  0  0  0  0  0
  -25.6693  -22.6747   22.4860 C   0  0  0  0  0  0  0  0  0  1  0  0
  -24.6423  -30.2738   18.3212 C   0  0  1  0  0  0  0  0  0  0  0  0
  -28.3293  -31.1504   18.4062 C   0  0  2  0  0  0  0  0  0  0  0  0
  -23.7469  -30.7181   17.1303 C   0  0  0  0  0  0  0  0  0  0  0  0
  -25.9021  -11.4976   20.2135 N   0  0  0  0  0  0  0  0  0  0  0  0
  -26.3048  -12.7781   20.1481 N   0  0  0  0  0  0  0  0  0  0  0  0
  -23.7708  -29.3939   20.4636 N   0  0  0  0  0  0  0  0  0  0  0  0
  -30.0602  -13.4665   20.3250 N   0  0  0  0  0  0  0  0  0  0  0  0
  -25.5925  -15.0041   20.5332 N   0  0  0  0  0  0  0  0  0  0  0  0
  -22.8284  -13.6206   22.7329 N   0  0  0  0  0  0  0  0  0  0  0  0
  -27.2335  -20.8969   22.8315 N   0  0  0  0  0  0  0  0  0  0  0  0
  -20.5845  -29.8494   22.0031 N   0  0  0  0  0  0  0  0  0  0  0  0
  -25.9396  -30.9391   18.3740 N   0  0  0  0  0  0  0  0  0  0  0  0
  -30.2992  -15.4602   21.5746 N   0  0  0  0  0  0  0  0  0  0  0  0
  -29.4424  -30.4948   19.1494 N   0  3  0  0  0  0  0  0  0  0  0  0
  -22.0606  -13.7349   20.5751 O   0  0  0  0  0  0  0  0  0  0  0  0
  -21.3671  -28.2829   20.4680 O   0  0  0  0  0  0  0  0  0  0  0  0
  -23.6825  -31.6728   19.9789 O   0  0  0  0  0  0  0  0  0  0  0  0
  -26.7017  -21.5484   20.6360 O   0  0  0  0  0  0  0  0  0  0  0  0
  -27.2199  -29.0083   18.2735 O   0  0  0  0  0  0  0  0  0  0  0  0
  -31.9925  -14.7433   20.2051 O   0  0  0  0  0  0  0  0  0  0  0  0
  -21.5834   -6.9895   21.4674 O   0  0  0  0  0  0  0  0  0  0  0  0
  -24.9919  -23.4342   21.4856 O   0  0  0  0  0  0  0  0  0  1  0  0
  -20.7786   -5.3312   26.6642 F   0  0  0  0  0  0  0  0  0  0  0  0
  -22.4331   -4.4969   22.3085 F   0  0  0  0  0  0  0  0  0  0  0  0
  1  2  1  0  0  0  0
  1  5  2  0  0  0  0
  2  6  2  0  0  0  0
  3 10  2  0  0  0  0
  3 18  1  0  0  0  0
  4 11  1  0  0  0  0
  4 18  2  0  0  0  0
  5 20  1  0  0  0  0
  6 22  1  0  0  0  0
  7  9  2  0  0  0  0
  7 23  1  0  0  0  0
  8 12  2  0  0  0  0
  8 21  1  0  0  0  0
  9 26  1  0  0  0  0
 10 27  1  0  0  0  0
 11 27  2  0  0  0  0
 12 28  1  0  0  0  0
 13 14  2  0  0  0  0
 13 29  1  0  0  0  0
 14 30  1  0  0  0  0
 15 24  1  0  0  0  0
 15 26  2  0  0  0  0
 16 25  1  0  0  0  0
 16 28  2  0  0  0  0
 17 30  2  0  0  0  0
 17 31  1  0  0  0  0
 18 32  1  0  0  0  0
 19 32  1  0  0  0  0
 19 33  2  0  0  0  0
 19 34  1  0  0  0  0
 20 22  2  0  0  0  0
 20 40  1  0  0  0  0
 21 25  2  0  0  0  0
 21 41  1  0  0  0  0
 22 52  1  0  0  0  0
 23 24  2  0  0  0  0
 23 53  1  0  0  0  0
 24 42  1  0  0  0  0
 25 43  1  0  0  0  0
 26 71  1  0  0  0  0
 27 82  1  0  0  0  0
 28 83  1  0  0  0  0
 29 31  2  0  0  0  0
 29 82  1  0  0  0  0
 30 84  1  0  0  0  0
 31 85  1  0  0  0  0
 32 65  2  0  0  0  0
 33 66  1  0  0  0  0
 33 69  1  0  0  0  0
 34 70  1  0  0  0  0
 34 76  2  0  0  0  0
 35 54  1  0  0  0  0
 35 72  1  0  0  0  0
 35 77  2  0  0  0  0
 36 62  1  0  0  0  0
 36 67  1  0  0  0  0
 36 78  2  0  0  0  0
 37 61  1  0  0  0  0
 37 71  1  0  0  0  0
 37 79  2  0  0  0  0
 38 63  1  0  0  0  0
 38 73  1  0  0  0  0
 38 80  2  0  0  0  0
 39 68  1  0  0  0  0
 39 74  1  0  0  0  0
 39 81  2  0  0  0  0
 40 44  1  0  0  0  0
 41 54  1  0  0  0  0
 42 45  1  0  0  0  0
 43 67  1  0  0  0  0
 44 47  1  0  0  0  0
 45 48  1  0  0  0  0
 46 49  1  0  0  0  0
 46 50  1  0  0  0  0
 47 52  1  0  0  0  0
 48 53  1  0  0  0  0
 49 55  1  0  0  0  0
 50 68  1  0  0  0  0
 51 55  1  0  0  0  0
 51 68  1  0  0  0  0
 52 72  1  0  0  0  0
 53 74  1  0  0  0  0
 54 67  1  0  0  0  0
 55 66  1  0  0  0  0
 56 63  1  0  0  0  0
 57 64  1  0  0  0  0
 58 64  1  0  0  0  0
 59 64  1  0  0  0  0
 60 75  1  0  0  0  0
 61 83  1  0  0  0  0
 62 64  1  0  0  0  0
 62 73  1  0  0  0  0
 63 75  1  0  0  0  0
 65 66  1  0  0  0  0
M  CHG  1  75   1
M  ISO  4  39 100  61 101  74 100  83 101
M  END
> <Batch ID>
0029

> <Smiles>
CNC(C)C(=O)NC(C(=O)N1Cc2cc([101O:1][101CH2:1]C(=O)Nc3ccc4c(c3)CCCC4[100NH:0][100C:0](=O)N3CCCC(n4nc(-c5ccc(Oc6ccc(F)cc6F)cc5)c(C(N)=O)c4N)C3)ccc2CC1C(=O)NC1CCCc2ccccc21)C(C)(C)C

> <Shape>
0.298

> <Color>
0.188

> <Negative vol penalty>
0.000

$$$$

  -OEChem-04042321343D

 85 93  0     1  0  0  0  0  0999 V2000
  -16.9330  -29.0864   24.4044 C   0  0  0  0  0  0  0  0  0  0  0  0
  -17.3491  -28.0378   23.5902 C   0  0  0  0  0  0  0  0  0  0  0  0
  -29.6810  -22.0778   20.9572 C   0  0  0  0  0  0  0  0  0  0  0  0
  -26.5558  -10.6006   20.5528 C   0  0  0  0  0  0  0  0  0  0  0  0
  -25.3130  -12.3880   19.5052 C   0  0  0  0  0  0  0  0  0  0  0  0
  -17.5815  -30.3188   24.3377 C   0  0  0  0  0  0  0  0  0  0  0  0
  -18.4132  -28.2215   22.7080 C   0  0  0  0  0  0  0  0  0  0  0  0
  -22.6137  -24.0685   21.0910 C   0  0  0  0  0  0  0  0  0  0  0  0
  -28.6866  -22.3906   20.0305 C   0  0  0  0  0  0  0  0  0  0  0  0
  -29.6476  -20.8567   21.6307 C   0  0  0  0  0  0  0  0  0  0  0  0
  -25.3912   -9.8370   20.6316 C   0  0  0  0  0  0  0  0  0  0  0  0
  -24.1484  -11.6244   19.5839 C   0  0  0  0  0  0  0  0  0  0  0  0
  -22.7327  -23.2398   19.9762 C   0  0  0  0  0  0  0  0  0  0  0  0
  -23.5195   -7.9279   18.5615 C   0  0  0  0  0  0  0  0  0  0  0  0
  -23.5979   -6.5860   18.1894 C   0  0  0  0  0  0  0  0  0  0  0  0
  -24.1942  -24.8547   18.9393 C   0  0  0  0  0  0  0  0  0  0  0  0
  -27.6252  -20.2613   20.4507 C   0  0  0  0  0  0  0  0  0  0  0  0
  -22.8950   -5.9303   20.4060 C   0  0  0  0  0  0  0  0  0  0  0  0
  -26.5167  -11.8762   19.9896 C   0  0  0  0  0  0  0  0  0  0  0  0
  -28.6487  -12.6927   18.8516 C   0  0  0  0  0  0  0  0  0  0  0  0
  -18.6603  -30.5148   23.4611 C   0  0  0  0  0  0  0  0  0  0  0  0
  -23.2764  -25.3036   21.1338 C   0  0  0  0  0  0  0  0  0  0  0  0
  -19.0758  -29.4581   22.6285 C   0  0  0  0  0  0  0  0  0  0  0  0
  -24.0840  -25.6961   20.0568 C   0  0  0  0  0  0  0  0  0  0  0  0
  -27.6587  -21.4823   19.7772 C   0  0  0  0  0  0  0  0  0  0  0  0
  -28.6197  -19.9484   21.3774 C   0  0  0  0  0  0  0  0  0  0  0  0
  -24.1875  -10.3489   20.1471 C   0  0  0  0  0  0  0  0  0  0  0  0
  -23.5208  -23.6341   18.8989 C   0  0  0  0  0  0  0  0  0  0  0  0
  -23.1290   -8.2711   19.8559 C   0  0  0  0  0  0  0  0  0  0  0  0
  -23.2856   -5.5871   19.1116 C   0  0  0  0  0  0  0  0  0  0  0  0
  -22.8167   -7.2723   20.7781 C   0  0  0  0  0  0  0  0  0  0  0  0
  -27.7193  -12.6657   19.9085 C   0  0  0  0  0  0  0  0  0  0  0  0
  -29.6027  -13.5943   19.2562 C   0  0  0  0  0  0  0  0  0  0  0  0
  -28.6497  -11.9678   17.6146 C   0  0  0  0  0  0  0  0  0  0  0  0
  -22.3540  -28.3382   21.3430 C   0  0  0  0  0  0  0  0  0  0  0  0
  -25.5423  -28.8839   21.5865 C   0  0  0  0  0  0  0  0  0  0  0  0
  -28.7211  -27.8143   20.9558 C   0  0  0  0  0  0  0  0  0  0  0  0
  -29.4955  -18.2418   23.0104 C   0  0  0  0  0  0  0  0  0  0  0  0
  -19.2996  -31.8790   23.3903 C   0  0  0  0  0  0  0  0  0  0  0  0
  -23.1592  -26.1740   22.3549 C   0  0  0  0  0  0  0  0  0  0  0  0
  -24.8324  -27.0031   20.0619 C   0  0  0  0  0  0  0  0  0  0  0  0
  -20.6600  -31.8789   22.6978 C   0  0  0  0  0  0  0  0  0  0  0  0
  -31.6190  -15.3909   23.2111 C   0  0  0  0  0  0  0  0  0  0  0  0
  -20.5993  -31.0768   21.4018 C   0  0  0  0  0  0  0  0  0  0  0  0
  -30.9478  -14.3731   22.2860 C   0  0  0  0  0  0  0  0  0  0  0  0
  -30.5929  -16.2297   23.9708 C   0  0  0  0  0  0  0  0  0  0  0  0
  -28.9128  -15.8694   22.2055 C   0  0  0  0  0  0  0  0  0  0  0  0
  -20.2422  -29.6110   21.6764 C   0  0  1  0  0  0  0  0  0  0  0  0
  -23.4666  -27.6417   22.0742 C   0  0  1  0  0  0  0  0  0  0  0  0
  -29.9060  -15.0450   21.3703 C   0  0  2  0  0  0  0  0  0  0  0  0
  -31.1205  -28.4928   21.2393 C   0  0  0  0  0  0  0  0  0  0  0  0
  -25.2531  -30.8609   19.2804 C   0  0  0  0  0  0  0  0  0  0  0  0
  -27.7383  -30.7773   18.9890 C   0  0  0  0  0  0  0  0  0  0  0  0
  -26.7624  -31.6217   21.1238 C   0  0  0  0  0  0  0  0  0  0  0  0
  -24.6089  -19.2137   17.3574 C   0  0  0  0  0  0  0  0  0  0  0  0
  -23.4805  -20.5809   15.5968 C   0  0  0  0  0  0  0  0  0  0  0  0
  -29.3121  -25.4503   22.6355 C   0  0  0  0  0  0  0  0  0  0  0  0
  -28.1129  -21.2964   16.8815 C   0  0  0  0  0  0  0  0  0  0  0  0
  -26.5893  -21.8193   18.7803 C   0  0  0  0  0  0  0  0  0  0  0  0
  -25.6507  -21.3764   16.5168 C   0  0  0  0  0  0  0  0  0  0  0  0
  -23.5386  -21.3938   17.9771 C   0  0  0  0  0  0  0  0  0  1  0  0
  -26.6594  -29.1491   20.6063 C   0  0  1  0  0  0  0  0  0  0  0  0
  -29.9505  -27.7312   21.8426 C   0  0  2  0  0  0  0  0  0  0  0  0
  -26.5878  -30.5784   19.9987 C   0  0  0  0  0  0  0  0  0  0  0  0
  -24.3345  -20.6520   16.8805 C   0  0  0  0  0  0  0  0  0  0  0  0
  -28.0527  -13.4848   20.9095 N   0  0  0  0  0  0  0  0  0  0  0  0
  -29.2024  -14.0350   20.4833 N   0  0  0  0  0  0  0  0  0  0  0  0
  -24.6808  -27.8222   21.2759 N   0  0  0  0  0  0  0  0  0  0  0  0
  -29.6416  -16.8387   23.0386 N   0  0  0  0  0  0  0  0  0  0  0  0
  -30.7365  -14.0450   18.6785 N   0  0  0  0  0  0  0  0  0  0  0  0
  -27.5939  -11.0824   17.3582 N   0  0  0  0  0  0  0  0  0  0  0  0
  -28.5864  -18.7079   22.0613 N   0  0  0  0  0  0  0  0  0  0  0  0
  -21.3975  -28.8935   22.1714 N   0  0  0  0  0  0  0  0  0  0  0  0
  -27.9016  -28.8631   21.3160 N   0  0  0  0  0  0  0  0  0  0  0  0
  -30.3601  -26.3104   22.0282 N   0  3  0  0  0  0  0  0  0  0  0  0
  -26.7427  -21.0774   17.4750 N   0  3  1  0  0  0  0  0  0  0  0  0
  -29.5684  -12.0889   16.7691 O   0  0  0  0  0  0  0  0  0  0  0  0
  -22.3634  -28.3708   20.1181 O   0  0  0  0  0  0  0  0  0  0  0  0
  -25.4421  -29.5882   22.5942 O   0  0  0  0  0  0  0  0  0  0  0  0
  -28.5109  -27.0298   20.0334 O   0  0  0  0  0  0  0  0  0  0  0  0
  -30.1502  -18.9775   23.7535 O   0  0  0  0  0  0  0  0  0  0  0  0
  -23.0509   -9.6039   20.2236 O   0  0  0  0  0  0  0  0  0  0  0  0
  -23.6381  -22.8273   17.8093 O   0  0  0  0  0  0  0  0  0  1  0  0
  -23.3594   -4.2985   18.7536 F   0  0  0  0  0  0  0  0  0  0  0  0
  -22.4398   -7.5959   22.0227 F   0  0  0  0  0  0  0  0  0  0  0  0
  1  2  1  0  0  0  0
  1  6  2  0  0  0  0
  2  7  2  0  0  0  0
  3  9  2  0  0  0  0
  3 10  1  0  0  0  0
  4 11  2  0  0  0  0
  4 19  1  0  0  0  0
  5 12  1  0  0  0  0
  5 19  2  0  0  0  0
  6 21  1  0  0  0  0
  7 23  1  0  0  0  0
  8 13  2  0  0  0  0
  8 22  1  0  0  0  0
  9 25  1  0  0  0  0
 10 26  2  0  0  0  0
 11 27  1  0  0  0  0
 12 27  2  0  0  0  0
 13 28  1  0  0  0  0
 14 15  2  0  0  0  0
 14 29  1  0  0  0  0
 15 30  1  0  0  0  0
 16 24  1  0  0  0  0
 16 28  2  0  0  0  0
 17 25  2  0  0  0  0
 17 26  1  0  0  0  0
 18 30  2  0  0  0  0
 18 31  1  0  0  0  0
 19 32  1  0  0  0  0
 20 32  1  0  0  0  0
 20 33  2  0  0  0  0
 20 34  1  0  0  0  0
 21 23  2  0  0  0  0
 21 39  1  0  0  0  0
 22 24  2  0  0  0  0
 22 40  1  0  0  0  0
 23 48  1  0  0  0  0
 24 41  1  0  0  0  0
 25 59  1  0  0  0  0
 26 72  1  0  0  0  0
 27 82  1  0  0  0  0
 28 83  1  0  0  0  0
 29 31  2  0  0  0  0
 29 82  1  0  0  0  0
 30 84  1  0  0  0  0
 31 85  1  0  0  0  0
 32 66  2  0  0  0  0
 33 67  1  0  0  0  0
 33 70  1  0  0  0  0
 34 71  1  0  0  0  0
 34 77  2  0  0  0  0
 35 49  1  0  0  0  0
 35 73  1  0  0  0  0
 35 78  2  0  0  0  0
 36 62  1  0  0  0  0
 36 68  1  0  0  0  0
 36 79  2  0  0  0  0
 37 63  1  0  0  0  0
 37 74  1  0  0  0  0
 37 80  2  0  0  0  0
 38 69  1  0  0  0  0
 38 72  1  0  0  0  0
 38 81  2  0  0  0  0
 39 42  1  0  0  0  0
 40 49  1  0  0  0  0
 41 68  1  0  0  0  0
 42 44  1  0  0  0  0
 43 45  1  0  0  0  0
 43 46  1  0  0  0  0
 44 48  1  0  0  0  0
 45 50  1  0  0  0  0
 46 69  1  0  0  0  0
 47 50  1  0  0  0  0
 47 69  1  0  0  0  0
 48 73  1  0  0  0  0
 49 68  1  0  0  0  0
 50 67  1  0  0  0  0
 51 63  1  0  0  0  0
 52 64  1  0  0  0  0
 53 64  1  0  0  0  0
 54 64  1  0  0  0  0
 55 65  1  0  0  0  0
 56 65  1  0  0  0  0
 57 75  1  0  0  0  0
 58 76  1  0  0  0  0
 59 76  1  0  0  0  0
 60 65  1  0  0  0  0
 60 76  1  0  0  0  0
 61 65  1  0  0  0  0
 61 83  1  0  0  0  0
 62 64  1  0  0  0  0
 62 74  1  0  0  0  0
 63 75  1  0  0  0  0
 66 67  1  0  0  0  0
M  CHG  2  75   1  76   1
M  ISO  4  38 100  61 101  72 100  83 101
M  END
> <Batch ID>
0029

> <Smiles>
CNC(C)C(=O)NC(C(=O)N1Cc2cc([101O:1][101CH2:1]C(C)(C)CN(C)Cc3cccc([100NH:0][100C:0](=O)N4CCCC(n5nc(-c6ccc(Oc7ccc(F)cc7F)cc6)c(C(N)=O)c5N)C4)c3)ccc2CC1C(=O)NC1CCCc2ccccc21)C(C)(C)C

> <Shape>
0.260

> <Color>
0.062

> <Negative vol penalty>
0.000

$$$$

  -OEChem-04042321343D

 87 96  0     1  0  0  0  0  0999 V2000
  -22.5637  -23.6630   20.2851 C   0  0  0  0  0  0  0  0  0  0  0  0
  -23.7493  -22.9556   20.4563 C   0  0  0  0  0  0  0  0  0  0  0  0
  -22.5966  -28.7248   20.2847 C   0  0  0  0  0  0  0  0  0  0  0  0
  -23.4795  -27.8380   22.3513 C   0  0  0  0  0  0  0  0  0  0  0  0
  -21.3588  -23.1200   20.7295 C   0  0  0  0  0  0  0  0  0  0  0  0
  -23.7308  -21.7051   21.0730 C   0  0  0  0  0  0  0  0  0  0  0  0
  -26.5644  -18.2922   18.6300 C   0  0  0  0  0  0  0  0  0  0  0  0
  -33.8137  -23.4085   20.3159 C   0  0  0  0  0  0  0  0  0  0  0  0
  -21.3152  -28.7331   20.8356 C   0  0  0  0  0  0  0  0  0  0  0  0
  -22.1981  -27.8463   22.9023 C   0  0  0  0  0  0  0  0  0  0  0  0
  -27.9441  -18.3573   18.8195 C   0  0  0  0  0  0  0  0  0  0  0  0
  -17.7563  -28.6494   21.5777 C   0  0  0  0  0  0  0  0  0  0  0  0
  -16.7091  -28.1629   20.7953 C   0  0  0  0  0  0  0  0  0  0  0  0
  -34.2988  -22.5990   21.3429 C   0  0  0  0  0  0  0  0  0  0  0  0
  -27.8041  -16.5528   20.4143 C   0  0  0  0  0  0  0  0  0  0  0  0
  -17.8037  -26.0129   20.6673 C   0  0  0  0  0  0  0  0  0  0  0  0
  -23.6787  -28.2772   21.0425 C   0  0  0  0  0  0  0  0  0  0  0  0
  -25.9523  -29.3062   20.5137 C   0  0  0  0  0  0  0  0  0  0  0  0
  -21.3244  -21.8580   21.3433 C   0  0  0  0  0  0  0  0  0  0  0  0
  -25.7914  -17.3626   19.3406 C   0  0  0  0  0  0  0  0  0  0  0  0
  -22.5246  -21.1452   21.5272 C   0  0  0  0  0  0  0  0  0  0  0  0
  -26.4151  -16.4762   20.2301 C   0  0  0  0  0  0  0  0  0  0  0  0
  -33.2255  -22.8306   19.1908 C   0  0  0  0  0  0  0  0  0  0  0  0
  -33.1225  -21.4430   19.0928 C   0  0  0  0  0  0  0  0  0  0  0  0
  -33.6077  -20.6333   20.1199 C   0  0  0  0  0  0  0  0  0  0  0  0
  -21.1159  -28.2939   22.1445 C   0  0  0  0  0  0  0  0  0  0  0  0
  -28.5638  -17.4895   19.7138 C   0  0  0  0  0  0  0  0  0  0  0  0
  -18.8272  -27.8177   21.9049 C   0  0  0  0  0  0  0  0  0  0  0  0
  -16.7328  -26.8446   20.3401 C   0  0  0  0  0  0  0  0  0  0  0  0
  -18.8509  -26.4994   21.4498 C   0  0  0  0  0  0  0  0  0  0  0  0
  -34.1958  -21.2114   21.2449 C   0  0  0  0  0  0  0  0  0  0  0  0
  -25.0026  -28.2679   20.4737 C   0  0  0  0  0  0  0  0  0  0  0  0
  -27.0372  -28.8055   19.8364 C   0  0  0  0  0  0  0  0  0  0  0  0
  -25.8620  -30.6070   21.1100 C   0  0  0  0  0  0  0  0  0  0  0  0
  -23.4210  -17.5615   21.4490 C   0  0  0  0  0  0  0  0  0  0  0  0
  -23.3703  -14.3358   21.1108 C   0  0  0  0  0  0  0  0  0  0  0  0
  -25.0464  -11.4839   20.2714 C   0  0  0  0  0  0  0  0  0  0  0  0
  -30.6040  -24.7643   18.8913 C   0  0  0  0  0  0  0  0  0  0  0  0
  -20.0044  -21.3329   21.8498 C   0  0  0  0  0  0  0  0  0  0  0  0
  -24.3078  -17.2872   19.1050 C   0  0  0  0  0  0  0  0  0  0  0  0
  -25.6331  -15.4464   21.0023 C   0  0  0  0  0  0  0  0  0  0  0  0
  -20.0208  -19.8375   22.1561 C   0  0  0  0  0  0  0  0  0  0  0  0
  -27.5182  -24.6413   17.0045 C   0  0  0  0  0  0  0  0  0  0  0  0
  -21.2641  -19.4709   22.9602 C   0  0  0  0  0  0  0  0  0  0  0  0
  -26.6644  -25.6682   17.7506 C   0  0  0  0  0  0  0  0  0  0  0  0
  -31.2741  -16.7117   21.6944 C   0  0  0  0  0  0  0  0  0  0  0  0
  -28.3918  -23.8439   17.9683 C   0  0  0  0  0  0  0  0  0  0  0  0
  -28.4181  -25.7042   19.5845 C   0  0  0  0  0  0  0  0  0  0  0  0
  -32.5901  -17.0207   21.0093 C   0  0  0  0  0  0  0  0  0  0  0  0
  -31.2614  -19.0688   21.2081 C   0  0  0  0  0  0  0  0  0  0  0  0
  -22.5422  -19.7750   22.1693 C   0  0  1  0  0  0  0  0  0  0  0  0
  -23.5505  -16.6466   20.2641 C   0  0  1  0  0  0  0  0  0  0  0  0
  -27.5286  -26.5585   18.6631 C   0  0  2  0  0  0  0  0  0  0  0  0
  -30.3699  -17.8369   21.2216 C   0  0  1  0  0  0  0  0  0  1  0  0
  -32.4898  -20.8290   17.8836 C   0  0  0  0  0  0  0  0  0  0  0  0
  -24.7535   -8.9956   20.1317 C   0  0  0  0  0  0  0  0  0  0  0  0
  -23.6135  -14.1391   24.1460 C   0  0  0  0  0  0  0  0  0  0  0  0
  -24.2651  -11.7378   23.8684 C   0  0  0  0  0  0  0  0  0  0  0  0
  -22.0151  -12.5123   23.1199 C   0  0  0  0  0  0  0  0  0  0  0  0
  -25.5610  -11.4704   17.3570 C   0  0  0  0  0  0  0  0  0  0  0  0
  -33.8065  -20.8520   23.9343 C   0  0  0  0  0  0  0  0  0  0  0  0
  -32.7140  -23.7211   18.1059 C   0  0  0  0  0  0  0  0  0  0  0  0
  -33.4850  -19.1434   19.9934 C   0  0  0  0  0  0  0  0  0  0  0  0
  -24.0604  -13.1785   21.7915 C   0  0  1  0  0  0  0  0  0  0  0  0
  -24.6633  -10.3153   19.3814 C   0  0  2  0  0  0  0  0  0  0  0  0
  -23.5033  -12.9125   23.2185 C   0  0  0  0  0  0  0  0  0  0  0  0
  -25.4451  -27.1891   19.8223 N   0  0  0  0  0  0  0  0  0  0  0  0
  -26.6849  -27.5468   19.4467 N   0  0  0  0  0  0  0  0  0  0  0  0
  -24.1843  -15.4161   20.7420 N   0  0  0  0  0  0  0  0  0  0  0  0
  -29.2027  -24.7496   18.7944 N   0  0  0  0  0  0  0  0  0  0  0  0
  -28.2486  -29.3235   19.5420 N   0  0  0  0  0  0  0  0  0  0  0  0
  -24.6755  -30.9597   21.7673 N   0  0  0  0  0  0  0  0  0  0  0  0
  -22.7754  -18.7516   21.1729 N   0  0  0  0  0  0  0  0  0  0  0  0
  -23.9443  -12.0426   20.8834 N   0  0  0  0  0  0  0  0  0  0  0  0
  -31.2717  -23.8239   18.1163 N   0  0  0  0  0  0  0  0  0  0  0  0
  -32.6786  -18.5268   21.0908 N   0  3  2  0  0  0  0  0  0  0  0  0
  -25.5677  -10.2465   18.1989 N   0  3  0  0  0  0  0  0  0  0  0  0
  -26.7995  -31.4381   21.0470 O   0  0  0  0  0  0  0  0  0  0  0  0
  -23.8721  -17.2128   22.5337 O   0  0  0  0  0  0  0  0  0  0  0  0
  -22.1549  -14.2801   20.9072 O   0  0  0  0  0  0  0  0  0  0  0  0
  -26.2076  -11.8610   20.4126 O   0  0  0  0  0  0  0  0  0  0  0  0
  -31.2158  -25.5606   19.6115 O   0  0  0  0  0  0  0  0  0  0  0  0
  -19.8657  -28.3020   22.6825 O   0  0  0  0  0  0  0  0  0  0  0  0
  -29.9103  -17.5513   19.9012 O   0  0  0  0  0  0  0  0  0  1  0  0
  -15.7263  -26.3770   19.5900 F   0  0  0  0  0  0  0  0  0  0  0  0
  -19.8765  -25.6953   21.7618 F   0  0  0  0  0  0  0  0  0  0  0  0
  -34.8341  -20.2209   22.5911 S   0  0  0  0  0  0  0  0  0  0  0  0
  1  2  1  0  0  0  0
  1  5  2  0  0  0  0
  2  6  2  0  0  0  0
  3  9  2  0  0  0  0
  3 17  1  0  0  0  0
  4 10  1  0  0  0  0
  4 17  2  0  0  0  0
  5 19  1  0  0  0  0
  6 21  1  0  0  0  0
  7 11  2  0  0  0  0
  7 20  1  0  0  0  0
  8 14  1  0  0  0  0
  8 23  2  0  0  0  0
  9 26  1  0  0  0  0
 10 26  2  0  0  0  0
 11 27  1  0  0  0  0
 12 13  2  0  0  0  0
 12 28  1  0  0  0  0
 13 29  1  0  0  0  0
 14 31  2  0  0  0  0
 15 22  1  0  0  0  0
 15 27  2  0  0  0  0
 16 29  2  0  0  0  0
 16 30  1  0  0  0  0
 17 32  1  0  0  0  0
 18 32  1  0  0  0  0
 18 33  2  0  0  0  0
 18 34  1  0  0  0  0
 19 21  2  0  0  0  0
 19 39  1  0  0  0  0
 20 22  2  0  0  0  0
 20 40  1  0  0  0  0
 21 51  1  0  0  0  0
 22 41  1  0  0  0  0
 23 24  1  0  0  0  0
 23 62  1  0  0  0  0
 24 25  2  0  0  0  0
 24 55  1  0  0  0  0
 25 31  1  0  0  0  0
 25 63  1  0  0  0  0
 26 83  1  0  0  0  0
 27 84  1  0  0  0  0
 28 30  2  0  0  0  0
 28 83  1  0  0  0  0
 29 85  1  0  0  0  0
 30 86  1  0  0  0  0
 31 87  1  0  0  0  0
 32 67  2  0  0  0  0
 33 68  1  0  0  0  0
 33 71  1  0  0  0  0
 34 72  1  0  0  0  0
 34 78  2  0  0  0  0
 35 52  1  0  0  0  0
 35 73  1  0  0  0  0
 35 79  2  0  0  0  0
 36 64  1  0  0  0  0
 36 69  1  0  0  0  0
 36 80  2  0  0  0  0
 37 65  1  0  0  0  0
 37 74  1  0  0  0  0
 37 81  2  0  0  0  0
 38 70  1  0  0  0  0
 38 75  1  0  0  0  0
 38 82  2  0  0  0  0
 39 42  1  0  0  0  0
 40 52  1  0  0  0  0
 41 69  1  0  0  0  0
 42 44  1  0  0  0  0
 43 45  1  0  0  0  0
 43 47  1  0  0  0  0
 44 51  1  0  0  0  0
 45 53  1  0  0  0  0
 46 49  1  0  0  0  0
 46 54  1  0  0  0  0
 47 70  1  0  0  0  0
 48 53  1  0  0  0  0
 48 70  1  0  0  0  0
 49 76  1  0  0  0  0
 50 54  1  0  0  0  0
 50 76  1  0  0  0  0
 51 73  1  0  0  0  0
 52 69  1  0  0  0  0
 53 68  1  0  0  0  0
 54 84  1  0  0  0  0
 56 65  1  0  0  0  0
 57 66  1  0  0  0  0
 58 66  1  0  0  0  0
 59 66  1  0  0  0  0
 60 77  1  0  0  0  0
 61 87  1  0  0  0  0
 62 75  1  0  0  0  0
 63 76  1  0  0  0  0
 64 66  1  0  0  0  0
 64 74  1  0  0  0  0
 65 77  1  0  0  0  0
 67 68  1  0  0  0  0
M  CHG  2  76   1  77   1
M  ISO  4  38 100  54 101  75 100  84 101
M  END
> <Batch ID>
0029

> <Smiles>
CNC(C)C(=O)NC(C(=O)N1Cc2cc([101O:1][101CH:1]3CCN(Cc4c(SC)ccc(C[100NH:0][100C:0](=O)N5CCCC(n6nc(-c7ccc(Oc8ccc(F)cc8F)cc7)c(C(N)=O)c6N)C5)c4C)C3)ccc2CC1C(=O)NC1CCCc2ccccc21)C(C)(C)C

> <Shape>
0.223

> <Color>
0.079

> <Negative vol penalty>
0.000

$$$$

  -OEChem-04042321343D

 89 99  0     1  0  0  0  0  0999 V2000
  -20.6484  -34.6202   21.4726 C   0  0  0  0  0  0  0  0  0  0  0  0
  -21.8807  -34.0297   21.2114 C   0  0  0  0  0  0  0  0  0  0  0  0
  -24.1069   -9.7830   21.6690 C   0  0  0  0  0  0  0  0  0  0  0  0
  -24.8680  -11.0419   23.5854 C   0  0  0  0  0  0  0  0  0  0  0  0
  -19.7365  -33.9845   22.3141 C   0  0  0  0  0  0  0  0  0  0  0  0
  -22.2022  -32.8036   21.7925 C   0  0  0  0  0  0  0  0  0  0  0  0
  -25.5440  -28.3144   19.3055 C   0  0  0  0  0  0  0  0  0  0  0  0
  -23.7551   -8.7232   22.5049 C   0  0  0  0  0  0  0  0  0  0  0  0
  -24.5161   -9.9822   24.4214 C   0  0  0  0  0  0  0  0  0  0  0  0
  -26.8826  -27.9519   19.4488 C   0  0  0  0  0  0  0  0  0  0  0  0
  -21.2164   -7.9361   24.5949 C   0  0  0  0  0  0  0  0  0  0  0  0
  -19.9778   -7.3295   24.3862 C   0  0  0  0  0  0  0  0  0  0  0  0
  -26.2563  -26.3185   21.1097 C   0  0  0  0  0  0  0  0  0  0  0  0
  -28.6605  -20.8156   20.5017 C   0  0  0  0  0  0  0  0  0  0  0  0
  -30.6564  -19.0513   19.6731 C   0  0  0  0  0  0  0  0  0  0  0  0
  -21.0811   -5.2217   23.9653 C   0  0  0  0  0  0  0  0  0  0  0  0
  -24.6635  -10.9423   22.2093 C   0  0  0  0  0  0  0  0  0  0  0  0
  -24.2159  -13.1197   20.9577 C   0  0  0  0  0  0  0  0  0  0  0  0
  -20.0431  -32.7453   22.8982 C   0  0  0  0  0  0  0  0  0  0  0  0
  -24.5511  -27.6881   20.0725 C   0  0  0  0  0  0  0  0  0  0  0  0
  -21.2940  -32.1513   22.6437 C   0  0  0  0  0  0  0  0  0  0  0  0
  -24.9056  -26.6730   20.9725 C   0  0  0  0  0  0  0  0  0  0  0  0
  -29.9829  -21.2503   20.4135 C   0  0  0  0  0  0  0  0  0  0  0  0
  -28.3360  -19.4987   20.1757 C   0  0  0  0  0  0  0  0  0  0  0  0
  -30.9808  -20.3682   19.9992 C   0  0  0  0  0  0  0  0  0  0  0  0
  -29.3339  -18.6166   19.7614 C   0  0  0  0  0  0  0  0  0  0  0  0
  -23.9597   -8.8228   23.8810 C   0  0  0  0  0  0  0  0  0  0  0  0
  -27.2393  -26.9558   20.3530 C   0  0  0  0  0  0  0  0  0  0  0  0
  -22.3874   -7.1855   24.4888 C   0  0  0  0  0  0  0  0  0  0  0  0
  -19.9101   -5.9723   24.0715 C   0  0  0  0  0  0  0  0  0  0  0  0
  -22.3197   -5.8283   24.1740 C   0  0  0  0  0  0  0  0  0  0  0  0
  -25.0277  -12.0372   21.3463 C   0  0  0  0  0  0  0  0  0  0  0  0
  -25.0206  -13.8768   20.1418 C   0  0  0  0  0  0  0  0  0  0  0  0
  -22.8561  -13.4146   21.3035 C   0  0  0  0  0  0  0  0  0  0  0  0
  -22.4475  -28.6635   22.2467 C   0  0  0  0  0  0  0  0  0  0  0  0
  -21.3864  -25.6063   22.0241 C   0  0  0  0  0  0  0  0  0  0  0  0
  -22.0610  -22.3558   21.2328 C   0  0  0  0  0  0  0  0  0  0  0  0
  -29.9088  -16.2855   18.9986 C   0  0  0  0  0  0  0  0  0  0  0  0
  -19.0441  -32.1190   23.8386 C   0  0  0  0  0  0  0  0  0  0  0  0
  -23.1086  -28.0720   19.8869 C   0  0  0  0  0  0  0  0  0  0  0  0
  -23.8754  -25.9558   21.8048 C   0  0  0  0  0  0  0  0  0  0  0  0
  -19.3122  -30.6422   24.1166 C   0  0  0  0  0  0  0  0  0  0  0  0
  -29.5437  -12.8567   18.1113 C   0  0  0  0  0  0  0  0  0  0  0  0
  -33.2900  -21.6575   16.4140 C   0  0  0  0  0  0  0  0  0  0  0  0
  -34.5673  -21.7447   17.2249 C   0  0  0  0  0  0  0  0  0  0  0  0
  -20.7884  -30.4169   24.4275 C   0  0  0  0  0  0  0  0  0  0  0  0
  -28.2695  -12.4269   18.8419 C   0  0  0  0  0  0  0  0  0  0  0  0
  -30.3659  -13.8437   18.9381 C   0  0  0  0  0  0  0  0  0  0  0  0
  -28.3531  -14.5895   20.1469 C   0  0  0  0  0  0  0  0  0  0  0  0
  -32.3243  -21.0171   17.3878 C   0  0  0  0  0  0  0  0  0  0  0  0
  -34.0998  -22.1749   18.6042 C   0  0  0  0  0  0  0  0  0  0  0  0
  -28.5204  -24.1298   19.9552 C   0  0  0  0  0  0  0  0  0  0  0  0
  -30.4237  -24.9890   19.9938 C   0  0  0  0  0  0  0  0  0  0  0  0
  -21.6694  -30.8101   23.2355 C   0  0  1  0  0  0  0  0  0  0  0  0
  -22.2385  -27.7260   21.0913 C   0  0  1  0  0  0  0  0  0  0  0  0
  -27.4593  -13.6454   19.3263 C   0  0  2  0  0  0  0  0  0  0  0  0
  -29.0326  -25.5481   19.6475 C   0  0  0  0  0  0  0  0  0  1  0  0
  -26.9112  -19.0604   20.2793 C   0  0  0  0  0  0  0  0  0  0  0  0
  -21.0063  -20.0791   21.1900 C   0  0  0  0  0  0  0  0  0  0  0  0
  -21.6812  -25.4155   25.0550 C   0  0  0  0  0  0  0  0  0  0  0  0
  -21.5451  -22.9247   24.8416 C   0  0  0  0  0  0  0  0  0  0  0  0
  -19.6168  -24.3422   24.1381 C   0  0  0  0  0  0  0  0  0  0  0  0
  -22.4260  -22.1142   18.3058 C   0  0  0  0  0  0  0  0  0  0  0  0
  -30.3080  -22.6710   20.7697 C   0  0  0  0  0  0  0  0  0  0  0  0
  -32.4035  -20.8111   19.8974 C   0  0  0  0  0  0  0  0  0  0  0  0
  -21.7116  -24.3082   22.7229 C   0  0  1  0  0  0  0  0  0  0  0  0
  -21.2986  -21.3434   20.3971 C   0  0  2  0  0  0  0  0  0  0  0  0
  -21.1585  -24.2623   24.1753 C   0  0  0  0  0  0  0  0  0  0  0  0
  -26.2540  -12.0974   20.8203 N   0  0  0  0  0  0  0  0  0  0  0  0
  -26.2187  -13.2269   20.0929 N   0  0  0  0  0  0  0  0  0  0  0  0
  -22.4791  -26.3711   21.5919 N   0  0  0  0  0  0  0  0  0  0  0  0
  -29.5342  -14.9736   19.3582 N   0  0  0  0  0  0  0  0  0  0  0  0
  -24.8132  -15.0284   19.4686 N   0  0  0  0  0  0  0  0  0  0  0  0
  -22.1760  -12.5312   22.1529 N   0  0  0  0  0  0  0  0  0  0  0  0
  -29.0242  -17.2753   19.4257 N   0  0  0  0  0  0  0  0  0  0  0  0
  -21.6340  -29.7802   22.2194 N   0  0  0  0  0  0  0  0  0  0  0  0
  -21.2122  -23.2436   21.8594 N   0  0  0  0  0  0  0  0  0  0  0  0
  -32.6708  -21.6737   18.7061 N   0  3  0  0  0  0  0  0  0  0  0  0
  -29.8925  -23.6387   19.7309 N   0  3  0  0  0  0  0  0  0  0  0  0
  -22.0878  -20.9691   19.1897 N   0  3  0  0  0  0  0  0  0  0  0  0
  -22.2564  -14.4227   20.8588 O   0  0  0  0  0  0  0  0  0  0  0  0
  -23.2837  -28.3930   23.1007 O   0  0  0  0  0  0  0  0  0  0  0  0
  -20.2063  -25.9262   21.8612 O   0  0  0  0  0  0  0  0  0  0  0  0
  -23.2866  -22.3565   21.3238 O   0  0  0  0  0  0  0  0  0  0  0  0
  -30.9242  -16.5118   18.3354 O   0  0  0  0  0  0  0  0  0  0  0  0
  -23.6162   -7.7890   24.6970 O   0  0  0  0  0  0  0  0  0  0  0  0
  -28.5452  -26.6006   20.4953 O   0  0  0  0  0  0  0  0  0  1  0  0
  -18.7206   -5.3896   23.8726 F   0  0  0  0  0  0  0  0  0  0  0  0
  -23.4411   -5.1018   24.0718 F   0  0  0  0  0  0  0  0  0  0  0  0
  1  2  1  0  0  0  0
  1  5  2  0  0  0  0
  2  6  2  0  0  0  0
  3  8  2  0  0  0  0
  3 17  1  0  0  0  0
  4  9  1  0  0  0  0
  4 17  2  0  0  0  0
  5 19  1  0  0  0  0
  6 21  1  0  0  0  0
  7 10  2  0  0  0  0
  7 20  1  0  0  0  0
  8 27  1  0  0  0  0
  9 27  2  0  0  0  0
 10 28  1  0  0  0  0
 11 12  2  0  0  0  0
 11 29  1  0  0  0  0
 12 30  1  0  0  0  0
 13 22  1  0  0  0  0
 13 28  2  0  0  0  0
 14 23  1  0  0  0  0
 14 24  2  0  0  0  0
 15 25  1  0  0  0  0
 15 26  2  0  0  0  0
 16 30  2  0  0  0  0
 16 31  1  0  0  0  0
 17 32  1  0  0  0  0
 18 32  1  0  0  0  0
 18 33  2  0  0  0  0
 18 34  1  0  0  0  0
 19 21  2  0  0  0  0
 19 39  1  0  0  0  0
 20 22  2  0  0  0  0
 20 40  1  0  0  0  0
 21 54  1  0  0  0  0
 22 41  1  0  0  0  0
 23 25  2  0  0  0  0
 23 64  1  0  0  0  0
 24 26  1  0  0  0  0
 24 58  1  0  0  0  0
 25 65  1  0  0  0  0
 26 75  1  0  0  0  0
 27 86  1  0  0  0  0
 28 87  1  0  0  0  0
 29 31  2  0  0  0  0
 29 86  1  0  0  0  0
 30 88  1  0  0  0  0
 31 89  1  0  0  0  0
 32 69  2  0  0  0  0
 33 70  1  0  0  0  0
 33 73  1  0  0  0  0
 34 74  1  0  0  0  0
 34 81  2  0  0  0  0
 35 55  1  0  0  0  0
 35 76  1  0  0  0  0
 35 82  2  0  0  0  0
 36 66  1  0  0  0  0
 36 71  1  0  0  0  0
 36 83  2  0  0  0  0
 37 67  1  0  0  0  0
 37 77  1  0  0  0  0
 37 84  2  0  0  0  0
 38 72  1  0  0  0  0
 38 75  1  0  0  0  0
 38 85  2  0  0  0  0
 39 42  1  0  0  0  0
 40 55  1  0  0  0  0
 41 71  1  0  0  0  0
 42 46  1  0  0  0  0
 43 47  1  0  0  0  0
 43 48  1  0  0  0  0
 44 45  1  0  0  0  0
 44 50  1  0  0  0  0
 45 51  1  0  0  0  0
 46 54  1  0  0  0  0
 47 56  1  0  0  0  0
 48 72  1  0  0  0  0
 49 56  1  0  0  0  0
 49 72  1  0  0  0  0
 50 78  1  0  0  0  0
 51 78  1  0  0  0  0
 52 57  1  0  0  0  0
 52 79  1  0  0  0  0
 53 57  1  0  0  0  0
 53 79  1  0  0  0  0
 54 76  1  0  0  0  0
 55 71  1  0  0  0  0
 56 70  1  0  0  0  0
 57 87  1  0  0  0  0
 59 67  1  0  0  0  0
 60 68  1  0  0  0  0
 61 68  1  0  0  0  0
 62 68  1  0  0  0  0
 63 80  1  0  0  0  0
 64 79  1  0  0  0  0
 65 78  1  0  0  0  0
 66 68  1  0  0  0  0
 66 77  1  0  0  0  0
 67 80  1  0  0  0  0
 69 70  1  0  0  0  0
M  CHG  3  78   1  79   1  80   1
M  ISO  4  38 100  57 101  75 100  87 101
M  END
> <Batch ID>
0029

> <Smiles>
CNC(C)C(=O)NC(C(=O)N1Cc2cc([101O:1][101CH:1]3CN(Cc4cc(C)c([100NH:0][100C:0](=O)N5CCCC(n6nc(-c7ccc(Oc8ccc(F)cc8F)cc7)c(C(N)=O)c6N)C5)cc4CN4CCCC4)C3)ccc2CC1C(=O)NC1CCCc2ccccc21)C(C)(C)C

> <Shape>
0.261

> <Color>
0.136

> <Negative vol penalty>
0.000

$$$$

  -OEChem-04042321343D

 83 92  0     1  0  0  0  0  0999 V2000
  -21.4632  -21.6118   27.9631 C   0  0  0  0  0  0  0  0  0  0  0  0
  -21.9167  -21.4632   26.6563 C   0  0  0  0  0  0  0  0  0  0  0  0
  -30.1951  -21.4370   16.4263 C   0  0  0  0  0  0  0  0  0  0  0  0
  -27.0248  -12.6465   19.6006 C   0  0  0  0  0  0  0  0  0  0  0  0
  -25.8365  -13.1179   21.6507 C   0  0  0  0  0  0  0  0  0  0  0  0
  -20.7940  -22.7757   28.3393 C   0  0  0  0  0  0  0  0  0  0  0  0
  -21.7003  -22.4779   25.7247 C   0  0  0  0  0  0  0  0  0  0  0  0
  -27.2159  -25.6448   22.3423 C   0  0  0  0  0  0  0  0  0  0  0  0
  -30.4206  -22.7935   16.6604 C   0  0  0  0  0  0  0  0  0  0  0  0
  -29.7916  -20.6065   17.4719 C   0  0  0  0  0  0  0  0  0  0  0  0
  -25.9604  -11.8573   19.1651 C   0  0  0  0  0  0  0  0  0  0  0  0
  -24.7721  -12.3287   21.2151 C   0  0  0  0  0  0  0  0  0  0  0  0
  -28.2041  -26.1537   21.4993 C   0  0  0  0  0  0  0  0  0  0  0  0
  -24.0304   -9.0361   21.0154 C   0  0  0  0  0  0  0  0  0  0  0  0
  -23.4735   -8.1390   21.9267 C   0  0  0  0  0  0  0  0  0  0  0  0
  -26.5770  -27.6013   20.4482 C   0  0  0  0  0  0  0  0  0  0  0  0
  -29.8392  -22.4890   18.9855 C   0  0  0  0  0  0  0  0  0  0  0  0
  -21.3375   -9.2475   21.7127 C   0  0  0  0  0  0  0  0  0  0  0  0
  -26.9629  -13.2768   20.8434 C   0  0  0  0  0  0  0  0  0  0  0  0
  -29.3943  -13.6844   21.4992 C   0  0  0  0  0  0  0  0  0  0  0  0
  -20.5778  -23.8093   27.4143 C   0  0  0  0  0  0  0  0  0  0  0  0
  -25.9061  -26.1239   22.2518 C   0  0  0  0  0  0  0  0  0  0  0  0
  -21.0264  -23.6561   26.0886 C   0  0  0  0  0  0  0  0  0  0  0  0
  -25.5856  -27.1043   21.2984 C   0  0  0  0  0  0  0  0  0  0  0  0
  -30.2427  -23.3195   17.9400 C   0  0  0  0  0  0  0  0  0  0  0  0
  -29.6137  -21.1325   18.7515 C   0  0  0  0  0  0  0  0  0  0  0  0
  -24.8340  -11.6984   19.9723 C   0  0  0  0  0  0  0  0  0  0  0  0
  -27.8853  -27.1293   20.5545 C   0  0  0  0  0  0  0  0  0  0  0  0
  -23.2408  -10.0391   20.4527 C   0  0  0  0  0  0  0  0  0  0  0  0
  -22.1270   -8.2446   22.2753 C   0  0  0  0  0  0  0  0  0  0  0  0
  -21.8944  -10.1447   20.8014 C   0  0  0  0  0  0  0  0  0  0  0  0
  -28.0624  -14.0917   21.2941 C   0  0  0  0  0  0  0  0  0  0  0  0
  -30.0391  -14.8202   21.9242 C   0  0  0  0  0  0  0  0  0  0  0  0
  -29.9949  -12.3947   21.3214 C   0  0  0  0  0  0  0  0  0  0  0  0
  -22.3913  -25.9741   23.5554 C   0  0  0  0  0  0  0  0  0  0  0  0
  -23.0228  -28.9303   23.0334 C   0  0  0  0  0  0  0  0  0  0  0  0
  -24.2564  -32.0957   22.7241 C   0  0  0  0  0  0  0  0  0  0  0  0
  -28.9824  -20.6492   21.1419 C   0  0  0  0  0  0  0  0  0  0  0  0
  -19.8078  -25.0288   27.8553 C   0  0  0  0  0  0  0  0  0  0  0  0
  -24.7967  -25.5604   23.0976 C   0  0  0  0  0  0  0  0  0  0  0  0
  -24.1561  -27.5651   21.2134 C   0  0  0  0  0  0  0  0  0  0  0  0
  -19.9489  -26.2149   26.9048 C   0  0  0  0  0  0  0  0  0  0  0  0
  -29.2431  -18.9305   24.2493 C   0  0  0  0  0  0  0  0  0  0  0  0
  -32.0273  -26.5891   18.0499 C   0  0  0  0  0  0  0  0  0  0  0  0
  -19.7617  -25.7656   25.4591 C   0  0  0  0  0  0  0  0  0  0  0  0
  -29.0972  -17.4571   23.8620 C   0  0  0  0  0  0  0  0  0  0  0  0
  -30.9127  -27.5105   18.5220 C   0  0  0  0  0  0  0  0  0  0  0  0
  -31.4733  -25.3557   17.3405 C   0  0  0  0  0  0  0  0  0  0  0  0
  -28.3473  -19.8313   23.4008 C   0  0  0  0  0  0  0  0  0  0  0  0
  -28.3501  -18.1917   21.5621 C   0  0  0  0  0  0  0  0  0  0  0  0
  -29.3793  -25.5114   18.6970 C   0  0  0  0  0  0  0  0  0  0  0  0
  -20.8326  -24.7449   25.0556 C   0  0  1  0  0  0  0  0  0  0  0  0
  -23.7474  -26.6136   23.4964 C   0  0  1  0  0  0  0  0  0  0  0  0
  -29.2813  -17.2521   22.3455 C   0  0  2  0  0  0  0  0  0  0  0  0
  -29.9297  -26.7509   19.4038 C   0  0  2  0  0  0  0  0  0  1  0  0
  -23.5916  -34.5023   22.9769 C   0  0  0  0  0  0  0  0  0  0  0  0
  -21.4766  -28.7750   20.4087 C   0  0  0  0  0  0  0  0  0  0  0  0
  -21.6648  -31.2653   20.2326 C   0  0  0  0  0  0  0  0  0  0  0  0
  -20.4367  -30.2414   22.1473 C   0  0  0  0  0  0  0  0  0  0  0  0
  -26.3003  -32.5615   24.8132 C   0  0  0  0  0  0  0  0  0  0  0  0
  -22.9589  -30.0859   22.0671 C   0  0  1  0  0  0  0  0  0  0  0  0
  -24.2092  -33.2912   23.6585 C   0  0  2  0  0  0  0  0  0  0  0  0
  -21.6576  -30.0758   21.2163 C   0  0  0  0  0  0  0  0  0  0  0  0
  -27.8710  -15.3852   21.5665 N   0  0  0  0  0  0  0  0  0  0  0  0
  -29.0911  -15.8005   21.9473 N   0  0  0  0  0  0  0  0  0  0  0  0
  -30.4686  -24.6816   18.1745 N   0  0  1  0  0  0  0  0  0  0  0  0
  -23.6053  -27.7461   22.5657 N   0  0  0  0  0  0  0  0  0  0  0  0
  -28.5796  -19.5848   21.9760 N   0  0  0  0  0  0  0  0  0  0  0  0
  -31.3188  -15.0660   22.2768 N   0  0  0  0  0  0  0  0  0  0  0  0
  -29.1884  -11.3374   20.8786 N   0  0  0  0  0  0  0  0  0  0  0  0
  -29.2049  -20.2882   19.8135 N   0  0  0  0  0  0  0  0  0  0  0  0
  -22.0875  -25.4111   24.7802 N   0  0  0  0  0  0  0  0  0  0  0  0
  -23.1428  -31.2945   22.8633 N   0  0  0  0  0  0  0  0  0  0  0  0
  -25.5838  -33.6537   24.1057 N   0  3  0  0  0  0  0  0  0  0  0  0
  -31.2071  -12.1822   21.5642 O   0  0  0  0  0  0  0  0  0  0  0  0
  -21.6717  -25.9909   22.5636 O   0  0  0  0  0  0  0  0  0  0  0  0
  -22.5642  -29.0691   24.1708 O   0  0  0  0  0  0  0  0  0  0  0  0
  -25.1861  -31.8949   21.9459 O   0  0  0  0  0  0  0  0  0  0  0  0
  -29.1463  -21.7908   21.5800 O   0  0  0  0  0  0  0  0  0  0  0  0
  -23.7950  -10.9285   19.5475 O   0  0  0  0  0  0  0  0  0  0  0  0
  -28.8559  -27.6251   19.7377 O   0  0  0  0  0  0  0  0  0  1  0  0
  -21.5920   -7.3820   23.1493 F   0  0  0  0  0  0  0  0  0  0  0  0
  -21.1306  -11.1054   20.2633 F   0  0  0  0  0  0  0  0  0  0  0  0
  1  2  1  0  0  0  0
  1  6  2  0  0  0  0
  2  7  2  0  0  0  0
  3  9  2  0  0  0  0
  3 10  1  0  0  0  0
  4 11  2  0  0  0  0
  4 19  1  0  0  0  0
  5 12  1  0  0  0  0
  5 19  2  0  0  0  0
  6 21  1  0  0  0  0
  7 23  1  0  0  0  0
  8 13  2  0  0  0  0
  8 22  1  0  0  0  0
  9 25  1  0  0  0  0
 10 26  2  0  0  0  0
 11 27  1  0  0  0  0
 12 27  2  0  0  0  0
 13 28  1  0  0  0  0
 14 15  2  0  0  0  0
 14 29  1  0  0  0  0
 15 30  1  0  0  0  0
 16 24  1  0  0  0  0
 16 28  2  0  0  0  0
 17 25  2  0  0  0  0
 17 26  1  0  0  0  0
 18 30  2  0  0  0  0
 18 31  1  0  0  0  0
 19 32  1  0  0  0  0
 20 32  1  0  0  0  0
 20 33  2  0  0  0  0
 20 34  1  0  0  0  0
 21 23  2  0  0  0  0
 21 39  1  0  0  0  0
 22 24  2  0  0  0  0
 22 40  1  0  0  0  0
 23 52  1  0  0  0  0
 24 41  1  0  0  0  0
 25 66  1  0  0  0  0
 26 71  1  0  0  0  0
 27 80  1  0  0  0  0
 28 81  1  0  0  0  0
 29 31  2  0  0  0  0
 29 80  1  0  0  0  0
 30 82  1  0  0  0  0
 31 83  1  0  0  0  0
 32 64  2  0  0  0  0
 33 65  1  0  0  0  0
 33 69  1  0  0  0  0
 34 70  1  0  0  0  0
 34 75  2  0  0  0  0
 35 53  1  0  0  0  0
 35 72  1  0  0  0  0
 35 76  2  0  0  0  0
 36 61  1  0  0  0  0
 36 67  1  0  0  0  0
 36 77  2  0  0  0  0
 37 62  1  0  0  0  0
 37 73  1  0  0  0  0
 37 78  2  0  0  0  0
 38 68  1  0  0  0  0
 38 71  1  0  0  0  0
 38 79  2  0  0  0  0
 39 42  1  0  0  0  0
 40 53  1  0  0  0  0
 41 67  1  0  0  0  0
 42 45  1  0  0  0  0
 43 46  1  0  0  0  0
 43 49  1  0  0  0  0
 44 47  1  0  0  0  0
 44 48  1  0  0  0  0
 45 52  1  0  0  0  0
 46 54  1  0  0  0  0
 47 55  1  0  0  0  0
 48 66  1  0  0  0  0
 49 68  1  0  0  0  0
 50 54  1  0  0  0  0
 50 68  1  0  0  0  0
 51 55  1  0  0  0  0
 51 66  1  0  0  0  0
 52 72  1  0  0  0  0
 53 67  1  0  0  0  0
 54 65  1  0  0  0  0
 55 81  1  0  0  0  0
 56 62  1  0  0  0  0
 57 63  1  0  0  0  0
 58 63  1  0  0  0  0
 59 63  1  0  0  0  0
 60 74  1  0  0  0  0
 61 63  1  0  0  0  0
 61 73  1  0  0  0  0
 62 74  1  0  0  0  0
 64 65  1  0  0  0  0
M  CHG  1  74   1
M  ISO  4  38 100  55 101  71 100  81 101
M  END
> <Batch ID>
0029

> <Smiles>
CNC(C)C(=O)NC(C(=O)N1Cc2cc([101O:1][101CH:1]3CCCN(c4cccc([100NH:0][100C:0](=O)N5CCCC(n6nc(-c7ccc(Oc8ccc(F)cc8F)cc7)c(C(N)=O)c6N)C5)c4)C3)ccc2CC1C(=O)NC1CCCc2ccccc21)C(C)(C)C

> <Shape>
0.280

> <Color>
0.055

> <Negative vol penalty>
0.000

$$$$

  -OEChem-04042321343D

 84 93  0     1  0  0  0  0  0999 V2000
  -20.0905  -18.2378   18.2254 C   0  0  0  0  0  0  0  0  0  0  0  0
  -21.2212  -18.8273   18.7815 C   0  0  0  0  0  0  0  0  0  0  0  0
  -22.7949  -10.1987   20.7477 C   0  0  0  0  0  0  0  0  0  0  0  0
  -23.6219  -10.6159   22.9791 C   0  0  0  0  0  0  0  0  0  0  0  0
  -19.1430  -19.0268   17.5745 C   0  0  0  0  0  0  0  0  0  0  0  0
  -21.4057  -20.2062   18.6862 C   0  0  0  0  0  0  0  0  0  0  0  0
  -22.9159  -22.2710   23.0566 C   0  0  0  0  0  0  0  0  0  0  0  0
  -30.3644  -17.6866   23.1839 C   0  0  0  0  0  0  0  0  0  0  0  0
  -29.6860  -18.7070   23.8502 C   0  0  0  0  0  0  0  0  0  0  0  0
  -21.9492   -9.2079   21.2464 C   0  0  0  0  0  0  0  0  0  0  0  0
  -22.7761   -9.6252   23.4778 C   0  0  0  0  0  0  0  0  0  0  0  0
  -24.2588  -22.1224   23.4006 C   0  0  0  0  0  0  0  0  0  0  0  0
  -19.5051   -9.3100   24.2664 C   0  0  0  0  0  0  0  0  0  0  0  0
  -18.7842   -9.5984   25.4251 C   0  0  0  0  0  0  0  0  0  0  0  0
  -24.7008  -24.3608   22.6172 C   0  0  0  0  0  0  0  0  0  0  0  0
  -29.9881  -18.8109   21.0788 C   0  0  0  0  0  0  0  0  0  0  0  0
  -19.8509   -7.7453   26.5500 C   0  0  0  0  0  0  0  0  0  0  0  0
  -23.6313  -10.9027   21.6141 C   0  0  0  0  0  0  0  0  0  0  0  0
  -24.2163  -13.2955   20.9509 C   0  0  0  0  0  0  0  0  0  0  0  0
  -19.3112  -20.4173   17.4795 C   0  0  0  0  0  0  0  0  0  0  0  0
  -22.4567  -23.4637   22.4794 C   0  0  0  0  0  0  0  0  0  0  0  0
  -20.4602  -21.0144   18.0323 C   0  0  0  0  0  0  0  0  0  0  0  0
  -23.3511  -24.5229   22.2692 C   0  0  0  0  0  0  0  0  0  0  0  0
  -30.5155  -17.7385   21.7982 C   0  0  0  0  0  0  0  0  0  0  0  0
  -29.1585  -19.7794   23.1308 C   0  0  0  0  0  0  0  0  0  0  0  0
  -21.9397   -8.9212   22.6114 C   0  0  0  0  0  0  0  0  0  0  0  0
  -25.1521  -23.1663   23.1782 C   0  0  0  0  0  0  0  0  0  0  0  0
  -20.3988   -8.2392   24.2494 C   0  0  0  0  0  0  0  0  0  0  0  0
  -18.9571   -8.8161   26.5669 C   0  0  0  0  0  0  0  0  0  0  0  0
  -20.5718   -7.4568   25.3912 C   0  0  0  0  0  0  0  0  0  0  0  0
  -29.3096  -19.8313   21.7451 C   0  0  0  0  0  0  0  0  0  0  0  0
  -24.5056  -11.9258   21.0995 C   0  0  0  0  0  0  0  0  0  0  0  0
  -25.3652  -13.8341   20.4253 C   0  0  0  0  0  0  0  0  0  0  0  0
  -23.0162  -14.0164   21.2603 C   0  0  0  0  0  0  0  0  0  0  0  0
  -21.1267  -24.2437   19.6998 C   0  0  0  0  0  0  0  0  0  0  0  0
  -20.8337  -27.1546   21.1008 C   0  0  0  0  0  0  0  0  0  0  0  0
  -21.9385  -29.3585   23.4607 C   0  0  0  0  0  0  0  0  0  0  0  0
  -30.9258  -14.3010   20.3415 C   0  0  0  0  0  0  0  0  0  0  0  0
  -18.2834  -21.2230   16.7251 C   0  0  0  0  0  0  0  0  0  0  0  0
  -20.9998  -23.6179   22.1387 C   0  0  0  0  0  0  0  0  0  0  0  0
  -22.9046  -25.8310   21.6710 C   0  0  0  0  0  0  0  0  0  0  0  0
  -18.3680  -22.7232   16.9943 C   0  0  0  0  0  0  0  0  0  0  0  0
  -29.4863  -11.5926   18.5335 C   0  0  0  0  0  0  0  0  0  0  0  0
  -19.8148  -23.1995   16.9121 C   0  0  0  0  0  0  0  0  0  0  0  0
  -28.0409  -11.5471   19.0322 C   0  0  0  0  0  0  0  0  0  0  0  0
  -28.0718  -22.5864   25.2614 C   0  0  0  0  0  0  0  0  0  0  0  0
  -30.4571  -11.9687   19.6506 C   0  0  0  0  0  0  0  0  0  0  0  0
  -29.1381  -21.9643   24.3600 C   0  0  0  0  0  0  0  0  0  0  0  0
  -28.6801  -13.1698   20.8644 C   0  0  0  0  0  0  0  0  0  0  0  0
  -27.0533  -20.7612   24.0828 C   0  0  0  0  0  0  0  0  0  0  0  0
  -20.6836  -22.5099   17.9710 C   0  0  1  0  0  0  0  0  0  0  0  0
  -20.7432  -24.6886   21.0827 C   0  0  1  0  0  0  0  0  0  0  0  0
  -27.6577  -12.8494   19.7605 C   0  0  2  0  0  0  0  0  0  0  0  0
  -26.7632  -22.1665   24.6080 C   0  0  2  0  0  0  0  0  0  1  0  0
  -21.5278  -31.6724   24.3408 C   0  0  0  0  0  0  0  0  0  0  0  0
  -22.2549  -28.3289   18.6695 C   0  0  0  0  0  0  0  0  0  0  0  0
  -22.6588  -30.4118   19.9987 C   0  0  0  0  0  0  0  0  0  0  0  0
  -20.3250  -29.6827   19.5045 C   0  0  0  0  0  0  0  0  0  0  0  0
  -21.2530  -28.3382   26.1530 C   0  0  0  0  0  0  0  0  0  0  0  0
  -31.2410  -16.6472   21.0864 C   0  0  0  0  0  0  0  0  0  0  0  0
  -21.6967  -28.3901   21.1896 C   0  0  1  0  0  0  0  0  0  0  0  0
  -21.1932  -30.1958   24.4843 C   0  0  2  0  0  0  0  0  0  0  0  0
  -21.7429  -29.1781   19.8501 C   0  0  0  0  0  0  0  0  0  0  0  0
  -25.7415  -11.6137   20.7004 N   0  0  0  0  0  0  0  0  0  0  0  0
  -26.2388  -12.7948   20.2958 N   0  0  0  0  0  0  0  0  0  0  0  0
  -28.4923  -20.7729   23.8171 N   0  0  3  0  0  0  0  0  0  0  0  0
  -21.4715  -25.9309   21.3489 N   0  0  0  0  0  0  0  0  0  0  0  0
  -30.0380  -13.2133   20.2996 N   0  0  0  0  0  0  0  0  0  0  0  0
  -25.7033  -15.0906   20.0658 N   0  0  0  0  0  0  0  0  0  0  0  0
  -21.9305  -13.3089   21.7941 N   0  0  0  0  0  0  0  0  0  0  0  0
  -20.4664  -23.1081   19.2708 N   0  0  0  0  0  0  0  0  0  0  0  0
  -21.1901  -29.1615   22.3195 N   0  0  0  0  0  0  0  0  0  0  0  0
  -30.4472  -15.4444   20.9694 N   0  0  0  0  0  0  0  0  0  0  0  0
  -21.5508  -29.7650   25.8654 N   0  3  0  0  0  0  0  0  0  0  0  0
  -22.9041  -15.2486   21.0538 O   0  0  0  0  0  0  0  0  0  0  0  0
  -21.9589  -24.8840   19.0680 O   0  0  0  0  0  0  0  0  0  0  0  0
  -19.6363  -27.2716   20.8287 O   0  0  0  0  0  0  0  0  0  0  0  0
  -23.0727  -28.9257   23.6527 O   0  0  0  0  0  0  0  0  0  0  0  0
  -32.0591  -14.2581   19.8507 O   0  0  0  0  0  0  0  0  0  0  0  0
  -21.1144   -7.9546   23.0984 O   0  0  0  0  0  0  0  0  0  0  0  0
  -26.4635  -23.0237   23.5124 O   0  0  0  0  0  0  0  0  0  1  0  0
  -18.2659   -9.0941   27.6801 F   0  0  0  0  0  0  0  0  0  0  0  0
  -21.4298   -6.4275   25.3812 F   0  0  0  0  0  0  0  0  0  0  0  0
  -28.6720  -21.1410   20.8162 Cl  0  0  0  0  0  0  0  0  0  0  0  0
  1  2  1  0  0  0  0
  1  5  2  0  0  0  0
  2  6  2  0  0  0  0
  3 10  2  0  0  0  0
  3 18  1  0  0  0  0
  4 11  1  0  0  0  0
  4 18  2  0  0  0  0
  5 20  1  0  0  0  0
  6 22  1  0  0  0  0
  7 12  2  0  0  0  0
  7 21  1  0  0  0  0
  8  9  2  0  0  0  0
  8 24  1  0  0  0  0
  9 25  1  0  0  0  0
 10 26  1  0  0  0  0
 11 26  2  0  0  0  0
 12 27  1  0  0  0  0
 13 14  2  0  0  0  0
 13 28  1  0  0  0  0
 14 29  1  0  0  0  0
 15 23  1  0  0  0  0
 15 27  2  0  0  0  0
 16 24  2  0  0  0  0
 16 31  1  0  0  0  0
 17 29  2  0  0  0  0
 17 30  1  0  0  0  0
 18 32  1  0  0  0  0
 19 32  1  0  0  0  0
 19 33  2  0  0  0  0
 19 34  1  0  0  0  0
 20 22  2  0  0  0  0
 20 39  1  0  0  0  0
 21 23  2  0  0  0  0
 21 40  1  0  0  0  0
 22 51  1  0  0  0  0
 23 41  1  0  0  0  0
 24 60  1  0  0  0  0
 25 31  2  0  0  0  0
 25 66  1  0  0  0  0
 26 80  1  0  0  0  0
 27 81  1  0  0  0  0
 28 30  2  0  0  0  0
 28 80  1  0  0  0  0
 29 82  1  0  0  0  0
 30 83  1  0  0  0  0
 31 84  1  0  0  0  0
 32 64  2  0  0  0  0
 33 65  1  0  0  0  0
 33 69  1  0  0  0  0
 34 70  1  0  0  0  0
 34 75  2  0  0  0  0
 35 52  1  0  0  0  0
 35 71  1  0  0  0  0
 35 76  2  0  0  0  0
 36 61  1  0  0  0  0
 36 67  1  0  0  0  0
 36 77  2  0  0  0  0
 37 62  1  0  0  0  0
 37 72  1  0  0  0  0
 37 78  2  0  0  0  0
 38 68  1  0  0  0  0
 38 73  1  0  0  0  0
 38 79  2  0  0  0  0
 39 42  1  0  0  0  0
 40 52  1  0  0  0  0
 41 67  1  0  0  0  0
 42 44  1  0  0  0  0
 43 45  1  0  0  0  0
 43 47  1  0  0  0  0
 44 51  1  0  0  0  0
 45 53  1  0  0  0  0
 46 48  1  0  0  0  0
 46 54  1  0  0  0  0
 47 68  1  0  0  0  0
 48 66  1  0  0  0  0
 49 53  1  0  0  0  0
 49 68  1  0  0  0  0
 50 54  1  0  0  0  0
 50 66  1  0  0  0  0
 51 71  1  0  0  0  0
 52 67  1  0  0  0  0
 53 65  1  0  0  0  0
 54 81  1  0  0  0  0
 55 62  1  0  0  0  0
 56 63  1  0  0  0  0
 57 63  1  0  0  0  0
 58 63  1  0  0  0  0
 59 74  1  0  0  0  0
 60 73  1  0  0  0  0
 61 63  1  0  0  0  0
 61 72  1  0  0  0  0
 62 74  1  0  0  0  0
 64 65  1  0  0  0  0
M  CHG  1  74   1
M  ISO  4  38 100  54 101  73 100  81 101
M  END
> <Batch ID>
0029

> <Smiles>
CNC(C)C(=O)NC(C(=O)N1Cc2cc([101O:1][101CH:1]3CCN(c4ccc(C[100NH:0][100C:0](=O)N5CCCC(n6nc(-c7ccc(Oc8ccc(F)cc8F)cc7)c(C(N)=O)c6N)C5)cc4Cl)C3)ccc2CC1C(=O)NC1CCCc2ccccc21)C(C)(C)C

> <Shape>
0.207

> <Color>
0.176

> <Negative vol penalty>
0.000

$$$$

  -OEChem-04042321343D

 84 92  0     1  0  0  0  0  0999 V2000
  -27.3663  -22.7777   19.0097 C   0  0  0  0  0  0  0  0  0  0  0  0
  -26.1772  -23.3330   19.4711 C   0  0  0  0  0  0  0  0  0  0  0  0
  -26.1640  -14.6631   20.9163 C   0  0  0  0  0  0  0  0  0  0  0  0
  -24.0115  -14.3497   19.8647 C   0  0  0  0  0  0  0  0  0  0  0  0
  -28.5839  -23.1984   19.5430 C   0  0  0  0  0  0  0  0  0  0  0  0
  -26.2048  -24.3087   20.4670 C   0  0  0  0  0  0  0  0  0  0  0  0
  -23.1279  -28.2022   19.4580 C   0  0  0  0  0  0  0  0  0  0  0  0
  -18.1396  -21.2392   20.4008 C   0  0  0  0  0  0  0  0  0  0  0  0
  -26.3593  -13.2820   20.9280 C   0  0  0  0  0  0  0  0  0  0  0  0
  -24.2069  -12.9686   19.8764 C   0  0  0  0  0  0  0  0  0  0  0  0
  -21.7661  -28.0142   19.6901 C   0  0  0  0  0  0  0  0  0  0  0  0
  -23.9857  -10.4401   22.1100 C   0  0  0  0  0  0  0  0  0  0  0  0
  -17.9414  -22.3350   19.5609 C   0  0  0  0  0  0  0  0  0  0  0  0
  -22.9216   -9.6386   22.5232 C   0  0  0  0  0  0  0  0  0  0  0  0
  -21.9662  -29.1944   21.7844 C   0  0  0  0  0  0  0  0  0  0  0  0
  -22.9145   -8.5389   20.3720 C   0  0  0  0  0  0  0  0  0  0  0  0
  -24.9900  -15.1969   20.3846 C   0  0  0  0  0  0  0  0  0  0  0  0
  -25.1528  -17.5255   19.3556 C   0  0  0  0  0  0  0  0  0  0  0  0
  -28.6271  -24.1867   20.5391 C   0  0  0  0  0  0  0  0  0  0  0  0
  -23.9226  -28.8793   20.3942 C   0  0  0  0  0  0  0  0  0  0  0  0
  -27.4240  -24.7421   21.0150 C   0  0  0  0  0  0  0  0  0  0  0  0
  -23.3373  -29.3918   21.5607 C   0  0  0  0  0  0  0  0  0  0  0  0
  -18.0637  -21.3983   21.7845 C   0  0  0  0  0  0  0  0  0  0  0  0
  -17.5916  -23.7491   21.4883 C   0  0  0  0  0  0  0  0  0  0  0  0
  -25.3808  -12.4348   20.4081 C   0  0  0  0  0  0  0  0  0  0  0  0
  -21.1856  -28.5078   20.8547 C   0  0  0  0  0  0  0  0  0  0  0  0
  -24.5142  -10.2912   20.8277 C   0  0  0  0  0  0  0  0  0  0  0  0
  -22.3860   -8.6880   21.6543 C   0  0  0  0  0  0  0  0  0  0  0  0
  -17.6674  -23.5899   20.1046 C   0  0  0  0  0  0  0  0  0  0  0  0
  -23.9786   -9.3405   19.9587 C   0  0  0  0  0  0  0  0  0  0  0  0
  -17.7897  -22.6532   22.3283 C   0  0  0  0  0  0  0  0  0  0  0  0
  -24.7874  -16.6234   20.3727 C   0  0  0  0  0  0  0  0  0  0  0  0
  -24.7457  -18.7517   19.8216 C   0  0  0  0  0  0  0  0  0  0  0  0
  -25.8021  -17.2772   18.1016 C   0  0  0  0  0  0  0  0  0  0  0  0
  -26.4331  -28.1045   22.1833 C   0  0  0  0  0  0  0  0  0  0  0  0
  -26.3786  -31.2593   22.9361 C   0  0  0  0  0  0  0  0  0  0  0  0
  -24.5777  -34.1474   23.1867 C   0  0  0  0  0  0  0  0  0  0  0  0
  -20.5211  -20.4362   23.7160 C   0  0  0  0  0  0  0  0  0  0  0  0
  -29.9642  -24.5753   21.1186 C   0  0  0  0  0  0  0  0  0  0  0  0
  -25.3848  -29.0970   20.1165 C   0  0  0  0  0  0  0  0  0  0  0  0
  -24.1428  -30.1435   22.5877 C   0  0  0  0  0  0  0  0  0  0  0  0
  -29.9301  -25.8829   21.9056 C   0  0  0  0  0  0  0  0  0  0  0  0
  -24.0043  -21.1524   23.8931 C   0  0  0  0  0  0  0  0  0  0  0  0
  -28.7344  -25.9049   22.8526 C   0  0  0  0  0  0  0  0  0  0  0  0
  -24.6329  -20.1543   22.9192 C   0  0  0  0  0  0  0  0  0  0  0  0
  -22.8180  -20.5437   24.6376 C   0  0  0  0  0  0  0  0  0  0  0  0
  -22.4085  -18.9560   22.7977 C   0  0  0  0  0  0  0  0  0  0  0  0
  -27.4144  -25.8206   22.0766 C   0  0  1  0  0  0  0  0  0  0  0  0
  -26.2013  -29.3527   21.3796 C   0  0  1  0  0  0  0  0  0  0  0  0
  -23.5741  -19.5419   21.9826 C   0  0  2  0  0  0  0  0  0  0  0  0
  -24.7970  -36.5528   23.8675 C   0  0  0  0  0  0  0  0  0  0  0  0
  -26.3340  -30.4298   25.8720 C   0  0  0  0  0  0  0  0  0  0  0  0
  -25.6042  -32.7550   26.4458 C   0  0  0  0  0  0  0  0  0  0  0  0
  -27.8181  -32.3767   25.3604 C   0  0  0  0  0  0  0  0  0  0  0  0
  -23.8691  -35.0999   20.4757 C   0  0  0  0  0  0  0  0  0  0  0  0
  -18.2760  -20.2245   22.6797 C   0  0  0  0  0  0  0  0  0  0  0  0
  -17.2959  -25.0989   22.0726 C   0  0  0  0  0  0  0  0  0  0  0  0
  -18.1780  -27.3905   22.5300 C   0  0  0  0  0  0  0  0  0  0  0  0
  -19.4400  -28.2261   22.4452 C   0  0  0  0  0  0  0  0  0  1  0  0
  -25.7062  -32.0932   23.9998 C   0  0  1  0  0  0  0  0  0  0  0  0
  -24.8705  -35.5609   22.7170 C   0  0  2  0  0  0  0  0  0  0  0  0
  -26.3506  -31.8979   25.4013 C   0  0  0  0  0  0  0  0  0  0  0  0
  -24.1940  -17.2253   21.4069 N   0  0  0  0  0  0  0  0  0  0  0  0
  -24.1834  -18.5187   21.0421 N   0  0  0  0  0  0  0  0  0  0  0  0
  -25.5696  -30.3252   22.2737 N   0  0  0  0  0  0  0  0  0  0  0  0
  -21.8501  -19.9821   23.6922 N   0  0  0  0  0  0  0  0  0  0  0  0
  -24.8174  -19.9957   19.3023 N   0  0  0  0  0  0  0  0  0  0  0  0
  -26.1520  -15.9587   17.7799 N   0  0  0  0  0  0  0  0  0  0  0  0
  -27.0890  -27.1039   21.4920 N   0  0  0  0  0  0  0  0  0  0  0  0
  -25.7322  -33.4695   23.5167 N   0  0  0  0  0  0  0  0  0  0  0  0
  -19.6706  -19.8566   22.7825 N   0  0  0  0  0  0  0  0  0  0  0  0
  -23.8875  -35.9749   21.6761 N   0  3  0  0  0  0  0  0  0  0  0  0
  -18.4574  -26.0269   22.0136 N   0  3  0  0  0  0  0  0  0  0  0  0
  -26.0789  -18.1994   17.2976 O   0  0  0  0  0  0  0  0  0  0  0  0
  -26.0469  -28.0537   23.3452 O   0  0  0  0  0  0  0  0  0  0  0  0
  -27.5758  -31.4355   22.6966 O   0  0  0  0  0  0  0  0  0  0  0  0
  -23.4386  -33.6915   23.2576 O   0  0  0  0  0  0  0  0  0  0  0  0
  -20.1234  -21.2984   24.5068 O   0  0  0  0  0  0  0  0  0  0  0  0
  -25.5712  -11.0871   20.4192 O   0  0  0  0  0  0  0  0  0  0  0  0
  -19.8567  -28.3252   21.0840 O   0  0  0  0  0  0  0  0  0  1  0  0
  -21.3652   -7.9173   22.0518 F   0  0  0  0  0  0  0  0  0  0  0  0
  -17.4769  -24.6367   19.2897 F   0  0  0  0  0  0  0  0  0  0  0  0
  -24.4829   -9.1920   18.7261 F   0  0  0  0  0  0  0  0  0  0  0  0
  -17.7164  -22.8052   23.6589 F   0  0  0  0  0  0  0  0  0  0  0  0
  1  2  1  0  0  0  0
  1  5  2  0  0  0  0
  2  6  2  0  0  0  0
  3  9  2  0  0  0  0
  3 17  1  0  0  0  0
  4 10  1  0  0  0  0
  4 17  2  0  0  0  0
  5 19  1  0  0  0  0
  6 21  1  0  0  0  0
  7 11  2  0  0  0  0
  7 20  1  0  0  0  0
  8 13  1  0  0  0  0
  8 23  2  0  0  0  0
  9 25  1  0  0  0  0
 10 25  2  0  0  0  0
 11 26  1  0  0  0  0
 12 14  2  0  0  0  0
 12 27  1  0  0  0  0
 13 29  2  0  0  0  0
 14 28  1  0  0  0  0
 15 22  1  0  0  0  0
 15 26  2  0  0  0  0
 16 28  2  0  0  0  0
 16 30  1  0  0  0  0
 17 32  1  0  0  0  0
 18 32  1  0  0  0  0
 18 33  2  0  0  0  0
 18 34  1  0  0  0  0
 19 21  2  0  0  0  0
 19 39  1  0  0  0  0
 20 22  2  0  0  0  0
 20 40  1  0  0  0  0
 21 48  1  0  0  0  0
 22 41  1  0  0  0  0
 23 31  1  0  0  0  0
 23 56  1  0  0  0  0
 24 29  1  0  0  0  0
 24 31  2  0  0  0  0
 24 57  1  0  0  0  0
 25 79  1  0  0  0  0
 26 80  1  0  0  0  0
 27 30  2  0  0  0  0
 27 79  1  0  0  0  0
 28 81  1  0  0  0  0
 29 82  1  0  0  0  0
 30 83  1  0  0  0  0
 31 84  1  0  0  0  0
 32 63  2  0  0  0  0
 33 64  1  0  0  0  0
 33 67  1  0  0  0  0
 34 68  1  0  0  0  0
 34 74  2  0  0  0  0
 35 49  1  0  0  0  0
 35 69  1  0  0  0  0
 35 75  2  0  0  0  0
 36 60  1  0  0  0  0
 36 65  1  0  0  0  0
 36 76  2  0  0  0  0
 37 61  1  0  0  0  0
 37 70  1  0  0  0  0
 37 77  2  0  0  0  0
 38 66  1  0  0  0  0
 38 71  1  0  0  0  0
 38 78  2  0  0  0  0
 39 42  1  0  0  0  0
 40 49  1  0  0  0  0
 41 65  1  0  0  0  0
 42 44  1  0  0  0  0
 43 45  1  0  0  0  0
 43 46  1  0  0  0  0
 44 48  1  0  0  0  0
 45 50  1  0  0  0  0
 46 66  1  0  0  0  0
 47 50  1  0  0  0  0
 47 66  1  0  0  0  0
 48 69  1  0  0  0  0
 49 65  1  0  0  0  0
 50 64  1  0  0  0  0
 51 61  1  0  0  0  0
 52 62  1  0  0  0  0
 53 62  1  0  0  0  0
 54 62  1  0  0  0  0
 55 72  1  0  0  0  0
 56 71  1  0  0  0  0
 57 73  1  0  0  0  0
 58 59  1  0  0  0  0
 58 73  1  0  0  0  0
 59 80  1  0  0  0  0
 60 62  1  0  0  0  0
 60 70  1  0  0  0  0
 61 72  1  0  0  0  0
 63 64  1  0  0  0  0
M  CHG  2  72   1  73   1
M  ISO  4  38 100  59 101  71 100  80 101
M  END
> <Batch ID>
0029

> <Smiles>
CNC(C)C(=O)NC(C(=O)N1Cc2cc([101O:1][101CH2:1]CNCc3c(F)ccc(C[100NH:0][100C:0](=O)N4CCCC(n5nc(-c6ccc(Oc7ccc(F)cc7F)cc6)c(C(N)=O)c5N)C4)c3F)ccc2CC1C(=O)NC1CCCc2ccccc21)C(C)(C)C

> <Shape>
0.233

> <Color>
0.069

> <Negative vol penalty>
0.000

$$$$

  -OEChem-04042321343D

 84 93  0     1  0  0  0  0  0999 V2000
  -28.9041  -33.0016   26.3446 C   0  0  0  0  0  0  0  0  0  0  0  0
  -28.8201  -31.8014   25.6461 C   0  0  0  0  0  0  0  0  0  0  0  0
  -24.2365   -9.1721   19.9774 C   0  0  0  0  0  0  0  0  0  0  0  0
  -24.1120   -9.5310   22.3634 C   0  0  0  0  0  0  0  0  0  0  0  0
  -27.7416  -33.6945   26.6799 C   0  0  0  0  0  0  0  0  0  0  0  0
  -27.5734  -31.2929   25.2834 C   0  0  0  0  0  0  0  0  0  0  0  0
  -27.4736  -29.6185   20.5052 C   0  0  0  0  0  0  0  0  0  0  0  0
  -24.0916   -7.7992   20.1764 C   0  0  0  0  0  0  0  0  0  0  0  0
  -23.9671   -8.1581   22.5623 C   0  0  0  0  0  0  0  0  0  0  0  0
  -28.0466  -28.3723   20.2551 C   0  0  0  0  0  0  0  0  0  0  0  0
  -21.5047   -5.8553   22.3289 C   0  0  0  0  0  0  0  0  0  0  0  0
  -20.5239   -5.4319   23.2257 C   0  0  0  0  0  0  0  0  0  0  0  0
  -29.0834  -21.4952   18.1988 C   0  0  0  0  0  0  0  0  0  0  0  0
  -25.8529  -27.3689   20.2621 C   0  0  0  0  0  0  0  0  0  0  0  0
  -29.5962  -21.4543   20.5573 C   0  0  0  0  0  0  0  0  0  0  0  0
  -22.2186   -4.3595   24.5730 C   0  0  0  0  0  0  0  0  0  0  0  0
  -24.2467  -10.0381   21.0709 C   0  0  0  0  0  0  0  0  0  0  0  0
  -23.3710  -12.4004   20.6708 C   0  0  0  0  0  0  0  0  0  0  0  0
  -26.4805  -33.1991   26.3127 C   0  0  0  0  0  0  0  0  0  0  0  0
  -26.0844  -29.7476   20.6467 C   0  0  0  0  0  0  0  0  0  0  0  0
  -26.3929  -31.9791   25.6153 C   0  0  0  0  0  0  0  0  0  0  0  0
  -29.2256  -20.1023   18.1310 C   0  0  0  0  0  0  0  0  0  0  0  0
  -25.2645  -28.6182   20.5114 C   0  0  0  0  0  0  0  0  0  0  0  0
  -29.5336  -19.3784   19.2985 C   0  0  0  0  0  0  0  0  0  0  0  0
  -29.7286  -20.0671   20.5046 C   0  0  0  0  0  0  0  0  0  0  0  0
  -29.2709  -22.1673   19.4063 C   0  0  0  0  0  0  0  0  0  0  0  0
  -23.9569   -7.2921   21.4688 C   0  0  0  0  0  0  0  0  0  0  0  0
  -27.2365  -27.2468   20.1364 C   0  0  0  0  0  0  0  0  0  0  0  0
  -22.8425   -5.5307   22.5541 C   0  0  0  0  0  0  0  0  0  0  0  0
  -20.8808   -4.6840   24.3478 C   0  0  0  0  0  0  0  0  0  0  0  0
  -23.1994   -4.7829   23.6762 C   0  0  0  0  0  0  0  0  0  0  0  0
  -24.3969  -11.4564   20.8661 C   0  0  0  0  0  0  0  0  0  0  0  0
  -24.0289  -13.5974   20.5259 C   0  0  0  0  0  0  0  0  0  0  0  0
  -21.9504  -12.2122   20.6245 C   0  0  0  0  0  0  0  0  0  0  0  0
  -24.1450  -30.6798   22.9862 C   0  0  0  0  0  0  0  0  0  0  0  0
  -21.8691  -30.3690   20.6959 C   0  0  0  0  0  0  0  0  0  0  0  0
  -20.8900  -28.9287   17.7610 C   0  0  0  0  0  0  0  0  0  0  0  0
  -28.2395  -16.2738   17.9458 C   0  0  0  0  0  0  0  0  0  0  0  0
  -25.2497  -33.9596   26.7386 C   0  0  0  0  0  0  0  0  0  0  0  0
  -25.4797  -31.1032   20.8897 C   0  0  0  0  0  0  0  0  0  0  0  0
  -28.9943  -19.3938   16.8197 C   0  0  0  0  0  0  0  0  0  0  0  0
  -23.7661  -28.7068   20.6347 C   0  0  0  0  0  0  0  0  0  0  0  0
  -29.6971  -17.8748   19.2747 C   0  0  0  0  0  0  0  0  0  0  0  0
  -23.9865  -33.5423   25.9900 C   0  0  0  0  0  0  0  0  0  0  0  0
  -28.8553  -14.8353   21.3394 C   0  0  0  0  0  0  0  0  0  0  0  0
  -23.8749  -32.0219   25.9371 C   0  0  0  0  0  0  0  0  0  0  0  0
  -27.6878  -13.8565   21.4580 C   0  0  0  0  0  0  0  0  0  0  0  0
  -29.6060  -17.9967   16.8121 C   0  0  0  0  0  0  0  0  0  0  0  0
  -29.2702  -15.0255   19.8854 C   0  0  0  0  0  0  0  0  0  0  0  0
  -26.9867  -14.4880   19.1033 C   0  0  0  0  0  0  0  0  0  0  0  0
  -25.0601  -31.4077   25.1825 C   0  0  1  0  0  0  0  0  0  0  0  0
  -24.0953  -31.0344   21.5270 C   0  0  1  0  0  0  0  0  0  0  0  0
  -26.5185  -14.2817   20.5535 C   0  0  1  0  0  0  0  0  0  0  0  0
  -30.0864  -19.3464   21.7654 C   0  0  0  0  0  0  0  0  0  0  0  0
  -18.9618  -28.8394   16.1574 C   0  0  0  0  0  0  0  0  0  0  0  0
  -20.3491  -28.5618   22.6281 C   0  0  0  0  0  0  0  0  0  0  0  0
  -18.9755  -27.7649   20.6925 C   0  0  0  0  0  0  0  0  0  0  0  0
  -18.9158  -30.1688   21.3562 C   0  0  0  0  0  0  0  0  0  0  0  0
  -22.5323  -30.0025   15.5454 C   0  0  0  0  0  0  0  0  0  0  0  0
  -29.3087  -24.3214   20.6648 C   0  0  0  0  0  0  0  0  0  0  0  0
  -29.1088  -25.8035   20.3957 C   0  0  0  0  0  0  0  0  0  1  0  0
  -20.9777  -29.2476   20.2196 C   0  0  1  0  0  0  0  0  0  0  0  0
  -20.2770  -29.5196   16.5042 C   0  0  2  0  0  0  0  0  0  0  0  0
  -19.8329  -28.9334   21.2237 C   0  0  0  0  0  0  0  0  0  0  0  0
  -25.6140  -12.0062   20.8474 N   0  0  0  0  0  0  0  0  0  0  0  0
  -25.3571  -13.3087   20.6385 N   0  0  0  0  0  0  0  0  0  0  0  0
  -23.2229  -30.0532   20.8786 N   0  0  0  0  0  0  0  0  0  0  0  0
  -29.2234  -17.2714   18.0208 N   0  0  0  0  0  0  0  0  0  0  0  0
  -28.1288  -15.4027   19.0416 N   0  0  0  0  0  0  0  0  0  0  0  0
  -23.5951  -14.8581   20.3144 N   0  0  0  0  0  0  0  0  0  0  0  0
  -21.4422  -10.9169   20.7921 N   0  0  0  0  0  0  0  0  0  0  0  0
  -29.1307  -23.5697   19.4613 N   0  0  0  0  0  0  0  0  0  0  0  0
  -24.8835  -31.5598   23.7542 N   0  0  0  0  0  0  0  0  0  0  0  0
  -20.5175  -29.6290   18.8888 N   0  0  0  0  0  0  0  0  0  0  0  0
  -21.2067  -29.3608   15.3504 N   0  3  0  0  0  0  0  0  0  0  0  0
  -21.1561  -13.1621   20.4237 O   0  0  0  0  0  0  0  0  0  0  0  0
  -23.5558  -29.6825   23.3861 O   0  0  0  0  0  0  0  0  0  0  0  0
  -21.3835  -31.4860   20.8914 O   0  0  0  0  0  0  0  0  0  0  0  0
  -21.6227  -27.9421   17.7443 O   0  0  0  0  0  0  0  0  0  0  0  0
  -27.4933  -16.1739   16.9636 O   0  0  0  0  0  0  0  0  0  0  0  0
  -23.8153   -5.9525   21.6633 O   0  0  0  0  0  0  0  0  0  0  0  0
  -27.7972  -26.0207   19.8912 O   0  0  0  0  0  0  0  0  0  1  0  0
  -19.9389   -4.2789   25.2097 F   0  0  0  0  0  0  0  0  0  0  0  0
  -24.4832   -4.4691   23.8985 F   0  0  0  0  0  0  0  0  0  0  0  0
  1  2  1  0  0  0  0
  1  5  2  0  0  0  0
  2  6  2  0  0  0  0
  3  8  2  0  0  0  0
  3 17  1  0  0  0  0
  4  9  1  0  0  0  0
  4 17  2  0  0  0  0
  5 19  1  0  0  0  0
  6 21  1  0  0  0  0
  7 10  2  0  0  0  0
  7 20  1  0  0  0  0
  8 27  1  0  0  0  0
  9 27  2  0  0  0  0
 10 28  1  0  0  0  0
 11 12  2  0  0  0  0
 11 29  1  0  0  0  0
 12 30  1  0  0  0  0
 13 22  1  0  0  0  0
 13 26  2  0  0  0  0
 14 23  1  0  0  0  0
 14 28  2  0  0  0  0
 15 25  2  0  0  0  0
 15 26  1  0  0  0  0
 16 30  2  0  0  0  0
 16 31  1  0  0  0  0
 17 32  1  0  0  0  0
 18 32  1  0  0  0  0
 18 33  2  0  0  0  0
 18 34  1  0  0  0  0
 19 21  2  0  0  0  0
 19 39  1  0  0  0  0
 20 23  2  0  0  0  0
 20 40  1  0  0  0  0
 21 51  1  0  0  0  0
 22 24  2  0  0  0  0
 22 41  1  0  0  0  0
 23 42  1  0  0  0  0
 24 25  1  0  0  0  0
 24 43  1  0  0  0  0
 25 54  1  0  0  0  0
 26 72  1  0  0  0  0
 27 81  1  0  0  0  0
 28 82  1  0  0  0  0
 29 31  2  0  0  0  0
 29 81  1  0  0  0  0
 30 83  1  0  0  0  0
 31 84  1  0  0  0  0
 32 65  2  0  0  0  0
 33 66  1  0  0  0  0
 33 70  1  0  0  0  0
 34 71  1  0  0  0  0
 34 76  2  0  0  0  0
 35 52  1  0  0  0  0
 35 73  1  0  0  0  0
 35 77  2  0  0  0  0
 36 62  1  0  0  0  0
 36 67  1  0  0  0  0
 36 78  2  0  0  0  0
 37 63  1  0  0  0  0
 37 74  1  0  0  0  0
 37 79  2  0  0  0  0
 38 68  1  0  0  0  0
 38 69  1  0  0  0  0
 38 80  2  0  0  0  0
 39 44  1  0  0  0  0
 40 52  1  0  0  0  0
 41 48  1  0  0  0  0
 42 67  1  0  0  0  0
 43 68  1  0  0  0  0
 44 46  1  0  0  0  0
 45 47  1  0  0  0  0
 45 49  1  0  0  0  0
 46 51  1  0  0  0  0
 47 53  1  0  0  0  0
 48 68  1  0  0  0  0
 49 69  1  0  0  0  0
 50 53  1  0  0  0  0
 50 69  1  0  0  0  0
 51 73  1  0  0  0  0
 52 67  1  0  0  0  0
 53 66  1  0  0  0  0
 55 63  1  0  0  0  0
 56 64  1  0  0  0  0
 57 64  1  0  0  0  0
 58 64  1  0  0  0  0
 59 75  1  0  0  0  0
 60 61  1  0  0  0  0
 60 72  1  0  0  0  0
 61 82  1  0  0  0  0
 62 64  1  0  0  0  0
 62 74  1  0  0  0  0
 63 75  1  0  0  0  0
 65 66  1  0  0  0  0
M  CHG  1  75   1
M  ISO  4  38 100  61 101  68 100  82 101
M  END
> <Batch ID>
0029

> <Smiles>
CNC(C)C(=O)NC(C(=O)N1Cc2cc([101O:1][101CH2:1]CNc3cc(C)c4c(c3)CC[100N:0]([100C:0](=O)N3CCCC(n5nc(-c6ccc(Oc7ccc(F)cc7F)cc6)c(C(N)=O)c5N)C3)C4)ccc2CC1C(=O)NC1CCCc2ccccc21)C(C)(C)C

> <Shape>
0.336

> <Color>
0.106

> <Negative vol penalty>
0.000

$$$$

  -OEChem-04042321343D

 90100  0     1  0  0  0  0  0999 V2000
  -24.0688  -23.4941   17.6609 C   0  0  0  0  0  0  0  0  0  0  0  0
  -23.1643  -24.2543   18.3955 C   0  0  0  0  0  0  0  0  0  0  0  0
  -26.5176  -15.5166   22.1583 C   0  0  0  0  0  0  0  0  0  0  0  0
  -24.3346  -15.5391   21.1233 C   0  0  0  0  0  0  0  0  0  0  0  0
  -25.4167  -23.4804   18.0168 C   0  0  0  0  0  0  0  0  0  0  0  0
  -23.6072  -25.0004   19.4870 C   0  0  0  0  0  0  0  0  0  0  0  0
  -21.6738  -29.6804   19.5542 C   0  0  0  0  0  0  0  0  0  0  0  0
  -26.6810  -14.1827   21.7846 C   0  0  0  0  0  0  0  0  0  0  0  0
  -24.4980  -14.2052   20.7496 C   0  0  0  0  0  0  0  0  0  0  0  0
  -20.3605  -29.8204   20.0006 C   0  0  0  0  0  0  0  0  0  0  0  0
  -24.1891  -10.7008   19.8365 C   0  0  0  0  0  0  0  0  0  0  0  0
  -23.1154   -9.8341   20.0406 C   0  0  0  0  0  0  0  0  0  0  0  0
  -21.1755  -30.5248   22.1590 C   0  0  0  0  0  0  0  0  0  0  0  0
  -19.4821  -24.2738   24.7672 C   0  0  0  0  0  0  0  0  0  0  0  0
  -23.1935  -10.2955   22.4109 C   0  0  0  0  0  0  0  0  0  0  0  0
  -25.3443  -16.1948   21.8277 C   0  0  0  0  0  0  0  0  0  0  0  0
  -25.5372  -18.7137   21.4735 C   0  0  0  0  0  0  0  0  0  0  0  0
  -25.8780  -24.2344   19.1074 C   0  0  0  0  0  0  0  0  0  0  0  0
  -22.7497  -29.9515   20.4117 C   0  0  0  0  0  0  0  0  0  0  0  0
  -24.9624  -24.9958   19.8586 C   0  0  0  0  0  0  0  0  0  0  0  0
  -22.5016  -30.3899   21.7203 C   0  0  0  0  0  0  0  0  0  0  0  0
  -18.6434  -25.7400   23.0398 C   0  0  0  0  0  0  0  0  0  0  0  0
  -19.6843  -25.3453   22.1993 C   0  0  0  0  0  0  0  0  0  0  0  0
  -18.5423  -25.2043   24.3237 C   0  0  0  0  0  0  0  0  0  0  0  0
  -20.5231  -23.8792   23.9267 C   0  0  0  0  0  0  0  0  0  0  0  0
  -25.6712  -13.5270   21.0803 C   0  0  0  0  0  0  0  0  0  0  0  0
  -20.1111  -30.2399   21.3041 C   0  0  0  0  0  0  0  0  0  0  0  0
  -24.7651  -11.3648   20.9197 C   0  0  0  0  0  0  0  0  0  0  0  0
  -22.6176   -9.6315   21.3277 C   0  0  0  0  0  0  0  0  0  0  0  0
  -24.2672  -11.1621   22.2068 C   0  0  0  0  0  0  0  0  0  0  0  0
  -20.6242  -24.4149   22.6428 C   0  0  0  0  0  0  0  0  0  0  0  0
  -25.1747  -17.5725   22.2138 C   0  0  0  0  0  0  0  0  0  0  0  0
  -25.1696  -19.7707   22.2699 C   0  0  0  0  0  0  0  0  0  0  0  0
  -26.1512  -18.8098   20.1814 C   0  0  0  0  0  0  0  0  0  0  0  0
  -25.1504  -28.2453   21.6073 C   0  0  0  0  0  0  0  0  0  0  0  0
  -26.1096  -31.1233   22.7561 C   0  0  0  0  0  0  0  0  0  0  0  0
  -25.2681  -34.2949   23.6940 C   0  0  0  0  0  0  0  0  0  0  0  0
  -21.5164  -22.3034   25.6229 C   0  0  0  0  0  0  0  0  0  0  0  0
  -27.3364  -24.1508   19.4827 C   0  0  0  0  0  0  0  0  0  0  0  0
  -24.1605  -29.8214   19.9066 C   0  0  0  0  0  0  0  0  0  0  0  0
  -23.6215  -30.7133   22.6740 C   0  0  0  0  0  0  0  0  0  0  0  0
  -27.7878  -25.2643   20.4243 C   0  0  0  0  0  0  0  0  0  0  0  0
  -16.3103  -26.1599   27.1552 C   0  0  0  0  0  0  0  0  0  0  0  0
  -15.3672  -26.2579   25.9732 C   0  0  0  0  0  0  0  0  0  0  0  0
  -23.6730  -19.8884   27.1039 C   0  0  0  0  0  0  0  0  0  0  0  0
  -26.7899  -25.4360   21.5652 C   0  0  0  0  0  0  0  0  0  0  0  0
  -24.2858  -19.1645   25.9029 C   0  0  0  0  0  0  0  0  0  0  0  0
  -17.1075  -30.3008   23.4181 C   0  0  0  0  0  0  0  0  0  0  0  0
  -17.6835  -26.2298   26.4968 C   0  0  0  0  0  0  0  0  0  0  0  0
  -16.0686  -25.4171   24.9126 C   0  0  0  0  0  0  0  0  0  0  0  0
  -22.2125  -20.2617   26.8565 C   0  0  0  0  0  0  0  0  0  0  0  0
  -22.5781  -20.2929   24.4204 C   0  0  0  0  0  0  0  0  0  0  0  0
  -16.5408  -28.9727   22.9585 C   0  0  0  0  0  0  0  0  0  0  0  0
  -18.9170  -28.7157   23.4947 C   0  0  0  0  0  0  0  0  0  0  0  0
  -25.4086  -25.8379   21.0341 C   0  0  1  0  0  0  0  0  0  0  0  0
  -25.1803  -29.6302   21.0250 C   0  0  1  0  0  0  0  0  0  0  0  0
  -24.0673  -19.9542   24.5974 C   0  0  2  0  0  0  0  0  0  0  0  0
  -18.5924  -30.1565   23.1322 C   0  0  1  0  0  0  0  0  0  1  0  0
  -19.8122  -25.9060   20.8205 C   0  0  0  0  0  0  0  0  0  0  0  0
  -26.2612  -36.4020   24.6274 C   0  0  0  0  0  0  0  0  0  0  0  0
  -26.2290  -29.8391   25.5214 C   0  0  0  0  0  0  0  0  0  0  0  0
  -26.2848  -32.1386   26.5102 C   0  0  0  0  0  0  0  0  0  0  0  0
  -28.1265  -31.3846   25.0060 C   0  0  0  0  0  0  0  0  0  0  0  0
  -24.5009  -35.8551   21.2991 C   0  0  0  0  0  0  0  0  0  0  0  0
  -17.6339  -26.7401   22.5586 C   0  0  0  0  0  0  0  0  0  0  0  0
  -25.8573  -31.9073   24.0212 C   0  0  1  0  0  0  0  0  0  0  0  0
  -25.8885  -35.6407   23.3648 C   0  0  2  0  0  0  0  0  0  0  0  0
  -26.6031  -31.3096   25.2476 C   0  0  0  0  0  0  0  0  0  0  0  0
  -24.6195  -17.8759   23.3902 N   0  0  0  0  0  0  0  0  0  0  0  0
  -24.6305  -19.2198   23.3951 N   0  0  0  0  0  0  0  0  0  0  0  0
  -17.5001  -25.5915   25.1875 N   0  0  0  0  0  0  0  0  0  0  0  0
  -24.9835  -30.5645   22.1352 N   0  0  0  0  0  0  0  0  0  0  0  0
  -22.0830  -21.0114   25.6050 N   0  0  0  0  0  0  0  0  0  0  0  0
  -25.2581  -21.1083   22.1104 N   0  0  0  0  0  0  0  0  0  0  0  0
  -26.4629  -17.6253   19.5001 N   0  0  0  0  0  0  0  0  0  0  0  0
  -21.4752  -22.9322   24.3788 N   0  0  0  0  0  0  0  0  0  0  0  0
  -25.3898  -27.2428   20.6870 N   0  0  0  0  0  0  0  0  0  0  0  0
  -26.2123  -33.2904   23.7219 N   0  0  0  0  0  0  0  0  0  0  0  0
  -17.5898  -27.9774   23.3965 N   0  3  2  0  0  0  0  0  0  0  0  0
  -24.9340  -36.4727   22.5789 N   0  3  0  0  0  0  0  0  0  0  0  0
  -26.4307  -19.9131   19.6541 O   0  0  0  0  0  0  0  0  0  0  0  0
  -24.9281  -28.0975   22.8033 O   0  0  0  0  0  0  0  0  0  0  0  0
  -27.2625  -31.0167   22.3304 O   0  0  0  0  0  0  0  0  0  0  0  0
  -24.0668  -34.1498   23.9089 O   0  0  0  0  0  0  0  0  0  0  0  0
  -21.1233  -22.8253   26.6693 O   0  0  0  0  0  0  0  0  0  0  0  0
  -25.8305  -12.2255   20.7153 O   0  0  0  0  0  0  0  0  0  0  0  0
  -18.8302  -30.3767   21.7425 O   0  0  0  0  0  0  0  0  0  1  0  0
  -21.5855   -8.8004   21.5234 F   0  0  0  0  0  0  0  0  0  0  0  0
  -24.8157  -11.7981   23.2511 F   0  0  0  0  0  0  0  0  0  0  0  0
  -21.6235  -24.0338   21.8327 F   0  0  0  0  0  0  0  0  0  0  0  0
  1  2  1  0  0  0  0
  1  5  2  0  0  0  0
  2  6  2  0  0  0  0
  3  8  2  0  0  0  0
  3 16  1  0  0  0  0
  4  9  1  0  0  0  0
  4 16  2  0  0  0  0
  5 18  1  0  0  0  0
  6 20  1  0  0  0  0
  7 10  2  0  0  0  0
  7 19  1  0  0  0  0
  8 26  1  0  0  0  0
  9 26  2  0  0  0  0
 10 27  1  0  0  0  0
 11 12  2  0  0  0  0
 11 28  1  0  0  0  0
 12 29  1  0  0  0  0
 13 21  1  0  0  0  0
 13 27  2  0  0  0  0
 14 24  2  0  0  0  0
 14 25  1  0  0  0  0
 15 29  2  0  0  0  0
 15 30  1  0  0  0  0
 16 32  1  0  0  0  0
 17 32  1  0  0  0  0
 17 33  2  0  0  0  0
 17 34  1  0  0  0  0
 18 20  2  0  0  0  0
 18 39  1  0  0  0  0
 19 21  2  0  0  0  0
 19 40  1  0  0  0  0
 20 55  1  0  0  0  0
 21 41  1  0  0  0  0
 22 23  2  0  0  0  0
 22 24  1  0  0  0  0
 22 65  1  0  0  0  0
 23 31  1  0  0  0  0
 23 59  1  0  0  0  0
 24 71  1  0  0  0  0
 25 31  2  0  0  0  0
 25 76  1  0  0  0  0
 26 86  1  0  0  0  0
 27 87  1  0  0  0  0
 28 30  2  0  0  0  0
 28 86  1  0  0  0  0
 29 88  1  0  0  0  0
 30 89  1  0  0  0  0
 31 90  1  0  0  0  0
 32 69  2  0  0  0  0
 33 70  1  0  0  0  0
 33 74  1  0  0  0  0
 34 75  1  0  0  0  0
 34 81  2  0  0  0  0
 35 56  1  0  0  0  0
 35 77  1  0  0  0  0
 35 82  2  0  0  0  0
 36 66  1  0  0  0  0
 36 72  1  0  0  0  0
 36 83  2  0  0  0  0
 37 67  1  0  0  0  0
 37 78  1  0  0  0  0
 37 84  2  0  0  0  0
 38 73  1  0  0  0  0
 38 76  1  0  0  0  0
 38 85  2  0  0  0  0
 39 42  1  0  0  0  0
 40 56  1  0  0  0  0
 41 72  1  0  0  0  0
 42 46  1  0  0  0  0
 43 44  1  0  0  0  0
 43 49  1  0  0  0  0
 44 50  1  0  0  0  0
 45 47  1  0  0  0  0
 45 51  1  0  0  0  0
 46 55  1  0  0  0  0
 47 57  1  0  0  0  0
 48 53  1  0  0  0  0
 48 58  1  0  0  0  0
 49 71  1  0  0  0  0
 50 71  1  0  0  0  0
 51 73  1  0  0  0  0
 52 57  1  0  0  0  0
 52 73  1  0  0  0  0
 53 79  1  0  0  0  0
 54 58  1  0  0  0  0
 54 79  1  0  0  0  0
 55 77  1  0  0  0  0
 56 72  1  0  0  0  0
 57 70  1  0  0  0  0
 58 87  1  0  0  0  0
 60 67  1  0  0  0  0
 61 68  1  0  0  0  0
 62 68  1  0  0  0  0
 63 68  1  0  0  0  0
 64 80  1  0  0  0  0
 65 79  1  0  0  0  0
 66 68  1  0  0  0  0
 66 78  1  0  0  0  0
 67 80  1  0  0  0  0
 69 70  1  0  0  0  0
M  CHG  2  79   1  80   1
M  ISO  4  38 100  58 101  76 100  87 101
M  END
> <Batch ID>
0029

> <Smiles>
CNC(C)C(=O)NC(C(=O)N1Cc2cc([101O:1][101CH:1]3CCN(Cc4c(N5CCCC5)cc([100NH:0][100C:0](=O)N5CCCC(n6nc(-c7ccc(Oc8ccc(F)cc8F)cc7)c(C(N)=O)c6N)C5)c(F)c4C)C3)ccc2CC1C(=O)NC1CCCc2ccccc21)C(C)(C)C

> <Shape>
0.247

> <Color>
0.065

> <Negative vol penalty>
0.000

$$$$

  -OEChem-04042321343D

 81 89  0     1  0  0  0  0  0999 V2000
  -25.4283  -35.5557   22.5225 C   0  0  0  0  0  0  0  0  0  0  0  0
  -26.0810  -34.3351   22.3824 C   0  0  0  0  0  0  0  0  0  0  0  0
  -25.3191  -12.3208   21.6435 C   0  0  0  0  0  0  0  0  0  0  0  0
  -25.3839  -12.3605   19.2287 C   0  0  0  0  0  0  0  0  0  0  0  0
  -24.1436  -35.6000   23.0623 C   0  0  0  0  0  0  0  0  0  0  0  0
  -25.4496  -33.1581   22.7831 C   0  0  0  0  0  0  0  0  0  0  0  0
  -25.9564  -29.4306   19.3929 C   0  0  0  0  0  0  0  0  0  0  0  0
  -24.6999  -11.0716   21.6064 C   0  0  0  0  0  0  0  0  0  0  0  0
  -24.7646  -11.1111   19.1916 C   0  0  0  0  0  0  0  0  0  0  0  0
  -27.1770  -28.7575   19.3643 C   0  0  0  0  0  0  0  0  0  0  0  0
  -25.6142   -7.8513   21.1298 C   0  0  0  0  0  0  0  0  0  0  0  0
  -26.0866   -6.8676   21.9986 C   0  0  0  0  0  0  0  0  0  0  0  0
  -28.5564  -22.7075   18.7135 C   0  0  0  0  0  0  0  0  0  0  0  0
  -26.2084  -26.9587   20.6470 C   0  0  0  0  0  0  0  0  0  0  0  0
  -29.7818  -20.9824   17.5476 C   0  0  0  0  0  0  0  0  0  0  0  0
  -23.9032   -6.7238   23.0229 C   0  0  0  0  0  0  0  0  0  0  0  0
  -25.6611  -12.9653   20.4546 C   0  0  0  0  0  0  0  0  0  0  0  0
  -29.6869  -23.5242   18.6933 C   0  0  0  0  0  0  0  0  0  0  0  0
  -27.6826  -14.5193   20.5335 C   0  0  0  0  0  0  0  0  0  0  0  0
  -23.4924  -34.4220   23.4609 C   0  0  0  0  0  0  0  0  0  0  0  0
  -24.8537  -28.8769   20.0592 C   0  0  0  0  0  0  0  0  0  0  0  0
  -24.1555  -33.1868   23.3300 C   0  0  0  0  0  0  0  0  0  0  0  0
  -24.9742  -27.6255   20.6804 C   0  0  0  0  0  0  0  0  0  0  0  0
  -28.6038  -21.4365   18.1406 C   0  0  0  0  0  0  0  0  0  0  0  0
  -24.4227  -10.4667   20.3805 C   0  0  0  0  0  0  0  0  0  0  0  0
  -27.3040  -27.5227   19.9938 C   0  0  0  0  0  0  0  0  0  0  0  0
  -24.2863   -8.2713   21.2077 C   0  0  0  0  0  0  0  0  0  0  0  0
  -25.2311   -6.3038   22.9451 C   0  0  0  0  0  0  0  0  0  0  0  0
  -23.4308   -7.7075   22.1542 C   0  0  0  0  0  0  0  0  0  0  0  0
  -30.8649  -23.0701   18.1002 C   0  0  0  0  0  0  0  0  0  0  0  0
  -30.9124  -21.7992   17.5273 C   0  0  0  0  0  0  0  0  0  0  0  0
  -26.3003  -14.2561   20.4923 C   0  0  0  0  0  0  0  0  0  0  0  0
  -27.7706  -15.8898   20.5575 C   0  0  0  0  0  0  0  0  0  0  0  0
  -29.6302  -24.8650   19.2998 C   0  0  0  0  0  0  0  0  0  0  0  0
  -28.5313  -25.6240   19.3945 C   0  0  0  0  0  0  0  0  0  1  0  0
  -28.7882  -13.6067   20.5486 C   0  0  0  0  0  0  0  0  0  0  0  0
  -23.0530  -29.7526   22.5278 C   0  0  0  0  0  0  0  0  0  0  0  0
  -21.3147  -27.1471   21.6842 C   0  0  0  0  0  0  0  0  0  0  0  0
  -21.2151  -24.1087   20.1334 C   0  0  0  0  0  0  0  0  0  0  0  0
  -26.2080  -20.9042   18.7088 C   0  0  0  0  0  0  0  0  0  0  0  0
  -22.1222  -34.5248   24.0827 C   0  0  0  0  0  0  0  0  0  0  0  0
  -23.5366  -29.6031   20.0580 C   0  0  0  0  0  0  0  0  0  0  0  0
  -23.8150  -26.9786   21.3918 C   0  0  0  0  0  0  0  0  0  0  0  0
  -21.3761  -33.1941   24.1359 C   0  0  0  0  0  0  0  0  0  0  0  0
  -24.1960  -19.4087   21.2372 C   0  0  0  0  0  0  0  0  0  0  0  0
  -22.2901  -32.0900   24.6578 C   0  0  0  0  0  0  0  0  0  0  0  0
  -24.6778  -17.9565   21.2722 C   0  0  0  0  0  0  0  0  0  0  0  0
  -24.1892  -19.9699   19.8164 C   0  0  0  0  0  0  0  0  0  0  0  0
  -25.9389  -18.3800   19.1234 C   0  0  0  0  0  0  0  0  0  0  0  0
  -23.4939  -31.8859   23.7301 C   0  0  1  0  0  0  0  0  0  0  0  0
  -22.6223  -29.1843   21.2053 C   0  0  1  0  0  0  0  0  0  0  0  0
  -26.0248  -17.7919   20.5412 C   0  0  2  0  0  0  0  0  0  0  0  0
  -19.6645  -22.1979   19.6416 C   0  0  0  0  0  0  0  0  0  0  0  0
  -21.5881  -26.1864   24.5673 C   0  0  0  0  0  0  0  0  0  0  0  0
  -20.8803  -23.9099   23.8024 C   0  0  0  0  0  0  0  0  0  0  0  0
  -19.3230  -25.8440   23.5640 C   0  0  0  0  0  0  0  0  0  0  0  0
  -21.4854  -24.4897   17.2109 C   0  0  0  0  0  0  0  0  0  0  0  0
  -21.3394  -25.6820   22.0474 C   0  0  1  0  0  0  0  0  0  0  0  0
  -20.2319  -23.5166   19.1398 C   0  0  2  0  0  0  0  0  0  0  0  0
  -20.8052  -25.4184   23.4836 C   0  0  0  0  0  0  0  0  0  0  0  0
  -25.5631  -15.3700   20.4903 N   0  0  0  0  0  0  0  0  0  0  0  0
  -26.4857  -16.3464   20.5306 N   0  0  0  0  0  0  0  0  0  0  0  0
  -22.5497  -27.7309   21.3684 N   0  0  0  0  0  0  0  0  0  0  0  0
  -25.4988  -19.7825   19.1881 N   0  0  0  0  0  0  0  0  0  0  0  0
  -28.8209  -16.7368   20.5988 N   0  0  0  0  0  0  0  0  0  0  0  0
  -28.5198  -12.2314   20.5195 N   0  0  0  0  0  0  0  0  0  0  0  0
  -27.4555  -20.6067   18.1612 N   0  0  0  0  0  0  0  0  0  0  0  0
  -23.1058  -31.1331   22.5566 N   0  0  0  0  0  0  0  0  0  0  0  0
  -20.5998  -24.9888   20.9982 N   0  0  0  0  0  0  0  0  0  0  0  0
  -20.9016  -23.2725   17.8311 N   0  3  0  0  0  0  0  0  0  0  0  0
  -29.9785  -13.9988   20.6032 O   0  0  0  0  0  0  0  0  0  0  0  0
  -23.3164  -28.9948   23.4541 O   0  0  0  0  0  0  0  0  0  0  0  0
  -20.2383  -27.7495   21.6739 O   0  0  0  0  0  0  0  0  0  0  0  0
  -22.4089  -23.8166   20.1438 O   0  0  0  0  0  0  0  0  0  0  0  0
  -25.7547  -22.0476   18.8038 O   0  0  0  0  0  0  0  0  0  0  0  0
  -23.8186   -9.2475   20.3439 O   0  0  0  0  0  0  0  0  0  0  0  0
  -28.4945  -26.8640   19.9680 O   0  0  0  0  0  0  0  0  0  1  0  0
  -25.6845   -5.3581   23.7783 F   0  0  0  0  0  0  0  0  0  0  0  0
  -22.1538   -8.1061   22.2329 F   0  0  0  0  0  0  0  0  0  0  0  0
  -31.9529  -23.8561   18.0806 F   0  0  0  0  0  0  0  0  0  0  0  0
  -32.3629  -21.2320   16.7935 Cl  0  0  0  0  0  0  0  0  0  0  0  0
  1  2  1  0  0  0  0
  1  5  2  0  0  0  0
  2  6  2  0  0  0  0
  3  8  2  0  0  0  0
  3 17  1  0  0  0  0
  4  9  1  0  0  0  0
  4 17  2  0  0  0  0
  5 20  1  0  0  0  0
  6 22  1  0  0  0  0
  7 10  2  0  0  0  0
  7 21  1  0  0  0  0
  8 25  1  0  0  0  0
  9 25  2  0  0  0  0
 10 26  1  0  0  0  0
 11 12  2  0  0  0  0
 11 27  1  0  0  0  0
 12 28  1  0  0  0  0
 13 18  1  0  0  0  0
 13 24  2  0  0  0  0
 14 23  1  0  0  0  0
 14 26  2  0  0  0  0
 15 24  1  0  0  0  0
 15 31  2  0  0  0  0
 16 28  2  0  0  0  0
 16 29  1  0  0  0  0
 17 32  1  0  0  0  0
 18 30  2  0  0  0  0
 18 34  1  0  0  0  0
 19 32  1  0  0  0  0
 19 33  2  0  0  0  0
 19 36  1  0  0  0  0
 20 22  2  0  0  0  0
 20 41  1  0  0  0  0
 21 23  2  0  0  0  0
 21 42  1  0  0  0  0
 22 50  1  0  0  0  0
 23 43  1  0  0  0  0
 24 67  1  0  0  0  0
 25 76  1  0  0  0  0
 26 77  1  0  0  0  0
 27 29  2  0  0  0  0
 27 76  1  0  0  0  0
 28 78  1  0  0  0  0
 29 79  1  0  0  0  0
 30 31  1  0  0  0  0
 30 80  1  0  0  0  0
 31 81  1  0  0  0  0
 32 61  2  0  0  0  0
 33 62  1  0  0  0  0
 33 65  1  0  0  0  0
 34 35  2  0  0  0  0
 35 77  1  0  0  0  0
 36 66  1  0  0  0  0
 36 71  2  0  0  0  0
 37 51  1  0  0  0  0
 37 68  1  0  0  0  0
 37 72  2  0  0  0  0
 38 58  1  0  0  0  0
 38 63  1  0  0  0  0
 38 73  2  0  0  0  0
 39 59  1  0  0  0  0
 39 69  1  0  0  0  0
 39 74  2  0  0  0  0
 40 64  1  0  0  0  0
 40 67  1  0  0  0  0
 40 75  2  0  0  0  0
 41 44  1  0  0  0  0
 42 51  1  0  0  0  0
 43 63  1  0  0  0  0
 44 46  1  0  0  0  0
 45 47  1  0  0  0  0
 45 48  1  0  0  0  0
 46 50  1  0  0  0  0
 47 52  1  0  0  0  0
 48 64  1  0  0  0  0
 49 52  1  0  0  0  0
 49 64  1  0  0  0  0
 50 68  1  0  0  0  0
 51 63  1  0  0  0  0
 52 62  1  0  0  0  0
 53 59  1  0  0  0  0
 54 60  1  0  0  0  0
 55 60  1  0  0  0  0
 56 60  1  0  0  0  0
 57 70  1  0  0  0  0
 58 60  1  0  0  0  0
 58 69  1  0  0  0  0
 59 70  1  0  0  0  0
 61 62  1  0  0  0  0
M  CHG  1  70   1
M  ISO  4  35 101  40 100  67 100  77 101
M  END
> <Batch ID>
0029

> <Smiles>
CNC(C)C(=O)NC(C(=O)N1Cc2cc([101O:1][101CH:1]=Cc3cc([100NH:0][100C:0](=O)N4CCCC(n5nc(-c6ccc(Oc7ccc(F)cc7F)cc6)c(C(N)=O)c5N)C4)cc(Cl)c3F)ccc2CC1C(=O)NC1CCCc2ccccc21)C(C)(C)C

> <Shape>
0.250

> <Color>
0.086

> <Negative vol penalty>
0.000

$$$$

  -OEChem-04042321343D

 84 93  0     1  0  0  0  0  0999 V2000
  -26.7817  -35.7246   25.9548 C   0  0  0  0  0  0  0  0  0  0  0  0
  -27.3859  -34.6343   25.3372 C   0  0  0  0  0  0  0  0  0  0  0  0
  -23.6561   -9.9077   22.2772 C   0  0  0  0  0  0  0  0  0  0  0  0
  -23.0885   -9.9801   19.9299 C   0  0  0  0  0  0  0  0  0  0  0  0
  -25.4276  -35.6759   26.2838 C   0  0  0  0  0  0  0  0  0  0  0  0
  -26.6366  -33.4941   25.0491 C   0  0  0  0  0  0  0  0  0  0  0  0
  -27.2853  -29.7861   20.2184 C   0  0  0  0  0  0  0  0  0  0  0  0
  -23.0422   -8.6601   22.3872 C   0  0  0  0  0  0  0  0  0  0  0  0
  -22.4747   -8.7324   20.0399 C   0  0  0  0  0  0  0  0  0  0  0  0
  -27.9323  -28.5618   20.0559 C   0  0  0  0  0  0  0  0  0  0  0  0
  -23.7838   -5.4451   21.6477 C   0  0  0  0  0  0  0  0  0  0  0  0
  -24.4614   -4.4489   22.3505 C   0  0  0  0  0  0  0  0  0  0  0  0
  -25.8424  -27.4151   20.4258 C   0  0  0  0  0  0  0  0  0  0  0  0
  -28.6814  -21.0770   19.9018 C   0  0  0  0  0  0  0  0  0  0  0  0
  -26.4238  -21.1754   19.0469 C   0  0  0  0  0  0  0  0  0  0  0  0
  -22.6203   -4.2948   23.9073 C   0  0  0  0  0  0  0  0  0  0  0  0
  -23.6792  -10.5677   21.0486 C   0  0  0  0  0  0  0  0  0  0  0  0
  -25.6592  -12.1171   20.6167 C   0  0  0  0  0  0  0  0  0  0  0  0
  -24.6592  -34.5382   25.9908 C   0  0  0  0  0  0  0  0  0  0  0  0
  -25.9118  -29.8338   20.4971 C   0  0  0  0  0  0  0  0  0  0  0  0
  -25.2714  -33.4296   25.3756 C   0  0  0  0  0  0  0  0  0  0  0  0
  -25.1799  -28.6413   20.5889 C   0  0  0  0  0  0  0  0  0  0  0  0
  -28.8503  -19.8246   19.3114 C   0  0  0  0  0  0  0  0  0  0  0  0
  -26.5927  -19.9230   18.4565 C   0  0  0  0  0  0  0  0  0  0  0  0
  -27.8060  -19.2476   18.5887 C   0  0  0  0  0  0  0  0  0  0  0  0
  -27.4681  -21.7524   19.7696 C   0  0  0  0  0  0  0  0  0  0  0  0
  -22.4515   -8.0724   21.2686 C   0  0  0  0  0  0  0  0  0  0  0  0
  -27.2114  -27.3760   20.1624 C   0  0  0  0  0  0  0  0  0  0  0  0
  -22.5244   -5.8662   22.0747 C   0  0  0  0  0  0  0  0  0  0  0  0
  -23.8797   -3.8737   23.4803 C   0  0  0  0  0  0  0  0  0  0  0  0
  -21.9427   -5.2911   23.2045 C   0  0  0  0  0  0  0  0  0  0  0  0
  -24.3127  -11.8568   20.9344 C   0  0  0  0  0  0  0  0  0  0  0  0
  -25.7575  -13.4870   20.6343 C   0  0  0  0  0  0  0  0  0  0  0  0
  -26.7258  -11.2025   20.3311 C   0  0  0  0  0  0  0  0  0  0  0  0
  -24.1490  -30.9163   22.9105 C   0  0  0  0  0  0  0  0  0  0  0  0
  -21.6861  -30.1574   20.9406 C   0  0  0  0  0  0  0  0  0  0  0  0
  -20.5379  -28.2905   18.3247 C   0  0  0  0  0  0  0  0  0  0  0  0
  -23.7598  -18.5270   19.3103 C   0  0  0  0  0  0  0  0  0  0  0  0
  -23.2101  -34.5139   26.4082 C   0  0  0  0  0  0  0  0  0  0  0  0
  -25.2235  -31.1632   20.6433 C   0  0  0  0  0  0  0  0  0  0  0  0
  -23.6996  -28.6388   20.8666 C   0  0  0  0  0  0  0  0  0  0  0  0
  -22.3993  -33.4126   25.7299 C   0  0  0  0  0  0  0  0  0  0  0  0
  -22.5081  -17.0001   22.2732 C   0  0  0  0  0  0  0  0  0  0  0  0
  -23.1539  -32.0878   25.7775 C   0  0  0  0  0  0  0  0  0  0  0  0
  -22.9716  -15.5467   22.1596 C   0  0  0  0  0  0  0  0  0  0  0  0
  -22.1259  -17.5785   20.9126 C   0  0  0  0  0  0  0  0  0  0  0  0
  -23.6283  -16.0016   19.7595 C   0  0  0  0  0  0  0  0  0  0  0  0
  -26.4671  -24.0573   19.8971 C   0  0  0  0  0  0  0  0  0  0  0  0
  -28.3196  -23.8472   20.8729 C   0  0  0  0  0  0  0  0  0  0  0  0
  -24.4862  -32.1844   25.0245 C   0  0  1  0  0  0  0  0  0  0  0  0
  -23.9217  -31.0783   21.4341 C   0  0  1  0  0  0  0  0  0  0  0  0
  -24.0777  -15.3923   21.0985 C   0  0  2  0  0  0  0  0  0  0  0  0
  -27.3419  -25.0202   20.7121 C   0  0  0  0  0  0  0  0  0  1  0  0
  -30.1592  -19.1220   19.4685 C   0  0  0  0  0  0  0  0  0  0  0  0
  -27.9867  -17.9044   17.9564 C   0  0  0  0  0  0  0  0  0  0  0  0
  -18.4709  -27.8625   16.9675 C   0  0  0  0  0  0  0  0  0  0  0  0
  -20.5271  -28.5075   23.2307 C   0  0  0  0  0  0  0  0  0  0  0  0
  -19.0355  -27.3762   21.5682 C   0  0  0  0  0  0  0  0  0  0  0  0
  -18.8424  -29.8347   21.9443 C   0  0  0  0  0  0  0  0  0  0  0  0
  -21.8508  -29.1875   15.8285 C   0  0  0  0  0  0  0  0  0  0  0  0
  -25.4589  -19.3270   17.6880 C   0  0  0  0  0  0  0  0  0  0  0  0
  -20.8481  -28.9244   20.7030 C   0  0  1  0  0  0  0  0  0  0  0  0
  -19.7530  -28.6723   17.0826 C   0  0  2  0  0  0  0  0  0  0  0  0
  -19.8415  -28.6604   21.8582 C   0  0  0  0  0  0  0  0  0  0  0  0
  -23.6064  -12.9718   21.1391 N   0  0  0  0  0  0  0  0  0  0  0  0
  -24.5125  -13.9460   20.9496 N   0  0  0  0  0  0  0  0  0  0  0  0
  -27.2999  -23.0011   20.3576 N   0  0  0  0  0  0  0  0  0  0  0  0
  -23.0731  -29.9637   21.0079 N   0  0  0  0  0  0  0  0  0  0  0  0
  -23.2181  -17.4013   19.9526 N   0  0  0  0  0  0  0  0  0  0  0  0
  -26.7866  -14.3316   20.4108 N   0  0  0  0  0  0  0  0  0  0  0  0
  -26.4520   -9.8282   20.3557 N   0  0  0  0  0  0  0  0  0  0  0  0
  -24.2661  -32.1104   23.5961 N   0  0  0  0  0  0  0  0  0  0  0  0
  -20.2246  -29.1004   19.3958 N   0  0  0  0  0  0  0  0  0  0  0  0
  -24.7958  -18.2713   18.4205 N   0  0  0  0  0  0  0  0  0  0  0  0
  -20.5707  -28.4342   15.8597 N   0  3  0  0  0  0  0  0  0  0  0  0
  -27.8911  -11.5918   20.0782 O   0  0  0  0  0  0  0  0  0  0  0  0
  -24.2120  -29.7913   23.3923 O   0  0  0  0  0  0  0  0  0  0  0  0
  -21.1311  -31.2531   21.0549 O   0  0  0  0  0  0  0  0  0  0  0  0
  -21.3452  -27.3640   18.3439 O   0  0  0  0  0  0  0  0  0  0  0  0
  -23.3540  -19.6754   19.5188 O   0  0  0  0  0  0  0  0  0  0  0  0
  -21.8525   -6.8548   21.3755 O   0  0  0  0  0  0  0  0  0  0  0  0
  -27.8406  -26.1797   20.0048 O   0  0  0  0  0  0  0  0  0  1  0  0
  -24.5299   -2.9160   24.1541 F   0  0  0  0  0  0  0  0  0  0  0  0
  -20.7326   -5.6907   23.6189 F   0  0  0  0  0  0  0  0  0  0  0  0
  1  2  1  0  0  0  0
  1  5  2  0  0  0  0
  2  6  2  0  0  0  0
  3  8  2  0  0  0  0
  3 17  1  0  0  0  0
  4  9  1  0  0  0  0
  4 17  2  0  0  0  0
  5 19  1  0  0  0  0
  6 21  1  0  0  0  0
  7 10  2  0  0  0  0
  7 20  1  0  0  0  0
  8 27  1  0  0  0  0
  9 27  2  0  0  0  0
 10 28  1  0  0  0  0
 11 12  2  0  0  0  0
 11 29  1  0  0  0  0
 12 30  1  0  0  0  0
 13 22  1  0  0  0  0
 13 28  2  0  0  0  0
 14 23  2  0  0  0  0
 14 26  1  0  0  0  0
 15 24  1  0  0  0  0
 15 26  2  0  0  0  0
 16 30  2  0  0  0  0
 16 31  1  0  0  0  0
 17 32  1  0  0  0  0
 18 32  1  0  0  0  0
 18 33  2  0  0  0  0
 18 34  1  0  0  0  0
 19 21  2  0  0  0  0
 19 39  1  0  0  0  0
 20 22  2  0  0  0  0
 20 40  1  0  0  0  0
 21 50  1  0  0  0  0
 22 41  1  0  0  0  0
 23 25  1  0  0  0  0
 23 54  1  0  0  0  0
 24 25  2  0  0  0  0
 24 61  1  0  0  0  0
 25 55  1  0  0  0  0
 26 67  1  0  0  0  0
 27 81  1  0  0  0  0
 28 82  1  0  0  0  0
 29 31  2  0  0  0  0
 29 81  1  0  0  0  0
 30 83  1  0  0  0  0
 31 84  1  0  0  0  0
 32 65  2  0  0  0  0
 33 66  1  0  0  0  0
 33 70  1  0  0  0  0
 34 71  1  0  0  0  0
 34 76  2  0  0  0  0
 35 51  1  0  0  0  0
 35 72  1  0  0  0  0
 35 77  2  0  0  0  0
 36 62  1  0  0  0  0
 36 68  1  0  0  0  0
 36 78  2  0  0  0  0
 37 63  1  0  0  0  0
 37 73  1  0  0  0  0
 37 79  2  0  0  0  0
 38 69  1  0  0  0  0
 38 74  1  0  0  0  0
 38 80  2  0  0  0  0
 39 42  1  0  0  0  0
 40 51  1  0  0  0  0
 41 68  1  0  0  0  0
 42 44  1  0  0  0  0
 43 45  1  0  0  0  0
 43 46  1  0  0  0  0
 44 50  1  0  0  0  0
 45 52  1  0  0  0  0
 46 69  1  0  0  0  0
 47 52  1  0  0  0  0
 47 69  1  0  0  0  0
 48 53  1  0  0  0  0
 48 67  1  0  0  0  0
 49 53  1  0  0  0  0
 49 67  1  0  0  0  0
 50 72  1  0  0  0  0
 51 68  1  0  0  0  0
 52 66  1  0  0  0  0
 53 82  1  0  0  0  0
 56 63  1  0  0  0  0
 57 64  1  0  0  0  0
 58 64  1  0  0  0  0
 59 64  1  0  0  0  0
 60 75  1  0  0  0  0
 61 74  1  0  0  0  0
 62 64  1  0  0  0  0
 62 73  1  0  0  0  0
 63 75  1  0  0  0  0
 65 66  1  0  0  0  0
M  CHG  1  75   1
M  ISO  4  38 100  53 101  74 100  82 101
M  END
> <Batch ID>
0029

> <Smiles>
CNC(C)C(=O)NC(C(=O)N1Cc2cc([101O:1][101CH:1]3CN(c4cc(C)c(C)c(C[100NH:0][100C:0](=O)N5CCCC(n6nc(-c7ccc(Oc8ccc(F)cc8F)cc7)c(C(N)=O)c6N)C5)c4)C3)ccc2CC1C(=O)NC1CCCc2ccccc21)C(C)(C)C

> <Shape>
0.286

> <Color>
0.103

> <Negative vol penalty>
0.000

$$$$

  -OEChem-04042321343D

 85 94  0     1  0  0  0  0  0999 V2000
  -30.8092  -23.5778   25.9565 C   0  0  0  0  0  0  0  0  0  0  0  0
  -22.2158  -23.4874   19.4690 C   0  0  0  0  0  0  0  0  0  0  0  0
  -23.4324  -22.8730   19.7481 C   0  0  0  0  0  0  0  0  0  0  0  0
  -22.2742  -29.2534   21.5720 C   0  0  0  0  0  0  0  0  0  0  0  0
  -23.2359  -28.4368   23.6324 C   0  0  0  0  0  0  0  0  0  0  0  0
  -21.0246  -22.8923   19.8826 C   0  0  0  0  0  0  0  0  0  0  0  0
  -23.4586  -21.6637   20.4419 C   0  0  0  0  0  0  0  0  0  0  0  0
  -26.6397  -18.3079   18.3771 C   0  0  0  0  0  0  0  0  0  0  0  0
  -21.0004  -28.9261   22.0367 C   0  0  0  0  0  0  0  0  0  0  0  0
  -21.9621  -28.1095   24.0972 C   0  0  0  0  0  0  0  0  0  0  0  0
  -27.9993  -18.4771   18.6352 C   0  0  0  0  0  0  0  0  0  0  0  0
  -18.7078  -30.2336   24.1503 C   0  0  0  0  0  0  0  0  0  0  0  0
  -17.6923  -31.1735   23.9745 C   0  0  0  0  0  0  0  0  0  0  0  0
  -30.3512  -24.4953   23.7491 C   0  0  0  0  0  0  0  0  0  0  0  0
  -27.8838  -16.7671   20.3328 C   0  0  0  0  0  0  0  0  0  0  0  0
  -30.9619  -23.2871   21.7481 C   0  0  0  0  0  0  0  0  0  0  0  0
  -16.4467  -29.5804   22.6526 C   0  0  0  0  0  0  0  0  0  0  0  0
  -30.8687  -23.4624   24.5307 C   0  0  0  0  0  0  0  0  0  0  0  0
  -23.3919  -29.0087   22.3698 C   0  0  0  0  0  0  0  0  0  0  0  0
  -25.3866  -30.5680   22.0579 C   0  0  0  0  0  0  0  0  0  0  0  0
  -21.0357  -21.6703   20.5733 C   0  0  0  0  0  0  0  0  0  0  0  0
  -25.8883  -17.3731   19.1037 C   0  0  0  0  0  0  0  0  0  0  0  0
  -22.2665  -21.0525   20.8662 C   0  0  0  0  0  0  0  0  0  0  0  0
  -26.5154  -16.5861   20.0802 C   0  0  0  0  0  0  0  0  0  0  0  0
  -31.4795  -22.2542   22.5297 C   0  0  0  0  0  0  0  0  0  0  0  0
  -31.4329  -22.3419   23.9210 C   0  0  0  0  0  0  0  0  0  0  0  0
  -30.3977  -24.4076   22.3578 C   0  0  0  0  0  0  0  0  0  0  0  0
  -20.8444  -28.3541   23.2993 C   0  0  0  0  0  0  0  0  0  0  0  0
  -28.6210  -17.7087   19.6151 C   0  0  0  0  0  0  0  0  0  0  0  0
  -18.5928  -28.9671   23.5771 C   0  0  0  0  0  0  0  0  0  0  0  0
  -16.5617  -30.8469   23.2257 C   0  0  0  0  0  0  0  0  0  0  0  0
  -17.4622  -28.6405   22.8283 C   0  0  0  0  0  0  0  0  0  0  0  0
  -24.7080  -29.3461   21.8901 C   0  0  0  0  0  0  0  0  0  0  0  0
  -26.5905  -30.3821   21.4233 C   0  0  0  0  0  0  0  0  0  0  0  0
  -24.9664  -31.7641   22.7275 C   0  0  0  0  0  0  0  0  0  0  0  0
  -23.3931  -17.5391   21.0658 C   0  0  0  0  0  0  0  0  0  0  0  0
  -23.5680  -14.3027   20.9331 C   0  0  0  0  0  0  0  0  0  0  0  0
  -25.4682  -11.5247   20.3687 C   0  0  0  0  0  0  0  0  0  0  0  0
  -29.8376  -25.5250   20.1705 C   0  0  0  0  0  0  0  0  0  0  0  0
  -19.7251  -21.0891   21.0415 C   0  0  0  0  0  0  0  0  0  0  0  0
  -24.4285  -17.1838   18.7948 C   0  0  0  0  0  0  0  0  0  0  0  0
  -25.7577  -15.5546   20.8741 C   0  0  0  0  0  0  0  0  0  0  0  0
  -19.8194  -19.6195   21.4435 C   0  0  0  0  0  0  0  0  0  0  0  0
  -28.5940  -27.9139   17.8417 C   0  0  0  0  0  0  0  0  0  0  0  0
  -21.0355  -19.3868   22.3345 C   0  0  0  0  0  0  0  0  0  0  0  0
  -27.5223  -28.6675   18.6327 C   0  0  0  0  0  0  0  0  0  0  0  0
  -28.6239  -26.4291   18.1996 C   0  0  0  0  0  0  0  0  0  0  0  0
  -27.6738  -26.8921   20.4249 C   0  0  0  0  0  0  0  0  0  0  0  0
  -30.0494  -19.7187   21.5951 C   0  0  0  0  0  0  0  0  0  0  0  0
  -31.8422  -18.6801   21.3310 C   0  0  0  0  0  0  0  0  0  0  0  0
  -22.3347  -19.7279   21.5949 C   0  0  1  0  0  0  0  0  0  0  0  0
  -23.6485  -16.5650   19.9507 C   0  0  1  0  0  0  0  0  0  0  0  0
  -27.6491  -28.4038   20.1460 C   0  0  2  0  0  0  0  0  0  0  0  0
  -30.3664  -18.2696   21.1851 C   0  0  0  0  0  0  0  0  0  1  0  0
  -31.9907  -21.2251   24.7484 C   0  0  0  0  0  0  0  0  0  0  0  0
  -25.3434   -9.0183   20.3735 C   0  0  0  0  0  0  0  0  0  0  0  0
  -23.6488  -14.3069   23.9832 C   0  0  0  0  0  0  0  0  0  0  0  0
  -24.4674  -11.9424   23.8954 C   0  0  0  0  0  0  0  0  0  0  0  0
  -22.2191  -12.5170   22.9800 C   0  0  0  0  0  0  0  0  0  0  0  0
  -26.1489  -11.3695   17.4927 C   0  0  0  0  0  0  0  0  0  0  0  0
  -32.0801  -21.0601   21.8482 C   0  0  0  0  0  0  0  0  0  0  0  0
  -24.2905  -13.2378   21.7224 C   0  0  1  0  0  0  0  0  0  0  0  0
  -25.2122  -10.2812   19.5364 C   0  0  2  0  0  0  0  0  0  0  0  0
  -23.6706  -13.0217   23.1318 C   0  0  0  0  0  0  0  0  0  0  0  0
  -30.7610  -23.6715   27.1122 N   0  0  0  0  0  0  0  0  0  0  0  0
  -25.4214  -28.4502   21.2027 N   0  0  0  0  0  0  0  0  0  0  0  0
  -26.5608  -29.1099   20.9328 N   0  0  0  0  0  0  0  0  0  0  0  0
  -24.3311  -15.4111   20.5396 N   0  0  0  0  0  0  0  0  0  0  0  0
  -28.7499  -26.2565   19.6484 N   0  0  0  0  0  0  0  0  0  0  0  0
  -27.6609  -31.1846   21.2426 N   0  0  0  0  0  0  0  0  0  0  0  0
  -23.6993  -31.7847   23.3261 N   0  0  0  0  0  0  0  0  0  0  0  0
  -29.8704  -25.4554   21.5629 N   0  0  0  0  0  0  0  0  0  0  0  0
  -22.6896  -18.6641   20.6800 N   0  0  0  0  0  0  0  0  0  0  0  0
  -24.2994  -12.0438   20.8841 N   0  0  0  0  0  0  0  0  0  0  0  0
  -31.3967  -19.7933   22.1895 N   0  3  0  0  0  0  0  0  0  0  0  0
  -26.1854  -10.2020   18.4106 N   0  3  0  0  0  0  0  0  0  0  0  0
  -25.6864  -32.7900   22.7789 O   0  0  0  0  0  0  0  0  0  0  0  0
  -23.8025  -17.2878   22.1932 O   0  0  0  0  0  0  0  0  0  0  0  0
  -22.3724  -14.1531   20.6691 O   0  0  0  0  0  0  0  0  0  0  0  0
  -26.5930  -11.9869   20.5471 O   0  0  0  0  0  0  0  0  0  0  0  0
  -30.6930  -25.0221   19.4375 O   0  0  0  0  0  0  0  0  0  0  0  0
  -19.6016  -28.0348   23.7532 O   0  0  0  0  0  0  0  0  0  0  0  0
  -29.9478  -17.8723   19.8695 O   0  0  0  0  0  0  0  0  0  1  0  0
  -15.5859  -31.7491   23.0582 F   0  0  0  0  0  0  0  0  0  0  0  0
  -17.3456  -27.4250   22.2763 F   0  0  0  0  0  0  0  0  0  0  0  0
  1 18  1  0  0  0  0
  1 65  3  0  0  0  0
  2  3  1  0  0  0  0
  2  6  2  0  0  0  0
  3  7  2  0  0  0  0
  4  9  2  0  0  0  0
  4 19  1  0  0  0  0
  5 10  1  0  0  0  0
  5 19  2  0  0  0  0
  6 21  1  0  0  0  0
  7 23  1  0  0  0  0
  8 11  2  0  0  0  0
  8 22  1  0  0  0  0
  9 28  1  0  0  0  0
 10 28  2  0  0  0  0
 11 29  1  0  0  0  0
 12 13  2  0  0  0  0
 12 30  1  0  0  0  0
 13 31  1  0  0  0  0
 14 18  2  0  0  0  0
 14 27  1  0  0  0  0
 15 24  1  0  0  0  0
 15 29  2  0  0  0  0
 16 25  1  0  0  0  0
 16 27  2  0  0  0  0
 17 31  2  0  0  0  0
 17 32  1  0  0  0  0
 18 26  1  0  0  0  0
 19 33  1  0  0  0  0
 20 33  1  0  0  0  0
 20 34  2  0  0  0  0
 20 35  1  0  0  0  0
 21 23  2  0  0  0  0
 21 40  1  0  0  0  0
 22 24  2  0  0  0  0
 22 41  1  0  0  0  0
 23 51  1  0  0  0  0
 24 42  1  0  0  0  0
 25 26  2  0  0  0  0
 25 61  1  0  0  0  0
 26 55  1  0  0  0  0
 27 72  1  0  0  0  0
 28 82  1  0  0  0  0
 29 83  1  0  0  0  0
 30 32  2  0  0  0  0
 30 82  1  0  0  0  0
 31 84  1  0  0  0  0
 32 85  1  0  0  0  0
 33 66  2  0  0  0  0
 34 67  1  0  0  0  0
 34 70  1  0  0  0  0
 35 71  1  0  0  0  0
 35 77  2  0  0  0  0
 36 52  1  0  0  0  0
 36 73  1  0  0  0  0
 36 78  2  0  0  0  0
 37 62  1  0  0  0  0
 37 68  1  0  0  0  0
 37 79  2  0  0  0  0
 38 63  1  0  0  0  0
 38 74  1  0  0  0  0
 38 80  2  0  0  0  0
 39 69  1  0  0  0  0
 39 72  1  0  0  0  0
 39 81  2  0  0  0  0
 40 43  1  0  0  0  0
 41 52  1  0  0  0  0
 42 68  1  0  0  0  0
 43 45  1  0  0  0  0
 44 46  1  0  0  0  0
 44 47  1  0  0  0  0
 45 51  1  0  0  0  0
 46 53  1  0  0  0  0
 47 69  1  0  0  0  0
 48 53  1  0  0  0  0
 48 69  1  0  0  0  0
 49 54  1  0  0  0  0
 49 75  1  0  0  0  0
 50 54  1  0  0  0  0
 50 75  1  0  0  0  0
 51 73  1  0  0  0  0
 52 68  1  0  0  0  0
 53 67  1  0  0  0  0
 54 83  1  0  0  0  0
 56 63  1  0  0  0  0
 57 64  1  0  0  0  0
 58 64  1  0  0  0  0
 59 64  1  0  0  0  0
 60 76  1  0  0  0  0
 61 75  1  0  0  0  0
 62 64  1  0  0  0  0
 62 74  1  0  0  0  0
 63 76  1  0  0  0  0
 66 67  1  0  0  0  0
M  CHG  2  75   1  76   1
M  ISO  4  39 100  54 101  72 100  83 101
M  END
> <Batch ID>
0029

> <Smiles>
CNC(C)C(=O)NC(C(=O)N1Cc2cc([101O:1][101CH:1]3CN(Cc4cc([100NH:0][100C:0](=O)N5CCCC(n6nc(-c7ccc(Oc8ccc(F)cc8F)cc7)c(C(N)=O)c6N)C5)cc(C#N)c4C)C3)ccc2CC1C(=O)NC1CCCc2ccccc21)C(C)(C)C

> <Shape>
0.238

> <Color>
0.076

> <Negative vol penalty>
0.000

$$$$

  -OEChem-04042321343D

 85 94  0     1  0  0  0  0  0999 V2000
  -16.9658  -29.8999   23.3943 C   0  0  0  0  0  0  0  0  0  0  0  0
  -18.1824  -30.5652   23.2821 C   0  0  0  0  0  0  0  0  0  0  0  0
  -26.0947  -13.2752   21.7196 C   0  0  0  0  0  0  0  0  0  0  0  0
  -25.2975  -13.9158   19.5307 C   0  0  0  0  0  0  0  0  0  0  0  0
  -16.9264  -28.5073   23.3391 C   0  0  0  0  0  0  0  0  0  0  0  0
  -19.3606  -29.8381   23.1157 C   0  0  0  0  0  0  0  0  0  0  0  0
  -25.7657  -30.2386   19.9329 C   0  0  0  0  0  0  0  0  0  0  0  0
  -25.2913  -12.1357   21.6787 C   0  0  0  0  0  0  0  0  0  0  0  0
  -24.4941  -12.7762   19.4898 C   0  0  0  0  0  0  0  0  0  0  0  0
  -27.1231  -30.1102   20.2241 C   0  0  0  0  0  0  0  0  0  0  0  0
  -25.3856   -9.0712   20.2530 C   0  0  0  0  0  0  0  0  0  0  0  0
  -25.9542   -7.8624   20.6545 C   0  0  0  0  0  0  0  0  0  0  0  0
  -26.9246  -27.7114   20.0635 C   0  0  0  0  0  0  0  0  0  0  0  0
  -29.8471  -23.7319   19.9031 C   0  0  0  0  0  0  0  0  0  0  0  0
  -31.4483  -22.9754   17.7475 C   0  0  0  0  0  0  0  0  0  0  0  0
  -24.2934   -7.6600   22.3974 C   0  0  0  0  0  0  0  0  0  0  0  0
  -26.0978  -14.1653   20.6455 C   0  0  0  0  0  0  0  0  0  0  0  0
  -28.2558  -15.4632   20.2385 C   0  0  0  0  0  0  0  0  0  0  0  0
  -18.1035  -27.7632   23.1623 C   0  0  0  0  0  0  0  0  0  0  0  0
  -24.9739  -29.1019   19.7151 C   0  0  0  0  0  0  0  0  0  0  0  0
  -19.3371  -28.4342   23.0594 C   0  0  0  0  0  0  0  0  0  0  0  0
  -25.5580  -27.8282   19.7671 C   0  0  0  0  0  0  0  0  0  0  0  0
  -31.0185  -24.4356   19.6237 C   0  0  0  0  0  0  0  0  0  0  0  0
  -30.2769  -22.2716   18.0270 C   0  0  0  0  0  0  0  0  0  0  0  0
  -29.4763  -22.6498   19.1048 C   0  0  0  0  0  0  0  0  0  0  0  0
  -24.4910  -11.8862   20.5638 C   0  0  0  0  0  0  0  0  0  0  0  0
  -27.7021  -28.8464   20.2923 C   0  0  0  0  0  0  0  0  0  0  0  0
  -24.2709   -9.5744   20.9238 C   0  0  0  0  0  0  0  0  0  0  0  0
  -25.4081   -7.1568   21.7266 C   0  0  0  0  0  0  0  0  0  0  0  0
  -23.7248   -8.8688   21.9959 C   0  0  0  0  0  0  0  0  0  0  0  0
  -31.8191  -24.0574   18.5459 C   0  0  0  0  0  0  0  0  0  0  0  0
  -26.9270  -15.3429   20.6874 C   0  0  0  0  0  0  0  0  0  0  0  0
  -28.5891  -16.7700   20.4986 C   0  0  0  0  0  0  0  0  0  0  0  0
  -29.1123  -14.4815   19.6397 C   0  0  0  0  0  0  0  0  0  0  0  0
  -22.4401  -27.8252   21.1480 C   0  0  0  0  0  0  0  0  0  0  0  0
  -22.5335  -25.7813   18.6308 C   0  0  0  0  0  0  0  0  0  0  0  0
  -25.0667  -24.0131   16.7671 C   0  0  0  0  0  0  0  0  0  0  0  0
  -27.3884  -22.2068   20.4429 C   0  0  0  0  0  0  0  0  0  0  0  0
  -18.0165  -26.2575   23.1561 C   0  0  0  0  0  0  0  0  0  0  0  0
  -23.5170  -29.2586   19.3755 C   0  0  0  0  0  0  0  0  0  0  0  0
  -24.7558  -26.5774   19.5212 C   0  0  0  0  0  0  0  0  0  0  0  0
  -19.2659  -25.5775   22.6020 C   0  0  0  0  0  0  0  0  0  0  0  0
  -26.1818  -20.3078   23.2025 C   0  0  0  0  0  0  0  0  0  0  0  0
  -20.5225  -26.1940   23.2082 C   0  0  0  0  0  0  0  0  0  0  0  0
  -26.3774  -18.8567   22.7572 C   0  0  0  0  0  0  0  0  0  0  0  0
  -31.2800  -29.2465   19.9258 C   0  0  0  0  0  0  0  0  0  0  0  0
  -25.7674  -21.2070   22.0391 C   0  0  0  0  0  0  0  0  0  0  0  0
  -26.8405  -19.6938   20.4180 C   0  0  0  0  0  0  0  0  0  0  0  0
  -31.8985  -28.0544   20.6278 C   0  0  0  0  0  0  0  0  0  0  0  0
  -30.2077  -27.2865   19.0306 C   0  0  0  0  0  0  0  0  0  0  0  0
  -20.6337  -27.6816   22.8531 C   0  0  1  0  0  0  0  0  0  0  0  0
  -22.6952  -28.0096   19.6788 C   0  0  1  0  0  0  0  0  0  0  0  0
  -27.3215  -18.7623   21.5425 C   0  0  2  0  0  0  0  0  0  0  0  0
  -29.9309  -28.7148   19.4733 C   0  0  1  0  0  0  0  0  0  1  0  0
  -29.9044  -21.1163   17.1551 C   0  0  0  0  0  0  0  0  0  0  0  0
  -25.0763  -23.2001   14.3930 C   0  0  0  0  0  0  0  0  0  0  0  0
  -21.5462  -23.1555   19.8311 C   0  0  0  0  0  0  0  0  0  0  0  0
  -22.9850  -21.9409   18.1810 C   0  0  0  0  0  0  0  0  0  0  0  0
  -21.1301  -23.4026   17.3775 C   0  0  0  0  0  0  0  0  0  0  0  0
  -27.5690  -25.4704   16.1559 C   0  0  0  0  0  0  0  0  0  0  0  0
  -31.3825  -25.5931   20.5062 C   0  0  0  0  0  0  0  0  0  0  0  0
  -23.2099  -24.4612   18.3501 C   0  0  1  0  0  0  0  0  0  0  0  0
  -25.5162  -24.3006   15.3459 C   0  0  2  0  0  0  0  0  0  0  0  0
  -22.2292  -23.2591   18.4528 C   0  0  0  0  0  0  0  0  0  0  0  0
  -26.4489  -16.4823   21.1944 N   0  0  0  0  0  0  0  0  0  0  0  0
  -27.4829  -17.3310   21.0657 N   0  0  0  0  0  0  0  0  0  0  0  0
  -23.3340  -26.7824   19.1990 N   0  0  0  0  0  0  0  0  0  0  0  0
  -26.7099  -21.0682   20.9268 N   0  0  0  0  0  0  0  0  0  0  0  0
  -29.7176  -17.4825   20.2953 N   0  0  0  0  0  0  0  0  0  0  0  0
  -28.6110  -13.1874   19.4444 N   0  0  0  0  0  0  0  0  0  0  0  0
  -28.2831  -21.9471   19.4053 N   0  0  0  0  0  0  0  0  0  0  0  0
  -21.1022  -27.8430   21.4933 N   0  0  0  0  0  0  0  0  0  0  0  0
  -23.8507  -24.5999   17.0468 N   0  0  0  0  0  0  0  0  0  0  0  0
  -31.4798  -26.8874   19.7644 N   0  3  2  0  0  0  0  0  0  0  0  0
  -27.0012  -24.4098   15.2844 N   0  3  0  0  0  0  0  0  0  0  0  0
  -30.2929  -14.7398   19.3034 O   0  0  0  0  0  0  0  0  0  0  0  0
  -23.3869  -27.6762   21.9116 O   0  0  0  0  0  0  0  0  0  0  0  0
  -21.3406  -25.9215   18.3495 O   0  0  0  0  0  0  0  0  0  0  0  0
  -25.7264  -23.3326   17.5495 O   0  0  0  0  0  0  0  0  0  0  0  0
  -27.2104  -23.3251   20.9324 O   0  0  0  0  0  0  0  0  0  0  0  0
  -23.7071  -10.7742   20.5235 O   0  0  0  0  0  0  0  0  0  0  0  0
  -29.0266  -28.7182   20.5771 O   0  0  0  0  0  0  0  0  0  1  0  0
  -25.9533   -5.9953   22.1110 F   0  0  0  0  0  0  0  0  0  0  0  0
  -22.6533   -9.3467   22.6434 F   0  0  0  0  0  0  0  0  0  0  0  0
  -33.2755  -24.9044   18.1703 Cl  0  0  0  0  0  0  0  0  0  0  0  0
  1  2  1  0  0  0  0
  1  5  2  0  0  0  0
  2  6  2  0  0  0  0
  3  8  2  0  0  0  0
  3 17  1  0  0  0  0
  4  9  1  0  0  0  0
  4 17  2  0  0  0  0
  5 19  1  0  0  0  0
  6 21  1  0  0  0  0
  7 10  2  0  0  0  0
  7 20  1  0  0  0  0
  8 26  1  0  0  0  0
  9 26  2  0  0  0  0
 10 27  1  0  0  0  0
 11 12  2  0  0  0  0
 11 28  1  0  0  0  0
 12 29  1  0  0  0  0
 13 22  1  0  0  0  0
 13 27  2  0  0  0  0
 14 23  1  0  0  0  0
 14 25  2  0  0  0  0
 15 24  2  0  0  0  0
 15 31  1  0  0  0  0
 16 29  2  0  0  0  0
 16 30  1  0  0  0  0
 17 32  1  0  0  0  0
 18 32  1  0  0  0  0
 18 33  2  0  0  0  0
 18 34  1  0  0  0  0
 19 21  2  0  0  0  0
 19 39  1  0  0  0  0
 20 22  2  0  0  0  0
 20 40  1  0  0  0  0
 21 51  1  0  0  0  0
 22 41  1  0  0  0  0
 23 31  2  0  0  0  0
 23 61  1  0  0  0  0
 24 25  1  0  0  0  0
 24 55  1  0  0  0  0
 25 71  1  0  0  0  0
 26 81  1  0  0  0  0
 27 82  1  0  0  0  0
 28 30  2  0  0  0  0
 28 81  1  0  0  0  0
 29 83  1  0  0  0  0
 30 84  1  0  0  0  0
 31 85  1  0  0  0  0
 32 65  2  0  0  0  0
 33 66  1  0  0  0  0
 33 69  1  0  0  0  0
 34 70  1  0  0  0  0
 34 76  2  0  0  0  0
 35 52  1  0  0  0  0
 35 72  1  0  0  0  0
 35 77  2  0  0  0  0
 36 62  1  0  0  0  0
 36 67  1  0  0  0  0
 36 78  2  0  0  0  0
 37 63  1  0  0  0  0
 37 73  1  0  0  0  0
 37 79  2  0  0  0  0
 38 68  1  0  0  0  0
 38 71  1  0  0  0  0
 38 80  2  0  0  0  0
 39 42  1  0  0  0  0
 40 52  1  0  0  0  0
 41 67  1  0  0  0  0
 42 44  1  0  0  0  0
 43 45  1  0  0  0  0
 43 47  1  0  0  0  0
 44 51  1  0  0  0  0
 45 53  1  0  0  0  0
 46 49  1  0  0  0  0
 46 54  1  0  0  0  0
 47 68  1  0  0  0  0
 48 53  1  0  0  0  0
 48 68  1  0  0  0  0
 49 74  1  0  0  0  0
 50 54  1  0  0  0  0
 50 74  1  0  0  0  0
 51 72  1  0  0  0  0
 52 67  1  0  0  0  0
 53 66  1  0  0  0  0
 54 82  1  0  0  0  0
 56 63  1  0  0  0  0
 57 64  1  0  0  0  0
 58 64  1  0  0  0  0
 59 64  1  0  0  0  0
 60 75  1  0  0  0  0
 61 74  1  0  0  0  0
 62 64  1  0  0  0  0
 62 73  1  0  0  0  0
 63 75  1  0  0  0  0
 65 66  1  0  0  0  0
M  CHG  2  74   1  75   1
M  ISO  4  38 100  54 101  71 100  82 101
M  END
> <Batch ID>
0029

> <Smiles>
CNC(C)C(=O)NC(C(=O)N1Cc2cc([101O:1][101CH:1]3CCN(Cc4cc([100NH:0][100C:0](=O)N5CCCC(n6nc(-c7ccc(Oc8ccc(F)cc8F)cc7)c(C(N)=O)c6N)C5)c(C)cc4Cl)C3)ccc2CC1C(=O)NC1CCCc2ccccc21)C(C)(C)C

> <Shape>
0.271

> <Color>
0.067

> <Negative vol penalty>
0.000

$$$$

  -OEChem-04042321343D

 86 95  0     1  0  0  0  0  0999 V2000
  -14.8624  -28.1797   22.5656 C   0  0  0  0  0  0  0  0  0  0  0  0
  -15.5108  -28.1540   21.3350 C   0  0  0  0  0  0  0  0  0  0  0  0
  -24.9985  -13.6764   19.9468 C   0  0  0  0  0  0  0  0  0  0  0  0
  -24.4842  -14.6792   22.0839 C   0  0  0  0  0  0  0  0  0  0  0  0
  -15.4950  -28.7410   23.6740 C   0  0  0  0  0  0  0  0  0  0  0  0
  -16.7920  -28.6905   21.2120 C   0  0  0  0  0  0  0  0  0  0  0  0
  -22.3079  -24.6405   18.9615 C   0  0  0  0  0  0  0  0  0  0  0  0
  -30.2340  -22.0518   18.3325 C   0  0  0  0  0  0  0  0  0  0  0  0
  -24.0995  -12.6442   20.2148 C   0  0  0  0  0  0  0  0  0  0  0  0
  -23.5851  -13.6470   22.3519 C   0  0  0  0  0  0  0  0  0  0  0  0
  -23.3707  -23.9871   18.3374 C   0  0  0  0  0  0  0  0  0  0  0  0
  -24.0450   -9.8005   22.0409 C   0  0  0  0  0  0  0  0  0  0  0  0
  -31.5766  -21.9855   18.7047 C   0  0  0  0  0  0  0  0  0  0  0  0
  -24.4557   -8.4964   21.7648 C   0  0  0  0  0  0  0  0  0  0  0  0
  -24.7835  -25.9159   18.7000 C   0  0  0  0  0  0  0  0  0  0  0  0
  -22.6188   -8.2460   20.2155 C   0  0  0  0  0  0  0  0  0  0  0  0
  -25.1909  -14.6939   20.8814 C   0  0  0  0  0  0  0  0  0  0  0  0
  -25.8444  -16.9834   19.9654 C   0  0  0  0  0  0  0  0  0  0  0  0
  -16.7884  -29.2759   23.5668 C   0  0  0  0  0  0  0  0  0  0  0  0
  -22.4836  -25.9299   19.4716 C   0  0  0  0  0  0  0  0  0  0  0  0
  -17.4421  -29.2606   22.3198 C   0  0  0  0  0  0  0  0  0  0  0  0
  -23.7262  -26.5706   19.3373 C   0  0  0  0  0  0  0  0  0  0  0  0
  -30.9244  -21.7954   21.0232 C   0  0  0  0  0  0  0  0  0  0  0  0
  -29.2365  -21.9899   19.3056 C   0  0  0  0  0  0  0  0  0  0  0  0
  -23.3928  -12.6295   21.4173 C   0  0  0  0  0  0  0  0  0  0  0  0
  -24.6054  -24.6233   18.2067 C   0  0  0  0  0  0  0  0  0  0  0  0
  -22.9212  -10.3274   21.4044 C   0  0  0  0  0  0  0  0  0  0  0  0
  -23.7426   -7.7191   20.8521 C   0  0  0  0  0  0  0  0  0  0  0  0
  -31.9218  -21.8573   20.0501 C   0  0  0  0  0  0  0  0  0  0  0  0
  -22.2081   -9.5501   20.4917 C   0  0  0  0  0  0  0  0  0  0  0  0
  -29.5818  -21.8617   20.6510 C   0  0  0  0  0  0  0  0  0  0  0  0
  -26.1199  -15.7602   20.6054 C   0  0  0  0  0  0  0  0  0  0  0  0
  -27.0500  -17.6410   19.9479 C   0  0  0  0  0  0  0  0  0  0  0  0
  -24.6089  -17.4807   19.4342 C   0  0  0  0  0  0  0  0  0  0  0  0
  -20.9607  -28.8494   21.2697 C   0  0  0  0  0  0  0  0  0  0  0  0
  -23.8137  -28.5271   22.3500 C   0  0  0  0  0  0  0  0  0  0  0  0
  -26.8533  -27.5748   23.5712 C   0  0  0  0  0  0  0  0  0  0  0  0
  -31.7549  -19.2319   22.3020 C   0  0  0  0  0  0  0  0  0  0  0  0
  -17.4129  -29.9145   24.7820 C   0  0  0  0  0  0  0  0  0  0  0  0
  -21.3491  -26.6953   20.0968 C   0  0  0  0  0  0  0  0  0  0  0  0
  -23.8591  -27.9711   19.8703 C   0  0  0  0  0  0  0  0  0  0  0  0
  -18.9195  -30.1243   24.6534 C   0  0  0  0  0  0  0  0  0  0  0  0
  -31.7139  -16.0175   21.0012 C   0  0  0  0  0  0  0  0  0  0  0  0
  -19.2593  -30.7385   23.2991 C   0  0  0  0  0  0  0  0  0  0  0  0
  -30.2343  -15.7506   20.7279 C   0  0  0  0  0  0  0  0  0  0  0  0
  -31.8986  -16.7610   22.3187 C   0  0  0  0  0  0  0  0  0  0  0  0
  -29.6639  -17.8038   22.1191 C   0  0  0  0  0  0  0  0  0  0  0  0
  -27.4274  -22.1872   17.5681 C   0  0  0  0  0  0  0  0  0  0  0  0
  -26.8718  -22.8285   19.4937 C   0  0  0  0  0  0  0  0  0  0  0  0
  -18.8420  -29.8102   22.1521 C   0  0  1  0  0  0  0  0  0  0  0  0
  -21.8002  -27.6059   21.2529 C   0  0  1  0  0  0  0  0  0  0  0  0
  -29.4178  -17.0531   20.7943 C   0  0  2  0  0  0  0  0  0  0  0  0
  -26.1194  -22.7323   18.1587 C   0  0  0  0  0  0  0  0  0  1  0  0
  -31.5131  -20.5275   25.3815 C   0  0  0  0  0  0  0  0  0  0  0  0
  -28.5818  -28.2180   25.2729 C   0  0  0  0  0  0  0  0  0  0  0  0
  -24.7307  -30.8119   20.5494 C   0  0  0  0  0  0  0  0  0  0  0  0
  -26.9267  -30.7837   21.7516 C   0  0  0  0  0  0  0  0  0  0  0  0
  -24.8308  -31.3087   22.9984 C   0  0  0  0  0  0  0  0  0  0  0  0
  -26.5741  -24.9977   24.9995 C   0  0  0  0  0  0  0  0  0  0  0  0
  -31.3381  -21.6570   22.4534 C   0  0  0  0  0  0  0  0  0  0  0  0
  -30.5202  -20.2149   24.2804 C   0  0  0  0  0  0  0  0  0  0  0  0
  -25.2611  -28.9351   22.2413 C   0  0  1  0  0  0  0  0  0  0  0  0
  -27.3499  -27.3719   24.9913 C   0  0  2  0  0  0  0  0  0  0  0  0
  -25.4275  -30.4364   21.8724 C   0  0  0  0  0  0  0  0  0  0  0  0
  -27.4002  -15.6450   20.9681 N   0  0  0  0  0  0  0  0  0  0  0  0
  -27.9399  -16.8042   20.5546 N   0  0  0  0  0  0  0  0  0  0  0  0
  -27.9084  -22.0579   18.8997 N   0  0  0  0  0  0  0  0  0  0  0  0
  -23.1939  -28.0760   21.1784 N   0  0  0  0  0  0  0  0  0  0  0  0
  -31.1049  -17.9898   22.3491 N   0  0  0  0  0  0  0  0  0  0  0  0
  -27.4253  -18.8476   19.4728 N   0  0  0  0  0  0  0  0  0  0  0  0
  -23.4659  -16.6760   19.5359 N   0  0  0  0  0  0  0  0  0  0  0  0
  -19.7952  -28.7316   22.0026 N   0  0  0  0  0  0  0  0  0  0  0  0
  -25.8878  -28.5569   23.5032 N   0  0  0  0  0  0  0  0  0  0  0  0
  -31.1342  -20.3062   22.9570 N   0  0  0  0  0  0  0  0  0  0  0  0
  -27.7005  -25.9413   25.2180 N   0  3  0  0  0  0  0  0  0  0  0  0
  -24.5248  -18.5984   18.8711 O   0  0  0  0  0  0  0  0  0  0  0  0
  -21.3421  -29.8440   20.6639 O   0  0  0  0  0  0  0  0  0  0  0  0
  -23.2440  -28.6104   23.4417 O   0  0  0  0  0  0  0  0  0  0  0  0
  -27.2818  -26.9293   22.6171 O   0  0  0  0  0  0  0  0  0  0  0  0
  -32.8348  -19.3731   21.7136 O   0  0  0  0  0  0  0  0  0  0  0  0
  -22.5152  -11.6225   21.6790 O   0  0  0  0  0  0  0  0  0  0  0  0
  -25.6400  -23.9779   17.6003 O   0  0  0  0  0  0  0  0  0  1  0  0
  -24.1380   -6.4674   20.5858 F   0  0  0  0  0  0  0  0  0  0  0  0
  -33.2155  -21.7938   20.3957 F   0  0  0  0  0  0  0  0  0  0  0  0
  -21.1284  -10.0512   19.8761 F   0  0  0  0  0  0  0  0  0  0  0  0
  -28.3450  -21.7846   21.8632 Cl  0  0  0  0  0  0  0  0  0  0  0  0
  1  2  1  0  0  0  0
  1  5  2  0  0  0  0
  2  6  2  0  0  0  0
  3  9  2  0  0  0  0
  3 17  1  0  0  0  0
  4 10  1  0  0  0  0
  4 17  2  0  0  0  0
  5 19  1  0  0  0  0
  6 21  1  0  0  0  0
  7 11  2  0  0  0  0
  7 20  1  0  0  0  0
  8 13  1  0  0  0  0
  8 24  2  0  0  0  0
  9 25  1  0  0  0  0
 10 25  2  0  0  0  0
 11 26  1  0  0  0  0
 12 14  2  0  0  0  0
 12 27  1  0  0  0  0
 13 29  2  0  0  0  0
 14 28  1  0  0  0  0
 15 22  1  0  0  0  0
 15 26  2  0  0  0  0
 16 28  2  0  0  0  0
 16 30  1  0  0  0  0
 17 32  1  0  0  0  0
 18 32  1  0  0  0  0
 18 33  2  0  0  0  0
 18 34  1  0  0  0  0
 19 21  2  0  0  0  0
 19 39  1  0  0  0  0
 20 22  2  0  0  0  0
 20 40  1  0  0  0  0
 21 50  1  0  0  0  0
 22 41  1  0  0  0  0
 23 29  1  0  0  0  0
 23 31  2  0  0  0  0
 23 60  1  0  0  0  0
 24 31  1  0  0  0  0
 24 67  1  0  0  0  0
 25 81  1  0  0  0  0
 26 82  1  0  0  0  0
 27 30  2  0  0  0  0
 27 81  1  0  0  0  0
 28 83  1  0  0  0  0
 29 84  1  0  0  0  0
 30 85  1  0  0  0  0
 31 86  1  0  0  0  0
 32 65  2  0  0  0  0
 33 66  1  0  0  0  0
 33 70  1  0  0  0  0
 34 71  1  0  0  0  0
 34 76  2  0  0  0  0
 35 51  1  0  0  0  0
 35 72  1  0  0  0  0
 35 77  2  0  0  0  0
 36 62  1  0  0  0  0
 36 68  1  0  0  0  0
 36 78  2  0  0  0  0
 37 63  1  0  0  0  0
 37 73  1  0  0  0  0
 37 79  2  0  0  0  0
 38 69  1  0  0  0  0
 38 74  1  0  0  0  0
 38 80  2  0  0  0  0
 39 42  1  0  0  0  0
 40 51  1  0  0  0  0
 41 68  1  0  0  0  0
 42 44  1  0  0  0  0
 43 45  1  0  0  0  0
 43 46  1  0  0  0  0
 44 50  1  0  0  0  0
 45 52  1  0  0  0  0
 46 69  1  0  0  0  0
 47 52  1  0  0  0  0
 47 69  1  0  0  0  0
 48 53  1  0  0  0  0
 48 67  1  0  0  0  0
 49 53  1  0  0  0  0
 49 67  1  0  0  0  0
 50 72  1  0  0  0  0
 51 68  1  0  0  0  0
 52 66  1  0  0  0  0
 53 82  1  0  0  0  0
 54 61  1  0  0  0  0
 55 63  1  0  0  0  0
 56 64  1  0  0  0  0
 57 64  1  0  0  0  0
 58 64  1  0  0  0  0
 59 75  1  0  0  0  0
 60 74  1  0  0  0  0
 61 74  1  0  0  0  0
 62 64  1  0  0  0  0
 62 73  1  0  0  0  0
 63 75  1  0  0  0  0
 65 66  1  0  0  0  0
M  CHG  1  75   1
M  ISO  4  38 100  53 101  74 100  82 101
M  END
> <Batch ID>
0029

> <Smiles>
CC[100N:0](Cc1c(F)ccc(N2C[101CH:1]([101O:1]c3ccc4c(c3)CN(C(=O)C(NC(=O)C(C)NC)C(C)(C)C)C(C(=O)NC3CCCc5ccccc53)C4)C2)c1Cl)[100C:0](=O)N1CCCC(n2nc(-c3ccc(Oc4ccc(F)cc4F)cc3)c(C(N)=O)c2N)C1

> <Shape>
0.244

> <Color>
0.054

> <Negative vol penalty>
0.000

$$$$

  -OEChem-04042321343D

 87 96  0     1  0  0  0  0  0999 V2000
  -34.7742  -14.9022   21.9394 C   0  0  0  0  0  0  0  0  0  0  0  0
  -34.3585  -15.7972   20.9588 C   0  0  0  0  0  0  0  0  0  0  0  0
  -20.7205  -26.9474   22.1968 C   0  0  0  0  0  0  0  0  0  0  0  0
  -21.0932  -27.3730   24.5456 C   0  0  0  0  0  0  0  0  0  0  0  0
  -34.0361  -13.7446   22.1830 C   0  0  0  0  0  0  0  0  0  0  0  0
  -33.2051  -15.5346   20.2204 C   0  0  0  0  0  0  0  0  0  0  0  0
  -27.6806  -20.1574   20.2030 C   0  0  0  0  0  0  0  0  0  0  0  0
  -19.9167  -25.8549   22.5223 C   0  0  0  0  0  0  0  0  0  0  0  0
  -20.2894  -26.2805   24.8711 C   0  0  0  0  0  0  0  0  0  0  0  0
  -26.6674  -21.0902   19.9805 C   0  0  0  0  0  0  0  0  0  0  0  0
  -16.7509  -25.3197   23.5824 C   0  0  0  0  0  0  0  0  0  0  0  0
  -15.5408  -25.1801   22.9030 C   0  0  0  0  0  0  0  0  0  0  0  0
  -25.4887  -19.4957   18.5962 C   0  0  0  0  0  0  0  0  0  0  0  0
  -24.8026  -28.2697   19.4578 C   0  0  0  0  0  0  0  0  0  0  0  0
  -26.8063  -29.3591   20.2550 C   0  0  0  0  0  0  0  0  0  0  0  0
  -16.2607  -23.0326   22.0621 C   0  0  0  0  0  0  0  0  0  0  0  0
  -21.3088  -27.7065   23.2085 C   0  0  0  0  0  0  0  0  0  0  0  0
  -21.7639  -29.9815   22.1479 C   0  0  0  0  0  0  0  0  0  0  0  0
  -32.8678  -13.4725   21.4539 C   0  0  0  0  0  0  0  0  0  0  0  0
  -27.5939  -18.8834   19.6347 C   0  0  0  0  0  0  0  0  0  0  0  0
  -32.4515  -14.3717   20.4536 C   0  0  0  0  0  0  0  0  0  0  0  0
  -26.4944  -18.5530   18.8257 C   0  0  0  0  0  0  0  0  0  0  0  0
  -26.4098  -27.0322   20.7701 C   0  0  0  0  0  0  0  0  0  0  0  0
  -25.2062  -27.0816   20.0669 C   0  0  0  0  0  0  0  0  0  0  0  0
  -27.2099  -28.1710   20.8642 C   0  0  0  0  0  0  0  0  0  0  0  0
  -19.7011  -25.5215   23.8594 C   0  0  0  0  0  0  0  0  0  0  0  0
  -25.5743  -20.7602   19.1789 C   0  0  0  0  0  0  0  0  0  0  0  0
  -17.7160  -24.3158   23.5016 C   0  0  0  0  0  0  0  0  0  0  0  0
  -15.2956  -24.0365   22.1429 C   0  0  0  0  0  0  0  0  0  0  0  0
  -25.6026  -29.4085   19.5518 C   0  0  0  0  0  0  0  0  0  0  0  0
  -17.4709  -23.1723   22.7415 C   0  0  0  0  0  0  0  0  0  0  0  0
  -22.1397  -28.8348   22.8729 C   0  0  0  0  0  0  0  0  0  0  0  0
  -22.9033  -30.7471   22.1015 C   0  0  0  0  0  0  0  0  0  0  0  0
  -20.4981  -30.3240   21.5683 C   0  0  0  0  0  0  0  0  0  0  0  0
  -29.1544  -15.4965   19.2222 C   0  0  0  0  0  0  0  0  0  0  0  0
  -26.1375  -15.0529   19.5565 C   0  0  0  0  0  0  0  0  0  0  0  0
  -23.0331  -13.8308   20.2685 C   0  0  0  0  0  0  0  0  0  0  0  0
  -28.7306  -28.9674   22.6929 C   0  0  0  0  0  0  0  0  0  0  0  0
  -32.1292  -12.1849   21.7204 C   0  0  0  0  0  0  0  0  0  0  0  0
  -28.6920  -17.8677   19.7971 C   0  0  0  0  0  0  0  0  0  0  0  0
  -26.4604  -17.1823   18.2068 C   0  0  0  0  0  0  0  0  0  0  0  0
  -30.7127  -12.1663   21.1517 C   0  0  0  0  0  0  0  0  0  0  0  0
  -22.9937  -24.2803   21.1223 C   0  0  0  0  0  0  0  0  0  0  0  0
  -26.9365  -31.6505   24.5026 C   0  0  0  0  0  0  0  0  0  0  0  0
  -30.7071  -12.6810   19.7158 C   0  0  0  0  0  0  0  0  0  0  0  0
  -22.6283  -23.6773   19.7705 C   0  0  0  0  0  0  0  0  0  0  0  0
  -25.4697  -31.2774   24.2956 C   0  0  0  0  0  0  0  0  0  0  0  0
  -23.3722  -25.7541   21.0029 C   0  0  0  0  0  0  0  0  0  0  0  0
  -27.8413  -30.4223   24.4853 C   0  0  0  0  0  0  0  0  0  0  0  0
  -24.0851  -25.4005   18.6342 C   0  0  0  0  0  0  0  0  0  0  0  0
  -26.2254  -29.2176   23.0434 C   0  0  0  0  0  0  0  0  0  0  0  0
  -31.1922  -14.1341   19.6487 C   0  0  1  0  0  0  0  0  0  0  0  0
  -28.1700  -16.4218   19.8751 C   0  0  1  0  0  0  0  0  0  0  0  0
  -23.7218  -23.9100   18.7219 C   0  0  1  0  0  0  0  0  0  0  0  0
  -25.2980  -30.4418   23.0163 C   0  0  1  0  0  0  0  0  0  0  0  0
  -26.8417  -25.7567   21.4252 C   0  0  0  0  0  0  0  0  0  0  0  0
  -21.5642  -11.8346   19.8752 C   0  0  0  0  0  0  0  0  0  0  0  0
  -25.6218  -15.9992   16.7030 C   0  0  0  0  0  0  0  0  0  0  0  0
  -23.5319  -14.6206   16.6990 C   0  0  0  0  0  0  0  0  0  0  0  0
  -25.7520  -13.5162   16.9716 C   0  0  0  0  0  0  0  0  0  0  0  0
  -29.5787  -27.4196   20.9851 C   0  0  0  0  0  0  0  0  0  0  0  0
  -22.8461  -13.2525   23.1649 C   0  0  0  0  0  0  0  0  0  0  0  0
  -24.9615  -23.0508   18.9910 C   0  0  0  0  0  0  0  0  0  1  0  0
  -24.8021  -14.8770   18.8789 C   0  0  1  0  0  0  0  0  0  0  0  0
  -22.5785  -12.4848   20.8032 C   0  0  2  0  0  0  0  0  0  0  0  0
  -24.9310  -14.7732   17.3329 C   0  0  0  0  0  0  0  0  0  0  0  0
  -23.4180  -28.8649   23.2592 N   0  0  0  0  0  0  0  0  0  0  0  0
  -23.8553  -30.0398   22.7750 N   0  0  0  0  0  0  0  0  0  0  0  0
  -24.3889  -25.9497   19.9610 N   0  0  1  0  0  0  0  0  0  0  0  0
  -26.8892  -16.1761   19.1907 N   0  0  0  0  0  0  0  0  0  0  0  0
  -27.6240  -29.6047   23.2908 N   0  0  0  0  0  0  0  0  0  0  0  0
  -23.1737  -31.9495   21.5506 N   0  0  0  0  0  0  0  0  0  0  0  0
  -19.4331  -29.4239   21.7095 N   0  0  0  0  0  0  0  0  0  0  0  0
  -30.1432  -15.0372   20.0712 N   0  0  0  0  0  0  0  0  0  0  0  0
  -24.1760  -13.7177   19.5054 N   0  0  0  0  0  0  0  0  0  0  0  0
  -28.4594  -28.1428   21.5844 N   0  0  0  0  0  0  0  0  0  0  0  0
  -21.9517  -12.6456   22.1457 N   0  3  0  0  0  0  0  0  0  0  0  0
  -20.3211  -31.3891   20.9296 O   0  0  0  0  0  0  0  0  0  0  0  0
  -29.0265  -15.2178   18.0358 O   0  0  0  0  0  0  0  0  0  0  0  0
  -26.5089  -14.2157   20.3838 O   0  0  0  0  0  0  0  0  0  0  0  0
  -22.4322  -14.8774   20.5011 O   0  0  0  0  0  0  0  0  0  0  0  0
  -29.8753  -29.0799   23.1485 O   0  0  0  0  0  0  0  0  0  0  0  0
  -18.9166  -24.4556   24.1774 O   0  0  0  0  0  0  0  0  0  0  0  0
  -24.5865  -21.6741   18.9696 O   0  0  0  0  0  0  0  0  0  1  0  0
  -14.1328  -23.9018   21.4917 F   0  0  0  0  0  0  0  0  0  0  0  0
  -25.2151  -30.5492   18.9663 F   0  0  0  0  0  0  0  0  0  0  0  0
  -18.3937  -22.2039   22.6611 F   0  0  0  0  0  0  0  0  0  0  0  0
  1  2  1  0  0  0  0
  1  5  2  0  0  0  0
  2  6  2  0  0  0  0
  3  8  2  0  0  0  0
  3 17  1  0  0  0  0
  4  9  1  0  0  0  0
  4 17  2  0  0  0  0
  5 19  1  0  0  0  0
  6 21  1  0  0  0  0
  7 10  2  0  0  0  0
  7 20  1  0  0  0  0
  8 26  1  0  0  0  0
  9 26  2  0  0  0  0
 10 27  1  0  0  0  0
 11 12  2  0  0  0  0
 11 28  1  0  0  0  0
 12 29  1  0  0  0  0
 13 22  1  0  0  0  0
 13 27  2  0  0  0  0
 14 24  1  0  0  0  0
 14 30  2  0  0  0  0
 15 25  2  0  0  0  0
 15 30  1  0  0  0  0
 16 29  2  0  0  0  0
 16 31  1  0  0  0  0
 17 32  1  0  0  0  0
 18 32  1  0  0  0  0
 18 33  2  0  0  0  0
 18 34  1  0  0  0  0
 19 21  2  0  0  0  0
 19 39  1  0  0  0  0
 20 22  2  0  0  0  0
 20 40  1  0  0  0  0
 21 52  1  0  0  0  0
 22 41  1  0  0  0  0
 23 24  2  0  0  0  0
 23 25  1  0  0  0  0
 23 56  1  0  0  0  0
 24 69  1  0  0  0  0
 25 76  1  0  0  0  0
 26 83  1  0  0  0  0
 27 84  1  0  0  0  0
 28 31  2  0  0  0  0
 28 83  1  0  0  0  0
 29 85  1  0  0  0  0
 30 86  1  0  0  0  0
 31 87  1  0  0  0  0
 32 67  2  0  0  0  0
 33 68  1  0  0  0  0
 33 72  1  0  0  0  0
 34 73  1  0  0  0  0
 34 78  2  0  0  0  0
 35 53  1  0  0  0  0
 35 74  1  0  0  0  0
 35 79  2  0  0  0  0
 36 64  1  0  0  0  0
 36 70  1  0  0  0  0
 36 80  2  0  0  0  0
 37 65  1  0  0  0  0
 37 75  1  0  0  0  0
 37 81  2  0  0  0  0
 38 71  1  0  0  0  0
 38 76  1  0  0  0  0
 38 82  2  0  0  0  0
 39 42  1  0  0  0  0
 40 53  1  0  0  0  0
 41 70  1  0  0  0  0
 42 45  1  0  0  0  0
 43 46  1  0  0  0  0
 43 48  1  0  0  0  0
 44 47  1  0  0  0  0
 44 49  1  0  0  0  0
 45 52  1  0  0  0  0
 46 54  1  0  0  0  0
 47 55  1  0  0  0  0
 48 69  1  0  0  0  0
 49 71  1  0  0  0  0
 50 54  1  0  0  0  0
 50 69  1  0  0  0  0
 51 55  1  0  0  0  0
 51 71  1  0  0  0  0
 52 74  1  0  0  0  0
 53 70  1  0  0  0  0
 54 63  1  0  0  0  0
 55 68  1  0  0  0  0
 57 65  1  0  0  0  0
 58 66  1  0  0  0  0
 59 66  1  0  0  0  0
 60 66  1  0  0  0  0
 61 76  1  0  0  0  0
 62 77  1  0  0  0  0
 63 84  1  0  0  0  0
 64 66  1  0  0  0  0
 64 75  1  0  0  0  0
 65 77  1  0  0  0  0
 67 68  1  0  0  0  0
M  CHG  1  77   1
M  ISO  4  38 100  63 101  76 100  84 101
M  END
> <Batch ID>
0029

> <Smiles>
CNC(C)C(=O)NC(C(=O)N1Cc2cc([101O:1][101CH2:1]C3CCCN(c4cc(F)cc([100N:0](C)[100C:0](=O)N5CCCC(n6nc(-c7ccc(Oc8ccc(F)cc8F)cc7)c(C(N)=O)c6N)C5)c4C)C3)ccc2CC1C(=O)NC1CCCc2ccccc21)C(C)(C)C

> <Shape>
0.228

> <Color>
0.080

> <Negative vol penalty>
0.000

$$$$

  -OEChem-04042321343D

 84 93  0     1  0  0  0  0  0999 V2000
  -27.5477  -34.3144   25.5284 C   0  0  0  0  0  0  0  0  0  0  0  0
  -28.0715  -33.0469   25.2949 C   0  0  0  0  0  0  0  0  0  0  0  0
  -23.1640   -9.7536   19.9115 C   0  0  0  0  0  0  0  0  0  0  0  0
  -23.9113   -9.7778   22.2088 C   0  0  0  0  0  0  0  0  0  0  0  0
  -26.2316  -34.6007   25.1681 C   0  0  0  0  0  0  0  0  0  0  0  0
  -27.2791  -32.0646   24.7019 C   0  0  0  0  0  0  0  0  0  0  0  0
  -29.1215  -27.6847   20.8382 C   0  0  0  0  0  0  0  0  0  0  0  0
  -22.4762   -8.5633   20.1477 C   0  0  0  0  0  0  0  0  0  0  0  0
  -23.2236   -8.5875   22.4451 C   0  0  0  0  0  0  0  0  0  0  0  0
  -29.4383  -26.3402   21.0267 C   0  0  0  0  0  0  0  0  0  0  0  0
  -20.0354   -7.6275   23.0236 C   0  0  0  0  0  0  0  0  0  0  0  0
  -19.2756   -7.5404   24.1901 C   0  0  0  0  0  0  0  0  0  0  0  0
  -27.2003  -25.7268   20.3678 C   0  0  0  0  0  0  0  0  0  0  0  0
  -29.3027  -19.4498   22.4625 C   0  0  0  0  0  0  0  0  0  0  0  0
  -30.8432  -17.9605   20.6761 C   0  0  0  0  0  0  0  0  0  0  0  0
  -20.6068   -5.6596   24.9167 C   0  0  0  0  0  0  0  0  0  0  0  0
  -23.8816  -10.3608   20.9420 C   0  0  0  0  0  0  0  0  0  0  0  0
  -24.0999  -12.9006   20.8452 C   0  0  0  0  0  0  0  0  0  0  0  0
  -25.4257  -33.6243   24.5616 C   0  0  0  0  0  0  0  0  0  0  0  0
  -27.8363  -28.0618   20.4229 C   0  0  0  0  0  0  0  0  0  0  0  0
  -25.9506  -32.3378   24.3344 C   0  0  0  0  0  0  0  0  0  0  0  0
  -26.8705  -27.0766   20.1723 C   0  0  0  0  0  0  0  0  0  0  0  0
  -30.1771  -20.0960   21.5888 C   0  0  0  0  0  0  0  0  0  0  0  0
  -29.9688  -17.3143   21.5499 C   0  0  0  0  0  0  0  0  0  0  0  0
  -22.5060   -7.9803   21.4145 C   0  0  0  0  0  0  0  0  0  0  0  0
  -28.4768  -25.3611   20.7943 C   0  0  0  0  0  0  0  0  0  0  0  0
  -21.0809   -6.7306   22.8036 C   0  0  0  0  0  0  0  0  0  0  0  0
  -19.5613   -6.5565   25.1366 C   0  0  0  0  0  0  0  0  0  0  0  0
  -29.1986  -18.0590   22.4431 C   0  0  0  0  0  0  0  0  0  0  0  0
  -30.9473  -19.3514   20.6956 C   0  0  0  0  0  0  0  0  0  0  0  0
  -21.3666   -5.7467   23.7502 C   0  0  0  0  0  0  0  0  0  0  0  0
  -24.5927  -11.5901   20.6985 C   0  0  0  0  0  0  0  0  0  0  0  0
  -25.1558  -13.7058   20.4941 C   0  0  0  0  0  0  0  0  0  0  0  0
  -22.8036  -13.3500   21.2616 C   0  0  0  0  0  0  0  0  0  0  0  0
  -25.4973  -29.8120   21.6758 C   0  0  0  0  0  0  0  0  0  0  0  0
  -24.1175  -29.3366   18.7789 C   0  0  0  0  0  0  0  0  0  0  0  0
  -23.8746  -27.4214   15.9647 C   0  0  0  0  0  0  0  0  0  0  0  0
  -30.5633  -15.0161   20.7068 C   0  0  0  0  0  0  0  0  0  0  0  0
  -23.9941  -33.9665   24.2327 C   0  0  0  0  0  0  0  0  0  0  0  0
  -27.5184  -29.5147   20.1984 C   0  0  0  0  0  0  0  0  0  0  0  0
  -25.4821  -27.4277   19.7057 C   0  0  0  0  0  0  0  0  0  0  0  0
  -23.3389  -32.9822   23.2673 C   0  0  0  0  0  0  0  0  0  0  0  0
  -29.5801  -12.5713   18.3123 C   0  0  0  0  0  0  0  0  0  0  0  0
  -23.6251  -31.5458   23.6935 C   0  0  0  0  0  0  0  0  0  0  0  0
  -28.1544  -12.2059   18.7317 C   0  0  0  0  0  0  0  0  0  0  0  0
  -31.1392  -23.6467   21.3310 C   0  0  0  0  0  0  0  0  0  0  0  0
  -30.4770  -12.8341   19.5207 C   0  0  0  0  0  0  0  0  0  0  0  0
  -31.1624  -22.2383   20.7374 C   0  0  0  0  0  0  0  0  0  0  0  0
  -28.5301  -13.4524   20.8978 C   0  0  0  0  0  0  0  0  0  0  0  0
  -29.5087  -22.3355   22.5056 C   0  0  0  0  0  0  0  0  0  0  0  0
  -25.1302  -31.2530   23.6707 C   0  0  1  0  0  0  0  0  0  0  0  0
  -26.0249  -29.8174   20.2689 C   0  0  1  0  0  0  0  0  0  0  0  0
  -27.5727  -13.2420   19.7134 C   0  0  2  0  0  0  0  0  0  0  0  0
  -29.7601  -23.7432   21.9669 C   0  0  2  0  0  0  0  0  0  1  0  0
  -22.6329  -27.2646   13.7897 C   0  0  0  0  0  0  0  0  0  0  0  0
  -21.6602  -28.2975   20.2594 C   0  0  0  0  0  0  0  0  0  0  0  0
  -20.8714  -27.2964   18.1045 C   0  0  0  0  0  0  0  0  0  0  0  0
  -21.1537  -29.7671   18.3003 C   0  0  0  0  0  0  0  0  0  0  0  0
  -26.3679  -27.6712   14.3899 C   0  0  0  0  0  0  0  0  0  0  0  0
  -23.2028  -28.2904   18.1891 C   0  0  1  0  0  0  0  0  0  0  0  0
  -23.8751  -27.7902   14.4922 C   0  0  2  0  0  0  0  0  0  0  0  0
  -21.7475  -28.4060   18.7240 C   0  0  0  0  0  0  0  0  0  0  0  0
  -25.8627  -11.5599   20.2861 N   0  0  0  0  0  0  0  0  0  0  0  0
  -26.1769  -12.8615   20.1707 N   0  0  0  0  0  0  0  0  0  0  0  0
  -30.2785  -21.4712   21.6100 N   0  0  3  0  0  0  0  0  0  0  0  0
  -25.2180  -28.8623   19.5067 N   0  0  0  0  0  0  0  0  0  0  0  0
  -29.8639  -13.8287   20.4037 N   0  0  0  0  0  0  0  0  0  0  0  0
  -25.3011  -15.0465   20.4334 N   0  0  0  0  0  0  0  0  0  0  0  0
  -21.8358  -12.3895   21.5858 N   0  0  0  0  0  0  0  0  0  0  0  0
  -29.8674  -15.9012   21.5295 N   0  0  0  0  0  0  0  0  0  0  0  0
  -25.5822  -31.0351   22.3132 N   0  0  0  0  0  0  0  0  0  0  0  0
  -23.3188  -28.4167   16.7403 N   0  0  0  0  0  0  0  0  0  0  0  0
  -25.0743  -27.2198   13.8157 N   0  3  0  0  0  0  0  0  0  0  0  0
  -22.5071  -14.5670   21.3281 O   0  0  0  0  0  0  0  0  0  0  0  0
  -25.0454  -28.7752   22.1476 O   0  0  0  0  0  0  0  0  0  0  0  0
  -23.8687  -30.5307   18.5944 O   0  0  0  0  0  0  0  0  0  0  0  0
  -24.3192  -26.3552   16.3845 O   0  0  0  0  0  0  0  0  0  0  0  0
  -31.6851  -15.2439   20.2466 O   0  0  0  0  0  0  0  0  0  0  0  0
  -21.8348   -6.8189   21.6454 O   0  0  0  0  0  0  0  0  0  0  0  0
  -28.7831  -24.0480   20.9782 O   0  0  0  0  0  0  0  0  0  1  0  0
  -18.8325   -6.4739   26.2575 F   0  0  0  0  0  0  0  0  0  0  0  0
  -28.3561  -17.4476   23.2881 F   0  0  0  0  0  0  0  0  0  0  0  0
  -31.7922  -19.9615   19.8521 F   0  0  0  0  0  0  0  0  0  0  0  0
  -22.3705   -4.8831   23.5450 F   0  0  0  0  0  0  0  0  0  0  0  0
  1  2  1  0  0  0  0
  1  5  2  0  0  0  0
  2  6  2  0  0  0  0
  3  8  2  0  0  0  0
  3 17  1  0  0  0  0
  4  9  1  0  0  0  0
  4 17  2  0  0  0  0
  5 19  1  0  0  0  0
  6 21  1  0  0  0  0
  7 10  2  0  0  0  0
  7 20  1  0  0  0  0
  8 25  1  0  0  0  0
  9 25  2  0  0  0  0
 10 26  1  0  0  0  0
 11 12  2  0  0  0  0
 11 27  1  0  0  0  0
 12 28  1  0  0  0  0
 13 22  1  0  0  0  0
 13 26  2  0  0  0  0
 14 23  1  0  0  0  0
 14 29  2  0  0  0  0
 15 24  2  0  0  0  0
 15 30  1  0  0  0  0
 16 28  2  0  0  0  0
 16 31  1  0  0  0  0
 17 32  1  0  0  0  0
 18 32  1  0  0  0  0
 18 33  2  0  0  0  0
 18 34  1  0  0  0  0
 19 21  2  0  0  0  0
 19 39  1  0  0  0  0
 20 22  2  0  0  0  0
 20 40  1  0  0  0  0
 21 51  1  0  0  0  0
 22 41  1  0  0  0  0
 23 30  2  0  0  0  0
 23 65  1  0  0  0  0
 24 29  1  0  0  0  0
 24 70  1  0  0  0  0
 25 79  1  0  0  0  0
 26 80  1  0  0  0  0
 27 31  2  0  0  0  0
 27 79  1  0  0  0  0
 28 81  1  0  0  0  0
 29 82  1  0  0  0  0
 30 83  1  0  0  0  0
 31 84  1  0  0  0  0
 32 63  2  0  0  0  0
 33 64  1  0  0  0  0
 33 68  1  0  0  0  0
 34 69  1  0  0  0  0
 34 74  2  0  0  0  0
 35 52  1  0  0  0  0
 35 71  1  0  0  0  0
 35 75  2  0  0  0  0
 36 60  1  0  0  0  0
 36 66  1  0  0  0  0
 36 76  2  0  0  0  0
 37 61  1  0  0  0  0
 37 72  1  0  0  0  0
 37 77  2  0  0  0  0
 38 67  1  0  0  0  0
 38 70  1  0  0  0  0
 38 78  2  0  0  0  0
 39 42  1  0  0  0  0
 40 52  1  0  0  0  0
 41 66  1  0  0  0  0
 42 44  1  0  0  0  0
 43 45  1  0  0  0  0
 43 47  1  0  0  0  0
 44 51  1  0  0  0  0
 45 53  1  0  0  0  0
 46 48  1  0  0  0  0
 46 54  1  0  0  0  0
 47 67  1  0  0  0  0
 48 65  1  0  0  0  0
 49 53  1  0  0  0  0
 49 67  1  0  0  0  0
 50 54  1  0  0  0  0
 50 65  1  0  0  0  0
 51 71  1  0  0  0  0
 52 66  1  0  0  0  0
 53 64  1  0  0  0  0
 54 80  1  0  0  0  0
 55 61  1  0  0  0  0
 56 62  1  0  0  0  0
 57 62  1  0  0  0  0
 58 62  1  0  0  0  0
 59 73  1  0  0  0  0
 60 62  1  0  0  0  0
 60 72  1  0  0  0  0
 61 73  1  0  0  0  0
 63 64  1  0  0  0  0
M  CHG  1  73   1
M  ISO  4  38 100  54 101  70 100  80 101
M  END
> <Batch ID>
0029

> <Smiles>
CNC(C)C(=O)NC(C(=O)N1Cc2cc([101O:1][101CH:1]3CCN(c4cc(F)c([100NH:0][100C:0](=O)N5CCCC(n6nc(-c7ccc(Oc8ccc(F)cc8F)cc7)c(C(N)=O)c6N)C5)cc4F)C3)ccc2CC1C(=O)NC1CCCc2ccccc21)C(C)(C)C

> <Shape>
0.352

> <Color>
0.208

> <Negative vol penalty>
0.000

$$$$

  -OEChem-04042321343D

 83 92  0     1  0  0  0  0  0999 V2000
  -28.7828  -36.6869   22.8006 C   0  0  0  0  0  0  0  0  0  0  0  0
  -29.1102  -35.4545   22.2444 C   0  0  0  0  0  0  0  0  0  0  0  0
  -23.0073  -10.2926   19.9822 C   0  0  0  0  0  0  0  0  0  0  0  0
  -24.3249   -9.8787   21.9646 C   0  0  0  0  0  0  0  0  0  0  0  0
  -27.7899  -36.7685   23.7760 C   0  0  0  0  0  0  0  0  0  0  0  0
  -28.4457  -34.3027   22.6641 C   0  0  0  0  0  0  0  0  0  0  0  0
  -26.9844  -29.4407   19.2391 C   0  0  0  0  0  0  0  0  0  0  0  0
  -29.7822  -20.1702   20.9403 C   0  0  0  0  0  0  0  0  0  0  0  0
  -29.1486  -21.3290   20.4915 C   0  0  0  0  0  0  0  0  0  0  0  0
  -22.5382   -8.9796   20.0198 C   0  0  0  0  0  0  0  0  0  0  0  0
  -23.8557   -8.5656   22.0022 C   0  0  0  0  0  0  0  0  0  0  0  0
  -27.5909  -28.1970   19.0687 C   0  0  0  0  0  0  0  0  0  0  0  0
  -21.0541   -6.9505   22.9838 C   0  0  0  0  0  0  0  0  0  0  0  0
  -20.6414   -6.4466   24.2172 C   0  0  0  0  0  0  0  0  0  0  0  0
  -26.1052  -27.2532   20.7183 C   0  0  0  0  0  0  0  0  0  0  0  0
  -27.8772  -19.6706   22.3397 C   0  0  0  0  0  0  0  0  0  0  0  0
  -22.3113   -4.7071   24.0652 C   0  0  0  0  0  0  0  0  0  0  0  0
  -23.9007  -10.7421   20.9546 C   0  0  0  0  0  0  0  0  0  0  0  0
  -23.8111  -13.2249   21.5336 C   0  0  0  0  0  0  0  0  0  0  0  0
  -27.1061  -35.6185   24.2010 C   0  0  0  0  0  0  0  0  0  0  0  0
  -25.9392  -29.6028   20.1598 C   0  0  0  0  0  0  0  0  0  0  0  0
  -27.4436  -34.3688   23.6471 C   0  0  0  0  0  0  0  0  0  0  0  0
  -25.4854  -28.4995   20.8967 C   0  0  0  0  0  0  0  0  0  0  0  0
  -29.1464  -19.3410   21.8643 C   0  0  0  0  0  0  0  0  0  0  0  0
  -27.2436  -20.8295   21.8910 C   0  0  0  0  0  0  0  0  0  0  0  0
  -27.8794  -21.6587   20.9669 C   0  0  0  0  0  0  0  0  0  0  0  0
  -22.9623   -8.1161   21.0298 C   0  0  0  0  0  0  0  0  0  0  0  0
  -27.1533  -27.1036   19.8105 C   0  0  0  0  0  0  0  0  0  0  0  0
  -22.0954   -6.3328   22.2910 C   0  0  0  0  0  0  0  0  0  0  0  0
  -21.2700   -5.3249   24.7579 C   0  0  0  0  0  0  0  0  0  0  0  0
  -22.7240   -5.2111   22.8317 C   0  0  0  0  0  0  0  0  0  0  0  0
  -24.3862  -12.0982   20.9159 C   0  0  0  0  0  0  0  0  0  0  0  0
  -24.6446  -14.2636   21.1975 C   0  0  0  0  0  0  0  0  0  0  0  0
  -22.6292  -13.3238   22.3392 C   0  0  0  0  0  0  0  0  0  0  0  0
  -25.5169  -31.3342   22.7918 C   0  0  0  0  0  0  0  0  0  0  0  0
  -22.4972  -30.1635   22.6085 C   0  0  0  0  0  0  0  0  0  0  0  0
  -20.4029  -27.7137   21.4866 C   0  0  0  0  0  0  0  0  0  0  0  0
  -29.7686  -16.3802   20.5574 C   0  0  0  0  0  0  0  0  0  0  0  0
  -26.0732  -35.7497   25.2921 C   0  0  0  0  0  0  0  0  0  0  0  0
  -25.2777  -30.9449   20.3125 C   0  0  0  0  0  0  0  0  0  0  0  0
  -24.3534  -28.6162   21.8833 C   0  0  0  0  0  0  0  0  0  0  0  0
  -25.1562  -34.5352   25.4120 C   0  0  0  0  0  0  0  0  0  0  0  0
  -28.4288  -14.4970   17.8491 C   0  0  0  0  0  0  0  0  0  0  0  0
  -25.9713  -33.2461   25.3842 C   0  0  0  0  0  0  0  0  0  0  0  0
  -27.2145  -13.7936   18.4580 C   0  0  0  0  0  0  0  0  0  0  0  0
  -29.5808  -14.5989   18.8462 C   0  0  0  0  0  0  0  0  0  0  0  0
  -28.0146  -14.5137   20.7471 C   0  0  0  0  0  0  0  0  0  0  0  0
  -27.4303  -23.4286   19.2359 C   0  0  0  0  0  0  0  0  0  0  0  0
  -27.0947  -24.0355   21.2226 C   0  0  0  0  0  0  0  0  0  0  0  0
  -26.7281  -33.1004   24.0585 C   0  0  1  0  0  0  0  0  0  0  0  0
  -24.5648  -31.1110   21.6510 C   0  0  1  0  0  0  0  0  0  0  0  0
  -26.8071  -14.4369   19.7972 C   0  0  2  0  0  0  0  0  0  0  0  0
  -26.9312  -24.7365   19.8663 C   0  0  0  0  0  0  0  0  0  1  0  0
  -25.8843  -21.1585   22.4167 C   0  0  0  0  0  0  0  0  0  0  0  0
  -17.9944  -27.0102   21.5267 C   0  0  0  0  0  0  0  0  0  0  0  0
  -22.8268  -29.2079   25.4875 C   0  0  0  0  0  0  0  0  0  0  0  0
  -20.8356  -27.7282   25.1508 C   0  0  0  0  0  0  0  0  0  0  0  0
  -20.5925  -30.2041   24.9683 C   0  0  0  0  0  0  0  0  0  0  0  0
  -20.1835  -27.8841   18.5401 C   0  0  0  0  0  0  0  0  0  0  0  0
  -29.8242  -18.1021   22.3438 C   0  0  0  0  0  0  0  0  0  0  0  0
  -21.7917  -28.9382   23.1376 C   0  0  1  0  0  0  0  0  0  0  0  0
  -19.0656  -27.7813   20.7713 C   0  0  2  0  0  0  0  0  0  0  0  0
  -21.5343  -29.0175   24.6689 C   0  0  0  0  0  0  0  0  0  0  0  0
  -25.4989  -12.3932   20.2385 N   0  0  0  0  0  0  0  0  0  0  0  0
  -25.6297  -13.7172   20.4286 N   0  0  0  0  0  0  0  0  0  0  0  0
  -27.2628  -22.8177   20.5087 N   0  0  0  0  0  0  0  0  0  0  0  0
  -23.7431  -29.9507   22.0015 N   0  0  0  0  0  0  0  0  0  0  0  0
  -29.1285  -15.2190   20.0939 N   0  0  0  0  0  0  0  0  0  0  0  0
  -24.6236  -15.5819   21.4876 N   0  0  0  0  0  0  0  0  0  0  0  0
  -21.8898  -12.1591   22.5866 N   0  0  0  0  0  0  0  0  0  0  0  0
  -25.8317  -32.6618   23.0103 N   0  0  0  0  0  0  0  0  0  0  0  0
  -20.5827  -28.7851   22.3356 N   0  0  0  0  0  0  0  0  0  0  0  0
  -29.2737  -16.9070   21.7441 N   0  0  0  0  0  0  0  0  0  0  0  0
  -19.1811  -27.2057   19.4015 N   0  3  0  0  0  0  0  0  0  0  0  0
  -22.2313  -14.4156   22.8118 O   0  0  0  0  0  0  0  0  0  0  0  0
  -25.9337  -30.3732   23.4278 O   0  0  0  0  0  0  0  0  0  0  0  0
  -21.9595  -31.2677   22.7231 O   0  0  0  0  0  0  0  0  0  0  0  0
  -21.2059  -26.7997   21.3125 O   0  0  0  0  0  0  0  0  0  0  0  0
  -30.7080  -16.9113   19.9553 O   0  0  0  0  0  0  0  0  0  0  0  0
  -22.5045   -6.8348   21.0670 O   0  0  0  0  0  0  0  0  0  0  0  0
  -27.7439  -25.8887   19.6466 O   0  0  0  0  0  0  0  0  0  1  0  0
  -20.8746   -4.8419   25.9430 F   0  0  0  0  0  0  0  0  0  0  0  0
  -23.7256   -4.6141   22.1714 F   0  0  0  0  0  0  0  0  0  0  0  0
  1  2  1  0  0  0  0
  1  5  2  0  0  0  0
  2  6  2  0  0  0  0
  3 10  2  0  0  0  0
  3 18  1  0  0  0  0
  4 11  1  0  0  0  0
  4 18  2  0  0  0  0
  5 20  1  0  0  0  0
  6 22  1  0  0  0  0
  7 12  2  0  0  0  0
  7 21  1  0  0  0  0
  8  9  2  0  0  0  0
  8 24  1  0  0  0  0
  9 26  1  0  0  0  0
 10 27  1  0  0  0  0
 11 27  2  0  0  0  0
 12 28  1  0  0  0  0
 13 14  2  0  0  0  0
 13 29  1  0  0  0  0
 14 30  1  0  0  0  0
 15 23  1  0  0  0  0
 15 28  2  0  0  0  0
 16 24  2  0  0  0  0
 16 25  1  0  0  0  0
 17 30  2  0  0  0  0
 17 31  1  0  0  0  0
 18 32  1  0  0  0  0
 19 32  1  0  0  0  0
 19 33  2  0  0  0  0
 19 34  1  0  0  0  0
 20 22  2  0  0  0  0
 20 39  1  0  0  0  0
 21 23  2  0  0  0  0
 21 40  1  0  0  0  0
 22 50  1  0  0  0  0
 23 41  1  0  0  0  0
 24 60  1  0  0  0  0
 25 26  2  0  0  0  0
 25 54  1  0  0  0  0
 26 66  1  0  0  0  0
 27 80  1  0  0  0  0
 28 81  1  0  0  0  0
 29 31  2  0  0  0  0
 29 80  1  0  0  0  0
 30 82  1  0  0  0  0
 31 83  1  0  0  0  0
 32 64  2  0  0  0  0
 33 65  1  0  0  0  0
 33 69  1  0  0  0  0
 34 70  1  0  0  0  0
 34 75  2  0  0  0  0
 35 51  1  0  0  0  0
 35 71  1  0  0  0  0
 35 76  2  0  0  0  0
 36 61  1  0  0  0  0
 36 67  1  0  0  0  0
 36 77  2  0  0  0  0
 37 62  1  0  0  0  0
 37 72  1  0  0  0  0
 37 78  2  0  0  0  0
 38 68  1  0  0  0  0
 38 73  1  0  0  0  0
 38 79  2  0  0  0  0
 39 42  1  0  0  0  0
 40 51  1  0  0  0  0
 41 67  1  0  0  0  0
 42 44  1  0  0  0  0
 43 45  1  0  0  0  0
 43 46  1  0  0  0  0
 44 50  1  0  0  0  0
 45 52  1  0  0  0  0
 46 68  1  0  0  0  0
 47 52  1  0  0  0  0
 47 68  1  0  0  0  0
 48 53  1  0  0  0  0
 48 66  1  0  0  0  0
 49 53  1  0  0  0  0
 49 66  1  0  0  0  0
 50 71  1  0  0  0  0
 51 67  1  0  0  0  0
 52 65  1  0  0  0  0
 53 81  1  0  0  0  0
 55 62  1  0  0  0  0
 56 63  1  0  0  0  0
 57 63  1  0  0  0  0
 58 63  1  0  0  0  0
 59 74  1  0  0  0  0
 60 73  1  0  0  0  0
 61 63  1  0  0  0  0
 61 72  1  0  0  0  0
 62 74  1  0  0  0  0
 64 65  1  0  0  0  0
M  CHG  1  74   1
M  ISO  4  38 100  53 101  73 100  81 101
M  END
> <Batch ID>
0029

> <Smiles>
CNC(C)C(=O)NC(C(=O)N1Cc2cc([101O:1][101CH:1]3CN(c4ccc(C[100NH:0][100C:0](=O)N5CCCC(n6nc(-c7ccc(Oc8ccc(F)cc8F)cc7)c(C(N)=O)c6N)C5)cc4C)C3)ccc2CC1C(=O)NC1CCCc2ccccc21)C(C)(C)C

> <Shape>
0.365

> <Color>
0.136

> <Negative vol penalty>
0.000

$$$$

  -OEChem-04042321343D

 84 93  0     1  0  0  0  0  0999 V2000
  -16.7565  -29.4306   24.2476 C   0  0  0  0  0  0  0  0  0  0  0  0
  -17.2988  -28.3410   23.5737 C   0  0  0  0  0  0  0  0  0  0  0  0
  -26.2624  -12.3610   20.1749 C   0  0  0  0  0  0  0  0  0  0  0  0
  -27.2569  -11.4361   18.1767 C   0  0  0  0  0  0  0  0  0  0  0  0
  -17.3398  -30.6902   24.1170 C   0  0  0  0  0  0  0  0  0  0  0  0
  -18.4241  -28.5107   22.7679 C   0  0  0  0  0  0  0  0  0  0  0  0
  -21.8840  -24.8808   23.4738 C   0  0  0  0  0  0  0  0  0  0  0  0
  -26.0197  -17.5638   22.4628 C   0  0  0  0  0  0  0  0  0  0  0  0
  -25.2076  -11.4544   20.0695 C   0  0  0  0  0  0  0  0  0  0  0  0
  -26.2021  -10.5295   18.0713 C   0  0  0  0  0  0  0  0  0  0  0  0
  -21.6456  -23.6476   22.8688 C   0  0  0  0  0  0  0  0  0  0  0  0
  -24.6486   -8.1919   20.7596 C   0  0  0  0  0  0  0  0  0  0  0  0
  -27.2733  -17.3683   23.0421 C   0  0  0  0  0  0  0  0  0  0  0  0
  -24.2445   -7.5300   21.9190 C   0  0  0  0  0  0  0  0  0  0  0  0
  -23.1637  -24.2344   21.0883 C   0  0  0  0  0  0  0  0  0  0  0  0
  -27.0061  -19.0435   20.8274 C   0  0  0  0  0  0  0  0  0  0  0  0
  -22.0348   -8.4798   21.6910 C   0  0  0  0  0  0  0  0  0  0  0  0
  -27.2871  -12.3519   19.2284 C   0  0  0  0  0  0  0  0  0  0  0  0
  -29.5905  -13.1047   20.0254 C   0  0  0  0  0  0  0  0  0  0  0  0
  -18.4786  -30.8735   23.3169 C   0  0  0  0  0  0  0  0  0  0  0  0
  -22.7572  -25.8061   22.8840 C   0  0  0  0  0  0  0  0  0  0  0  0
  -19.0224  -29.7742   22.6255 C   0  0  0  0  0  0  0  0  0  0  0  0
  -23.4135  -25.4777   21.6892 C   0  0  0  0  0  0  0  0  0  0  0  0
  -25.8861  -18.4014   21.3553 C   0  0  0  0  0  0  0  0  0  0  0  0
  -28.2598  -18.8480   21.4068 C   0  0  0  0  0  0  0  0  0  0  0  0
  -25.1774  -10.5387   19.0177 C   0  0  0  0  0  0  0  0  0  0  0  0
  -22.2833  -23.3254   21.6744 C   0  0  0  0  0  0  0  0  0  0  0  0
  -23.7459   -8.9979   20.0660 C   0  0  0  0  0  0  0  0  0  0  0  0
  -22.9376   -7.6739   22.3847 C   0  0  0  0  0  0  0  0  0  0  0  0
  -28.3934  -18.0104   22.5142 C   0  0  0  0  0  0  0  0  0  0  0  0
  -22.4389   -9.1418   20.5317 C   0  0  0  0  0  0  0  0  0  0  0  0
  -28.3767  -13.2884   19.3364 C   0  0  0  0  0  0  0  0  0  0  0  0
  -30.2796  -14.2758   19.8253 C   0  0  0  0  0  0  0  0  0  0  0  0
  -30.0537  -11.9762   20.7788 C   0  0  0  0  0  0  0  0  0  0  0  0
  -22.4566  -28.7505   21.7247 C   0  0  0  0  0  0  0  0  0  0  0  0
  -25.6812  -28.5472   21.4369 C   0  0  0  0  0  0  0  0  0  0  0  0
  -28.4437  -26.5666   21.1330 C   0  0  0  0  0  0  0  0  0  0  0  0
  -29.5009  -19.8262   19.4847 C   0  0  0  0  0  0  0  0  0  0  0  0
  -19.0459  -32.2631   23.1690 C   0  0  0  0  0  0  0  0  0  0  0  0
  -23.0243  -27.1213   23.5631 C   0  0  0  0  0  0  0  0  0  0  0  0
  -24.3757  -26.4278   21.0259 C   0  0  0  0  0  0  0  0  0  0  0  0
  -20.4594  -32.2859   22.5932 C   0  0  0  0  0  0  0  0  0  0  0  0
  -30.0611  -17.9381   16.5242 C   0  0  0  0  0  0  0  0  0  0  0  0
  -20.5560  -31.3678   21.3788 C   0  0  0  0  0  0  0  0  0  0  0  0
  -29.7911  -16.5164   17.0154 C   0  0  0  0  0  0  0  0  0  0  0  0
  -29.0860  -18.9480   17.1303 C   0  0  0  0  0  0  0  0  0  0  0  0
  -28.7547  -17.4888   19.1014 C   0  0  0  0  0  0  0  0  0  0  0  0
  -23.8582  -20.6008   21.9860 C   0  0  0  0  0  0  0  0  0  0  0  0
  -22.3180  -19.6134   20.9784 C   0  0  0  0  0  0  0  0  0  0  0  0
  -20.2572  -29.9133   21.7617 C   0  0  1  0  0  0  0  0  0  0  0  0
  -23.5377  -28.1939   22.6074 C   0  0  1  0  0  0  0  0  0  0  0  0
  -29.7563  -16.4605   18.5529 C   0  0  1  0  0  0  0  0  0  0  0  0
  -22.3638  -20.9161   21.7961 C   0  0  0  0  0  0  0  0  0  1  0  0
  -30.9373  -26.6892   20.8799 C   0  0  0  0  0  0  0  0  0  0  0  0
  -25.3430  -29.3229   18.5054 C   0  0  0  0  0  0  0  0  0  0  0  0
  -27.6764  -28.5138   18.0944 C   0  0  0  0  0  0  0  0  0  0  0  0
  -27.2749  -30.4159   19.6575 C   0  0  0  0  0  0  0  0  0  0  0  0
  -30.4053  -20.0775   21.7856 C   0  0  0  0  0  0  0  0  0  0  0  0
  -28.8893  -25.1086   23.6697 C   0  0  0  0  0  0  0  0  0  0  0  0
  -24.5372  -18.6117   20.7330 C   0  0  0  0  0  0  0  0  0  0  0  0
  -26.6310  -28.0750   20.3628 C   0  0  1  0  0  0  0  0  0  0  0  0
  -29.7776  -26.5803   21.8576 C   0  0  2  0  0  0  0  0  0  0  0  0
  -26.7118  -29.0646   19.1662 C   0  0  0  0  0  0  0  0  0  0  0  0
  -28.2962  -14.4824   18.7431 N   0  0  0  0  0  0  0  0  0  0  0  0
  -29.4681  -15.0595   19.0588 N   0  0  0  0  0  0  0  0  0  0  0  0
  -24.5989  -27.7039   21.7254 N   0  0  0  0  0  0  0  0  0  0  0  0
  -29.0569  -18.8298   18.5950 N   0  0  0  0  0  0  0  0  0  0  0  0
  -31.4944  -14.7014   20.2320 N   0  0  0  0  0  0  0  0  0  0  0  0
  -29.2195  -10.8548   20.8835 N   0  0  0  0  0  0  0  0  0  0  0  0
  -21.4025  -29.3172   22.4155 N   0  0  0  0  0  0  0  0  0  0  0  0
  -27.9082  -27.8326   21.0250 N   0  0  0  0  0  0  0  0  0  0  0  0
  -29.4186  -19.5128   20.8585 N   0  0  0  0  0  0  0  0  0  0  0  0
  -23.5511  -19.1937   21.6697 N   0  3  0  0  0  0  0  0  0  0  0  0
  -29.9484  -25.3310   22.6520 N   0  3  0  0  0  0  0  0  0  0  0  0
  -31.1673  -11.9690   21.3561 O   0  0  0  0  0  0  0  0  0  0  0  0
  -22.5710  -28.6729   20.5071 O   0  0  0  0  0  0  0  0  0  0  0  0
  -25.8957  -29.6214   22.0043 O   0  0  0  0  0  0  0  0  0  0  0  0
  -27.9301  -25.5364   20.7024 O   0  0  0  0  0  0  0  0  0  0  0  0
  -29.9598  -20.9021   19.0826 O   0  0  0  0  0  0  0  0  0  0  0  0
  -24.1484   -9.6538   18.9147 O   0  0  0  0  0  0  0  0  0  0  0  0
  -22.0518  -22.1226   21.0814 O   0  0  0  0  0  0  0  0  0  1  0  0
  -22.5492   -7.0369   23.4971 F   0  0  0  0  0  0  0  0  0  0  0  0
  -29.5932  -17.8155   23.0797 F   0  0  0  0  0  0  0  0  0  0  0  0
  -21.5668   -9.9138   19.8689 F   0  0  0  0  0  0  0  0  0  0  0  0
  1  2  1  0  0  0  0
  1  5  2  0  0  0  0
  2  6  2  0  0  0  0
  3  9  2  0  0  0  0
  3 18  1  0  0  0  0
  4 10  1  0  0  0  0
  4 18  2  0  0  0  0
  5 20  1  0  0  0  0
  6 22  1  0  0  0  0
  7 11  2  0  0  0  0
  7 21  1  0  0  0  0
  8 13  2  0  0  0  0
  8 24  1  0  0  0  0
  9 26  1  0  0  0  0
 10 26  2  0  0  0  0
 11 27  1  0  0  0  0
 12 14  2  0  0  0  0
 12 28  1  0  0  0  0
 13 30  1  0  0  0  0
 14 29  1  0  0  0  0
 15 23  1  0  0  0  0
 15 27  2  0  0  0  0
 16 24  2  0  0  0  0
 16 25  1  0  0  0  0
 17 29  2  0  0  0  0
 17 31  1  0  0  0  0
 18 32  1  0  0  0  0
 19 32  1  0  0  0  0
 19 33  2  0  0  0  0
 19 34  1  0  0  0  0
 20 22  2  0  0  0  0
 20 39  1  0  0  0  0
 21 23  2  0  0  0  0
 21 40  1  0  0  0  0
 22 50  1  0  0  0  0
 23 41  1  0  0  0  0
 24 60  1  0  0  0  0
 25 30  2  0  0  0  0
 25 72  1  0  0  0  0
 26 80  1  0  0  0  0
 27 81  1  0  0  0  0
 28 31  2  0  0  0  0
 28 80  1  0  0  0  0
 29 82  1  0  0  0  0
 30 83  1  0  0  0  0
 31 84  1  0  0  0  0
 32 64  2  0  0  0  0
 33 65  1  0  0  0  0
 33 68  1  0  0  0  0
 34 69  1  0  0  0  0
 34 75  2  0  0  0  0
 35 51  1  0  0  0  0
 35 70  1  0  0  0  0
 35 76  2  0  0  0  0
 36 61  1  0  0  0  0
 36 66  1  0  0  0  0
 36 77  2  0  0  0  0
 37 62  1  0  0  0  0
 37 71  1  0  0  0  0
 37 78  2  0  0  0  0
 38 67  1  0  0  0  0
 38 72  1  0  0  0  0
 38 79  2  0  0  0  0
 39 42  1  0  0  0  0
 40 51  1  0  0  0  0
 41 66  1  0  0  0  0
 42 44  1  0  0  0  0
 43 45  1  0  0  0  0
 43 46  1  0  0  0  0
 44 50  1  0  0  0  0
 45 52  1  0  0  0  0
 46 67  1  0  0  0  0
 47 52  1  0  0  0  0
 47 67  1  0  0  0  0
 48 53  1  0  0  0  0
 48 73  1  0  0  0  0
 49 53  1  0  0  0  0
 49 73  1  0  0  0  0
 50 70  1  0  0  0  0
 51 66  1  0  0  0  0
 52 65  1  0  0  0  0
 53 81  1  0  0  0  0
 54 62  1  0  0  0  0
 55 63  1  0  0  0  0
 56 63  1  0  0  0  0
 57 63  1  0  0  0  0
 58 72  1  0  0  0  0
 59 74  1  0  0  0  0
 60 73  1  0  0  0  0
 61 63  1  0  0  0  0
 61 71  1  0  0  0  0
 62 74  1  0  0  0  0
 64 65  1  0  0  0  0
M  CHG  2  73   1  74   1
M  ISO  4  38 100  53 101  72 100  81 101
M  END
> <Batch ID>
0029

> <Smiles>
CNC(C)C(=O)NC(C(=O)N1Cc2cc([101O:1][101CH:1]3CN(Cc4ccc(F)c([100N:0](C)[100C:0](=O)N5CCCC(n6nc(-c7ccc(Oc8ccc(F)cc8F)cc7)c(C(N)=O)c6N)C5)c4)C3)ccc2CC1C(=O)NC1CCCc2ccccc21)C(C)(C)C

> <Shape>
0.245

> <Color>
0.074

> <Negative vol penalty>
0.000

$$$$

  -OEChem-04042321343D

 86 95  0     1  0  0  0  0  0999 V2000
  -20.0537  -31.4972   28.5053 C   0  0  0  0  0  0  0  0  0  0  0  0
  -20.8924  -30.3875   28.4783 C   0  0  0  0  0  0  0  0  0  0  0  0
  -23.0507   -9.9818   21.4631 C   0  0  0  0  0  0  0  0  0  0  0  0
  -23.8604  -10.8037   23.5859 C   0  0  0  0  0  0  0  0  0  0  0  0
  -19.5997  -32.0556   27.3111 C   0  0  0  0  0  0  0  0  0  0  0  0
  -21.2766  -29.8349   27.2571 C   0  0  0  0  0  0  0  0  0  0  0  0
  -26.6672  -27.2560   25.9166 C   0  0  0  0  0  0  0  0  0  0  0  0
  -22.3130   -9.0001   22.1246 C   0  0  0  0  0  0  0  0  0  0  0  0
  -23.1226   -9.8221   24.2474 C   0  0  0  0  0  0  0  0  0  0  0  0
  -27.0839  -25.9265   25.8649 C   0  0  0  0  0  0  0  0  0  0  0  0
  -22.8929   -6.0016   23.5727 C   0  0  0  0  0  0  0  0  0  0  0  0
  -22.9398   -4.7038   23.0639 C   0  0  0  0  0  0  0  0  0  0  0  0
  -26.6856  -25.9005   23.4859 C   0  0  0  0  0  0  0  0  0  0  0  0
  -28.9850  -19.5292   22.9685 C   0  0  0  0  0  0  0  0  0  0  0  0
  -20.5481   -4.7503   22.7250 C   0  0  0  0  0  0  0  0  0  0  0  0
  -23.8245  -10.8836   22.1938 C   0  0  0  0  0  0  0  0  0  0  0  0
  -24.1625  -13.1958   21.1705 C   0  0  0  0  0  0  0  0  0  0  0  0
  -19.9864  -31.5154   26.0745 C   0  0  0  0  0  0  0  0  0  0  0  0
  -26.2454  -27.9154   24.7531 C   0  0  0  0  0  0  0  0  0  0  0  0
  -20.8263  -30.3857   26.0453 C   0  0  0  0  0  0  0  0  0  0  0  0
  -26.2664  -27.2391   23.5250 C   0  0  0  0  0  0  0  0  0  0  0  0
  -28.5699  -20.2254   20.6926 C   0  0  0  0  0  0  0  0  0  0  0  0
  -29.9708  -18.3068   21.1324 C   0  0  0  0  0  0  0  0  0  0  0  0
  -28.3797  -20.4008   22.0632 C   0  0  0  0  0  0  0  0  0  0  0  0
  -29.3655  -19.1784   20.2271 C   0  0  0  0  0  0  0  0  0  0  0  0
  -22.3489   -8.9202   23.5167 C   0  0  0  0  0  0  0  0  0  0  0  0
  -27.0905  -25.2477   24.6499 C   0  0  0  0  0  0  0  0  0  0  0  0
  -21.6737   -6.6738   23.6578 C   0  0  0  0  0  0  0  0  0  0  0  0
  -21.7674   -4.0781   22.6400 C   0  0  0  0  0  0  0  0  0  0  0  0
  -20.5013   -6.0481   23.2339 C   0  0  0  0  0  0  0  0  0  0  0  0
  -29.7806  -18.4822   22.5031 C   0  0  0  0  0  0  0  0  0  0  0  0
  -24.5873  -11.8976   21.5110 C   0  0  0  0  0  0  0  0  0  0  0  0
  -25.2462  -13.7575   20.5407 C   0  0  0  0  0  0  0  0  0  0  0  0
  -22.9013  -13.8368   21.4029 C   0  0  0  0  0  0  0  0  0  0  0  0
  -23.5253  -29.2499   23.7919 C   0  0  0  0  0  0  0  0  0  0  0  0
  -25.3272  -30.1721   21.2571 C   0  0  0  0  0  0  0  0  0  0  0  0
  -28.0709  -29.6281   19.3020 C   0  0  0  0  0  0  0  0  0  0  0  0
  -30.7323  -14.7359   20.2393 C   0  0  0  0  0  0  0  0  0  0  0  0
  -19.4320  -32.1245   24.8110 C   0  0  0  0  0  0  0  0  0  0  0  0
  -25.8242  -29.3578   24.8213 C   0  0  0  0  0  0  0  0  0  0  0  0
  -25.8426  -27.9080   22.2439 C   0  0  0  0  0  0  0  0  0  0  0  0
  -20.1872  -31.7077   23.5516 C   0  0  0  0  0  0  0  0  0  0  0  0
  -29.5441  -11.6634   18.8885 C   0  0  0  0  0  0  0  0  0  0  0  0
  -20.4242  -30.2008   23.5453 C   0  0  0  0  0  0  0  0  0  0  0  0
  -28.1165  -11.5548   19.4272 C   0  0  0  0  0  0  0  0  0  0  0  0
  -30.4870  -12.2927   19.9116 C   0  0  0  0  0  0  0  0  0  0  0  0
  -28.6156  -13.4858   20.9831 C   0  0  0  0  0  0  0  0  0  0  0  0
  -27.7926  -22.8309   22.3467 C   0  0  0  0  0  0  0  0  0  0  0  0
  -27.0562  -21.5657   23.8582 C   0  0  0  0  0  0  0  0  0  0  0  0
  -21.2851  -29.7728   24.7400 C   0  0  1  0  0  0  0  0  0  0  0  0
  -24.9273  -29.7738   23.6594 C   0  0  1  0  0  0  0  0  0  0  0  0
  -27.6161  -12.9084   19.9663 C   0  0  2  0  0  0  0  0  0  0  0  0
  -26.9312  -23.0731   23.5941 C   0  0  0  0  0  0  0  0  0  1  0  0
  -27.9185  -21.1625   19.7230 C   0  0  0  0  0  0  0  0  0  0  0  0
  -29.2597  -30.5250   17.2822 C   0  0  0  0  0  0  0  0  0  0  0  0
  -23.2161  -28.9050   19.4550 C   0  0  0  0  0  0  0  0  0  0  0  0
  -24.8732  -28.9783   17.5797 C   0  0  0  0  0  0  0  0  0  0  0  0
  -24.1006  -31.0987   18.6427 C   0  0  0  0  0  0  0  0  0  0  0  0
  -30.1477  -20.0007   18.0051 C   0  0  0  0  0  0  0  0  0  0  0  0
  -30.5176  -30.2165   20.8597 C   0  0  0  0  0  0  0  0  0  0  0  0
  -30.8241  -17.1862   20.6225 C   0  0  0  0  0  0  0  0  0  0  0  0
  -25.6672  -29.5744   19.9132 C   0  0  1  0  0  0  0  0  0  0  0  0
  -29.1514  -30.5680   18.7985 C   0  0  2  0  0  0  0  0  0  0  0  0
  -24.4705  -29.6256   18.9219 C   0  0  0  0  0  0  0  0  0  0  0  0
  -25.8428  -11.6490   21.1290 N   0  0  0  0  0  0  0  0  0  0  0  0
  -26.2162  -12.7987   20.5418 N   0  0  0  0  0  0  0  0  0  0  0  0
  -27.5900  -21.4381   22.5468 N   0  0  0  0  0  0  0  0  0  0  0  0
  -25.4331  -29.3171   22.3633 N   0  0  0  0  0  0  0  0  0  0  0  0
  -29.9554  -13.5743   20.3817 N   0  0  0  0  0  0  0  0  0  0  0  0
  -25.4544  -14.9730   19.9914 N   0  0  0  0  0  0  0  0  0  0  0  0
  -21.8973  -13.1161   22.0640 N   0  0  0  0  0  0  0  0  0  0  0  0
  -29.5575  -19.0014   18.8366 N   0  0  0  0  0  0  0  0  0  0  0  0
  -22.6775  -30.0832   24.4965 N   0  0  0  0  0  0  0  0  0  0  0  0
  -26.8603  -30.2721   19.4462 N   0  0  0  0  0  0  0  0  0  0  0  0
  -30.1512  -15.9090   20.7050 N   0  0  0  0  0  0  0  0  0  0  0  0
  -30.4737  -30.1934   19.3749 N   0  3  0  0  0  0  0  0  0  0  0  0
  -22.6658  -15.0081   21.0206 O   0  0  0  0  0  0  0  0  0  0  0  0
  -23.2339  -28.1703   23.2907 O   0  0  0  0  0  0  0  0  0  0  0  0
  -24.9872  -31.3560   21.3238 O   0  0  0  0  0  0  0  0  0  0  0  0
  -28.2791  -28.4404   19.5398 O   0  0  0  0  0  0  0  0  0  0  0  0
  -31.8580  -14.7289   19.7298 O   0  0  0  0  0  0  0  0  0  0  0  0
  -21.6289   -7.9626   24.1625 O   0  0  0  0  0  0  0  0  0  0  0  0
  -27.4962  -23.9498   24.5968 O   0  0  0  0  0  0  0  0  0  1  0  0
  -21.8128   -2.8323   22.1499 F   0  0  0  0  0  0  0  0  0  0  0  0
  -19.3271   -6.6893   23.3121 F   0  0  0  0  0  0  0  0  0  0  0  0
  -30.5115  -17.4253   23.6565 Cl  0  0  0  0  0  0  0  0  0  0  0  0
  1  2  1  0  0  0  0
  1  5  2  0  0  0  0
  2  6  2  0  0  0  0
  3  8  2  0  0  0  0
  3 16  1  0  0  0  0
  4  9  1  0  0  0  0
  4 16  2  0  0  0  0
  5 18  1  0  0  0  0
  6 20  1  0  0  0  0
  7 10  2  0  0  0  0
  7 19  1  0  0  0  0
  8 26  1  0  0  0  0
  9 26  2  0  0  0  0
 10 27  1  0  0  0  0
 11 12  2  0  0  0  0
 11 28  1  0  0  0  0
 12 29  1  0  0  0  0
 13 21  1  0  0  0  0
 13 27  2  0  0  0  0
 14 24  1  0  0  0  0
 14 31  2  0  0  0  0
 15 29  2  0  0  0  0
 15 30  1  0  0  0  0
 16 32  1  0  0  0  0
 17 32  1  0  0  0  0
 17 33  2  0  0  0  0
 17 34  1  0  0  0  0
 18 20  2  0  0  0  0
 18 39  1  0  0  0  0
 19 21  2  0  0  0  0
 19 40  1  0  0  0  0
 20 50  1  0  0  0  0
 21 41  1  0  0  0  0
 22 24  2  0  0  0  0
 22 25  1  0  0  0  0
 22 54  1  0  0  0  0
 23 25  2  0  0  0  0
 23 31  1  0  0  0  0
 23 61  1  0  0  0  0
 24 67  1  0  0  0  0
 25 72  1  0  0  0  0
 26 82  1  0  0  0  0
 27 83  1  0  0  0  0
 28 30  2  0  0  0  0
 28 82  1  0  0  0  0
 29 84  1  0  0  0  0
 30 85  1  0  0  0  0
 31 86  1  0  0  0  0
 32 65  2  0  0  0  0
 33 66  1  0  0  0  0
 33 70  1  0  0  0  0
 34 71  1  0  0  0  0
 34 77  2  0  0  0  0
 35 51  1  0  0  0  0
 35 73  1  0  0  0  0
 35 78  2  0  0  0  0
 36 62  1  0  0  0  0
 36 68  1  0  0  0  0
 36 79  2  0  0  0  0
 37 63  1  0  0  0  0
 37 74  1  0  0  0  0
 37 80  2  0  0  0  0
 38 69  1  0  0  0  0
 38 75  1  0  0  0  0
 38 81  2  0  0  0  0
 39 42  1  0  0  0  0
 40 51  1  0  0  0  0
 41 68  1  0  0  0  0
 42 44  1  0  0  0  0
 43 45  1  0  0  0  0
 43 46  1  0  0  0  0
 44 50  1  0  0  0  0
 45 52  1  0  0  0  0
 46 69  1  0  0  0  0
 47 52  1  0  0  0  0
 47 69  1  0  0  0  0
 48 53  1  0  0  0  0
 48 67  1  0  0  0  0
 49 53  1  0  0  0  0
 49 67  1  0  0  0  0
 50 73  1  0  0  0  0
 51 68  1  0  0  0  0
 52 66  1  0  0  0  0
 53 83  1  0  0  0  0
 55 63  1  0  0  0  0
 56 64  1  0  0  0  0
 57 64  1  0  0  0  0
 58 64  1  0  0  0  0
 59 72  1  0  0  0  0
 60 76  1  0  0  0  0
 61 75  1  0  0  0  0
 62 64  1  0  0  0  0
 62 74  1  0  0  0  0
 63 76  1  0  0  0  0
 65 66  1  0  0  0  0
M  CHG  1  76   1
M  ISO  4  38 100  53 101  75 100  83 101
M  END
> <Batch ID>
0029

> <Smiles>
CNc1c(C)c(N2C[101CH:1]([101O:1]c3ccc4c(c3)CN(C(=O)C(NC(=O)C(C)NC)C(C)(C)C)C(C(=O)NC3CCCc5ccccc53)C4)C2)cc(Cl)c1C[100NH:0][100C:0](=O)N1CCCC(n2nc(-c3ccc(Oc4ccc(F)cc4F)cc3)c(C(N)=O)c2N)C1

> <Shape>
0.264

> <Color>
0.167

> <Negative vol penalty>
0.000

$$$$

  -OEChem-04042321343D

 87 97  0     1  0  0  0  0  0999 V2000
  -29.2545  -36.7291   22.8716 C   0  0  0  0  0  0  0  0  0  0  0  0
  -29.5325  -35.4791   22.3278 C   0  0  0  0  0  0  0  0  0  0  0  0
  -25.7353  -21.2847   22.5313 C   0  0  0  0  0  0  0  0  0  0  0  0
  -22.8264  -10.2673   20.1383 C   0  0  0  0  0  0  0  0  0  0  0  0
  -24.2731   -9.8014   22.0164 C   0  0  0  0  0  0  0  0  0  0  0  0
  -28.2525  -36.8631   23.8317 C   0  0  0  0  0  0  0  0  0  0  0  0
  -28.8092  -34.3622   22.7447 C   0  0  0  0  0  0  0  0  0  0  0  0
  -27.1737  -29.5498   19.3282 C   0  0  0  0  0  0  0  0  0  0  0  0
  -29.5431  -20.2100   21.0843 C   0  0  0  0  0  0  0  0  0  0  0  0
  -28.9425  -21.3847   20.6416 C   0  0  0  0  0  0  0  0  0  0  0  0
  -22.3919   -8.9418   20.1442 C   0  0  0  0  0  0  0  0  0  0  0  0
  -23.8385   -8.4759   22.0223 C   0  0  0  0  0  0  0  0  0  0  0  0
  -27.7242  -28.2782   19.1744 C   0  0  0  0  0  0  0  0  0  0  0  0
  -22.8417   -5.0586   22.7613 C   0  0  0  0  0  0  0  0  0  0  0  0
  -25.0774  -20.4673   23.4508 C   0  0  0  0  0  0  0  0  0  0  0  0
  -22.5191   -4.4865   23.9918 C   0  0  0  0  0  0  0  0  0  0  0  0
  -26.9389  -18.9305   23.4184 C   0  0  0  0  0  0  0  0  0  0  0  0
  -26.1727  -27.4155   20.8077 C   0  0  0  0  0  0  0  0  0  0  0  0
  -20.8194   -6.1701   24.3290 C   0  0  0  0  0  0  0  0  0  0  0  0
  -27.0049  -20.9360   22.0424 C   0  0  0  0  0  0  0  0  0  0  0  0
  -27.6156  -19.7413   22.4926 C   0  0  0  0  0  0  0  0  0  0  0  0
  -23.7671  -10.6970   21.0744 C   0  0  0  0  0  0  0  0  0  0  0  0
  -23.6540  -13.1486   21.7707 C   0  0  0  0  0  0  0  0  0  0  0  0
  -27.5100  -35.7489   24.2535 C   0  0  0  0  0  0  0  0  0  0  0  0
  -26.1240  -29.7664   20.2324 C   0  0  0  0  0  0  0  0  0  0  0  0
  -27.7972  -34.4812   23.7124 C   0  0  0  0  0  0  0  0  0  0  0  0
  -25.6088  -28.6903   20.9692 C   0  0  0  0  0  0  0  0  0  0  0  0
  -28.8852  -19.3926   22.0038 C   0  0  0  0  0  0  0  0  0  0  0  0
  -27.6816  -21.7466   21.1166 C   0  0  0  0  0  0  0  0  0  0  0  0
  -22.8980   -8.0462   21.0861 C   0  0  0  0  0  0  0  0  0  0  0  0
  -27.2257  -27.2114   19.9163 C   0  0  0  0  0  0  0  0  0  0  0  0
  -22.1531   -6.1865   22.3146 C   0  0  0  0  0  0  0  0  0  0  0  0
  -25.6781  -19.2925   23.8935 C   0  0  0  0  0  0  0  0  0  0  0  0
  -21.5080   -5.0422   24.7757 C   0  0  0  0  0  0  0  0  0  0  0  0
  -21.1420   -6.7422   23.0984 C   0  0  0  0  0  0  0  0  0  0  0  0
  -24.2167  -12.0659   21.0685 C   0  0  0  0  0  0  0  0  0  0  0  0
  -24.4402  -14.2229   21.4327 C   0  0  0  0  0  0  0  0  0  0  0  0
  -22.5220  -13.1803   22.6500 C   0  0  0  0  0  0  0  0  0  0  0  0
  -25.7443  -31.5333   22.8473 C   0  0  0  0  0  0  0  0  0  0  0  0
  -22.6766  -30.5024   22.6265 C   0  0  0  0  0  0  0  0  0  0  0  0
  -20.4873  -28.1446   21.4887 C   0  0  0  0  0  0  0  0  0  0  0  0
  -29.4632  -16.5012   20.5815 C   0  0  0  0  0  0  0  0  0  0  0  0
  -26.4686  -35.9352   25.3285 C   0  0  0  0  0  0  0  0  0  0  0  0
  -25.5232  -31.1387   20.3671 C   0  0  0  0  0  0  0  0  0  0  0  0
  -24.4693  -28.8660   21.9383 C   0  0  0  0  0  0  0  0  0  0  0  0
  -25.4947  -34.7653   25.4422 C   0  0  0  0  0  0  0  0  0  0  0  0
  -28.0044  -14.7046   17.8758 C   0  0  0  0  0  0  0  0  0  0  0  0
  -26.2493  -33.4397   25.4343 C   0  0  0  0  0  0  0  0  0  0  0  0
  -26.8471  -13.9429   18.5243 C   0  0  0  0  0  0  0  0  0  0  0  0
  -29.2129  -14.7929   18.8052 C   0  0  0  0  0  0  0  0  0  0  0  0
  -27.7692  -14.5822   20.7914 C   0  0  0  0  0  0  0  0  0  0  0  0
  -27.3402  -23.5237   19.3684 C   0  0  0  0  0  0  0  0  0  0  0  0
  -27.0044  -24.1589   21.3461 C   0  0  0  0  0  0  0  0  0  0  0  0
  -27.0177  -33.2501   24.1208 C   0  0  1  0  0  0  0  0  0  0  0  0
  -24.7995  -31.3467   21.6939 C   0  0  1  0  0  0  0  0  0  0  0  0
  -26.5076  -14.5153   19.9137 C   0  0  2  0  0  0  0  0  0  0  0  0
  -26.8933  -24.8575   19.9833 C   0  0  0  0  0  0  0  0  0  1  0  0
  -18.0484  -27.5537   21.4976 C   0  0  0  0  0  0  0  0  0  0  0  0
  -22.9198  -29.5522   25.5158 C   0  0  0  0  0  0  0  0  0  0  0  0
  -20.8671  -28.1640   25.1587 C   0  0  0  0  0  0  0  0  0  0  0  0
  -20.7418  -30.6472   24.9576 C   0  0  0  0  0  0  0  0  0  0  0  0
  -20.3188  -28.3050   18.5383 C   0  0  0  0  0  0  0  0  0  0  0  0
  -29.5875  -18.1434   22.4381 C   0  0  0  0  0  0  0  0  0  0  0  0
  -21.9074  -29.3147   23.1526 C   0  0  1  0  0  0  0  0  0  0  0  0
  -19.1651  -28.2692   20.7534 C   0  0  2  0  0  0  0  0  0  0  0  0
  -21.6318  -29.4163   24.6794 C   0  0  0  0  0  0  0  0  0  0  0  0
  -25.2782  -12.4201   20.3393 N   0  0  0  0  0  0  0  0  0  0  0  0
  -25.3889  -13.7374   20.5815 N   0  0  0  0  0  0  0  0  0  0  0  0
  -27.1262  -22.9298   20.6422 N   0  0  0  0  0  0  0  0  0  0  0  0
  -23.9199  -30.2281   22.0392 N   0  0  0  0  0  0  0  0  0  0  0  0
  -28.8235  -15.3450   20.1050 N   0  0  0  0  0  0  0  0  0  0  0  0
  -24.4057  -15.5260   21.7835 N   0  0  0  0  0  0  0  0  0  0  0  0
  -21.8272  -11.9866   22.8881 N   0  0  0  0  0  0  0  0  0  0  0  0
  -26.1171  -32.8464   23.0623 N   0  0  0  0  0  0  0  0  0  0  0  0
  -20.7043  -29.2124   22.3338 N   0  0  0  0  0  0  0  0  0  0  0  0
  -29.0298  -16.9618   21.8188 N   0  0  0  0  0  0  0  0  0  0  0  0
  -19.2736  -27.6797   19.3890 N   0  3  0  0  0  0  0  0  0  0  0  0
  -22.1280  -14.2391   23.1952 O   0  0  0  0  0  0  0  0  0  0  0  0
  -26.1069  -30.5584   23.4951 O   0  0  0  0  0  0  0  0  0  0  0  0
  -22.1890  -31.6311   22.7263 O   0  0  0  0  0  0  0  0  0  0  0  0
  -21.2495  -27.1933   21.3322 O   0  0  0  0  0  0  0  0  0  0  0  0
  -30.3507  -17.0833   19.9486 O   0  0  0  0  0  0  0  0  0  0  0  0
  -22.4740   -6.7528   21.0923 O   0  0  0  0  0  0  0  0  0  0  0  0
  -27.7617  -25.9693   19.7686 O   0  0  0  0  0  0  0  0  0  1  0  0
  -25.0453  -18.5086   24.7765 F   0  0  0  0  0  0  0  0  0  0  0  0
  -21.1973   -4.4918   25.9567 F   0  0  0  0  0  0  0  0  0  0  0  0
  -20.4763   -7.8250   22.6741 F   0  0  0  0  0  0  0  0  0  0  0  0
  1  2  1  0  0  0  0
  1  6  2  0  0  0  0
  2  7  2  0  0  0  0
  3 15  2  0  0  0  0
  3 20  1  0  0  0  0
  4 11  2  0  0  0  0
  4 22  1  0  0  0  0
  5 12  1  0  0  0  0
  5 22  2  0  0  0  0
  6 24  1  0  0  0  0
  7 26  1  0  0  0  0
  8 13  2  0  0  0  0
  8 25  1  0  0  0  0
  9 10  2  0  0  0  0
  9 28  1  0  0  0  0
 10 29  1  0  0  0  0
 11 30  1  0  0  0  0
 12 30  2  0  0  0  0
 13 31  1  0  0  0  0
 14 16  2  0  0  0  0
 14 32  1  0  0  0  0
 15 33  1  0  0  0  0
 16 34  1  0  0  0  0
 17 21  1  0  0  0  0
 17 33  2  0  0  0  0
 18 27  1  0  0  0  0
 18 31  2  0  0  0  0
 19 34  2  0  0  0  0
 19 35  1  0  0  0  0
 20 21  1  0  0  0  0
 20 29  2  0  0  0  0
 21 28  2  0  0  0  0
 22 36  1  0  0  0  0
 23 36  1  0  0  0  0
 23 37  2  0  0  0  0
 23 38  1  0  0  0  0
 24 26  2  0  0  0  0
 24 43  1  0  0  0  0
 25 27  2  0  0  0  0
 25 44  1  0  0  0  0
 26 54  1  0  0  0  0
 27 45  1  0  0  0  0
 28 63  1  0  0  0  0
 29 69  1  0  0  0  0
 30 83  1  0  0  0  0
 31 84  1  0  0  0  0
 32 35  2  0  0  0  0
 32 83  1  0  0  0  0
 33 85  1  0  0  0  0
 34 86  1  0  0  0  0
 35 87  1  0  0  0  0
 36 67  2  0  0  0  0
 37 68  1  0  0  0  0
 37 72  1  0  0  0  0
 38 73  1  0  0  0  0
 38 78  2  0  0  0  0
 39 55  1  0  0  0  0
 39 74  1  0  0  0  0
 39 79  2  0  0  0  0
 40 64  1  0  0  0  0
 40 70  1  0  0  0  0
 40 80  2  0  0  0  0
 41 65  1  0  0  0  0
 41 75  1  0  0  0  0
 41 81  2  0  0  0  0
 42 71  1  0  0  0  0
 42 76  1  0  0  0  0
 42 82  2  0  0  0  0
 43 46  1  0  0  0  0
 44 55  1  0  0  0  0
 45 70  1  0  0  0  0
 46 48  1  0  0  0  0
 47 49  1  0  0  0  0
 47 50  1  0  0  0  0
 48 54  1  0  0  0  0
 49 56  1  0  0  0  0
 50 71  1  0  0  0  0
 51 56  1  0  0  0  0
 51 71  1  0  0  0  0
 52 57  1  0  0  0  0
 52 69  1  0  0  0  0
 53 57  1  0  0  0  0
 53 69  1  0  0  0  0
 54 74  1  0  0  0  0
 55 70  1  0  0  0  0
 56 68  1  0  0  0  0
 57 84  1  0  0  0  0
 58 65  1  0  0  0  0
 59 66  1  0  0  0  0
 60 66  1  0  0  0  0
 61 66  1  0  0  0  0
 62 77  1  0  0  0  0
 63 76  1  0  0  0  0
 64 66  1  0  0  0  0
 64 75  1  0  0  0  0
 65 77  1  0  0  0  0
 67 68  1  0  0  0  0
M  CHG  1  77   1
M  ISO  4  42 100  57 101  76 100  84 101
M  END
> <Batch ID>
0029

> <Smiles>
CNC(C)C(=O)NC(C(=O)N1Cc2cc([101O:1][101CH:1]3CN(c4ccc(C[100NH:0][100C:0](=O)N5CCCC(n6nc(-c7ccc(Oc8ccc(F)cc8F)cc7)c(C(N)=O)c6N)C5)c5cc(F)ccc45)C3)ccc2CC1C(=O)NC1CCCc2ccccc21)C(C)(C)C

> <Shape>
0.338

> <Color>
0.133

> <Negative vol penalty>
0.000

$$$$

  -OEChem-04042321343D

 85 94  0     1  0  0  0  0  0999 V2000
  -26.5451  -36.3808   20.1305 C   0  0  0  0  0  0  0  0  0  0  0  0
  -27.0944  -35.1093   20.2616 C   0  0  0  0  0  0  0  0  0  0  0  0
  -24.2010  -13.6269   20.4627 C   0  0  0  0  0  0  0  0  0  0  0  0
  -26.4711  -13.4705   21.2746 C   0  0  0  0  0  0  0  0  0  0  0  0
  -25.4099  -36.7273   20.8621 C   0  0  0  0  0  0  0  0  0  0  0  0
  -26.5092  -34.1840   21.1252 C   0  0  0  0  0  0  0  0  0  0  0  0
  -26.1000  -29.5814   19.0529 C   0  0  0  0  0  0  0  0  0  0  0  0
  -31.0923  -24.1500   23.5565 C   0  0  0  0  0  0  0  0  0  0  0  0
  -24.1882  -12.2511   20.2335 C   0  0  0  0  0  0  0  0  0  0  0  0
  -26.4583  -12.0947   21.0454 C   0  0  0  0  0  0  0  0  0  0  0  0
  -27.2530  -28.7989   19.0073 C   0  0  0  0  0  0  0  0  0  0  0  0
  -23.8192   -9.4258   22.0541 C   0  0  0  0  0  0  0  0  0  0  0  0
  -22.6948   -8.7105   22.4659 C   0  0  0  0  0  0  0  0  0  0  0  0
  -30.1933  -23.3255   24.2329 C   0  0  0  0  0  0  0  0  0  0  0  0
  -26.4992  -27.5854   20.9510 C   0  0  0  0  0  0  0  0  0  0  0  0
  -30.1661  -23.4279   21.4452 C   0  0  0  0  0  0  0  0  0  0  0  0
  -22.3070   -8.0081   20.1870 C   0  0  0  0  0  0  0  0  0  0  0  0
  -25.3425  -14.2367   20.9832 C   0  0  0  0  0  0  0  0  0  0  0  0
  -24.9808  -16.3271   22.3999 C   0  0  0  0  0  0  0  0  0  0  0  0
  -24.8049  -35.8025   21.7277 C   0  0  0  0  0  0  0  0  0  0  0  0
  -25.1415  -29.3787   20.0562 C   0  0  0  0  0  0  0  0  0  0  0  0
  -25.3656  -34.5189   21.8700 C   0  0  0  0  0  0  0  0  0  0  0  0
  -25.3337  -28.3650   21.0057 C   0  0  0  0  0  0  0  0  0  0  0  0
  -31.0787  -24.2013   22.1626 C   0  0  0  0  0  0  0  0  0  0  0  0
  -29.2671  -22.6033   22.1216 C   0  0  0  0  0  0  0  0  0  0  0  0
  -25.3168  -11.4850   20.5249 C   0  0  0  0  0  0  0  0  0  0  0  0
  -27.4541  -27.8027   19.9581 C   0  0  0  0  0  0  0  0  0  0  0  0
  -24.1875   -9.4324   20.7087 C   0  0  0  0  0  0  0  0  0  0  0  0
  -21.9388   -8.0016   21.5324 C   0  0  0  0  0  0  0  0  0  0  0  0
  -23.4314   -8.7234   19.7752 C   0  0  0  0  0  0  0  0  0  0  0  0
  -29.2807  -22.5521   23.5154 C   0  0  0  0  0  0  0  0  0  0  0  0
  -25.3566  -15.6579   21.2197 C   0  0  0  0  0  0  0  0  0  0  0  0
  -25.1745  -17.6571   22.1170 C   0  0  0  0  0  0  0  0  0  0  0  0
  -31.4692  -26.1739   19.2335 C   0  0  0  0  0  0  0  0  0  0  0  0
  -24.4998  -15.7941   23.6409 C   0  0  0  0  0  0  0  0  0  0  0  0
  -23.9565  -31.1472   22.4167 C   0  0  0  0  0  0  0  0  0  0  0  0
  -21.9570  -28.6194   22.7839 C   0  0  0  0  0  0  0  0  0  0  0  0
  -21.3840  -25.2874   22.3194 C   0  0  0  0  0  0  0  0  0  0  0  0
  -28.2348  -21.7857   19.9740 C   0  0  0  0  0  0  0  0  0  0  0  0
  -23.6067  -36.2385   22.5333 C   0  0  0  0  0  0  0  0  0  0  0  0
  -23.8905  -30.2135   20.0758 C   0  0  0  0  0  0  0  0  0  0  0  0
  -24.3254  -28.0936   22.0912 C   0  0  0  0  0  0  0  0  0  0  0  0
  -30.6991  -27.4063   18.8178 C   0  0  0  0  0  0  0  0  0  0  0  0
  -22.8278  -35.0764   23.1440 C   0  0  0  0  0  0  0  0  0  0  0  0
  -26.1413  -19.9842   17.7270 C   0  0  0  0  0  0  0  0  0  0  0  0
  -23.7797  -34.0841   23.8043 C   0  0  0  0  0  0  0  0  0  0  0  0
  -25.7196  -18.7531   18.5324 C   0  0  0  0  0  0  0  0  0  0  0  0
  -27.5840  -20.3894   18.0241 C   0  0  0  0  0  0  0  0  0  0  0  0
  -27.4744  -19.3444   20.2524 C   0  0  0  0  0  0  0  0  0  0  0  0
  -30.5942  -27.1405   21.2093 C   0  0  0  0  0  0  0  0  0  0  0  0
  -24.7451  -33.4792   22.7778 C   0  0  1  0  0  0  0  0  0  0  0  0
  -23.2254  -30.2613   21.4479 C   0  0  1  0  0  0  0  0  0  0  0  0
  -26.0079  -18.9371   20.0353 C   0  0  2  0  0  0  0  0  0  0  0  0
  -29.8270  -27.7138   20.0322 C   0  0  2  0  0  0  0  0  0  1  0  0
  -19.6759  -23.5023   22.7590 C   0  0  0  0  0  0  0  0  0  0  0  0
  -22.7981  -28.5401   25.7159 C   0  0  0  0  0  0  0  0  0  0  0  0
  -21.8363  -26.2329   25.8571 C   0  0  0  0  0  0  0  0  0  0  0  0
  -20.3568  -28.1683   25.3204 C   0  0  0  0  0  0  0  0  0  0  0  0
  -21.0375  -24.7449   19.4307 C   0  0  0  0  0  0  0  0  0  0  0  0
  -32.0463  -25.0892   21.4349 C   0  0  0  0  0  0  0  0  0  0  0  0
  -21.9904  -27.3367   23.5792 C   0  0  1  0  0  0  0  0  0  0  0  0
  -20.1835  -24.5389   21.7688 C   0  0  2  0  0  0  0  0  0  0  0  0
  -21.7655  -27.5756   25.0990 C   0  0  0  0  0  0  0  0  0  0  0  0
  -25.7585  -16.4938   20.2586 N   0  0  0  0  0  0  0  0  0  0  0  0
  -25.6362  -17.7020   20.8344 N   0  0  0  0  0  0  0  0  0  0  0  0
  -31.3692  -26.0728   20.6174 N   0  0  0  0  0  0  0  0  0  0  0  0
  -23.1214  -28.9407   22.0719 N   0  0  0  0  0  0  0  0  0  0  0  0
  -27.7816  -20.5497   19.4664 N   0  0  0  0  0  0  0  0  0  0  0  0
  -24.9932  -18.7809   22.8426 N   0  0  0  0  0  0  0  0  0  0  0  0
  -24.3600  -14.4048   23.7620 N   0  0  0  0  0  0  0  0  0  0  0  0
  -28.3542  -21.8298   21.3626 N   0  0  0  0  0  0  0  0  0  0  0  0
  -24.0790  -32.4583   21.9978 N   0  0  0  0  0  0  0  0  0  0  0  0
  -21.0108  -26.4486   22.9626 N   0  0  0  0  0  0  0  0  0  0  0  0
  -20.5442  -23.8417   20.5020 N   0  3  0  0  0  0  0  0  0  0  0  0
  -32.0899  -25.4530   18.4661 O   0  0  0  0  0  0  0  0  0  0  0  0
  -24.1872  -16.5292   24.6081 O   0  0  0  0  0  0  0  0  0  0  0  0
  -24.3769  -30.6764   23.4671 O   0  0  0  0  0  0  0  0  0  0  0  0
  -20.9331  -29.3073   22.7884 O   0  0  0  0  0  0  0  0  0  0  0  0
  -22.5370  -24.8806   22.1949 O   0  0  0  0  0  0  0  0  0  0  0  0
  -28.4717  -22.7437   19.2336 O   0  0  0  0  0  0  0  0  0  0  0  0
  -25.3046  -10.1424   20.3015 O   0  0  0  0  0  0  0  0  0  0  0  0
  -28.5789  -27.0379   19.9162 O   0  0  0  0  0  0  0  0  0  1  0  0
  -20.8599   -7.3135   21.9283 F   0  0  0  0  0  0  0  0  0  0  0  0
  -23.7810   -8.7250   18.4815 F   0  0  0  0  0  0  0  0  0  0  0  0
  -28.1856  -21.5448   24.3934 Cl  0  0  0  0  0  0  0  0  0  0  0  0
  1  2  1  0  0  0  0
  1  5  2  0  0  0  0
  2  6  2  0  0  0  0
  3  9  2  0  0  0  0
  3 18  1  0  0  0  0
  4 10  1  0  0  0  0
  4 18  2  0  0  0  0
  5 20  1  0  0  0  0
  6 22  1  0  0  0  0
  7 11  2  0  0  0  0
  7 21  1  0  0  0  0
  8 14  2  0  0  0  0
  8 24  1  0  0  0  0
  9 26  1  0  0  0  0
 10 26  2  0  0  0  0
 11 27  1  0  0  0  0
 12 13  2  0  0  0  0
 12 28  1  0  0  0  0
 13 29  1  0  0  0  0
 14 31  1  0  0  0  0
 15 23  1  0  0  0  0
 15 27  2  0  0  0  0
 16 24  2  0  0  0  0
 16 25  1  0  0  0  0
 17 29  2  0  0  0  0
 17 30  1  0  0  0  0
 18 32  1  0  0  0  0
 19 32  1  0  0  0  0
 19 33  2  0  0  0  0
 19 35  1  0  0  0  0
 20 22  2  0  0  0  0
 20 40  1  0  0  0  0
 21 23  2  0  0  0  0
 21 41  1  0  0  0  0
 22 51  1  0  0  0  0
 23 42  1  0  0  0  0
 24 60  1  0  0  0  0
 25 31  2  0  0  0  0
 25 71  1  0  0  0  0
 26 81  1  0  0  0  0
 27 82  1  0  0  0  0
 28 30  2  0  0  0  0
 28 81  1  0  0  0  0
 29 83  1  0  0  0  0
 30 84  1  0  0  0  0
 31 85  1  0  0  0  0
 32 64  2  0  0  0  0
 33 65  1  0  0  0  0
 33 69  1  0  0  0  0
 34 43  1  0  0  0  0
 34 66  1  0  0  0  0
 34 75  2  0  0  0  0
 35 70  1  0  0  0  0
 35 76  2  0  0  0  0
 36 52  1  0  0  0  0
 36 72  1  0  0  0  0
 36 77  2  0  0  0  0
 37 61  1  0  0  0  0
 37 67  1  0  0  0  0
 37 78  2  0  0  0  0
 38 62  1  0  0  0  0
 38 73  1  0  0  0  0
 38 79  2  0  0  0  0
 39 68  1  0  0  0  0
 39 71  1  0  0  0  0
 39 80  2  0  0  0  0
 40 44  1  0  0  0  0
 41 52  1  0  0  0  0
 42 67  1  0  0  0  0
 43 54  1  0  0  0  0
 44 46  1  0  0  0  0
 45 47  1  0  0  0  0
 45 48  1  0  0  0  0
 46 51  1  0  0  0  0
 47 53  1  0  0  0  0
 48 68  1  0  0  0  0
 49 53  1  0  0  0  0
 49 68  1  0  0  0  0
 50 54  1  0  0  0  0
 50 66  1  0  0  0  0
 51 72  1  0  0  0  0
 52 67  1  0  0  0  0
 53 65  1  0  0  0  0
 54 82  1  0  0  0  0
 55 62  1  0  0  0  0
 56 63  1  0  0  0  0
 57 63  1  0  0  0  0
 58 63  1  0  0  0  0
 59 74  1  0  0  0  0
 60 66  1  0  0  0  0
 61 63  1  0  0  0  0
 61 73  1  0  0  0  0
 62 74  1  0  0  0  0
 64 65  1  0  0  0  0
M  CHG  1  74   1
M  ISO  4  39 100  54 101  71 100  82 101
M  END
> <Batch ID>
0029

> <Smiles>
CNC(C)C(=O)NC(C(=O)N1Cc2cc([101O:1][101CH:1]3CC(=O)N(Cc4ccc(Cl)c([100NH:0][100C:0](=O)N5CCCC(n6nc(-c7ccc(Oc8ccc(F)cc8F)cc7)c(C(N)=O)c6N)C5)c4)C3)ccc2CC1C(=O)NC1CCCc2ccccc21)C(C)(C)C

> <Shape>
0.253

> <Color>
0.092

> <Negative vol penalty>
0.000

$$$$

  -OEChem-04042321343D

 84 93  0     1  0  0  0  0  0999 V2000
  -29.4653  -34.3957   24.2065 C   0  0  0  0  0  0  0  0  0  0  0  0
  -29.7828  -33.0727   23.9164 C   0  0  0  0  0  0  0  0  0  0  0  0
  -23.5735  -10.1281   22.0090 C   0  0  0  0  0  0  0  0  0  0  0  0
  -22.2626  -10.1755   19.9801 C   0  0  0  0  0  0  0  0  0  0  0  0
  -23.8729  -18.8099   23.6996 C   0  0  0  0  0  0  0  0  0  0  0  0
  -28.1358  -34.7643   24.4082 C   0  0  0  0  0  0  0  0  0  0  0  0
  -28.7710  -32.1171   23.8289 C   0  0  0  0  0  0  0  0  0  0  0  0
  -28.5817  -27.2899   20.0648 C   0  0  0  0  0  0  0  0  0  0  0  0
  -23.1857   -8.8064   22.2287 C   0  0  0  0  0  0  0  0  0  0  0  0
  -21.8748   -8.8538   20.1997 C   0  0  0  0  0  0  0  0  0  0  0  0
  -28.8908  -25.9431   20.2504 C   0  0  0  0  0  0  0  0  0  0  0  0
  -20.4745   -7.1700   23.4103 C   0  0  0  0  0  0  0  0  0  0  0  0
  -20.0750   -6.8184   24.6996 C   0  0  0  0  0  0  0  0  0  0  0  0
  -25.1612  -18.8713   24.2308 C   0  0  0  0  0  0  0  0  0  0  0  0
  -24.7768  -19.0830   21.4759 C   0  0  0  0  0  0  0  0  0  0  0  0
  -26.5630  -25.4736   20.6748 C   0  0  0  0  0  0  0  0  0  0  0  0
  -21.8511   -5.1838   24.8039 C   0  0  0  0  0  0  0  0  0  0  0  0
  -23.1119  -10.8127   20.8848 C   0  0  0  0  0  0  0  0  0  0  0  0
  -23.6807  -18.9158   22.3222 C   0  0  0  0  0  0  0  0  0  0  0  0
  -24.8224  -12.6636   20.4900 C   0  0  0  0  0  0  0  0  0  0  0  0
  -27.1063  -33.8146   24.3135 C   0  0  0  0  0  0  0  0  0  0  0  0
  -27.2603  -27.7413   20.1939 C   0  0  0  0  0  0  0  0  0  0  0  0
  -27.4266  -32.4731   24.0308 C   0  0  0  0  0  0  0  0  0  0  0  0
  -26.2394  -26.8262   20.4879 C   0  0  0  0  0  0  0  0  0  0  0  0
  -26.0651  -19.1444   22.0070 C   0  0  0  0  0  0  0  0  0  0  0  0
  -22.3364   -8.1692   21.3240 C   0  0  0  0  0  0  0  0  0  0  0  0
  -27.8818  -25.0352   20.5583 C   0  0  0  0  0  0  0  0  0  0  0  0
  -21.5622   -6.5285   22.8177 C   0  0  0  0  0  0  0  0  0  0  0  0
  -20.7633   -5.8252   25.3964 C   0  0  0  0  0  0  0  0  0  0  0  0
  -22.2505   -5.5354   23.5146 C   0  0  0  0  0  0  0  0  0  0  0  0
  -26.2573  -19.0385   23.3845 C   0  0  0  0  0  0  0  0  0  0  0  0
  -23.5117  -12.1783   20.6576 C   0  0  0  0  0  0  0  0  0  0  0  0
  -24.6669  -14.0158   20.3059 C   0  0  0  0  0  0  0  0  0  0  0  0
  -28.8589  -20.8876   20.1487 C   0  0  0  0  0  0  0  0  0  0  0  0
  -30.0305  -20.2668   20.3294 C   0  0  0  0  0  0  0  0  0  0  0  0
  -22.3239  -18.8528   21.7635 C   0  0  0  0  0  0  0  0  0  0  0  0
  -26.0691  -11.9555   20.4996 C   0  0  0  0  0  0  0  0  0  0  0  0
  -25.7656  -29.7851   22.1154 C   0  0  0  0  0  0  0  0  0  0  0  0
  -23.2545  -29.1934   20.1491 C   0  0  0  0  0  0  0  0  0  0  0  0
  -21.7424  -27.0804   17.9364 C   0  0  0  0  0  0  0  0  0  0  0  0
  -25.6887  -34.2512   24.5862 C   0  0  0  0  0  0  0  0  0  0  0  0
  -26.9395  -29.1927   19.9643 C   0  0  0  0  0  0  0  0  0  0  0  0
  -24.8019  -27.2565   20.6174 C   0  0  0  0  0  0  0  0  0  0  0  0
  -28.5881  -21.9527   19.1324 C   0  0  0  0  0  0  0  0  0  0  0  0
  -24.6403  -33.2510   24.1060 C   0  0  0  0  0  0  0  0  0  0  0  0
  -20.5156  -16.7850   19.4840 C   0  0  0  0  0  0  0  0  0  0  0  0
  -25.0201  -31.8353   24.5284 C   0  0  0  0  0  0  0  0  0  0  0  0
  -21.2275  -15.4347   19.5848 C   0  0  0  0  0  0  0  0  0  0  0  0
  -20.4753  -17.5027   20.8308 C   0  0  0  0  0  0  0  0  0  0  0  0
  -22.5100  -16.3173   21.5789 C   0  0  0  0  0  0  0  0  0  0  0  0
  -26.7623  -21.7781   20.6935 C   0  0  0  0  0  0  0  0  0  0  0  0
  -26.3548  -31.4124   23.9030 C   0  0  1  0  0  0  0  0  0  0  0  0
  -25.6361  -29.6285   20.6266 C   0  0  1  0  0  0  0  0  0  0  0  0
  -22.6172  -15.5837   20.2319 C   0  0  1  0  0  0  0  0  0  0  0  0
  -27.5515  -22.7859   19.8699 C   0  0  1  0  0  0  0  0  0  1  0  0
  -19.6801  -26.8528   16.5249 C   0  0  0  0  0  0  0  0  0  0  0  0
  -21.6313  -28.4970   22.6371 C   0  0  0  0  0  0  0  0  0  0  0  0
  -19.9499  -27.3934   21.1462 C   0  0  0  0  0  0  0  0  0  0  0  0
  -20.3947  -29.8381   20.9264 C   0  0  0  0  0  0  0  0  0  0  0  0
  -23.3236  -26.9824   15.4366 C   0  0  0  0  0  0  0  0  0  0  0  0
  -27.2169  -19.3256   21.0628 C   0  0  0  0  0  0  0  0  0  0  0  0
  -22.1311  -28.1852   20.1234 C   0  0  1  0  0  0  0  0  0  0  0  0
  -21.1250  -27.3249   16.5713 C   0  0  2  0  0  0  0  0  0  0  0  0
  -21.0540  -28.4703   21.2078 C   0  0  0  0  0  0  0  0  0  0  0  0
  -22.5913  -13.1436   20.5865 N   0  0  0  0  0  0  0  0  0  0  0  0
  -23.3248  -14.2491   20.3723 N   0  0  0  0  0  0  0  0  0  0  0  0
  -21.8168  -17.6015   21.4047 N   0  0  0  0  0  0  0  0  0  0  0  0
  -24.5396  -28.6873   20.3901 N   0  0  0  0  0  0  0  0  0  0  0  0
  -25.5487  -15.0161   20.0955 N   0  0  0  0  0  0  0  0  0  0  0  0
  -26.5596  -11.4497   19.2881 N   0  0  0  0  0  0  0  0  0  0  0  0
  -26.1689  -31.0447   22.5157 N   0  0  0  0  0  0  0  0  0  0  0  0
  -21.6177  -28.1809   18.7578 N   0  0  0  0  0  0  0  0  0  0  0  0
  -27.7832  -20.7135   21.0868 N   0  3  1  0  0  0  0  0  0  0  0  0
  -21.8907  -26.5988   15.5190 N   0  3  0  0  0  0  0  0  0  0  0  0
  -21.7357  -19.9263   21.6422 O   0  0  0  0  0  0  0  0  0  0  0  0
  -26.7204  -11.7624   21.5541 O   0  0  0  0  0  0  0  0  0  0  0  0
  -25.5166  -28.8340   22.8469 O   0  0  0  0  0  0  0  0  0  0  0  0
  -23.0020  -30.3852   19.9552 O   0  0  0  0  0  0  0  0  0  0  0  0
  -22.2782  -26.0181   18.2446 O   0  0  0  0  0  0  0  0  0  0  0  0
  -21.9580   -6.8794   21.5379 O   0  0  0  0  0  0  0  0  0  0  0  0
  -28.1809  -23.7202   20.7405 O   0  0  0  0  0  0  0  0  0  1  0  0
  -20.3806   -5.4887   26.6351 F   0  0  0  0  0  0  0  0  0  0  0  0
  -23.2969   -4.9164   22.9510 F   0  0  0  0  0  0  0  0  0  0  0  0
  -27.8366  -19.1103   24.0773 Cl  0  0  0  0  0  0  0  0  0  0  0  0
  1  2  1  0  0  0  0
  1  6  2  0  0  0  0
  2  7  2  0  0  0  0
  3  9  2  0  0  0  0
  3 18  1  0  0  0  0
  4 10  1  0  0  0  0
  4 18  2  0  0  0  0
  5 14  2  0  0  0  0
  5 19  1  0  0  0  0
  6 21  1  0  0  0  0
  7 23  1  0  0  0  0
  8 11  2  0  0  0  0
  8 22  1  0  0  0  0
  9 26  1  0  0  0  0
 10 26  2  0  0  0  0
 11 27  1  0  0  0  0
 12 13  2  0  0  0  0
 12 28  1  0  0  0  0
 13 29  1  0  0  0  0
 14 31  1  0  0  0  0
 15 19  2  0  0  0  0
 15 25  1  0  0  0  0
 16 24  1  0  0  0  0
 16 27  2  0  0  0  0
 17 29  2  0  0  0  0
 17 30  1  0  0  0  0
 18 32  1  0  0  0  0
 19 36  1  0  0  0  0
 20 32  1  0  0  0  0
 20 33  2  0  0  0  0
 20 37  1  0  0  0  0
 21 23  2  0  0  0  0
 21 41  1  0  0  0  0
 22 24  2  0  0  0  0
 22 42  1  0  0  0  0
 23 52  1  0  0  0  0
 24 43  1  0  0  0  0
 25 31  2  0  0  0  0
 25 61  1  0  0  0  0
 26 80  1  0  0  0  0
 27 81  1  0  0  0  0
 28 30  2  0  0  0  0
 28 80  1  0  0  0  0
 29 82  1  0  0  0  0
 30 83  1  0  0  0  0
 31 84  1  0  0  0  0
 32 65  2  0  0  0  0
 33 66  1  0  0  0  0
 33 69  1  0  0  0  0
 34 35  2  0  0  0  0
 34 44  1  0  0  0  0
 34 73  1  0  0  0  0
 36 67  1  0  0  0  0
 36 75  2  0  0  0  0
 37 70  1  0  0  0  0
 37 76  2  0  0  0  0
 38 53  1  0  0  0  0
 38 71  1  0  0  0  0
 38 77  2  0  0  0  0
 39 62  1  0  0  0  0
 39 68  1  0  0  0  0
 39 78  2  0  0  0  0
 40 63  1  0  0  0  0
 40 72  1  0  0  0  0
 40 79  2  0  0  0  0
 41 45  1  0  0  0  0
 42 53  1  0  0  0  0
 43 68  1  0  0  0  0
 44 55  1  0  0  0  0
 45 47  1  0  0  0  0
 46 48  1  0  0  0  0
 46 49  1  0  0  0  0
 47 52  1  0  0  0  0
 48 54  1  0  0  0  0
 49 67  1  0  0  0  0
 50 54  1  0  0  0  0
 50 67  1  0  0  0  0
 51 55  1  0  0  0  0
 51 73  1  0  0  0  0
 52 71  1  0  0  0  0
 53 68  1  0  0  0  0
 54 66  1  0  0  0  0
 55 81  1  0  0  0  0
 56 63  1  0  0  0  0
 57 64  1  0  0  0  0
 58 64  1  0  0  0  0
 59 64  1  0  0  0  0
 60 74  1  0  0  0  0
 61 73  1  0  0  0  0
 62 64  1  0  0  0  0
 62 72  1  0  0  0  0
 63 74  1  0  0  0  0
 65 66  1  0  0  0  0
M  CHG  2  73   1  74   1
M  ISO  4  19 100  36 100  55 101  81 101
M  END
> <Batch ID>
0029

> <Smiles>
C=C1C[101CH:1]([101O:1]c2ccc3c(c2)CN(C(=O)C(NC(=O)C(C)NC)C(C)(C)C)C(C(=O)NC2CCCc4ccccc42)C3)CN1Cc1c[100c:0]([100C:0](=O)N2CCCC(n3nc(-c4ccc(Oc5ccc(F)cc5F)cc4)c(C(N)=O)c3N)C2)ccc1Cl

> <Shape>
0.282

> <Color>
0.098

> <Negative vol penalty>
0.000

$$$$

  -OEChem-04042321343D

 86 95  0     1  0  0  0  0  0999 V2000
  -28.4322  -10.9907   19.4703 C   0  0  0  0  0  0  0  0  0  0  0  0
  -28.6532  -12.3299   19.1653 C   0  0  0  0  0  0  0  0  0  0  0  0
  -19.4867  -28.2951   23.8526 C   0  0  0  0  0  0  0  0  0  0  0  0
  -20.7116  -27.4402   21.9538 C   0  0  0  0  0  0  0  0  0  0  0  0
  -27.2052  -10.5903   19.9975 C   0  0  0  0  0  0  0  0  0  0  0  0
  -27.6468  -13.2694   19.3864 C   0  0  0  0  0  0  0  0  0  0  0  0
  -29.3764  -17.4857   21.5947 C   0  0  0  0  0  0  0  0  0  0  0  0
  -18.2882  -28.1072   23.1642 C   0  0  0  0  0  0  0  0  0  0  0  0
  -19.5131  -27.2523   21.2653 C   0  0  0  0  0  0  0  0  0  0  0  0
  -30.0434  -18.4021   20.7828 C   0  0  0  0  0  0  0  0  0  0  0  0
  -16.9943  -24.9996   21.2217 C   0  0  0  0  0  0  0  0  0  0  0  0
  -16.8214  -23.7940   20.5419 C   0  0  0  0  0  0  0  0  0  0  0  0
  -28.0380  -19.7362   20.6511 C   0  0  0  0  0  0  0  0  0  0  0  0
  -29.9104  -27.3421   18.0849 C   0  0  0  0  0  0  0  0  0  0  0  0
  -29.3643  -29.1877   19.5453 C   0  0  0  0  0  0  0  0  0  0  0  0
  -16.5791  -25.0010   18.4631 C   0  0  0  0  0  0  0  0  0  0  0  0
  -20.6984  -27.9617   23.2474 C   0  0  0  0  0  0  0  0  0  0  0  0
  -22.3166  -27.5701   25.1802 C   0  0  0  0  0  0  0  0  0  0  0  0
  -26.1866  -11.5268   20.2342 C   0  0  0  0  0  0  0  0  0  0  0  0
  -28.0297  -17.6825   21.9325 C   0  0  0  0  0  0  0  0  0  0  0  0
  -26.4045  -12.8810   19.9161 C   0  0  0  0  0  0  0  0  0  0  0  0
  -27.3568  -18.8222   21.4695 C   0  0  0  0  0  0  0  0  0  0  0  0
  -29.0770  -26.5069   18.8288 C   0  0  0  0  0  0  0  0  0  0  0  0
  -28.3872  -27.0120   19.9308 C   0  0  0  0  0  0  0  0  0  0  0  0
  -28.5308  -28.3524   20.2892 C   0  0  0  0  0  0  0  0  0  0  0  0
  -18.3014  -27.5858   21.8705 C   0  0  0  0  0  0  0  0  0  0  0  0
  -29.3735  -19.5260   20.3085 C   0  0  0  0  0  0  0  0  0  0  0  0
  -16.9595  -26.2060   20.5223 C   0  0  0  0  0  0  0  0  0  0  0  0
  -16.6138  -23.7947   19.1626 C   0  0  0  0  0  0  0  0  0  0  0  0
  -16.7519  -26.2067   19.1430 C   0  0  0  0  0  0  0  0  0  0  0  0
  -30.0542  -28.6825   18.4432 C   0  0  0  0  0  0  0  0  0  0  0  0
  -21.9367  -28.1561   23.9578 C   0  0  0  0  0  0  0  0  0  0  0  0
  -23.5714  -28.0716   25.4261 C   0  0  0  0  0  0  0  0  0  0  0  0
  -21.5993  -26.6544   26.0184 C   0  0  0  0  0  0  0  0  0  0  0  0
  -25.3326  -16.0783   21.4263 C   0  0  0  0  0  0  0  0  0  0  0  0
  -24.0757  -18.3456   23.3762 C   0  0  0  0  0  0  0  0  0  0  0  0
  -24.4044  -21.9105   23.8237 C   0  0  0  0  0  0  0  0  0  0  0  0
  -27.8854  -30.1965   21.8794 C   0  0  0  0  0  0  0  0  0  0  0  0
  -24.8603  -11.0393   20.7613 C   0  0  0  0  0  0  0  0  0  0  0  0
  -27.3320  -16.6985   22.8312 C   0  0  0  0  0  0  0  0  0  0  0  0
  -25.9167  -19.0900   21.8200 C   0  0  0  0  0  0  0  0  0  0  0  0
  -23.9780  -12.1547   21.3158 C   0  0  0  0  0  0  0  0  0  0  0  0
  -26.3041  -31.9101   24.5702 C   0  0  0  0  0  0  0  0  0  0  0  0
  -31.8395  -23.5740   20.4187 C   0  0  0  0  0  0  0  0  0  0  0  0
  -23.9459  -13.3381   20.3538 C   0  0  0  0  0  0  0  0  0  0  0  0
  -25.0423  -31.0851   24.8338 C   0  0  0  0  0  0  0  0  0  0  0  0
  -31.6257  -22.1016   20.0931 C   0  0  0  0  0  0  0  0  0  0  0  0
  -26.6366  -31.9777   23.0807 C   0  0  0  0  0  0  0  0  0  0  0  0
  -25.4615  -29.8521   22.6679 C   0  0  0  0  0  0  0  0  0  0  0  0
  -31.1545  -24.4794   19.4051 C   0  0  0  0  0  0  0  0  0  0  0  0
  -29.4623  -22.6883   18.9377 C   0  0  0  0  0  0  0  0  0  0  0  0
  -25.3462  -13.9337   20.1649 C   0  0  1  0  0  0  0  0  0  0  0  0
  -25.8134  -16.7333   22.6902 C   0  0  1  0  0  0  0  0  0  0  0  0
  -25.1229  -29.7013   24.1600 C   0  0  2  0  0  0  0  0  0  0  0  0
  -30.1431  -21.7733   19.9470 C   0  0  1  0  0  0  0  0  0  1  0  0
  -27.4939  -26.1122   20.7259 C   0  0  0  0  0  0  0  0  0  0  0  0
  -24.0589  -23.3382   25.8583 C   0  0  0  0  0  0  0  0  0  0  0  0
  -21.2524  -18.7168   22.2802 C   0  0  0  0  0  0  0  0  0  0  0  0
  -21.3454  -21.1002   23.0412 C   0  0  0  0  0  0  0  0  0  0  0  0
  -21.5072  -19.2528   24.7096 C   0  0  0  0  0  0  0  0  0  0  0  0
  -27.1242  -23.0599   23.6217 C   0  0  0  0  0  0  0  0  0  0  0  0
  -28.9401  -25.0692   18.4221 C   0  0  0  0  0  0  0  0  0  0  0  0
  -23.4622  -19.7098   23.1729 C   0  0  1  0  0  0  0  0  0  0  0  0
  -25.0766  -22.6227   24.9837 C   0  0  2  0  0  0  0  0  0  0  0  0
  -21.9115  -19.6847   23.2832 C   0  0  0  0  0  0  0  0  0  0  0  0
  -22.8743  -28.9678   23.4618 N   0  0  0  0  0  0  0  0  0  0  0  0
  -23.8557  -28.8956   24.3771 N   0  0  0  0  0  0  0  0  0  0  0  0
  -25.2761  -18.0955   22.6963 N   0  0  0  0  0  0  0  0  0  0  0  0
  -26.7005  -30.6300   22.5111 N   0  0  0  0  0  0  0  0  0  0  0  0
  -24.4483  -27.8837   26.4352 N   0  0  0  0  0  0  0  0  0  0  0  0
  -20.3218  -26.2411   25.6166 N   0  0  0  0  0  0  0  0  0  0  0  0
  -27.8397  -28.8860   21.4052 N   0  0  0  0  0  0  0  0  0  0  0  0
  -25.7046  -14.7533   21.3025 N   0  0  0  0  0  0  0  0  0  0  0  0
  -24.1148  -20.5975   24.1292 N   0  0  0  0  0  0  0  0  0  0  0  0
  -29.6879  -24.1276   19.3253 N   0  3  2  0  0  0  0  0  0  0  0  0
  -26.0522  -23.6295   24.4781 N   0  3  0  0  0  0  0  0  0  0  0  0
  -22.0704  -26.2284   27.1001 O   0  0  0  0  0  0  0  0  0  0  0  0
  -24.6718  -16.7267   20.6234 O   0  0  0  0  0  0  0  0  0  0  0  0
  -23.5144  -17.5343   24.1167 O   0  0  0  0  0  0  0  0  0  0  0  0
  -24.1574  -22.4647   22.7549 O   0  0  0  0  0  0  0  0  0  0  0  0
  -28.8776  -30.9244   21.7916 O   0  0  0  0  0  0  0  0  0  0  0  0
  -17.1321  -27.4020   21.1985 O   0  0  0  0  0  0  0  0  0  0  0  0
  -30.0220  -20.4216   19.5154 O   0  0  0  0  0  0  0  0  0  1  0  0
  -16.4493  -22.6368   18.5096 F   0  0  0  0  0  0  0  0  0  0  0  0
  -16.7187  -27.3624   18.4654 F   0  0  0  0  0  0  0  0  0  0  0  0
  -31.0835  -29.7125   17.5261 Cl  0  0  0  0  0  0  0  0  0  0  0  0
  1  2  1  0  0  0  0
  1  5  2  0  0  0  0
  2  6  2  0  0  0  0
  3  8  2  0  0  0  0
  3 17  1  0  0  0  0
  4  9  1  0  0  0  0
  4 17  2  0  0  0  0
  5 19  1  0  0  0  0
  6 21  1  0  0  0  0
  7 10  2  0  0  0  0
  7 20  1  0  0  0  0
  8 26  1  0  0  0  0
  9 26  2  0  0  0  0
 10 27  1  0  0  0  0
 11 12  2  0  0  0  0
 11 28  1  0  0  0  0
 12 29  1  0  0  0  0
 13 22  1  0  0  0  0
 13 27  2  0  0  0  0
 14 23  1  0  0  0  0
 14 31  2  0  0  0  0
 15 25  2  0  0  0  0
 15 31  1  0  0  0  0
 16 29  2  0  0  0  0
 16 30  1  0  0  0  0
 17 32  1  0  0  0  0
 18 32  1  0  0  0  0
 18 33  2  0  0  0  0
 18 34  1  0  0  0  0
 19 21  2  0  0  0  0
 19 39  1  0  0  0  0
 20 22  2  0  0  0  0
 20 40  1  0  0  0  0
 21 52  1  0  0  0  0
 22 41  1  0  0  0  0
 23 24  2  0  0  0  0
 23 62  1  0  0  0  0
 24 25  1  0  0  0  0
 24 56  1  0  0  0  0
 25 72  1  0  0  0  0
 26 82  1  0  0  0  0
 27 83  1  0  0  0  0
 28 30  2  0  0  0  0
 28 82  1  0  0  0  0
 29 84  1  0  0  0  0
 30 85  1  0  0  0  0
 31 86  1  0  0  0  0
 32 66  2  0  0  0  0
 33 67  1  0  0  0  0
 33 70  1  0  0  0  0
 34 71  1  0  0  0  0
 34 77  2  0  0  0  0
 35 53  1  0  0  0  0
 35 73  1  0  0  0  0
 35 78  2  0  0  0  0
 36 63  1  0  0  0  0
 36 68  1  0  0  0  0
 36 79  2  0  0  0  0
 37 64  1  0  0  0  0
 37 74  1  0  0  0  0
 37 80  2  0  0  0  0
 38 69  1  0  0  0  0
 38 72  1  0  0  0  0
 38 81  2  0  0  0  0
 39 42  1  0  0  0  0
 40 53  1  0  0  0  0
 41 68  1  0  0  0  0
 42 45  1  0  0  0  0
 43 46  1  0  0  0  0
 43 48  1  0  0  0  0
 44 47  1  0  0  0  0
 44 50  1  0  0  0  0
 45 52  1  0  0  0  0
 46 54  1  0  0  0  0
 47 55  1  0  0  0  0
 48 69  1  0  0  0  0
 49 54  1  0  0  0  0
 49 69  1  0  0  0  0
 50 75  1  0  0  0  0
 51 55  1  0  0  0  0
 51 75  1  0  0  0  0
 52 73  1  0  0  0  0
 53 68  1  0  0  0  0
 54 67  1  0  0  0  0
 55 83  1  0  0  0  0
 57 64  1  0  0  0  0
 58 65  1  0  0  0  0
 59 65  1  0  0  0  0
 60 65  1  0  0  0  0
 61 76  1  0  0  0  0
 62 75  1  0  0  0  0
 63 65  1  0  0  0  0
 63 74  1  0  0  0  0
 64 76  1  0  0  0  0
 66 67  1  0  0  0  0
M  CHG  2  75   1  76   1
M  ISO  4  38 100  55 101  72 100  83 101
M  END
> <Batch ID>
0029

> <Smiles>
CNC(C)C(=O)NC(C(=O)N1Cc2cc([101O:1][101CH:1]3CCCN(Cc4cc(Cl)cc([100NH:0][100C:0](=O)N5CCCC(n6nc(-c7ccc(Oc8ccc(F)cc8F)cc7)c(C(N)=O)c6N)C5)c4C)C3)ccc2CC1C(=O)NC1CCCc2ccccc21)C(C)(C)C

> <Shape>
0.240

> <Color>
0.066

> <Negative vol penalty>
0.000

$$$$

  -OEChem-04042321343D

 84 93  0     1  0  0  0  0  0999 V2000
  -30.0869  -36.2428   22.7126 C   0  0  0  0  0  0  0  0  0  0  0  0
  -30.0698  -35.2634   21.7247 C   0  0  0  0  0  0  0  0  0  0  0  0
  -23.8194   -9.1108   20.1401 C   0  0  0  0  0  0  0  0  0  0  0  0
  -23.1668  -10.8979   21.6293 C   0  0  0  0  0  0  0  0  0  0  0  0
  -29.5833  -35.9601   23.9816 C   0  0  0  0  0  0  0  0  0  0  0  0
  -29.5501  -34.0003   22.0056 C   0  0  0  0  0  0  0  0  0  0  0  0
  -26.0110  -28.6024   18.8985 C   0  0  0  0  0  0  0  0  0  0  0  0
  -23.0025   -8.2261   20.8440 C   0  0  0  0  0  0  0  0  0  0  0  0
  -22.3499  -10.0132   22.3331 C   0  0  0  0  0  0  0  0  0  0  0  0
  -26.0980  -27.2235   18.7119 C   0  0  0  0  0  0  0  0  0  0  0  0
  -19.7091   -7.4812   21.0215 C   0  0  0  0  0  0  0  0  0  0  0  0
  -18.8964   -6.6217   20.2824 C   0  0  0  0  0  0  0  0  0  0  0  0
  -25.1828  -26.8735   20.9163 C   0  0  0  0  0  0  0  0  0  0  0  0
  -28.5375  -20.2142   18.3774 C   0  0  0  0  0  0  0  0  0  0  0  0
  -29.7446  -20.1367   20.4687 C   0  0  0  0  0  0  0  0  0  0  0  0
  -19.9946   -4.7188   21.2874 C   0  0  0  0  0  0  0  0  0  0  0  0
  -23.9016  -10.4468   20.5328 C   0  0  0  0  0  0  0  0  0  0  0  0
  -24.3866  -12.1529   18.6993 C   0  0  0  0  0  0  0  0  0  0  0  0
  -29.0483  -34.6959   24.2753 C   0  0  0  0  0  0  0  0  0  0  0  0
  -25.5187  -29.1281   20.1017 C   0  0  0  0  0  0  0  0  0  0  0  0
  -29.0401  -33.7000   23.2801 C   0  0  0  0  0  0  0  0  0  0  0  0
  -25.0882  -28.2594   21.1147 C   0  0  0  0  0  0  0  0  0  0  0  0
  -29.1549  -20.8725   19.4408 C   0  0  0  0  0  0  0  0  0  0  0  0
  -29.0993  -18.0842   19.3696 C   0  0  0  0  0  0  0  0  0  0  0  0
  -22.2677   -8.6772   21.9404 C   0  0  0  0  0  0  0  0  0  0  0  0
  -25.6865  -26.3588   19.7219 C   0  0  0  0  0  0  0  0  0  0  0  0
  -20.6647   -6.9595   21.8936 C   0  0  0  0  0  0  0  0  0  0  0  0
  -19.0391   -5.2405   20.4154 C   0  0  0  0  0  0  0  0  0  0  0  0
  -20.8074   -5.5784   22.0265 C   0  0  0  0  0  0  0  0  0  0  0  0
  -28.5097  -18.8200   18.3418 C   0  0  0  0  0  0  0  0  0  0  0  0
  -29.7168  -18.7426   20.4331 C   0  0  0  0  0  0  0  0  0  0  0  0
  -24.7457  -11.3612   19.8065 C   0  0  0  0  0  0  0  0  0  0  0  0
  -25.5334  -12.8382   18.3807 C   0  0  0  0  0  0  0  0  0  0  0  0
  -23.1287  -12.2593   18.0195 C   0  0  0  0  0  0  0  0  0  0  0  0
  -26.7157  -30.9647   22.4034 C   0  0  0  0  0  0  0  0  0  0  0  0
  -23.6733  -30.8707   23.5245 C   0  0  0  0  0  0  0  0  0  0  0  0
  -20.6783  -29.2389   23.6428 C   0  0  0  0  0  0  0  0  0  0  0  0
  -30.0150  -15.7903   19.8652 C   0  0  0  0  0  0  0  0  0  0  0  0
  -28.5587  -34.4223   25.6754 C   0  0  0  0  0  0  0  0  0  0  0  0
  -25.4064  -30.6178   20.2771 C   0  0  0  0  0  0  0  0  0  0  0  0
  -24.5332  -28.7732   22.4172 C   0  0  0  0  0  0  0  0  0  0  0  0
  -27.6828  -33.1766   25.7818 C   0  0  0  0  0  0  0  0  0  0  0  0
  -30.2874  -12.2433   20.0140 C   0  0  0  0  0  0  0  0  0  0  0  0
  -28.3201  -32.0104   25.0330 C   0  0  0  0  0  0  0  0  0  0  0  0
  -28.8404  -11.7628   19.8822 C   0  0  0  0  0  0  0  0  0  0  0  0
  -30.3853  -13.5307   20.8306 C   0  0  0  0  0  0  0  0  0  0  0  0
  -28.0740  -14.1445   20.2387 C   0  0  0  0  0  0  0  0  0  0  0  0
  -28.1046  -24.4064   20.3065 C   0  0  0  0  0  0  0  0  0  0  0  0
  -26.8329  -22.7732   20.0275 C   0  0  0  0  0  0  0  0  0  0  0  0
  -28.4619  -32.3257   23.5390 C   0  0  1  0  0  0  0  0  0  0  0  0
  -25.3696  -31.0460   21.7409 C   0  0  1  0  0  0  0  0  0  0  0  0
  -27.9180  -12.8861   19.3694 C   0  0  2  0  0  0  0  0  0  0  0  0
  -26.5809  -24.2345   20.4384 C   0  0  0  0  0  0  0  0  0  1  0  0
  -18.3945  -29.3853   24.6723 C   0  0  0  0  0  0  0  0  0  0  0  0
  -24.8182  -29.9307   26.1920 C   0  0  0  0  0  0  0  0  0  0  0  0
  -22.5146  -29.1970   26.8427 C   0  0  0  0  0  0  0  0  0  0  0  0
  -22.9709  -31.6058   26.3819 C   0  0  0  0  0  0  0  0  0  0  0  0
  -19.3677  -29.4009   20.9942 C   0  0  0  0  0  0  0  0  0  0  0  0
  -29.1839  -22.3721   19.4794 C   0  0  0  0  0  0  0  0  0  0  0  0
  -22.9054  -29.9665   24.4582 C   0  0  1  0  0  0  0  0  0  0  0  0
  -19.2540  -29.7336   23.4671 C   0  0  2  0  0  0  0  0  0  0  0  0
  -23.3145  -30.1650   25.9450 C   0  0  0  0  0  0  0  0  0  0  0  0
  -26.0211  -11.5271   20.1670 N   0  0  0  0  0  0  0  0  0  0  0  0
  -26.4733  -12.4310   19.2812 N   0  0  0  0  0  0  0  0  0  0  0  0
  -24.4493  -30.2376   22.5433 N   0  0  0  0  0  0  0  0  0  0  0  0
  -29.4875  -14.5505   20.2841 N   0  0  0  0  0  0  0  0  0  0  0  0
  -25.8195  -13.7434   17.4209 N   0  0  0  0  0  0  0  0  0  0  0  0
  -22.0542  -11.4845   18.4773 N   0  0  0  0  0  0  0  0  0  0  0  0
  -29.0713  -16.6681   19.3327 N   0  0  0  0  0  0  0  0  0  0  0  0
  -27.1882  -32.1773   22.8680 N   0  0  0  0  0  0  0  0  0  0  0  0
  -21.4919  -30.2083   24.1899 N   0  0  0  0  0  0  0  0  0  0  0  0
  -28.2331  -22.9452   20.4571 N   0  3  0  0  0  0  0  0  0  0  0  0
  -18.6378  -29.1194   22.2571 N   0  3  0  0  0  0  0  0  0  0  0  0
  -22.9669  -13.0067   17.0252 O   0  0  0  0  0  0  0  0  0  0  0  0
  -27.2831  -29.8818   22.4881 O   0  0  0  0  0  0  0  0  0  0  0  0
  -23.5821  -32.0938   23.6563 O   0  0  0  0  0  0  0  0  0  0  0  0
  -21.0328  -28.1045   23.3296 O   0  0  0  0  0  0  0  0  0  0  0  0
  -31.2197  -16.0435   19.9460 O   0  0  0  0  0  0  0  0  0  0  0  0
  -21.4703   -7.8141   22.6273 O   0  0  0  0  0  0  0  0  0  0  0  0
  -25.7709  -25.0125   19.5426 O   0  0  0  0  0  0  0  0  0  1  0  0
  -18.2575   -4.4153   19.7067 F   0  0  0  0  0  0  0  0  0  0  0  0
  -21.7229   -5.0713   22.8636 F   0  0  0  0  0  0  0  0  0  0  0  0
  -27.7336  -18.0504   17.0027 Cl  0  0  0  0  0  0  0  0  0  0  0  0
  -30.4618  -17.8755   21.7298 Cl  0  0  0  0  0  0  0  0  0  0  0  0
  1  2  1  0  0  0  0
  1  5  2  0  0  0  0
  2  6  2  0  0  0  0
  3  8  2  0  0  0  0
  3 17  1  0  0  0  0
  4  9  1  0  0  0  0
  4 17  2  0  0  0  0
  5 19  1  0  0  0  0
  6 21  1  0  0  0  0
  7 10  2  0  0  0  0
  7 20  1  0  0  0  0
  8 25  1  0  0  0  0
  9 25  2  0  0  0  0
 10 26  1  0  0  0  0
 11 12  2  0  0  0  0
 11 27  1  0  0  0  0
 12 28  1  0  0  0  0
 13 22  1  0  0  0  0
 13 26  2  0  0  0  0
 14 23  1  0  0  0  0
 14 30  2  0  0  0  0
 15 23  2  0  0  0  0
 15 31  1  0  0  0  0
 16 28  2  0  0  0  0
 16 29  1  0  0  0  0
 17 32  1  0  0  0  0
 18 32  1  0  0  0  0
 18 33  2  0  0  0  0
 18 34  1  0  0  0  0
 19 21  2  0  0  0  0
 19 39  1  0  0  0  0
 20 22  2  0  0  0  0
 20 40  1  0  0  0  0
 21 50  1  0  0  0  0
 22 41  1  0  0  0  0
 23 59  1  0  0  0  0
 24 30  1  0  0  0  0
 24 31  2  0  0  0  0
 24 69  1  0  0  0  0
 25 79  1  0  0  0  0
 26 80  1  0  0  0  0
 27 29  2  0  0  0  0
 27 79  1  0  0  0  0
 28 81  1  0  0  0  0
 29 82  1  0  0  0  0
 30 83  1  0  0  0  0
 31 84  1  0  0  0  0
 32 63  2  0  0  0  0
 33 64  1  0  0  0  0
 33 67  1  0  0  0  0
 34 68  1  0  0  0  0
 34 74  2  0  0  0  0
 35 51  1  0  0  0  0
 35 70  1  0  0  0  0
 35 75  2  0  0  0  0
 36 60  1  0  0  0  0
 36 65  1  0  0  0  0
 36 76  2  0  0  0  0
 37 61  1  0  0  0  0
 37 71  1  0  0  0  0
 37 77  2  0  0  0  0
 38 66  1  0  0  0  0
 38 69  1  0  0  0  0
 38 78  2  0  0  0  0
 39 42  1  0  0  0  0
 40 51  1  0  0  0  0
 41 65  1  0  0  0  0
 42 44  1  0  0  0  0
 43 45  1  0  0  0  0
 43 46  1  0  0  0  0
 44 50  1  0  0  0  0
 45 52  1  0  0  0  0
 46 66  1  0  0  0  0
 47 52  1  0  0  0  0
 47 66  1  0  0  0  0
 48 53  1  0  0  0  0
 48 72  1  0  0  0  0
 49 53  1  0  0  0  0
 49 72  1  0  0  0  0
 50 70  1  0  0  0  0
 51 65  1  0  0  0  0
 52 64  1  0  0  0  0
 53 80  1  0  0  0  0
 54 61  1  0  0  0  0
 55 62  1  0  0  0  0
 56 62  1  0  0  0  0
 57 62  1  0  0  0  0
 58 73  1  0  0  0  0
 59 72  1  0  0  0  0
 60 62  1  0  0  0  0
 60 71  1  0  0  0  0
 61 73  1  0  0  0  0
 63 64  1  0  0  0  0
M  CHG  2  72   1  73   1
M  ISO  4  38 100  53 101  69 100  80 101
M  END
> <Batch ID>
0029

> <Smiles>
CNC(C)C(=O)NC(C(=O)N1Cc2cc([101O:1][101CH:1]3CN(Cc4cc(Cl)c([100NH:0][100C:0](=O)N5CCCC(n6nc(-c7ccc(Oc8ccc(F)cc8F)cc7)c(C(N)=O)c6N)C5)c(Cl)c4)C3)ccc2CC1C(=O)NC1CCCc2ccccc21)C(C)(C)C

> <Shape>
0.297

> <Color>
0.095

> <Negative vol penalty>
0.000

$$$$

  -OEChem-04042321343D

 84 93  0     1  0  0  0  0  0999 V2000
  -36.8169  -33.0590   11.4432 C   0  0  0  0  0  0  0  0  0  0  0  0
  -36.1314  -31.8560   11.3076 C   0  0  0  0  0  0  0  0  0  0  0  0
  -23.0738   -9.8717   19.9335 C   0  0  0  0  0  0  0  0  0  0  0  0
  -23.8420   -9.8644   22.2241 C   0  0  0  0  0  0  0  0  0  0  0  0
  -37.2143  -33.4950   12.7064 C   0  0  0  0  0  0  0  0  0  0  0  0
  -35.8439  -31.0878   12.4353 C   0  0  0  0  0  0  0  0  0  0  0  0
  -30.8757  -26.6295   15.0349 C   0  0  0  0  0  0  0  0  0  0  0  0
  -31.6149  -18.3587   20.0831 C   0  0  0  0  0  0  0  0  0  0  0  0
  -31.4378  -19.3921   19.1632 C   0  0  0  0  0  0  0  0  0  0  0  0
  -22.3326   -8.7158   20.1784 C   0  0  0  0  0  0  0  0  0  0  0  0
  -23.1007   -8.7085   22.4691 C   0  0  0  0  0  0  0  0  0  0  0  0
  -30.7568  -25.3593   15.5972 C   0  0  0  0  0  0  0  0  0  0  0  0
  -19.8759   -7.9020   23.0779 C   0  0  0  0  0  0  0  0  0  0  0  0
  -19.1233   -7.8531   24.2512 C   0  0  0  0  0  0  0  0  0  0  0  0
  -31.4229  -26.2510   17.7374 C   0  0  0  0  0  0  0  0  0  0  0  0
  -29.1845  -19.7236   19.9693 C   0  0  0  0  0  0  0  0  0  0  0  0
  -20.3701   -5.9126   24.9702 C   0  0  0  0  0  0  0  0  0  0  0  0
  -23.8286  -10.4460   20.9563 C   0  0  0  0  0  0  0  0  0  0  0  0
  -24.1664  -12.9724   20.8520 C   0  0  0  0  0  0  0  0  0  0  0  0
  -36.9231  -32.7365   13.8512 C   0  0  0  0  0  0  0  0  0  0  0  0
  -31.2804  -27.7198   15.8185 C   0  0  0  0  0  0  0  0  0  0  0  0
  -36.2390  -31.5134   13.7149 C   0  0  0  0  0  0  0  0  0  0  0  0
  -31.5437  -27.5345   17.1832 C   0  0  0  0  0  0  0  0  0  0  0  0
  -30.5767  -18.0077   20.9461 C   0  0  0  0  0  0  0  0  0  0  0  0
  -30.2227  -20.0746   19.1063 C   0  0  0  0  0  0  0  0  0  0  0  0
  -22.3459   -8.1342   21.4462 C   0  0  0  0  0  0  0  0  0  0  0  0
  -31.0332  -25.1693   16.9480 C   0  0  0  0  0  0  0  0  0  0  0  0
  -20.8756   -6.9561   22.8506 C   0  0  0  0  0  0  0  0  0  0  0  0
  -19.3704   -6.8584   25.1974 C   0  0  0  0  0  0  0  0  0  0  0  0
  -21.1228   -5.9615   23.7968 C   0  0  0  0  0  0  0  0  0  0  0  0
  -29.3615  -18.6902   20.8892 C   0  0  0  0  0  0  0  0  0  0  0  0
  -24.5951  -11.6397   20.7038 C   0  0  0  0  0  0  0  0  0  0  0  0
  -25.2561  -13.7259   20.4898 C   0  0  0  0  0  0  0  0  0  0  0  0
  -22.8967  -13.4835   21.2790 C   0  0  0  0  0  0  0  0  0  0  0  0
  -33.7510  -29.7192   15.7750 C   0  0  0  0  0  0  0  0  0  0  0  0
  -32.0996  -31.1942   18.1456 C   0  0  0  0  0  0  0  0  0  0  0  0
  -29.7756  -30.9642   20.6341 C   0  0  0  0  0  0  0  0  0  0  0  0
  -30.7391  -14.7517   20.6651 C   0  0  0  0  0  0  0  0  0  0  0  0
  -37.4145  -33.2256   15.1905 C   0  0  0  0  0  0  0  0  0  0  0  0
  -31.3780  -29.0887   15.2029 C   0  0  0  0  0  0  0  0  0  0  0  0
  -31.9620  -28.6760   18.0723 C   0  0  0  0  0  0  0  0  0  0  0  0
  -36.7421  -32.5361   16.3749 C   0  0  0  0  0  0  0  0  0  0  0  0
  -29.5962  -12.3815   18.2666 C   0  0  0  0  0  0  0  0  0  0  0  0
  -36.7047  -31.0260   16.1626 C   0  0  0  0  0  0  0  0  0  0  0  0
  -28.1608  -12.0828   18.7027 C   0  0  0  0  0  0  0  0  0  0  0  0
  -29.0070  -22.6495   16.7628 C   0  0  0  0  0  0  0  0  0  0  0  0
  -30.5174  -12.5957   19.4656 C   0  0  0  0  0  0  0  0  0  0  0  0
  -28.8156  -21.8677   18.0623 C   0  0  0  0  0  0  0  0  0  0  0  0
  -28.6197  -13.3147   20.8639 C   0  0  0  0  0  0  0  0  0  0  0  0
  -31.0772  -21.5413   17.2567 C   0  0  0  0  0  0  0  0  0  0  0  0
  -35.8868  -30.6642   14.9170 C   0  0  1  0  0  0  0  0  0  0  0  0
  -32.2950  -30.0289   15.9791 C   0  0  1  0  0  0  0  0  0  0  0  0
  -27.6415  -13.1465   19.6887 C   0  0  2  0  0  0  0  0  0  0  0  0
  -30.5146  -22.8395   16.6796 C   0  0  2  0  0  0  0  0  0  1  0  0
  -28.6654  -32.3274   22.4247 C   0  0  0  0  0  0  0  0  0  0  0  0
  -34.6232  -31.0057   19.8502 C   0  0  0  0  0  0  0  0  0  0  0  0
  -33.2149  -31.4857   21.8639 C   0  0  0  0  0  0  0  0  0  0  0  0
  -33.3965  -33.1768   20.0391 C   0  0  0  0  0  0  0  0  0  0  0  0
  -27.0971  -30.5632   19.4408 C   0  0  0  0  0  0  0  0  0  0  0  0
  -30.8063  -16.8940   21.9162 C   0  0  0  0  0  0  0  0  0  0  0  0
  -32.0500  -31.0727   19.6495 C   0  0  1  0  0  0  0  0  0  0  0  0
  -28.5868  -31.8402   20.9863 C   0  0  2  0  0  0  0  0  0  0  0  0
  -33.3152  -31.6631   20.3338 C   0  0  0  0  0  0  0  0  0  0  0  0
  -25.8585  -11.5485   20.2803 N   0  0  0  0  0  0  0  0  0  0  0  0
  -26.2331  -12.8335   20.1592 N   0  0  0  0  0  0  0  0  0  0  0  0
  -30.0478  -21.0967   18.1971 N   0  0  3  0  0  0  0  0  0  0  0  0
  -32.0493  -29.9941   17.4223 N   0  0  0  0  0  0  0  0  0  0  0  0
  -29.9686  -13.6174   20.3604 N   0  0  0  0  0  0  0  0  0  0  0  0
  -25.4644  -15.0581   20.4250 N   0  0  0  0  0  0  0  0  0  0  0  0
  -21.8873  -12.5706   21.6138 N   0  0  0  0  0  0  0  0  0  0  0  0
  -34.4701  -30.7497   15.2001 N   0  0  0  0  0  0  0  0  0  0  0  0
  -30.7987  -31.6951   20.0682 N   0  0  0  0  0  0  0  0  0  0  0  0
  -30.1416  -15.6740   21.5155 N   0  0  0  0  0  0  0  0  0  0  0  0
  -27.3156  -31.0813   20.8158 N   0  3  0  0  0  0  0  0  0  0  0  0
  -22.6589  -14.7134   21.3454 O   0  0  0  0  0  0  0  0  0  0  0  0
  -34.1899  -28.6269   16.1153 O   0  0  0  0  0  0  0  0  0  0  0  0
  -32.1729  -32.3130   17.6313 O   0  0  0  0  0  0  0  0  0  0  0  0
  -29.7960  -29.7533   20.8436 O   0  0  0  0  0  0  0  0  0  0  0  0
  -31.8731  -14.9319   20.2086 O   0  0  0  0  0  0  0  0  0  0  0  0
  -21.6225   -7.0065   21.6856 O   0  0  0  0  0  0  0  0  0  0  0  0
  -30.9185  -23.9304   17.4992 O   0  0  0  0  0  0  0  0  0  1  0  0
  -18.6486   -6.8125   26.3248 F   0  0  0  0  0  0  0  0  0  0  0  0
  -22.0827   -5.0508   23.5846 F   0  0  0  0  0  0  0  0  0  0  0  0
  -28.0547  -18.2821   21.9403 Cl  0  0  0  0  0  0  0  0  0  0  0  0
  1  2  1  0  0  0  0
  1  5  2  0  0  0  0
  2  6  2  0  0  0  0
  3 10  2  0  0  0  0
  3 18  1  0  0  0  0
  4 11  1  0  0  0  0
  4 18  2  0  0  0  0
  5 20  1  0  0  0  0
  6 22  1  0  0  0  0
  7 12  2  0  0  0  0
  7 21  1  0  0  0  0
  8  9  2  0  0  0  0
  8 24  1  0  0  0  0
  9 25  1  0  0  0  0
 10 26  1  0  0  0  0
 11 26  2  0  0  0  0
 12 27  1  0  0  0  0
 13 14  2  0  0  0  0
 13 28  1  0  0  0  0
 14 29  1  0  0  0  0
 15 23  1  0  0  0  0
 15 27  2  0  0  0  0
 16 25  2  0  0  0  0
 16 31  1  0  0  0  0
 17 29  2  0  0  0  0
 17 30  1  0  0  0  0
 18 32  1  0  0  0  0
 19 32  1  0  0  0  0
 19 33  2  0  0  0  0
 19 34  1  0  0  0  0
 20 22  2  0  0  0  0
 20 39  1  0  0  0  0
 21 23  2  0  0  0  0
 21 40  1  0  0  0  0
 22 51  1  0  0  0  0
 23 41  1  0  0  0  0
 24 31  2  0  0  0  0
 24 60  1  0  0  0  0
 25 66  1  0  0  0  0
 26 80  1  0  0  0  0
 27 81  1  0  0  0  0
 28 30  2  0  0  0  0
 28 80  1  0  0  0  0
 29 82  1  0  0  0  0
 30 83  1  0  0  0  0
 31 84  1  0  0  0  0
 32 64  2  0  0  0  0
 33 65  1  0  0  0  0
 33 69  1  0  0  0  0
 34 70  1  0  0  0  0
 34 75  2  0  0  0  0
 35 52  1  0  0  0  0
 35 71  1  0  0  0  0
 35 76  2  0  0  0  0
 36 61  1  0  0  0  0
 36 67  1  0  0  0  0
 36 77  2  0  0  0  0
 37 62  1  0  0  0  0
 37 72  1  0  0  0  0
 37 78  2  0  0  0  0
 38 68  1  0  0  0  0
 38 73  1  0  0  0  0
 38 79  2  0  0  0  0
 39 42  1  0  0  0  0
 40 52  1  0  0  0  0
 41 67  1  0  0  0  0
 42 44  1  0  0  0  0
 43 45  1  0  0  0  0
 43 47  1  0  0  0  0
 44 51  1  0  0  0  0
 45 53  1  0  0  0  0
 46 48  1  0  0  0  0
 46 54  1  0  0  0  0
 47 68  1  0  0  0  0
 48 66  1  0  0  0  0
 49 53  1  0  0  0  0
 49 68  1  0  0  0  0
 50 54  1  0  0  0  0
 50 66  1  0  0  0  0
 51 71  1  0  0  0  0
 52 67  1  0  0  0  0
 53 65  1  0  0  0  0
 54 81  1  0  0  0  0
 55 62  1  0  0  0  0
 56 63  1  0  0  0  0
 57 63  1  0  0  0  0
 58 63  1  0  0  0  0
 59 74  1  0  0  0  0
 60 73  1  0  0  0  0
 61 63  1  0  0  0  0
 61 72  1  0  0  0  0
 62 74  1  0  0  0  0
 64 65  1  0  0  0  0
M  CHG  1  74   1
M  ISO  4  38 100  54 101  73 100  81 101
M  END
> <Batch ID>
0029

> <Smiles>
CNC(C)C(=O)NC(C(=O)N1Cc2cc([101O:1][101CH:1]3CCN(c4ccc(C[100NH:0][100C:0](=O)N5CCCC(n6nc(-c7ccc(Oc8ccc(F)cc8F)cc7)c(C(N)=O)c6N)C5)c(Cl)c4)C3)ccc2CC1C(=O)NC1CCCc2ccccc21)C(C)(C)C

> <Shape>
0.226

> <Color>
0.196

> <Negative vol penalty>
0.000

$$$$
