
  -OEChem-04042321363D

 89 98  0     1  0  0  0  0  0999 V2000
  -26.0411  -33.6486   21.7178 C   0  0  0  0  0  0  0  0  0  0  0  0
  -26.9851  -32.8595   22.3670 C   0  0  0  0  0  0  0  0  0  0  0  0
  -23.4376   -9.8828   22.3422 C   0  0  0  0  0  0  0  0  0  0  0  0
  -23.3693   -9.7071   19.9336 C   0  0  0  0  0  0  0  0  0  0  0  0
  -25.0164  -33.0485   20.9871 C   0  0  0  0  0  0  0  0  0  0  0  0
  -26.9043  -31.4697   22.2868 C   0  0  0  0  0  0  0  0  0  0  0  0
  -31.5768  -27.5145   22.1121 C   0  0  0  0  0  0  0  0  0  0  0  0
  -22.6708   -8.7225   22.4487 C   0  0  0  0  0  0  0  0  0  0  0  0
  -22.6026   -8.5467   20.0400 C   0  0  0  0  0  0  0  0  0  0  0  0
  -32.1817  -26.7333   23.0958 C   0  0  0  0  0  0  0  0  0  0  0  0
  -23.1608   -5.3842   22.2289 C   0  0  0  0  0  0  0  0  0  0  0  0
  -23.5595   -4.4270   23.1619 C   0  0  0  0  0  0  0  0  0  0  0  0
  -30.8089  -24.8599   22.4437 C   0  0  0  0  0  0  0  0  0  0  0  0
  -30.8501  -18.3883   23.6403 C   0  0  0  0  0  0  0  0  0  0  0  0
  -31.0486  -18.8356   21.2744 C   0  0  0  0  0  0  0  0  0  0  0  0
  -21.4365   -4.6463   24.2941 C   0  0  0  0  0  0  0  0  0  0  0  0
  -23.7868  -10.3752   21.0847 C   0  0  0  0  0  0  0  0  0  0  0  0
  -24.2497  -12.8568   21.4521 C   0  0  0  0  0  0  0  0  0  0  0  0
  -24.9287  -31.6509   20.8899 C   0  0  0  0  0  0  0  0  0  0  0  0
  -30.5740  -26.9765   21.2927 C   0  0  0  0  0  0  0  0  0  0  0  0
  -25.8768  -30.8504   21.5553 C   0  0  0  0  0  0  0  0  0  0  0  0
  -30.1947  -25.6357   21.4487 C   0  0  0  0  0  0  0  0  0  0  0  0
  -31.0717  -19.2847   22.5948 C   0  0  0  0  0  0  0  0  0  0  0  0
  -30.6056  -17.0428   23.3654 C   0  0  0  0  0  0  0  0  0  0  0  0
  -30.8040  -17.4901   20.9995 C   0  0  0  0  0  0  0  0  0  0  0  0
  -30.5825  -16.5937   22.0450 C   0  0  0  0  0  0  0  0  0  0  0  0
  -22.2533   -8.0544   21.2975 C   0  0  0  0  0  0  0  0  0  0  0  0
  -31.7958  -25.4067   23.2636 C   0  0  0  0  0  0  0  0  0  0  0  0
  -21.9000   -5.9725   22.3285 C   0  0  0  0  0  0  0  0  0  0  0  0
  -22.6974   -4.0581   24.1945 C   0  0  0  0  0  0  0  0  0  0  0  0
  -21.0378   -5.6035   23.3611 C   0  0  0  0  0  0  0  0  0  0  0  0
  -24.5783  -11.5741   20.9741 C   0  0  0  0  0  0  0  0  0  0  0  0
  -25.3213  -13.6398   21.0987 C   0  0  0  0  0  0  0  0  0  0  0  0
  -32.4746  -22.2261   24.4120 C   0  0  0  0  0  0  0  0  0  0  0  0
  -31.8504  -22.2278   25.6044 C   0  0  0  0  0  0  0  0  0  0  0  0
  -23.0803  -13.3008   22.1529 C   0  0  0  0  0  0  0  0  0  0  0  0
  -27.5027  -27.6221   20.7887 C   0  0  0  0  0  0  0  0  0  0  0  0
  -27.8143  -25.3792   18.4660 C   0  0  0  0  0  0  0  0  0  0  0  0
  -29.4239  -22.1708   18.1025 C   0  0  0  0  0  0  0  0  0  0  0  0
  -30.8090  -14.4860   20.6840 C   0  0  0  0  0  0  0  0  0  0  0  0
  -23.7758  -31.0471   20.1276 C   0  0  0  0  0  0  0  0  0  0  0  0
  -29.9501  -27.8246   20.2185 C   0  0  0  0  0  0  0  0  0  0  0  0
  -29.1374  -25.0046   20.5813 C   0  0  0  0  0  0  0  0  0  0  0  0
  -23.9786  -29.5740   19.7825 C   0  0  0  0  0  0  0  0  0  0  0  0
  -35.4852  -22.5999   23.5532 C   0  0  0  0  0  0  0  0  0  0  0  0
  -29.2442  -12.6728   18.0495 C   0  0  0  0  0  0  0  0  0  0  0  0
  -35.0857  -21.1346   23.7332 C   0  0  0  0  0  0  0  0  0  0  0  0
  -24.4796  -28.8044   21.0005 C   0  0  0  0  0  0  0  0  0  0  0  0
  -34.5426  -23.6228   24.1831 C   0  0  0  0  0  0  0  0  0  0  0  0
  -27.8638  -12.3308   18.6148 C   0  0  0  0  0  0  0  0  0  0  0  0
  -30.3281  -12.6122   19.1243 C   0  0  0  0  0  0  0  0  0  0  0  0
  -28.6742  -13.0666   20.8927 C   0  0  0  0  0  0  0  0  0  0  0  0
  -33.8318  -20.7562   22.9482 C   0  0  0  0  0  0  0  0  0  0  0  0
  -25.8372  -29.3399   21.4714 C   0  0  1  0  0  0  0  0  0  0  0  0
  -33.0725  -23.4667   23.7880 C   0  0  2  0  0  0  0  0  0  1  0  0
  -28.5774  -27.3220   19.7823 C   0  0  1  0  0  0  0  0  0  0  0  0
  -27.5396  -13.1776   19.8612 C   0  0  2  0  0  0  0  0  0  0  0  0
  -30.3724  -16.1065   24.5069 C   0  0  0  0  0  0  0  0  0  0  0  0
  -29.4897  -17.4202   18.8655 C   0  0  0  0  0  0  0  0  0  0  0  0
  -30.2916  -21.0031   16.0578 C   0  0  0  0  0  0  0  0  0  0  0  0
  -25.0736  -24.0388   18.4227 C   0  0  0  0  0  0  0  0  0  0  0  0
  -26.1983  -21.9206   17.7040 C   0  0  0  0  0  0  0  0  0  0  0  0
  -26.3144  -23.9465   16.2533 C   0  0  0  0  0  0  0  0  0  0  0  0
  -32.1212  -21.8628   19.2811 C   0  0  0  0  0  0  0  0  0  0  0  0
  -30.7851  -17.0390   19.5746 C   0  0  0  0  0  0  0  0  0  0  0  0
  -31.3350  -20.7318   22.8905 C   0  0  0  0  0  0  0  0  0  0  0  0
  -27.6505  -23.8800   18.3987 C   0  0  1  0  0  0  0  0  0  0  0  0
  -30.6496  -21.8589   17.2629 C   0  0  2  0  0  0  0  0  0  0  0  0
  -26.3169  -23.4595   17.7187 C   0  0  0  0  0  0  0  0  0  0  0  0
  -25.7658  -11.5399   20.3636 N   0  0  0  0  0  0  0  0  0  0  0  0
  -26.1926  -12.8109   20.4553 N   0  0  0  0  0  0  0  0  0  0  0  0
  -28.5525  -25.8766   19.5493 N   0  0  0  0  0  0  0  0  0  0  0  0
  -29.9546  -13.4415   20.2722 N   0  0  0  0  0  0  0  0  0  0  0  0
  -25.5939  -14.9497   21.2786 N   0  0  0  0  0  0  0  0  0  0  0  0
  -21.9907  -13.7683   21.4055 N   0  0  0  0  0  0  0  0  0  0  0  0
  -30.3340  -15.2270   21.7655 N   0  0  0  0  0  0  0  0  0  0  0  0
  -26.8973  -28.8521   20.6154 N   0  0  0  0  0  0  0  0  0  0  0  0
  -28.8458  -23.3681   17.7372 N   0  0  0  0  0  0  0  0  0  0  0  0
  -32.5611  -20.9474   23.7423 N   0  3  2  0  0  0  0  0  0  0  0  0
  -31.6614  -21.1263   18.0756 N   0  3  0  0  0  0  0  0  0  0  0  0
  -23.0101  -13.2988   23.4053 O   0  0  0  0  0  0  0  0  0  0  0  0
  -27.2411  -26.7981   21.6571 O   0  0  0  0  0  0  0  0  0  0  0  0
  -27.3120  -26.0826   17.5859 O   0  0  0  0  0  0  0  0  0  0  0  0
  -29.0177  -21.4249   18.9909 O   0  0  0  0  0  0  0  0  0  0  0  0
  -31.8702  -14.7241   20.1016 O   0  0  0  0  0  0  0  0  0  0  0  0
  -21.5053   -6.9220   21.4010 O   0  0  0  0  0  0  0  0  0  0  0  0
  -32.3841  -24.6421   24.2234 O   0  0  0  0  0  0  0  0  0  1  0  0
  -23.0798   -3.1378   25.0895 F   0  0  0  0  0  0  0  0  0  0  0  0
  -19.8249   -6.1644   23.4612 F   0  0  0  0  0  0  0  0  0  0  0  0
  1  2  1  0  0  0  0
  1  5  2  0  0  0  0
  2  6  2  0  0  0  0
  3  8  2  0  0  0  0
  3 17  1  0  0  0  0
  4  9  1  0  0  0  0
  4 17  2  0  0  0  0
  5 19  1  0  0  0  0
  6 21  1  0  0  0  0
  7 10  2  0  0  0  0
  7 20  1  0  0  0  0
  8 27  1  0  0  0  0
  9 27  2  0  0  0  0
 10 28  1  0  0  0  0
 11 12  2  0  0  0  0
 11 29  1  0  0  0  0
 12 30  1  0  0  0  0
 13 22  1  0  0  0  0
 13 28  2  0  0  0  0
 14 23  1  0  0  0  0
 14 24  2  0  0  0  0
 15 23  2  0  0  0  0
 15 25  1  0  0  0  0
 16 30  2  0  0  0  0
 16 31  1  0  0  0  0
 17 32  1  0  0  0  0
 18 32  1  0  0  0  0
 18 33  2  0  0  0  0
 18 36  1  0  0  0  0
 19 21  2  0  0  0  0
 19 41  1  0  0  0  0
 20 22  2  0  0  0  0
 20 42  1  0  0  0  0
 21 54  1  0  0  0  0
 22 43  1  0  0  0  0
 23 66  1  0  0  0  0
 24 26  1  0  0  0  0
 24 58  1  0  0  0  0
 25 26  2  0  0  0  0
 25 65  1  0  0  0  0
 26 76  1  0  0  0  0
 27 86  1  0  0  0  0
 28 87  1  0  0  0  0
 29 31  2  0  0  0  0
 29 86  1  0  0  0  0
 30 88  1  0  0  0  0
 31 89  1  0  0  0  0
 32 70  2  0  0  0  0
 33 71  1  0  0  0  0
 33 74  1  0  0  0  0
 34 35  2  0  0  0  0
 34 55  1  0  0  0  0
 34 79  1  0  0  0  0
 36 75  1  0  0  0  0
 36 81  2  0  0  0  0
 37 56  1  0  0  0  0
 37 77  1  0  0  0  0
 37 82  2  0  0  0  0
 38 67  1  0  0  0  0
 38 72  1  0  0  0  0
 38 83  2  0  0  0  0
 39 68  1  0  0  0  0
 39 78  1  0  0  0  0
 39 84  2  0  0  0  0
 40 73  1  0  0  0  0
 40 76  1  0  0  0  0
 40 85  2  0  0  0  0
 41 44  1  0  0  0  0
 42 56  1  0  0  0  0
 43 72  1  0  0  0  0
 44 48  1  0  0  0  0
 45 47  1  0  0  0  0
 45 49  1  0  0  0  0
 46 50  1  0  0  0  0
 46 51  1  0  0  0  0
 47 53  1  0  0  0  0
 48 54  1  0  0  0  0
 49 55  1  0  0  0  0
 50 57  1  0  0  0  0
 51 73  1  0  0  0  0
 52 57  1  0  0  0  0
 52 73  1  0  0  0  0
 53 79  1  0  0  0  0
 54 77  1  0  0  0  0
 55 87  1  0  0  0  0
 56 72  1  0  0  0  0
 57 71  1  0  0  0  0
 59 65  1  0  0  0  0
 60 68  1  0  0  0  0
 61 69  1  0  0  0  0
 62 69  1  0  0  0  0
 63 69  1  0  0  0  0
 64 80  1  0  0  0  0
 66 79  1  0  0  0  0
 67 69  1  0  0  0  0
 67 78  1  0  0  0  0
 68 80  1  0  0  0  0
 70 71  1  0  0  0  0
M  CHG  2  79   1  80   1
M  ISO  4  40 100  55 101  76 100  87 101
M  END
> <Batch ID>
0030

> <Smiles>
C=C1N(Cc2cc(C)c([100NH:0][100C:0](=O)N3CCCC(n4nc(-c5ccc(Oc6ccc(F)cc6F)cc5)c(C(N)=O)c4N)C3)c(CC)c2)CCCC[101CH:1]1[101O:1]c1ccc2c(c1)CN(C(=O)C(NC(=O)C(C)NC)C(C)(C)C)C(C(=O)NC1CCCc3ccccc31)C2

> <Shape>
0.311

> <Color>
0.174

> <Negative vol penalty>
0.000

$$$$

  -OEChem-04042321363D

 85 94  0     1  0  0  0  0  0999 V2000
  -18.5504  -16.3216   19.1734 C   0  0  0  0  0  0  0  0  0  0  0  0
  -19.6290  -17.1996   19.1402 C   0  0  0  0  0  0  0  0  0  0  0  0
  -19.3777  -28.4638   21.9895 C   0  0  0  0  0  0  0  0  0  0  0  0
  -20.6039  -27.1230   23.5818 C   0  0  0  0  0  0  0  0  0  0  0  0
  -18.6219  -15.1602   19.9414 C   0  0  0  0  0  0  0  0  0  0  0  0
  -20.7794  -16.9172   19.8759 C   0  0  0  0  0  0  0  0  0  0  0  0
  -26.5584  -18.2080   18.3127 C   0  0  0  0  0  0  0  0  0  0  0  0
  -31.2301  -22.5335   19.0930 C   0  0  0  0  0  0  0  0  0  0  0  0
  -18.3798  -27.4906   21.9384 C   0  0  0  0  0  0  0  0  0  0  0  0
  -19.6059  -26.1497   23.5308 C   0  0  0  0  0  0  0  0  0  0  0  0
  -27.4172  -19.2463   18.6704 C   0  0  0  0  0  0  0  0  0  0  0  0
  -18.6729  -23.6443   21.4612 C   0  0  0  0  0  0  0  0  0  0  0  0
  -32.1779  -23.4388   19.5701 C   0  0  0  0  0  0  0  0  0  0  0  0
  -19.0718  -22.3120   21.3553 C   0  0  0  0  0  0  0  0  0  0  0  0
  -28.3844  -17.8484   20.3821 C   0  0  0  0  0  0  0  0  0  0  0  0
  -29.8770  -22.9144   21.0579 C   0  0  0  0  0  0  0  0  0  0  0  0
  -17.9571  -21.8126   23.4398 C   0  0  0  0  0  0  0  0  0  0  0  0
  -20.4898  -28.2800   22.8111 C   0  0  0  0  0  0  0  0  0  0  0  0
  -21.5912  -30.3861   23.7378 C   0  0  0  0  0  0  0  0  0  0  0  0
  -19.7774  -14.8585   20.6792 C   0  0  0  0  0  0  0  0  0  0  0  0
  -26.5987  -16.9837   18.9953 C   0  0  0  0  0  0  0  0  0  0  0  0
  -20.8659  -15.7512   20.6555 C   0  0  0  0  0  0  0  0  0  0  0  0
  -27.5267  -16.7953   20.0294 C   0  0  0  0  0  0  0  0  0  0  0  0
  -30.0796  -22.2713   19.8368 C   0  0  0  0  0  0  0  0  0  0  0  0
  -30.8248  -23.8197   21.5352 C   0  0  0  0  0  0  0  0  0  0  0  0
  -18.4938  -26.3336   22.7091 C   0  0  0  0  0  0  0  0  0  0  0  0
  -28.3284  -19.0676   19.7072 C   0  0  0  0  0  0  0  0  0  0  0  0
  -17.9161  -24.0609   22.5564 C   0  0  0  0  0  0  0  0  0  0  0  0
  -18.7139  -21.3961   22.3446 C   0  0  0  0  0  0  0  0  0  0  0  0
  -31.9753  -24.0819   20.7912 C   0  0  0  0  0  0  0  0  0  0  0  0
  -17.5582  -23.1450   23.5457 C   0  0  0  0  0  0  0  0  0  0  0  0
  -21.5212  -29.2846   22.8639 C   0  0  0  0  0  0  0  0  0  0  0  0
  -22.7526  -31.0298   23.3867 C   0  0  0  0  0  0  0  0  0  0  0  0
  -20.6872  -30.7912   24.7743 C   0  0  0  0  0  0  0  0  0  0  0  0
  -24.5354  -15.3301   20.7594 C   0  0  0  0  0  0  0  0  0  0  0  0
  -26.8761  -13.0853   20.6933 C   0  0  0  0  0  0  0  0  0  0  0  0
  -30.1914  -12.3667   20.3203 C   0  0  0  0  0  0  0  0  0  0  0  0
  -27.8013  -29.1824   20.7505 C   0  0  0  0  0  0  0  0  0  0  0  0
  -19.7900  -13.6146   21.5321 C   0  0  0  0  0  0  0  0  0  0  0  0
  -25.6838  -15.8645   18.5796 C   0  0  0  0  0  0  0  0  0  0  0  0
  -27.6239  -15.4933   20.7802 C   0  0  0  0  0  0  0  0  0  0  0  0
  -21.1877  -13.2016   21.9861 C   0  0  0  0  0  0  0  0  0  0  0  0
  -25.6329  -31.7792   19.6406 C   0  0  0  0  0  0  0  0  0  0  0  0
  -21.9560  -14.4089   22.5144 C   0  0  0  0  0  0  0  0  0  0  0  0
  -24.3396  -31.5337   20.4196 C   0  0  0  0  0  0  0  0  0  0  0  0
  -29.1748  -27.6294   23.8480 C   0  0  0  0  0  0  0  0  0  0  0  0
  -26.3117  -30.4692   19.2465 C   0  0  0  0  0  0  0  0  0  0  0  0
  -25.2656  -29.2937   21.1433 C   0  0  0  0  0  0  0  0  0  0  0  0
  -30.3744  -26.7174   24.0523 C   0  0  0  0  0  0  0  0  0  0  0  0
  -29.4737  -26.4966   21.7887 C   0  0  0  0  0  0  0  0  0  0  0  0
  -22.1405  -15.4673   21.4203 C   0  0  1  0  0  0  0  0  0  0  0  0
  -25.4594  -14.8351   19.6829 C   0  0  1  0  0  0  0  0  0  0  0  0
  -24.5740  -30.5857   21.6111 C   0  0  2  0  0  0  0  0  0  0  0  0
  -29.1531  -27.8686   22.3481 C   0  0  1  0  0  0  0  0  0  0  0  0
  -31.8071  -10.4469   20.3566 C   0  0  0  0  0  0  0  0  0  0  0  0
  -26.7287  -13.0220   23.7403 C   0  0  0  0  0  0  0  0  0  0  0  0
  -28.9418  -11.8514   23.7535 C   0  0  0  0  0  0  0  0  0  0  0  0
  -26.9722  -10.7793   22.6608 C   0  0  0  0  0  0  0  0  0  0  0  0
  -30.9852  -12.8305   17.5072 C   0  0  0  0  0  0  0  0  0  0  0  0
  -30.6062  -24.5050   22.8417 C   0  0  0  0  0  0  0  0  0  0  0  0
  -29.0600  -21.2977   19.3232 C   0  0  0  0  0  0  0  0  0  1  0  0
  -28.0755  -12.7658   21.5525 C   0  0  1  0  0  0  0  0  0  0  0  0
  -30.9072  -11.3154   19.4914 C   0  0  2  0  0  0  0  0  0  0  0  0
  -27.6766  -12.1299   22.9141 C   0  0  0  0  0  0  0  0  0  0  0  0
  -22.5558  -29.2287   22.0209 N   0  0  0  0  0  0  0  0  0  0  0  0
  -23.2867  -30.3032   22.3634 N   0  0  0  0  0  0  0  0  0  0  0  0
  -26.7038  -14.4314   20.3408 N   0  0  0  0  0  0  0  0  0  0  0  0
  -26.5065  -29.6165   20.4217 N   0  0  0  0  0  0  0  0  0  0  0  0
  -23.3589  -32.1407   23.8564 N   0  0  0  0  0  0  0  0  0  0  0  0
  -19.5420  -30.0162   25.0025 N   0  0  0  0  0  0  0  0  0  0  0  0
  -23.1992  -15.0777   20.5136 N   0  0  0  0  0  0  0  0  0  0  0  0
  -28.9512  -11.9312   20.7369 N   0  0  0  0  0  0  0  0  0  0  0  0
  -27.8983  -28.3831   21.8829 N   0  0  0  0  0  0  0  0  0  0  0  0
  -30.5508  -25.9946   22.7283 N   0  3  2  0  0  0  0  0  0  0  0  0
  -31.7458  -11.9642   18.4442 N   0  3  0  0  0  0  0  0  0  0  0  0
  -20.8807  -31.8194   25.4664 O   0  0  0  0  0  0  0  0  0  0  0  0
  -25.0003  -15.8975   21.7409 O   0  0  0  0  0  0  0  0  0  0  0  0
  -26.1238  -12.1731   20.3417 O   0  0  0  0  0  0  0  0  0  0  0  0
  -30.6847  -13.4629   20.5760 O   0  0  0  0  0  0  0  0  0  0  0  0
  -28.7978  -29.4892   20.0873 O   0  0  0  0  0  0  0  0  0  0  0  0
  -17.5201  -25.3838   22.6597 O   0  0  0  0  0  0  0  0  0  0  0  0
  -29.1675  -20.0797   20.0588 O   0  0  0  0  0  0  0  0  0  1  0  0
  -19.0958  -20.1163   22.2421 F   0  0  0  0  0  0  0  0  0  0  0  0
  -32.8925  -24.9490   21.2423 F   0  0  0  0  0  0  0  0  0  0  0  0
  -16.8303  -23.5390   24.5996 F   0  0  0  0  0  0  0  0  0  0  0  0
  1  2  1  0  0  0  0
  1  5  2  0  0  0  0
  2  6  2  0  0  0  0
  3  9  2  0  0  0  0
  3 18  1  0  0  0  0
  4 10  1  0  0  0  0
  4 18  2  0  0  0  0
  5 20  1  0  0  0  0
  6 22  1  0  0  0  0
  7 11  2  0  0  0  0
  7 21  1  0  0  0  0
  8 13  2  0  0  0  0
  8 24  1  0  0  0  0
  9 26  1  0  0  0  0
 10 26  2  0  0  0  0
 11 27  1  0  0  0  0
 12 14  2  0  0  0  0
 12 28  1  0  0  0  0
 13 30  1  0  0  0  0
 14 29  1  0  0  0  0
 15 23  1  0  0  0  0
 15 27  2  0  0  0  0
 16 24  2  0  0  0  0
 16 25  1  0  0  0  0
 17 29  2  0  0  0  0
 17 31  1  0  0  0  0
 18 32  1  0  0  0  0
 19 32  1  0  0  0  0
 19 33  2  0  0  0  0
 19 34  1  0  0  0  0
 20 22  2  0  0  0  0
 20 39  1  0  0  0  0
 21 23  2  0  0  0  0
 21 40  1  0  0  0  0
 22 51  1  0  0  0  0
 23 41  1  0  0  0  0
 24 61  1  0  0  0  0
 25 30  2  0  0  0  0
 25 60  1  0  0  0  0
 26 81  1  0  0  0  0
 27 82  1  0  0  0  0
 28 31  2  0  0  0  0
 28 81  1  0  0  0  0
 29 83  1  0  0  0  0
 30 84  1  0  0  0  0
 31 85  1  0  0  0  0
 32 65  2  0  0  0  0
 33 66  1  0  0  0  0
 33 69  1  0  0  0  0
 34 70  1  0  0  0  0
 34 76  2  0  0  0  0
 35 52  1  0  0  0  0
 35 71  1  0  0  0  0
 35 77  2  0  0  0  0
 36 62  1  0  0  0  0
 36 67  1  0  0  0  0
 36 78  2  0  0  0  0
 37 63  1  0  0  0  0
 37 72  1  0  0  0  0
 37 79  2  0  0  0  0
 38 68  1  0  0  0  0
 38 73  1  0  0  0  0
 38 80  2  0  0  0  0
 39 42  1  0  0  0  0
 40 52  1  0  0  0  0
 41 67  1  0  0  0  0
 42 44  1  0  0  0  0
 43 45  1  0  0  0  0
 43 47  1  0  0  0  0
 44 51  1  0  0  0  0
 45 53  1  0  0  0  0
 46 49  1  0  0  0  0
 46 54  1  0  0  0  0
 47 68  1  0  0  0  0
 48 53  1  0  0  0  0
 48 68  1  0  0  0  0
 49 74  1  0  0  0  0
 50 54  1  0  0  0  0
 50 74  1  0  0  0  0
 51 71  1  0  0  0  0
 52 67  1  0  0  0  0
 53 66  1  0  0  0  0
 54 73  1  0  0  0  0
 55 63  1  0  0  0  0
 56 64  1  0  0  0  0
 57 64  1  0  0  0  0
 58 64  1  0  0  0  0
 59 75  1  0  0  0  0
 60 74  1  0  0  0  0
 61 82  1  0  0  0  0
 62 64  1  0  0  0  0
 62 72  1  0  0  0  0
 63 75  1  0  0  0  0
 65 66  1  0  0  0  0
M  CHG  2  74   1  75   1
M  ISO  4  38 100  61 101  73 100  82 101
M  END
> <Batch ID>
0030

> <Smiles>
CNC(C)C(=O)NC(C(=O)N1Cc2cc([101O:1][101CH2:1]c3ccc(F)c(CN4CCC([100NH:0][100C:0](=O)N5CCCC(n6nc(-c7ccc(Oc8ccc(F)cc8F)cc7)c(C(N)=O)c6N)C5)C4)c3)ccc2CC1C(=O)NC1CCCc2ccccc21)C(C)(C)C

> <Shape>
0.247

> <Color>
0.075

> <Negative vol penalty>
0.000

$$$$

  -OEChem-04042321363D

 85 94  0     1  0  0  0  0  0999 V2000
  -21.4991  -11.9156   21.1697 C   0  0  0  0  0  0  0  0  0  0  0  0
  -21.6461  -13.0753   21.9240 C   0  0  0  0  0  0  0  0  0  0  0  0
  -22.6232  -28.1772   19.4955 C   0  0  0  0  0  0  0  0  0  0  0  0
  -22.9580  -27.8980   21.8719 C   0  0  0  0  0  0  0  0  0  0  0  0
  -22.5940  -11.3847   20.4890 C   0  0  0  0  0  0  0  0  0  0  0  0
  -22.8884  -13.7041   21.9990 C   0  0  0  0  0  0  0  0  0  0  0  0
  -23.9507  -19.7239   22.3722 C   0  0  0  0  0  0  0  0  0  0  0  0
  -21.2519  -27.9871   19.6664 C   0  0  0  0  0  0  0  0  0  0  0  0
  -21.5867  -27.7080   22.0428 C   0  0  0  0  0  0  0  0  0  0  0  0
  -24.2327  -20.5616   23.4505 C   0  0  0  0  0  0  0  0  0  0  0  0
  -18.8092  -29.6262   22.2063 C   0  0  0  0  0  0  0  0  0  0  0  0
  -18.1898  -30.2977   23.2603 C   0  0  0  0  0  0  0  0  0  0  0  0
  -26.5907  -20.3587   22.9836 C   0  0  0  0  0  0  0  0  0  0  0  0
  -27.7761  -27.4706   28.8605 C   0  0  0  0  0  0  0  0  0  0  0  0
  -29.4722  -28.0369   27.2360 C   0  0  0  0  0  0  0  0  0  0  0  0
  -17.5112  -28.1821   24.2094 C   0  0  0  0  0  0  0  0  0  0  0  0
  -23.4762  -28.1326   20.5983 C   0  0  0  0  0  0  0  0  0  0  0  0
  -25.5350  -29.4647   19.8952 C   0  0  0  0  0  0  0  0  0  0  0  0
  -23.8481  -12.0128   20.5479 C   0  0  0  0  0  0  0  0  0  0  0  0
  -24.9889  -19.1877   21.5969 C   0  0  0  0  0  0  0  0  0  0  0  0
  -24.0014  -13.1804   21.3196 C   0  0  0  0  0  0  0  0  0  0  0  0
  -26.3191  -19.5165   21.8945 C   0  0  0  0  0  0  0  0  0  0  0  0
  -28.6376  -28.4077   28.2903 C   0  0  0  0  0  0  0  0  0  0  0  0
  -27.7492  -26.1626   28.3765 C   0  0  0  0  0  0  0  0  0  0  0  0
  -29.4453  -26.7290   26.7519 C   0  0  0  0  0  0  0  0  0  0  0  0
  -28.5838  -25.7919   27.3222 C   0  0  0  0  0  0  0  0  0  0  0  0
  -20.7337  -27.7526   20.9400 C   0  0  0  0  0  0  0  0  0  0  0  0
  -25.5530  -20.8767   23.7581 C   0  0  0  0  0  0  0  0  0  0  0  0
  -18.7796  -28.2326   22.1538 C   0  0  0  0  0  0  0  0  0  0  0  0
  -17.5408  -29.5757   24.2619 C   0  0  0  0  0  0  0  0  0  0  0  0
  -18.1306  -27.5105   23.1553 C   0  0  0  0  0  0  0  0  0  0  0  0
  -24.8929  -28.3283   20.4224 C   0  0  0  0  0  0  0  0  0  0  0  0
  -26.8724  -29.1552   19.9403 C   0  0  0  0  0  0  0  0  0  0  0  0
  -24.9729  -30.6905   19.4083 C   0  0  0  0  0  0  0  0  0  0  0  0
  -26.0240  -16.2513   20.9567 C   0  0  0  0  0  0  0  0  0  0  0  0
  -27.9958  -17.8132   18.9086 C   0  0  0  0  0  0  0  0  0  0  0  0
  -29.5934  -20.7089   18.0663 C   0  0  0  0  0  0  0  0  0  0  0  0
  -30.0794  -25.4143   23.3421 C   0  0  0  0  0  0  0  0  0  0  0  0
  -25.0135  -11.3754   19.8336 C   0  0  0  0  0  0  0  0  0  0  0  0
  -24.6667  -18.3072   20.4208 C   0  0  0  0  0  0  0  0  0  0  0  0
  -27.4689  -18.9832   21.0809 C   0  0  0  0  0  0  0  0  0  0  0  0
  -26.2075  -12.3106   19.6609 C   0  0  0  0  0  0  0  0  0  0  0  0
  -29.8587  -25.4203   19.7885 C   0  0  0  0  0  0  0  0  0  0  0  0
  -26.5116  -13.0351   20.9684 C   0  0  0  0  0  0  0  0  0  0  0  0
  -28.6190  -26.2688   19.5004 C   0  0  0  0  0  0  0  0  0  0  0  0
  -29.6826  -24.5725   21.0463 C   0  0  0  0  0  0  0  0  0  0  0  0
  -28.0503  -26.1751   21.9635 C   0  0  0  0  0  0  0  0  0  0  0  0
  -28.0375  -22.9264   24.9061 C   0  0  0  0  0  0  0  0  0  0  0  0
  -26.4156  -23.9917   25.6790 C   0  0  0  0  0  0  0  0  0  0  0  0
  -25.3270  -13.9053   21.4054 C   0  0  1  0  0  0  0  0  0  0  0  0
  -25.8277  -17.4049   20.0142 C   0  0  1  0  0  0  0  0  0  0  0  0
  -28.2017  -27.0894   20.7356 C   0  0  2  0  0  0  0  0  0  0  0  0
  -26.5341  -22.9245   24.5768 C   0  0  0  0  0  0  0  0  0  1  0  0
  -28.6669  -29.8059   28.8082 C   0  0  0  0  0  0  0  0  0  0  0  0
  -26.8167  -25.1786   29.0039 C   0  0  0  0  0  0  0  0  0  0  0  0
  -31.1654  -21.6672   16.3611 C   0  0  0  0  0  0  0  0  0  0  0  0
  -30.3264  -16.3724   20.2510 C   0  0  0  0  0  0  0  0  0  0  0  0
  -31.8718  -18.0352   19.1951 C   0  0  0  0  0  0  0  0  0  0  0  0
  -30.4929  -16.5306   17.7607 C   0  0  0  0  0  0  0  0  0  0  0  0
  -27.5987  -22.7078   17.1807 C   0  0  0  0  0  0  0  0  0  0  0  0
  -30.3490  -26.3572   25.6218 C   0  0  0  0  0  0  0  0  0  0  0  0
  -28.5543  -24.3851   26.8015 C   0  0  0  0  0  0  0  0  0  0  0  0
  -29.3729  -18.4239   19.0068 C   0  0  1  0  0  0  0  0  0  0  0  0
  -29.7104  -21.4471   16.7450 C   0  0  2  0  0  0  0  0  0  0  0  0
  -30.4946  -17.3492   19.0701 C   0  0  0  0  0  0  0  0  0  0  0  0
  -25.7516  -27.3684   20.7762 N   0  0  0  0  0  0  0  0  0  0  0  0
  -26.9471  -27.9010   20.4708 N   0  0  0  0  0  0  0  0  0  0  0  0
  -27.1029  -18.1213   19.9448 N   0  0  0  0  0  0  0  0  0  0  0  0
  -29.2886  -25.4108   22.1812 N   0  0  0  0  0  0  0  0  0  0  0  0
  -27.9801  -29.8363   19.5775 N   0  0  0  0  0  0  0  0  0  0  0  0
  -24.6373  -30.7788   18.0504 N   0  0  0  0  0  0  0  0  0  0  0  0
  -25.2864  -15.1285   20.6330 N   0  0  0  0  0  0  0  0  0  0  0  0
  -29.4916  -19.3461   17.8826 N   0  0  0  0  0  0  0  0  0  0  0  0
  -29.6384  -26.2413   24.3678 N   0  0  0  0  0  0  0  0  0  0  0  0
  -27.8547  -24.2619   25.5039 N   0  3  0  0  0  0  0  0  0  0  0  0
  -29.0414  -22.7759   16.8330 N   0  3  0  0  0  0  0  0  0  0  0  0
  -24.7894  -31.6840   20.1519 O   0  0  0  0  0  0  0  0  0  0  0  0
  -26.7891  -16.3706   21.9065 O   0  0  0  0  0  0  0  0  0  0  0  0
  -27.7201  -17.0952   17.9442 O   0  0  0  0  0  0  0  0  0  0  0  0
  -29.5960  -21.2833   19.1528 O   0  0  0  0  0  0  0  0  0  0  0  0
  -31.1055  -24.7350   23.4539 O   0  0  0  0  0  0  0  0  0  0  0  0
  -19.3957  -27.5673   21.1071 O   0  0  0  0  0  0  0  0  0  0  0  0
  -25.8311  -21.6936   24.8104 O   0  0  0  0  0  0  0  0  0  1  0  0
  -16.9474  -30.2206   25.2748 F   0  0  0  0  0  0  0  0  0  0  0  0
  -18.0998  -26.1716   23.1109 F   0  0  0  0  0  0  0  0  0  0  0  0
  1  2  1  0  0  0  0
  1  5  2  0  0  0  0
  2  6  2  0  0  0  0
  3  8  2  0  0  0  0
  3 17  1  0  0  0  0
  4  9  1  0  0  0  0
  4 17  2  0  0  0  0
  5 19  1  0  0  0  0
  6 21  1  0  0  0  0
  7 10  2  0  0  0  0
  7 20  1  0  0  0  0
  8 27  1  0  0  0  0
  9 27  2  0  0  0  0
 10 28  1  0  0  0  0
 11 12  2  0  0  0  0
 11 29  1  0  0  0  0
 12 30  1  0  0  0  0
 13 22  1  0  0  0  0
 13 28  2  0  0  0  0
 14 23  1  0  0  0  0
 14 24  2  0  0  0  0
 15 23  2  0  0  0  0
 15 25  1  0  0  0  0
 16 30  2  0  0  0  0
 16 31  1  0  0  0  0
 17 32  1  0  0  0  0
 18 32  1  0  0  0  0
 18 33  2  0  0  0  0
 18 34  1  0  0  0  0
 19 21  2  0  0  0  0
 19 39  1  0  0  0  0
 20 22  2  0  0  0  0
 20 40  1  0  0  0  0
 21 50  1  0  0  0  0
 22 41  1  0  0  0  0
 23 54  1  0  0  0  0
 24 26  1  0  0  0  0
 24 55  1  0  0  0  0
 25 26  2  0  0  0  0
 25 61  1  0  0  0  0
 26 62  1  0  0  0  0
 27 82  1  0  0  0  0
 28 83  1  0  0  0  0
 29 31  2  0  0  0  0
 29 82  1  0  0  0  0
 30 84  1  0  0  0  0
 31 85  1  0  0  0  0
 32 66  2  0  0  0  0
 33 67  1  0  0  0  0
 33 70  1  0  0  0  0
 34 71  1  0  0  0  0
 34 77  2  0  0  0  0
 35 51  1  0  0  0  0
 35 72  1  0  0  0  0
 35 78  2  0  0  0  0
 36 63  1  0  0  0  0
 36 68  1  0  0  0  0
 36 79  2  0  0  0  0
 37 64  1  0  0  0  0
 37 73  1  0  0  0  0
 37 80  2  0  0  0  0
 38 69  1  0  0  0  0
 38 74  1  0  0  0  0
 38 81  2  0  0  0  0
 39 42  1  0  0  0  0
 40 51  1  0  0  0  0
 41 68  1  0  0  0  0
 42 44  1  0  0  0  0
 43 45  1  0  0  0  0
 43 46  1  0  0  0  0
 44 50  1  0  0  0  0
 45 52  1  0  0  0  0
 46 69  1  0  0  0  0
 47 52  1  0  0  0  0
 47 69  1  0  0  0  0
 48 53  1  0  0  0  0
 48 75  1  0  0  0  0
 49 53  1  0  0  0  0
 49 75  1  0  0  0  0
 50 72  1  0  0  0  0
 51 68  1  0  0  0  0
 52 67  1  0  0  0  0
 53 83  1  0  0  0  0
 56 64  1  0  0  0  0
 57 65  1  0  0  0  0
 58 65  1  0  0  0  0
 59 65  1  0  0  0  0
 60 76  1  0  0  0  0
 61 74  1  0  0  0  0
 62 75  1  0  0  0  0
 63 65  1  0  0  0  0
 63 73  1  0  0  0  0
 64 76  1  0  0  0  0
 66 67  1  0  0  0  0
M  CHG  2  75   1  76   1
M  ISO  4  38 100  53 101  74 100  83 101
M  END
> <Batch ID>
0030

> <Smiles>
CNC(C)C(=O)NC(C(=O)N1Cc2cc([101O:1][101CH:1]3CN(Cc4c(C)cc(C)cc4C[100NH:0][100C:0](=O)N4CCCC(n5nc(-c6ccc(Oc7ccc(F)cc7F)cc6)c(C(N)=O)c5N)C4)C3)ccc2CC1C(=O)NC1CCCc2ccccc21)C(C)(C)C

> <Shape>
0.213

> <Color>
0.072

> <Negative vol penalty>
0.000

$$$$

  -OEChem-04042321363D

 94103  0     1  0  0  0  0  0999 V2000
  -29.7991  -29.5738   19.6788 C   0  0  0  0  0  0  0  0  0  0  0  0
  -28.7333  -28.6863   19.7862 C   0  0  0  0  0  0  0  0  0  0  0  0
  -22.8574  -16.6584   18.5854 C   0  0  0  0  0  0  0  0  0  0  0  0
  -23.0892  -18.0379   20.5552 C   0  0  0  0  0  0  0  0  0  0  0  0
  -31.0026  -29.1513   19.1158 C   0  0  0  0  0  0  0  0  0  0  0  0
  -28.8699  -27.3758   19.3295 C   0  0  0  0  0  0  0  0  0  0  0  0
  -27.0027  -23.9784   22.5877 C   0  0  0  0  0  0  0  0  0  0  0  0
  -23.8833  -15.8318   19.0434 C   0  0  0  0  0  0  0  0  0  0  0  0
  -24.1151  -17.2113   21.0133 C   0  0  0  0  0  0  0  0  0  0  0  0
  -25.6182  -23.8167   22.6154 C   0  0  0  0  0  0  0  0  0  0  0  0
  -24.2546  -13.3376   21.2959 C   0  0  0  0  0  0  0  0  0  0  0  0
  -24.0609  -11.9586   21.2152 C   0  0  0  0  0  0  0  0  0  0  0  0
  -25.8277  -21.8407   21.2476 C   0  0  0  0  0  0  0  0  0  0  0  0
  -23.8421  -27.8836   18.9050 C   0  0  0  0  0  0  0  0  0  0  0  0
  -26.0017  -11.7697   19.7887 C   0  0  0  0  0  0  0  0  0  0  0  0
  -22.4603  -17.7615   19.3412 C   0  0  0  0  0  0  0  0  0  0  0  0
  -20.0231  -18.4828   19.1240 C   0  0  0  0  0  0  0  0  0  0  0  0
  -31.1573  -27.8323   18.6608 C   0  0  0  0  0  0  0  0  0  0  0  0
  -27.8105  -23.0771   21.8796 C   0  0  0  0  0  0  0  0  0  0  0  0
  -30.0762  -26.9356   18.7586 C   0  0  0  0  0  0  0  0  0  0  0  0
  -27.2224  -21.9917   21.2147 C   0  0  0  0  0  0  0  0  0  0  0  0
  -22.3430  -27.5565   20.7711 C   0  0  0  0  0  0  0  0  0  0  0  0
  -21.7406  -26.4919   20.1007 C   0  0  0  0  0  0  0  0  0  0  0  0
  -23.3937  -28.2524   20.1733 C   0  0  0  0  0  0  0  0  0  0  0  0
  -22.1889  -26.1232   18.8323 C   0  0  0  0  0  0  0  0  0  0  0  0
  -24.5121  -16.1082   20.2574 C   0  0  0  0  0  0  0  0  0  0  0  0
  -25.0302  -22.7495   21.9428 C   0  0  0  0  0  0  0  0  0  0  0  0
  -25.3217  -13.9326   20.6230 C   0  0  0  0  0  0  0  0  0  0  0  0
  -24.9345  -11.1746   20.4616 C   0  0  0  0  0  0  0  0  0  0  0  0
  -23.2397  -26.8191   18.2345 C   0  0  0  0  0  0  0  0  0  0  0  0
  -26.1953  -13.1487   19.8695 C   0  0  0  0  0  0  0  0  0  0  0  0
  -21.4010  -18.6160   18.8683 C   0  0  0  0  0  0  0  0  0  0  0  0
  -19.4466  -19.5353   18.4558 C   0  0  0  0  0  0  0  0  0  0  0  0
  -19.3266  -17.4960   19.8964 C   0  0  0  0  0  0  0  0  0  0  0  0
  -29.7985  -23.3092   19.4102 C   0  0  0  0  0  0  0  0  0  0  0  0
  -30.4235  -20.2066   20.1215 C   0  0  0  0  0  0  0  0  0  0  0  0
  -20.9122  -23.4763   21.7372 C   0  0  0  0  0  0  0  0  0  0  0  0
  -29.3708  -17.2943   21.5557 C   0  0  0  0  0  0  0  0  0  0  0  0
  -21.4736  -24.8925   16.7539 C   0  0  0  0  0  0  0  0  0  0  0  0
  -32.4616  -27.4350   18.0162 C   0  0  0  0  0  0  0  0  0  0  0  0
  -29.3047  -23.2502   21.8818 C   0  0  0  0  0  0  0  0  0  0  0  0
  -28.0470  -20.9847   20.4568 C   0  0  0  0  0  0  0  0  0  0  0  0
  -32.6477  -25.9244   17.8987 C   0  0  0  0  0  0  0  0  0  0  0  0
  -25.0949  -31.4016   21.2223 C   0  0  0  0  0  0  0  0  0  0  0  0
  -24.9149  -30.6924   22.5491 C   0  0  0  0  0  0  0  0  0  0  0  0
  -20.1049  -22.3669   14.6502 C   0  0  0  0  0  0  0  0  0  0  0  0
  -31.3813  -25.2713   17.3542 C   0  0  0  0  0  0  0  0  0  0  0  0
  -20.1509  -21.1076   15.5186 C   0  0  0  0  0  0  0  0  0  0  0  0
  -24.0743  -30.7069   20.3280 C   0  0  0  0  0  0  0  0  0  0  0  0
  -24.6992  -29.2429   22.1292 C   0  0  0  0  0  0  0  0  0  0  0  0
  -21.3203  -23.2623   14.8847 C   0  0  0  0  0  0  0  0  0  0  0  0
  -21.6157  -22.3561   17.1564 C   0  0  0  0  0  0  0  0  0  0  0  0
  -30.1938  -25.4992   18.2973 C   0  0  1  0  0  0  0  0  0  0  0  0
  -29.9873  -22.5651   20.7019 C   0  0  1  0  0  0  0  0  0  0  0  0
  -20.3799  -21.4545   17.0027 C   0  0  2  0  0  0  0  0  0  0  0  0
  -19.8549  -31.0720   21.2853 C   0  0  0  0  0  0  0  0  0  0  0  0
  -30.0839  -14.9200   21.9452 C   0  0  0  0  0  0  0  0  0  0  0  0
  -29.7945  -19.5428   17.2106 C   0  0  0  0  0  0  0  0  0  0  0  0
  -29.5901  -17.1379   17.8759 C   0  0  0  0  0  0  0  0  0  0  0  0
  -31.7651  -18.3270   18.1555 C   0  0  0  0  0  0  0  0  0  0  0  0
  -29.2773  -17.6261   24.4951 C   0  0  0  0  0  0  0  0  0  0  0  0
  -20.9572  -29.7574   23.5884 C   0  0  0  0  0  0  0  0  0  0  0  0
  -20.6109  -25.7427   20.7461 C   0  0  0  0  0  0  0  0  0  0  0  0
  -21.8603  -27.9507   22.1321 C   0  0  0  0  0  0  0  0  0  0  0  0
  -21.5002  -22.8017   22.9668 C   0  0  0  0  0  0  0  0  0  0  0  0
  -20.2605  -29.6167   21.2016 C   0  0  0  0  0  0  0  0  0  0  0  0
  -22.9911  -23.0558   23.1277 C   0  0  0  0  0  0  0  0  0  1  0  0
  -29.8440  -18.8765   19.7045 C   0  0  1  0  0  0  0  0  0  0  0  0
  -30.0606  -16.3330   22.5069 C   0  0  2  0  0  0  0  0  0  0  0  0
  -30.2324  -18.4910   18.2492 C   0  0  0  0  0  0  0  0  0  0  0  0
  -21.6829  -19.6700   18.0977 N   0  0  0  0  0  0  0  0  0  0  0  0
  -20.4742  -20.2085   17.8633 N   0  0  0  0  0  0  0  0  0  0  0  0
  -24.0149  -29.3297   20.8334 N   0  0  0  0  0  0  0  0  0  0  0  0
  -29.5031  -21.2006   20.4833 N   0  0  0  0  0  0  0  0  0  0  0  0
  -21.4717  -23.5525   16.3122 N   0  0  0  0  0  0  0  0  0  0  0  0
  -18.1660  -19.9412   18.3231 N   0  0  0  0  0  0  0  0  0  0  0  0
  -20.0723  -16.4841   20.5164 N   0  0  0  0  0  0  0  0  0  0  0  0
  -21.5912  -25.0442   18.1351 N   0  0  0  0  0  0  0  0  0  0  0  0
  -30.2726  -24.6069   19.4340 N   0  0  0  0  0  0  0  0  0  0  0  0
  -21.0761  -24.8532   21.7858 N   0  0  0  0  0  0  0  0  0  0  0  0
  -30.2702  -17.9116   20.7123 N   0  0  0  0  0  0  0  0  0  0  0  0
  -29.3537  -16.3057   23.8186 N   0  3  0  0  0  0  0  0  0  0  0  0
  -21.3638  -29.3508   22.1945 N   0  3  1  0  0  0  0  0  0  0  0  0
  -18.0782  -17.5016   20.0194 O   0  0  0  0  0  0  0  0  0  0  0  0
  -29.2637  -22.7470   18.4617 O   0  0  0  0  0  0  0  0  0  0  0  0
  -31.6479  -20.3559   20.1330 O   0  0  0  0  0  0  0  0  0  0  0  0
  -20.3651  -22.8593   20.8273 O   0  0  0  0  0  0  0  0  0  0  0  0
  -28.1553  -17.4764   21.5581 O   0  0  0  0  0  0  0  0  0  0  0  0
  -21.3504  -25.8352   15.9676 O   0  0  0  0  0  0  0  0  0  0  0  0
  -25.5131  -15.3017   20.7049 O   0  0  0  0  0  0  0  0  0  0  0  0
  -23.6790  -22.5897   21.9676 O   0  0  0  0  0  0  0  0  0  1  0  0
  -24.7493   -9.8502   20.3853 F   0  0  0  0  0  0  0  0  0  0  0  0
  -23.6797  -26.4740   17.0157 F   0  0  0  0  0  0  0  0  0  0  0  0
  -27.2230  -13.7145   19.2218 F   0  0  0  0  0  0  0  0  0  0  0  0
  1  2  1  0  0  0  0
  1  5  2  0  0  0  0
  2  6  2  0  0  0  0
  3  8  2  0  0  0  0
  3 16  1  0  0  0  0
  4  9  1  0  0  0  0
  4 16  2  0  0  0  0
  5 18  1  0  0  0  0
  6 20  1  0  0  0  0
  7 10  2  0  0  0  0
  7 19  1  0  0  0  0
  8 26  1  0  0  0  0
  9 26  2  0  0  0  0
 10 27  1  0  0  0  0
 11 12  2  0  0  0  0
 11 28  1  0  0  0  0
 12 29  1  0  0  0  0
 13 21  1  0  0  0  0
 13 27  2  0  0  0  0
 14 24  2  0  0  0  0
 14 30  1  0  0  0  0
 15 29  2  0  0  0  0
 15 31  1  0  0  0  0
 16 32  1  0  0  0  0
 17 32  1  0  0  0  0
 17 33  2  0  0  0  0
 17 34  1  0  0  0  0
 18 20  2  0  0  0  0
 18 40  1  0  0  0  0
 19 21  2  0  0  0  0
 19 41  1  0  0  0  0
 20 53  1  0  0  0  0
 21 42  1  0  0  0  0
 22 23  2  0  0  0  0
 22 24  1  0  0  0  0
 22 64  1  0  0  0  0
 23 25  1  0  0  0  0
 23 63  1  0  0  0  0
 24 73  1  0  0  0  0
 25 30  2  0  0  0  0
 25 78  1  0  0  0  0
 26 90  1  0  0  0  0
 27 91  1  0  0  0  0
 28 31  2  0  0  0  0
 28 90  1  0  0  0  0
 29 92  1  0  0  0  0
 30 93  1  0  0  0  0
 31 94  1  0  0  0  0
 32 71  2  0  0  0  0
 33 72  1  0  0  0  0
 33 76  1  0  0  0  0
 34 77  1  0  0  0  0
 34 84  2  0  0  0  0
 35 54  1  0  0  0  0
 35 79  1  0  0  0  0
 35 85  2  0  0  0  0
 36 68  1  0  0  0  0
 36 74  1  0  0  0  0
 36 86  2  0  0  0  0
 37 65  1  0  0  0  0
 37 80  1  0  0  0  0
 37 87  2  0  0  0  0
 38 69  1  0  0  0  0
 38 81  1  0  0  0  0
 38 88  2  0  0  0  0
 39 75  1  0  0  0  0
 39 78  1  0  0  0  0
 39 89  2  0  0  0  0
 40 43  1  0  0  0  0
 41 54  1  0  0  0  0
 42 74  1  0  0  0  0
 43 47  1  0  0  0  0
 44 45  1  0  0  0  0
 44 49  1  0  0  0  0
 45 50  1  0  0  0  0
 46 48  1  0  0  0  0
 46 51  1  0  0  0  0
 47 53  1  0  0  0  0
 48 55  1  0  0  0  0
 49 73  1  0  0  0  0
 50 73  1  0  0  0  0
 51 75  1  0  0  0  0
 52 55  1  0  0  0  0
 52 75  1  0  0  0  0
 53 79  1  0  0  0  0
 54 74  1  0  0  0  0
 55 72  1  0  0  0  0
 56 66  1  0  0  0  0
 57 69  1  0  0  0  0
 58 70  1  0  0  0  0
 59 70  1  0  0  0  0
 60 70  1  0  0  0  0
 61 82  1  0  0  0  0
 62 83  1  0  0  0  0
 63 80  1  0  0  0  0
 64 83  1  0  0  0  0
 65 67  1  0  0  0  0
 66 83  1  0  0  0  0
 67 91  1  0  0  0  0
 68 70  1  0  0  0  0
 68 81  1  0  0  0  0
 69 82  1  0  0  0  0
 71 72  1  0  0  0  0
M  CHG  2  82   1  83   1
M  ISO  4  39 100  67 101  78 100  91 101
M  END
> <Batch ID>
0030

> <Smiles>
CCN(C)Cc1c(N2CCCC2)cc(F)c([100NH:0][100C:0](=O)N2CCCC(n3nc(-c4ccc(Oc5ccc(F)cc5F)cc4)c(C(N)=O)c3N)C2)c1CNC(=O)C[101CH2:1][101O:1]c1ccc2c(c1)CN(C(=O)C(NC(=O)C(C)NC)C(C)(C)C)C(C(=O)NC1CCCc3ccccc31)C2

> <Shape>
0.226

> <Color>
0.080

> <Negative vol penalty>
0.000

$$$$

  -OEChem-04042321363D

 86 95  0     1  0  0  0  0  0999 V2000
  -17.9588  -25.7685   23.2232 C   0  0  0  0  0  0  0  0  0  0  0  0
  -19.0876  -25.6048   22.4267 C   0  0  0  0  0  0  0  0  0  0  0  0
  -26.7470  -15.8129   22.3496 C   0  0  0  0  0  0  0  0  0  0  0  0
  -25.1818  -16.5427   20.6601 C   0  0  0  0  0  0  0  0  0  0  0  0
  -17.4895  -27.0496   23.5104 C   0  0  0  0  0  0  0  0  0  0  0  0
  -19.7471  -26.7222   21.9159 C   0  0  0  0  0  0  0  0  0  0  0  0
  -25.7719  -27.3471   21.0119 C   0  0  0  0  0  0  0  0  0  0  0  0
  -27.6674  -22.7063   18.8567 C   0  0  0  0  0  0  0  0  0  0  0  0
  -26.7821  -22.3600   19.8774 C   0  0  0  0  0  0  0  0  0  0  0  0
  -27.5886  -15.3149   21.3549 C   0  0  0  0  0  0  0  0  0  0  0  0
  -26.0233  -16.0447   19.6654 C   0  0  0  0  0  0  0  0  0  0  0  0
  -26.5686  -27.2147   19.8754 C   0  0  0  0  0  0  0  0  0  0  0  0
  -29.9801  -13.5303   19.2767 C   0  0  0  0  0  0  0  0  0  0  0  0
  -30.5327  -12.2637   19.4667 C   0  0  0  0  0  0  0  0  0  0  0  0
  -26.4528  -29.5985   19.5240 C   0  0  0  0  0  0  0  0  0  0  0  0
  -25.8418  -23.6667   17.5991 C   0  0  0  0  0  0  0  0  0  0  0  0
  -28.3146  -11.3110   19.5660 C   0  0  0  0  0  0  0  0  0  0  0  0
  -25.5436  -16.4267   22.0022 C   0  0  0  0  0  0  0  0  0  0  0  0
  -24.0718  -16.2157   24.0751 C   0  0  0  0  0  0  0  0  0  0  0  0
  -18.1493  -28.1835   23.0109 C   0  0  0  0  0  0  0  0  0  0  0  0
  -25.2999  -28.6069   21.4075 C   0  0  0  0  0  0  0  0  0  0  0  0
  -19.2854  -28.0196   22.1956 C   0  0  0  0  0  0  0  0  0  0  0  0
  -25.6524  -29.7444   20.6674 C   0  0  0  0  0  0  0  0  0  0  0  0
  -27.1973  -23.3597   17.7176 C   0  0  0  0  0  0  0  0  0  0  0  0
  -24.9564  -23.3204   18.6198 C   0  0  0  0  0  0  0  0  0  0  0  0
  -25.4266  -22.6670   19.7590 C   0  0  0  0  0  0  0  0  0  0  0  0
  -27.2268  -15.4308   20.0128 C   0  0  0  0  0  0  0  0  0  0  0  0
  -26.9067  -28.3401   19.1297 C   0  0  0  0  0  0  0  0  0  0  0  0
  -28.5948  -13.6872   19.2314 C   0  0  0  0  0  0  0  0  0  0  0  0
  -29.7000  -11.1541   19.6113 C   0  0  0  0  0  0  0  0  0  0  0  0
  -27.7621  -12.5776   19.3761 C   0  0  0  0  0  0  0  0  0  0  0  0
  -24.6736  -16.9408   23.0293 C   0  0  0  0  0  0  0  0  0  0  0  0
  -23.3484  -17.1531   24.7711 C   0  0  0  0  0  0  0  0  0  0  0  0
  -24.1589  -14.8195   24.3894 C   0  0  0  0  0  0  0  0  0  0  0  0
  -22.4249  -29.9175   21.7544 C   0  0  0  0  0  0  0  0  0  0  0  0
  -24.1306  -32.3974   22.9640 C   0  0  0  0  0  0  0  0  0  0  0  0
  -27.1044  -34.0641   23.1230 C   0  0  0  0  0  0  0  0  0  0  0  0
  -24.8546  -21.6539   22.0030 C   0  0  0  0  0  0  0  0  0  0  0  0
  -17.5770  -29.5466   23.3094 C   0  0  0  0  0  0  0  0  0  0  0  0
  -24.4636  -28.7361   22.6510 C   0  0  0  0  0  0  0  0  0  0  0  0
  -25.1881  -31.1220   21.0612 C   0  0  0  0  0  0  0  0  0  0  0  0
  -18.5522  -30.6894   23.0381 C   0  0  0  0  0  0  0  0  0  0  0  0
  -31.1715  -26.7468   17.7380 C   0  0  0  0  0  0  0  0  0  0  0  0
  -21.3257  -21.3589   23.5281 C   0  0  0  0  0  0  0  0  0  0  0  0
  -31.1772  -26.1119   16.3505 C   0  0  0  0  0  0  0  0  0  0  0  0
  -19.2262  -30.5053   21.6822 C   0  0  0  0  0  0  0  0  0  0  0  0
  -21.5754  -19.8975   23.8790 C   0  0  0  0  0  0  0  0  0  0  0  0
  -30.0321  -27.7469   17.9159 C   0  0  0  0  0  0  0  0  0  0  0  0
  -22.3644  -21.8463   22.5217 C   0  0  0  0  0  0  0  0  0  0  0  0
  -23.9479  -20.8508   24.1751 C   0  0  0  0  0  0  0  0  0  0  0  0
  -30.2998  -24.8778   16.1772 C   0  0  0  0  0  0  0  0  0  0  0  0
  -28.2474  -26.2131   16.8609 C   0  0  0  0  0  0  0  0  0  0  0  0
  -20.0427  -29.2079   21.6435 C   0  0  1  0  0  0  0  0  0  0  0  0
  -23.6131  -30.0025   22.6701 C   0  0  1  0  0  0  0  0  0  0  0  0
  -22.9766  -19.6945   24.4895 C   0  0  2  0  0  0  0  0  0  0  0  0
  -28.6321  -27.1426   18.0071 C   0  0  2  0  0  0  0  0  0  1  0  0
  -23.5091  -23.6590   18.4647 C   0  0  0  0  0  0  0  0  0  0  0  0
  -28.1810  -36.0773   24.1647 C   0  0  0  0  0  0  0  0  0  0  0  0
  -22.6977  -34.1975   20.9600 C   0  0  0  0  0  0  0  0  0  0  0  0
  -24.4484  -35.9380   21.3773 C   0  0  0  0  0  0  0  0  0  0  0  0
  -22.9707  -35.1859   23.2410 C   0  0  0  0  0  0  0  0  0  0  0  0
  -29.0839  -32.4031   24.5659 C   0  0  0  0  0  0  0  0  0  0  0  0
  -28.1493  -23.7300   16.6187 C   0  0  0  0  0  0  0  0  0  0  0  0
  -24.7748  -33.6345   22.3864 C   0  0  1  0  0  0  0  0  0  0  0  0
  -27.9034  -34.5885   24.3024 C   0  0  2  0  0  0  0  0  0  0  0  0
  -23.7302  -34.7129   21.9824 C   0  0  0  0  0  0  0  0  0  0  0  0
  -24.3597  -18.2389   23.0547 N   0  0  0  0  0  0  0  0  0  0  0  0
  -23.5527  -18.3367   24.1248 N   0  0  0  0  0  0  0  0  0  0  0  0
  -24.3674  -31.1959   22.2813 N   0  0  0  0  0  0  0  0  0  0  0  0
  -23.7382  -21.4369   22.8488 N   0  0  0  0  0  0  0  0  0  0  0  0
  -22.5639  -17.0722   25.8667 N   0  0  0  0  0  0  0  0  0  0  0  0
  -23.2222  -13.9466   23.8193 N   0  0  0  0  0  0  0  0  0  0  0  0
  -24.5428  -22.3065   20.8073 N   0  0  0  0  0  0  0  0  0  0  0  0
  -21.2973  -29.3791   22.3443 N   0  0  0  0  0  0  0  0  0  0  0  0
  -25.7488  -34.0865   23.3740 N   0  0  0  0  0  0  0  0  0  0  0  0
  -29.0155  -24.9177   16.9618 N   0  3  1  0  0  0  0  0  0  0  0  0
  -29.2077  -33.8745   24.4030 N   0  3  0  0  0  0  0  0  0  0  0  0
  -25.0312  -14.3619   25.1660 O   0  0  0  0  0  0  0  0  0  0  0  0
  -22.5234  -30.3126   20.5986 O   0  0  0  0  0  0  0  0  0  0  0  0
  -23.4486  -32.4924   23.9874 O   0  0  0  0  0  0  0  0  0  0  0  0
  -27.6301  -33.6770   22.0817 O   0  0  0  0  0  0  0  0  0  0  0  0
  -25.9890  -21.2917   22.3220 O   0  0  0  0  0  0  0  0  0  0  0  0
  -28.0478  -14.9452   19.0419 O   0  0  0  0  0  0  0  0  0  0  0  0
  -27.6836  -28.2137   18.0196 O   0  0  0  0  0  0  0  0  0  1  0  0
  -30.2307   -9.9376   19.7923 F   0  0  0  0  0  0  0  0  0  0  0  0
  -26.4305  -12.7220   19.3323 F   0  0  0  0  0  0  0  0  0  0  0  0
  1  2  1  0  0  0  0
  1  5  2  0  0  0  0
  2  6  2  0  0  0  0
  3 10  2  0  0  0  0
  3 18  1  0  0  0  0
  4 11  1  0  0  0  0
  4 18  2  0  0  0  0
  5 20  1  0  0  0  0
  6 22  1  0  0  0  0
  7 12  2  0  0  0  0
  7 21  1  0  0  0  0
  8  9  2  0  0  0  0
  8 24  1  0  0  0  0
  9 26  1  0  0  0  0
 10 27  1  0  0  0  0
 11 27  2  0  0  0  0
 12 28  1  0  0  0  0
 13 14  2  0  0  0  0
 13 29  1  0  0  0  0
 14 30  1  0  0  0  0
 15 23  1  0  0  0  0
 15 28  2  0  0  0  0
 16 24  2  0  0  0  0
 16 25  1  0  0  0  0
 17 30  2  0  0  0  0
 17 31  1  0  0  0  0
 18 32  1  0  0  0  0
 19 32  1  0  0  0  0
 19 33  2  0  0  0  0
 19 34  1  0  0  0  0
 20 22  2  0  0  0  0
 20 39  1  0  0  0  0
 21 23  2  0  0  0  0
 21 40  1  0  0  0  0
 22 53  1  0  0  0  0
 23 41  1  0  0  0  0
 24 63  1  0  0  0  0
 25 26  2  0  0  0  0
 25 57  1  0  0  0  0
 26 73  1  0  0  0  0
 27 83  1  0  0  0  0
 28 84  1  0  0  0  0
 29 31  2  0  0  0  0
 29 83  1  0  0  0  0
 30 85  1  0  0  0  0
 31 86  1  0  0  0  0
 32 67  2  0  0  0  0
 33 68  1  0  0  0  0
 33 71  1  0  0  0  0
 34 72  1  0  0  0  0
 34 78  2  0  0  0  0
 35 54  1  0  0  0  0
 35 74  1  0  0  0  0
 35 79  2  0  0  0  0
 36 64  1  0  0  0  0
 36 69  1  0  0  0  0
 36 80  2  0  0  0  0
 37 65  1  0  0  0  0
 37 75  1  0  0  0  0
 37 81  2  0  0  0  0
 38 70  1  0  0  0  0
 38 73  1  0  0  0  0
 38 82  2  0  0  0  0
 39 42  1  0  0  0  0
 40 54  1  0  0  0  0
 41 69  1  0  0  0  0
 42 46  1  0  0  0  0
 43 45  1  0  0  0  0
 43 48  1  0  0  0  0
 44 47  1  0  0  0  0
 44 49  1  0  0  0  0
 45 51  1  0  0  0  0
 46 53  1  0  0  0  0
 47 55  1  0  0  0  0
 48 56  1  0  0  0  0
 49 70  1  0  0  0  0
 50 55  1  0  0  0  0
 50 70  1  0  0  0  0
 51 76  1  0  0  0  0
 52 56  1  0  0  0  0
 52 76  1  0  0  0  0
 53 74  1  0  0  0  0
 54 69  1  0  0  0  0
 55 68  1  0  0  0  0
 56 84  1  0  0  0  0
 58 65  1  0  0  0  0
 59 66  1  0  0  0  0
 60 66  1  0  0  0  0
 61 66  1  0  0  0  0
 62 77  1  0  0  0  0
 63 76  1  0  0  0  0
 64 66  1  0  0  0  0
 64 75  1  0  0  0  0
 65 77  1  0  0  0  0
 67 68  1  0  0  0  0
M  CHG  2  76   1  77   1
M  ISO  4  38 100  56 101  73 100  84 101
M  END
> <Batch ID>
0030

> <Smiles>
CNC(C)C(=O)NC(C(=O)N1Cc2cc([101O:1][101CH:1]3CCCCN(Cc4ccc([100NH:0][100C:0](=O)N5CCCC(n6nc(-c7ccc(Oc8ccc(F)cc8F)cc7)c(C(N)=O)c6N)C5)c(C)c4)C3)ccc2CC1C(=O)NC1CCCc2ccccc21)C(C)(C)C

> <Shape>
0.223

> <Color>
0.099

> <Negative vol penalty>
0.000

$$$$

  -OEChem-04042321363D

 86 95  0     1  0  0  0  0  0999 V2000
  -26.7909  -37.8704   24.0187 C   0  0  0  0  0  0  0  0  0  0  0  0
  -27.5685  -36.8515   23.4779 C   0  0  0  0  0  0  0  0  0  0  0  0
  -24.1514   -9.1701   21.1321 C   0  0  0  0  0  0  0  0  0  0  0  0
  -25.5626   -9.7007   23.0200 C   0  0  0  0  0  0  0  0  0  0  0  0
  -25.5661  -37.5702   24.6134 C   0  0  0  0  0  0  0  0  0  0  0  0
  -27.1222  -35.5315   23.5324 C   0  0  0  0  0  0  0  0  0  0  0  0
  -27.3406  -29.4067   19.8236 C   0  0  0  0  0  0  0  0  0  0  0  0
  -23.9890   -7.8729   21.6181 C   0  0  0  0  0  0  0  0  0  0  0  0
  -25.4001   -8.4034   23.5060 C   0  0  0  0  0  0  0  0  0  0  0  0
  -27.6608  -28.0596   19.9868 C   0  0  0  0  0  0  0  0  0  0  0  0
  -22.1595   -6.3149   23.9969 C   0  0  0  0  0  0  0  0  0  0  0  0
  -20.8720   -5.7783   23.9944 C   0  0  0  0  0  0  0  0  0  0  0  0
  -25.4919  -27.6691   20.9679 C   0  0  0  0  0  0  0  0  0  0  0  0
  -28.7016  -20.8175   19.7033 C   0  0  0  0  0  0  0  0  0  0  0  0
  -21.6194   -3.9919   22.5496 C   0  0  0  0  0  0  0  0  0  0  0  0
  -24.9383  -10.0841   21.8330 C   0  0  0  0  0  0  0  0  0  0  0  0
  -24.3051  -12.5457   21.6156 C   0  0  0  0  0  0  0  0  0  0  0  0
  -25.1001  -36.2471   24.6666 C   0  0  0  0  0  0  0  0  0  0  0  0
  -26.0957  -29.8981   20.2421 C   0  0  0  0  0  0  0  0  0  0  0  0
  -25.8906  -35.2132   24.1296 C   0  0  0  0  0  0  0  0  0  0  0  0
  -25.1574  -29.0224   20.8066 C   0  0  0  0  0  0  0  0  0  0  0  0
  -29.1708  -21.2486   20.9441 C   0  0  0  0  0  0  0  0  0  0  0  0
  -28.5565  -19.4539   19.4479 C   0  0  0  0  0  0  0  0  0  0  0  0
  -29.4950  -20.3161   21.9295 C   0  0  0  0  0  0  0  0  0  0  0  0
  -29.3500  -18.9525   21.6741 C   0  0  0  0  0  0  0  0  0  0  0  0
  -28.8808  -18.5214   20.4333 C   0  0  0  0  0  0  0  0  0  0  0  0
  -24.6133   -7.4895   22.8051 C   0  0  0  0  0  0  0  0  0  0  0  0
  -26.7375  -27.1912   20.5616 C   0  0  0  0  0  0  0  0  0  0  0  0
  -23.1769   -5.6901   23.2757 C   0  0  0  0  0  0  0  0  0  0  0  0
  -20.6020   -4.6167   23.2708 C   0  0  0  0  0  0  0  0  0  0  0  0
  -22.9069   -4.5286   22.5521 C   0  0  0  0  0  0  0  0  0  0  0  0
  -25.1070  -11.4242   21.3312 C   0  0  0  0  0  0  0  0  0  0  0  0
  -24.8788  -13.5683   20.9004 C   0  0  0  0  0  0  0  0  0  0  0  0
  -23.1453  -12.6534   22.4517 C   0  0  0  0  0  0  0  0  0  0  0  0
  -25.1356  -32.0499   22.3755 C   0  0  0  0  0  0  0  0  0  0  0  0
  -22.2199  -31.4560   21.0840 C   0  0  0  0  0  0  0  0  0  0  0  0
  -20.1891  -29.3062   19.3806 C   0  0  0  0  0  0  0  0  0  0  0  0
  -29.3575  -16.3913   19.1755 C   0  0  0  0  0  0  0  0  0  0  0  0
  -23.7915  -35.9658   25.3617 C   0  0  0  0  0  0  0  0  0  0  0  0
  -25.7555  -31.3485   20.0347 C   0  0  0  0  0  0  0  0  0  0  0  0
  -23.7994  -29.4960   21.2538 C   0  0  0  0  0  0  0  0  0  0  0  0
  -23.2176  -34.5872   25.0449 C   0  0  0  0  0  0  0  0  0  0  0  0
  -28.4630  -13.4826   17.3272 C   0  0  0  0  0  0  0  0  0  0  0  0
  -24.3015  -33.5195   25.1552 C   0  0  0  0  0  0  0  0  0  0  0  0
  -27.4442  -12.7800   18.2275 C   0  0  0  0  0  0  0  0  0  0  0  0
  -26.0618  -24.2051   22.1427 C   0  0  0  0  0  0  0  0  0  0  0  0
  -29.5759  -14.1437   18.1385 C   0  0  0  0  0  0  0  0  0  0  0  0
  -28.0980  -14.3476   20.0989 C   0  0  0  0  0  0  0  0  0  0  0  0
  -26.8456  -23.0529   21.5473 C   0  0  0  0  0  0  0  0  0  0  0  0
  -28.3917  -24.7562   22.3888 C   0  0  0  0  0  0  0  0  0  0  0  0
  -25.4292  -33.7721   24.1472 C   0  0  1  0  0  0  0  0  0  0  0  0
  -24.6542  -31.8432   20.9673 C   0  0  1  0  0  0  0  0  0  0  0  0
  -26.9226  -13.7220   19.3303 C   0  0  2  0  0  0  0  0  0  0  0  0
  -27.0387  -25.3649   22.0549 C   0  0  1  0  0  0  0  0  0  1  0  0
  -28.0503  -19.0232   18.1092 C   0  0  0  0  0  0  0  0  0  0  0  0
  -29.9981  -20.7819   23.2592 C   0  0  0  0  0  0  0  0  0  0  0  0
  -29.6996  -17.9559   22.7350 C   0  0  0  0  0  0  0  0  0  0  0  0
  -17.8473  -29.0837   18.5065 C   0  0  0  0  0  0  0  0  0  0  0  0
  -21.2204  -30.8944   23.9116 C   0  0  0  0  0  0  0  0  0  0  0  0
  -19.2141  -29.7836   22.9070 C   0  0  0  0  0  0  0  0  0  0  0  0
  -19.6377  -32.2057   22.4870 C   0  0  0  0  0  0  0  0  0  0  0  0
  -21.1309  -29.0749   16.5845 C   0  0  0  0  0  0  0  0  0  0  0  0
  -29.3161  -22.7209   21.1935 C   0  0  0  0  0  0  0  0  0  0  0  0
  -21.1046  -30.4784   21.3661 C   0  0  1  0  0  0  0  0  0  0  0  0
  -19.2703  -29.5178   18.1909 C   0  0  2  0  0  0  0  0  0  0  0  0
  -20.3204  -30.8317   22.6614 C   0  0  0  0  0  0  0  0  0  0  0  0
  -26.1134  -11.7074   20.4999 N   0  0  0  0  0  0  0  0  0  0  0  0
  -25.9476  -13.0185   20.2559 N   0  0  0  0  0  0  0  0  0  0  0  0
  -23.5163  -30.9241   21.0356 N   0  0  0  0  0  0  0  0  0  0  0  0
  -29.0070  -15.0247   19.1608 N   0  0  0  0  0  0  0  0  0  0  0  0
  -24.5682  -14.8752   20.7662 N   0  0  0  0  0  0  0  0  0  0  0  0
  -22.6900  -11.5051   23.1138 N   0  0  0  0  0  0  0  0  0  0  0  0
  -28.7293  -17.1369   20.1726 N   0  0  0  0  0  0  0  0  0  0  0  0
  -25.0258  -33.3530   22.8221 N   0  0  0  0  0  0  0  0  0  0  0  0
  -20.2822  -30.4386   20.1618 N   0  0  0  0  0  0  0  0  0  0  0  0
  -28.2436  -23.2742   22.0758 N   0  3  2  0  0  0  0  0  0  0  0  0
  -19.7517  -28.7336   17.0186 N   0  3  0  0  0  0  0  0  0  0  0  0
  -22.5213  -13.7323   22.5940 O   0  0  0  0  0  0  0  0  0  0  0  0
  -25.5728  -31.0974   23.0105 O   0  0  0  0  0  0  0  0  0  0  0  0
  -21.9499  -32.6463   20.9058 O   0  0  0  0  0  0  0  0  0  0  0  0
  -20.7636  -28.2416   19.5975 O   0  0  0  0  0  0  0  0  0  0  0  0
  -30.1351  -16.8709   18.3465 O   0  0  0  0  0  0  0  0  0  0  0  0
  -24.4548   -6.2238   23.2798 O   0  0  0  0  0  0  0  0  0  0  0  0
  -27.0477  -25.8760   20.7226 O   0  0  0  0  0  0  0  0  0  1  0  0
  -19.3660   -4.1006   23.2697 F   0  0  0  0  0  0  0  0  0  0  0  0
  -23.8806   -3.9233   21.8582 F   0  0  0  0  0  0  0  0  0  0  0  0
  1  2  1  0  0  0  0
  1  5  2  0  0  0  0
  2  6  2  0  0  0  0
  3  8  2  0  0  0  0
  3 16  1  0  0  0  0
  4  9  1  0  0  0  0
  4 16  2  0  0  0  0
  5 18  1  0  0  0  0
  6 20  1  0  0  0  0
  7 10  2  0  0  0  0
  7 19  1  0  0  0  0
  8 27  1  0  0  0  0
  9 27  2  0  0  0  0
 10 28  1  0  0  0  0
 11 12  2  0  0  0  0
 11 29  1  0  0  0  0
 12 30  1  0  0  0  0
 13 21  1  0  0  0  0
 13 28  2  0  0  0  0
 14 22  1  0  0  0  0
 14 23  2  0  0  0  0
 15 30  2  0  0  0  0
 15 31  1  0  0  0  0
 16 32  1  0  0  0  0
 17 32  1  0  0  0  0
 17 33  2  0  0  0  0
 17 34  1  0  0  0  0
 18 20  2  0  0  0  0
 18 39  1  0  0  0  0
 19 21  2  0  0  0  0
 19 40  1  0  0  0  0
 20 51  1  0  0  0  0
 21 41  1  0  0  0  0
 22 24  2  0  0  0  0
 22 63  1  0  0  0  0
 23 26  1  0  0  0  0
 23 55  1  0  0  0  0
 24 25  1  0  0  0  0
 24 56  1  0  0  0  0
 25 26  2  0  0  0  0
 25 57  1  0  0  0  0
 26 73  1  0  0  0  0
 27 83  1  0  0  0  0
 28 84  1  0  0  0  0
 29 31  2  0  0  0  0
 29 83  1  0  0  0  0
 30 85  1  0  0  0  0
 31 86  1  0  0  0  0
 32 67  2  0  0  0  0
 33 68  1  0  0  0  0
 33 71  1  0  0  0  0
 34 72  1  0  0  0  0
 34 78  2  0  0  0  0
 35 52  1  0  0  0  0
 35 74  1  0  0  0  0
 35 79  2  0  0  0  0
 36 64  1  0  0  0  0
 36 69  1  0  0  0  0
 36 80  2  0  0  0  0
 37 65  1  0  0  0  0
 37 75  1  0  0  0  0
 37 81  2  0  0  0  0
 38 70  1  0  0  0  0
 38 73  1  0  0  0  0
 38 82  2  0  0  0  0
 39 42  1  0  0  0  0
 40 52  1  0  0  0  0
 41 69  1  0  0  0  0
 42 44  1  0  0  0  0
 43 45  1  0  0  0  0
 43 47  1  0  0  0  0
 44 51  1  0  0  0  0
 45 53  1  0  0  0  0
 46 49  1  0  0  0  0
 46 54  1  0  0  0  0
 47 70  1  0  0  0  0
 48 53  1  0  0  0  0
 48 70  1  0  0  0  0
 49 76  1  0  0  0  0
 50 54  1  0  0  0  0
 50 76  1  0  0  0  0
 51 74  1  0  0  0  0
 52 69  1  0  0  0  0
 53 68  1  0  0  0  0
 54 84  1  0  0  0  0
 58 65  1  0  0  0  0
 59 66  1  0  0  0  0
 60 66  1  0  0  0  0
 61 66  1  0  0  0  0
 62 77  1  0  0  0  0
 63 76  1  0  0  0  0
 64 66  1  0  0  0  0
 64 75  1  0  0  0  0
 65 77  1  0  0  0  0
 67 68  1  0  0  0  0
M  CHG  2  76   1  77   1
M  ISO  4  38 100  54 101  73 100  84 101
M  END
> <Batch ID>
0030

> <Smiles>
CNC(C)C(=O)NC(C(=O)N1Cc2cc([101O:1][101CH:1]3CCN(Cc4cc(C)c([100NH:0][100C:0](=O)N5CCCC(n6nc(-c7ccc(Oc8ccc(F)cc8F)cc7)c(C(N)=O)c6N)C5)c(C)c4C)C3)ccc2CC1C(=O)NC1CCCc2ccccc21)C(C)(C)C

> <Shape>
0.328

> <Color>
0.104

> <Negative vol penalty>
0.000

$$$$

  -OEChem-04042321363D

 86 95  0     1  0  0  0  0  0999 V2000
  -16.2935  -26.8973   22.8819 C   0  0  0  0  0  0  0  0  0  0  0  0
  -17.4929  -26.3161   22.4831 C   0  0  0  0  0  0  0  0  0  0  0  0
  -23.6853  -12.8981   24.5636 C   0  0  0  0  0  0  0  0  0  0  0  0
  -23.4848  -15.0599   23.5037 C   0  0  0  0  0  0  0  0  0  0  0  0
  -16.2866  -28.1889   23.4068 C   0  0  0  0  0  0  0  0  0  0  0  0
  -18.6861  -27.0268   22.6079 C   0  0  0  0  0  0  0  0  0  0  0  0
  -22.4299  -24.2144   24.5366 C   0  0  0  0  0  0  0  0  0  0  0  0
  -22.9344  -13.3587   25.6450 C   0  0  0  0  0  0  0  0  0  0  0  0
  -22.7339  -15.5205   24.5851 C   0  0  0  0  0  0  0  0  0  0  0  0
  -23.0619  -23.3186   23.6753 C   0  0  0  0  0  0  0  0  0  0  0  0
  -23.3096  -16.6166   27.7313 C   0  0  0  0  0  0  0  0  0  0  0  0
  -23.6218  -17.8738   28.2485 C   0  0  0  0  0  0  0  0  0  0  0  0
  -24.8786  -24.8805   23.3938 C   0  0  0  0  0  0  0  0  0  0  0  0
  -29.2688  -18.2169   17.4738 C   0  0  0  0  0  0  0  0  0  0  0  0
  -27.8997  -20.1212   18.0537 C   0  0  0  0  0  0  0  0  0  0  0  0
  -21.3835  -18.6347   27.7499 C   0  0  0  0  0  0  0  0  0  0  0  0
  -23.9606  -13.7488   23.4929 C   0  0  0  0  0  0  0  0  0  0  0  0
  -24.2538  -12.6560   21.2065 C   0  0  0  0  0  0  0  0  0  0  0  0
  -17.4816  -28.9122   23.5470 C   0  0  0  0  0  0  0  0  0  0  0  0
  -23.0132  -25.4566   24.8249 C   0  0  0  0  0  0  0  0  0  0  0  0
  -18.6951  -28.3299   23.1339 C   0  0  0  0  0  0  0  0  0  0  0  0
  -24.2532  -25.7892   24.2610 C   0  0  0  0  0  0  0  0  0  0  0  0
  -29.7346  -18.1518   18.7869 C   0  0  0  0  0  0  0  0  0  0  0  0
  -28.3655  -20.0562   19.3669 C   0  0  0  0  0  0  0  0  0  0  0  0
  -29.2830  -19.0714   19.7335 C   0  0  0  0  0  0  0  0  0  0  0  0
  -22.4587  -14.6698   25.6558 C   0  0  0  0  0  0  0  0  0  0  0  0
  -24.2851  -23.6527   23.1015 C   0  0  0  0  0  0  0  0  0  0  0  0
  -22.0343  -16.3685   27.2233 C   0  0  0  0  0  0  0  0  0  0  0  0
  -22.6587  -18.8829   28.2578 C   0  0  0  0  0  0  0  0  0  0  0  0
  -21.0713  -17.3775   27.2327 C   0  0  0  0  0  0  0  0  0  0  0  0
  -28.3514  -19.2016   17.1071 C   0  0  0  0  0  0  0  0  0  0  0  0
  -24.7367  -13.2738   22.3757 C   0  0  0  0  0  0  0  0  0  0  0  0
  -25.3803  -12.3976   20.4644 C   0  0  0  0  0  0  0  0  0  0  0  0
  -22.9074  -12.3437   20.8253 C   0  0  0  0  0  0  0  0  0  0  0  0
  -22.1725  -28.4885   24.3729 C   0  0  0  0  0  0  0  0  0  0  0  0
  -24.8435  -29.0818   26.1153 C   0  0  0  0  0  0  0  0  0  0  0  0
  -27.8996  -28.0082   27.1898 C   0  0  0  0  0  0  0  0  0  0  0  0
  -30.8209  -14.8929   20.3075 C   0  0  0  0  0  0  0  0  0  0  0  0
  -17.4182  -30.3232   24.0758 C   0  0  0  0  0  0  0  0  0  0  0  0
  -22.3315  -26.4007   25.7770 C   0  0  0  0  0  0  0  0  0  0  0  0
  -24.9312  -27.1017   24.5542 C   0  0  0  0  0  0  0  0  0  0  0  0
  -18.7726  -30.8675   24.5229 C   0  0  0  0  0  0  0  0  0  0  0  0
  -30.0505  -11.4756   20.9443 C   0  0  0  0  0  0  0  0  0  0  0  0
  -19.8399  -30.5703   23.4744 C   0  0  0  0  0  0  0  0  0  0  0  0
  -28.5577  -11.4932   21.2779 C   0  0  0  0  0  0  0  0  0  0  0  0
  -24.5832  -20.4174   21.9540 C   0  0  0  0  0  0  0  0  0  0  0  0
  -30.7639  -12.7134   21.4836 C   0  0  0  0  0  0  0  0  0  0  0  0
  -28.6734  -14.0166   21.4107 C   0  0  0  0  0  0  0  0  0  0  0  0
  -25.4851  -20.3223   20.7399 C   0  0  0  0  0  0  0  0  0  0  0  0
  -26.7377  -21.2516   22.6287 C   0  0  0  0  0  0  0  0  0  0  0  0
  -20.0132  -29.0595   23.2765 C   0  0  1  0  0  0  0  0  0  0  0  0
  -22.7688  -27.8510   25.5958 C   0  0  1  0  0  0  0  0  0  0  0  0
  -27.9006  -12.8157   20.8390 C   0  0  2  0  0  0  0  0  0  0  0  0
  -25.2459  -21.4999   22.7885 C   0  0  1  0  0  0  0  0  0  1  0  0
  -29.7831  -19.0023   21.1414 C   0  0  0  0  0  0  0  0  0  0  0  0
  -29.8663  -28.7282   28.5722 C   0  0  0  0  0  0  0  0  0  0  0  0
  -25.7643  -30.9071   23.8502 C   0  0  0  0  0  0  0  0  0  0  0  0
  -28.0711  -30.8314   24.8205 C   0  0  0  0  0  0  0  0  0  0  0  0
  -26.1928  -31.7978   26.1475 C   0  0  0  0  0  0  0  0  0  0  0  0
  -27.5403  -25.7607   29.0815 C   0  0  0  0  0  0  0  0  0  0  0  0
  -30.7168  -17.0878   19.1539 C   0  0  0  0  0  0  0  0  0  0  0  0
  -27.8643  -21.0566   20.3663 C   0  0  0  0  0  0  0  0  0  0  0  0
  -26.3031  -29.2967   25.7951 C   0  0  1  0  0  0  0  0  0  0  0  0
  -28.5346  -27.9938   28.5686 C   0  0  2  0  0  0  0  0  0  0  0  0
  -26.5694  -30.6843   25.1461 C   0  0  0  0  0  0  0  0  0  0  0  0
  -26.0664  -13.4001   22.3806 N   0  0  0  0  0  0  0  0  0  0  0  0
  -26.4286  -12.8580   21.2054 N   0  0  0  0  0  0  0  0  0  0  0  0
  -24.2220  -27.9937   25.4864 N   0  0  0  0  0  0  0  0  0  0  0  0
  -30.0921  -13.9335   21.0296 N   0  0  0  0  0  0  0  0  0  0  0  0
  -25.5664  -11.8236   19.2568 N   0  0  0  0  0  0  0  0  0  0  0  0
  -21.8692  -12.6781   21.7055 N   0  0  0  0  0  0  0  0  0  0  0  0
  -20.7908  -28.4940   24.3582 N   0  0  0  0  0  0  0  0  0  0  0  0
  -27.0316  -29.0688   27.0383 N   0  0  0  0  0  0  0  0  0  0  0  0
  -30.1068  -16.0165   19.9095 N   0  0  0  0  0  0  0  0  0  0  0  0
  -26.8699  -20.4812   21.3229 N   0  3  2  0  0  0  0  0  0  0  0  0
  -28.7698  -26.5919   29.0159 N   0  3  0  0  0  0  0  0  0  0  0  0
  -22.6344  -11.7699   19.7438 O   0  0  0  0  0  0  0  0  0  0  0  0
  -22.9114  -28.9432   23.5074 O   0  0  0  0  0  0  0  0  0  0  0  0
  -24.2776  -29.8469   26.9002 O   0  0  0  0  0  0  0  0  0  0  0  0
  -28.1514  -27.1652   26.3316 O   0  0  0  0  0  0  0  0  0  0  0  0
  -32.0178  -14.7556   20.0327 O   0  0  0  0  0  0  0  0  0  0  0  0
  -21.7257  -15.1195   26.7109 O   0  0  0  0  0  0  0  0  0  0  0  0
  -24.9038  -22.7805   22.2599 O   0  0  0  0  0  0  0  0  0  1  0  0
  -22.9582  -20.0897   28.7560 F   0  0  0  0  0  0  0  0  0  0  0  0
  -19.8442  -17.1447   26.7472 F   0  0  0  0  0  0  0  0  0  0  0  0
  -27.7766  -19.2823   15.4867 Cl  0  0  0  0  0  0  0  0  0  0  0  0
  1  2  1  0  0  0  0
  1  5  2  0  0  0  0
  2  6  2  0  0  0  0
  3  8  2  0  0  0  0
  3 17  1  0  0  0  0
  4  9  1  0  0  0  0
  4 17  2  0  0  0  0
  5 19  1  0  0  0  0
  6 21  1  0  0  0  0
  7 10  2  0  0  0  0
  7 20  1  0  0  0  0
  8 26  1  0  0  0  0
  9 26  2  0  0  0  0
 10 27  1  0  0  0  0
 11 12  2  0  0  0  0
 11 28  1  0  0  0  0
 12 29  1  0  0  0  0
 13 22  1  0  0  0  0
 13 27  2  0  0  0  0
 14 23  2  0  0  0  0
 14 31  1  0  0  0  0
 15 24  1  0  0  0  0
 15 31  2  0  0  0  0
 16 29  2  0  0  0  0
 16 30  1  0  0  0  0
 17 32  1  0  0  0  0
 18 32  1  0  0  0  0
 18 33  2  0  0  0  0
 18 34  1  0  0  0  0
 19 21  2  0  0  0  0
 19 39  1  0  0  0  0
 20 22  2  0  0  0  0
 20 40  1  0  0  0  0
 21 51  1  0  0  0  0
 22 41  1  0  0  0  0
 23 25  1  0  0  0  0
 23 61  1  0  0  0  0
 24 25  2  0  0  0  0
 24 62  1  0  0  0  0
 25 55  1  0  0  0  0
 26 82  1  0  0  0  0
 27 83  1  0  0  0  0
 28 30  2  0  0  0  0
 28 82  1  0  0  0  0
 29 84  1  0  0  0  0
 30 85  1  0  0  0  0
 31 86  1  0  0  0  0
 32 66  2  0  0  0  0
 33 67  1  0  0  0  0
 33 70  1  0  0  0  0
 34 71  1  0  0  0  0
 34 77  2  0  0  0  0
 35 52  1  0  0  0  0
 35 72  1  0  0  0  0
 35 78  2  0  0  0  0
 36 63  1  0  0  0  0
 36 68  1  0  0  0  0
 36 79  2  0  0  0  0
 37 64  1  0  0  0  0
 37 73  1  0  0  0  0
 37 80  2  0  0  0  0
 38 69  1  0  0  0  0
 38 74  1  0  0  0  0
 38 81  2  0  0  0  0
 39 42  1  0  0  0  0
 40 52  1  0  0  0  0
 41 68  1  0  0  0  0
 42 44  1  0  0  0  0
 43 45  1  0  0  0  0
 43 47  1  0  0  0  0
 44 51  1  0  0  0  0
 45 53  1  0  0  0  0
 46 49  1  0  0  0  0
 46 54  1  0  0  0  0
 47 69  1  0  0  0  0
 48 53  1  0  0  0  0
 48 69  1  0  0  0  0
 49 75  1  0  0  0  0
 50 54  1  0  0  0  0
 50 75  1  0  0  0  0
 51 72  1  0  0  0  0
 52 68  1  0  0  0  0
 53 67  1  0  0  0  0
 54 83  1  0  0  0  0
 56 64  1  0  0  0  0
 57 65  1  0  0  0  0
 58 65  1  0  0  0  0
 59 65  1  0  0  0  0
 60 76  1  0  0  0  0
 61 74  1  0  0  0  0
 62 75  1  0  0  0  0
 63 65  1  0  0  0  0
 63 73  1  0  0  0  0
 64 76  1  0  0  0  0
 66 67  1  0  0  0  0
M  CHG  2  75   1  76   1
M  ISO  4  38 100  54 101  74 100  83 101
M  END
> <Batch ID>
0030

> <Smiles>
CNC(C)C(=O)NC(C(=O)N1Cc2cc([101O:1][101CH:1]3CCN(Cc4cc(Cl)cc(C[100NH:0][100C:0](=O)N5CCCC(n6nc(-c7ccc(Oc8ccc(F)cc8F)cc7)c(C(N)=O)c6N)C5)c4C)C3)ccc2CC1C(=O)NC1CCCc2ccccc21)C(C)(C)C

> <Shape>
0.210

> <Color>
0.084

> <Negative vol penalty>
0.000

$$$$

  -OEChem-04042321363D

 88 97  0     1  0  0  0  0  0999 V2000
  -16.9609  -28.0950   20.2775 C   0  0  0  0  0  0  0  0  0  0  0  0
  -18.1928  -28.4018   19.7085 C   0  0  0  0  0  0  0  0  0  0  0  0
  -24.9768  -13.9797   21.8682 C   0  0  0  0  0  0  0  0  0  0  0  0
  -26.2912  -14.0798   19.8435 C   0  0  0  0  0  0  0  0  0  0  0  0
  -16.8279  -28.0460   21.6645 C   0  0  0  0  0  0  0  0  0  0  0  0
  -19.2921  -28.6610   20.5262 C   0  0  0  0  0  0  0  0  0  0  0  0
  -25.1412  -27.2470   19.3888 C   0  0  0  0  0  0  0  0  0  0  0  0
  -24.9563  -12.5874   21.7861 C   0  0  0  0  0  0  0  0  0  0  0  0
  -26.2707  -12.6875   19.7614 C   0  0  0  0  0  0  0  0  0  0  0  0
  -26.2072  -27.9947   18.8903 C   0  0  0  0  0  0  0  0  0  0  0  0
  -23.2824  -10.2196   20.0495 C   0  0  0  0  0  0  0  0  0  0  0  0
  -22.0644   -9.5761   20.2687 C   0  0  0  0  0  0  0  0  0  0  0  0
  -26.9424  -28.4382   21.1447 C   0  0  0  0  0  0  0  0  0  0  0  0
  -30.2777  -24.3121   19.1609 C   0  0  0  0  0  0  0  0  0  0  0  0
  -28.2461  -24.1121   17.2595 C   0  0  0  0  0  0  0  0  0  0  0  0
  -23.0322   -8.3785   22.1305 C   0  0  0  0  0  0  0  0  0  0  0  0
  -25.6443  -14.7259   20.8969 C   0  0  0  0  0  0  0  0  0  0  0  0
  -26.1876  -16.9470   22.0278 C   0  0  0  0  0  0  0  0  0  0  0  0
  -17.9284  -28.2953   22.4996 C   0  0  0  0  0  0  0  0  0  0  0  0
  -24.9614  -27.0981   20.7715 C   0  0  0  0  0  0  0  0  0  0  0  0
  -19.1733  -28.6167   21.9257 C   0  0  0  0  0  0  0  0  0  0  0  0
  -25.8749  -27.6860   21.6581 C   0  0  0  0  0  0  0  0  0  0  0  0
  -29.2188  -23.4269   19.3623 C   0  0  0  0  0  0  0  0  0  0  0  0
  -30.3208  -25.0975   18.0089 C   0  0  0  0  0  0  0  0  0  0  0  0
  -28.2030  -23.3268   18.4116 C   0  0  0  0  0  0  0  0  0  0  0  0
  -25.6033  -11.9413   20.7327 C   0  0  0  0  0  0  0  0  0  0  0  0
  -27.1063  -28.5929   19.7683 C   0  0  0  0  0  0  0  0  0  0  0  0
  -24.3753   -9.9425   20.8708 C   0  0  0  0  0  0  0  0  0  0  0  0
  -21.9393   -8.6556   21.3091 C   0  0  0  0  0  0  0  0  0  0  0  0
  -29.3051  -24.9974   17.0582 C   0  0  0  0  0  0  0  0  0  0  0  0
  -24.2502   -9.0219   21.9113 C   0  0  0  0  0  0  0  0  0  0  0  0
  -25.6654  -16.1642   20.9809 C   0  0  0  0  0  0  0  0  0  0  0  0
  -25.9658  -18.2431   21.6311 C   0  0  0  0  0  0  0  0  0  0  0  0
  -30.6279  -28.3425   18.1689 C   0  0  0  0  0  0  0  0  0  0  0  0
  -26.8171  -16.5391   23.2497 C   0  0  0  0  0  0  0  0  0  0  0  0
  -22.6822  -27.9014   22.8364 C   0  0  0  0  0  0  0  0  0  0  0  0
  -24.5142  -26.2164   24.9165 C   0  0  0  0  0  0  0  0  0  0  0  0
  -27.5961  -25.0006   25.7353 C   0  0  0  0  0  0  0  0  0  0  0  0
  -26.0382  -22.2265   17.7413 C   0  0  0  0  0  0  0  0  0  0  0  0
  -17.7247  -28.2772   23.9938 C   0  0  0  0  0  0  0  0  0  0  0  0
  -23.8218  -26.2661   21.2927 C   0  0  0  0  0  0  0  0  0  0  0  0
  -25.7377  -27.5395   23.1508 C   0  0  0  0  0  0  0  0  0  0  0  0
  -19.0275  -28.1966   24.7853 C   0  0  0  0  0  0  0  0  0  0  0  0
  -32.2375  -28.4207   20.6717 C   0  0  0  0  0  0  0  0  0  0  0  0
  -23.1888  -20.0933   17.8249 C   0  0  0  0  0  0  0  0  0  0  0  0
  -20.0462  -29.1921   24.2393 C   0  0  0  0  0  0  0  0  0  0  0  0
  -31.8678  -29.6624   19.8744 C   0  0  0  0  0  0  0  0  0  0  0  0
  -23.6220  -18.9453   18.7396 C   0  0  0  0  0  0  0  0  0  0  0  0
  -31.8072  -27.1154   20.0080 C   0  0  0  0  0  0  0  0  0  0  0  0
  -24.3413  -20.5906   16.9543 C   0  0  0  0  0  0  0  0  0  0  0  0
  -25.9953  -19.8028   18.6013 C   0  0  0  0  0  0  0  0  0  0  0  0
  -20.3951  -28.8796   22.7791 C   0  0  1  0  0  0  0  0  0  0  0  0
  -30.5398  -29.5082   19.1408 C   0  0  2  0  0  0  0  0  0  0  0  0
  -23.4403  -26.6086   22.7296 C   0  0  1  0  0  0  0  0  0  0  0  0
  -24.8847  -19.3115   19.5441 C   0  0  2  0  0  0  0  0  0  0  0  0
  -29.1983  -22.5977   20.6055 C   0  0  0  0  0  0  0  0  0  0  0  0
  -29.3235  -23.7039   27.0127 C   0  0  0  0  0  0  0  0  0  0  0  0
  -24.4861  -28.6679   26.7328 C   0  0  0  0  0  0  0  0  0  0  0  0
  -26.4145  -27.6763   27.9844 C   0  0  0  0  0  0  0  0  0  0  0  0
  -24.2240  -26.4844   27.9235 C   0  0  0  0  0  0  0  0  0  0  0  0
  -27.1268  -22.5635   24.1231 C   0  0  0  0  0  0  0  0  0  0  0  0
  -31.4620  -26.0493   17.7948 C   0  0  0  0  0  0  0  0  0  0  0  0
  -29.3392  -29.3544   20.0683 C   0  0  0  0  0  0  0  0  0  1  0  0
  -25.6592  -26.5470   25.8431 C   0  0  1  0  0  0  0  0  0  0  0  0
  -28.0481  -23.6240   26.1884 C   0  0  2  0  0  0  0  0  0  0  0  0
  -25.1977  -27.3484   27.0929 C   0  0  0  0  0  0  0  0  0  0  0  0
  -25.1503  -16.9013   19.9933 N   0  0  0  0  0  0  0  0  0  0  0  0
  -25.3479  -18.1610   20.4180 N   0  0  0  0  0  0  0  0  0  0  0  0
  -31.3441  -27.2372   18.6278 N   0  0  0  0  0  0  0  0  0  0  0  0
  -24.6036  -26.7216   23.6116 N   0  0  0  0  0  0  0  0  0  0  0  0
  -25.5010  -20.9225   17.7848 N   0  0  0  0  0  0  0  0  0  0  0  0
  -26.2409  -19.4336   22.2050 N   0  0  0  0  0  0  0  0  0  0  0  0
  -28.2079  -16.3656   23.2593 N   0  0  0  0  0  0  0  0  0  0  0  0
  -27.1189  -22.4337   18.5980 N   0  0  0  0  0  0  0  0  0  0  0  0
  -21.3134  -27.7634   22.7066 N   0  0  0  0  0  0  0  0  0  0  0  0
  -26.3121  -25.2798   26.1534 N   0  0  0  0  0  0  0  0  0  0  0  0
  -28.3044  -22.7490   25.0095 N   0  3  0  0  0  0  0  0  0  0  0  0
  -30.0717  -28.4118   17.0714 O   0  0  0  0  0  0  0  0  0  0  0  0
  -26.1637  -16.3187   24.2976 O   0  0  0  0  0  0  0  0  0  0  0  0
  -23.2937  -28.9467   23.0242 O   0  0  0  0  0  0  0  0  0  0  0  0
  -23.5784  -25.5289   25.3329 O   0  0  0  0  0  0  0  0  0  0  0  0
  -28.3118  -25.7544   25.0796 O   0  0  0  0  0  0  0  0  0  0  0  0
  -25.5567  -23.1030   17.0189 O   0  0  0  0  0  0  0  0  0  0  0  0
  -25.5836  -10.5827   20.6524 O   0  0  0  0  0  0  0  0  0  0  0  0
  -28.1472  -29.3238   19.2844 O   0  0  0  0  0  0  0  0  0  1  0  0
  -20.7691   -8.0389   21.5204 F   0  0  0  0  0  0  0  0  0  0  0  0
  -29.3379  -25.7480   15.9483 F   0  0  0  0  0  0  0  0  0  0  0  0
  -25.2962   -8.7525   22.7043 F   0  0  0  0  0  0  0  0  0  0  0  0
  1  2  1  0  0  0  0
  1  5  2  0  0  0  0
  2  6  2  0  0  0  0
  3  8  2  0  0  0  0
  3 17  1  0  0  0  0
  4  9  1  0  0  0  0
  4 17  2  0  0  0  0
  5 19  1  0  0  0  0
  6 21  1  0  0  0  0
  7 10  2  0  0  0  0
  7 20  1  0  0  0  0
  8 26  1  0  0  0  0
  9 26  2  0  0  0  0
 10 27  1  0  0  0  0
 11 12  2  0  0  0  0
 11 28  1  0  0  0  0
 12 29  1  0  0  0  0
 13 22  1  0  0  0  0
 13 27  2  0  0  0  0
 14 23  2  0  0  0  0
 14 24  1  0  0  0  0
 15 25  2  0  0  0  0
 15 30  1  0  0  0  0
 16 29  2  0  0  0  0
 16 31  1  0  0  0  0
 17 32  1  0  0  0  0
 18 32  1  0  0  0  0
 18 33  2  0  0  0  0
 18 35  1  0  0  0  0
 19 21  2  0  0  0  0
 19 40  1  0  0  0  0
 20 22  2  0  0  0  0
 20 41  1  0  0  0  0
 21 52  1  0  0  0  0
 22 42  1  0  0  0  0
 23 25  1  0  0  0  0
 23 56  1  0  0  0  0
 24 30  2  0  0  0  0
 24 62  1  0  0  0  0
 25 74  1  0  0  0  0
 26 84  1  0  0  0  0
 27 85  1  0  0  0  0
 28 31  2  0  0  0  0
 28 84  1  0  0  0  0
 29 86  1  0  0  0  0
 30 87  1  0  0  0  0
 31 88  1  0  0  0  0
 32 67  2  0  0  0  0
 33 68  1  0  0  0  0
 33 72  1  0  0  0  0
 34 53  1  0  0  0  0
 34 69  1  0  0  0  0
 34 78  2  0  0  0  0
 35 73  1  0  0  0  0
 35 79  2  0  0  0  0
 36 54  1  0  0  0  0
 36 75  1  0  0  0  0
 36 80  2  0  0  0  0
 37 64  1  0  0  0  0
 37 70  1  0  0  0  0
 37 81  2  0  0  0  0
 38 65  1  0  0  0  0
 38 76  1  0  0  0  0
 38 82  2  0  0  0  0
 39 71  1  0  0  0  0
 39 74  1  0  0  0  0
 39 83  2  0  0  0  0
 40 43  1  0  0  0  0
 41 54  1  0  0  0  0
 42 70  1  0  0  0  0
 43 46  1  0  0  0  0
 44 47  1  0  0  0  0
 44 49  1  0  0  0  0
 45 48  1  0  0  0  0
 45 50  1  0  0  0  0
 46 52  1  0  0  0  0
 47 53  1  0  0  0  0
 48 55  1  0  0  0  0
 49 69  1  0  0  0  0
 50 71  1  0  0  0  0
 51 55  1  0  0  0  0
 51 71  1  0  0  0  0
 52 75  1  0  0  0  0
 53 63  1  0  0  0  0
 54 70  1  0  0  0  0
 55 68  1  0  0  0  0
 57 65  1  0  0  0  0
 58 66  1  0  0  0  0
 59 66  1  0  0  0  0
 60 66  1  0  0  0  0
 61 77  1  0  0  0  0
 62 69  1  0  0  0  0
 63 85  1  0  0  0  0
 64 66  1  0  0  0  0
 64 76  1  0  0  0  0
 65 77  1  0  0  0  0
 67 68  1  0  0  0  0
M  CHG  1  77   1
M  ISO  4  39 100  63 101  74 100  85 101
M  END
> <Batch ID>
0030

> <Smiles>
CNC(C)C(=O)NC(C(=O)N1Cc2cc([101O:1][101CH2:1]C3CCCN(Cc4cc(C)c([100NH:0][100C:0](=O)N5CCCC(n6nc(-c7ccc(Oc8ccc(F)cc8F)cc7)c(C(N)=O)c6N)C5)cc4F)C3=O)ccc2CC1C(=O)NC1CCCc2ccccc21)C(C)(C)C

> <Shape>
0.204

> <Color>
0.076

> <Negative vol penalty>
0.000

$$$$

  -OEChem-04042321363D

 85 94  0     1  0  0  0  0  0999 V2000
  -13.7390  -28.5921   25.1082 C   0  0  0  0  0  0  0  0  0  0  0  0
  -14.2513  -27.2989   25.0857 C   0  0  0  0  0  0  0  0  0  0  0  0
  -22.8951  -10.0666   20.1275 C   0  0  0  0  0  0  0  0  0  0  0  0
  -23.6445  -10.1758   22.4218 C   0  0  0  0  0  0  0  0  0  0  0  0
  -14.5286  -29.6609   24.6864 C   0  0  0  0  0  0  0  0  0  0  0  0
  -15.5533  -27.0736   24.6403 C   0  0  0  0  0  0  0  0  0  0  0  0
  -21.1708  -22.7715   25.7593 C   0  0  0  0  0  0  0  0  0  0  0  0
  -29.8655  -18.7081   21.7993 C   0  0  0  0  0  0  0  0  0  0  0  0
  -29.1152  -19.6472   22.5068 C   0  0  0  0  0  0  0  0  0  0  0  0
  -22.0616   -8.9959   20.4507 C   0  0  0  0  0  0  0  0  0  0  0  0
  -22.8109   -9.1051   22.7450 C   0  0  0  0  0  0  0  0  0  0  0  0
  -22.0520  -21.9470   25.0611 C   0  0  0  0  0  0  0  0  0  0  0  0
  -19.5275   -8.6077   23.3716 C   0  0  0  0  0  0  0  0  0  0  0  0
  -18.7653   -8.7100   24.5353 C   0  0  0  0  0  0  0  0  0  0  0  0
  -23.3511  -23.8795   24.4309 C   0  0  0  0  0  0  0  0  0  0  0  0
  -19.8470   -6.7379   25.4173 C   0  0  0  0  0  0  0  0  0  0  0  0
  -23.6866  -10.6565   21.1131 C   0  0  0  0  0  0  0  0  0  0  0  0
  -24.2272  -13.1322   20.8196 C   0  0  0  0  0  0  0  0  0  0  0  0
  -15.8443  -29.4498   24.2447 C   0  0  0  0  0  0  0  0  0  0  0  0
  -21.3673  -24.1596   25.7896 C   0  0  0  0  0  0  0  0  0  0  0  0
  -16.3609  -28.1405   24.2109 C   0  0  0  0  0  0  0  0  0  0  0  0
  -22.4724  -24.7191   25.1324 C   0  0  0  0  0  0  0  0  0  0  0  0
  -30.3532  -17.5734   22.4476 C   0  0  0  0  0  0  0  0  0  0  0  0
  -28.8526  -19.4518   23.8627 C   0  0  0  0  0  0  0  0  0  0  0  0
  -30.0906  -17.3779   23.8035 C   0  0  0  0  0  0  0  0  0  0  0  0
  -29.3403  -18.3171   24.5111 C   0  0  0  0  0  0  0  0  0  0  0  0
  -22.0194   -8.5152   21.7594 C   0  0  0  0  0  0  0  0  0  0  0  0
  -23.1407  -22.5012   24.3943 C   0  0  0  0  0  0  0  0  0  0  0  0
  -20.4495   -7.5704   23.2307 C   0  0  0  0  0  0  0  0  0  0  0  0
  -18.9251   -7.7752   25.5582 C   0  0  0  0  0  0  0  0  0  0  0  0
  -20.6092   -6.6356   24.2536 C   0  0  0  0  0  0  0  0  0  0  0  0
  -24.5483  -11.7621   20.7797 C   0  0  0  0  0  0  0  0  0  0  0  0
  -25.3765  -13.7661   20.4149 C   0  0  0  0  0  0  0  0  0  0  0  0
  -22.9998  -13.7744   21.1894 C   0  0  0  0  0  0  0  0  0  0  0  0
  -19.7038  -26.6826   24.8044 C   0  0  0  0  0  0  0  0  0  0  0  0
  -22.0534  -28.3323   26.3145 C   0  0  0  0  0  0  0  0  0  0  0  0
  -25.2642  -28.3992   27.4692 C   0  0  0  0  0  0  0  0  0  0  0  0
  -30.9228  -14.3623   20.5828 C   0  0  0  0  0  0  0  0  0  0  0  0
  -16.6436  -30.6309   23.7537 C   0  0  0  0  0  0  0  0  0  0  0  0
  -20.4228  -25.0324   26.5696 C   0  0  0  0  0  0  0  0  0  0  0  0
  -22.7394  -26.2012   25.1511 C   0  0  0  0  0  0  0  0  0  0  0  0
  -18.1408  -30.3522   23.6497 C   0  0  0  0  0  0  0  0  0  0  0  0
  -29.6097  -11.9120   18.3584 C   0  0  0  0  0  0  0  0  0  0  0  0
  -18.3882  -29.0154   22.9579 C   0  0  0  0  0  0  0  0  0  0  0  0
  -28.1519  -11.7633   18.7974 C   0  0  0  0  0  0  0  0  0  0  0  0
  -30.5368  -12.1443   19.5494 C   0  0  0  0  0  0  0  0  0  0  0  0
  -28.6934  -13.1185   20.8635 C   0  0  0  0  0  0  0  0  0  0  0  0
  -25.8216  -21.1424   25.3778 C   0  0  0  0  0  0  0  0  0  0  0  0
  -25.8486  -19.9775   23.6443 C   0  0  0  0  0  0  0  0  0  0  0  0
  -17.7770  -27.8587   23.7579 C   0  0  1  0  0  0  0  0  0  0  0  0
  -20.4302  -26.4855   26.1048 C   0  0  1  0  0  0  0  0  0  0  0  0
  -27.7130  -12.9382   19.6919 C   0  0  2  0  0  0  0  0  0  0  0  0
  -24.7141  -20.6709   24.4187 C   0  0  0  0  0  0  0  0  0  1  0  0
  -30.6138  -16.1595   24.4959 C   0  0  0  0  0  0  0  0  0  0  0  0
  -29.0590  -18.1099   25.9658 C   0  0  0  0  0  0  0  0  0  0  0  0
  -26.9109  -29.8987   28.6255 C   0  0  0  0  0  0  0  0  0  0  0  0
  -22.4632  -29.8808   23.7175 C   0  0  0  0  0  0  0  0  0  0  0  0
  -24.6728  -30.6517   24.6074 C   0  0  0  0  0  0  0  0  0  0  0  0
  -22.5673  -31.2751   25.7910 C   0  0  0  0  0  0  0  0  0  0  0  0
  -25.5215  -26.5434   29.7603 C   0  0  0  0  0  0  0  0  0  0  0  0
  -31.1536  -16.5830   21.6665 C   0  0  0  0  0  0  0  0  0  0  0  0
  -28.0448  -20.4783   24.6007 C   0  0  0  0  0  0  0  0  0  0  0  0
  -23.3971  -28.8899   25.9112 C   0  0  1  0  0  0  0  0  0  0  0  0
  -25.8457  -28.8280   28.8042 C   0  0  2  0  0  0  0  0  0  0  0  0
  -23.2692  -30.1466   25.0046 C   0  0  0  0  0  0  0  0  0  0  0  0
  -25.8032  -11.5380   20.3810 N   0  0  0  0  0  0  0  0  0  0  0  0
  -26.2808  -12.7758   20.1666 N   0  0  0  0  0  0  0  0  0  0  0  0
  -21.7838  -27.0135   25.9222 N   0  0  0  0  0  0  0  0  0  0  0  0
  -30.0657  -13.2729   20.3560 N   0  0  0  0  0  0  0  0  0  0  0  0
  -25.6917  -15.0685   20.2508 N   0  0  0  0  0  0  0  0  0  0  0  0
  -21.9180  -12.9736   21.5801 N   0  0  0  0  0  0  0  0  0  0  0  0
  -18.6152  -27.5293   24.8908 N   0  0  0  0  0  0  0  0  0  0  0  0
  -24.1324  -29.1193   27.1502 N   0  0  0  0  0  0  0  0  0  0  0  0
  -30.3957  -15.3925   21.3520 N   0  0  0  0  0  0  0  0  0  0  0  0
  -26.6593  -20.0382   24.8747 N   0  3  0  0  0  0  0  0  0  0  0  0
  -26.4626  -27.6627   29.4989 N   0  3  0  0  0  0  0  0  0  0  0  0
  -22.8613  -15.0208   21.1582 O   0  0  0  0  0  0  0  0  0  0  0  0
  -20.1025  -26.1102   23.7968 O   0  0  0  0  0  0  0  0  0  0  0  0
  -21.2748  -29.0383   26.9601 O   0  0  0  0  0  0  0  0  0  0  0  0
  -25.7660  -27.5164   26.7768 O   0  0  0  0  0  0  0  0  0  0  0  0
  -32.0708  -14.4156   20.1287 O   0  0  0  0  0  0  0  0  0  0  0  0
  -21.2060   -7.4706   22.0752 O   0  0  0  0  0  0  0  0  0  0  0  0
  -24.0020  -21.6989   23.7115 O   0  0  0  0  0  0  0  0  0  1  0  0
  -18.1942   -7.8745   26.6762 F   0  0  0  0  0  0  0  0  0  0  0  0
  -21.4942   -5.6376   24.1245 F   0  0  0  0  0  0  0  0  0  0  0  0
  1  2  1  0  0  0  0
  1  5  2  0  0  0  0
  2  6  2  0  0  0  0
  3 10  2  0  0  0  0
  3 17  1  0  0  0  0
  4 11  1  0  0  0  0
  4 17  2  0  0  0  0
  5 19  1  0  0  0  0
  6 21  1  0  0  0  0
  7 12  2  0  0  0  0
  7 20  1  0  0  0  0
  8  9  2  0  0  0  0
  8 23  1  0  0  0  0
  9 24  1  0  0  0  0
 10 27  1  0  0  0  0
 11 27  2  0  0  0  0
 12 28  1  0  0  0  0
 13 14  2  0  0  0  0
 13 29  1  0  0  0  0
 14 30  1  0  0  0  0
 15 22  1  0  0  0  0
 15 28  2  0  0  0  0
 16 30  2  0  0  0  0
 16 31  1  0  0  0  0
 17 32  1  0  0  0  0
 18 32  1  0  0  0  0
 18 33  2  0  0  0  0
 18 34  1  0  0  0  0
 19 21  2  0  0  0  0
 19 39  1  0  0  0  0
 20 22  2  0  0  0  0
 20 40  1  0  0  0  0
 21 50  1  0  0  0  0
 22 41  1  0  0  0  0
 23 25  2  0  0  0  0
 23 61  1  0  0  0  0
 24 26  2  0  0  0  0
 24 62  1  0  0  0  0
 25 26  1  0  0  0  0
 25 54  1  0  0  0  0
 26 55  1  0  0  0  0
 27 82  1  0  0  0  0
 28 83  1  0  0  0  0
 29 31  2  0  0  0  0
 29 82  1  0  0  0  0
 30 84  1  0  0  0  0
 31 85  1  0  0  0  0
 32 66  2  0  0  0  0
 33 67  1  0  0  0  0
 33 70  1  0  0  0  0
 34 71  1  0  0  0  0
 34 77  2  0  0  0  0
 35 51  1  0  0  0  0
 35 72  1  0  0  0  0
 35 78  2  0  0  0  0
 36 63  1  0  0  0  0
 36 68  1  0  0  0  0
 36 79  2  0  0  0  0
 37 64  1  0  0  0  0
 37 73  1  0  0  0  0
 37 80  2  0  0  0  0
 38 69  1  0  0  0  0
 38 74  1  0  0  0  0
 38 81  2  0  0  0  0
 39 42  1  0  0  0  0
 40 51  1  0  0  0  0
 41 68  1  0  0  0  0
 42 44  1  0  0  0  0
 43 45  1  0  0  0  0
 43 46  1  0  0  0  0
 44 50  1  0  0  0  0
 45 52  1  0  0  0  0
 46 69  1  0  0  0  0
 47 52  1  0  0  0  0
 47 69  1  0  0  0  0
 48 53  1  0  0  0  0
 48 75  1  0  0  0  0
 49 53  1  0  0  0  0
 49 75  1  0  0  0  0
 50 72  1  0  0  0  0
 51 68  1  0  0  0  0
 52 67  1  0  0  0  0
 53 83  1  0  0  0  0
 56 64  1  0  0  0  0
 57 65  1  0  0  0  0
 58 65  1  0  0  0  0
 59 65  1  0  0  0  0
 60 76  1  0  0  0  0
 61 74  1  0  0  0  0
 62 75  1  0  0  0  0
 63 65  1  0  0  0  0
 63 73  1  0  0  0  0
 64 76  1  0  0  0  0
 66 67  1  0  0  0  0
M  CHG  2  75   1  76   1
M  ISO  4  38 100  53 101  74 100  83 101
M  END
> <Batch ID>
0030

> <Smiles>
CNC(C)C(=O)NC(C(=O)N1Cc2cc([101O:1][101CH:1]3CN(Cc4ccc(C[100NH:0][100C:0](=O)N5CCCC(n6nc(-c7ccc(Oc8ccc(F)cc8F)cc7)c(C(N)=O)c6N)C5)c(C)c4C)C3)ccc2CC1C(=O)NC1CCCc2ccccc21)C(C)(C)C

> <Shape>
0.216

> <Color>
0.176

> <Negative vol penalty>
0.000

$$$$

  -OEChem-04042321363D

 88 97  0     1  0  0  0  0  0999 V2000
  -29.8449  -32.1644   25.7824 C   0  0  0  0  0  0  0  0  0  0  0  0
  -29.5845  -31.1026   24.9220 C   0  0  0  0  0  0  0  0  0  0  0  0
  -24.2881   -9.3261   22.3181 C   0  0  0  0  0  0  0  0  0  0  0  0
  -23.9127   -9.2471   19.9327 C   0  0  0  0  0  0  0  0  0  0  0  0
  -28.8023  -32.7531   26.4968 C   0  0  0  0  0  0  0  0  0  0  0  0
  -28.2814  -30.6282   24.7764 C   0  0  0  0  0  0  0  0  0  0  0  0
  -27.0409  -29.8114   19.9350 C   0  0  0  0  0  0  0  0  0  0  0  0
  -23.7804   -8.0328   22.4408 C   0  0  0  0  0  0  0  0  0  0  0  0
  -23.4050   -7.9537   20.0555 C   0  0  0  0  0  0  0  0  0  0  0  0
  -27.5239  -28.6458   19.3419 C   0  0  0  0  0  0  0  0  0  0  0  0
  -20.7463   -6.5451   22.5153 C   0  0  0  0  0  0  0  0  0  0  0  0
  -19.8433   -6.2996   23.5496 C   0  0  0  0  0  0  0  0  0  0  0  0
  -25.3813  -27.5914   19.6834 C   0  0  0  0  0  0  0  0  0  0  0  0
  -28.4394  -18.8952   21.7676 C   0  0  0  0  0  0  0  0  0  0  0  0
  -21.3434   -4.6420   24.4658 C   0  0  0  0  0  0  0  0  0  0  0  0
  -24.3542   -9.9333   21.0640 C   0  0  0  0  0  0  0  0  0  0  0  0
  -24.3817  -12.4387   21.5437 C   0  0  0  0  0  0  0  0  0  0  0  0
  -27.4843  -32.2919   26.3525 C   0  0  0  0  0  0  0  0  0  0  0  0
  -25.7256  -29.8723   20.4174 C   0  0  0  0  0  0  0  0  0  0  0  0
  -27.2203  -31.2104   25.4906 C   0  0  0  0  0  0  0  0  0  0  0  0
  -24.8832  -28.7598   20.2799 C   0  0  0  0  0  0  0  0  0  0  0  0
  -28.6930  -17.9722   20.7531 C   0  0  0  0  0  0  0  0  0  0  0  0
  -28.8551  -18.4083   19.4381 C   0  0  0  0  0  0  0  0  0  0  0  0
  -28.7633  -19.7673   19.1376 C   0  0  0  0  0  0  0  0  0  0  0  0
  -28.5096  -20.6903   20.1522 C   0  0  0  0  0  0  0  0  0  0  0  0
  -23.3389   -7.3465   21.3095 C   0  0  0  0  0  0  0  0  0  0  0  0
  -26.6950  -27.5346   19.2186 C   0  0  0  0  0  0  0  0  0  0  0  0
  -21.9478   -5.8390   22.4561 C   0  0  0  0  0  0  0  0  0  0  0  0
  -20.1419   -5.3481   24.5249 C   0  0  0  0  0  0  0  0  0  0  0  0
  -22.2464   -4.8875   23.4313 C   0  0  0  0  0  0  0  0  0  0  0  0
  -28.3476  -20.2543   21.4672 C   0  0  0  0  0  0  0  0  0  0  0  0
  -24.8781  -11.2695   20.9366 C   0  0  0  0  0  0  0  0  0  0  0  0
  -25.2225  -13.4343   21.1099 C   0  0  0  0  0  0  0  0  0  0  0  0
  -23.2608  -12.6094   22.4213 C   0  0  0  0  0  0  0  0  0  0  0  0
  -24.4019  -30.3233   23.2719 C   0  0  0  0  0  0  0  0  0  0  0  0
  -21.6478  -30.3492   21.5583 C   0  0  0  0  0  0  0  0  0  0  0  0
  -19.9888  -29.4147   18.7261 C   0  0  0  0  0  0  0  0  0  0  0  0
  -30.6363  -14.9795   20.3220 C   0  0  0  0  0  0  0  0  0  0  0  0
  -26.3974  -32.9292   27.1815 C   0  0  0  0  0  0  0  0  0  0  0  0
  -25.2115  -31.1459   21.0305 C   0  0  0  0  0  0  0  0  0  0  0  0
  -23.4569  -28.7806   20.7632 C   0  0  0  0  0  0  0  0  0  0  0  0
  -24.9886  -32.6114   26.6868 C   0  0  0  0  0  0  0  0  0  0  0  0
  -28.7728  -13.4381   17.5196 C   0  0  0  0  0  0  0  0  0  0  0  0
  -24.8492  -31.1210   26.3937 C   0  0  0  0  0  0  0  0  0  0  0  0
  -27.5932  -12.7750   18.2287 C   0  0  0  0  0  0  0  0  0  0  0  0
  -28.9185  -24.3309   19.7419 C   0  0  0  0  0  0  0  0  0  0  0  0
  -29.9969  -13.5357   18.4251 C   0  0  0  0  0  0  0  0  0  0  0  0
  -29.5582  -22.9484   19.8499 C   0  0  0  0  0  0  0  0  0  0  0  0
  -27.1779  -22.7092   19.4834 C   0  0  0  0  0  0  0  0  0  0  0  0
  -28.5534  -13.5503   20.4327 C   0  0  0  0  0  0  0  0  0  0  0  0
  -25.8163  -30.6836   25.2869 C   0  0  1  0  0  0  0  0  0  0  0  0
  -24.0149  -30.9255   21.9508 C   0  0  1  0  0  0  0  0  0  0  0  0
  -27.6461  -24.0650   18.9428 C   0  0  1  0  0  0  0  0  0  0  0  0
  -27.2894  -13.4785   19.5629 C   0  0  2  0  0  0  0  0  0  0  0  0
  -29.1266  -17.4161   18.3518 C   0  0  0  0  0  0  0  0  0  0  0  0
  -28.9400  -20.2307   17.7249 C   0  0  0  0  0  0  0  0  0  0  0  0
  -17.7368  -29.5491   17.6272 C   0  0  0  0  0  0  0  0  0  0  0  0
  -20.6026  -28.1878   23.4413 C   0  0  0  0  0  0  0  0  0  0  0  0
  -18.8030  -27.7002   21.7704 C   0  0  0  0  0  0  0  0  0  0  0  0
  -18.9302  -29.9485   22.8437 C   0  0  0  0  0  0  0  0  0  0  0  0
  -31.1329  -16.9202   21.7595 C   0  0  0  0  0  0  0  0  0  0  0  0
  -21.0773  -30.9075   16.4140 C   0  0  0  0  0  0  0  0  0  0  0  0
  -28.7888  -16.5228   21.1014 C   0  0  0  0  0  0  0  0  0  0  0  0
  -26.6059  -25.1615   19.0905 C   0  0  0  0  0  0  0  0  0  1  0  0
  -20.6559  -29.3019   21.1129 C   0  0  1  0  0  0  0  0  0  0  0  0
  -19.1049  -30.1973   17.7719 C   0  0  2  0  0  0  0  0  0  0  0  0
  -19.7754  -28.7832   22.2846 C   0  0  0  0  0  0  0  0  0  0  0  0
  -25.9510  -11.4996   20.1751 N   0  0  0  0  0  0  0  0  0  0  0  0
  -26.1356  -12.8248   20.3006 N   0  0  0  0  0  0  0  0  0  0  0  0
  -28.4211  -22.0315   19.8450 N   0  0  3  0  0  0  0  0  0  0  0  0
  -23.0026  -30.0469   21.3612 N   0  0  0  0  0  0  0  0  0  0  0  0
  -29.6703  -14.1692   19.7031 N   0  0  0  0  0  0  0  0  0  0  0  0
  -25.2625  -14.7629   21.3455 N   0  0  0  0  0  0  0  0  0  0  0  0
  -22.0069  -12.8831   21.8581 N   0  0  0  0  0  0  0  0  0  0  0  0
  -25.3108  -31.0774   23.9893 N   0  0  0  0  0  0  0  0  0  0  0  0
  -19.9004  -29.8959   20.0152 N   0  0  0  0  0  0  0  0  0  0  0  0
  -30.1697  -16.0449   21.1068 N   0  0  0  0  0  0  0  0  0  0  0  0
  -19.7354  -30.2702   16.4235 N   0  3  0  0  0  0  0  0  0  0  0  0
  -23.3712  -12.5381   23.6688 O   0  0  0  0  0  0  0  0  0  0  0  0
  -23.9111  -29.2543   23.6156 O   0  0  0  0  0  0  0  0  0  0  0  0
  -21.2354  -31.3998   22.0560 O   0  0  0  0  0  0  0  0  0  0  0  0
  -20.6851  -28.4685   18.3647 O   0  0  0  0  0  0  0  0  0  0  0  0
  -31.8468  -14.7688   20.1733 O   0  0  0  0  0  0  0  0  0  0  0  0
  -22.8436   -6.0844   21.4289 O   0  0  0  0  0  0  0  0  0  0  0  0
  -27.1641  -26.3953   18.6407 O   0  0  0  0  0  0  0  0  0  1  0  0
  -19.2753   -5.1136   25.5190 F   0  0  0  0  0  0  0  0  0  0  0  0
  -23.3996   -4.2068   23.3804 F   0  0  0  0  0  0  0  0  0  0  0  0
  -28.0272  -21.3604   22.7556 Cl  0  0  0  0  0  0  0  0  0  0  0  0
  1  2  1  0  0  0  0
  1  5  2  0  0  0  0
  2  6  2  0  0  0  0
  3  8  2  0  0  0  0
  3 16  1  0  0  0  0
  4  9  1  0  0  0  0
  4 16  2  0  0  0  0
  5 18  1  0  0  0  0
  6 20  1  0  0  0  0
  7 10  2  0  0  0  0
  7 19  1  0  0  0  0
  8 26  1  0  0  0  0
  9 26  2  0  0  0  0
 10 27  1  0  0  0  0
 11 12  2  0  0  0  0
 11 28  1  0  0  0  0
 12 29  1  0  0  0  0
 13 21  1  0  0  0  0
 13 27  2  0  0  0  0
 14 22  1  0  0  0  0
 14 31  2  0  0  0  0
 15 29  2  0  0  0  0
 15 30  1  0  0  0  0
 16 32  1  0  0  0  0
 17 32  1  0  0  0  0
 17 33  2  0  0  0  0
 17 34  1  0  0  0  0
 18 20  2  0  0  0  0
 18 39  1  0  0  0  0
 19 21  2  0  0  0  0
 19 40  1  0  0  0  0
 20 51  1  0  0  0  0
 21 41  1  0  0  0  0
 22 23  2  0  0  0  0
 22 63  1  0  0  0  0
 23 24  1  0  0  0  0
 23 55  1  0  0  0  0
 24 25  2  0  0  0  0
 24 56  1  0  0  0  0
 25 31  1  0  0  0  0
 25 70  1  0  0  0  0
 26 84  1  0  0  0  0
 27 85  1  0  0  0  0
 28 30  2  0  0  0  0
 28 84  1  0  0  0  0
 29 86  1  0  0  0  0
 30 87  1  0  0  0  0
 31 88  1  0  0  0  0
 32 68  2  0  0  0  0
 33 69  1  0  0  0  0
 33 73  1  0  0  0  0
 34 74  1  0  0  0  0
 34 79  2  0  0  0  0
 35 52  1  0  0  0  0
 35 75  1  0  0  0  0
 35 80  2  0  0  0  0
 36 65  1  0  0  0  0
 36 71  1  0  0  0  0
 36 81  2  0  0  0  0
 37 66  1  0  0  0  0
 37 76  1  0  0  0  0
 37 82  2  0  0  0  0
 38 72  1  0  0  0  0
 38 77  1  0  0  0  0
 38 83  2  0  0  0  0
 39 42  1  0  0  0  0
 40 52  1  0  0  0  0
 41 71  1  0  0  0  0
 42 44  1  0  0  0  0
 43 45  1  0  0  0  0
 43 47  1  0  0  0  0
 44 51  1  0  0  0  0
 45 54  1  0  0  0  0
 46 48  1  0  0  0  0
 46 53  1  0  0  0  0
 47 72  1  0  0  0  0
 48 70  1  0  0  0  0
 49 53  1  0  0  0  0
 49 70  1  0  0  0  0
 50 54  1  0  0  0  0
 50 72  1  0  0  0  0
 51 75  1  0  0  0  0
 52 71  1  0  0  0  0
 53 64  1  0  0  0  0
 54 69  1  0  0  0  0
 57 66  1  0  0  0  0
 58 67  1  0  0  0  0
 59 67  1  0  0  0  0
 60 67  1  0  0  0  0
 61 77  1  0  0  0  0
 62 78  1  0  0  0  0
 63 77  1  0  0  0  0
 64 85  1  0  0  0  0
 65 67  1  0  0  0  0
 65 76  1  0  0  0  0
 66 78  1  0  0  0  0
 68 69  1  0  0  0  0
M  CHG  1  78   1
M  ISO  4  38 100  64 101  77 100  85 101
M  END
> <Batch ID>
0030

> <Smiles>
CNC(C)C(=O)NC(C(=O)N1Cc2cc([101O:1][101CH2:1]C3CCN(c4c(Cl)cc(C[100N:0](C)[100C:0](=O)N5CCCC(n6nc(-c7ccc(Oc8ccc(F)cc8F)cc7)c(C(N)=O)c6N)C5)c(C)c4C)C3)ccc2CC1C(=O)NC1CCCc2ccccc21)C(C)(C)C

> <Shape>
0.410

> <Color>
0.174

> <Negative vol penalty>
0.000

$$$$

  -OEChem-04042321363D

 87 96  0     1  0  0  0  0  0999 V2000
  -30.5820  -35.2802   18.8801 C   0  0  0  0  0  0  0  0  0  0  0  0
  -30.4963  -33.8981   19.0132 C   0  0  0  0  0  0  0  0  0  0  0  0
  -29.2839  -19.7632   18.3445 C   0  0  0  0  0  0  0  0  0  0  0  0
  -24.3894   -9.4608   21.6538 C   0  0  0  0  0  0  0  0  0  0  0  0
  -22.5807  -10.2732   20.2734 C   0  0  0  0  0  0  0  0  0  0  0  0
  -29.7928  -36.1066   19.6790 C   0  0  0  0  0  0  0  0  0  0  0  0
  -29.6221  -33.3415   19.9462 C   0  0  0  0  0  0  0  0  0  0  0  0
  -26.4795  -28.1150   19.3861 C   0  0  0  0  0  0  0  0  0  0  0  0
  -28.2085  -18.8921   18.1706 C   0  0  0  0  0  0  0  0  0  0  0  0
  -29.3887  -20.5173   19.5133 C   0  0  0  0  0  0  0  0  0  0  0  0
  -23.7251   -8.2441   21.8083 C   0  0  0  0  0  0  0  0  0  0  0  0
  -21.9164   -9.0565   20.4278 C   0  0  0  0  0  0  0  0  0  0  0  0
  -26.7121  -26.8252   19.8613 C   0  0  0  0  0  0  0  0  0  0  0  0
  -21.1710   -7.0176   23.6513 C   0  0  0  0  0  0  0  0  0  0  0  0
  -21.1129   -6.4698   24.9327 C   0  0  0  0  0  0  0  0  0  0  0  0
  -25.2817  -27.2703   21.7521 C   0  0  0  0  0  0  0  0  0  0  0  0
  -22.2782   -4.5052   24.1457 C   0  0  0  0  0  0  0  0  0  0  0  0
  -23.8172  -10.4754   20.8864 C   0  0  0  0  0  0  0  0  0  0  0  0
  -25.7758  -11.9413   20.1634 C   0  0  0  0  0  0  0  0  0  0  0  0
  -28.9015  -35.5597   20.6155 C   0  0  0  0  0  0  0  0  0  0  0  0
  -25.6535  -28.9974   20.0972 C   0  0  0  0  0  0  0  0  0  0  0  0
  -28.8212  -34.1614   20.7593 C   0  0  0  0  0  0  0  0  0  0  0  0
  -25.0381  -28.5700   21.2824 C   0  0  0  0  0  0  0  0  0  0  0  0
  -27.2378  -18.7752   19.1654 C   0  0  0  0  0  0  0  0  0  0  0  0
  -28.4180  -20.4004   20.5081 C   0  0  0  0  0  0  0  0  0  0  0  0
  -27.3425  -19.5293   20.3342 C   0  0  0  0  0  0  0  0  0  0  0  0
  -22.4886   -8.0419   21.1952 C   0  0  0  0  0  0  0  0  0  0  0  0
  -26.1155  -26.4036   21.0460 C   0  0  0  0  0  0  0  0  0  0  0  0
  -21.7826   -6.3092   22.6170 C   0  0  0  0  0  0  0  0  0  0  0  0
  -21.6666   -5.2137   25.1800 C   0  0  0  0  0  0  0  0  0  0  0  0
  -22.3363   -5.0530   22.8642 C   0  0  0  0  0  0  0  0  0  0  0  0
  -24.5028  -11.7327   20.7270 C   0  0  0  0  0  0  0  0  0  0  0  0
  -25.9689  -13.2988   20.2446 C   0  0  0  0  0  0  0  0  0  0  0  0
  -27.4377  -22.9062   23.1304 C   0  0  0  0  0  0  0  0  0  0  0  0
  -26.8148  -22.1908   24.0744 C   0  0  0  0  0  0  0  0  0  0  0  0
  -26.7010  -10.9929   19.6154 C   0  0  0  0  0  0  0  0  0  0  0  0
  -26.0721  -31.8112   21.5154 C   0  0  0  0  0  0  0  0  0  0  0  0
  -22.8577  -31.6471   21.9194 C   0  0  0  0  0  0  0  0  0  0  0  0
  -20.0624  -29.7032   22.1520 C   0  0  0  0  0  0  0  0  0  0  0  0
  -23.6660  -18.4186   19.3496 C   0  0  0  0  0  0  0  0  0  0  0  0
  -28.1033  -36.4942   21.4898 C   0  0  0  0  0  0  0  0  0  0  0  0
  -25.3913  -30.3766   19.5572 C   0  0  0  0  0  0  0  0  0  0  0  0
  -24.1268  -29.4720   22.0727 C   0  0  0  0  0  0  0  0  0  0  0  0
  -27.8309  -24.3456   23.2495 C   0  0  0  0  0  0  0  0  0  0  0  0
  -26.9293  -35.8173   22.1923 C   0  0  0  0  0  0  0  0  0  0  0  0
  -23.3774  -16.8700   22.6992 C   0  0  0  0  0  0  0  0  0  0  0  0
  -27.3695  -34.4962   22.8151 C   0  0  0  0  0  0  0  0  0  0  0  0
  -23.6812  -15.4002   22.4140 C   0  0  0  0  0  0  0  0  0  0  0  0
  -22.7702  -17.5693   21.4868 C   0  0  0  0  0  0  0  0  0  0  0  0
  -23.8905  -15.9761   19.9635 C   0  0  0  0  0  0  0  0  0  0  0  0
  -28.0852  -23.5757   20.9815 C   0  0  0  0  0  0  0  0  0  0  0  0
  -27.8668  -33.5194   21.7428 C   0  0  1  0  0  0  0  0  0  0  0  0
  -24.9431  -31.3634   20.6308 C   0  0  1  0  0  0  0  0  0  0  0  0
  -24.5463  -15.2541   21.1501 C   0  0  2  0  0  0  0  0  0  0  0  0
  -27.6901  -24.7945   21.8034 C   0  0  1  0  0  0  0  0  0  1  0  0
  -26.3016  -19.4040   21.4009 C   0  0  0  0  0  0  0  0  0  0  0  0
  -17.5847  -29.8518   22.5212 C   0  0  0  0  0  0  0  0  0  0  0  0
  -23.3326  -32.1327   24.8941 C   0  0  0  0  0  0  0  0  0  0  0  0
  -20.9987  -31.3358   25.3255 C   0  0  0  0  0  0  0  0  0  0  0  0
  -21.3829  -33.3697   23.9333 C   0  0  0  0  0  0  0  0  0  0  0  0
  -24.9889  -19.6043   17.6397 C   0  0  0  0  0  0  0  0  0  0  0  0
  -19.4797  -28.5030   19.5102 C   0  0  0  0  0  0  0  0  0  0  0  0
  -26.0962  -17.8349   18.9546 C   0  0  0  0  0  0  0  0  0  0  0  0
  -28.5544  -21.2225   21.7557 C   0  0  0  0  0  0  0  0  0  0  0  0
  -21.9408  -31.0940   22.9835 C   0  0  1  0  0  0  0  0  0  0  0  0
  -18.7011  -29.8130   21.4892 C   0  0  2  0  0  0  0  0  0  0  0  0
  -21.9324  -31.9665   24.2705 C   0  0  0  0  0  0  0  0  0  0  0  0
  -23.9278  -12.8667   21.1362 N   0  0  0  0  0  0  0  0  0  0  0  0
  -24.8438  -13.8010   20.8294 N   0  0  0  0  0  0  0  0  0  0  0  0
  -23.9067  -30.8132   21.5069 N   0  0  0  0  0  0  0  0  0  0  0  0
  -23.5903  -17.3782   20.2901 N   0  0  0  0  0  0  0  0  0  0  0  0
  -26.9898  -14.0998   19.8721 N   0  0  0  0  0  0  0  0  0  0  0  0
  -26.6175  -10.6907   18.2494 N   0  0  0  0  0  0  0  0  0  0  0  0
  -26.7482  -32.9212   21.0461 N   0  0  0  0  0  0  0  0  0  0  0  0
  -20.6325  -30.9419   22.3562 N   0  0  0  0  0  0  0  0  0  0  0  0
  -24.8580  -18.5343   18.6185 N   0  0  0  0  0  0  0  0  0  0  0  0
  -27.6048  -22.3816   21.8022 N   0  3  1  0  0  0  0  0  0  0  0  0
  -18.4681  -28.6489   20.5884 N   0  3  0  0  0  0  0  0  0  0  0  0
  -27.5652  -10.4179   20.3197 O   0  0  0  0  0  0  0  0  0  0  0  0
  -26.3112  -31.1961   22.5480 O   0  0  0  0  0  0  0  0  0  0  0  0
  -22.6467  -32.7746   21.4656 O   0  0  0  0  0  0  0  0  0  0  0  0
  -20.5678  -28.6263   22.4612 O   0  0  0  0  0  0  0  0  0  0  0  0
  -22.7256  -19.2053   19.1802 O   0  0  0  0  0  0  0  0  0  0  0  0
  -21.8401   -6.8547   21.3455 O   0  0  0  0  0  0  0  0  0  0  0  0
  -26.3413  -25.1453   21.5124 O   0  0  0  0  0  0  0  0  0  1  0  0
  -21.6121   -4.6884   26.4110 F   0  0  0  0  0  0  0  0  0  0  0  0
  -22.9262   -4.3682   21.8749 F   0  0  0  0  0  0  0  0  0  0  0  0
  1  2  1  0  0  0  0
  1  6  2  0  0  0  0
  2  7  2  0  0  0  0
  3  9  1  0  0  0  0
  3 10  2  0  0  0  0
  4 11  2  0  0  0  0
  4 18  1  0  0  0  0
  5 12  1  0  0  0  0
  5 18  2  0  0  0  0
  6 20  1  0  0  0  0
  7 22  1  0  0  0  0
  8 13  2  0  0  0  0
  8 21  1  0  0  0  0
  9 24  2  0  0  0  0
 10 25  1  0  0  0  0
 11 27  1  0  0  0  0
 12 27  2  0  0  0  0
 13 28  1  0  0  0  0
 14 15  2  0  0  0  0
 14 29  1  0  0  0  0
 15 30  1  0  0  0  0
 16 23  1  0  0  0  0
 16 28  2  0  0  0  0
 17 30  2  0  0  0  0
 17 31  1  0  0  0  0
 18 32  1  0  0  0  0
 19 32  1  0  0  0  0
 19 33  2  0  0  0  0
 19 36  1  0  0  0  0
 20 22  2  0  0  0  0
 20 41  1  0  0  0  0
 21 23  2  0  0  0  0
 21 42  1  0  0  0  0
 22 52  1  0  0  0  0
 23 43  1  0  0  0  0
 24 26  1  0  0  0  0
 24 63  1  0  0  0  0
 25 26  2  0  0  0  0
 25 64  1  0  0  0  0
 26 56  1  0  0  0  0
 27 84  1  0  0  0  0
 28 85  1  0  0  0  0
 29 31  2  0  0  0  0
 29 84  1  0  0  0  0
 30 86  1  0  0  0  0
 31 87  1  0  0  0  0
 32 68  2  0  0  0  0
 33 69  1  0  0  0  0
 33 72  1  0  0  0  0
 34 35  2  0  0  0  0
 34 44  1  0  0  0  0
 34 77  1  0  0  0  0
 36 73  1  0  0  0  0
 36 79  2  0  0  0  0
 37 53  1  0  0  0  0
 37 74  1  0  0  0  0
 37 80  2  0  0  0  0
 38 65  1  0  0  0  0
 38 70  1  0  0  0  0
 38 81  2  0  0  0  0
 39 66  1  0  0  0  0
 39 75  1  0  0  0  0
 39 82  2  0  0  0  0
 40 71  1  0  0  0  0
 40 76  1  0  0  0  0
 40 83  2  0  0  0  0
 41 45  1  0  0  0  0
 42 53  1  0  0  0  0
 43 70  1  0  0  0  0
 44 55  1  0  0  0  0
 45 47  1  0  0  0  0
 46 48  1  0  0  0  0
 46 49  1  0  0  0  0
 47 52  1  0  0  0  0
 48 54  1  0  0  0  0
 49 71  1  0  0  0  0
 50 54  1  0  0  0  0
 50 71  1  0  0  0  0
 51 55  1  0  0  0  0
 51 77  1  0  0  0  0
 52 74  1  0  0  0  0
 53 70  1  0  0  0  0
 54 69  1  0  0  0  0
 55 85  1  0  0  0  0
 57 66  1  0  0  0  0
 58 67  1  0  0  0  0
 59 67  1  0  0  0  0
 60 67  1  0  0  0  0
 61 76  1  0  0  0  0
 62 78  1  0  0  0  0
 63 76  1  0  0  0  0
 64 77  1  0  0  0  0
 65 67  1  0  0  0  0
 65 75  1  0  0  0  0
 66 78  1  0  0  0  0
 68 69  1  0  0  0  0
M  CHG  2  77   1  78   1
M  ISO  4  40 100  55 101  76 100  85 101
M  END
> <Batch ID>
0030

> <Smiles>
C=C1C[101CH:1]([101O:1]c2ccc3c(c2)CN(C(=O)C(NC(=O)C(C)NC)C(C)(C)C)C(C(=O)NC2CCCc4ccccc42)C3)CN1Cc1cccc(C[100N:0](C)[100C:0](=O)N2CCCC(n3nc(-c4ccc(Oc5ccc(F)cc5F)cc4)c(C(N)=O)c3N)C2)c1C

> <Shape>
0.264

> <Color>
0.102

> <Negative vol penalty>
0.000

$$$$

  -OEChem-04042321363D

 88 97  0     1  0  0  0  0  0999 V2000
  -29.3737  -34.8194   24.1704 C   0  0  0  0  0  0  0  0  0  0  0  0
  -29.3458  -33.4772   23.8058 C   0  0  0  0  0  0  0  0  0  0  0  0
  -21.9963  -12.0489   21.2707 C   0  0  0  0  0  0  0  0  0  0  0  0
  -22.4323  -14.3635   21.8086 C   0  0  0  0  0  0  0  0  0  0  0  0
  -28.2223  -35.4302   24.6655 C   0  0  0  0  0  0  0  0  0  0  0  0
  -28.1667  -32.7445   23.9371 C   0  0  0  0  0  0  0  0  0  0  0  0
  -27.1982  -29.8778   19.8765 C   0  0  0  0  0  0  0  0  0  0  0  0
  -31.4478  -19.5773   20.7445 C   0  0  0  0  0  0  0  0  0  0  0  0
  -20.6702  -12.2049   21.6742 C   0  0  0  0  0  0  0  0  0  0  0  0
  -21.1062  -14.5196   22.2120 C   0  0  0  0  0  0  0  0  0  0  0  0
  -27.9147  -28.6884   19.7513 C   0  0  0  0  0  0  0  0  0  0  0  0
  -18.9486  -12.3200   24.5806 C   0  0  0  0  0  0  0  0  0  0  0  0
  -31.9709  -18.2861   20.8135 C   0  0  0  0  0  0  0  0  0  0  0  0
  -18.3963  -11.3254   25.3876 C   0  0  0  0  0  0  0  0  0  0  0  0
  -26.0208  -27.4642   20.6078 C   0  0  0  0  0  0  0  0  0  0  0  0
  -16.7091  -10.9020   23.7109 C   0  0  0  0  0  0  0  0  0  0  0  0
  -22.8774  -13.1282   21.3379 C   0  0  0  0  0  0  0  0  0  0  0  0
  -24.7100  -12.5913   19.6465 C   0  0  0  0  0  0  0  0  0  0  0  0
  -27.0259  -34.7072   24.7939 C   0  0  0  0  0  0  0  0  0  0  0  0
  -25.8892  -29.8705   20.3794 C   0  0  0  0  0  0  0  0  0  0  0  0
  -26.9985  -33.3458   24.4357 C   0  0  0  0  0  0  0  0  0  0  0  0
  -25.2888  -28.6546   20.7360 C   0  0  0  0  0  0  0  0  0  0  0  0
  -30.2189  -19.8646   21.3387 C   0  0  0  0  0  0  0  0  0  0  0  0
  -29.5131  -18.8606   22.0017 C   0  0  0  0  0  0  0  0  0  0  0  0
  -30.0362  -17.5694   22.0706 C   0  0  0  0  0  0  0  0  0  0  0  0
  -20.2252  -13.4402   22.1449 C   0  0  0  0  0  0  0  0  0  0  0  0
  -27.3271  -27.4817   20.1196 C   0  0  0  0  0  0  0  0  0  0  0  0
  -18.3812  -12.6057   23.3388 C   0  0  0  0  0  0  0  0  0  0  0  0
  -17.2765  -10.6164   24.9527 C   0  0  0  0  0  0  0  0  0  0  0  0
  -31.2652  -17.2822   21.4764 C   0  0  0  0  0  0  0  0  0  0  0  0
  -17.2614  -11.8967   22.9039 C   0  0  0  0  0  0  0  0  0  0  0  0
  -24.2474  -12.9675   20.9218 C   0  0  0  0  0  0  0  0  0  0  0  0
  -26.0782  -12.5828   19.7662 C   0  0  0  0  0  0  0  0  0  0  0  0
  -27.7498  -22.5668   20.5525 C   0  0  0  0  0  0  0  0  0  0  0  0
  -26.5567  -22.3382   21.1271 C   0  0  0  0  0  0  0  0  0  0  0  0
  -23.9691  -12.2776   18.4597 C   0  0  0  0  0  0  0  0  0  0  0  0
  -24.4531  -31.1414   22.9145 C   0  0  0  0  0  0  0  0  0  0  0  0
  -21.7794  -29.9688   21.5008 C   0  0  0  0  0  0  0  0  0  0  0  0
  -20.3899  -27.7026   19.3606 C   0  0  0  0  0  0  0  0  0  0  0  0
  -29.8762  -15.4320   23.3943 C   0  0  0  0  0  0  0  0  0  0  0  0
  -25.8194  -35.3981   25.3785 C   0  0  0  0  0  0  0  0  0  0  0  0
  -25.1202  -31.1590   20.4833 C   0  0  0  0  0  0  0  0  0  0  0  0
  -23.8791  -28.5905   21.2623 C   0  0  0  0  0  0  0  0  0  0  0  0
  -24.5114  -34.6498   25.1347 C   0  0  0  0  0  0  0  0  0  0  0  0
  -29.5507  -11.9090   22.9945 C   0  0  0  0  0  0  0  0  0  0  0  0
  -29.6499  -22.7048   18.4114 C   0  0  0  0  0  0  0  0  0  0  0  0
  -24.6781  -33.1667   25.4501 C   0  0  0  0  0  0  0  0  0  0  0  0
  -28.7479  -23.9023   18.6996 C   0  0  0  0  0  0  0  0  0  0  0  0
  -28.1986  -11.7468   22.2961 C   0  0  0  0  0  0  0  0  0  0  0  0
  -29.5309  -13.0496   24.0106 C   0  0  0  0  0  0  0  0  0  0  0  0
  -27.7140  -14.1779   22.7879 C   0  0  0  0  0  0  0  0  0  0  0  0
  -28.9858  -21.3943   18.8153 C   0  0  0  0  0  0  0  0  0  0  0  0
  -25.7320  -32.5242   24.5402 C   0  0  1  0  0  0  0  0  0  0  0  0
  -28.3014  -23.9313   20.1691 C   0  0  1  0  0  0  0  0  0  0  0  0
  -23.9763  -31.0927   21.4904 C   0  0  1  0  0  0  0  0  0  0  0  0
  -27.7039  -13.0830   21.7086 C   0  0  2  0  0  0  0  0  0  0  0  0
  -28.1957  -19.1744   22.6389 C   0  0  0  0  0  0  0  0  0  0  0  0
  -18.1757  -26.9640   18.4390 C   0  0  0  0  0  0  0  0  0  0  0  0
  -21.1555  -28.5607   24.1348 C   0  0  0  0  0  0  0  0  0  0  0  0
  -19.5188  -27.1246   22.8991 C   0  0  0  0  0  0  0  0  0  0  0  0
  -19.1752  -29.5929   23.0091 C   0  0  0  0  0  0  0  0  0  0  0  0
  -21.1973  -28.3491   16.5877 C   0  0  0  0  0  0  0  0  0  0  0  0
  -29.6798  -21.2619   21.2503 C   0  0  0  0  0  0  0  0  0  0  0  0
  -27.3609  -25.1197   20.3950 C   0  0  0  0  0  0  0  0  0  1  0  0
  -21.0249  -28.6625   21.5583 C   0  0  1  0  0  0  0  0  0  0  0  0
  -19.3838  -27.8651   18.2355 C   0  0  2  0  0  0  0  0  0  0  0  0
  -20.2458  -28.4863   22.8923 C   0  0  0  0  0  0  0  0  0  0  0  0
  -25.2411  -13.1823   21.7880 N   0  0  0  0  0  0  0  0  0  0  0  0
  -26.3418  -12.9402   21.0558 N   0  0  0  0  0  0  0  0  0  0  0  0
  -23.1705  -29.8779   21.3513 N   0  0  0  0  0  0  0  0  0  0  0  0
  -29.0559  -14.2841   23.3819 N   0  0  0  0  0  0  0  0  0  0  0  0
  -27.0696  -12.3045   18.8932 N   0  0  0  0  0  0  0  0  0  0  0  0
  -23.6606  -13.3162   17.5706 N   0  0  0  0  0  0  0  0  0  0  0  0
  -29.3330  -16.5358   22.7377 N   0  0  0  0  0  0  0  0  0  0  0  0
  -25.1803  -32.2744   23.2258 N   0  0  0  0  0  0  0  0  0  0  0  0
  -20.1848  -28.6235   20.3661 N   0  0  0  0  0  0  0  0  0  0  0  0
  -28.5545  -21.3980   20.2620 N   0  3  1  0  0  0  0  0  0  0  0  0
  -20.0100  -27.5232   16.9272 N   0  3  0  0  0  0  0  0  0  0  0  0
  -23.5776  -11.1137   18.2037 O   0  0  0  0  0  0  0  0  0  0  0  0
  -24.1802  -30.2200   23.6749 O   0  0  0  0  0  0  0  0  0  0  0  0
  -21.1566  -31.0308   21.5783 O   0  0  0  0  0  0  0  0  0  0  0  0
  -21.2674  -26.8422   19.3503 O   0  0  0  0  0  0  0  0  0  0  0  0
  -30.9908  -15.4274   23.9230 O   0  0  0  0  0  0  0  0  0  0  0  0
  -18.9312  -13.5929   22.5385 O   0  0  0  0  0  0  0  0  0  0  0  0
  -28.0245  -26.3194   19.9990 O   0  0  0  0  0  0  0  0  0  1  0  0
  -16.7471   -9.6602   25.7271 F   0  0  0  0  0  0  0  0  0  0  0  0
  -31.7775  -16.0444   21.5337 F   0  0  0  0  0  0  0  0  0  0  0  0
  -16.7126  -12.1659   21.7114 F   0  0  0  0  0  0  0  0  0  0  0  0
  1  2  1  0  0  0  0
  1  5  2  0  0  0  0
  2  6  2  0  0  0  0
  3  9  2  0  0  0  0
  3 17  1  0  0  0  0
  4 10  1  0  0  0  0
  4 17  2  0  0  0  0
  5 19  1  0  0  0  0
  6 21  1  0  0  0  0
  7 11  2  0  0  0  0
  7 20  1  0  0  0  0
  8 13  2  0  0  0  0
  8 23  1  0  0  0  0
  9 26  1  0  0  0  0
 10 26  2  0  0  0  0
 11 27  1  0  0  0  0
 12 14  2  0  0  0  0
 12 28  1  0  0  0  0
 13 30  1  0  0  0  0
 14 29  1  0  0  0  0
 15 22  1  0  0  0  0
 15 27  2  0  0  0  0
 16 29  2  0  0  0  0
 16 31  1  0  0  0  0
 17 32  1  0  0  0  0
 18 32  1  0  0  0  0
 18 33  2  0  0  0  0
 18 36  1  0  0  0  0
 19 21  2  0  0  0  0
 19 41  1  0  0  0  0
 20 22  2  0  0  0  0
 20 42  1  0  0  0  0
 21 53  1  0  0  0  0
 22 43  1  0  0  0  0
 23 24  2  0  0  0  0
 23 63  1  0  0  0  0
 24 25  1  0  0  0  0
 24 57  1  0  0  0  0
 25 30  2  0  0  0  0
 25 74  1  0  0  0  0
 26 84  1  0  0  0  0
 27 85  1  0  0  0  0
 28 31  2  0  0  0  0
 28 84  1  0  0  0  0
 29 86  1  0  0  0  0
 30 87  1  0  0  0  0
 31 88  1  0  0  0  0
 32 68  2  0  0  0  0
 33 69  1  0  0  0  0
 33 72  1  0  0  0  0
 34 35  2  0  0  0  0
 34 54  1  0  0  0  0
 34 77  1  0  0  0  0
 36 73  1  0  0  0  0
 36 79  2  0  0  0  0
 37 55  1  0  0  0  0
 37 75  1  0  0  0  0
 37 80  2  0  0  0  0
 38 65  1  0  0  0  0
 38 70  1  0  0  0  0
 38 81  2  0  0  0  0
 39 66  1  0  0  0  0
 39 76  1  0  0  0  0
 39 82  2  0  0  0  0
 40 71  1  0  0  0  0
 40 74  1  0  0  0  0
 40 83  2  0  0  0  0
 41 44  1  0  0  0  0
 42 55  1  0  0  0  0
 43 70  1  0  0  0  0
 44 47  1  0  0  0  0
 45 49  1  0  0  0  0
 45 50  1  0  0  0  0
 46 48  1  0  0  0  0
 46 52  1  0  0  0  0
 47 53  1  0  0  0  0
 48 54  1  0  0  0  0
 49 56  1  0  0  0  0
 50 71  1  0  0  0  0
 51 56  1  0  0  0  0
 51 71  1  0  0  0  0
 52 77  1  0  0  0  0
 53 75  1  0  0  0  0
 54 64  1  0  0  0  0
 55 70  1  0  0  0  0
 56 69  1  0  0  0  0
 58 66  1  0  0  0  0
 59 67  1  0  0  0  0
 60 67  1  0  0  0  0
 61 67  1  0  0  0  0
 62 78  1  0  0  0  0
 63 77  1  0  0  0  0
 64 85  1  0  0  0  0
 65 67  1  0  0  0  0
 65 76  1  0  0  0  0
 66 78  1  0  0  0  0
 68 69  1  0  0  0  0
M  CHG  2  77   1  78   1
M  ISO  4  40 100  64 101  74 100  85 101
M  END
> <Batch ID>
0030

> <Smiles>
C=C1C([101CH2:1][101O:1]c2ccc3c(c2)CN(C(=O)C(NC(=O)C(C)NC)C(C)(C)C)C(C(=O)NC2CCCc4ccccc42)C3)CCCN1Cc1ccc(F)c([100NH:0][100C:0](=O)N2CCCC(n3nc(-c4ccc(Oc5ccc(F)cc5F)cc4)c(C(N)=O)c3N)C2)c1C

> <Shape>
0.284

> <Color>
0.062

> <Negative vol penalty>
0.000

$$$$

  -OEChem-04042321363D

 85 94  0     1  0  0  0  0  0999 V2000
  -19.4502  -11.4548   20.5800 C   0  0  0  0  0  0  0  0  0  0  0  0
  -19.7812  -12.6680   21.1749 C   0  0  0  0  0  0  0  0  0  0  0  0
  -22.4457  -29.2097   22.0301 C   0  0  0  0  0  0  0  0  0  0  0  0
  -23.1646  -27.7245   23.7949 C   0  0  0  0  0  0  0  0  0  0  0  0
  -20.4396  -10.5000   20.3491 C   0  0  0  0  0  0  0  0  0  0  0  0
  -21.1018  -12.9268   21.5402 C   0  0  0  0  0  0  0  0  0  0  0  0
  -23.9724  -18.3343   21.3850 C   0  0  0  0  0  0  0  0  0  0  0  0
  -29.9913  -22.9374   25.9423 C   0  0  0  0  0  0  0  0  0  0  0  0
  -21.1211  -28.8345   22.2538 C   0  0  0  0  0  0  0  0  0  0  0  0
  -21.8399  -27.3492   24.0186 C   0  0  0  0  0  0  0  0  0  0  0  0
  -24.2391  -19.2833   22.3710 C   0  0  0  0  0  0  0  0  0  0  0  0
  -18.6693  -29.5513   24.4692 C   0  0  0  0  0  0  0  0  0  0  0  0
  -17.7087  -30.5615   24.5171 C   0  0  0  0  0  0  0  0  0  0  0  0
  -31.0527  -23.8010   25.6717 C   0  0  0  0  0  0  0  0  0  0  0  0
  -26.4338  -18.3323   22.6842 C   0  0  0  0  0  0  0  0  0  0  0  0
  -16.5524  -29.5505   22.6522 C   0  0  0  0  0  0  0  0  0  0  0  0
  -23.4675  -28.6546   22.8006 C   0  0  0  0  0  0  0  0  0  0  0  0
  -25.5341  -30.1018   23.1779 C   0  0  0  0  0  0  0  0  0  0  0  0
  -21.7747  -10.7511   20.7030 C   0  0  0  0  0  0  0  0  0  0  0  0
  -24.9320  -17.3687   21.0484 C   0  0  0  0  0  0  0  0  0  0  0  0
  -22.1098  -11.9740   21.3151 C   0  0  0  0  0  0  0  0  0  0  0  0
  -26.1778  -17.3738   21.6918 C   0  0  0  0  0  0  0  0  0  0  0  0
  -29.4752  -22.8330   23.5843 C   0  0  0  0  0  0  0  0  0  0  0  0
  -30.5366  -23.6967   23.3138 C   0  0  0  0  0  0  0  0  0  0  0  0
  -29.2026  -22.4533   24.8986 C   0  0  0  0  0  0  0  0  0  0  0  0
  -20.8181  -27.9043   23.2481 C   0  0  0  0  0  0  0  0  0  0  0  0
  -25.4689  -19.2807   23.0227 C   0  0  0  0  0  0  0  0  0  0  0  0
  -18.5715  -28.5407   23.5127 C   0  0  0  0  0  0  0  0  0  0  0  0
  -16.6502  -30.5611   23.6087 C   0  0  0  0  0  0  0  0  0  0  0  0
  -17.5131  -28.5403   22.6042 C   0  0  0  0  0  0  0  0  0  0  0  0
  -31.3253  -24.1807   24.3575 C   0  0  0  0  0  0  0  0  0  0  0  0
  -24.8361  -29.0414   22.5695 C   0  0  0  0  0  0  0  0  0  0  0  0
  -26.7897  -30.0493   22.6235 C   0  0  0  0  0  0  0  0  0  0  0  0
  -25.0876  -31.0495   24.1568 C   0  0  0  0  0  0  0  0  0  0  0  0
  -25.0592  -14.1950   21.1701 C   0  0  0  0  0  0  0  0  0  0  0  0
  -27.8804  -14.6379   19.6316 C   0  0  0  0  0  0  0  0  0  0  0  0
  -30.5039  -16.7043   18.9288 C   0  0  0  0  0  0  0  0  0  0  0  0
  -29.9677  -25.6250   20.1383 C   0  0  0  0  0  0  0  0  0  0  0  0
  -22.8013   -9.6696   20.4768 C   0  0  0  0  0  0  0  0  0  0  0  0
  -24.6388  -16.3686   19.9639 C   0  0  0  0  0  0  0  0  0  0  0  0
  -27.2494  -16.3712   21.3530 C   0  0  0  0  0  0  0  0  0  0  0  0
  -24.2411  -10.1713   20.5517 C   0  0  0  0  0  0  0  0  0  0  0  0
  -29.0672  -28.7222   18.6307 C   0  0  0  0  0  0  0  0  0  0  0  0
  -24.4335  -11.0607   21.7759 C   0  0  0  0  0  0  0  0  0  0  0  0
  -27.9437  -29.2509   19.5241 C   0  0  0  0  0  0  0  0  0  0  0  0
  -26.3247  -20.6157   26.2916 C   0  0  0  0  0  0  0  0  0  0  0  0
  -29.0072  -27.2030   18.4880 C   0  0  0  0  0  0  0  0  0  0  0  0
  -27.0338  -21.9482   26.0501 C   0  0  0  0  0  0  0  0  0  0  0  0
  -27.8550  -26.9905   20.6562 C   0  0  0  0  0  0  0  0  0  0  0  0
  -28.0421  -20.2402   24.6584 C   0  0  0  0  0  0  0  0  0  0  0  0
  -23.5354  -12.3016   21.7029 C   0  0  1  0  0  0  0  0  0  0  0  0
  -25.4972  -15.1113   20.0627 C   0  0  1  0  0  0  0  0  0  0  0  0
  -27.9073  -28.5122   20.8755 C   0  0  2  0  0  0  0  0  0  0  0  0
  -26.6202  -19.8203   25.0284 C   0  0  2  0  0  0  0  0  0  1  0  0
  -28.6281  -22.3139   22.4644 C   0  0  0  0  0  0  0  0  0  0  0  0
  -32.6760  -16.7732   17.6738 C   0  0  0  0  0  0  0  0  0  0  0  0
  -29.1904  -12.9516   21.8111 C   0  0  0  0  0  0  0  0  0  0  0  0
  -31.4106  -13.8334   21.0617 C   0  0  0  0  0  0  0  0  0  0  0  0
  -30.0128  -12.4855   19.4957 C   0  0  0  0  0  0  0  0  0  0  0  0
  -29.5714  -18.9222   17.2054 C   0  0  0  0  0  0  0  0  0  0  0  0
  -30.8178  -24.0959   21.8986 C   0  0  0  0  0  0  0  0  0  0  0  0
  -29.3119  -14.8476   20.0628 C   0  0  1  0  0  0  0  0  0  0  0  0
  -31.1834  -17.0596   17.6186 C   0  0  2  0  0  0  0  0  0  0  0  0
  -29.9607  -13.5473   20.6158 C   0  0  0  0  0  0  0  0  0  0  0  0
  -25.5859  -28.3649   21.6954 N   0  0  0  0  0  0  0  0  0  0  0  0
  -26.7681  -29.0017   21.7505 N   0  0  0  0  0  0  0  0  0  0  0  0
  -28.1582  -21.6000   25.1866 N   0  0  3  0  0  0  0  0  0  0  0  0
  -26.9126  -15.4097   20.2901 N   0  0  0  0  0  0  0  0  0  0  0  0
  -28.9766  -26.5630   19.8053 N   0  0  0  0  0  0  0  0  0  0  0  0
  -27.8989  -30.7976   22.8024 N   0  0  0  0  0  0  0  0  0  0  0  0
  -23.7674  -30.9609   24.6189 N   0  0  0  0  0  0  0  0  0  0  0  0
  -24.0959  -13.2784   20.7940 N   0  0  0  0  0  0  0  0  0  0  0  0
  -30.0049  -15.4190   18.9132 N   0  0  0  0  0  0  0  0  0  0  0  0
  -29.8688  -25.0706   21.4086 N   0  0  0  0  0  0  0  0  0  0  0  0
  -30.9934  -18.5056   17.3120 N   0  3  0  0  0  0  0  0  0  0  0  0
  -25.8321  -31.9584   24.5961 O   0  0  0  0  0  0  0  0  0  0  0  0
  -25.5593  -14.3101   22.2829 O   0  0  0  0  0  0  0  0  0  0  0  0
  -27.6308  -13.8247   18.7382 O   0  0  0  0  0  0  0  0  0  0  0  0
  -30.4270  -17.4873   19.8730 O   0  0  0  0  0  0  0  0  0  0  0  0
  -30.8768  -25.3092   19.3631 O   0  0  0  0  0  0  0  0  0  0  0  0
  -19.5256  -27.5381   23.4669 O   0  0  0  0  0  0  0  0  0  0  0  0
  -25.7315  -20.2054   23.9859 O   0  0  0  0  0  0  0  0  0  1  0  0
  -15.7269  -31.5304   23.6558 F   0  0  0  0  0  0  0  0  0  0  0  0
  -17.4132  -27.5714   21.6839 F   0  0  0  0  0  0  0  0  0  0  0  0
  -32.6491  -25.2501   24.0657 Cl  0  0  0  0  0  0  0  0  0  0  0  0
  1  2  1  0  0  0  0
  1  5  2  0  0  0  0
  2  6  2  0  0  0  0
  3  9  2  0  0  0  0
  3 17  1  0  0  0  0
  4 10  1  0  0  0  0
  4 17  2  0  0  0  0
  5 19  1  0  0  0  0
  6 21  1  0  0  0  0
  7 11  2  0  0  0  0
  7 20  1  0  0  0  0
  8 14  2  0  0  0  0
  8 25  1  0  0  0  0
  9 26  1  0  0  0  0
 10 26  2  0  0  0  0
 11 27  1  0  0  0  0
 12 13  2  0  0  0  0
 12 28  1  0  0  0  0
 13 29  1  0  0  0  0
 14 31  1  0  0  0  0
 15 22  1  0  0  0  0
 15 27  2  0  0  0  0
 16 29  2  0  0  0  0
 16 30  1  0  0  0  0
 17 32  1  0  0  0  0
 18 32  1  0  0  0  0
 18 33  2  0  0  0  0
 18 34  1  0  0  0  0
 19 21  2  0  0  0  0
 19 39  1  0  0  0  0
 20 22  2  0  0  0  0
 20 40  1  0  0  0  0
 21 51  1  0  0  0  0
 22 41  1  0  0  0  0
 23 24  1  0  0  0  0
 23 25  2  0  0  0  0
 23 55  1  0  0  0  0
 24 31  2  0  0  0  0
 24 61  1  0  0  0  0
 25 67  1  0  0  0  0
 26 81  1  0  0  0  0
 27 82  1  0  0  0  0
 28 30  2  0  0  0  0
 28 81  1  0  0  0  0
 29 83  1  0  0  0  0
 30 84  1  0  0  0  0
 31 85  1  0  0  0  0
 32 65  2  0  0  0  0
 33 66  1  0  0  0  0
 33 70  1  0  0  0  0
 34 71  1  0  0  0  0
 34 76  2  0  0  0  0
 35 52  1  0  0  0  0
 35 72  1  0  0  0  0
 35 77  2  0  0  0  0
 36 62  1  0  0  0  0
 36 68  1  0  0  0  0
 36 78  2  0  0  0  0
 37 63  1  0  0  0  0
 37 73  1  0  0  0  0
 37 79  2  0  0  0  0
 38 69  1  0  0  0  0
 38 74  1  0  0  0  0
 38 80  2  0  0  0  0
 39 42  1  0  0  0  0
 40 52  1  0  0  0  0
 41 68  1  0  0  0  0
 42 44  1  0  0  0  0
 43 45  1  0  0  0  0
 43 47  1  0  0  0  0
 44 51  1  0  0  0  0
 45 53  1  0  0  0  0
 46 48  1  0  0  0  0
 46 54  1  0  0  0  0
 47 69  1  0  0  0  0
 48 67  1  0  0  0  0
 49 53  1  0  0  0  0
 49 69  1  0  0  0  0
 50 54  1  0  0  0  0
 50 67  1  0  0  0  0
 51 72  1  0  0  0  0
 52 68  1  0  0  0  0
 53 66  1  0  0  0  0
 54 82  1  0  0  0  0
 56 63  1  0  0  0  0
 57 64  1  0  0  0  0
 58 64  1  0  0  0  0
 59 64  1  0  0  0  0
 60 75  1  0  0  0  0
 61 74  1  0  0  0  0
 62 64  1  0  0  0  0
 62 73  1  0  0  0  0
 63 75  1  0  0  0  0
 65 66  1  0  0  0  0
M  CHG  1  75   1
M  ISO  4  38 100  54 101  74 100  82 101
M  END
> <Batch ID>
0030

> <Smiles>
CNC(C)C(=O)NC(C(=O)N1Cc2cc([101O:1][101CH:1]3CCN(c4ccc(Cl)c(C[100NH:0][100C:0](=O)N5CCCC(n6nc(-c7ccc(Oc8ccc(F)cc8F)cc7)c(C(N)=O)c6N)C5)c4C)C3)ccc2CC1C(=O)NC1CCCc2ccccc21)C(C)(C)C

> <Shape>
0.265

> <Color>
0.057

> <Negative vol penalty>
0.000

$$$$

  -OEChem-04042321363D

 84 93  0     1  0  0  0  0  0999 V2000
  -16.3393  -26.1680   23.8363 C   0  0  0  0  0  0  0  0  0  0  0  0
  -17.4283  -25.9173   23.0077 C   0  0  0  0  0  0  0  0  0  0  0  0
  -22.9564  -10.1956   20.3808 C   0  0  0  0  0  0  0  0  0  0  0  0
  -24.4990   -9.1346   21.9078 C   0  0  0  0  0  0  0  0  0  0  0  0
  -16.0508  -27.4739   24.2305 C   0  0  0  0  0  0  0  0  0  0  0  0
  -18.2289  -26.9725   22.5720 C   0  0  0  0  0  0  0  0  0  0  0  0
  -23.1729  -25.9329   22.9211 C   0  0  0  0  0  0  0  0  0  0  0  0
  -22.0912   -9.1080   20.4990 C   0  0  0  0  0  0  0  0  0  0  0  0
  -23.6337   -8.0469   22.0261 C   0  0  0  0  0  0  0  0  0  0  0  0
  -23.7232  -25.1171   21.9336 C   0  0  0  0  0  0  0  0  0  0  0  0
  -20.7837   -7.3020   23.6823 C   0  0  0  0  0  0  0  0  0  0  0  0
  -20.5418   -6.8046   24.9628 C   0  0  0  0  0  0  0  0  0  0  0  0
  -24.5903  -27.0692   20.8125 C   0  0  0  0  0  0  0  0  0  0  0  0
  -25.8446  -20.5263   17.0580 C   0  0  0  0  0  0  0  0  0  0  0  0
  -26.4237  -19.9616   19.3346 C   0  0  0  0  0  0  0  0  0  0  0  0
  -21.4231   -4.6565   24.2948 C   0  0  0  0  0  0  0  0  0  0  0  0
  -24.1604  -10.2089   21.0851 C   0  0  0  0  0  0  0  0  0  0  0  0
  -27.3267  -18.6709   17.5027 C   0  0  0  0  0  0  0  0  0  0  0  0
  -25.0715  -12.4955   21.7550 C   0  0  0  0  0  0  0  0  0  0  0  0
  -16.8540  -28.5445   23.8072 C   0  0  0  0  0  0  0  0  0  0  0  0
  -23.3180  -27.3262   22.8558 C   0  0  0  0  0  0  0  0  0  0  0  0
  -17.9501  -28.2941   22.9598 C   0  0  0  0  0  0  0  0  0  0  0  0
  -24.0430  -27.9003   21.8019 C   0  0  0  0  0  0  0  0  0  0  0  0
  -26.6397  -19.4777   16.5956 C   0  0  0  0  0  0  0  0  0  0  0  0
  -25.7366  -20.7683   18.4275 C   0  0  0  0  0  0  0  0  0  0  0  0
  -22.4298   -8.0337   21.3217 C   0  0  0  0  0  0  0  0  0  0  0  0
  -24.4296  -25.6853   20.8775 C   0  0  0  0  0  0  0  0  0  0  0  0
  -21.3453   -6.4767   22.7080 C   0  0  0  0  0  0  0  0  0  0  0  0
  -20.8615   -5.4819   25.2690 C   0  0  0  0  0  0  0  0  0  0  0  0
  -21.6650   -5.1540   23.0143 C   0  0  0  0  0  0  0  0  0  0  0  0
  -27.2187  -18.9129   18.8722 C   0  0  0  0  0  0  0  0  0  0  0  0
  -25.0549  -11.3319   20.9629 C   0  0  0  0  0  0  0  0  0  0  0  0
  -26.0995  -13.2468   21.2399 C   0  0  0  0  0  0  0  0  0  0  0  0
  -28.1618  -17.5678   16.9952 C   0  0  0  0  0  0  0  0  0  0  0  0
  -24.2328  -12.8643   22.8579 C   0  0  0  0  0  0  0  0  0  0  0  0
  -21.3142  -29.7809   22.6052 C   0  0  0  0  0  0  0  0  0  0  0  0
  -24.0169  -31.5265   23.0177 C   0  0  0  0  0  0  0  0  0  0  0  0
  -27.4161  -31.7056   22.7716 C   0  0  0  0  0  0  0  0  0  0  0  0
  -28.7616  -15.3548   16.8102 C   0  0  0  0  0  0  0  0  0  0  0  0
  -16.4747  -29.9444   24.2210 C   0  0  0  0  0  0  0  0  0  0  0  0
  -22.7411  -28.1905   23.9433 C   0  0  0  0  0  0  0  0  0  0  0  0
  -24.2446  -29.3892   21.6966 C   0  0  0  0  0  0  0  0  0  0  0  0
  -17.5936  -30.9632   24.0197 C   0  0  0  0  0  0  0  0  0  0  0  0
  -29.7202  -12.0614   17.9234 C   0  0  0  0  0  0  0  0  0  0  0  0
  -18.2244  -30.7978   22.6407 C   0  0  0  0  0  0  0  0  0  0  0  0
  -28.5734  -11.6613   18.8515 C   0  0  0  0  0  0  0  0  0  0  0  0
  -29.2247  -12.9041   16.7522 C   0  0  0  0  0  0  0  0  0  0  0  0
  -27.3064  -13.7208   18.0946 C   0  0  0  0  0  0  0  0  0  0  0  0
  -24.6677  -23.0363   18.2173 C   0  0  0  0  0  0  0  0  0  0  0  0
  -24.9425  -22.3729   20.1953 C   0  0  0  0  0  0  0  0  0  0  0  0
  -18.8568  -29.4094   22.4863 C   0  0  1  0  0  0  0  0  0  0  0  0
  -22.5109  -29.6325   23.5015 C   0  0  1  0  0  0  0  0  0  0  0  0
  -27.7735  -12.8953   19.3056 C   0  0  1  0  0  0  0  0  0  0  0  0
  -24.3214  -23.6383   19.5864 C   0  0  0  0  0  0  0  0  0  1  0  0
  -26.7343  -19.2448   15.1224 C   0  0  0  0  0  0  0  0  0  0  0  0
  -29.3384  -33.2744   23.1469 C   0  0  0  0  0  0  0  0  0  0  0  0
  -23.2882  -33.0270   20.4628 C   0  0  0  0  0  0  0  0  0  0  0  0
  -25.6415  -33.8768   20.3735 C   0  0  0  0  0  0  0  0  0  0  0  0
  -24.1755  -34.4697   22.3028 C   0  0  0  0  0  0  0  0  0  0  0  0
  -28.6410  -29.9091   24.7794 C   0  0  0  0  0  0  0  0  0  0  0  0
  -25.0627  -32.1110   22.0992 C   0  0  1  0  0  0  0  0  0  0  0  0
  -28.4734  -32.1797   23.7522 C   0  0  2  0  0  0  0  0  0  0  0  0
  -24.5367  -33.3431   21.3103 C   0  0  0  0  0  0  0  0  0  0  0  0
  -25.9973  -11.3388   20.0165 N   0  0  0  0  0  0  0  0  0  0  0  0
  -27.9368  -16.3377   17.3232 N   0  0  0  0  0  0  0  0  0  0  0  0
  -26.6157  -12.5161   20.2105 N   0  0  0  0  0  0  0  0  0  0  0  0
  -24.9440  -21.8137   18.8882 N   0  0  0  0  0  0  0  0  0  0  0  0
  -23.6561  -30.1925   22.7810 N   0  0  0  0  0  0  0  0  0  0  0  0
  -28.4414  -14.0479   17.2213 N   0  0  0  0  0  0  0  0  0  0  0  0
  -26.6031  -14.4546   21.5716 N   0  0  0  0  0  0  0  0  0  0  0  0
  -23.2251  -11.9759   23.2573 N   0  0  0  0  0  0  0  0  0  0  0  0
  -20.1291  -29.3543   23.1737 N   0  0  0  0  0  0  0  0  0  0  0  0
  -26.2284  -32.3877   22.9317 N   0  0  0  0  0  0  0  0  0  0  0  0
  -29.3575  -31.0473   24.1483 N   0  3  0  0  0  0  0  0  0  0  0  0
  -24.3622  -13.9569   23.4605 O   0  0  0  0  0  0  0  0  0  0  0  0
  -21.4552  -30.2492   21.4816 O   0  0  0  0  0  0  0  0  0  0  0  0
  -23.5429  -32.2256   23.9168 O   0  0  0  0  0  0  0  0  0  0  0  0
  -27.6241  -30.8214   21.9436 O   0  0  0  0  0  0  0  0  0  0  0  0
  -29.7048  -15.5778   16.0475 O   0  0  0  0  0  0  0  0  0  0  0  0
  -21.5856   -6.9723   21.4375 O   0  0  0  0  0  0  0  0  0  0  0  0
  -24.9673  -24.8914   19.9119 O   0  0  0  0  0  0  0  0  0  1  0  0
  -20.6305   -5.0048   26.4992 F   0  0  0  0  0  0  0  0  0  0  0  0
  -22.2058   -4.3566   22.0828 F   0  0  0  0  0  0  0  0  0  0  0  0
  -28.0514  -17.9398   20.0319 Cl  0  0  0  0  0  0  0  0  0  0  0  0
  1  2  1  0  0  0  0
  1  5  2  0  0  0  0
  2  6  2  0  0  0  0
  3  8  2  0  0  0  0
  3 17  1  0  0  0  0
  4  9  1  0  0  0  0
  4 17  2  0  0  0  0
  5 20  1  0  0  0  0
  6 22  1  0  0  0  0
  7 10  2  0  0  0  0
  7 21  1  0  0  0  0
  8 26  1  0  0  0  0
  9 26  2  0  0  0  0
 10 27  1  0  0  0  0
 11 12  2  0  0  0  0
 11 28  1  0  0  0  0
 12 29  1  0  0  0  0
 13 23  1  0  0  0  0
 13 27  2  0  0  0  0
 14 24  2  0  0  0  0
 14 25  1  0  0  0  0
 15 25  2  0  0  0  0
 15 31  1  0  0  0  0
 16 29  2  0  0  0  0
 16 30  1  0  0  0  0
 17 32  1  0  0  0  0
 18 24  1  0  0  0  0
 18 31  2  0  0  0  0
 18 34  1  0  0  0  0
 19 32  1  0  0  0  0
 19 33  2  0  0  0  0
 19 35  1  0  0  0  0
 20 22  2  0  0  0  0
 20 40  1  0  0  0  0
 21 23  2  0  0  0  0
 21 41  1  0  0  0  0
 22 51  1  0  0  0  0
 23 42  1  0  0  0  0
 24 55  1  0  0  0  0
 25 67  1  0  0  0  0
 26 80  1  0  0  0  0
 27 81  1  0  0  0  0
 28 30  2  0  0  0  0
 28 80  1  0  0  0  0
 29 82  1  0  0  0  0
 30 83  1  0  0  0  0
 31 84  1  0  0  0  0
 32 64  2  0  0  0  0
 33 66  1  0  0  0  0
 33 70  1  0  0  0  0
 34 65  2  0  0  0  0
 35 71  1  0  0  0  0
 35 75  2  0  0  0  0
 36 52  1  0  0  0  0
 36 72  1  0  0  0  0
 36 76  2  0  0  0  0
 37 61  1  0  0  0  0
 37 68  1  0  0  0  0
 37 77  2  0  0  0  0
 38 62  1  0  0  0  0
 38 73  1  0  0  0  0
 38 78  2  0  0  0  0
 39 65  1  0  0  0  0
 39 69  1  0  0  0  0
 39 79  2  0  0  0  0
 40 43  1  0  0  0  0
 41 52  1  0  0  0  0
 42 68  1  0  0  0  0
 43 45  1  0  0  0  0
 44 46  1  0  0  0  0
 44 47  1  0  0  0  0
 45 51  1  0  0  0  0
 46 53  1  0  0  0  0
 47 69  1  0  0  0  0
 48 53  1  0  0  0  0
 48 69  1  0  0  0  0
 49 54  1  0  0  0  0
 49 67  1  0  0  0  0
 50 54  1  0  0  0  0
 50 67  1  0  0  0  0
 51 72  1  0  0  0  0
 52 68  1  0  0  0  0
 53 66  1  0  0  0  0
 54 81  1  0  0  0  0
 56 62  1  0  0  0  0
 57 63  1  0  0  0  0
 58 63  1  0  0  0  0
 59 63  1  0  0  0  0
 60 74  1  0  0  0  0
 61 63  1  0  0  0  0
 61 73  1  0  0  0  0
 62 74  1  0  0  0  0
 64 66  1  0  0  0  0
M  CHG  1  74   1
M  ISO  4  39 100  54 101  65 100  81 101
M  END
> <Batch ID>
0030

> <Smiles>
CNC(C)C(=O)NC(C(=O)N1Cc2cc([101O:1][101CH:1]3CN(c4cc(C)c(C=[100N:0][100C:0](=O)N5CCCC(n6nc(-c7ccc(Oc8ccc(F)cc8F)cc7)c(C(N)=O)c6N)C5)c(Cl)c4)C3)ccc2CC1C(=O)NC1CCCc2ccccc21)C(C)(C)C

> <Shape>
0.280

> <Color>
0.114

> <Negative vol penalty>
0.000

$$$$

  -OEChem-04042321363D

 83 91  0     1  0  0  0  0  0999 V2000
  -27.1941  -36.7013   24.4186 C   0  0  0  0  0  0  0  0  0  0  0  0
  -27.6321  -35.3888   24.5628 C   0  0  0  0  0  0  0  0  0  0  0  0
  -23.6829  -10.0420   21.8248 C   0  0  0  0  0  0  0  0  0  0  0  0
  -21.8543  -10.4823   20.3085 C   0  0  0  0  0  0  0  0  0  0  0  0
  -25.8322  -36.9704   24.2895 C   0  0  0  0  0  0  0  0  0  0  0  0
  -26.7081  -34.3445   24.5790 C   0  0  0  0  0  0  0  0  0  0  0  0
  -27.0517  -29.0137   19.7462 C   0  0  0  0  0  0  0  0  0  0  0  0
  -23.3136   -8.6981   21.8800 C   0  0  0  0  0  0  0  0  0  0  0  0
  -21.4850   -9.1384   20.3636 C   0  0  0  0  0  0  0  0  0  0  0  0
  -27.1771  -27.8492   18.9883 C   0  0  0  0  0  0  0  0  0  0  0  0
  -20.9771   -6.8196   23.4408 C   0  0  0  0  0  0  0  0  0  0  0  0
  -20.9440   -6.2083   24.6941 C   0  0  0  0  0  0  0  0  0  0  0  0
  -25.1614  -26.9666   19.9913 C   0  0  0  0  0  0  0  0  0  0  0  0
  -22.6005   -4.6107   23.9586 C   0  0  0  0  0  0  0  0  0  0  0  0
  -22.9532  -10.9342   21.0391 C   0  0  0  0  0  0  0  0  0  0  0  0
  -24.5640  -12.8497   20.5452 C   0  0  0  0  0  0  0  0  0  0  0  0
  -24.8919  -35.9281   24.2944 C   0  0  0  0  0  0  0  0  0  0  0  0
  -25.9709  -29.1657   20.6192 C   0  0  0  0  0  0  0  0  0  0  0  0
  -25.3322  -34.6000   24.4512 C   0  0  0  0  0  0  0  0  0  0  0  0
  -25.0237  -28.1361   20.7438 C   0  0  0  0  0  0  0  0  0  0  0  0
  -22.2147   -8.2463   21.1494 C   0  0  0  0  0  0  0  0  0  0  0  0
  -26.2344  -26.8281   19.1108 C   0  0  0  0  0  0  0  0  0  0  0  0
  -21.8218   -6.3264   22.4463 C   0  0  0  0  0  0  0  0  0  0  0  0
  -21.7557   -5.1039   24.9530 C   0  0  0  0  0  0  0  0  0  0  0  0
  -22.6335   -5.2220   22.7053 C   0  0  0  0  0  0  0  0  0  0  0  0
  -23.3339  -12.3227   20.9821 C   0  0  0  0  0  0  0  0  0  0  0  0
  -24.4244  -14.2088   20.6852 C   0  0  0  0  0  0  0  0  0  0  0  0
  -25.7287  -12.1712   20.0564 C   0  0  0  0  0  0  0  0  0  0  0  0
  -24.2062  -31.3460   23.1108 C   0  0  0  0  0  0  0  0  0  0  0  0
  -22.0381  -30.0300   21.3851 C   0  0  0  0  0  0  0  0  0  0  0  0
  -25.6589  -23.4874   17.6684 C   0  0  0  0  0  0  0  0  0  0  0  0
  -19.2065  -29.2757   19.6387 C   0  0  0  0  0  0  0  0  0  0  0  0
  -21.4318  -18.8812   20.0861 C   0  0  0  0  0  0  0  0  0  0  0  0
  -23.4265  -36.2719   24.1992 C   0  0  0  0  0  0  0  0  0  0  0  0
  -25.8293  -30.3769   21.5005 C   0  0  0  0  0  0  0  0  0  0  0  0
  -23.8965  -28.3288   21.7211 C   0  0  0  0  0  0  0  0  0  0  0  0
  -22.5420  -35.0777   23.8501 C   0  0  0  0  0  0  0  0  0  0  0  0
  -22.7879  -22.0510   15.6245 C   0  0  0  0  0  0  0  0  0  0  0  0
  -21.7442  -21.7430   16.6906 C   0  0  0  0  0  0  0  0  0  0  0  0
  -20.8465  -16.9292   23.0057 C   0  0  0  0  0  0  0  0  0  0  0  0
  -22.9138  -33.8702   24.7047 C   0  0  0  0  0  0  0  0  0  0  0  0
  -21.5372  -15.5989   22.7008 C   0  0  0  0  0  0  0  0  0  0  0  0
  -24.1281  -21.3308   15.7322 C   0  0  0  0  0  0  0  0  0  0  0  0
  -21.7549  -20.3139   17.2215 C   0  0  0  0  0  0  0  0  0  0  0  0
  -20.2017  -17.5293   21.7581 C   0  0  0  0  0  0  0  0  0  0  0  0
  -21.7982  -16.3480   20.2988 C   0  0  0  0  0  0  0  0  0  0  0  0
  -24.3627  -33.4381   24.4486 C   0  0  1  0  0  0  0  0  0  0  0  0
  -24.3642  -30.7917   21.7255 C   0  0  1  0  0  0  0  0  0  0  0  0
  -24.2386  -20.0357   17.9553 C   0  0  2  0  0  0  0  0  0  0  0  0
  -22.5112  -15.7317   21.5146 C   0  0  2  0  0  0  0  0  0  0  0  0
  -24.7605  -21.2354   17.1240 C   0  0  2  0  0  0  0  0  0  0  0  0
  -22.7488  -20.1011   18.3725 C   0  0  2  0  0  0  0  0  0  0  0  0
  -25.1395  -19.8379   19.1909 C   0  0  0  0  0  0  0  0  0  0  0  0
  -16.7195  -29.0778   19.9090 C   0  0  0  0  0  0  0  0  0  0  0  0
  -22.4110  -27.3735   22.8369 C   0  0  0  0  0  0  0  0  0  0  0  0
  -20.0502  -26.7952   22.2366 C   0  0  0  0  0  0  0  0  0  0  0  0
  -20.5185  -28.7704   23.6864 C   0  0  0  0  0  0  0  0  0  0  0  0
  -18.7031  -31.3856   17.6254 C   0  0  0  0  0  0  0  0  0  0  0  0
  -25.3624  -24.6907   18.5378 C   0  0  0  0  0  0  0  0  0  1  0  0
  -21.0747  -28.8816   21.2226 C   0  0  1  0  0  0  0  0  0  0  0  0
  -17.8727  -29.9914   19.5241 C   0  0  2  0  0  0  0  0  0  0  0  0
  -21.0325  -27.9617   22.4754 C   0  0  0  0  0  0  0  0  0  0  0  0
  -22.4761  -13.2698   21.3708 N   0  0  0  0  0  0  0  0  0  0  0  0
  -23.1682  -14.4057   21.1786 N   0  0  0  0  0  0  0  0  0  0  0  0
  -23.3780  -29.7024   21.6254 N   0  0  0  0  0  0  0  0  0  0  0  0
  -21.1788  -17.6295   20.6713 N   0  0  0  0  0  0  0  0  0  0  0  0
  -25.2549  -15.2429   20.4333 N   0  0  0  0  0  0  0  0  0  0  0  0
  -25.8321  -11.9284   18.6799 N   0  0  0  0  0  0  0  0  0  0  0  0
  -24.4583  -32.7012   23.2066 N   0  0  0  0  0  0  0  0  0  0  0  0
  -24.7114  -22.4894   17.8346 N   0  0  0  0  0  0  0  0  0  0  0  0
  -19.7883  -29.4743   20.8729 N   0  0  0  0  0  0  0  0  0  0  0  0
  -22.3764  -18.8888   19.0671 N   0  0  0  0  0  0  0  0  0  0  0  0
  -17.6547  -30.4600   18.1263 N   0  3  0  0  0  0  0  0  0  0  0  0
  -26.6428  -11.7771   20.8197 O   0  0  0  0  0  0  0  0  0  0  0  0
  -23.8781  -30.6002   24.0262 O   0  0  0  0  0  0  0  0  0  0  0  0
  -21.6159  -31.1871   21.3071 O   0  0  0  0  0  0  0  0  0  0  0  0
  -26.6298  -23.4325   16.9186 O   0  0  0  0  0  0  0  0  0  0  0  0
  -19.6826  -28.6042   18.7261 O   0  0  0  0  0  0  0  0  0  0  0  0
  -20.8622  -19.9161   20.4487 O   0  0  0  0  0  0  0  0  0  0  0  0
  -21.8541   -6.9349   21.2028 O   0  0  0  0  0  0  0  0  0  0  0  0
  -26.3604  -25.6959   18.3646 O   0  0  0  0  0  0  0  0  0  1  0  0
  -21.7249   -4.5179   26.1571 F   0  0  0  0  0  0  0  0  0  0  0  0
  -23.4480   -4.7444   21.7543 F   0  0  0  0  0  0  0  0  0  0  0  0
  1  2  1  0  0  0  0
  1  5  2  0  0  0  0
  2  6  2  0  0  0  0
  3  8  2  0  0  0  0
  3 15  1  0  0  0  0
  4  9  1  0  0  0  0
  4 15  2  0  0  0  0
  5 17  1  0  0  0  0
  6 19  1  0  0  0  0
  7 10  2  0  0  0  0
  7 18  1  0  0  0  0
  8 21  1  0  0  0  0
  9 21  2  0  0  0  0
 10 22  1  0  0  0  0
 11 12  2  0  0  0  0
 11 23  1  0  0  0  0
 12 24  1  0  0  0  0
 13 20  1  0  0  0  0
 13 22  2  0  0  0  0
 14 24  2  0  0  0  0
 14 25  1  0  0  0  0
 15 26  1  0  0  0  0
 16 26  1  0  0  0  0
 16 27  2  0  0  0  0
 16 28  1  0  0  0  0
 17 19  2  0  0  0  0
 17 34  1  0  0  0  0
 18 20  2  0  0  0  0
 18 35  1  0  0  0  0
 19 47  1  0  0  0  0
 20 36  1  0  0  0  0
 21 80  1  0  0  0  0
 22 81  1  0  0  0  0
 23 25  2  0  0  0  0
 23 80  1  0  0  0  0
 24 82  1  0  0  0  0
 25 83  1  0  0  0  0
 26 63  2  0  0  0  0
 27 64  1  0  0  0  0
 27 67  1  0  0  0  0
 28 68  1  0  0  0  0
 28 74  2  0  0  0  0
 29 48  1  0  0  0  0
 29 69  1  0  0  0  0
 29 75  2  0  0  0  0
 30 60  1  0  0  0  0
 30 65  1  0  0  0  0
 30 76  2  0  0  0  0
 31 59  1  0  0  0  0
 31 70  1  0  0  0  0
 31 77  2  0  0  0  0
 32 61  1  0  0  0  0
 32 71  1  0  0  0  0
 32 78  2  0  0  0  0
 33 66  1  0  0  0  0
 33 72  1  0  0  0  0
 33 79  2  0  0  0  0
 34 37  1  0  0  0  0
 35 48  1  0  0  0  0
 36 65  1  0  0  0  0
 37 41  1  0  0  0  0
 38 39  1  0  0  0  0
 38 43  1  0  0  0  0
 39 44  1  0  0  0  0
 40 42  1  0  0  0  0
 40 45  1  0  0  0  0
 41 47  1  0  0  0  0
 42 50  1  0  0  0  0
 43 51  1  0  0  0  0
 44 52  1  0  0  0  0
 45 66  1  0  0  0  0
 46 50  1  0  0  0  0
 46 66  1  0  0  0  0
 47 69  1  0  0  0  0
 48 65  1  0  0  0  0
 49 51  1  0  0  0  0
 49 52  1  0  0  0  0
 49 53  1  0  0  0  0
 50 64  1  0  0  0  0
 51 70  1  0  0  0  0
 52 72  1  0  0  0  0
 54 61  1  0  0  0  0
 55 62  1  0  0  0  0
 56 62  1  0  0  0  0
 57 62  1  0  0  0  0
 58 73  1  0  0  0  0
 59 81  1  0  0  0  0
 60 62  1  0  0  0  0
 60 71  1  0  0  0  0
 61 73  1  0  0  0  0
 63 64  1  0  0  0  0
M  CHG  1  73   1
M  ISO  4  33 100  59 101  72 100  81 101
M  END
> <Batch ID>
0030

> <Smiles>
CNC(C)C(=O)NC(C(=O)N1Cc2cc([101O:1][101CH2:1]C(=O)NC3CCCCC([100NH:0][100C:0](=O)N4CCCC(n5nc(-c6ccc(Oc7ccc(F)cc7F)cc6)c(C(N)=O)c5N)C4)C3C)ccc2CC1C(=O)NC1CCCc2ccccc21)C(C)(C)C

> <Shape>
0.278

> <Color>
0.131

> <Negative vol penalty>
0.000

$$$$

  -OEChem-04042321363D

 89 99  0     1  0  0  0  0  0999 V2000
  -25.2827  -24.7938   15.3772 C   0  0  0  0  0  0  0  0  0  0  0  0
  -24.4980  -25.1656   16.4642 C   0  0  0  0  0  0  0  0  0  0  0  0
  -28.0782  -17.5092   19.8191 C   0  0  0  0  0  0  0  0  0  0  0  0
  -26.1004  -17.4827   18.4318 C   0  0  0  0  0  0  0  0  0  0  0  0
  -26.6703  -24.9100   15.4484 C   0  0  0  0  0  0  0  0  0  0  0  0
  -25.1006  -25.6528   17.6234 C   0  0  0  0  0  0  0  0  0  0  0  0
  -22.7563  -29.7502   19.4566 C   0  0  0  0  0  0  0  0  0  0  0  0
  -28.4616  -16.2742   19.2962 C   0  0  0  0  0  0  0  0  0  0  0  0
  -26.4838  -16.2477   17.9088 C   0  0  0  0  0  0  0  0  0  0  0  0
  -21.5744  -29.5433   20.1666 C   0  0  0  0  0  0  0  0  0  0  0  0
  -29.7774  -12.9586   18.5899 C   0  0  0  0  0  0  0  0  0  0  0  0
  -30.2314  -11.9875   19.4823 C   0  0  0  0  0  0  0  0  0  0  0  0
  -22.7879  -29.7655   22.2396 C   0  0  0  0  0  0  0  0  0  0  0  0
  -15.2943  -21.3538   21.5966 C   0  0  0  0  0  0  0  0  0  0  0  0
  -17.5696  -20.9452   20.8943 C   0  0  0  0  0  0  0  0  0  0  0  0
  -28.1064  -12.0490   20.6303 C   0  0  0  0  0  0  0  0  0  0  0  0
  -26.8976  -18.1134   19.3869 C   0  0  0  0  0  0  0  0  0  0  0  0
  -27.2158  -20.5997   19.8611 C   0  0  0  0  0  0  0  0  0  0  0  0
  -27.2896  -25.4080   16.6056 C   0  0  0  0  0  0  0  0  0  0  0  0
  -23.9668  -29.9558   20.1339 C   0  0  0  0  0  0  0  0  0  0  0  0
  -26.4979  -25.7746   17.7106 C   0  0  0  0  0  0  0  0  0  0  0  0
  -23.9833  -29.9774   21.5358 C   0  0  0  0  0  0  0  0  0  0  0  0
  -15.7587  -22.1768   22.6225 C   0  0  0  0  0  0  0  0  0  0  0  0
  -17.1286  -22.3840   22.7843 C   0  0  0  0  0  0  0  0  0  0  0  0
  -18.0340  -21.7682   21.9202 C   0  0  0  0  0  0  0  0  0  0  0  0
  -27.6644  -15.6435   18.3411 C   0  0  0  0  0  0  0  0  0  0  0  0
  -21.5906  -29.5480   21.5583 C   0  0  0  0  0  0  0  0  0  0  0  0
  -28.4879  -13.4750   18.7177 C   0  0  0  0  0  0  0  0  0  0  0  0
  -29.3959  -11.5327   20.5025 C   0  0  0  0  0  0  0  0  0  0  0  0
  -27.6524  -13.0202   19.7379 C   0  0  0  0  0  0  0  0  0  0  0  0
  -16.1997  -20.7379   20.7325 C   0  0  0  0  0  0  0  0  0  0  0  0
  -26.5007  -19.3889   19.9271 C   0  0  0  0  0  0  0  0  0  0  0  0
  -26.4188  -21.5054   20.5176 C   0  0  0  0  0  0  0  0  0  0  0  0
  -28.4868  -20.8806   19.2601 C   0  0  0  0  0  0  0  0  0  0  0  0
  -26.7438  -28.4163   20.2824 C   0  0  0  0  0  0  0  0  0  0  0  0
  -27.6359  -30.9961   22.0348 C   0  0  0  0  0  0  0  0  0  0  0  0
  -26.1815  -33.0588   24.6130 C   0  0  0  0  0  0  0  0  0  0  0  0
  -20.4561  -21.4223   21.2888 C   0  0  0  0  0  0  0  0  0  0  0  0
  -28.7957  -25.4710   16.6530 C   0  0  0  0  0  0  0  0  0  0  0  0
  -25.2284  -30.2042   19.3534 C   0  0  0  0  0  0  0  0  0  0  0  0
  -25.2532  -30.2139   22.3104 C   0  0  0  0  0  0  0  0  0  0  0  0
  -29.3334  -26.3486   17.7804 C   0  0  0  0  0  0  0  0  0  0  0  0
  -23.1177  -20.9244   24.0076 C   0  0  0  0  0  0  0  0  0  0  0  0
  -28.6139  -26.0371   19.0888 C   0  0  0  0  0  0  0  0  0  0  0  0
  -24.3649  -21.3078   23.2146 C   0  0  0  0  0  0  0  0  0  0  0  0
  -17.0155  -26.9852   24.5559 C   0  0  0  0  0  0  0  0  0  0  0  0
  -19.3011  -27.9633   23.8902 C   0  0  0  0  0  0  0  0  0  0  0  0
  -19.2173  -27.3881   21.5010 C   0  0  0  0  0  0  0  0  0  0  0  0
  -21.8504  -21.5328   23.4205 C   0  0  0  0  0  0  0  0  0  0  0  0
  -22.8176  -20.6416   21.2930 C   0  0  0  0  0  0  0  0  0  0  0  0
  -17.3852  -25.5445   24.8805 C   0  0  0  0  0  0  0  0  0  0  0  0
  -18.4358  -25.2610   22.6289 C   0  0  0  0  0  0  0  0  0  0  0  0
  -27.1130  -26.3308   18.9765 C   0  0  1  0  0  0  0  0  0  0  0  0
  -26.4933  -29.8916   20.1470 C   0  0  1  0  0  0  0  0  0  0  0  0
  -17.8725  -27.6112   23.4594 C   0  0  1  0  0  0  0  0  0  0  0  0
  -18.0754  -26.6975   22.2482 C   0  0  1  0  0  0  0  0  0  0  0  0
  -24.1247  -21.3440   21.6923 C   0  0  2  0  0  0  0  0  0  0  0  0
  -20.1073  -28.0005   22.5883 C   0  0  1  0  0  0  0  0  0  1  0  0
  -14.7683  -22.8242   23.5339 C   0  0  0  0  0  0  0  0  0  0  0  0
  -26.6162  -35.4532   25.2257 C   0  0  0  0  0  0  0  0  0  0  0  0
  -29.6042  -29.8209   24.0485 C   0  0  0  0  0  0  0  0  0  0  0  0
  -28.8919  -31.5892   25.6715 C   0  0  0  0  0  0  0  0  0  0  0  0
  -29.9720  -32.2371   23.5183 C   0  0  0  0  0  0  0  0  0  0  0  0
  -23.3227  -33.7710   24.3315 C   0  0  0  0  0  0  0  0  0  0  0  0
  -17.6235  -23.2702   23.8891 C   0  0  0  0  0  0  0  0  0  0  0  0
  -27.6022  -31.3564   23.5004 C   0  0  1  0  0  0  0  0  0  0  0  0
  -25.7094  -34.4945   24.4698 C   0  0  2  0  0  0  0  0  0  0  0  0
  -28.9985  -31.2332   24.1733 C   0  0  0  0  0  0  0  0  0  0  0  0
  -25.3388  -19.5109   20.5746 N   0  0  0  0  0  0  0  0  0  0  0  0
  -25.3178  -20.8090   20.9215 N   0  0  0  0  0  0  0  0  0  0  0  0
  -26.4617  -30.4455   21.5021 N   0  0  0  0  0  0  0  0  0  0  0  0
  -21.6672  -21.2218   21.9954 N   0  0  0  0  0  0  0  0  0  0  0  0
  -26.5595  -22.8215   20.7832 N   0  0  0  0  0  0  0  0  0  0  0  0
  -28.5166  -21.2859   17.9187 N   0  0  0  0  0  0  0  0  0  0  0  0
  -19.4300  -21.9648   22.0670 N   0  0  0  0  0  0  0  0  0  0  0  0
  -26.8675  -27.7536   19.0762 N   0  0  0  0  0  0  0  0  0  0  0  0
  -27.0164  -32.6902   23.5795 N   0  0  0  0  0  0  0  0  0  0  0  0
  -17.4170  -24.7335   23.6083 N   0  3  1  0  0  0  0  0  0  0  0  0
  -24.3246  -34.6398   25.0011 N   0  3  0  0  0  0  0  0  0  0  0  0
  -29.5654  -20.7595   19.8889 O   0  0  0  0  0  0  0  0  0  0  0  0
  -26.8206  -27.9164   21.3986 O   0  0  0  0  0  0  0  0  0  0  0  0
  -28.6639  -31.2023   21.3848 O   0  0  0  0  0  0  0  0  0  0  0  0
  -25.8463  -32.3377   25.5501 O   0  0  0  0  0  0  0  0  0  0  0  0
  -20.3509  -21.1457   20.0920 O   0  0  0  0  0  0  0  0  0  0  0  0
  -28.0383  -14.4385   17.8304 O   0  0  0  0  0  0  0  0  0  0  0  0
  -20.4299  -29.3441   22.2589 O   0  0  0  0  0  0  0  0  0  1  0  0
  -29.8315  -10.5990   21.3584 F   0  0  0  0  0  0  0  0  0  0  0  0
  -26.4122  -13.5116   19.8649 F   0  0  0  0  0  0  0  0  0  0  0  0
  -15.6265  -19.7215   19.4676 Cl  0  0  0  0  0  0  0  0  0  0  0  0
  1  2  1  0  0  0  0
  1  5  2  0  0  0  0
  2  6  2  0  0  0  0
  3  8  2  0  0  0  0
  3 17  1  0  0  0  0
  4  9  1  0  0  0  0
  4 17  2  0  0  0  0
  5 19  1  0  0  0  0
  6 21  1  0  0  0  0
  7 10  2  0  0  0  0
  7 20  1  0  0  0  0
  8 26  1  0  0  0  0
  9 26  2  0  0  0  0
 10 27  1  0  0  0  0
 11 12  2  0  0  0  0
 11 28  1  0  0  0  0
 12 29  1  0  0  0  0
 13 22  1  0  0  0  0
 13 27  2  0  0  0  0
 14 23  2  0  0  0  0
 14 31  1  0  0  0  0
 15 25  1  0  0  0  0
 15 31  2  0  0  0  0
 16 29  2  0  0  0  0
 16 30  1  0  0  0  0
 17 32  1  0  0  0  0
 18 32  1  0  0  0  0
 18 33  2  0  0  0  0
 18 34  1  0  0  0  0
 19 21  2  0  0  0  0
 19 39  1  0  0  0  0
 20 22  2  0  0  0  0
 20 40  1  0  0  0  0
 21 53  1  0  0  0  0
 22 41  1  0  0  0  0
 23 24  1  0  0  0  0
 23 59  1  0  0  0  0
 24 25  2  0  0  0  0
 24 65  1  0  0  0  0
 25 75  1  0  0  0  0
 26 85  1  0  0  0  0
 27 86  1  0  0  0  0
 28 30  2  0  0  0  0
 28 85  1  0  0  0  0
 29 87  1  0  0  0  0
 30 88  1  0  0  0  0
 31 89  1  0  0  0  0
 32 69  2  0  0  0  0
 33 70  1  0  0  0  0
 33 73  1  0  0  0  0
 34 74  1  0  0  0  0
 34 80  2  0  0  0  0
 35 54  1  0  0  0  0
 35 76  1  0  0  0  0
 35 81  2  0  0  0  0
 36 66  1  0  0  0  0
 36 71  1  0  0  0  0
 36 82  2  0  0  0  0
 37 67  1  0  0  0  0
 37 77  1  0  0  0  0
 37 83  2  0  0  0  0
 38 72  1  0  0  0  0
 38 75  1  0  0  0  0
 38 84  2  0  0  0  0
 39 42  1  0  0  0  0
 40 54  1  0  0  0  0
 41 71  1  0  0  0  0
 42 44  1  0  0  0  0
 43 45  1  0  0  0  0
 43 49  1  0  0  0  0
 44 53  1  0  0  0  0
 45 57  1  0  0  0  0
 46 51  1  0  0  0  0
 46 55  1  0  0  0  0
 47 55  1  0  0  0  0
 47 58  1  0  0  0  0
 48 56  1  0  0  0  0
 48 58  1  0  0  0  0
 49 72  1  0  0  0  0
 50 57  1  0  0  0  0
 50 72  1  0  0  0  0
 51 78  1  0  0  0  0
 52 56  1  0  0  0  0
 52 78  1  0  0  0  0
 53 76  1  0  0  0  0
 54 71  1  0  0  0  0
 55 56  1  0  0  0  0
 57 70  1  0  0  0  0
 58 86  1  0  0  0  0
 60 67  1  0  0  0  0
 61 68  1  0  0  0  0
 62 68  1  0  0  0  0
 63 68  1  0  0  0  0
 64 79  1  0  0  0  0
 65 78  1  0  0  0  0
 66 68  1  0  0  0  0
 66 77  1  0  0  0  0
 67 79  1  0  0  0  0
 69 70  1  0  0  0  0
M  CHG  2  78   1  79   1
M  ISO  4  38 100  58 101  75 100  86 101
M  END
> <Batch ID>
0030

> <Smiles>
CNC(C)C(=O)NC(C(=O)N1Cc2cc([101O:1][101CH:1]3CC4CCN(Cc5c(C)cc(Cl)cc5[100NH:0][100C:0](=O)N5CCCC(n6nc(-c7ccc(Oc8ccc(F)cc8F)cc7)c(C(N)=O)c6N)C5)CC4C3)ccc2CC1C(=O)NC1CCCc2ccccc21)C(C)(C)C

> <Shape>
0.248

> <Color>
0.063

> <Negative vol penalty>
0.000

$$$$

  -OEChem-04042321363D

 87 96  0     1  0  0  0  0  0999 V2000
  -24.0975  -20.5354   13.7272 C   0  0  0  0  0  0  0  0  0  0  0  0
  -24.1435  -19.5099   14.6662 C   0  0  0  0  0  0  0  0  0  0  0  0
  -28.1972  -26.2825   18.0765 C   0  0  0  0  0  0  0  0  0  0  0  0
  -27.0962  -25.6769   20.1400 C   0  0  0  0  0  0  0  0  0  0  0  0
  -24.2149  -21.8621   14.1394 C   0  0  0  0  0  0  0  0  0  0  0  0
  -24.3080  -19.8105   16.0178 C   0  0  0  0  0  0  0  0  0  0  0  0
  -21.1725  -17.1698   18.9911 C   0  0  0  0  0  0  0  0  0  0  0  0
  -29.4519  -11.6217   18.8073 C   0  0  0  0  0  0  0  0  0  0  0  0
  -27.3134  -27.3499   17.9182 C   0  0  0  0  0  0  0  0  0  0  0  0
  -26.2124  -26.7444   19.9817 C   0  0  0  0  0  0  0  0  0  0  0  0
  -21.5099  -15.8426   19.2526 C   0  0  0  0  0  0  0  0  0  0  0  0
  -26.2399  -30.0902   20.4565 C   0  0  0  0  0  0  0  0  0  0  0  0
  -25.9791  -30.8846   21.5729 C   0  0  0  0  0  0  0  0  0  0  0  0
  -30.2405  -12.7135   19.1700 C   0  0  0  0  0  0  0  0  0  0  0  0
  -22.3977  -16.4973   21.3979 C   0  0  0  0  0  0  0  0  0  0  0  0
  -23.6342  -30.3217   21.4256 C   0  0  0  0  0  0  0  0  0  0  0  0
  -28.0885  -25.4459   19.1874 C   0  0  0  0  0  0  0  0  0  0  0  0
  -30.2410  -24.3569   20.0173 C   0  0  0  0  0  0  0  0  0  0  0  0
  -24.3713  -22.1797   15.4978 C   0  0  0  0  0  0  0  0  0  0  0  0
  -21.4555  -18.1740   19.9280 C   0  0  0  0  0  0  0  0  0  0  0  0
  -24.4290  -21.1427   16.4484 C   0  0  0  0  0  0  0  0  0  0  0  0
  -22.0606  -17.8361   21.1469 C   0  0  0  0  0  0  0  0  0  0  0  0
  -28.1709  -11.4787   19.3405 C   0  0  0  0  0  0  0  0  0  0  0  0
  -27.6785  -12.4276   20.2365 C   0  0  0  0  0  0  0  0  0  0  0  0
  -26.3210  -27.5809   18.8708 C   0  0  0  0  0  0  0  0  0  0  0  0
  -22.1253  -15.5066   20.4549 C   0  0  0  0  0  0  0  0  0  0  0  0
  -25.1979  -29.4115   19.8245 C   0  0  0  0  0  0  0  0  0  0  0  0
  -24.6762  -31.0003   22.0575 C   0  0  0  0  0  0  0  0  0  0  0  0
  -23.8950  -29.5272   20.3091 C   0  0  0  0  0  0  0  0  0  0  0  0
  -29.7481  -13.6624   20.0661 C   0  0  0  0  0  0  0  0  0  0  0  0
  -28.4671  -13.5195   20.5993 C   0  0  0  0  0  0  0  0  0  0  0  0
  -29.0008  -24.3427   19.3512 C   0  0  0  0  0  0  0  0  0  0  0  0
  -30.7122  -23.0727   19.8929 C   0  0  0  0  0  0  0  0  0  0  0  0
  -30.9073  -25.4344   20.6885 C   0  0  0  0  0  0  0  0  0  0  0  0
  -23.2630  -20.7887   19.9367 C   0  0  0  0  0  0  0  0  0  0  0  0
  -21.8764  -21.2656   22.8302 C   0  0  0  0  0  0  0  0  0  0  0  0
  -20.3154  -19.9223   25.5515 C   0  0  0  0  0  0  0  0  0  0  0  0
  -29.9493  -17.6691   20.1844 C   0  0  0  0  0  0  0  0  0  0  0  0
  -24.5414  -23.6260   15.8903 C   0  0  0  0  0  0  0  0  0  0  0  0
  -21.0610  -19.5971   19.6420 C   0  0  0  0  0  0  0  0  0  0  0  0
  -22.3674  -18.8739   22.1945 C   0  0  0  0  0  0  0  0  0  0  0  0
  -24.3373  -23.8805   17.3816 C   0  0  0  0  0  0  0  0  0  0  0  0
  -29.0836  -19.2242   17.0467 C   0  0  0  0  0  0  0  0  0  0  0  0
  -25.0956  -22.8469   18.2082 C   0  0  0  0  0  0  0  0  0  0  0  0
  -29.0838  -20.7051   17.4287 C   0  0  0  0  0  0  0  0  0  0  0  0
  -28.5248  -18.3580   18.1728 C   0  0  0  0  0  0  0  0  0  0  0  0
  -29.2092  -20.0163   19.8643 C   0  0  0  0  0  0  0  0  0  0  0  0
  -23.9003  -12.1728   20.3205 C   0  0  0  0  0  0  0  0  0  0  0  0
  -24.8359  -13.9913   19.8963 C   0  0  0  0  0  0  0  0  0  0  0  0
  -24.5814  -21.4300   17.9264 C   0  0  1  0  0  0  0  0  0  0  0  0
  -21.8620  -20.6131   20.4504 C   0  0  1  0  0  0  0  0  0  0  0  0
  -29.7937  -20.9338   18.7758 C   0  0  2  0  0  0  0  0  0  0  0  0
  -23.3684  -13.5328   19.8346 C   0  0  0  0  0  0  0  0  0  1  0  0
  -27.3502  -10.2980   18.9356 C   0  0  0  0  0  0  0  0  0  0  0  0
  -19.3340  -20.5569   27.7722 C   0  0  0  0  0  0  0  0  0  0  0  0
  -24.6850  -21.5322   23.9924 C   0  0  0  0  0  0  0  0  0  0  0  0
  -23.6975  -21.2101   26.2704 C   0  0  0  0  0  0  0  0  0  0  0  0
  -23.0252  -23.1746   24.8879 C   0  0  0  0  0  0  0  0  0  0  0  0
  -17.6267  -18.9659   24.7673 C   0  0  0  0  0  0  0  0  0  0  0  0
  -26.2989  -12.2494   20.7985 C   0  0  0  0  0  0  0  0  0  0  0  0
  -22.2027  -20.8705   24.2502 C   0  0  1  0  0  0  0  0  0  0  0  0
  -19.0562  -20.3311   26.2942 C   0  0  2  0  0  0  0  0  0  0  0  0
  -23.3987  -21.6773   24.8299 C   0  0  0  0  0  0  0  0  0  0  0  0
  -28.7030  -23.1447   18.8413 N   0  0  0  0  0  0  0  0  0  0  0  0
  -29.7628  -22.3940   19.1870 N   0  0  0  0  0  0  0  0  0  0  0  0
  -21.9681  -20.2523   21.8655 N   0  0  0  0  0  0  0  0  0  0  0  0
  -29.2440  -18.6171   19.4255 N   0  0  0  0  0  0  0  0  0  0  0  0
  -31.8419  -22.4693   20.3194 N   0  0  0  0  0  0  0  0  0  0  0  0
  -30.2827  -26.6886   20.7224 N   0  0  0  0  0  0  0  0  0  0  0  0
  -23.3319  -21.1987   18.6189 N   0  0  0  0  0  0  0  0  0  0  0  0
  -20.9639  -21.0110   25.0079 N   0  0  0  0  0  0  0  0  0  0  0  0
  -29.9914  -16.3158   19.7009 N   0  0  0  0  0  0  0  0  0  0  0  0
  -25.2311  -12.5723   19.8269 N   0  3  0  0  0  0  0  0  0  0  0  0
  -18.0140  -19.2734   26.1682 N   0  3  0  0  0  0  0  0  0  0  0  0
  -32.0312  -25.2934   21.2277 O   0  0  0  0  0  0  0  0  0  0  0  0
  -24.2114  -20.5699   20.6813 O   0  0  0  0  0  0  0  0  0  0  0  0
  -21.5453  -22.4287   22.5870 O   0  0  0  0  0  0  0  0  0  0  0  0
  -20.6886  -18.7544   25.4656 O   0  0  0  0  0  0  0  0  0  0  0  0
  -30.5293  -17.9666   21.2294 O   0  0  0  0  0  0  0  0  0  0  0  0
  -30.7014  -15.1962   21.9206 O   0  0  0  0  0  0  0  0  0  0  0  0
  -32.0879  -14.8075   19.8542 O   0  0  0  0  0  0  0  0  0  0  0  0
  -25.4586  -28.6225   18.7167 O   0  0  0  0  0  0  0  0  0  0  0  0
  -22.4563  -14.2120   20.7124 O   0  0  0  0  0  0  0  0  0  1  0  0
  -24.4261  -31.7621   23.1305 F   0  0  0  0  0  0  0  0  0  0  0  0
  -22.8900  -28.8767   19.7070 F   0  0  0  0  0  0  0  0  0  0  0  0
  -30.7993  -15.0202   20.4845 S   0  0  0  0  0  0  0  0  0  0  0  0
  -27.8459  -14.6916   21.7157 Cl  0  0  0  0  0  0  0  0  0  0  0  0
  1  2  1  0  0  0  0
  1  5  2  0  0  0  0
  2  6  2  0  0  0  0
  3  9  2  0  0  0  0
  3 17  1  0  0  0  0
  4 10  1  0  0  0  0
  4 17  2  0  0  0  0
  5 19  1  0  0  0  0
  6 21  1  0  0  0  0
  7 11  2  0  0  0  0
  7 20  1  0  0  0  0
  8 14  1  0  0  0  0
  8 23  2  0  0  0  0
  9 25  1  0  0  0  0
 10 25  2  0  0  0  0
 11 26  1  0  0  0  0
 12 13  2  0  0  0  0
 12 27  1  0  0  0  0
 13 28  1  0  0  0  0
 14 30  2  0  0  0  0
 15 22  1  0  0  0  0
 15 26  2  0  0  0  0
 16 28  2  0  0  0  0
 16 29  1  0  0  0  0
 17 32  1  0  0  0  0
 18 32  1  0  0  0  0
 18 33  2  0  0  0  0
 18 34  1  0  0  0  0
 19 21  2  0  0  0  0
 19 39  1  0  0  0  0
 20 22  2  0  0  0  0
 20 40  1  0  0  0  0
 21 50  1  0  0  0  0
 22 41  1  0  0  0  0
 23 24  1  0  0  0  0
 23 54  1  0  0  0  0
 24 31  2  0  0  0  0
 24 60  1  0  0  0  0
 25 82  1  0  0  0  0
 26 83  1  0  0  0  0
 27 29  2  0  0  0  0
 27 82  1  0  0  0  0
 28 84  1  0  0  0  0
 29 85  1  0  0  0  0
 30 31  1  0  0  0  0
 30 86  1  0  0  0  0
 31 87  1  0  0  0  0
 32 64  2  0  0  0  0
 33 65  1  0  0  0  0
 33 68  1  0  0  0  0
 34 69  1  0  0  0  0
 34 75  2  0  0  0  0
 35 51  1  0  0  0  0
 35 70  1  0  0  0  0
 35 76  2  0  0  0  0
 36 61  1  0  0  0  0
 36 66  1  0  0  0  0
 36 77  2  0  0  0  0
 37 62  1  0  0  0  0
 37 71  1  0  0  0  0
 37 78  2  0  0  0  0
 38 67  1  0  0  0  0
 38 72  1  0  0  0  0
 38 79  2  0  0  0  0
 39 42  1  0  0  0  0
 40 51  1  0  0  0  0
 41 66  1  0  0  0  0
 42 44  1  0  0  0  0
 43 45  1  0  0  0  0
 43 46  1  0  0  0  0
 44 50  1  0  0  0  0
 45 52  1  0  0  0  0
 46 67  1  0  0  0  0
 47 52  1  0  0  0  0
 47 67  1  0  0  0  0
 48 53  1  0  0  0  0
 48 73  1  0  0  0  0
 49 53  1  0  0  0  0
 49 73  1  0  0  0  0
 50 70  1  0  0  0  0
 51 66  1  0  0  0  0
 52 65  1  0  0  0  0
 53 83  1  0  0  0  0
 55 62  1  0  0  0  0
 56 63  1  0  0  0  0
 57 63  1  0  0  0  0
 58 63  1  0  0  0  0
 59 74  1  0  0  0  0
 60 73  1  0  0  0  0
 61 63  1  0  0  0  0
 61 71  1  0  0  0  0
 62 74  1  0  0  0  0
 64 65  1  0  0  0  0
 72 86  1  0  0  0  0
 80 86  2  0  0  0  0
 81 86  2  0  0  0  0
M  CHG  2  73   1  74   1
M  ISO  4  38 100  53 101  72 100  83 101
M  END
> <Batch ID>
0030

> <Smiles>
CNC(C)C(=O)NC(C(=O)N1Cc2cc([101O:1][101CH:1]3CN(Cc4c(C)ccc(S(=O)(=O)[100NH:0][100C:0](=O)N5CCCC(n6nc(-c7ccc(Oc8ccc(F)cc8F)cc7)c(C(N)=O)c6N)C5)c4Cl)C3)ccc2CC1C(=O)NC1CCCc2ccccc21)C(C)(C)C

> <Shape>
0.225

> <Color>
0.092

> <Negative vol penalty>
0.000

$$$$

  -OEChem-04042321363D

 85 94  0     1  0  0  0  0  0999 V2000
  -17.0416  -27.4019   25.5667 C   0  0  0  0  0  0  0  0  0  0  0  0
  -18.0545  -26.4483   25.5654 C   0  0  0  0  0  0  0  0  0  0  0  0
  -23.0340   -9.9512   19.9559 C   0  0  0  0  0  0  0  0  0  0  0  0
  -24.0151   -9.8187   22.1598 C   0  0  0  0  0  0  0  0  0  0  0  0
  -16.9786  -28.3517   24.5480 C   0  0  0  0  0  0  0  0  0  0  0  0
  -19.0046  -26.4434   24.5447 C   0  0  0  0  0  0  0  0  0  0  0  0
  -24.9242  -24.9513   25.0323 C   0  0  0  0  0  0  0  0  0  0  0  0
  -22.3201   -8.7787   20.2032 C   0  0  0  0  0  0  0  0  0  0  0  0
  -23.3011   -8.6462   22.4071 C   0  0  0  0  0  0  0  0  0  0  0  0
  -25.6222  -23.7781   24.7492 C   0  0  0  0  0  0  0  0  0  0  0  0
  -20.1488   -7.7864   23.2700 C   0  0  0  0  0  0  0  0  0  0  0  0
  -19.5104   -7.6664   24.5043 C   0  0  0  0  0  0  0  0  0  0  0  0
  -26.2100  -24.6582   22.5814 C   0  0  0  0  0  0  0  0  0  0  0  0
  -30.0330  -19.1082   18.2230 C   0  0  0  0  0  0  0  0  0  0  0  0
  -29.0985  -18.8553   20.8394 C   0  0  0  0  0  0  0  0  0  0  0  0
  -20.8211   -5.6960   24.9907 C   0  0  0  0  0  0  0  0  0  0  0  0
  -23.8816  -10.4712   20.9342 C   0  0  0  0  0  0  0  0  0  0  0  0
  -24.2059  -13.0015   20.9429 C   0  0  0  0  0  0  0  0  0  0  0  0
  -17.9340  -28.3644   23.5196 C   0  0  0  0  0  0  0  0  0  0  0  0
  -24.8546  -25.9840   24.0863 C   0  0  0  0  0  0  0  0  0  0  0  0
  -18.9536  -27.3934   23.5106 C   0  0  0  0  0  0  0  0  0  0  0  0
  -25.5126  -25.8445   22.8560 C   0  0  0  0  0  0  0  0  0  0  0  0
  -29.8573  -17.8422   18.7815 C   0  0  0  0  0  0  0  0  0  0  0  0
  -29.7415  -20.2478   18.9727 C   0  0  0  0  0  0  0  0  0  0  0  0
  -29.3900  -17.7157   20.0896 C   0  0  0  0  0  0  0  0  0  0  0  0
  -29.2742  -20.1213   20.2809 C   0  0  0  0  0  0  0  0  0  0  0  0
  -22.4536   -8.1262   21.4288 C   0  0  0  0  0  0  0  0  0  0  0  0
  -26.2628  -23.6302   23.5224 C   0  0  0  0  0  0  0  0  0  0  0  0
  -21.1234   -6.8612   22.8960 C   0  0  0  0  0  0  0  0  0  0  0  0
  -19.8465   -6.6212   25.3647 C   0  0  0  0  0  0  0  0  0  0  0  0
  -21.4595   -5.8160   23.7563 C   0  0  0  0  0  0  0  0  0  0  0  0
  -24.6197  -11.6820   20.6791 C   0  0  0  0  0  0  0  0  0  0  0  0
  -25.2560  -13.7810   20.5232 C   0  0  0  0  0  0  0  0  0  0  0  0
  -22.9818  -13.4797   21.5160 C   0  0  0  0  0  0  0  0  0  0  0  0
  -22.5043  -27.4075   22.4883 C   0  0  0  0  0  0  0  0  0  0  0  0
  -24.8924  -29.3626   21.4898 C   0  0  0  0  0  0  0  0  0  0  0  0
  -28.2289  -29.8064   20.9265 C   0  0  0  0  0  0  0  0  0  0  0  0
  -30.8944  -14.4973   20.6347 C   0  0  0  0  0  0  0  0  0  0  0  0
  -17.7973  -29.3814   22.4142 C   0  0  0  0  0  0  0  0  0  0  0  0
  -24.1200  -27.2541   24.4175 C   0  0  0  0  0  0  0  0  0  0  0  0
  -25.4852  -26.9318   21.8141 C   0  0  0  0  0  0  0  0  0  0  0  0
  -19.0611  -29.5403   21.5730 C   0  0  0  0  0  0  0  0  0  0  0  0
  -29.3677  -12.6249   17.8302 C   0  0  0  0  0  0  0  0  0  0  0  0
  -19.6222  -28.1747   21.1893 C   0  0  0  0  0  0  0  0  0  0  0  0
  -27.9891  -12.2648   18.3815 C   0  0  0  0  0  0  0  0  0  0  0  0
  -30.4027  -12.7700   18.9417 C   0  0  0  0  0  0  0  0  0  0  0  0
  -28.6320  -13.3708   20.5595 C   0  0  0  0  0  0  0  0  0  0  0  0
  -29.0746  -21.3703   22.4559 C   0  0  0  0  0  0  0  0  0  0  0  0
  -27.8491  -22.0978   20.9078 C   0  0  0  0  0  0  0  0  0  0  0  0
  -20.0170  -27.3709   22.4341 C   0  0  1  0  0  0  0  0  0  0  0  0
  -23.6831  -28.0318   23.1798 C   0  0  1  0  0  0  0  0  0  0  0  0
  -27.5554  -13.2628   19.4692 C   0  0  2  0  0  0  0  0  0  0  0  0
  -28.0874  -22.5420   22.3582 C   0  0  0  0  0  0  0  0  0  1  0  0
  -30.1765  -16.6365   17.9597 C   0  0  0  0  0  0  0  0  0  0  0  0
  -29.9414  -21.5915   18.3505 C   0  0  0  0  0  0  0  0  0  0  0  0
  -29.8746  -31.4970   20.0716 C   0  0  0  0  0  0  0  0  0  0  0  0
  -24.0153  -28.7660   18.6289 C   0  0  0  0  0  0  0  0  0  0  0  0
  -26.2110  -29.6745   17.8404 C   0  0  0  0  0  0  0  0  0  0  0  0
  -24.6159  -31.1553   19.0592 C   0  0  0  0  0  0  0  0  0  0  0  0
  -31.4093  -16.6269   21.7657 C   0  0  0  0  0  0  0  0  0  0  0  0
  -29.6575  -29.8973   23.5169 C   0  0  0  0  0  0  0  0  0  0  0  0
  -29.1951  -16.3707   20.7086 C   0  0  0  0  0  0  0  0  0  0  0  0
  -25.8617  -29.3613   20.3325 C   0  0  1  0  0  0  0  0  0  0  0  0
  -29.1716  -30.9367   21.2982 C   0  0  2  0  0  0  0  0  0  0  0  0
  -25.1751  -29.7178   18.9839 C   0  0  0  0  0  0  0  0  0  0  0  0
  -25.8377  -11.6228   20.1340 N   0  0  0  0  0  0  0  0  0  0  0  0
  -26.1981  -12.9149   20.0517 N   0  0  0  0  0  0  0  0  0  0  0  0
  -28.9796  -21.2465   21.0429 N   0  0  0  0  0  0  0  0  0  0  0  0
  -24.7486  -28.1522   22.1826 N   0  0  0  0  0  0  0  0  0  0  0  0
  -29.9466  -13.6908   19.9834 N   0  0  0  0  0  0  0  0  0  0  0  0
  -25.4561  -15.1161   20.5152 N   0  0  0  0  0  0  0  0  0  0  0  0
  -22.0093  -12.5430   21.8918 N   0  0  0  0  0  0  0  0  0  0  0  0
  -21.2803  -27.8418   22.9602 N   0  0  0  0  0  0  0  0  0  0  0  0
  -26.9462  -30.2623   20.7074 N   0  0  0  0  0  0  0  0  0  0  0  0
  -30.4605  -15.7499   21.0944 N   0  0  0  0  0  0  0  0  0  0  0  0
  -30.2079  -30.4537   22.2542 N   0  3  0  0  0  0  0  0  0  0  0  0
  -22.7503  -14.7023   21.6747 O   0  0  0  0  0  0  0  0  0  0  0  0
  -22.6913  -26.5932   21.5918 O   0  0  0  0  0  0  0  0  0  0  0  0
  -24.2904  -30.4013   21.7733 O   0  0  0  0  0  0  0  0  0  0  0  0
  -28.5947  -28.6366   20.8357 O   0  0  0  0  0  0  0  0  0  0  0  0
  -32.0642  -14.1231   20.7876 O   0  0  0  0  0  0  0  0  0  0  0  0
  -21.7569   -6.9822   21.6705 O   0  0  0  0  0  0  0  0  0  0  0  0
  -26.9443  -22.4859   23.2432 O   0  0  0  0  0  0  0  0  0  1  0  0
  -19.2344   -6.5069   26.5506 F   0  0  0  0  0  0  0  0  0  0  0  0
  -22.3959   -4.9248   23.4030 F   0  0  0  0  0  0  0  0  0  0  0  0
  1  2  1  0  0  0  0
  1  5  2  0  0  0  0
  2  6  2  0  0  0  0
  3  8  2  0  0  0  0
  3 17  1  0  0  0  0
  4  9  1  0  0  0  0
  4 17  2  0  0  0  0
  5 19  1  0  0  0  0
  6 21  1  0  0  0  0
  7 10  2  0  0  0  0
  7 20  1  0  0  0  0
  8 27  1  0  0  0  0
  9 27  2  0  0  0  0
 10 28  1  0  0  0  0
 11 12  2  0  0  0  0
 11 29  1  0  0  0  0
 12 30  1  0  0  0  0
 13 22  1  0  0  0  0
 13 28  2  0  0  0  0
 14 23  2  0  0  0  0
 14 24  1  0  0  0  0
 15 25  2  0  0  0  0
 15 26  1  0  0  0  0
 16 30  2  0  0  0  0
 16 31  1  0  0  0  0
 17 32  1  0  0  0  0
 18 32  1  0  0  0  0
 18 33  2  0  0  0  0
 18 34  1  0  0  0  0
 19 21  2  0  0  0  0
 19 39  1  0  0  0  0
 20 22  2  0  0  0  0
 20 40  1  0  0  0  0
 21 50  1  0  0  0  0
 22 41  1  0  0  0  0
 23 25  1  0  0  0  0
 23 54  1  0  0  0  0
 24 26  2  0  0  0  0
 24 55  1  0  0  0  0
 25 62  1  0  0  0  0
 26 68  1  0  0  0  0
 27 82  1  0  0  0  0
 28 83  1  0  0  0  0
 29 31  2  0  0  0  0
 29 82  1  0  0  0  0
 30 84  1  0  0  0  0
 31 85  1  0  0  0  0
 32 66  2  0  0  0  0
 33 67  1  0  0  0  0
 33 71  1  0  0  0  0
 34 72  1  0  0  0  0
 34 77  2  0  0  0  0
 35 51  1  0  0  0  0
 35 73  1  0  0  0  0
 35 78  2  0  0  0  0
 36 63  1  0  0  0  0
 36 69  1  0  0  0  0
 36 79  2  0  0  0  0
 37 64  1  0  0  0  0
 37 74  1  0  0  0  0
 37 80  2  0  0  0  0
 38 70  1  0  0  0  0
 38 75  1  0  0  0  0
 38 81  2  0  0  0  0
 39 42  1  0  0  0  0
 40 51  1  0  0  0  0
 41 69  1  0  0  0  0
 42 44  1  0  0  0  0
 43 45  1  0  0  0  0
 43 46  1  0  0  0  0
 44 50  1  0  0  0  0
 45 52  1  0  0  0  0
 46 70  1  0  0  0  0
 47 52  1  0  0  0  0
 47 70  1  0  0  0  0
 48 53  1  0  0  0  0
 48 68  1  0  0  0  0
 49 53  1  0  0  0  0
 49 68  1  0  0  0  0
 50 73  1  0  0  0  0
 51 69  1  0  0  0  0
 52 67  1  0  0  0  0
 53 83  1  0  0  0  0
 56 64  1  0  0  0  0
 57 65  1  0  0  0  0
 58 65  1  0  0  0  0
 59 65  1  0  0  0  0
 60 75  1  0  0  0  0
 61 76  1  0  0  0  0
 62 75  1  0  0  0  0
 63 65  1  0  0  0  0
 63 74  1  0  0  0  0
 64 76  1  0  0  0  0
 66 67  1  0  0  0  0
M  CHG  1  76   1
M  ISO  4  38 100  53 101  75 100  83 101
M  END
> <Batch ID>
0030

> <Smiles>
CNC(C)C(=O)NC(C(=O)N1Cc2cc([101O:1][101CH:1]3CN(c4cc(C[100N:0](C)[100C:0](=O)N5CCCC(n6nc(-c7ccc(Oc8ccc(F)cc8F)cc7)c(C(N)=O)c6N)C5)c(C)cc4C)C3)ccc2CC1C(=O)NC1CCCc2ccccc21)C(C)(C)C

> <Shape>
0.339

> <Color>
0.192

> <Negative vol penalty>
0.000

$$$$

  -OEChem-04042321363D

 84 93  0     1  0  0  0  0  0999 V2000
  -28.4207  -36.8371   25.3939 C   0  0  0  0  0  0  0  0  0  0  0  0
  -28.9287  -35.8902   24.5104 C   0  0  0  0  0  0  0  0  0  0  0  0
  -24.2917   -9.4562   21.0130 C   0  0  0  0  0  0  0  0  0  0  0  0
  -24.8332  -10.2689   23.2228 C   0  0  0  0  0  0  0  0  0  0  0  0
  -27.2888  -36.5438   26.1533 C   0  0  0  0  0  0  0  0  0  0  0  0
  -28.3057  -34.6488   24.3866 C   0  0  0  0  0  0  0  0  0  0  0  0
  -26.9441  -29.5436   19.5493 C   0  0  0  0  0  0  0  0  0  0  0  0
  -23.9415   -8.2191   21.5537 C   0  0  0  0  0  0  0  0  0  0  0  0
  -24.4829   -9.0318   23.7636 C   0  0  0  0  0  0  0  0  0  0  0  0
  -27.0817  -28.1682   19.3671 C   0  0  0  0  0  0  0  0  0  0  0  0
  -21.3052   -6.8702   23.1857 C   0  0  0  0  0  0  0  0  0  0  0  0
  -20.1232   -6.2789   22.7396 C   0  0  0  0  0  0  0  0  0  0  0  0
  -25.0859  -27.8017   20.6715 C   0  0  0  0  0  0  0  0  0  0  0  0
  -29.0992  -21.0515   20.0583 C   0  0  0  0  0  0  0  0  0  0  0  0
  -28.9371  -20.8472   22.4602 C   0  0  0  0  0  0  0  0  0  0  0  0
  -21.3764   -4.3708   21.9483 C   0  0  0  0  0  0  0  0  0  0  0  0
  -24.7376  -10.4812   21.8475 C   0  0  0  0  0  0  0  0  0  0  0  0
  -24.2572  -12.8687   21.0881 C   0  0  0  0  0  0  0  0  0  0  0  0
  -26.6458  -35.3018   26.0316 C   0  0  0  0  0  0  0  0  0  0  0  0
  -25.8806  -30.0586   20.3044 C   0  0  0  0  0  0  0  0  0  0  0  0
  -27.1649  -34.3381   25.1460 C   0  0  0  0  0  0  0  0  0  0  0  0
  -24.9355  -29.1842   20.8597 C   0  0  0  0  0  0  0  0  0  0  0  0
  -29.0389  -21.6438   21.3197 C   0  0  0  0  0  0  0  0  0  0  0  0
  -29.0577  -19.6625   19.9373 C   0  0  0  0  0  0  0  0  0  0  0  0
  -28.8956  -19.4581   22.3392 C   0  0  0  0  0  0  0  0  0  0  0  0
  -28.9559  -18.8658   21.0778 C   0  0  0  0  0  0  0  0  0  0  0  0
  -24.0371   -8.0069   22.9290 C   0  0  0  0  0  0  0  0  0  0  0  0
  -26.1542  -27.2969   19.9306 C   0  0  0  0  0  0  0  0  0  0  0  0
  -22.5228   -6.2118   23.0130 C   0  0  0  0  0  0  0  0  0  0  0  0
  -20.1588   -5.0292   22.1210 C   0  0  0  0  0  0  0  0  0  0  0  0
  -22.5584   -4.9622   22.3944 C   0  0  0  0  0  0  0  0  0  0  0  0
  -25.1000  -11.7592   21.2894 C   0  0  0  0  0  0  0  0  0  0  0  0
  -25.0745  -13.8251   20.5370 C   0  0  0  0  0  0  0  0  0  0  0  0
  -22.8605  -13.0211   21.3738 C   0  0  0  0  0  0  0  0  0  0  0  0
  -25.6458  -31.7587   22.9800 C   0  0  0  0  0  0  0  0  0  0  0  0
  -22.4926  -31.7940   22.2196 C   0  0  0  0  0  0  0  0  0  0  0  0
  -19.8938  -30.3218   20.5685 C   0  0  0  0  0  0  0  0  0  0  0  0
  -29.8843  -16.6265   20.3923 C   0  0  0  0  0  0  0  0  0  0  0  0
  -25.4529  -35.0130   26.9080 C   0  0  0  0  0  0  0  0  0  0  0  0
  -25.7311  -31.5462   20.4693 C   0  0  0  0  0  0  0  0  0  0  0  0
  -23.7644  -29.6876   21.6619 C   0  0  0  0  0  0  0  0  0  0  0  0
  -24.6316  -33.8133   26.4429 C   0  0  0  0  0  0  0  0  0  0  0  0
  -29.7879  -13.4828   18.7235 C   0  0  0  0  0  0  0  0  0  0  0  0
  -25.5449  -32.6377   26.1103 C   0  0  0  0  0  0  0  0  0  0  0  0
  -28.4903  -12.8454   19.2257 C   0  0  0  0  0  0  0  0  0  0  0  0
  -30.4871  -14.2848   19.8197 C   0  0  0  0  0  0  0  0  0  0  0  0
  -28.3498  -14.6504   20.9890 C   0  0  0  0  0  0  0  0  0  0  0  0
  -27.7833  -25.2013   21.6497 C   0  0  0  0  0  0  0  0  0  0  0  0
  -26.8368  -23.6475   20.6239 C   0  0  0  0  0  0  0  0  0  0  0  0
  -26.5024  -32.9896   24.9654 C   0  0  1  0  0  0  0  0  0  0  0  0
  -24.8984  -31.9317   21.6880 C   0  0  1  0  0  0  0  0  0  0  0  0
  -27.5764  -13.8859   19.9023 C   0  0  2  0  0  0  0  0  0  0  0  0
  -26.4396  -25.1072   20.9053 C   0  0  0  0  0  0  0  0  0  1  0  0
  -29.1237  -19.0573   18.5723 C   0  0  0  0  0  0  0  0  0  0  0  0
  -28.7868  -18.6311   23.5795 C   0  0  0  0  0  0  0  0  0  0  0  0
  -17.4283  -30.5593   20.1657 C   0  0  0  0  0  0  0  0  0  0  0  0
  -21.9338  -30.7144   25.0182 C   0  0  0  0  0  0  0  0  0  0  0  0
  -19.6382  -30.0858   24.2418 C   0  0  0  0  0  0  0  0  0  0  0  0
  -20.3404  -32.4795   24.2436 C   0  0  0  0  0  0  0  0  0  0  0  0
  -20.2827  -30.6331   17.6512 C   0  0  0  0  0  0  0  0  0  0  0  0
  -29.0832  -23.1379   21.4499 C   0  0  0  0  0  0  0  0  0  0  0  0
  -21.3104  -30.9045   22.5200 C   0  0  1  0  0  0  0  0  0  0  0  0
  -18.8222  -30.8972   19.6602 C   0  0  2  0  0  0  0  0  0  0  0  0
  -20.8287  -31.0361   23.9924 C   0  0  0  0  0  0  0  0  0  0  0  0
  -26.3563  -11.9881   20.8979 N   0  0  0  0  0  0  0  0  0  0  0  0
  -26.3089  -13.2525   20.4449 N   0  0  0  0  0  0  0  0  0  0  0  0
  -23.6653  -31.1500   21.8002 N   0  0  0  0  0  0  0  0  0  0  0  0
  -29.5617  -15.2531   20.4119 N   0  0  0  0  0  0  0  0  0  0  0  0
  -24.8504  -15.0916   20.1269 N   0  0  0  0  0  0  0  0  0  0  0  0
  -22.1723  -11.9392   21.9395 N   0  0  0  0  0  0  0  0  0  0  0  0
  -28.9139  -17.4548   20.9551 N   0  0  0  0  0  0  0  0  0  0  0  0
  -25.8136  -32.9297   23.6940 N   0  0  0  0  0  0  0  0  0  0  0  0
  -20.2922  -31.2295   21.5269 N   0  0  0  0  0  0  0  0  0  0  0  0
  -27.7656  -23.7315   21.7661 N   0  3  0  0  0  0  0  0  0  0  0  0
  -18.9662  -30.3533   18.2801 N   0  3  0  0  0  0  0  0  0  0  0  0
  -22.2374  -14.0797   21.1193 O   0  0  0  0  0  0  0  0  0  0  0  0
  -26.0398  -30.6449   23.3056 O   0  0  0  0  0  0  0  0  0  0  0  0
  -22.3776  -33.0157   22.3453 O   0  0  0  0  0  0  0  0  0  0  0  0
  -20.3308  -29.1800   20.4429 O   0  0  0  0  0  0  0  0  0  0  0  0
  -30.9311  -17.0401   19.8872 O   0  0  0  0  0  0  0  0  0  0  0  0
  -23.6952   -6.7999   23.4571 O   0  0  0  0  0  0  0  0  0  0  0  0
  -26.2866  -25.9540   19.7549 O   0  0  0  0  0  0  0  0  0  1  0  0
  -19.0236   -4.4608   21.6941 F   0  0  0  0  0  0  0  0  0  0  0  0
  -23.7250   -4.3244   22.2268 F   0  0  0  0  0  0  0  0  0  0  0  0
  1  2  1  0  0  0  0
  1  5  2  0  0  0  0
  2  6  2  0  0  0  0
  3  8  2  0  0  0  0
  3 17  1  0  0  0  0
  4  9  1  0  0  0  0
  4 17  2  0  0  0  0
  5 19  1  0  0  0  0
  6 21  1  0  0  0  0
  7 10  2  0  0  0  0
  7 20  1  0  0  0  0
  8 27  1  0  0  0  0
  9 27  2  0  0  0  0
 10 28  1  0  0  0  0
 11 12  2  0  0  0  0
 11 29  1  0  0  0  0
 12 30  1  0  0  0  0
 13 22  1  0  0  0  0
 13 28  2  0  0  0  0
 14 23  1  0  0  0  0
 14 24  2  0  0  0  0
 15 23  2  0  0  0  0
 15 25  1  0  0  0  0
 16 30  2  0  0  0  0
 16 31  1  0  0  0  0
 17 32  1  0  0  0  0
 18 32  1  0  0  0  0
 18 33  2  0  0  0  0
 18 34  1  0  0  0  0
 19 21  2  0  0  0  0
 19 39  1  0  0  0  0
 20 22  2  0  0  0  0
 20 40  1  0  0  0  0
 21 50  1  0  0  0  0
 22 41  1  0  0  0  0
 23 61  1  0  0  0  0
 24 26  1  0  0  0  0
 24 54  1  0  0  0  0
 25 26  2  0  0  0  0
 25 55  1  0  0  0  0
 26 71  1  0  0  0  0
 27 81  1  0  0  0  0
 28 82  1  0  0  0  0
 29 31  2  0  0  0  0
 29 81  1  0  0  0  0
 30 83  1  0  0  0  0
 31 84  1  0  0  0  0
 32 65  2  0  0  0  0
 33 66  1  0  0  0  0
 33 69  1  0  0  0  0
 34 70  1  0  0  0  0
 34 76  2  0  0  0  0
 35 51  1  0  0  0  0
 35 72  1  0  0  0  0
 35 77  2  0  0  0  0
 36 62  1  0  0  0  0
 36 67  1  0  0  0  0
 36 78  2  0  0  0  0
 37 63  1  0  0  0  0
 37 73  1  0  0  0  0
 37 79  2  0  0  0  0
 38 68  1  0  0  0  0
 38 71  1  0  0  0  0
 38 80  2  0  0  0  0
 39 42  1  0  0  0  0
 40 51  1  0  0  0  0
 41 67  1  0  0  0  0
 42 44  1  0  0  0  0
 43 45  1  0  0  0  0
 43 46  1  0  0  0  0
 44 50  1  0  0  0  0
 45 52  1  0  0  0  0
 46 68  1  0  0  0  0
 47 52  1  0  0  0  0
 47 68  1  0  0  0  0
 48 53  1  0  0  0  0
 48 74  1  0  0  0  0
 49 53  1  0  0  0  0
 49 74  1  0  0  0  0
 50 72  1  0  0  0  0
 51 67  1  0  0  0  0
 52 66  1  0  0  0  0
 53 82  1  0  0  0  0
 56 63  1  0  0  0  0
 57 64  1  0  0  0  0
 58 64  1  0  0  0  0
 59 64  1  0  0  0  0
 60 75  1  0  0  0  0
 61 74  1  0  0  0  0
 62 64  1  0  0  0  0
 62 73  1  0  0  0  0
 63 75  1  0  0  0  0
 65 66  1  0  0  0  0
M  CHG  2  74   1  75   1
M  ISO  4  38 100  53 101  71 100  82 101
M  END
> <Batch ID>
0030

> <Smiles>
CNC(C)C(=O)NC(C(=O)N1Cc2cc([101O:1][101CH:1]3CN(Cc4cc(C)c([100NH:0][100C:0](=O)N5CCCC(n6nc(-c7ccc(Oc8ccc(F)cc8F)cc7)c(C(N)=O)c6N)C5)c(C)c4)C3)ccc2CC1C(=O)NC1CCCc2ccccc21)C(C)(C)C

> <Shape>
0.336

> <Color>
0.138

> <Negative vol penalty>
0.000

$$$$

  -OEChem-04042321363D

 84 93  0     1  0  0  0  0  0999 V2000
  -28.2846  -31.1019   27.6058 C   0  0  0  0  0  0  0  0  0  0  0  0
  -28.2025  -30.0734   26.6726 C   0  0  0  0  0  0  0  0  0  0  0  0
  -23.5585   -9.6873   19.8110 C   0  0  0  0  0  0  0  0  0  0  0  0
  -24.4058   -9.6582   22.0733 C   0  0  0  0  0  0  0  0  0  0  0  0
  -27.1725  -31.9044   27.8568 C   0  0  0  0  0  0  0  0  0  0  0  0
  -27.0076  -29.8461   25.9906 C   0  0  0  0  0  0  0  0  0  0  0  0
  -27.7147  -29.0787   21.0352 C   0  0  0  0  0  0  0  0  0  0  0  0
  -29.9594  -20.2160   21.0161 C   0  0  0  0  0  0  0  0  0  0  0  0
  -30.0509  -18.8292   20.8978 C   0  0  0  0  0  0  0  0  0  0  0  0
  -23.0551   -8.3978   19.9829 C   0  0  0  0  0  0  0  0  0  0  0  0
  -23.9024   -8.3688   22.2453 C   0  0  0  0  0  0  0  0  0  0  0  0
  -28.1688  -27.8199   20.6443 C   0  0  0  0  0  0  0  0  0  0  0  0
  -20.9104   -6.9277   22.8715 C   0  0  0  0  0  0  0  0  0  0  0  0
  -20.2276   -6.6529   24.0563 C   0  0  0  0  0  0  0  0  0  0  0  0
  -25.9164  -27.2008   20.0423 C   0  0  0  0  0  0  0  0  0  0  0  0
  -21.8408   -4.9347   24.5875 C   0  0  0  0  0  0  0  0  0  0  0  0
  -24.2339  -10.3175   20.8562 C   0  0  0  0  0  0  0  0  0  0  0  0
  -24.0922  -12.8631   20.9428 C   0  0  0  0  0  0  0  0  0  0  0  0
  -25.9662  -31.6929   27.1706 C   0  0  0  0  0  0  0  0  0  0  0  0
  -26.3539  -29.4048   20.9427 C   0  0  0  0  0  0  0  0  0  0  0  0
  -25.8778  -30.6457   26.2337 C   0  0  0  0  0  0  0  0  0  0  0  0
  -25.4479  -28.4653   20.4303 C   0  0  0  0  0  0  0  0  0  0  0  0
  -29.1353  -20.7801   21.9900 C   0  0  0  0  0  0  0  0  0  0  0  0
  -28.4026  -19.9572   22.8455 C   0  0  0  0  0  0  0  0  0  0  0  0
  -29.3182  -18.0064   21.7532 C   0  0  0  0  0  0  0  0  0  0  0  0
  -23.2270   -7.7386   21.2001 C   0  0  0  0  0  0  0  0  0  0  0  0
  -27.2693  -26.8797   20.1504 C   0  0  0  0  0  0  0  0  0  0  0  0
  -22.0584   -6.2059   22.5446 C   0  0  0  0  0  0  0  0  0  0  0  0
  -20.6928   -5.6564   24.9143 C   0  0  0  0  0  0  0  0  0  0  0  0
  -22.5236   -5.2095   23.4027 C   0  0  0  0  0  0  0  0  0  0  0  0
  -28.4940  -18.5704   22.7271 C   0  0  0  0  0  0  0  0  0  0  0  0
  -24.7546  -11.6492   20.6790 C   0  0  0  0  0  0  0  0  0  0  0  0
  -25.0077  -13.8325   20.6133 C   0  0  0  0  0  0  0  0  0  0  0  0
  -22.7679  -13.0937   21.4414 C   0  0  0  0  0  0  0  0  0  0  0  0
  -24.0941  -30.2125   23.0269 C   0  0  0  0  0  0  0  0  0  0  0  0
  -22.3337  -30.6841   20.3434 C   0  0  0  0  0  0  0  0  0  0  0  0
  -21.8272  -29.9619   17.0466 C   0  0  0  0  0  0  0  0  0  0  0  0
  -30.1846  -15.8799   20.7170 C   0  0  0  0  0  0  0  0  0  0  0  0
  -24.7770  -32.5561   27.5101 C   0  0  0  0  0  0  0  0  0  0  0  0
  -25.8841  -30.7763   21.3434 C   0  0  0  0  0  0  0  0  0  0  0  0
  -23.9800  -28.7729   20.2918 C   0  0  0  0  0  0  0  0  0  0  0  0
  -23.6591  -32.4881   26.4728 C   0  0  0  0  0  0  0  0  0  0  0  0
  -29.4356  -13.4921   18.1843 C   0  0  0  0  0  0  0  0  0  0  0  0
  -23.3739  -31.0395   26.0895 C   0  0  0  0  0  0  0  0  0  0  0  0
  -28.0965  -12.8996   18.6293 C   0  0  0  0  0  0  0  0  0  0  0  0
  -30.3449  -13.7954   19.3739 C   0  0  0  0  0  0  0  0  0  0  0  0
  -28.4001  -14.0338   20.8673 C   0  0  0  0  0  0  0  0  0  0  0  0
  -27.6355  -24.2564   21.8782 C   0  0  0  0  0  0  0  0  0  0  0  0
  -27.9091  -23.1576   20.1231 C   0  0  0  0  0  0  0  0  0  0  0  0
  -24.6066  -30.3836   25.4557 C   0  0  1  0  0  0  0  0  0  0  0  0
  -24.3985  -30.8220   21.6877 C   0  0  1  0  0  0  0  0  0  0  0  0
  -27.4249  -13.7720   19.7079 C   0  0  2  0  0  0  0  0  0  0  0  0
  -27.1872  -24.4828   20.4234 C   0  0  0  0  0  0  0  0  0  1  0  0
  -27.5151  -20.5425   23.8947 C   0  0  0  0  0  0  0  0  0  0  0  0
  -20.2861  -30.4710   15.1327 C   0  0  0  0  0  0  0  0  0  0  0  0
  -20.2275  -28.8359   21.5509 C   0  0  0  0  0  0  0  0  0  0  0  0
  -19.2068  -28.6264   19.2745 C   0  0  0  0  0  0  0  0  0  0  0  0
  -19.3060  -30.8530   20.3948 C   0  0  0  0  0  0  0  0  0  0  0  0
  -24.0212  -31.1281   15.4387 C   0  0  0  0  0  0  0  0  0  0  0  0
  -29.0534  -22.2743   22.0977 C   0  0  0  0  0  0  0  0  0  0  0  0
  -21.4315  -29.8240   19.4918 C   0  0  1  0  0  0  0  0  0  0  0  0
  -21.5721  -30.8566   15.8471 C   0  0  2  0  0  0  0  0  0  0  0  0
  -20.0703  -29.5281   20.1823 C   0  0  0  0  0  0  0  0  0  0  0  0
  -25.9950  -11.8284   20.2172 N   0  0  0  0  0  0  0  0  0  0  0  0
  -26.1194  -13.1663   20.1883 N   0  0  0  0  0  0  0  0  0  0  0  0
  -23.5684  -30.1254   20.7029 N   0  0  0  0  0  0  0  0  0  0  0  0
  -29.6431  -14.6291   20.3523 N   0  0  0  0  0  0  0  0  0  0  0  0
  -24.9622  -15.1812   20.6484 N   0  0  0  0  0  0  0  0  0  0  0  0
  -21.9598  -11.9853   21.7290 N   0  0  0  0  0  0  0  0  0  0  0  0
  -29.4132  -16.5980   21.6302 N   0  0  0  0  0  0  0  0  0  0  0  0
  -24.7564  -30.8117   24.0814 N   0  0  0  0  0  0  0  0  0  0  0  0
  -21.3142  -30.5036   18.2062 N   0  0  0  0  0  0  0  0  0  0  0  0
  -27.7927  -22.8262   21.5553 N   0  3  0  0  0  0  0  0  0  0  0  0
  -22.6979  -30.7547   14.8760 N   0  3  0  0  0  0  0  0  0  0  0  0
  -22.3087  -14.2487   21.6107 O   0  0  0  0  0  0  0  0  0  0  0  0
  -23.3147  -29.2696   23.0985 O   0  0  0  0  0  0  0  0  0  0  0  0
  -21.9599  -31.8129   20.6714 O   0  0  0  0  0  0  0  0  0  0  0  0
  -22.4190  -28.8880   16.9627 O   0  0  0  0  0  0  0  0  0  0  0  0
  -31.2402  -16.2962   20.2327 O   0  0  0  0  0  0  0  0  0  0  0  0
  -22.7357   -6.4805   21.3683 O   0  0  0  0  0  0  0  0  0  0  0  0
  -27.7098  -25.6500   19.7688 O   0  0  0  0  0  0  0  0  0  1  0  0
  -20.0378   -5.3937   26.0528 F   0  0  0  0  0  0  0  0  0  0  0  0
  -23.6267   -4.5135   23.0946 F   0  0  0  0  0  0  0  0  0  0  0  0
  -27.7887  -17.7799   23.5503 F   0  0  0  0  0  0  0  0  0  0  0  0
  1  2  1  0  0  0  0
  1  5  2  0  0  0  0
  2  6  2  0  0  0  0
  3 10  2  0  0  0  0
  3 17  1  0  0  0  0
  4 11  1  0  0  0  0
  4 17  2  0  0  0  0
  5 19  1  0  0  0  0
  6 21  1  0  0  0  0
  7 12  2  0  0  0  0
  7 20  1  0  0  0  0
  8  9  2  0  0  0  0
  8 23  1  0  0  0  0
  9 25  1  0  0  0  0
 10 26  1  0  0  0  0
 11 26  2  0  0  0  0
 12 27  1  0  0  0  0
 13 14  2  0  0  0  0
 13 28  1  0  0  0  0
 14 29  1  0  0  0  0
 15 22  1  0  0  0  0
 15 27  2  0  0  0  0
 16 29  2  0  0  0  0
 16 30  1  0  0  0  0
 17 32  1  0  0  0  0
 18 32  1  0  0  0  0
 18 33  2  0  0  0  0
 18 34  1  0  0  0  0
 19 21  2  0  0  0  0
 19 39  1  0  0  0  0
 20 22  2  0  0  0  0
 20 40  1  0  0  0  0
 21 50  1  0  0  0  0
 22 41  1  0  0  0  0
 23 24  2  0  0  0  0
 23 60  1  0  0  0  0
 24 31  1  0  0  0  0
 24 54  1  0  0  0  0
 25 31  2  0  0  0  0
 25 70  1  0  0  0  0
 26 80  1  0  0  0  0
 27 81  1  0  0  0  0
 28 30  2  0  0  0  0
 28 80  1  0  0  0  0
 29 82  1  0  0  0  0
 30 83  1  0  0  0  0
 31 84  1  0  0  0  0
 32 64  2  0  0  0  0
 33 65  1  0  0  0  0
 33 68  1  0  0  0  0
 34 69  1  0  0  0  0
 34 75  2  0  0  0  0
 35 51  1  0  0  0  0
 35 71  1  0  0  0  0
 35 76  2  0  0  0  0
 36 61  1  0  0  0  0
 36 66  1  0  0  0  0
 36 77  2  0  0  0  0
 37 62  1  0  0  0  0
 37 72  1  0  0  0  0
 37 78  2  0  0  0  0
 38 67  1  0  0  0  0
 38 70  1  0  0  0  0
 38 79  2  0  0  0  0
 39 42  1  0  0  0  0
 40 51  1  0  0  0  0
 41 66  1  0  0  0  0
 42 44  1  0  0  0  0
 43 45  1  0  0  0  0
 43 46  1  0  0  0  0
 44 50  1  0  0  0  0
 45 52  1  0  0  0  0
 46 67  1  0  0  0  0
 47 52  1  0  0  0  0
 47 67  1  0  0  0  0
 48 53  1  0  0  0  0
 48 73  1  0  0  0  0
 49 53  1  0  0  0  0
 49 73  1  0  0  0  0
 50 71  1  0  0  0  0
 51 66  1  0  0  0  0
 52 65  1  0  0  0  0
 53 81  1  0  0  0  0
 55 62  1  0  0  0  0
 56 63  1  0  0  0  0
 57 63  1  0  0  0  0
 58 63  1  0  0  0  0
 59 74  1  0  0  0  0
 60 73  1  0  0  0  0
 61 63  1  0  0  0  0
 61 72  1  0  0  0  0
 62 74  1  0  0  0  0
 64 65  1  0  0  0  0
M  CHG  2  73   1  74   1
M  ISO  4  38 100  53 101  70 100  81 101
M  END
> <Batch ID>
0030

> <Smiles>
CNC(C)C(=O)NC(C(=O)N1Cc2cc([101O:1][101CH:1]3CN(Cc4ccc([100NH:0][100C:0](=O)N5CCCC(n6nc(-c7ccc(Oc8ccc(F)cc8F)cc7)c(C(N)=O)c6N)C5)c(F)c4C)C3)ccc2CC1C(=O)NC1CCCc2ccccc21)C(C)(C)C

> <Shape>
0.336

> <Color>
0.173

> <Negative vol penalty>
0.000

$$$$

  -OEChem-04042321363D

 86 95  0     1  0  0  0  0  0999 V2000
  -34.1440  -27.5053   14.5638 C   0  0  0  0  0  0  0  0  0  0  0  0
  -32.8417  -27.9942   14.5817 C   0  0  0  0  0  0  0  0  0  0  0  0
  -29.0894  -18.4234   21.4982 C   0  0  0  0  0  0  0  0  0  0  0  0
  -28.0342  -17.8664   19.3974 C   0  0  0  0  0  0  0  0  0  0  0  0
  -34.5174  -26.4875   15.4405 C   0  0  0  0  0  0  0  0  0  0  0  0
  -31.9116  -27.4648   15.4756 C   0  0  0  0  0  0  0  0  0  0  0  0
  -26.2154  -29.3639   19.3824 C   0  0  0  0  0  0  0  0  0  0  0  0
  -16.1753  -24.9191   22.8793 C   0  0  0  0  0  0  0  0  0  0  0  0
  -16.9901  -24.4093   21.8685 C   0  0  0  0  0  0  0  0  0  0  0  0
  -29.8461  -17.2537   21.4283 C   0  0  0  0  0  0  0  0  0  0  0  0
  -28.7910  -16.6967   19.3274 C   0  0  0  0  0  0  0  0  0  0  0  0
  -24.8969  -28.9792   19.6219 C   0  0  0  0  0  0  0  0  0  0  0  0
  -30.1828  -13.3853   18.7730 C   0  0  0  0  0  0  0  0  0  0  0  0
  -29.5269  -12.2096   18.4083 C   0  0  0  0  0  0  0  0  0  0  0  0
  -25.6761  -27.2781   21.1444 C   0  0  0  0  0  0  0  0  0  0  0  0
  -28.0724  -12.4264   20.3252 C   0  0  0  0  0  0  0  0  0  0  0  0
  -28.1834  -18.7297   20.4827 C   0  0  0  0  0  0  0  0  0  0  0  0
  -27.7446  -21.2044   20.0460 C   0  0  0  0  0  0  0  0  0  0  0  0
  -33.5940  -25.9520   16.3522 C   0  0  0  0  0  0  0  0  0  0  0  0
  -27.2766  -28.7002   20.0149 C   0  0  0  0  0  0  0  0  0  0  0  0
  -32.2726  -26.4379   16.3644 C   0  0  0  0  0  0  0  0  0  0  0  0
  -27.0071  -27.6579   20.9132 C   0  0  0  0  0  0  0  0  0  0  0  0
  -16.7061  -25.7910   23.8299 C   0  0  0  0  0  0  0  0  0  0  0  0
  -18.3358  -24.7713   21.8083 C   0  0  0  0  0  0  0  0  0  0  0  0
  -18.0518  -26.1530   23.7698 C   0  0  0  0  0  0  0  0  0  0  0  0
  -18.8667  -25.6431   22.7590 C   0  0  0  0  0  0  0  0  0  0  0  0
  -29.6969  -16.3904   20.3429 C   0  0  0  0  0  0  0  0  0  0  0  0
  -24.6273  -27.9343   20.5008 C   0  0  0  0  0  0  0  0  0  0  0  0
  -29.7836  -14.0816   19.9139 C   0  0  0  0  0  0  0  0  0  0  0  0
  -28.4716  -11.7302   19.1844 C   0  0  0  0  0  0  0  0  0  0  0  0
  -28.7284  -13.6021   20.6900 C   0  0  0  0  0  0  0  0  0  0  0  0
  -27.4011  -19.9375   20.5547 C   0  0  0  0  0  0  0  0  0  0  0  0
  -26.6765  -22.0053   20.3692 C   0  0  0  0  0  0  0  0  0  0  0  0
  -28.9236  -21.6202   19.3441 C   0  0  0  0  0  0  0  0  0  0  0  0
  -29.7630  -26.9881   19.0200 C   0  0  0  0  0  0  0  0  0  0  0  0
  -30.5732  -27.0607   22.1601 C   0  0  0  0  0  0  0  0  0  0  0  0
  -29.5697  -27.4041   25.4039 C   0  0  0  0  0  0  0  0  0  0  0  0
  -21.2787  -22.8824   20.5725 C   0  0  0  0  0  0  0  0  0  0  0  0
  -34.0313  -24.8202   17.2480 C   0  0  0  0  0  0  0  0  0  0  0  0
  -28.6918  -29.1448   19.7663 C   0  0  0  0  0  0  0  0  0  0  0  0
  -28.1095  -26.9265   21.6331 C   0  0  0  0  0  0  0  0  0  0  0  0
  -33.0867  -24.5723   18.4213 C   0  0  0  0  0  0  0  0  0  0  0  0
  -22.7216  -21.1555   23.4068 C   0  0  0  0  0  0  0  0  0  0  0  0
  -31.6375  -24.5561   17.9458 C   0  0  0  0  0  0  0  0  0  0  0  0
  -24.1053  -20.7888   22.8674 C   0  0  0  0  0  0  0  0  0  0  0  0
  -21.2777  -28.7292   20.3522 C   0  0  0  0  0  0  0  0  0  0  0  0
  -21.6563  -21.0400   22.3206 C   0  0  0  0  0  0  0  0  0  0  0  0
  -23.3190  -21.4754   20.5543 C   0  0  0  0  0  0  0  0  0  0  0  0
  -20.3937  -27.5437   20.6832 C   0  0  0  0  0  0  0  0  0  0  0  0
  -21.8596  -28.0368   22.5826 C   0  0  0  0  0  0  0  0  0  0  0  0
  -31.2417  -25.9064   17.3364 C   0  0  1  0  0  0  0  0  0  0  0  0
  -29.7210  -28.0607   20.0713 C   0  0  1  0  0  0  0  0  0  0  0  0
  -24.4437  -21.5942   21.5989 C   0  0  2  0  0  0  0  0  0  0  0  0
  -22.4644  -28.5411   21.2816 C   0  0  1  0  0  0  0  0  0  1  0  0
  -15.8116  -26.3228   24.9016 C   0  0  0  0  0  0  0  0  0  0  0  0
  -18.6181  -27.0891   24.7899 C   0  0  0  0  0  0  0  0  0  0  0  0
  -30.4534  -27.3782   27.7525 C   0  0  0  0  0  0  0  0  0  0  0  0
  -30.7608  -24.0171   22.0534 C   0  0  0  0  0  0  0  0  0  0  0  0
  -30.6984  -23.9951   24.5562 C   0  0  0  0  0  0  0  0  0  0  0  0
  -32.5755  -25.1288   23.3670 C   0  0  0  0  0  0  0  0  0  0  0  0
  -28.7211  -30.1995   25.8775 C   0  0  0  0  0  0  0  0  0  0  0  0
  -19.1870  -24.2094   20.7167 C   0  0  0  0  0  0  0  0  0  0  0  0
  -20.3148  -26.0301   22.6937 C   0  0  0  0  0  0  0  0  0  0  0  0
  -30.2817  -26.1919   23.3598 C   0  0  1  0  0  0  0  0  0  0  0  0
  -30.1195  -28.2405   26.5452 C   0  0  2  0  0  0  0  0  0  0  0  0
  -31.0582  -24.8455   23.3192 C   0  0  0  0  0  0  0  0  0  0  0  0
  -26.2082  -19.9292   21.1555 N   0  0  0  0  0  0  0  0  0  0  0  0
  -25.7928  -21.2008   21.0264 N   0  0  0  0  0  0  0  0  0  0  0  0
  -29.4770  -27.3940   21.3520 N   0  0  0  0  0  0  0  0  0  0  0  0
  -22.0298  -21.8444   21.1486 N   0  0  0  0  0  0  0  0  0  0  0  0
  -26.4165  -23.3121   20.1524 N   0  0  0  0  0  0  0  0  0  0  0  0
  -29.9230  -20.6696   19.0950 N   0  0  0  0  0  0  0  0  0  0  0  0
  -30.9824  -26.8752   18.3798 N   0  0  0  0  0  0  0  0  0  0  0  0
  -30.5645  -27.0097   24.5344 N   0  0  0  0  0  0  0  0  0  0  0  0
  -20.0670  -23.1647   21.1912 N   0  0  0  0  0  0  0  0  0  0  0  0
  -20.5275  -27.4190   22.1830 N   0  3  2  0  0  0  0  0  0  0  0  0
  -29.1227  -29.2670   26.9620 N   0  3  0  0  0  0  0  0  0  0  0  0
  -29.0934  -22.8034   18.9639 O   0  0  0  0  0  0  0  0  0  0  0  0
  -28.7636  -26.3118   18.8065 O   0  0  0  0  0  0  0  0  0  0  0  0
  -31.7297  -27.4359   21.9518 O   0  0  0  0  0  0  0  0  0  0  0  0
  -28.3776  -27.1251   25.2966 O   0  0  0  0  0  0  0  0  0  0  0  0
  -21.6622  -23.5150   19.5827 O   0  0  0  0  0  0  0  0  0  0  0  0
  -30.4353  -15.2491   20.2742 O   0  0  0  0  0  0  0  0  0  0  0  0
  -23.3412  -27.5564   20.7359 O   0  0  0  0  0  0  0  0  0  1  0  0
  -27.8408  -10.6019   18.8331 F   0  0  0  0  0  0  0  0  0  0  0  0
  -28.3396  -14.2673   21.7864 F   0  0  0  0  0  0  0  0  0  0  0  0
  1  2  1  0  0  0  0
  1  5  2  0  0  0  0
  2  6  2  0  0  0  0
  3 10  2  0  0  0  0
  3 17  1  0  0  0  0
  4 11  1  0  0  0  0
  4 17  2  0  0  0  0
  5 19  1  0  0  0  0
  6 21  1  0  0  0  0
  7 12  2  0  0  0  0
  7 20  1  0  0  0  0
  8  9  1  0  0  0  0
  8 23  2  0  0  0  0
  9 24  2  0  0  0  0
 10 27  1  0  0  0  0
 11 27  2  0  0  0  0
 12 28  1  0  0  0  0
 13 14  2  0  0  0  0
 13 29  1  0  0  0  0
 14 30  1  0  0  0  0
 15 22  1  0  0  0  0
 15 28  2  0  0  0  0
 16 30  2  0  0  0  0
 16 31  1  0  0  0  0
 17 32  1  0  0  0  0
 18 32  1  0  0  0  0
 18 33  2  0  0  0  0
 18 34  1  0  0  0  0
 19 21  2  0  0  0  0
 19 39  1  0  0  0  0
 20 22  2  0  0  0  0
 20 40  1  0  0  0  0
 21 51  1  0  0  0  0
 22 41  1  0  0  0  0
 23 25  1  0  0  0  0
 23 55  1  0  0  0  0
 24 26  1  0  0  0  0
 24 62  1  0  0  0  0
 25 26  2  0  0  0  0
 25 56  1  0  0  0  0
 26 63  1  0  0  0  0
 27 83  1  0  0  0  0
 28 84  1  0  0  0  0
 29 31  2  0  0  0  0
 29 83  1  0  0  0  0
 30 85  1  0  0  0  0
 31 86  1  0  0  0  0
 32 67  2  0  0  0  0
 33 68  1  0  0  0  0
 33 71  1  0  0  0  0
 34 72  1  0  0  0  0
 34 78  2  0  0  0  0
 35 52  1  0  0  0  0
 35 73  1  0  0  0  0
 35 79  2  0  0  0  0
 36 64  1  0  0  0  0
 36 69  1  0  0  0  0
 36 80  2  0  0  0  0
 37 65  1  0  0  0  0
 37 74  1  0  0  0  0
 37 81  2  0  0  0  0
 38 70  1  0  0  0  0
 38 75  1  0  0  0  0
 38 82  2  0  0  0  0
 39 42  1  0  0  0  0
 40 52  1  0  0  0  0
 41 69  1  0  0  0  0
 42 44  1  0  0  0  0
 43 45  1  0  0  0  0
 43 47  1  0  0  0  0
 44 51  1  0  0  0  0
 45 53  1  0  0  0  0
 46 49  1  0  0  0  0
 46 54  1  0  0  0  0
 47 70  1  0  0  0  0
 48 53  1  0  0  0  0
 48 70  1  0  0  0  0
 49 76  1  0  0  0  0
 50 54  1  0  0  0  0
 50 76  1  0  0  0  0
 51 73  1  0  0  0  0
 52 69  1  0  0  0  0
 53 68  1  0  0  0  0
 54 84  1  0  0  0  0
 57 65  1  0  0  0  0
 58 66  1  0  0  0  0
 59 66  1  0  0  0  0
 60 66  1  0  0  0  0
 61 77  1  0  0  0  0
 62 75  1  0  0  0  0
 63 76  1  0  0  0  0
 64 66  1  0  0  0  0
 64 74  1  0  0  0  0
 65 77  1  0  0  0  0
 67 68  1  0  0  0  0
M  CHG  2  76   1  77   1
M  ISO  4  38 100  54 101  75 100  84 101
M  END
> <Batch ID>
0030

> <Smiles>
CNC(C)C(=O)NC(C(=O)N1Cc2cc([101O:1][101CH:1]3CCN(Cc4c(C[100NH:0][100C:0](=O)N5CCCC(n6nc(-c7ccc(Oc8ccc(F)cc8F)cc7)c(C(N)=O)c6N)C5)ccc(C)c4C)C3)ccc2CC1C(=O)NC1CCCc2ccccc21)C(C)(C)C

> <Shape>
0.216

> <Color>
0.059

> <Negative vol penalty>
0.000

$$$$

  -OEChem-04042321363D

 86 95  0     1  0  0  0  0  0999 V2000
  -42.9109  -29.7207   17.6195 C   0  0  0  0  0  0  0  0  0  0  0  0
  -41.6616  -30.3021   17.8108 C   0  0  0  0  0  0  0  0  0  0  0  0
  -23.4403  -10.0048   22.2179 C   0  0  0  0  0  0  0  0  0  0  0  0
  -23.5381   -9.6532   19.8296 C   0  0  0  0  0  0  0  0  0  0  0  0
  -43.0672  -28.6992   16.6836 C   0  0  0  0  0  0  0  0  0  0  0  0
  -40.5680  -29.8630   17.0654 C   0  0  0  0  0  0  0  0  0  0  0  0
  -33.6505  -27.1380   19.4631 C   0  0  0  0  0  0  0  0  0  0  0  0
  -22.7039   -8.8289   22.3609 C   0  0  0  0  0  0  0  0  0  0  0  0
  -22.8017   -8.4773   19.9726 C   0  0  0  0  0  0  0  0  0  0  0  0
  -32.4509  -26.4931   19.7656 C   0  0  0  0  0  0  0  0  0  0  0  0
  -19.5059   -7.8248   21.9260 C   0  0  0  0  0  0  0  0  0  0  0  0
  -18.3871   -7.8589   22.7582 C   0  0  0  0  0  0  0  0  0  0  0  0
  -32.5149  -25.3516   17.6347 C   0  0  0  0  0  0  0  0  0  0  0  0
  -31.6558  -18.3557   20.5490 C   0  0  0  0  0  0  0  0  0  0  0  0
  -29.2423  -19.7302   20.8113 C   0  0  0  0  0  0  0  0  0  0  0  0
  -19.3679   -6.1424   24.1470 C   0  0  0  0  0  0  0  0  0  0  0  0
  -23.8574  -10.4170   20.9522 C   0  0  0  0  0  0  0  0  0  0  0  0
  -24.2190  -12.9335   21.1629 C   0  0  0  0  0  0  0  0  0  0  0  0
  -41.9729  -28.2407   15.9332 C   0  0  0  0  0  0  0  0  0  0  0  0
  -34.2955  -26.8800   18.2503 C   0  0  0  0  0  0  0  0  0  0  0  0
  -40.7101  -28.8353   16.1176 C   0  0  0  0  0  0  0  0  0  0  0  0
  -33.7231  -25.9850   17.3315 C   0  0  0  0  0  0  0  0  0  0  0  0
  -30.6827  -17.8935   21.4350 C   0  0  0  0  0  0  0  0  0  0  0  0
  -30.2155  -20.1924   19.9252 C   0  0  0  0  0  0  0  0  0  0  0  0
  -22.3846   -8.0651   21.2382 C   0  0  0  0  0  0  0  0  0  0  0  0
  -31.8845  -25.6024   18.8535 C   0  0  0  0  0  0  0  0  0  0  0  0
  -20.5557   -6.9495   22.2042 C   0  0  0  0  0  0  0  0  0  0  0  0
  -18.3181   -7.0177   23.8688 C   0  0  0  0  0  0  0  0  0  0  0  0
  -20.4867   -6.1083   23.3147 C   0  0  0  0  0  0  0  0  0  0  0  0
  -31.4222  -19.5052   19.7941 C   0  0  0  0  0  0  0  0  0  0  0  0
  -29.4760  -18.5807   21.5662 C   0  0  0  0  0  0  0  0  0  0  0  0
  -24.6177  -11.6320   20.8038 C   0  0  0  0  0  0  0  0  0  0  0  0
  -25.2875  -13.7262   20.8217 C   0  0  0  0  0  0  0  0  0  0  0  0
  -22.9926  -13.3854   21.7521 C   0  0  0  0  0  0  0  0  0  0  0  0
  -37.2391  -27.5715   16.0293 C   0  0  0  0  0  0  0  0  0  0  0  0
  -36.6670  -24.5636   15.8398 C   0  0  0  0  0  0  0  0  0  0  0  0
  -35.9728  -21.2471   16.2346 C   0  0  0  0  0  0  0  0  0  0  0  0
  -30.7806  -14.7049   20.7067 C   0  0  0  0  0  0  0  0  0  0  0  0
  -42.2006  -27.1664   14.8994 C   0  0  0  0  0  0  0  0  0  0  0  0
  -35.5575  -27.5983   17.8563 C   0  0  0  0  0  0  0  0  0  0  0  0
  -34.4345  -25.7646   16.0245 C   0  0  0  0  0  0  0  0  0  0  0  0
  -40.9134  -26.5023   14.4175 C   0  0  0  0  0  0  0  0  0  0  0  0
  -29.4264  -12.6837   18.1072 C   0  0  0  0  0  0  0  0  0  0  0  0
  -28.9581  -22.3476   17.1572 C   0  0  0  0  0  0  0  0  0  0  0  0
  -39.8568  -27.5550   14.0981 C   0  0  0  0  0  0  0  0  0  0  0  0
  -28.0249  -12.3324   18.6094 C   0  0  0  0  0  0  0  0  0  0  0  0
  -29.2815  -23.7316   17.6994 C   0  0  0  0  0  0  0  0  0  0  0  0
  -28.7909  -21.3289   18.2823 C   0  0  0  0  0  0  0  0  0  0  0  0
  -30.4396  -12.7314   19.2488 C   0  0  0  0  0  0  0  0  0  0  0  0
  -28.6642  -13.2596   20.8745 C   0  0  0  0  0  0  0  0  0  0  0  0
  -30.3489  -22.6547   19.7192 C   0  0  0  0  0  0  0  0  0  0  0  0
  -39.4945  -28.3694   15.3459 C   0  0  1  0  0  0  0  0  0  0  0  0
  -36.5196  -26.7215   17.0349 C   0  0  1  0  0  0  0  0  0  0  0  0
  -27.5966  -13.2544   19.7669 C   0  0  2  0  0  0  0  0  0  0  0  0
  -30.5122  -23.6796   18.5959 C   0  0  2  0  0  0  0  0  0  1  0  0
  -36.7017  -18.9757   15.4554 C   0  0  0  0  0  0  0  0  0  0  0  0
  -35.2446  -25.0234   13.1810 C   0  0  0  0  0  0  0  0  0  0  0  0
  -35.1668  -22.5399   12.8742 C   0  0  0  0  0  0  0  0  0  0  0  0
  -37.3658  -23.7091   13.0161 C   0  0  0  0  0  0  0  0  0  0  0  0
  -36.7007  -20.4114   18.9789 C   0  0  0  0  0  0  0  0  0  0  0  0
  -30.9715  -16.6583   22.2256 C   0  0  0  0  0  0  0  0  0  0  0  0
  -35.9605  -23.4544   15.1023 C   0  0  1  0  0  0  0  0  0  0  0  0
  -36.8717  -20.0557   16.5125 C   0  0  2  0  0  0  0  0  0  0  0  0
  -35.9231  -23.6938   13.5665 C   0  0  0  0  0  0  0  0  0  0  0  0
  -25.8436  -11.5956   20.2749 N   0  0  0  0  0  0  0  0  0  0  0  0
  -26.2245  -12.8842   20.2991 N   0  0  0  0  0  0  0  0  0  0  0  0
  -29.9528  -21.3498   19.1818 N   0  0  1  0  0  0  0  0  0  0  0  0
  -35.8829  -25.6470   16.2545 N   0  0  0  0  0  0  0  0  0  0  0  0
  -29.9743  -13.6243   20.3130 N   0  0  0  0  0  0  0  0  0  0  0  0
  -25.5075  -15.0545   20.9208 N   0  0  0  0  0  0  0  0  0  0  0  0
  -21.9415  -13.7590   20.9036 N   0  0  0  0  0  0  0  0  0  0  0  0
  -38.6092  -27.6120   16.2043 N   0  0  0  0  0  0  0  0  0  0  0  0
  -36.6216  -22.2155   15.4980 N   0  0  0  0  0  0  0  0  0  0  0  0
  -30.2622  -15.5053   21.7173 N   0  0  0  0  0  0  0  0  0  0  0  0
  -36.5526  -19.4653   17.8431 N   0  3  0  0  0  0  0  0  0  0  0  0
  -22.8392  -13.4715   22.9941 O   0  0  0  0  0  0  0  0  0  0  0  0
  -36.5995  -28.1475   15.1571 O   0  0  0  0  0  0  0  0  0  0  0  0
  -37.8819  -24.4772   16.0392 O   0  0  0  0  0  0  0  0  0  0  0  0
  -34.8103  -21.3105   16.6282 O   0  0  0  0  0  0  0  0  0  0  0  0
  -31.8786  -14.9423   20.1918 O   0  0  0  0  0  0  0  0  0  0  0  0
  -21.6662   -6.9175   21.3774 O   0  0  0  0  0  0  0  0  0  0  0  0
  -30.7156  -24.9729   19.1570 O   0  0  0  0  0  0  0  0  0  1  0  0
  -17.2443   -7.0516   24.6688 F   0  0  0  0  0  0  0  0  0  0  0  0
  -21.4927   -5.2662   23.5878 F   0  0  0  0  0  0  0  0  0  0  0  0
  -32.6539  -20.0435   18.7089 Cl  0  0  0  0  0  0  0  0  0  0  0  0
  -28.2485  -18.0378   22.6516 Cl  0  0  0  0  0  0  0  0  0  0  0  0
  1  2  1  0  0  0  0
  1  5  2  0  0  0  0
  2  6  2  0  0  0  0
  3  8  2  0  0  0  0
  3 17  1  0  0  0  0
  4  9  1  0  0  0  0
  4 17  2  0  0  0  0
  5 19  1  0  0  0  0
  6 21  1  0  0  0  0
  7 10  2  0  0  0  0
  7 20  1  0  0  0  0
  8 25  1  0  0  0  0
  9 25  2  0  0  0  0
 10 26  1  0  0  0  0
 11 12  2  0  0  0  0
 11 27  1  0  0  0  0
 12 28  1  0  0  0  0
 13 22  1  0  0  0  0
 13 26  2  0  0  0  0
 14 23  2  0  0  0  0
 14 30  1  0  0  0  0
 15 24  1  0  0  0  0
 15 31  2  0  0  0  0
 16 28  2  0  0  0  0
 16 29  1  0  0  0  0
 17 32  1  0  0  0  0
 18 32  1  0  0  0  0
 18 33  2  0  0  0  0
 18 34  1  0  0  0  0
 19 21  2  0  0  0  0
 19 39  1  0  0  0  0
 20 22  2  0  0  0  0
 20 40  1  0  0  0  0
 21 52  1  0  0  0  0
 22 41  1  0  0  0  0
 23 31  1  0  0  0  0
 23 61  1  0  0  0  0
 24 30  2  0  0  0  0
 24 67  1  0  0  0  0
 25 81  1  0  0  0  0
 26 82  1  0  0  0  0
 27 29  2  0  0  0  0
 27 81  1  0  0  0  0
 28 83  1  0  0  0  0
 29 84  1  0  0  0  0
 30 85  1  0  0  0  0
 31 86  1  0  0  0  0
 32 65  2  0  0  0  0
 33 66  1  0  0  0  0
 33 70  1  0  0  0  0
 34 71  1  0  0  0  0
 34 76  2  0  0  0  0
 35 53  1  0  0  0  0
 35 72  1  0  0  0  0
 35 77  2  0  0  0  0
 36 62  1  0  0  0  0
 36 68  1  0  0  0  0
 36 78  2  0  0  0  0
 37 63  1  0  0  0  0
 37 73  1  0  0  0  0
 37 79  2  0  0  0  0
 38 69  1  0  0  0  0
 38 74  1  0  0  0  0
 38 80  2  0  0  0  0
 39 42  1  0  0  0  0
 40 53  1  0  0  0  0
 41 68  1  0  0  0  0
 42 45  1  0  0  0  0
 43 46  1  0  0  0  0
 43 49  1  0  0  0  0
 44 47  1  0  0  0  0
 44 48  1  0  0  0  0
 45 52  1  0  0  0  0
 46 54  1  0  0  0  0
 47 55  1  0  0  0  0
 48 67  1  0  0  0  0
 49 69  1  0  0  0  0
 50 54  1  0  0  0  0
 50 69  1  0  0  0  0
 51 55  1  0  0  0  0
 51 67  1  0  0  0  0
 52 72  1  0  0  0  0
 53 68  1  0  0  0  0
 54 66  1  0  0  0  0
 55 82  1  0  0  0  0
 56 63  1  0  0  0  0
 57 64  1  0  0  0  0
 58 64  1  0  0  0  0
 59 64  1  0  0  0  0
 60 75  1  0  0  0  0
 61 74  1  0  0  0  0
 62 64  1  0  0  0  0
 62 73  1  0  0  0  0
 63 75  1  0  0  0  0
 65 66  1  0  0  0  0
M  CHG  1  75   1
M  ISO  4  38 100  55 101  74 100  82 101
M  END
> <Batch ID>
0030

> <Smiles>
CNC(C)C(=O)NC(C(=O)N1Cc2cc([101O:1][101CH:1]3CCCN(c4cc(Cl)c(C[100NH:0][100C:0](=O)N5CCCC(n6nc(-c7ccc(Oc8ccc(F)cc8F)cc7)c(C(N)=O)c6N)C5)cc4Cl)C3)ccc2CC1C(=O)NC1CCCc2ccccc21)C(C)(C)C

> <Shape>
0.211

> <Color>
0.174

> <Negative vol penalty>
0.000

$$$$

  -OEChem-04042321363D

 83 92  0     1  0  0  0  0  0999 V2000
  -27.7577  -32.0675   30.9310 C   0  0  0  0  0  0  0  0  0  0  0  0
  -27.7224  -30.7118   30.6207 C   0  0  0  0  0  0  0  0  0  0  0  0
  -23.0014   -9.8614   19.9998 C   0  0  0  0  0  0  0  0  0  0  0  0
  -23.7094   -9.9569   22.3078 C   0  0  0  0  0  0  0  0  0  0  0  0
  -27.6315  -33.0169   29.9177 C   0  0  0  0  0  0  0  0  0  0  0  0
  -27.5597  -30.3047   29.2970 C   0  0  0  0  0  0  0  0  0  0  0  0
  -30.0344  -25.3784   26.6299 C   0  0  0  0  0  0  0  0  0  0  0  0
  -30.6091  -19.8240   21.3226 C   0  0  0  0  0  0  0  0  0  0  0  0
  -22.2362   -8.7297   20.2814 C   0  0  0  0  0  0  0  0  0  0  0  0
  -22.9442   -8.8252   22.5894 C   0  0  0  0  0  0  0  0  0  0  0  0
  -29.5318  -24.1064   26.3592 C   0  0  0  0  0  0  0  0  0  0  0  0
  -23.2016   -5.4789   22.1808 C   0  0  0  0  0  0  0  0  0  0  0  0
  -23.7865   -4.4775   22.9558 C   0  0  0  0  0  0  0  0  0  0  0  0
  -30.8112  -19.0630   20.1713 C   0  0  0  0  0  0  0  0  0  0  0  0
  -28.9707  -24.8110   24.1213 C   0  0  0  0  0  0  0  0  0  0  0  0
  -22.0497   -4.7460   24.6136 C   0  0  0  0  0  0  0  0  0  0  0  0
  -23.7381  -10.4750   21.0130 C   0  0  0  0  0  0  0  0  0  0  0  0
  -24.1174  -12.9881   20.7935 C   0  0  0  0  0  0  0  0  0  0  0  0
  -27.4769  -32.6212   28.5797 C   0  0  0  0  0  0  0  0  0  0  0  0
  -29.9989  -26.3811   25.6502 C   0  0  0  0  0  0  0  0  0  0  0  0
  -27.4300  -31.2496   28.2650 C   0  0  0  0  0  0  0  0  0  0  0  0
  -29.4758  -26.0941   24.3813 C   0  0  0  0  0  0  0  0  0  0  0  0
  -30.0375  -17.8208   22.5464 C   0  0  0  0  0  0  0  0  0  0  0  0
  -30.2222  -19.2029   22.5102 C   0  0  0  0  0  0  0  0  0  0  0  0
  -30.2396  -17.0598   21.3950 C   0  0  0  0  0  0  0  0  0  0  0  0
  -22.2076   -8.2116   21.5762 C   0  0  0  0  0  0  0  0  0  0  0  0
  -28.9972  -23.8234   25.1057 C   0  0  0  0  0  0  0  0  0  0  0  0
  -22.0407   -6.1140   22.6223 C   0  0  0  0  0  0  0  0  0  0  0  0
  -23.2105   -4.1110   24.1722 C   0  0  0  0  0  0  0  0  0  0  0  0
  -21.4648   -5.7475   23.8386 C   0  0  0  0  0  0  0  0  0  0  0  0
  -30.6265  -17.6809   20.2075 C   0  0  0  0  0  0  0  0  0  0  0  0
  -24.5292  -11.6437   20.7226 C   0  0  0  0  0  0  0  0  0  0  0  0
  -25.2278  -13.7072   20.4240 C   0  0  0  0  0  0  0  0  0  0  0  0
  -22.8451  -13.5377   21.1606 C   0  0  0  0  0  0  0  0  0  0  0  0
  -28.6092  -29.2293   25.4049 C   0  0  0  0  0  0  0  0  0  0  0  0
  -30.3345  -29.4016   22.6633 C   0  0  0  0  0  0  0  0  0  0  0  0
  -31.9441  -27.7546   20.1447 C   0  0  0  0  0  0  0  0  0  0  0  0
  -30.7026  -14.6889   20.6802 C   0  0  0  0  0  0  0  0  0  0  0  0
  -27.2970  -33.6838   27.5246 C   0  0  0  0  0  0  0  0  0  0  0  0
  -30.5694  -27.7403   25.9494 C   0  0  0  0  0  0  0  0  0  0  0  0
  -29.4330  -27.1296   23.2885 C   0  0  0  0  0  0  0  0  0  0  0  0
  -27.5038  -33.1706   26.1019 C   0  0  0  0  0  0  0  0  0  0  0  0
  -29.6085  -12.1903   18.3918 C   0  0  0  0  0  0  0  0  0  0  0  0
  -26.7558  -31.8576   25.8940 C   0  0  0  0  0  0  0  0  0  0  0  0
  -28.1556  -11.9359   18.8000 C   0  0  0  0  0  0  0  0  0  0  0  0
  -30.4994  -12.4586   19.6034 C   0  0  0  0  0  0  0  0  0  0  0  0
  -28.5720  -13.2661   20.9081 C   0  0  0  0  0  0  0  0  0  0  0  0
  -28.8286  -20.1124   24.3973 C   0  0  0  0  0  0  0  0  0  0  0  0
  -30.4671  -21.3158   23.8541 C   0  0  0  0  0  0  0  0  0  0  0  0
  -27.2799  -30.7687   26.8381 C   0  0  1  0  0  0  0  0  0  0  0  0
  -30.0132  -28.8344   25.0433 C   0  0  1  0  0  0  0  0  0  0  0  0
  -27.6237  -13.0550   19.7166 C   0  0  2  0  0  0  0  0  0  0  0  0
  -29.3846  -21.4380   24.9363 C   0  0  0  0  0  0  0  0  0  1  0  0
  -29.6226  -17.1584   23.8242 C   0  0  0  0  0  0  0  0  0  0  0  0
  -33.2265  -28.1645   18.0270 C   0  0  0  0  0  0  0  0  0  0  0  0
  -27.7275  -30.0351   21.2100 C   0  0  0  0  0  0  0  0  0  0  0  0
  -28.8798  -29.4962   19.0537 C   0  0  0  0  0  0  0  0  0  0  0  0
  -29.6939  -31.3873   20.4622 C   0  0  0  0  0  0  0  0  0  0  0  0
  -34.3688  -26.4437   21.2224 C   0  0  0  0  0  0  0  0  0  0  0  0
  -30.0973  -29.0107   21.2246 C   0  0  1  0  0  0  0  0  0  0  0  0
  -33.3181  -27.9505   19.5299 C   0  0  2  0  0  0  0  0  0  0  0  0
  -29.0985  -29.9632   20.5086 C   0  0  0  0  0  0  0  0  0  0  0  0
  -25.8017  -11.5138   20.3381 N   0  0  0  0  0  0  0  0  0  0  0  0
  -26.1991  -12.7857   20.1640 N   0  0  0  0  0  0  0  0  0  0  0  0
  -30.0291  -19.9792   23.6475 N   0  0  0  0  0  0  0  0  0  0  0  0
  -29.9972  -28.4454   23.6317 N   0  0  0  0  0  0  0  0  0  0  0  0
  -29.9351  -13.5332   20.4230 N   0  0  0  0  0  0  0  0  0  0  0  0
  -25.4582  -15.0315   20.2992 N   0  0  0  0  0  0  0  0  0  0  0  0
  -21.8133  -12.6569   21.5128 N   0  0  0  0  0  0  0  0  0  0  0  0
  -30.0498  -15.6564   21.4434 N   0  0  0  0  0  0  0  0  0  0  0  0
  -28.5333  -30.2358   26.3486 N   0  0  0  0  0  0  0  0  0  0  0  0
  -31.4130  -28.9437   20.5976 N   0  0  0  0  0  0  0  0  0  0  0  0
  -34.1740  -26.7570   19.7833 N   0  3  0  0  0  0  0  0  0  0  0  0
  -22.6247  -14.7726   21.1601 O   0  0  0  0  0  0  0  0  0  0  0  0
  -27.6648  -28.6638   24.8664 O   0  0  0  0  0  0  0  0  0  0  0  0
  -30.8084  -30.5116   22.9182 O   0  0  0  0  0  0  0  0  0  0  0  0
  -31.3951  -26.6571   20.2128 O   0  0  0  0  0  0  0  0  0  0  0  0
  -31.8441  -14.8229   20.2321 O   0  0  0  0  0  0  0  0  0  0  0  0
  -21.4608   -7.1075   21.8513 O   0  0  0  0  0  0  0  0  0  0  0  0
  -28.5054  -22.5829   24.8390 O   0  0  0  0  0  0  0  0  0  1  0  0
  -23.7715   -3.1483   24.9156 F   0  0  0  0  0  0  0  0  0  0  0  0
  -20.3489   -6.3531   24.2674 F   0  0  0  0  0  0  0  0  0  0  0  0
  -30.8891  -16.7803   18.7561 Cl  0  0  0  0  0  0  0  0  0  0  0  0
  1  2  1  0  0  0  0
  1  5  2  0  0  0  0
  2  6  2  0  0  0  0
  3  9  2  0  0  0  0
  3 17  1  0  0  0  0
  4 10  1  0  0  0  0
  4 17  2  0  0  0  0
  5 19  1  0  0  0  0
  6 21  1  0  0  0  0
  7 11  2  0  0  0  0
  7 20  1  0  0  0  0
  8 14  2  0  0  0  0
  8 24  1  0  0  0  0
  9 26  1  0  0  0  0
 10 26  2  0  0  0  0
 11 27  1  0  0  0  0
 12 13  2  0  0  0  0
 12 28  1  0  0  0  0
 13 29  1  0  0  0  0
 14 31  1  0  0  0  0
 15 22  1  0  0  0  0
 15 27  2  0  0  0  0
 16 29  2  0  0  0  0
 16 30  1  0  0  0  0
 17 32  1  0  0  0  0
 18 32  1  0  0  0  0
 18 33  2  0  0  0  0
 18 34  1  0  0  0  0
 19 21  2  0  0  0  0
 19 39  1  0  0  0  0
 20 22  2  0  0  0  0
 20 40  1  0  0  0  0
 21 50  1  0  0  0  0
 22 41  1  0  0  0  0
 23 24  2  0  0  0  0
 23 25  1  0  0  0  0
 23 54  1  0  0  0  0
 24 65  1  0  0  0  0
 25 31  2  0  0  0  0
 25 70  1  0  0  0  0
 26 79  1  0  0  0  0
 27 80  1  0  0  0  0
 28 30  2  0  0  0  0
 28 79  1  0  0  0  0
 29 81  1  0  0  0  0
 30 82  1  0  0  0  0
 31 83  1  0  0  0  0
 32 63  2  0  0  0  0
 33 64  1  0  0  0  0
 33 68  1  0  0  0  0
 34 69  1  0  0  0  0
 34 74  2  0  0  0  0
 35 51  1  0  0  0  0
 35 71  1  0  0  0  0
 35 75  2  0  0  0  0
 36 60  1  0  0  0  0
 36 66  1  0  0  0  0
 36 76  2  0  0  0  0
 37 61  1  0  0  0  0
 37 72  1  0  0  0  0
 37 77  2  0  0  0  0
 38 67  1  0  0  0  0
 38 70  1  0  0  0  0
 38 78  2  0  0  0  0
 39 42  1  0  0  0  0
 40 51  1  0  0  0  0
 41 66  1  0  0  0  0
 42 44  1  0  0  0  0
 43 45  1  0  0  0  0
 43 46  1  0  0  0  0
 44 50  1  0  0  0  0
 45 52  1  0  0  0  0
 46 67  1  0  0  0  0
 47 52  1  0  0  0  0
 47 67  1  0  0  0  0
 48 53  1  0  0  0  0
 48 65  1  0  0  0  0
 49 53  1  0  0  0  0
 49 65  1  0  0  0  0
 50 71  1  0  0  0  0
 51 66  1  0  0  0  0
 52 64  1  0  0  0  0
 53 80  1  0  0  0  0
 55 61  1  0  0  0  0
 56 62  1  0  0  0  0
 57 62  1  0  0  0  0
 58 62  1  0  0  0  0
 59 73  1  0  0  0  0
 60 62  1  0  0  0  0
 60 72  1  0  0  0  0
 61 73  1  0  0  0  0
 63 64  1  0  0  0  0
M  CHG  1  73   1
M  ISO  4  38 100  53 101  70 100  80 101
M  END
> <Batch ID>
0030

> <Smiles>
CNC(C)C(=O)NC(C(=O)N1Cc2cc([101O:1][101CH:1]3CN(c4ccc(Cl)c([100NH:0][100C:0](=O)N5CCCC(n6nc(-c7ccc(Oc8ccc(F)cc8F)cc7)c(C(N)=O)c6N)C5)c4C)C3)ccc2CC1C(=O)NC1CCCc2ccccc21)C(C)(C)C

> <Shape>
0.243

> <Color>
0.203

> <Negative vol penalty>
0.000

$$$$

  -OEChem-04042321363D

 87 96  0     1  0  0  0  0  0999 V2000
  -22.6025  -18.8689   19.5681 C   0  0  0  0  0  0  0  0  0  0  0  0
  -23.8310  -19.5108   19.4489 C   0  0  0  0  0  0  0  0  0  0  0  0
  -25.9240  -12.8701   19.2763 C   0  0  0  0  0  0  0  0  0  0  0  0
  -25.3857  -14.5317   20.9455 C   0  0  0  0  0  0  0  0  0  0  0  0
  -21.4234  -19.5719   19.3246 C   0  0  0  0  0  0  0  0  0  0  0  0
  -23.8811  -20.8559   19.0849 C   0  0  0  0  0  0  0  0  0  0  0  0
  -27.7349  -26.7950   20.1766 C   0  0  0  0  0  0  0  0  0  0  0  0
  -32.0910  -25.7734   18.3711 C   0  0  0  0  0  0  0  0  0  0  0  0
  -31.7758  -24.8302   19.3492 C   0  0  0  0  0  0  0  0  0  0  0  0
  -25.5207  -11.8610   20.1507 C   0  0  0  0  0  0  0  0  0  0  0  0
  -24.9823  -13.5226   21.8199 C   0  0  0  0  0  0  0  0  0  0  0  0
  -28.3886  -27.8006   19.4658 C   0  0  0  0  0  0  0  0  0  0  0  0
  -24.2935   -8.8694   21.8120 C   0  0  0  0  0  0  0  0  0  0  0  0
  -23.4889   -7.8514   21.3004 C   0  0  0  0  0  0  0  0  0  0  0  0
  -26.2838  -28.9352   19.1469 C   0  0  0  0  0  0  0  0  0  0  0  0
  -29.9861  -25.3345   17.2694 C   0  0  0  0  0  0  0  0  0  0  0  0
  -21.8084   -9.4806   20.7015 C   0  0  0  0  0  0  0  0  0  0  0  0
  -25.8565  -14.2055   19.6737 C   0  0  0  0  0  0  0  0  0  0  0  0
  -25.7402  -15.5365   17.5006 C   0  0  0  0  0  0  0  0  0  0  0  0
  -21.4586  -20.9289   18.9669 C   0  0  0  0  0  0  0  0  0  0  0  0
  -26.3468  -26.8465   20.3689 C   0  0  0  0  0  0  0  0  0  0  0  0
  -22.7014  -21.5775   18.8351 C   0  0  0  0  0  0  0  0  0  0  0  0
  -25.6152  -27.9304   19.8627 C   0  0  0  0  0  0  0  0  0  0  0  0
  -31.1961  -26.0257   17.3313 C   0  0  0  0  0  0  0  0  0  0  0  0
  -30.5658  -24.1391   19.2873 C   0  0  0  0  0  0  0  0  0  0  0  0
  -25.0498  -12.1872   21.4225 C   0  0  0  0  0  0  0  0  0  0  0  0
  -27.6627  -28.8694   18.9484 C   0  0  0  0  0  0  0  0  0  0  0  0
  -23.8556  -10.1931   21.7684 C   0  0  0  0  0  0  0  0  0  0  0  0
  -22.2463   -8.1569   20.7451 C   0  0  0  0  0  0  0  0  0  0  0  0
  -22.6130  -10.4987   21.2131 C   0  0  0  0  0  0  0  0  0  0  0  0
  -29.6709  -24.3912   18.2474 C   0  0  0  0  0  0  0  0  0  0  0  0
  -26.2736  -15.2483   18.7711 C   0  0  0  0  0  0  0  0  0  0  0  0
  -26.4746  -16.6081   17.0549 C   0  0  0  0  0  0  0  0  0  0  0  0
  -24.6760  -14.8930   16.7870 C   0  0  0  0  0  0  0  0  0  0  0  0
  -23.8962  -25.0043   19.5296 C   0  0  0  0  0  0  0  0  0  0  0  0
  -22.2142  -27.0666   21.3844 C   0  0  0  0  0  0  0  0  0  0  0  0
  -21.9768  -30.1690   22.7864 C   0  0  0  0  0  0  0  0  0  0  0  0
  -29.3944  -20.8494   19.9431 C   0  0  0  0  0  0  0  0  0  0  0  0
  -20.1598  -21.6347   18.6676 C   0  0  0  0  0  0  0  0  0  0  0  0
  -25.6604  -25.7676   21.1609 C   0  0  0  0  0  0  0  0  0  0  0  0
  -24.1262  -28.0429   20.0590 C   0  0  0  0  0  0  0  0  0  0  0  0
  -20.2829  -23.1562   18.6517 C   0  0  0  0  0  0  0  0  0  0  0  0
  -31.8104  -31.1946   17.7462 C   0  0  0  0  0  0  0  0  0  0  0  0
  -30.8001  -18.6149   17.4675 C   0  0  0  0  0  0  0  0  0  0  0  0
  -32.1103  -30.8588   16.2883 C   0  0  0  0  0  0  0  0  0  0  0  0
  -21.5037  -23.5845   17.8436 C   0  0  0  0  0  0  0  0  0  0  0  0
  -29.7336  -17.5200   17.4056 C   0  0  0  0  0  0  0  0  0  0  0  0
  -30.3192  -31.1262   18.0646 C   0  0  0  0  0  0  0  0  0  0  0  0
  -30.9837  -19.1278   18.8928 C   0  0  0  0  0  0  0  0  0  0  0  0
  -28.6656  -18.5272   19.4756 C   0  0  0  0  0  0  0  0  0  0  0  0
  -32.2872  -29.3797   15.9664 C   0  0  0  0  0  0  0  0  0  0  0  0
  -29.9511  -28.8869   16.8396 C   0  0  0  0  0  0  0  0  0  0  0  0
  -22.7957  -23.0422   18.4666 C   0  0  1  0  0  0  0  0  0  0  0  0
  -24.1699  -25.6580   20.8545 C   0  0  1  0  0  0  0  0  0  0  0  0
  -28.4170  -17.9827   18.0572 C   0  0  2  0  0  0  0  0  0  0  0  0
  -29.7140  -29.7239   18.0922 C   0  0  2  0  0  0  0  0  0  1  0  0
  -20.4694  -31.5728   24.2198 C   0  0  0  0  0  0  0  0  0  0  0  0
  -20.3505  -27.4898   19.0058 C   0  0  0  0  0  0  0  0  0  0  0  0
  -19.4809  -29.5444   20.1418 C   0  0  0  0  0  0  0  0  0  0  0  0
  -19.1959  -27.3116   21.2170 C   0  0  0  0  0  0  0  0  0  0  0  0
  -24.0471  -30.4598   24.8812 C   0  0  0  0  0  0  0  0  0  0  0  0
  -30.2661  -23.1360   20.3539 C   0  0  0  0  0  0  0  0  0  0  0  0
  -31.5351  -27.0401   16.2792 C   0  0  0  0  0  0  0  0  0  0  0  0
  -21.4907  -28.3704   21.1483 C   0  0  1  0  0  0  0  0  0  0  0  0
  -21.6487  -30.6128   24.2006 C   0  0  2  0  0  0  0  0  0  0  0  0
  -20.1573  -28.1762   20.3727 C   0  0  0  0  0  0  0  0  0  0  0  0
  -27.2700  -16.0704   19.1106 N   0  0  0  0  0  0  0  0  0  0  0  0
  -27.3686  -16.8857   18.0468 N   0  0  0  0  0  0  0  0  0  0  0  0
  -23.4997  -26.9598   20.8349 N   0  0  0  0  0  0  0  0  0  0  0  0
  -29.6968  -19.5699   19.4483 N   0  0  0  0  0  0  0  0  0  0  0  0
  -26.4365  -17.3306   15.9152 N   0  0  0  0  0  0  0  0  0  0  0  0
  -23.3686  -15.3637   16.9699 N   0  0  0  0  0  0  0  0  0  0  0  0
  -23.1708  -23.8316   19.6201 N   0  0  0  0  0  0  0  0  0  0  0  0
  -21.3348  -28.9936   22.4582 N   0  0  0  0  0  0  0  0  0  0  0  0
  -30.4277  -21.7768   19.8876 N   0  0  0  0  0  0  0  0  0  0  0  0
  -31.3978  -28.4632   16.7636 N   0  3  1  0  0  0  0  0  0  0  0  0
  -22.8219  -31.2973   24.8139 N   0  3  0  0  0  0  0  0  0  0  0  0
  -24.8764  -13.9186   16.0229 O   0  0  0  0  0  0  0  0  0  0  0  0
  -24.3110  -25.5259   18.5013 O   0  0  0  0  0  0  0  0  0  0  0  0
  -21.6621  -26.1784   22.0385 O   0  0  0  0  0  0  0  0  0  0  0  0
  -22.7245  -30.8035   22.0457 O   0  0  0  0  0  0  0  0  0  0  0  0
  -28.2834  -21.1455   20.3961 O   0  0  0  0  0  0  0  0  0  0  0  0
  -24.6559  -11.2028   22.2759 O   0  0  0  0  0  0  0  0  0  0  0  0
  -28.2982  -29.8519   18.2536 O   0  0  0  0  0  0  0  0  0  1  0  0
  -21.4744   -7.1794   20.2525 F   0  0  0  0  0  0  0  0  0  0  0  0
  -22.1874  -11.7685   21.1673 F   0  0  0  0  0  0  0  0  0  0  0  0
  -28.1651  -23.5546   18.1381 Cl  0  0  0  0  0  0  0  0  0  0  0  0
  1  2  1  0  0  0  0
  1  5  2  0  0  0  0
  2  6  2  0  0  0  0
  3 10  2  0  0  0  0
  3 18  1  0  0  0  0
  4 11  1  0  0  0  0
  4 18  2  0  0  0  0
  5 20  1  0  0  0  0
  6 22  1  0  0  0  0
  7 12  2  0  0  0  0
  7 21  1  0  0  0  0
  8  9  2  0  0  0  0
  8 24  1  0  0  0  0
  9 25  1  0  0  0  0
 10 26  1  0  0  0  0
 11 26  2  0  0  0  0
 12 27  1  0  0  0  0
 13 14  2  0  0  0  0
 13 28  1  0  0  0  0
 14 29  1  0  0  0  0
 15 23  1  0  0  0  0
 15 27  2  0  0  0  0
 16 24  2  0  0  0  0
 16 31  1  0  0  0  0
 17 29  2  0  0  0  0
 17 30  1  0  0  0  0
 18 32  1  0  0  0  0
 19 32  1  0  0  0  0
 19 33  2  0  0  0  0
 19 34  1  0  0  0  0
 20 22  2  0  0  0  0
 20 39  1  0  0  0  0
 21 23  2  0  0  0  0
 21 40  1  0  0  0  0
 22 53  1  0  0  0  0
 23 41  1  0  0  0  0
 24 63  1  0  0  0  0
 25 31  2  0  0  0  0
 25 62  1  0  0  0  0
 26 83  1  0  0  0  0
 27 84  1  0  0  0  0
 28 30  2  0  0  0  0
 28 83  1  0  0  0  0
 29 85  1  0  0  0  0
 30 86  1  0  0  0  0
 31 87  1  0  0  0  0
 32 67  2  0  0  0  0
 33 68  1  0  0  0  0
 33 71  1  0  0  0  0
 34 72  1  0  0  0  0
 34 78  2  0  0  0  0
 35 54  1  0  0  0  0
 35 73  1  0  0  0  0
 35 79  2  0  0  0  0
 36 64  1  0  0  0  0
 36 69  1  0  0  0  0
 36 80  2  0  0  0  0
 37 65  1  0  0  0  0
 37 74  1  0  0  0  0
 37 81  2  0  0  0  0
 38 70  1  0  0  0  0
 38 75  1  0  0  0  0
 38 82  2  0  0  0  0
 39 42  1  0  0  0  0
 40 54  1  0  0  0  0
 41 69  1  0  0  0  0
 42 46  1  0  0  0  0
 43 45  1  0  0  0  0
 43 48  1  0  0  0  0
 44 47  1  0  0  0  0
 44 49  1  0  0  0  0
 45 51  1  0  0  0  0
 46 53  1  0  0  0  0
 47 55  1  0  0  0  0
 48 56  1  0  0  0  0
 49 70  1  0  0  0  0
 50 55  1  0  0  0  0
 50 70  1  0  0  0  0
 51 76  1  0  0  0  0
 52 56  1  0  0  0  0
 52 76  1  0  0  0  0
 53 73  1  0  0  0  0
 54 69  1  0  0  0  0
 55 68  1  0  0  0  0
 56 84  1  0  0  0  0
 57 65  1  0  0  0  0
 58 66  1  0  0  0  0
 59 66  1  0  0  0  0
 60 66  1  0  0  0  0
 61 77  1  0  0  0  0
 62 75  1  0  0  0  0
 63 76  1  0  0  0  0
 64 66  1  0  0  0  0
 64 74  1  0  0  0  0
 65 77  1  0  0  0  0
 67 68  1  0  0  0  0
M  CHG  2  76   1  77   1
M  ISO  4  38 100  56 101  75 100  84 101
M  END
> <Batch ID>
0030

> <Smiles>
CNC(C)C(=O)NC(C(=O)N1Cc2cc([101O:1][101CH:1]3CCCCN(Cc4ccc(C[100NH:0][100C:0](=O)N5CCCC(n6nc(-c7ccc(Oc8ccc(F)cc8F)cc7)c(C(N)=O)c6N)C5)c(Cl)c4)C3)ccc2CC1C(=O)NC1CCCc2ccccc21)C(C)(C)C

> <Shape>
0.222

> <Color>
0.056

> <Negative vol penalty>
0.000

$$$$

  -OEChem-04042321363D

 82 90  0     1  0  0  0  0  0999 V2000
  -29.9063  -12.7324   19.4395 C   0  0  0  0  0  0  0  0  0  0  0  0
  -29.6145  -14.0572   19.1308 C   0  0  0  0  0  0  0  0  0  0  0  0
  -20.4633  -26.2457   23.1240 C   0  0  0  0  0  0  0  0  0  0  0  0
  -19.1349  -26.2692   22.6995 C   0  0  0  0  0  0  0  0  0  0  0  0
  -27.2615  -25.2559   21.4364 C   0  0  0  0  0  0  0  0  0  0  0  0
  -27.7876  -26.9658   19.8126 C   0  0  0  0  0  0  0  0  0  0  0  0
  -28.8794  -11.8573   19.7909 C   0  0  0  0  0  0  0  0  0  0  0  0
  -28.2954  -14.5073   19.1723 C   0  0  0  0  0  0  0  0  0  0  0  0
  -26.3543  -20.0695   20.8455 C   0  0  0  0  0  0  0  0  0  0  0  0
  -21.4952  -26.2267   22.1856 C   0  0  0  0  0  0  0  0  0  0  0  0
  -18.8383  -26.2737   21.3365 C   0  0  0  0  0  0  0  0  0  0  0  0
  -28.4001  -24.5451   21.0568 C   0  0  0  0  0  0  0  0  0  0  0  0
  -28.9262  -26.2550   19.4331 C   0  0  0  0  0  0  0  0  0  0  0  0
  -25.9894  -21.1962   20.1099 C   0  0  0  0  0  0  0  0  0  0  0  0
  -30.9750  -22.1027   20.2641 C   0  0  0  0  0  0  0  0  0  0  0  0
  -30.8489  -20.7267   20.0738 C   0  0  0  0  0  0  0  0  0  0  0  0
  -23.6731  -20.5404   20.2659 C   0  0  0  0  0  0  0  0  0  0  0  0
  -29.2064  -21.1163   18.3454 C   0  0  0  0  0  0  0  0  0  0  0  0
  -26.9553  -26.4662   20.8142 C   0  0  0  0  0  0  0  0  0  0  0  0
  -25.4822  -27.7125   22.4829 C   0  0  0  0  0  0  0  0  0  0  0  0
  -27.5482  -12.2993   19.8461 C   0  0  0  0  0  0  0  0  0  0  0  0
  -25.3807  -19.1625   21.2883 C   0  0  0  0  0  0  0  0  0  0  0  0
  -27.2495  -13.6369   19.5235 C   0  0  0  0  0  0  0  0  0  0  0  0
  -24.0281  -19.4043   21.0091 C   0  0  0  0  0  0  0  0  0  0  0  0
  -21.1986  -26.2312   20.8227 C   0  0  0  0  0  0  0  0  0  0  0  0
  -19.8702  -26.2548   20.3981 C   0  0  0  0  0  0  0  0  0  0  0  0
  -29.2324  -25.0446   20.0552 C   0  0  0  0  0  0  0  0  0  0  0  0
  -24.6489  -21.4303   19.8175 C   0  0  0  0  0  0  0  0  0  0  0  0
  -30.2167  -22.9856   19.4951 C   0  0  0  0  0  0  0  0  0  0  0  0
  -29.9646  -20.2335   19.1144 C   0  0  0  0  0  0  0  0  0  0  0  0
  -29.3325  -22.4923   18.5357 C   0  0  0  0  0  0  0  0  0  0  0  0
  -25.7790  -27.2006   21.2055 C   0  0  0  0  0  0  0  0  0  0  0  0
  -24.2602  -28.3216   22.3333 C   0  0  0  0  0  0  0  0  0  0  0  0
  -26.2430  -27.6437   23.6962 C   0  0  0  0  0  0  0  0  0  0  0  0
  -24.7762  -16.0866   20.7622 C   0  0  0  0  0  0  0  0  0  0  0  0
  -22.5180  -16.5410   23.0461 C   0  0  0  0  0  0  0  0  0  0  0  0
  -20.4732  -18.7101   24.7076 C   0  0  0  0  0  0  0  0  0  0  0  0
  -19.9581  -27.2713   18.1068 C   0  0  0  0  0  0  0  0  0  0  0  0
  -26.4664  -11.3045   20.1853 C   0  0  0  0  0  0  0  0  0  0  0  0
  -25.7882  -17.9660   22.1036 C   0  0  0  0  0  0  0  0  0  0  0  0
  -22.9424  -18.4720   21.4788 C   0  0  0  0  0  0  0  0  0  0  0  0
  -25.1398  -11.9547   20.5695 C   0  0  0  0  0  0  0  0  0  0  0  0
  -21.5023  -30.4884   19.0857 C   0  0  0  0  0  0  0  0  0  0  0  0
  -24.7785  -13.0566   19.5785 C   0  0  0  0  0  0  0  0  0  0  0  0
  -22.7926  -30.0495   19.7755 C   0  0  0  0  0  0  0  0  0  0  0  0
  -21.0577  -29.4859   18.0251 C   0  0  0  0  0  0  0  0  0  0  0  0
  -22.2022  -27.6528   19.2381 C   0  0  0  0  0  0  0  0  0  0  0  0
  -25.8340  -14.1689   19.5813 C   0  0  1  0  0  0  0  0  0  0  0  0
  -24.7619  -16.8379   22.0633 C   0  0  1  0  0  0  0  0  0  0  0  0
  -22.6493  -28.6261   20.3391 C   0  0  1  0  0  0  0  0  0  0  0  0
  -18.7133  -18.7813   26.4951 C   0  0  0  0  0  0  0  0  0  0  0  0
  -20.4814  -15.3967   21.0832 C   0  0  0  0  0  0  0  0  0  0  0  0
  -18.6658  -16.3562   22.5154 C   0  0  0  0  0  0  0  0  0  0  0  0
  -20.2016  -14.6244   23.4453 C   0  0  0  0  0  0  0  0  0  0  0  0
  -18.5263  -25.3201   18.5243 C   0  0  0  0  0  0  0  0  0  0  0  0
  -22.1107  -20.4921   26.4112 C   0  0  0  0  0  0  0  0  0  0  0  0
  -22.3288  -26.2104   19.8361 C   0  0  0  0  0  0  0  0  0  0  0  0
  -24.2893  -24.9300   18.9670 C   0  0  0  0  0  0  0  0  0  0  0  0
  -25.1159  -23.6858   19.2254 C   0  0  0  0  0  0  0  0  0  1  0  0
  -21.0692  -16.9655   23.0477 C   0  0  1  0  0  0  0  0  0  0  0  0
  -20.1980  -18.9014   26.1882 C   0  0  2  0  0  0  0  0  0  0  0  0
  -20.1249  -15.8524   22.5122 C   0  0  0  0  0  0  0  0  0  0  0  0
  -24.8226  -27.4616   20.3104 N   0  0  0  0  0  0  0  0  0  0  0  0
  -23.9128  -28.1441   21.0264 N   0  0  0  0  0  0  0  0  0  0  0  0
  -23.3918  -17.3127   22.2672 N   0  0  0  0  0  0  0  0  0  0  0  0
  -20.9837  -28.1257   18.5610 N   0  0  0  0  0  0  0  0  0  0  0  0
  -23.4598  -28.9862   23.1935 N   0  0  0  0  0  0  0  0  0  0  0  0
  -27.1599  -28.6681   23.9688 N   0  0  0  0  0  0  0  0  0  0  0  0
  -25.6618  -15.0262   20.7345 N   0  0  0  0  0  0  0  0  0  0  0  0
  -20.7719  -17.3976   24.4090 N   0  0  0  0  0  0  0  0  0  0  0  0
  -19.5424  -26.2596   18.9933 N   0  0  0  0  0  0  0  0  0  0  0  0
  -20.6623  -20.2461   26.6320 N   0  3  0  0  0  0  0  0  0  0  0  0
  -23.1966  -25.0092   19.9689 N   0  3  0  0  0  0  0  0  0  0  0  0
  -26.1255  -26.6933   24.5063 O   0  0  0  0  0  0  0  0  0  0  0  0
  -24.0372  -16.4416   19.8514 O   0  0  0  0  0  0  0  0  0  0  0  0
  -22.8628  -15.5651   23.7171 O   0  0  0  0  0  0  0  0  0  0  0  0
  -20.4242  -19.6322   23.8965 O   0  0  0  0  0  0  0  0  0  0  0  0
  -19.4832  -27.3666   16.9684 O   0  0  0  0  0  0  0  0  0  0  0  0
  -30.3436  -24.3514   19.6847 O   0  0  0  0  0  0  0  0  0  0  0  0
  -24.2901  -22.5289   19.0990 O   0  0  0  0  0  0  0  0  0  1  0  0
  -29.8447  -18.9121   18.9307 F   0  0  0  0  0  0  0  0  0  0  0  0
  -28.6022  -23.3356   17.7931 F   0  0  0  0  0  0  0  0  0  0  0  0
  1  2  1  0  0  0  0
  1  7  2  0  0  0  0
  2  8  2  0  0  0  0
  3  4  1  0  0  0  0
  3 10  2  0  0  0  0
  4 11  2  0  0  0  0
  5 12  2  0  0  0  0
  5 19  1  0  0  0  0
  6 13  1  0  0  0  0
  6 19  2  0  0  0  0
  7 21  1  0  0  0  0
  8 23  1  0  0  0  0
  9 14  2  0  0  0  0
  9 22  1  0  0  0  0
 10 25  1  0  0  0  0
 11 26  1  0  0  0  0
 12 27  1  0  0  0  0
 13 27  2  0  0  0  0
 14 28  1  0  0  0  0
 15 16  2  0  0  0  0
 15 29  1  0  0  0  0
 16 30  1  0  0  0  0
 17 24  1  0  0  0  0
 17 28  2  0  0  0  0
 18 30  2  0  0  0  0
 18 31  1  0  0  0  0
 19 32  1  0  0  0  0
 20 32  1  0  0  0  0
 20 33  2  0  0  0  0
 20 34  1  0  0  0  0
 21 23  2  0  0  0  0
 21 39  1  0  0  0  0
 22 24  2  0  0  0  0
 22 40  1  0  0  0  0
 23 48  1  0  0  0  0
 24 41  1  0  0  0  0
 25 26  2  0  0  0  0
 25 57  1  0  0  0  0
 26 71  1  0  0  0  0
 27 79  1  0  0  0  0
 28 80  1  0  0  0  0
 29 31  2  0  0  0  0
 29 79  1  0  0  0  0
 30 81  1  0  0  0  0
 31 82  1  0  0  0  0
 32 63  2  0  0  0  0
 33 64  1  0  0  0  0
 33 67  1  0  0  0  0
 34 68  1  0  0  0  0
 34 74  2  0  0  0  0
 35 49  1  0  0  0  0
 35 69  1  0  0  0  0
 35 75  2  0  0  0  0
 36 60  1  0  0  0  0
 36 65  1  0  0  0  0
 36 76  2  0  0  0  0
 37 61  1  0  0  0  0
 37 70  1  0  0  0  0
 37 77  2  0  0  0  0
 38 66  1  0  0  0  0
 38 71  1  0  0  0  0
 38 78  2  0  0  0  0
 39 42  1  0  0  0  0
 40 49  1  0  0  0  0
 41 65  1  0  0  0  0
 42 44  1  0  0  0  0
 43 45  1  0  0  0  0
 43 46  1  0  0  0  0
 44 48  1  0  0  0  0
 45 50  1  0  0  0  0
 46 66  1  0  0  0  0
 47 50  1  0  0  0  0
 47 66  1  0  0  0  0
 48 69  1  0  0  0  0
 49 65  1  0  0  0  0
 50 64  1  0  0  0  0
 51 61  1  0  0  0  0
 52 62  1  0  0  0  0
 53 62  1  0  0  0  0
 54 62  1  0  0  0  0
 55 71  1  0  0  0  0
 56 72  1  0  0  0  0
 57 73  1  0  0  0  0
 58 59  1  0  0  0  0
 58 73  1  0  0  0  0
 59 80  1  0  0  0  0
 60 62  1  0  0  0  0
 60 70  1  0  0  0  0
 61 72  1  0  0  0  0
 63 64  1  0  0  0  0
M  CHG  2  72   1  73   1
M  ISO  4  38 100  59 101  71 100  80 101
M  END
> <Batch ID>
0030

> <Smiles>
CNC(C)C(=O)NC(C(=O)N1Cc2cc([101O:1][101CH2:1]CNCc3ccccc3[100N:0](C)[100C:0](=O)N3CCCC(n4nc(-c5ccc(Oc6ccc(F)cc6F)cc5)c(C(N)=O)c4N)C3)ccc2CC1C(=O)NC1CCCc2ccccc21)C(C)(C)C

> <Shape>
0.180

> <Color>
0.060

> <Negative vol penalty>
0.000

$$$$

  -OEChem-04042321363D

 91101  0     1  0  0  0  0  0999 V2000
  -35.0146  -32.6026   23.4047 C   0  0  0  0  0  0  0  0  0  0  0  0
  -34.5098  -32.2659   22.1528 C   0  0  0  0  0  0  0  0  0  0  0  0
  -21.1472  -25.6195   20.9394 C   0  0  0  0  0  0  0  0  0  0  0  0
  -29.5987  -17.6804   18.9071 C   0  0  0  0  0  0  0  0  0  0  0  0
  -30.8917  -18.1803   20.8858 C   0  0  0  0  0  0  0  0  0  0  0  0
  -34.5605  -31.9344   24.5410 C   0  0  0  0  0  0  0  0  0  0  0  0
  -33.5513  -31.2598   22.0364 C   0  0  0  0  0  0  0  0  0  0  0  0
  -27.8546  -29.4037   18.1097 C   0  0  0  0  0  0  0  0  0  0  0  0
  -21.5600  -24.5839   21.7777 C   0  0  0  0  0  0  0  0  0  0  0  0
  -21.2313  -25.4718   19.5549 C   0  0  0  0  0  0  0  0  0  0  0  0
  -30.0530  -16.3621   18.9432 C   0  0  0  0  0  0  0  0  0  0  0  0
  -31.3461  -16.8620   20.9220 C   0  0  0  0  0  0  0  0  0  0  0  0
  -27.3572  -28.3285   17.3747 C   0  0  0  0  0  0  0  0  0  0  0  0
  -29.3567  -13.5335   20.6599 C   0  0  0  0  0  0  0  0  0  0  0  0
  -28.4195  -12.5192   20.4642 C   0  0  0  0  0  0  0  0  0  0  0  0
  -26.5888  -27.2968   19.4153 C   0  0  0  0  0  0  0  0  0  0  0  0
  -29.6487  -11.7567   18.5291 C   0  0  0  0  0  0  0  0  0  0  0  0
  -30.0181  -18.5895   19.8784 C   0  0  0  0  0  0  0  0  0  0  0  0
  -29.7304  -20.8848   18.8029 C   0  0  0  0  0  0  0  0  0  0  0  0
  -33.5888  -30.9263   24.4395 C   0  0  0  0  0  0  0  0  0  0  0  0
  -27.7324  -29.4284   19.5064 C   0  0  0  0  0  0  0  0  0  0  0  0
  -33.0847  -30.5765   23.1722 C   0  0  0  0  0  0  0  0  0  0  0  0
  -27.0833  -28.3746   20.1655 C   0  0  0  0  0  0  0  0  0  0  0  0
  -22.0570  -23.4006   21.2315 C   0  0  0  0  0  0  0  0  0  0  0  0
  -21.7283  -24.2885   19.0087 C   0  0  0  0  0  0  0  0  0  0  0  0
  -22.1412  -23.2528   19.8470 C   0  0  0  0  0  0  0  0  0  0  0  0
  -30.9267  -15.9529   19.9507 C   0  0  0  0  0  0  0  0  0  0  0  0
  -26.7268  -27.2734   18.0277 C   0  0  0  0  0  0  0  0  0  0  0  0
  -30.4400  -13.6595   19.7902 C   0  0  0  0  0  0  0  0  0  0  0  0
  -28.5655  -11.6308   19.3988 C   0  0  0  0  0  0  0  0  0  0  0  0
  -30.5860  -12.7711   18.7248 C   0  0  0  0  0  0  0  0  0  0  0  0
  -29.5495  -19.9515   19.8413 C   0  0  0  0  0  0  0  0  0  0  0  0
  -29.1024  -22.0216   19.2498 C   0  0  0  0  0  0  0  0  0  0  0  0
  -30.4057  -20.7372   17.5468 C   0  0  0  0  0  0  0  0  0  0  0  0
  -29.7803  -29.4776   21.9369 C   0  0  0  0  0  0  0  0  0  0  0  0
  -27.0802  -29.8436   23.6969 C   0  0  0  0  0  0  0  0  0  0  0  0
  -23.7062  -29.3995   23.9527 C   0  0  0  0  0  0  0  0  0  0  0  0
  -24.6644  -22.9600   23.1581 C   0  0  0  0  0  0  0  0  0  0  0  0
  -33.1634  -30.1996   25.6907 C   0  0  0  0  0  0  0  0  0  0  0  0
  -28.2505  -30.6082   20.2823 C   0  0  0  0  0  0  0  0  0  0  0  0
  -26.9084  -28.3628   21.6614 C   0  0  0  0  0  0  0  0  0  0  0  0
  -31.8718  -29.4033   25.5232 C   0  0  0  0  0  0  0  0  0  0  0  0
  -27.9507  -24.3242   23.2824 C   0  0  0  0  0  0  0  0  0  0  0  0
  -20.4084  -19.0820   18.9775 C   0  0  0  0  0  0  0  0  0  0  0  0
  -21.6376  -18.7607   18.1514 C   0  0  0  0  0  0  0  0  0  0  0  0
  -23.4833  -26.2272   14.7726 C   0  0  0  0  0  0  0  0  0  0  0  0
  -31.9086  -28.5918   24.2321 C   0  0  0  0  0  0  0  0  0  0  0  0
  -28.7494  -23.4425   22.3209 C   0  0  0  0  0  0  0  0  0  0  0  0
  -24.8994  -26.2715   15.3313 C   0  0  0  0  0  0  0  0  0  0  0  0
  -26.9063  -23.5184   24.0517 C   0  0  0  0  0  0  0  0  0  0  0  0
  -26.7906  -21.8436   22.2474 C   0  0  0  0  0  0  0  0  0  0  0  0
  -20.8274  -20.3329   19.7195 C   0  0  0  0  0  0  0  0  0  0  0  0
  -22.1093  -20.1145   17.6503 C   0  0  0  0  0  0  0  0  0  0  0  0
  -22.6779  -25.0831   15.3718 C   0  0  0  0  0  0  0  0  0  0  0  0
  -24.0808  -25.1733   17.4488 C   0  0  0  0  0  0  0  0  0  0  0  0
  -32.0259  -29.5079   23.0079 C   0  0  1  0  0  0  0  0  0  0  0  0
  -28.5273  -30.2849   21.7473 C   0  0  1  0  0  0  0  0  0  0  0  0
  -27.8185  -22.6218   21.4082 C   0  0  2  0  0  0  0  0  0  0  0  0
  -24.8953  -26.3158   16.8562 C   0  0  1  0  0  0  0  0  0  1  0  0
  -21.7848  -29.7647   25.5251 C   0  0  0  0  0  0  0  0  0  0  0  0
  -27.9892  -27.4518   25.3591 C   0  0  0  0  0  0  0  0  0  0  0  0
  -25.6577  -27.2766   26.2545 C   0  0  0  0  0  0  0  0  0  0  0  0
  -27.0061  -29.3306   26.6851 C   0  0  0  0  0  0  0  0  0  0  0  0
  -22.3328  -31.1948   22.0422 C   0  0  0  0  0  0  0  0  0  0  0  0
  -22.4922  -22.3067   22.1512 C   0  0  0  0  0  0  0  0  0  0  0  0
  -21.8080  -24.1550   17.5165 C   0  0  0  0  0  0  0  0  0  0  0  0
  -22.6743  -21.9840   19.2613 C   0  0  0  0  0  0  0  0  0  0  0  0
  -26.1025  -28.9055   24.3624 C   0  0  1  0  0  0  0  0  0  0  0  0
  -22.5951  -30.3435   24.3757 C   0  0  2  0  0  0  0  0  0  0  0  0
  -26.6937  -28.2401   25.6373 C   0  0  0  0  0  0  0  0  0  0  0  0
  -28.8607  -20.4522   20.8703 N   0  0  0  0  0  0  0  0  0  0  0  0
  -28.6033  -21.7124   20.4808 N   0  0  0  0  0  0  0  0  0  0  0  0
  -27.4376  -29.5359   22.3765 N   0  0  0  0  0  0  0  0  0  0  0  0
  -26.0550  -22.7645   23.1281 N   0  0  0  0  0  0  0  0  0  0  0  0
  -28.9340  -23.2456   18.7059 N   0  0  0  0  0  0  0  0  0  0  0  0
  -30.9960  -19.5020   17.2467 N   0  0  0  0  0  0  0  0  0  0  0  0
  -30.7450  -30.1070   22.7003 N   0  0  0  0  0  0  0  0  0  0  0  0
  -24.8901  -29.6812   24.6008 N   0  0  0  0  0  0  0  0  0  0  0  0
  -23.9319  -22.2108   22.2454 N   0  0  0  0  0  0  0  0  0  0  0  0
  -21.6095  -21.1088   18.6824 N   0  3  0  0  0  0  0  0  0  0  0  0
  -22.6858  -25.1959   16.8778 N   0  3  2  0  0  0  0  0  0  0  0  0
  -21.6728  -30.6026   23.2341 N   0  3  0  0  0  0  0  0  0  0  0  0
  -30.4974  -21.6780   16.7222 O   0  0  0  0  0  0  0  0  0  0  0  0
  -29.8651  -28.3654   21.4293 O   0  0  0  0  0  0  0  0  0  0  0  0
  -27.5054  -30.8177   24.3229 O   0  0  0  0  0  0  0  0  0  0  0  0
  -23.5394  -28.4997   23.1323 O   0  0  0  0  0  0  0  0  0  0  0  0
  -24.1167  -23.7480   23.9365 O   0  0  0  0  0  0  0  0  0  0  0  0
  -31.3701  -14.6665   19.9863 O   0  0  0  0  0  0  0  0  0  0  0  0
  -26.2409  -26.2224   17.3128 O   0  0  0  0  0  0  0  0  0  1  0  0
  -27.6662  -10.6559   19.2119 F   0  0  0  0  0  0  0  0  0  0  0  0
  -31.6252  -12.8864   17.8867 F   0  0  0  0  0  0  0  0  0  0  0  0
  1  2  1  0  0  0  0
  1  6  2  0  0  0  0
  2  7  2  0  0  0  0
  3  9  1  0  0  0  0
  3 10  2  0  0  0  0
  4 11  2  0  0  0  0
  4 18  1  0  0  0  0
  5 12  1  0  0  0  0
  5 18  2  0  0  0  0
  6 20  1  0  0  0  0
  7 22  1  0  0  0  0
  8 13  2  0  0  0  0
  8 21  1  0  0  0  0
  9 24  2  0  0  0  0
 10 25  1  0  0  0  0
 11 27  1  0  0  0  0
 12 27  2  0  0  0  0
 13 28  1  0  0  0  0
 14 15  2  0  0  0  0
 14 29  1  0  0  0  0
 15 30  1  0  0  0  0
 16 23  1  0  0  0  0
 16 28  2  0  0  0  0
 17 30  2  0  0  0  0
 17 31  1  0  0  0  0
 18 32  1  0  0  0  0
 19 32  1  0  0  0  0
 19 33  2  0  0  0  0
 19 34  1  0  0  0  0
 20 22  2  0  0  0  0
 20 39  1  0  0  0  0
 21 23  2  0  0  0  0
 21 40  1  0  0  0  0
 22 56  1  0  0  0  0
 23 41  1  0  0  0  0
 24 26  1  0  0  0  0
 24 65  1  0  0  0  0
 25 26  2  0  0  0  0
 25 66  1  0  0  0  0
 26 67  1  0  0  0  0
 27 88  1  0  0  0  0
 28 89  1  0  0  0  0
 29 31  2  0  0  0  0
 29 88  1  0  0  0  0
 30 90  1  0  0  0  0
 31 91  1  0  0  0  0
 32 71  2  0  0  0  0
 33 72  1  0  0  0  0
 33 75  1  0  0  0  0
 34 76  1  0  0  0  0
 34 83  2  0  0  0  0
 35 57  1  0  0  0  0
 35 77  1  0  0  0  0
 35 84  2  0  0  0  0
 36 68  1  0  0  0  0
 36 73  1  0  0  0  0
 36 85  2  0  0  0  0
 37 69  1  0  0  0  0
 37 78  1  0  0  0  0
 37 86  2  0  0  0  0
 38 74  1  0  0  0  0
 38 79  1  0  0  0  0
 38 87  2  0  0  0  0
 39 42  1  0  0  0  0
 40 57  1  0  0  0  0
 41 73  1  0  0  0  0
 42 47  1  0  0  0  0
 43 48  1  0  0  0  0
 43 50  1  0  0  0  0
 44 45  1  0  0  0  0
 44 52  1  0  0  0  0
 45 53  1  0  0  0  0
 46 49  1  0  0  0  0
 46 54  1  0  0  0  0
 47 56  1  0  0  0  0
 48 58  1  0  0  0  0
 49 59  1  0  0  0  0
 50 74  1  0  0  0  0
 51 58  1  0  0  0  0
 51 74  1  0  0  0  0
 52 80  1  0  0  0  0
 53 80  1  0  0  0  0
 54 81  1  0  0  0  0
 55 59  1  0  0  0  0
 55 81  1  0  0  0  0
 56 77  1  0  0  0  0
 57 73  1  0  0  0  0
 58 72  1  0  0  0  0
 59 89  1  0  0  0  0
 60 69  1  0  0  0  0
 61 70  1  0  0  0  0
 62 70  1  0  0  0  0
 63 70  1  0  0  0  0
 64 82  1  0  0  0  0
 65 79  1  0  0  0  0
 66 81  1  0  0  0  0
 67 80  1  0  0  0  0
 68 70  1  0  0  0  0
 68 78  1  0  0  0  0
 69 82  1  0  0  0  0
 71 72  1  0  0  0  0
M  CHG  3  80   1  81   1  82   1
M  ISO  4  38 100  59 101  79 100  89 101
M  END
> <Batch ID>
0030

> <Smiles>
CNC(C)C(=O)NC(C(=O)N1Cc2cc([101O:1][101CH:1]3CCCN(Cc4cccc(C[100NH:0][100C:0](=O)N5CCCC(n6nc(-c7ccc(Oc8ccc(F)cc8F)cc7)c(C(N)=O)c6N)C5)c4CN4CCCC4)C3)ccc2CC1C(=O)NC1CCCc2ccccc21)C(C)(C)C

> <Shape>
0.175

> <Color>
0.069

> <Negative vol penalty>
0.000

$$$$

  -OEChem-04042321363D

 84 93  0     1  0  0  0  0  0999 V2000
  -30.0878  -35.8556   19.4983 C   0  0  0  0  0  0  0  0  0  0  0  0
  -29.9461  -34.5239   19.1214 C   0  0  0  0  0  0  0  0  0  0  0  0
  -24.5748   -9.3372   22.0371 C   0  0  0  0  0  0  0  0  0  0  0  0
  -23.1198  -10.1776   20.3012 C   0  0  0  0  0  0  0  0  0  0  0  0
  -29.7194  -36.2587   20.7812 C   0  0  0  0  0  0  0  0  0  0  0  0
  -29.4369  -33.5944   20.0276 C   0  0  0  0  0  0  0  0  0  0  0  0
  -25.8991  -28.7620   18.7477 C   0  0  0  0  0  0  0  0  0  0  0  0
  -23.5149   -8.6041   22.5707 C   0  0  0  0  0  0  0  0  0  0  0  0
  -22.0598   -9.4444   20.8347 C   0  0  0  0  0  0  0  0  0  0  0  0
  -26.1860  -27.4083   18.5775 C   0  0  0  0  0  0  0  0  0  0  0  0
  -21.9006   -5.7099   21.8991 C   0  0  0  0  0  0  0  0  0  0  0  0
  -22.1471   -4.3868   22.2653 C   0  0  0  0  0  0  0  0  0  0  0  0
  -25.5970  -27.0000   20.8808 C   0  0  0  0  0  0  0  0  0  0  0  0
  -22.8155  -18.7683   17.0776 C   0  0  0  0  0  0  0  0  0  0  0  0
  -24.6247  -19.4498   19.0888 C   0  0  0  0  0  0  0  0  0  0  0  0
  -21.5280   -4.9019   24.5431 C   0  0  0  0  0  0  0  0  0  0  0  0
  -24.3773  -10.1240   20.9024 C   0  0  0  0  0  0  0  0  0  0  0  0
  -26.3923  -10.4582   19.3740 C   0  0  0  0  0  0  0  0  0  0  0  0
  -29.1964  -35.3355   21.7003 C   0  0  0  0  0  0  0  0  0  0  0  0
  -25.4687  -29.2475   19.9909 C   0  0  0  0  0  0  0  0  0  0  0  0
  -29.0624  -33.9853   21.3243 C   0  0  0  0  0  0  0  0  0  0  0  0
  -25.3028  -28.3598   21.0635 C   0  0  0  0  0  0  0  0  0  0  0  0
  -22.8054  -20.0540   17.6183 C   0  0  0  0  0  0  0  0  0  0  0  0
  -23.7301  -17.8233   17.5425 C   0  0  0  0  0  0  0  0  0  0  0  0
  -23.7100  -20.3948   18.6239 C   0  0  0  0  0  0  0  0  0  0  0  0
  -24.6347  -18.1640   18.5480 C   0  0  0  0  0  0  0  0  0  0  0  0
  -22.2574   -8.6577   21.9694 C   0  0  0  0  0  0  0  0  0  0  0  0
  -26.0377  -26.5276   19.6449 C   0  0  0  0  0  0  0  0  0  0  0  0
  -21.4680   -6.6291   22.8549 C   0  0  0  0  0  0  0  0  0  0  0  0
  -21.9608   -3.9827   23.5873 C   0  0  0  0  0  0  0  0  0  0  0  0
  -21.2816   -6.2251   24.1769 C   0  0  0  0  0  0  0  0  0  0  0  0
  -25.4717  -10.8820   20.3511 C   0  0  0  0  0  0  0  0  0  0  0  0
  -27.2251  -11.5359   19.1966 C   0  0  0  0  0  0  0  0  0  0  0  0
  -26.4862   -9.2026   18.6881 C   0  0  0  0  0  0  0  0  0  0  0  0
  -26.6076  -31.3349   22.1002 C   0  0  0  0  0  0  0  0  0  0  0  0
  -23.7684  -30.8018   23.5757 C   0  0  0  0  0  0  0  0  0  0  0  0
  -21.1100  -28.7215   24.0781 C   0  0  0  0  0  0  0  0  0  0  0  0
  -26.5302  -17.4123   20.0273 C   0  0  0  0  0  0  0  0  0  0  0  0
  -28.8563  -35.8092   23.0912 C   0  0  0  0  0  0  0  0  0  0  0  0
  -25.1377  -30.7060   20.1509 C   0  0  0  0  0  0  0  0  0  0  0  0
  -24.8242  -28.8273   22.4129 C   0  0  0  0  0  0  0  0  0  0  0  0
  -27.9746  -34.8347   23.8679 C   0  0  0  0  0  0  0  0  0  0  0  0
  -28.9936  -15.3259   21.5293 C   0  0  0  0  0  0  0  0  0  0  0  0
  -28.5057  -33.4110   23.7339 C   0  0  0  0  0  0  0  0  0  0  0  0
  -28.4568  -13.9107   21.3034 C   0  0  0  0  0  0  0  0  0  0  0  0
  -27.8693  -16.3204   21.8133 C   0  0  0  0  0  0  0  0  0  0  0  0
  -26.2505  -14.9191   20.5945 C   0  0  0  0  0  0  0  0  0  0  0  0
  -24.1098  -24.1555   18.8343 C   0  0  0  0  0  0  0  0  0  0  0  0
  -25.7716  -22.9219   18.5528 C   0  0  0  0  0  0  0  0  0  0  0  0
  -28.4908  -32.9521   22.2708 C   0  0  1  0  0  0  0  0  0  0  0  0
  -25.1993  -31.1771   21.6006 C   0  0  1  0  0  0  0  0  0  0  0  0
  -27.3406  -13.8944   20.2406 C   0  0  2  0  0  0  0  0  0  0  0  0
  -25.5845  -24.4485   18.5055 C   0  0  0  0  0  0  0  0  0  1  0  0
  -21.8168  -21.0488   17.1050 C   0  0  0  0  0  0  0  0  0  0  0  0
  -23.7184  -16.4536   16.9450 C   0  0  0  0  0  0  0  0  0  0  0  0
  -18.9651  -28.5424   25.3683 C   0  0  0  0  0  0  0  0  0  0  0  0
  -25.3468  -30.1549   26.1055 C   0  0  0  0  0  0  0  0  0  0  0  0
  -23.2817  -29.0902   27.0381 C   0  0  0  0  0  0  0  0  0  0  0  0
  -23.2868  -31.5220   26.4822 C   0  0  0  0  0  0  0  0  0  0  0  0
  -19.4970  -28.5752   21.6010 C   0  0  0  0  0  0  0  0  0  0  0  0
  -23.7177  -21.7713   19.2207 C   0  0  0  0  0  0  0  0  0  0  0  0
  -23.2684  -29.8227   24.6103 C   0  0  1  0  0  0  0  0  0  0  0  0
  -19.6138  -28.9775   24.0634 C   0  0  2  0  0  0  0  0  0  0  0  0
  -23.8068  -30.1386   26.0342 C   0  0  0  0  0  0  0  0  0  0  0  0
  -25.6981  -12.1314   20.7655 N   0  0  0  0  0  0  0  0  0  0  0  0
  -26.7706  -12.5019   20.0453 N   0  0  0  0  0  0  0  0  0  0  0  0
  -24.5195  -30.2636   22.5212 N   0  0  0  0  0  0  0  0  0  0  0  0
  -26.8509  -16.2518   20.7631 N   0  0  0  0  0  0  0  0  0  0  0  0
  -28.2945  -11.7419   18.3989 N   0  0  0  0  0  0  0  0  0  0  0  0
  -25.5500   -8.2044   18.9906 N   0  0  0  0  0  0  0  0  0  0  0  0
  -25.5716  -17.2182   19.0334 N   0  0  0  0  0  0  0  0  0  0  0  0
  -27.1495  -32.5850   21.8699 N   0  0  0  0  0  0  0  0  0  0  0  0
  -21.8132  -29.8273   24.5070 N   0  0  0  0  0  0  0  0  0  0  0  0
  -24.3203  -22.7863   18.3291 N   0  3  0  0  0  0  0  0  0  0  0  0
  -18.9711  -28.2288   22.9465 N   0  3  0  0  0  0  0  0  0  0  0  0
  -27.3839   -8.9670   17.8443 O   0  0  0  0  0  0  0  0  0  0  0  0
  -27.1610  -30.3927   22.6550 O   0  0  0  0  0  0  0  0  0  0  0  0
  -23.4962  -31.9990   23.6948 O   0  0  0  0  0  0  0  0  0  0  0  0
  -21.6052  -27.6468   23.7461 O   0  0  0  0  0  0  0  0  0  0  0  0
  -27.0863  -18.4921   20.2436 O   0  0  0  0  0  0  0  0  0  0  0  0
  -21.2230   -7.9422   22.4896 O   0  0  0  0  0  0  0  0  0  0  0  0
  -26.3177  -25.2059   19.4816 O   0  0  0  0  0  0  0  0  0  1  0  0
  -22.1960   -2.7117   23.9384 F   0  0  0  0  0  0  0  0  0  0  0  0
  -20.8650   -7.1033   25.0994 F   0  0  0  0  0  0  0  0  0  0  0  0
  1  2  1  0  0  0  0
  1  5  2  0  0  0  0
  2  6  2  0  0  0  0
  3  8  2  0  0  0  0
  3 17  1  0  0  0  0
  4  9  1  0  0  0  0
  4 17  2  0  0  0  0
  5 19  1  0  0  0  0
  6 21  1  0  0  0  0
  7 10  2  0  0  0  0
  7 20  1  0  0  0  0
  8 27  1  0  0  0  0
  9 27  2  0  0  0  0
 10 28  1  0  0  0  0
 11 12  2  0  0  0  0
 11 29  1  0  0  0  0
 12 30  1  0  0  0  0
 13 22  1  0  0  0  0
 13 28  2  0  0  0  0
 14 23  1  0  0  0  0
 14 24  2  0  0  0  0
 15 25  1  0  0  0  0
 15 26  2  0  0  0  0
 16 30  2  0  0  0  0
 16 31  1  0  0  0  0
 17 32  1  0  0  0  0
 18 32  1  0  0  0  0
 18 33  2  0  0  0  0
 18 34  1  0  0  0  0
 19 21  2  0  0  0  0
 19 39  1  0  0  0  0
 20 22  2  0  0  0  0
 20 40  1  0  0  0  0
 21 50  1  0  0  0  0
 22 41  1  0  0  0  0
 23 25  2  0  0  0  0
 23 54  1  0  0  0  0
 24 26  1  0  0  0  0
 24 55  1  0  0  0  0
 25 61  1  0  0  0  0
 26 71  1  0  0  0  0
 27 81  1  0  0  0  0
 28 82  1  0  0  0  0
 29 31  2  0  0  0  0
 29 81  1  0  0  0  0
 30 83  1  0  0  0  0
 31 84  1  0  0  0  0
 32 65  2  0  0  0  0
 33 66  1  0  0  0  0
 33 69  1  0  0  0  0
 34 70  1  0  0  0  0
 34 76  2  0  0  0  0
 35 51  1  0  0  0  0
 35 72  1  0  0  0  0
 35 77  2  0  0  0  0
 36 62  1  0  0  0  0
 36 67  1  0  0  0  0
 36 78  2  0  0  0  0
 37 63  1  0  0  0  0
 37 73  1  0  0  0  0
 37 79  2  0  0  0  0
 38 68  1  0  0  0  0
 38 71  1  0  0  0  0
 38 80  2  0  0  0  0
 39 42  1  0  0  0  0
 40 51  1  0  0  0  0
 41 67  1  0  0  0  0
 42 44  1  0  0  0  0
 43 45  1  0  0  0  0
 43 46  1  0  0  0  0
 44 50  1  0  0  0  0
 45 52  1  0  0  0  0
 46 68  1  0  0  0  0
 47 52  1  0  0  0  0
 47 68  1  0  0  0  0
 48 53  1  0  0  0  0
 48 74  1  0  0  0  0
 49 53  1  0  0  0  0
 49 74  1  0  0  0  0
 50 72  1  0  0  0  0
 51 67  1  0  0  0  0
 52 66  1  0  0  0  0
 53 82  1  0  0  0  0
 56 63  1  0  0  0  0
 57 64  1  0  0  0  0
 58 64  1  0  0  0  0
 59 64  1  0  0  0  0
 60 75  1  0  0  0  0
 61 74  1  0  0  0  0
 62 64  1  0  0  0  0
 62 73  1  0  0  0  0
 63 75  1  0  0  0  0
 65 66  1  0  0  0  0
M  CHG  2  74   1  75   1
M  ISO  4  38 100  53 101  71 100  82 101
M  END
> <Batch ID>
0030

> <Smiles>
CNC(C)C(=O)NC(C(=O)N1Cc2cc([101O:1][101CH:1]3CN(Cc4cc([100NH:0][100C:0](=O)N5CCCC(n6nc(-c7ccc(Oc8ccc(F)cc8F)cc7)c(C(N)=O)c6N)C5)c(C)cc4C)C3)ccc2CC1C(=O)NC1CCCc2ccccc21)C(C)(C)C

> <Shape>
0.245

> <Color>
0.098

> <Negative vol penalty>
0.000

$$$$

  -OEChem-04042321363D

 80 89  0     1  0  0  0  0  0999 V2000
  -29.3609  -34.1324   24.3101 C   0  0  0  0  0  0  0  0  0  0  0  0
  -29.9250  -33.1343   23.5220 C   0  0  0  0  0  0  0  0  0  0  0  0
  -23.1488  -10.3592   20.7158 C   0  0  0  0  0  0  0  0  0  0  0  0
  -24.5672   -9.0690   22.1857 C   0  0  0  0  0  0  0  0  0  0  0  0
  -28.1701  -33.8898   24.9935 C   0  0  0  0  0  0  0  0  0  0  0  0
  -29.2992  -31.8926   23.4178 C   0  0  0  0  0  0  0  0  0  0  0  0
  -28.2584  -26.5374   18.7751 C   0  0  0  0  0  0  0  0  0  0  0  0
  -29.6838  -20.2369   19.0360 C   0  0  0  0  0  0  0  0  0  0  0  0
  -29.6655  -18.8393   19.0065 C   0  0  0  0  0  0  0  0  0  0  0  0
  -22.2699   -9.2806   20.6172 C   0  0  0  0  0  0  0  0  0  0  0  0
  -23.6882   -7.9904   22.0872 C   0  0  0  0  0  0  0  0  0  0  0  0
  -28.3940  -25.1531   18.6796 C   0  0  0  0  0  0  0  0  0  0  0  0
  -20.7187   -7.0702   23.4123 C   0  0  0  0  0  0  0  0  0  0  0  0
  -20.3795   -6.4029   24.5893 C   0  0  0  0  0  0  0  0  0  0  0  0
  -27.6103  -20.3366   17.7755 C   0  0  0  0  0  0  0  0  0  0  0  0
  -26.2988  -24.8738   19.8420 C   0  0  0  0  0  0  0  0  0  0  0  0
  -21.2932   -4.3545   23.6912 C   0  0  0  0  0  0  0  0  0  0  0  0
  -24.2976  -10.2533   21.5000 C   0  0  0  0  0  0  0  0  0  0  0  0
  -25.1722  -12.4080   22.5487 C   0  0  0  0  0  0  0  0  0  0  0  0
  -27.5243  -32.6477   24.8899 C   0  0  0  0  0  0  0  0  0  0  0  0
  -27.1455  -27.1011   19.4155 C   0  0  0  0  0  0  0  0  0  0  0  0
  -28.0994  -31.6327   24.1016 C   0  0  0  0  0  0  0  0  0  0  0  0
  -27.5955  -18.9507   17.7577 C   0  0  0  0  0  0  0  0  0  0  0  0
  -26.1502  -26.2656   19.9421 C   0  0  0  0  0  0  0  0  0  0  0  0
  -28.6638  -20.9805   18.4250 C   0  0  0  0  0  0  0  0  0  0  0  0
  -28.6116  -18.2082   18.3620 C   0  0  0  0  0  0  0  0  0  0  0  0
  -22.5395   -8.0963   21.3029 C   0  0  0  0  0  0  0  0  0  0  0  0
  -27.4155  -24.3210   19.2156 C   0  0  0  0  0  0  0  0  0  0  0  0
  -21.3451   -6.3796   22.3747 C   0  0  0  0  0  0  0  0  0  0  0  0
  -20.6668   -5.0451   24.7288 C   0  0  0  0  0  0  0  0  0  0  0  0
  -21.6323   -5.0218   22.5142 C   0  0  0  0  0  0  0  0  0  0  0  0
  -25.2062  -11.3669   21.6018 C   0  0  0  0  0  0  0  0  0  0  0  0
  -26.2405  -13.2063   22.2199 C   0  0  0  0  0  0  0  0  0  0  0  0
  -24.2569  -12.6334   23.6291 C   0  0  0  0  0  0  0  0  0  0  0  0
  -26.7234  -28.9483   21.9676 C   0  0  0  0  0  0  0  0  0  0  0  0
  -23.6393  -28.9643   20.9623 C   0  0  0  0  0  0  0  0  0  0  0  0
  -21.1598  -27.4219   19.1961 C   0  0  0  0  0  0  0  0  0  0  0  0
  -29.3216  -15.8264   18.3947 C   0  0  0  0  0  0  0  0  0  0  0  0
  -26.2637  -32.4164   25.6850 C   0  0  0  0  0  0  0  0  0  0  0  0
  -27.0009  -28.5966   19.4866 C   0  0  0  0  0  0  0  0  0  0  0  0
  -26.6083  -18.0640   17.0699 C   0  0  0  0  0  0  0  0  0  0  0  0
  -24.9262  -26.8211   20.6216 C   0  0  0  0  0  0  0  0  0  0  0  0
  -25.4672  -31.1987   25.2233 C   0  0  0  0  0  0  0  0  0  0  0  0
  -30.0924  -12.4445   19.0599 C   0  0  0  0  0  0  0  0  0  0  0  0
  -26.3900  -30.0000   25.0278 C   0  0  0  0  0  0  0  0  0  0  0  0
  -28.8785  -11.9294   19.8284 C   0  0  0  0  0  0  0  0  0  0  0  0
  -27.0261  -16.6796   17.5821 C   0  0  0  0  0  0  0  0  0  0  0  0
  -29.6669  -13.4132   17.9648 C   0  0  0  0  0  0  0  0  0  0  0  0
  -27.6757  -14.1069   19.2741 C   0  0  0  0  0  0  0  0  0  0  0  0
  -27.4374  -30.2810   23.9437 C   0  0  1  0  0  0  0  0  0  0  0  0
  -26.0806  -29.0549   20.6137 C   0  0  1  0  0  0  0  0  0  0  0  0
  -28.0507  -13.1000   20.3810 C   0  0  1  0  0  0  0  0  0  0  0  0
  -18.7359  -27.6545   18.5895 C   0  0  0  0  0  0  0  0  0  0  0  0
  -22.8526  -28.0454   23.7635 C   0  0  0  0  0  0  0  0  0  0  0  0
  -20.6171  -27.3914   22.8455 C   0  0  0  0  0  0  0  0  0  0  0  0
  -21.3446  -29.7763   22.7715 C   0  0  0  0  0  0  0  0  0  0  0  0
  -21.7776  -27.5684   16.3055 C   0  0  0  0  0  0  0  0  0  0  0  0
  -28.7091  -22.4714   18.4666 C   0  0  0  0  0  0  0  0  0  1  0  0
  -22.4272  -28.1014   21.2176 C   0  0  1  0  0  0  0  0  0  0  0  0
  -20.1687  -27.9538   18.1767 C   0  0  2  0  0  0  0  0  0  0  0  0
  -21.8343  -28.3178   22.6385 C   0  0  0  0  0  0  0  0  0  0  0  0
  -26.2160  -11.4900   20.7362 N   0  0  0  0  0  0  0  0  0  0  0  0
  -26.8264  -12.6178   21.1379 N   0  0  0  0  0  0  0  0  0  0  0  0
  -28.3636  -16.8253   18.2082 N   0  0  0  0  0  0  0  0  0  0  0  0
  -24.8335  -28.2896   20.6717 N   0  0  0  0  0  0  0  0  0  0  0  0
  -28.8524  -14.5082   18.4936 N   0  0  0  0  0  0  0  0  0  0  0  0
  -26.7264  -14.3471   22.7536 N   0  0  0  0  0  0  0  0  0  0  0  0
  -23.2165  -11.7152   23.8258 N   0  0  0  0  0  0  0  0  0  0  0  0
  -26.8487  -30.1559   22.6276 N   0  0  0  0  0  0  0  0  0  0  0  0
  -21.4930  -28.3783   20.1317 N   0  0  0  0  0  0  0  0  0  0  0  0
  -20.4131  -27.3334   16.8440 N   0  3  0  0  0  0  0  0  0  0  0  0
  -24.3489  -13.6287   24.3870 O   0  0  0  0  0  0  0  0  0  0  0  0
  -27.0780  -27.8515   22.3834 O   0  0  0  0  0  0  0  0  0  0  0  0
  -23.5290  -30.1919   21.0118 O   0  0  0  0  0  0  0  0  0  0  0  0
  -21.5921  -26.2717   19.1676 O   0  0  0  0  0  0  0  0  0  0  0  0
  -30.5352  -16.0668   18.4037 O   0  0  0  0  0  0  0  0  0  0  0  0
  -21.6819   -7.0437   21.2071 O   0  0  0  0  0  0  0  0  0  0  0  0
  -27.5465  -22.9601   19.1237 O   0  0  0  0  0  0  0  0  0  1  0  0
  -20.3424   -4.4048   25.8597 F   0  0  0  0  0  0  0  0  0  0  0  0
  -22.2350   -4.3533   21.5214 F   0  0  0  0  0  0  0  0  0  0  0  0
  1  2  1  0  0  0  0
  1  5  2  0  0  0  0
  2  6  2  0  0  0  0
  3 10  2  0  0  0  0
  3 18  1  0  0  0  0
  4 11  1  0  0  0  0
  4 18  2  0  0  0  0
  5 20  1  0  0  0  0
  6 22  1  0  0  0  0
  7 12  2  0  0  0  0
  7 21  1  0  0  0  0
  8  9  2  0  0  0  0
  8 25  1  0  0  0  0
  9 26  1  0  0  0  0
 10 27  1  0  0  0  0
 11 27  2  0  0  0  0
 12 28  1  0  0  0  0
 13 14  2  0  0  0  0
 13 29  1  0  0  0  0
 14 30  1  0  0  0  0
 15 23  1  0  0  0  0
 15 25  2  0  0  0  0
 16 24  1  0  0  0  0
 16 28  2  0  0  0  0
 17 30  2  0  0  0  0
 17 31  1  0  0  0  0
 18 32  1  0  0  0  0
 19 32  1  0  0  0  0
 19 33  2  0  0  0  0
 19 34  1  0  0  0  0
 20 22  2  0  0  0  0
 20 39  1  0  0  0  0
 21 24  2  0  0  0  0
 21 40  1  0  0  0  0
 22 50  1  0  0  0  0
 23 26  2  0  0  0  0
 23 41  1  0  0  0  0
 24 42  1  0  0  0  0
 25 58  1  0  0  0  0
 26 64  1  0  0  0  0
 27 77  1  0  0  0  0
 28 78  1  0  0  0  0
 29 31  2  0  0  0  0
 29 77  1  0  0  0  0
 30 79  1  0  0  0  0
 31 80  1  0  0  0  0
 32 62  2  0  0  0  0
 33 63  1  0  0  0  0
 33 67  1  0  0  0  0
 34 68  1  0  0  0  0
 34 72  2  0  0  0  0
 35 51  1  0  0  0  0
 35 69  1  0  0  0  0
 35 73  2  0  0  0  0
 36 59  1  0  0  0  0
 36 65  1  0  0  0  0
 36 74  2  0  0  0  0
 37 60  1  0  0  0  0
 37 70  1  0  0  0  0
 37 75  2  0  0  0  0
 38 64  1  0  0  0  0
 38 66  1  0  0  0  0
 38 76  2  0  0  0  0
 39 43  1  0  0  0  0
 40 51  1  0  0  0  0
 41 47  1  0  0  0  0
 42 65  1  0  0  0  0
 43 45  1  0  0  0  0
 44 46  1  0  0  0  0
 44 48  1  0  0  0  0
 45 50  1  0  0  0  0
 46 52  1  0  0  0  0
 47 64  1  0  0  0  0
 48 66  1  0  0  0  0
 49 52  1  0  0  0  0
 49 66  1  0  0  0  0
 50 69  1  0  0  0  0
 51 65  1  0  0  0  0
 52 63  1  0  0  0  0
 53 60  1  0  0  0  0
 54 61  1  0  0  0  0
 55 61  1  0  0  0  0
 56 61  1  0  0  0  0
 57 71  1  0  0  0  0
 58 78  1  0  0  0  0
 59 61  1  0  0  0  0
 59 70  1  0  0  0  0
 60 71  1  0  0  0  0
 62 63  1  0  0  0  0
M  CHG  1  71   1
M  ISO  4  38 100  58 101  64 100  78 101
M  END
> <Batch ID>
0030

> <Smiles>
CNC(C)C(=O)NC(C(=O)N1Cc2cc([101O:1][101CH2:1]c3ccc4c(c3)CC[100N:0]4[100C:0](=O)N3CCCC(n4nc(-c5ccc(Oc6ccc(F)cc6F)cc5)c(C(N)=O)c4N)C3)ccc2CC1C(=O)NC1CCCc2ccccc21)C(C)(C)C

> <Shape>
0.307

> <Color>
0.100

> <Negative vol penalty>
0.000

$$$$

  -OEChem-04042321363D

 89 98  0     1  0  0  0  0  0999 V2000
  -28.6130  -18.9626   17.5278 C   0  0  0  0  0  0  0  0  0  0  0  0
  -28.5103  -19.0896   18.9094 C   0  0  0  0  0  0  0  0  0  0  0  0
  -22.9892   -9.8431   19.9858 C   0  0  0  0  0  0  0  0  0  0  0  0
  -23.7096   -9.9088   22.2909 C   0  0  0  0  0  0  0  0  0  0  0  0
  -29.2752  -19.9402   16.7863 C   0  0  0  0  0  0  0  0  0  0  0  0
  -29.0707  -20.1939   19.5504 C   0  0  0  0  0  0  0  0  0  0  0  0
  -26.8908  -23.0797   24.4927 C   0  0  0  0  0  0  0  0  0  0  0  0
  -33.8412  -21.6808   26.3272 C   0  0  0  0  0  0  0  0  0  0  0  0
  -22.2229   -8.7097   20.2576 C   0  0  0  0  0  0  0  0  0  0  0  0
  -22.9433   -8.7754   22.5627 C   0  0  0  0  0  0  0  0  0  0  0  0
  -27.2148  -22.9970   25.8462 C   0  0  0  0  0  0  0  0  0  0  0  0
  -23.1909   -5.4338   22.1119 C   0  0  0  0  0  0  0  0  0  0  0  0
  -23.7776   -4.4217   22.8715 C   0  0  0  0  0  0  0  0  0  0  0  0
  -34.5976  -21.2494   25.2375 C   0  0  0  0  0  0  0  0  0  0  0  0
  -28.6788  -24.8991   25.6057 C   0  0  0  0  0  0  0  0  0  0  0  0
  -32.5897  -19.6149   26.2762 C   0  0  0  0  0  0  0  0  0  0  0  0
  -22.0502   -4.6737   24.5417 C   0  0  0  0  0  0  0  0  0  0  0  0
  -23.7326  -10.4426   21.0025 C   0  0  0  0  0  0  0  0  0  0  0  0
  -24.1165  -12.9573   20.8117 C   0  0  0  0  0  0  0  0  0  0  0  0
  -29.8355  -21.0619   17.4176 C   0  0  0  0  0  0  0  0  0  0  0  0
  -27.4677  -24.0676   23.6818 C   0  0  0  0  0  0  0  0  0  0  0  0
  -29.7421  -21.1868   18.8169 C   0  0  0  0  0  0  0  0  0  0  0  0
  -28.3585  -24.9938   24.2428 C   0  0  0  0  0  0  0  0  0  0  0  0
  -32.8373  -20.8635   26.8466 C   0  0  0  0  0  0  0  0  0  0  0  0
  -33.3460  -19.1835   25.1865 C   0  0  0  0  0  0  0  0  0  0  0  0
  -22.1999   -8.1759   21.5460 C   0  0  0  0  0  0  0  0  0  0  0  0
  -28.1112  -23.9050   26.4023 C   0  0  0  0  0  0  0  0  0  0  0  0
  -22.0339   -6.0659   22.5673 C   0  0  0  0  0  0  0  0  0  0  0  0
  -23.2073   -4.0416   24.0863 C   0  0  0  0  0  0  0  0  0  0  0  0
  -21.4635   -5.6859   23.7821 C   0  0  0  0  0  0  0  0  0  0  0  0
  -34.3500  -20.0008   24.6672 C   0  0  0  0  0  0  0  0  0  0  0  0
  -24.5248  -11.6130   20.7222 C   0  0  0  0  0  0  0  0  0  0  0  0
  -25.2265  -13.6784   20.4451 C   0  0  0  0  0  0  0  0  0  0  0  0
  -22.8474  -13.5052   21.1923 C   0  0  0  0  0  0  0  0  0  0  0  0
  -29.3479  -24.0500   21.1189 C   0  0  0  0  0  0  0  0  0  0  0  0
  -28.8152  -27.2490   21.1877 C   0  0  0  0  0  0  0  0  0  0  0  0
  -27.9717  -30.0071   23.0120 C   0  0  0  0  0  0  0  0  0  0  0  0
  -30.7217  -14.6184   20.6990 C   0  0  0  0  0  0  0  0  0  0  0  0
  -30.5828  -22.0688   16.5794 C   0  0  0  0  0  0  0  0  0  0  0  0
  -27.0872  -24.1600   22.2295 C   0  0  0  0  0  0  0  0  0  0  0  0
  -28.9897  -26.0858   23.4197 C   0  0  0  0  0  0  0  0  0  0  0  0
  -30.8233  -23.3966   17.2930 C   0  0  0  0  0  0  0  0  0  0  0  0
  -29.5875  -12.1795   18.3662 C   0  0  0  0  0  0  0  0  0  0  0  0
  -31.3404  -23.1564   18.7078 C   0  0  0  0  0  0  0  0  0  0  0  0
  -28.1383  -11.9213   18.7824 C   0  0  0  0  0  0  0  0  0  0  0  0
  -29.9676  -17.6736   22.7897 C   0  0  0  0  0  0  0  0  0  0  0  0
  -30.4873  -12.4230   19.5758 C   0  0  0  0  0  0  0  0  0  0  0  0
  -28.5739  -13.2254   20.9058 C   0  0  0  0  0  0  0  0  0  0  0  0
  -30.9843  -18.6395   23.3778 C   0  0  0  0  0  0  0  0  0  0  0  0
  -32.0517  -16.5522   22.6798 C   0  0  0  0  0  0  0  0  0  0  0  0
  -30.3154  -22.3827   19.5458 C   0  0  1  0  0  0  0  0  0  0  0  0
  -28.1285  -24.8869   21.3841 C   0  0  1  0  0  0  0  0  0  0  0  0
  -27.6174  -13.0297   19.7170 C   0  0  2  0  0  0  0  0  0  0  0  0
  -30.7948  -16.7943   21.8677 C   0  0  1  0  0  0  0  0  0  0  0  0
  -27.6568  -32.4878   22.8010 C   0  0  0  0  0  0  0  0  0  0  0  0
  -27.3479  -22.5129   29.4308 C   0  0  0  0  0  0  0  0  0  0  0  0
  -31.8426  -27.6276   21.1493 C   0  0  0  0  0  0  0  0  0  0  0  0
  -31.4862  -29.9928   21.8890 C   0  0  0  0  0  0  0  0  0  0  0  0
  -30.5735  -29.2216   19.6992 C   0  0  0  0  0  0  0  0  0  0  0  0
  -25.1242  -29.8295   23.7988 C   0  0  0  0  0  0  0  0  0  0  0  0
  -33.0502  -17.8390   24.6047 C   0  0  0  0  0  0  0  0  0  0  0  0
  -32.0238  -21.3279   28.0186 C   0  0  0  0  0  0  0  0  0  0  0  0
  -29.7990  -22.1633   28.7875 C   0  0  0  0  0  0  0  0  0  0  0  0
  -29.4887  -28.4312   21.8418 C   0  0  1  0  0  0  0  0  0  0  0  0
  -26.9812  -31.1264   22.7461 C   0  0  2  0  0  0  0  0  0  0  0  0
  -28.3937  -22.5322   28.3236 C   0  0  2  0  0  0  0  0  0  1  0  0
  -30.8375  -28.7966   21.1602 C   0  0  0  0  0  0  0  0  0  0  0  0
  -25.7950  -11.4850   20.3294 N   0  0  0  0  0  0  0  0  0  0  0  0
  -26.1944  -12.7581   20.1687 N   0  0  0  0  0  0  0  0  0  0  0  0
  -28.5908  -26.1308   22.0032 N   0  0  0  0  0  0  0  0  0  0  0  0
  -29.9380  -13.4865   20.4202 N   0  0  0  0  0  0  0  0  0  0  0  0
  -25.4593  -15.0036   20.3354 N   0  0  0  0  0  0  0  0  0  0  0  0
  -21.8155  -12.6225   21.5392 N   0  0  0  0  0  0  0  0  0  0  0  0
  -29.2550  -23.2633   19.9867 N   0  0  0  0  0  0  0  0  0  0  0  0
  -28.5077  -29.5110   21.8425 N   0  0  0  0  0  0  0  0  0  0  0  0
  -30.1231  -15.5817   21.5017 N   0  0  0  0  0  0  0  0  0  0  0  0
  -32.3125  -17.9067   23.3062 N   0  3  2  0  0  0  0  0  0  0  0  0
  -25.8886  -31.1027   23.7593 N   0  3  0  0  0  0  0  0  0  0  0  0
  -30.6491  -21.7553   27.6415 N   0  3  0  0  0  0  0  0  0  0  0  0
  -22.6298  -14.7405   21.2080 O   0  0  0  0  0  0  0  0  0  0  0  0
  -30.3030  -24.1143   21.8841 O   0  0  0  0  0  0  0  0  0  0  0  0
  -28.4934  -27.3179   19.9988 O   0  0  0  0  0  0  0  0  0  0  0  0
  -28.2454  -29.6149   24.1441 O   0  0  0  0  0  0  0  0  0  0  0  0
  -31.8679  -14.7624   20.2603 O   0  0  0  0  0  0  0  0  0  0  0  0
  -21.4521   -7.0701   21.8117 O   0  0  0  0  0  0  0  0  0  0  0  0
  -28.4297  -23.8261   27.7230 O   0  0  0  0  0  0  0  0  0  1  0  0
  -23.7700   -3.0686   24.8149 F   0  0  0  0  0  0  0  0  0  0  0  0
  -20.3513   -6.2887   24.2242 F   0  0  0  0  0  0  0  0  0  0  0  0
  -35.3059  -19.5002   23.3200 Cl  0  0  0  0  0  0  0  0  0  0  0  0
  1  2  1  0  0  0  0
  1  5  2  0  0  0  0
  2  6  2  0  0  0  0
  3  9  2  0  0  0  0
  3 18  1  0  0  0  0
  4 10  1  0  0  0  0
  4 18  2  0  0  0  0
  5 20  1  0  0  0  0
  6 22  1  0  0  0  0
  7 11  2  0  0  0  0
  7 21  1  0  0  0  0
  8 14  2  0  0  0  0
  8 24  1  0  0  0  0
  9 26  1  0  0  0  0
 10 26  2  0  0  0  0
 11 27  1  0  0  0  0
 12 13  2  0  0  0  0
 12 28  1  0  0  0  0
 13 29  1  0  0  0  0
 14 31  1  0  0  0  0
 15 23  1  0  0  0  0
 15 27  2  0  0  0  0
 16 24  2  0  0  0  0
 16 25  1  0  0  0  0
 17 29  2  0  0  0  0
 17 30  1  0  0  0  0
 18 32  1  0  0  0  0
 19 32  1  0  0  0  0
 19 33  2  0  0  0  0
 19 34  1  0  0  0  0
 20 22  2  0  0  0  0
 20 39  1  0  0  0  0
 21 23  2  0  0  0  0
 21 40  1  0  0  0  0
 22 51  1  0  0  0  0
 23 41  1  0  0  0  0
 24 62  1  0  0  0  0
 25 31  2  0  0  0  0
 25 61  1  0  0  0  0
 26 85  1  0  0  0  0
 27 86  1  0  0  0  0
 28 30  2  0  0  0  0
 28 85  1  0  0  0  0
 29 87  1  0  0  0  0
 30 88  1  0  0  0  0
 31 89  1  0  0  0  0
 32 68  2  0  0  0  0
 33 69  1  0  0  0  0
 33 72  1  0  0  0  0
 34 73  1  0  0  0  0
 34 80  2  0  0  0  0
 35 52  1  0  0  0  0
 35 74  1  0  0  0  0
 35 81  2  0  0  0  0
 36 64  1  0  0  0  0
 36 70  1  0  0  0  0
 36 82  2  0  0  0  0
 37 65  1  0  0  0  0
 37 75  1  0  0  0  0
 37 83  2  0  0  0  0
 38 71  1  0  0  0  0
 38 76  1  0  0  0  0
 38 84  2  0  0  0  0
 39 42  1  0  0  0  0
 40 52  1  0  0  0  0
 41 70  1  0  0  0  0
 42 44  1  0  0  0  0
 43 45  1  0  0  0  0
 43 47  1  0  0  0  0
 44 51  1  0  0  0  0
 45 53  1  0  0  0  0
 46 49  1  0  0  0  0
 46 54  1  0  0  0  0
 47 71  1  0  0  0  0
 48 53  1  0  0  0  0
 48 71  1  0  0  0  0
 49 77  1  0  0  0  0
 50 54  1  0  0  0  0
 50 77  1  0  0  0  0
 51 74  1  0  0  0  0
 52 70  1  0  0  0  0
 53 69  1  0  0  0  0
 54 76  1  0  0  0  0
 55 65  1  0  0  0  0
 56 66  1  0  0  0  0
 57 67  1  0  0  0  0
 58 67  1  0  0  0  0
 59 67  1  0  0  0  0
 60 78  1  0  0  0  0
 61 77  1  0  0  0  0
 62 79  1  0  0  0  0
 63 66  1  0  0  0  0
 63 79  1  0  0  0  0
 64 67  1  0  0  0  0
 64 75  1  0  0  0  0
 65 78  1  0  0  0  0
 66 86  1  0  0  0  0
 68 69  1  0  0  0  0
M  CHG  3  77   1  78   1  79   1
M  ISO  4  38 100  66 101  76 100  86 101
M  END
> <Batch ID>
0030

> <Smiles>
CNC(C)C(=O)NC(C(=O)N1Cc2cc([101O:1][101CH:1](C)CNCc3ccc(Cl)c(CN4CCC([100NH:0][100C:0](=O)N5CCCC(n6nc(-c7ccc(Oc8ccc(F)cc8F)cc7)c(C(N)=O)c6N)C5)C4)c3)ccc2CC1C(=O)NC1CCCc2ccccc21)C(C)(C)C

> <Shape>
0.287

> <Color>
0.202

> <Negative vol penalty>
0.000

$$$$

  -OEChem-04042321363D

 85 94  0     1  0  0  0  0  0999 V2000
  -42.0666  -26.6882   25.3619 C   0  0  0  0  0  0  0  0  0  0  0  0
  -41.1350  -25.6624   25.2385 C   0  0  0  0  0  0  0  0  0  0  0  0
  -23.1876   -9.8182   19.9305 C   0  0  0  0  0  0  0  0  0  0  0  0
  -23.5630   -9.9979   22.3104 C   0  0  0  0  0  0  0  0  0  0  0  0
  -41.6949  -28.0030   25.0846 C   0  0  0  0  0  0  0  0  0  0  0  0
  -39.8307  -25.9510   24.8386 C   0  0  0  0  0  0  0  0  0  0  0  0
  -36.1788  -22.4511   21.3861 C   0  0  0  0  0  0  0  0  0  0  0  0
  -31.5809  -17.3513   24.7662 C   0  0  0  0  0  0  0  0  0  0  0  0
  -22.4199   -8.6723   20.1381 C   0  0  0  0  0  0  0  0  0  0  0  0
  -22.7953   -8.8520   22.5180 C   0  0  0  0  0  0  0  0  0  0  0  0
  -35.1502  -21.5664   21.7071 C   0  0  0  0  0  0  0  0  0  0  0  0
  -23.1933   -5.5050   22.2540 C   0  0  0  0  0  0  0  0  0  0  0  0
  -23.6896   -4.5430   23.1337 C   0  0  0  0  0  0  0  0  0  0  0  0
  -30.9369  -16.4531   25.6172 C   0  0  0  0  0  0  0  0  0  0  0  0
  -33.5340  -23.3154   21.3223 C   0  0  0  0  0  0  0  0  0  0  0  0
  -21.7315   -4.8048   24.5246 C   0  0  0  0  0  0  0  0  0  0  0  0
  -23.7592  -10.4810   21.0166 C   0  0  0  0  0  0  0  0  0  0  0  0
  -24.1008  -12.9974   20.7736 C   0  0  0  0  0  0  0  0  0  0  0  0
  -40.3879  -28.3066   24.6718 C   0  0  0  0  0  0  0  0  0  0  0  0
  -35.8930  -23.7798   21.0408 C   0  0  0  0  0  0  0  0  0  0  0  0
  -39.4407  -27.2713   24.5568 C   0  0  0  0  0  0  0  0  0  0  0  0
  -34.5606  -24.2142   20.9949 C   0  0  0  0  0  0  0  0  0  0  0  0
  -31.1097  -15.9083   22.8866 C   0  0  0  0  0  0  0  0  0  0  0  0
  -30.4658  -15.0101   23.7376 C   0  0  0  0  0  0  0  0  0  0  0  0
  -31.6672  -17.0789   23.4009 C   0  0  0  0  0  0  0  0  0  0  0  0
  -22.2237   -8.1892   21.4318 C   0  0  0  0  0  0  0  0  0  0  0  0
  -33.8277  -21.9993   21.6781 C   0  0  0  0  0  0  0  0  0  0  0  0
  -21.9662   -6.1169   22.5096 C   0  0  0  0  0  0  0  0  0  0  0  0
  -22.9587   -4.1929   24.2690 C   0  0  0  0  0  0  0  0  0  0  0  0
  -21.2353   -5.7668   23.6449 C   0  0  0  0  0  0  0  0  0  0  0  0
  -30.3794  -15.2825   25.1029 C   0  0  0  0  0  0  0  0  0  0  0  0
  -24.5528  -11.6645   20.8028 C   0  0  0  0  0  0  0  0  0  0  0  0
  -25.2330  -13.7389   20.5399 C   0  0  0  0  0  0  0  0  0  0  0  0
  -22.7758  -13.5186   20.9428 C   0  0  0  0  0  0  0  0  0  0  0  0
  -36.6115  -26.6213   22.2709 C   0  0  0  0  0  0  0  0  0  0  0  0
  -35.1647  -27.7167   19.5821 C   0  0  0  0  0  0  0  0  0  0  0  0
  -32.9466  -27.1528   17.0506 C   0  0  0  0  0  0  0  0  0  0  0  0
  -31.0725  -12.2021   21.5778 C   0  0  0  0  0  0  0  0  0  0  0  0
  -40.0200  -29.7490   24.4289 C   0  0  0  0  0  0  0  0  0  0  0  0
  -37.0121  -24.7143   20.6712 C   0  0  0  0  0  0  0  0  0  0  0  0
  -34.1993  -25.6251   20.6109 C   0  0  0  0  0  0  0  0  0  0  0  0
  -38.7192  -29.9228   23.6491 C   0  0  0  0  0  0  0  0  0  0  0  0
  -29.5301  -13.4813   18.4655 C   0  0  0  0  0  0  0  0  0  0  0  0
  -37.6305  -29.0190   24.2189 C   0  0  0  0  0  0  0  0  0  0  0  0
  -28.0450  -13.2027   18.6908 C   0  0  0  0  0  0  0  0  0  0  0  0
  -30.4135  -12.4899   19.2167 C   0  0  0  0  0  0  0  0  0  0  0  0
  -28.6378  -12.1297   20.8993 C   0  0  0  0  0  0  0  0  0  0  0  0
  -33.3859  -18.8519   22.9179 C   0  0  0  0  0  0  0  0  0  0  0  0
  -31.7048  -18.8883   21.6530 C   0  0  0  0  0  0  0  0  0  0  0  0
  -38.0229  -27.5412   24.1018 C   0  0  1  0  0  0  0  0  0  0  0  0
  -36.6405  -26.1851   20.8333 C   0  0  1  0  0  0  0  0  0  0  0  0
  -27.7205  -13.1395   20.1934 C   0  0  2  0  0  0  0  0  0  0  0  0
  -32.9894  -19.7267   21.7204 C   0  0  0  0  0  0  0  0  0  1  0  0
  -31.2031  -15.6158   21.4213 C   0  0  0  0  0  0  0  0  0  0  0  0
  -31.9485  -28.2483   15.0254 C   0  0  0  0  0  0  0  0  0  0  0  0
  -33.3876  -29.4218   21.3833 C   0  0  0  0  0  0  0  0  0  0  0  0
  -31.8398  -29.7365   19.4408 C   0  0  0  0  0  0  0  0  0  0  0  0
  -34.1858  -30.5746   19.3125 C   0  0  0  0  0  0  0  0  0  0  0  0
  -31.9236  -12.5741   23.8618 C   0  0  0  0  0  0  0  0  0  0  0  0
  -34.0247  -25.0677   15.2480 C   0  0  0  0  0  0  0  0  0  0  0  0
  -29.8719  -13.7576   23.1721 C   0  0  0  0  0  0  0  0  0  0  0  0
  -33.7508  -28.0864   19.2037 C   0  0  1  0  0  0  0  0  0  0  0  0
  -33.0592  -27.3515   15.5498 C   0  0  2  0  0  0  0  0  0  0  0  0
  -33.2976  -29.4287   19.8442 C   0  0  0  0  0  0  0  0  0  0  0  0
  -25.8695  -11.5621   20.6033 N   0  0  0  0  0  0  0  0  0  0  0  0
  -26.2546  -12.8401   20.4465 N   0  0  0  0  0  0  0  0  0  0  0  0
  -32.3127  -17.9872   22.5691 N   0  0  0  0  0  0  0  0  0  0  0  0
  -35.3293  -26.5028   20.2641 N   0  0  0  0  0  0  0  0  0  0  0  0
  -30.0552  -12.4179   20.6336 N   0  0  0  0  0  0  0  0  0  0  0  0
  -25.4444  -15.0656   20.4071 N   0  0  0  0  0  0  0  0  0  0  0  0
  -21.7280  -12.6174   21.1754 N   0  0  0  0  0  0  0  0  0  0  0  0
  -37.8279  -27.0724   22.7466 N   0  0  0  0  0  0  0  0  0  0  0  0
  -33.7018  -28.0735   17.7457 N   0  0  0  0  0  0  0  0  0  0  0  0
  -30.8913  -12.7606   22.8521 N   0  0  0  0  0  0  0  0  0  0  0  0
  -32.9762  -26.0404   14.8461 N   0  3  0  0  0  0  0  0  0  0  0  0
  -22.5259  -14.7459   20.8730 O   0  0  0  0  0  0  0  0  0  0  0  0
  -35.5627  -26.5551   22.9013 O   0  0  0  0  0  0  0  0  0  0  0  0
  -36.0899  -28.4736   19.2773 O   0  0  0  0  0  0  0  0  0  0  0  0
  -32.2548  -26.2715   17.5558 O   0  0  0  0  0  0  0  0  0  0  0  0
  -32.0892  -11.5556   21.2947 O   0  0  0  0  0  0  0  0  0  0  0  0
  -21.4745   -7.0712   21.6348 O   0  0  0  0  0  0  0  0  0  0  0  0
  -32.8219  -21.1380   21.9916 O   0  0  0  0  0  0  0  0  0  1  0  0
  -23.4347   -3.2680   25.1129 F   0  0  0  0  0  0  0  0  0  0  0  0
  -20.0552   -6.3504   23.8951 F   0  0  0  0  0  0  0  0  0  0  0  0
  -29.5898  -14.1982   26.1901 Cl  0  0  0  0  0  0  0  0  0  0  0  0
  1  2  1  0  0  0  0
  1  5  2  0  0  0  0
  2  6  2  0  0  0  0
  3  9  2  0  0  0  0
  3 17  1  0  0  0  0
  4 10  1  0  0  0  0
  4 17  2  0  0  0  0
  5 19  1  0  0  0  0
  6 21  1  0  0  0  0
  7 11  2  0  0  0  0
  7 20  1  0  0  0  0
  8 14  2  0  0  0  0
  8 25  1  0  0  0  0
  9 26  1  0  0  0  0
 10 26  2  0  0  0  0
 11 27  1  0  0  0  0
 12 13  2  0  0  0  0
 12 28  1  0  0  0  0
 13 29  1  0  0  0  0
 14 31  1  0  0  0  0
 15 22  1  0  0  0  0
 15 27  2  0  0  0  0
 16 29  2  0  0  0  0
 16 30  1  0  0  0  0
 17 32  1  0  0  0  0
 18 32  1  0  0  0  0
 18 33  2  0  0  0  0
 18 34  1  0  0  0  0
 19 21  2  0  0  0  0
 19 39  1  0  0  0  0
 20 22  2  0  0  0  0
 20 40  1  0  0  0  0
 21 50  1  0  0  0  0
 22 41  1  0  0  0  0
 23 24  1  0  0  0  0
 23 25  2  0  0  0  0
 23 54  1  0  0  0  0
 24 31  2  0  0  0  0
 24 61  1  0  0  0  0
 25 67  1  0  0  0  0
 26 81  1  0  0  0  0
 27 82  1  0  0  0  0
 28 30  2  0  0  0  0
 28 81  1  0  0  0  0
 29 83  1  0  0  0  0
 30 84  1  0  0  0  0
 31 85  1  0  0  0  0
 32 65  2  0  0  0  0
 33 66  1  0  0  0  0
 33 70  1  0  0  0  0
 34 71  1  0  0  0  0
 34 76  2  0  0  0  0
 35 51  1  0  0  0  0
 35 72  1  0  0  0  0
 35 77  2  0  0  0  0
 36 62  1  0  0  0  0
 36 68  1  0  0  0  0
 36 78  2  0  0  0  0
 37 63  1  0  0  0  0
 37 73  1  0  0  0  0
 37 79  2  0  0  0  0
 38 69  1  0  0  0  0
 38 74  1  0  0  0  0
 38 80  2  0  0  0  0
 39 42  1  0  0  0  0
 40 51  1  0  0  0  0
 41 68  1  0  0  0  0
 42 44  1  0  0  0  0
 43 45  1  0  0  0  0
 43 46  1  0  0  0  0
 44 50  1  0  0  0  0
 45 52  1  0  0  0  0
 46 69  1  0  0  0  0
 47 52  1  0  0  0  0
 47 69  1  0  0  0  0
 48 53  1  0  0  0  0
 48 67  1  0  0  0  0
 49 53  1  0  0  0  0
 49 67  1  0  0  0  0
 50 72  1  0  0  0  0
 51 68  1  0  0  0  0
 52 66  1  0  0  0  0
 53 82  1  0  0  0  0
 55 63  1  0  0  0  0
 56 64  1  0  0  0  0
 57 64  1  0  0  0  0
 58 64  1  0  0  0  0
 59 74  1  0  0  0  0
 60 75  1  0  0  0  0
 61 74  1  0  0  0  0
 62 64  1  0  0  0  0
 62 73  1  0  0  0  0
 63 75  1  0  0  0  0
 65 66  1  0  0  0  0
M  CHG  1  75   1
M  ISO  4  38 100  53 101  74 100  82 101
M  END
> <Batch ID>
0030

> <Smiles>
CNC(C)C(=O)NC(C(=O)N1Cc2cc([101O:1][101CH:1]3CN(c4ccc(Cl)c(C[100N:0](C)[100C:0](=O)N5CCCC(n6nc(-c7ccc(Oc8ccc(F)cc8F)cc7)c(C(N)=O)c6N)C5)c4C)C3)ccc2CC1C(=O)NC1CCCc2ccccc21)C(C)(C)C

> <Shape>
0.160

> <Color>
0.190

> <Negative vol penalty>
0.000

$$$$

  -OEChem-04042321363D

 86 95  0     1  0  0  0  0  0999 V2000
  -25.1321  -36.4010   16.2404 C   0  0  0  0  0  0  0  0  0  0  0  0
  -25.5208  -35.0688   16.1429 C   0  0  0  0  0  0  0  0  0  0  0  0
  -23.2325  -10.0896   22.4223 C   0  0  0  0  0  0  0  0  0  0  0  0
  -23.4289   -9.8834   20.0231 C   0  0  0  0  0  0  0  0  0  0  0  0
  -25.1972  -37.0569   17.4690 C   0  0  0  0  0  0  0  0  0  0  0  0
  -25.9759  -34.3920   17.2739 C   0  0  0  0  0  0  0  0  0  0  0  0
  -25.1257  -28.4772   18.6153 C   0  0  0  0  0  0  0  0  0  0  0  0
  -29.3335  -20.6734   20.8139 C   0  0  0  0  0  0  0  0  0  0  0  0
  -22.5523   -8.8728   22.4712 C   0  0  0  0  0  0  0  0  0  0  0  0
  -22.7487   -8.6666   20.0720 C   0  0  0  0  0  0  0  0  0  0  0  0
  -25.9386  -27.3548   18.4634 C   0  0  0  0  0  0  0  0  0  0  0  0
  -23.3231   -5.5823   22.3658 C   0  0  0  0  0  0  0  0  0  0  0  0
  -23.6966   -4.6700   23.3527 C   0  0  0  0  0  0  0  0  0  0  0  0
  -30.1442  -19.5851   20.4913 C   0  0  0  0  0  0  0  0  0  0  0  0
  -26.6684  -27.5812   20.7515 C   0  0  0  0  0  0  0  0  0  0  0  0
  -21.4568   -4.7307   24.2565 C   0  0  0  0  0  0  0  0  0  0  0  0
  -23.6707  -10.5950   21.1982 C   0  0  0  0  0  0  0  0  0  0  0  0
  -25.5865  -12.1745   21.7834 C   0  0  0  0  0  0  0  0  0  0  0  0
  -25.6443  -36.3849   18.6176 C   0  0  0  0  0  0  0  0  0  0  0  0
  -25.0863  -29.1678   19.8351 C   0  0  0  0  0  0  0  0  0  0  0  0
  -26.0484  -35.0398   18.5188 C   0  0  0  0  0  0  0  0  0  0  0  0
  -25.8523  -28.7106   20.9170 C   0  0  0  0  0  0  0  0  0  0  0  0
  -27.9614  -20.6178   20.5690 C   0  0  0  0  0  0  0  0  0  0  0  0
  -27.4000  -19.4740   20.0013 C   0  0  0  0  0  0  0  0  0  0  0  0
  -28.2107  -18.3858   19.6786 C   0  0  0  0  0  0  0  0  0  0  0  0
  -22.3104   -8.1613   21.2961 C   0  0  0  0  0  0  0  0  0  0  0  0
  -26.7123  -26.9083   19.5307 C   0  0  0  0  0  0  0  0  0  0  0  0
  -22.0164   -6.0688   22.3243 C   0  0  0  0  0  0  0  0  0  0  0  0
  -22.7634   -4.2442   24.2980 C   0  0  0  0  0  0  0  0  0  0  0  0
  -21.0833   -5.6430   23.2696 C   0  0  0  0  0  0  0  0  0  0  0  0
  -29.5828  -18.4413   19.9236 C   0  0  0  0  0  0  0  0  0  0  0  0
  -24.3729  -11.8521   21.1470 C   0  0  0  0  0  0  0  0  0  0  0  0
  -25.8271  -13.4780   21.4237 C   0  0  0  0  0  0  0  0  0  0  0  0
  -26.4217  -11.3678   22.6244 C   0  0  0  0  0  0  0  0  0  0  0  0
  -25.8175  -32.1172   20.7677 C   0  0  0  0  0  0  0  0  0  0  0  0
  -24.5477  -31.1235   23.5825 C   0  0  0  0  0  0  0  0  0  0  0  0
  -23.7654  -28.5241   25.6507 C   0  0  0  0  0  0  0  0  0  0  0  0
  -25.9694  -17.2017   17.1306 C   0  0  0  0  0  0  0  0  0  0  0  0
  -25.7419  -37.1494   19.9140 C   0  0  0  0  0  0  0  0  0  0  0  0
  -24.1840  -30.3610   19.9909 C   0  0  0  0  0  0  0  0  0  0  0  0
  -25.8302  -29.4046   22.2536 C   0  0  0  0  0  0  0  0  0  0  0  0
  -25.8812  -36.2522   21.1412 C   0  0  0  0  0  0  0  0  0  0  0  0
  -22.8770  -16.8799   19.1393 C   0  0  0  0  0  0  0  0  0  0  0  0
  -26.9295  -35.1716   20.8962 C   0  0  0  0  0  0  0  0  0  0  0  0
  -23.0693  -15.5326   19.8334 C   0  0  0  0  0  0  0  0  0  0  0  0
  -23.6090  -16.9386   17.8020 C   0  0  0  0  0  0  0  0  0  0  0  0
  -25.2504  -15.2645   18.5877 C   0  0  0  0  0  0  0  0  0  0  0  0
  -26.0723  -23.8716   20.1391 C   0  0  0  0  0  0  0  0  0  0  0  0
  -27.8237  -23.3195   19.1440 C   0  0  0  0  0  0  0  0  0  0  0  0
  -26.5242  -34.2644   19.7281 C   0  0  1  0  0  0  0  0  0  0  0  0
  -24.6132  -31.2912   21.1214 C   0  0  1  0  0  0  0  0  0  0  0  0
  -24.5637  -15.1890   19.9597 C   0  0  2  0  0  0  0  0  0  0  0  0
  -26.9093  -24.5528   19.0418 C   0  0  0  0  0  0  0  0  0  1  0  0
  -25.9278  -19.4183   19.7402 C   0  0  0  0  0  0  0  0  0  0  0  0
  -22.7704  -28.0272   27.9002 C   0  0  0  0  0  0  0  0  0  0  0  0
  -27.1384  -32.0183   24.9234 C   0  0  0  0  0  0  0  0  0  0  0  0
  -26.4888  -30.6623   26.9253 C   0  0  0  0  0  0  0  0  0  0  0  0
  -25.0589  -32.5724   26.1974 C   0  0  0  0  0  0  0  0  0  0  0  0
  -28.2777  -18.0254   16.8606 C   0  0  0  0  0  0  0  0  0  0  0  0
  -21.5617  -26.9498   24.4572 C   0  0  0  0  0  0  0  0  0  0  0  0
  -27.5950  -17.1643   19.0693 C   0  0  0  0  0  0  0  0  0  0  0  0
  -27.1128  -21.8021   20.9274 C   0  0  0  0  0  0  0  0  0  0  0  0
  -25.0887  -30.4516   24.8214 C   0  0  1  0  0  0  0  0  0  0  0  0
  -22.4959  -28.1905   26.4134 C   0  0  2  0  0  0  0  0  0  0  0  0
  -25.9458  -31.4140   25.6912 C   0  0  0  0  0  0  0  0  0  0  0  0
  -23.8770  -12.8689   20.4370 N   0  0  0  0  0  0  0  0  0  0  0  0
  -24.7835  -13.8431   20.6252 N   0  0  0  0  0  0  0  0  0  0  0  0
  -24.9368  -30.5704   22.3542 N   0  0  0  0  0  0  0  0  0  0  0  0
  -25.0168  -16.5658   17.9436 N   0  0  0  0  0  0  0  0  0  0  0  0
  -26.8274  -14.3362   21.7159 N   0  0  0  0  0  0  0  0  0  0  0  0
  -27.4332  -10.6039   22.0262 N   0  0  0  0  0  0  0  0  0  0  0  0
  -25.5158  -33.3163   20.1508 N   0  0  0  0  0  0  0  0  0  0  0  0
  -23.9367  -29.8855   25.5148 N   0  0  0  0  0  0  0  0  0  0  0  0
  -27.2584  -17.3618   17.6611 N   0  0  0  0  0  0  0  0  0  0  0  0
  -26.6928  -22.5920   19.7494 N   0  3  0  0  0  0  0  0  0  0  0  0
  -21.9030  -26.9222   25.9028 N   0  3  0  0  0  0  0  0  0  0  0  0
  -26.2649  -11.3129   23.8678 O   0  0  0  0  0  0  0  0  0  0  0  0
  -26.9374  -31.6984   21.0361 O   0  0  0  0  0  0  0  0  0  0  0  0
  -23.8015  -32.0986   23.7003 O   0  0  0  0  0  0  0  0  0  0  0  0
  -24.5306  -27.6631   25.2219 O   0  0  0  0  0  0  0  0  0  0  0  0
  -25.6813  -17.6120   15.9989 O   0  0  0  0  0  0  0  0  0  0  0  0
  -21.6470   -6.9738   21.3434 O   0  0  0  0  0  0  0  0  0  0  0  0
  -27.5071  -25.8133   19.3850 O   0  0  0  0  0  0  0  0  0  1  0  0
  -23.1218   -3.3670   25.2447 F   0  0  0  0  0  0  0  0  0  0  0  0
  -19.8263   -6.1060   23.2341 F   0  0  0  0  0  0  0  0  0  0  0  0
  -30.6202  -17.1160   19.5387 Cl  0  0  0  0  0  0  0  0  0  0  0  0
  1  2  1  0  0  0  0
  1  5  2  0  0  0  0
  2  6  2  0  0  0  0
  3  9  2  0  0  0  0
  3 17  1  0  0  0  0
  4 10  1  0  0  0  0
  4 17  2  0  0  0  0
  5 19  1  0  0  0  0
  6 21  1  0  0  0  0
  7 11  2  0  0  0  0
  7 20  1  0  0  0  0
  8 14  2  0  0  0  0
  8 23  1  0  0  0  0
  9 26  1  0  0  0  0
 10 26  2  0  0  0  0
 11 27  1  0  0  0  0
 12 13  2  0  0  0  0
 12 28  1  0  0  0  0
 13 29  1  0  0  0  0
 14 31  1  0  0  0  0
 15 22  1  0  0  0  0
 15 27  2  0  0  0  0
 16 29  2  0  0  0  0
 16 30  1  0  0  0  0
 17 32  1  0  0  0  0
 18 32  1  0  0  0  0
 18 33  2  0  0  0  0
 18 34  1  0  0  0  0
 19 21  2  0  0  0  0
 19 39  1  0  0  0  0
 20 22  2  0  0  0  0
 20 40  1  0  0  0  0
 21 50  1  0  0  0  0
 22 41  1  0  0  0  0
 23 24  2  0  0  0  0
 23 62  1  0  0  0  0
 24 25  1  0  0  0  0
 24 54  1  0  0  0  0
 25 31  2  0  0  0  0
 25 61  1  0  0  0  0
 26 82  1  0  0  0  0
 27 83  1  0  0  0  0
 28 30  2  0  0  0  0
 28 82  1  0  0  0  0
 29 84  1  0  0  0  0
 30 85  1  0  0  0  0
 31 86  1  0  0  0  0
 32 66  2  0  0  0  0
 33 67  1  0  0  0  0
 33 70  1  0  0  0  0
 34 71  1  0  0  0  0
 34 77  2  0  0  0  0
 35 51  1  0  0  0  0
 35 72  1  0  0  0  0
 35 78  2  0  0  0  0
 36 63  1  0  0  0  0
 36 68  1  0  0  0  0
 36 79  2  0  0  0  0
 37 64  1  0  0  0  0
 37 73  1  0  0  0  0
 37 80  2  0  0  0  0
 38 69  1  0  0  0  0
 38 74  1  0  0  0  0
 38 81  2  0  0  0  0
 39 42  1  0  0  0  0
 40 51  1  0  0  0  0
 41 68  1  0  0  0  0
 42 44  1  0  0  0  0
 43 45  1  0  0  0  0
 43 46  1  0  0  0  0
 44 50  1  0  0  0  0
 45 52  1  0  0  0  0
 46 69  1  0  0  0  0
 47 52  1  0  0  0  0
 47 69  1  0  0  0  0
 48 53  1  0  0  0  0
 48 75  1  0  0  0  0
 49 53  1  0  0  0  0
 49 75  1  0  0  0  0
 50 72  1  0  0  0  0
 51 68  1  0  0  0  0
 52 67  1  0  0  0  0
 53 83  1  0  0  0  0
 55 64  1  0  0  0  0
 56 65  1  0  0  0  0
 57 65  1  0  0  0  0
 58 65  1  0  0  0  0
 59 74  1  0  0  0  0
 60 76  1  0  0  0  0
 61 74  1  0  0  0  0
 62 75  1  0  0  0  0
 63 65  1  0  0  0  0
 63 73  1  0  0  0  0
 64 76  1  0  0  0  0
 66 67  1  0  0  0  0
M  CHG  2  75   1  76   1
M  ISO  4  38 100  53 101  74 100  83 101
M  END
> <Batch ID>
0030

> <Smiles>
CNC(C)C(=O)NC(C(=O)N1Cc2cc([101O:1][101CH:1]3CN(Cc4ccc(Cl)c(C[100N:0](C)[100C:0](=O)N5CCCC(n6nc(-c7ccc(Oc8ccc(F)cc8F)cc7)c(C(N)=O)c6N)C5)c4C)C3)ccc2CC1C(=O)NC1CCCc2ccccc21)C(C)(C)C

> <Shape>
0.257

> <Color>
0.130

> <Negative vol penalty>
0.000

$$$$

  -OEChem-04042321363D

 84 93  0     1  0  0  0  0  0999 V2000
  -30.7995  -11.0375   19.4239 C   0  0  0  0  0  0  0  0  0  0  0  0
  -30.6073  -12.3927   19.1750 C   0  0  0  0  0  0  0  0  0  0  0  0
  -20.3176  -27.7403   23.9901 C   0  0  0  0  0  0  0  0  0  0  0  0
  -21.9568  -25.9656   24.0142 C   0  0  0  0  0  0  0  0  0  0  0  0
  -29.7286  -10.2477   19.8404 C   0  0  0  0  0  0  0  0  0  0  0  0
  -29.3438  -12.9587   19.3413 C   0  0  0  0  0  0  0  0  0  0  0  0
  -29.5056  -17.3846   21.7968 C   0  0  0  0  0  0  0  0  0  0  0  0
  -19.3041  -26.8016   23.7970 C   0  0  0  0  0  0  0  0  0  0  0  0
  -20.9433  -25.0269   23.8212 C   0  0  0  0  0  0  0  0  0  0  0  0
  -29.9029  -18.5038   21.0665 C   0  0  0  0  0  0  0  0  0  0  0  0
  -18.8289  -22.1943   22.9749 C   0  0  0  0  0  0  0  0  0  0  0  0
  -19.0457  -21.1911   22.0305 C   0  0  0  0  0  0  0  0  0  0  0  0
  -27.5928  -19.1507   20.8127 C   0  0  0  0  0  0  0  0  0  0  0  0
  -30.5765  -27.1065   21.9678 C   0  0  0  0  0  0  0  0  0  0  0  0
  -30.2848  -24.7094   22.0427 C   0  0  0  0  0  0  0  0  0  0  0  0
  -19.2908  -22.8664   20.3070 C   0  0  0  0  0  0  0  0  0  0  0  0
  -21.6440  -27.3223   24.0986 C   0  0  0  0  0  0  0  0  0  0  0  0
  -23.1879  -28.7666   25.5262 C   0  0  0  0  0  0  0  0  0  0  0  0
  -28.4535  -10.8063   20.0212 C   0  0  0  0  0  0  0  0  0  0  0  0
  -28.1461  -17.1338   22.0317 C   0  0  0  0  0  0  0  0  0  0  0  0
  -28.2546  -12.1754   19.7593 C   0  0  0  0  0  0  0  0  0  0  0  0
  -27.1811  -18.0290   21.5485 C   0  0  0  0  0  0  0  0  0  0  0  0
  -30.8775  -25.8703   22.5394 C   0  0  0  0  0  0  0  0  0  0  0  0
  -29.6827  -27.1819   20.8995 C   0  0  0  0  0  0  0  0  0  0  0  0
  -29.0900  -26.0210   20.4028 C   0  0  0  0  0  0  0  0  0  0  0  0
  -29.3910  -24.7847   20.9744 C   0  0  0  0  0  0  0  0  0  0  0  0
  -19.6169  -25.4449   23.7126 C   0  0  0  0  0  0  0  0  0  0  0  0
  -28.9463  -19.3855   20.5718 C   0  0  0  0  0  0  0  0  0  0  0  0
  -18.8429  -23.5337   22.5854 C   0  0  0  0  0  0  0  0  0  0  0  0
  -19.2767  -21.5271   20.6966 C   0  0  0  0  0  0  0  0  0  0  0  0
  -19.0739  -23.8697   21.2515 C   0  0  0  0  0  0  0  0  0  0  0  0
  -22.6914  -28.2915   24.2975 C   0  0  0  0  0  0  0  0  0  0  0  0
  -24.1666  -29.6647   25.1769 C   0  0  0  0  0  0  0  0  0  0  0  0
  -22.7992  -28.4264   26.8637 C   0  0  0  0  0  0  0  0  0  0  0  0
  -26.1317  -14.7966   21.2677 C   0  0  0  0  0  0  0  0  0  0  0  0
  -24.0973  -16.4551   23.1737 C   0  0  0  0  0  0  0  0  0  0  0  0
  -23.2317  -19.4403   24.5831 C   0  0  0  0  0  0  0  0  0  0  0  0
  -27.6079  -30.2582   20.3131 C   0  0  0  0  0  0  0  0  0  0  0  0
  -27.3161   -9.9029   20.4272 C   0  0  0  0  0  0  0  0  0  0  0  0
  -27.7354  -15.9365   22.8441 C   0  0  0  0  0  0  0  0  0  0  0  0
  -25.7099  -17.8157   21.7904 C   0  0  0  0  0  0  0  0  0  0  0  0
  -26.0924  -10.6574   20.9406 C   0  0  0  0  0  0  0  0  0  0  0  0
  -25.3969  -32.6907   21.6811 C   0  0  0  0  0  0  0  0  0  0  0  0
  -25.7536  -11.8195   20.0124 C   0  0  0  0  0  0  0  0  0  0  0  0
  -24.4976  -31.8819   22.6176 C   0  0  0  0  0  0  0  0  0  0  0  0
  -25.7577  -31.9016   20.4244 C   0  0  0  0  0  0  0  0  0  0  0  0
  -25.4478  -29.7644   21.6117 C   0  0  0  0  0  0  0  0  0  0  0  0
  -28.5173  -22.4396   21.2341 C   0  0  0  0  0  0  0  0  0  0  0  0
  -29.1315  -22.9389   19.2845 C   0  0  0  0  0  0  0  0  0  0  0  0
  -26.9044  -12.8311   19.9522 C   0  0  1  0  0  0  0  0  0  0  0  0
  -26.2961  -15.5029   22.5837 C   0  0  1  0  0  0  0  0  0  0  0  0
  -25.1027  -30.4977   22.9192 C   0  0  2  0  0  0  0  0  0  0  0  0
  -28.5185  -21.6744   19.9033 C   0  0  0  0  0  0  0  0  0  1  0  0
  -31.8316  -25.7903   23.6828 C   0  0  0  0  0  0  0  0  0  0  0  0
  -28.1310  -26.1065   19.2572 C   0  0  0  0  0  0  0  0  0  0  0  0
  -21.4984  -20.4913   26.0624 C   0  0  0  0  0  0  0  0  0  0  0  0
  -22.1156  -16.4467   20.8537 C   0  0  0  0  0  0  0  0  0  0  0  0
  -20.8536  -18.2699   22.0163 C   0  0  0  0  0  0  0  0  0  0  0  0
  -21.0945  -16.0357   23.0993 C   0  0  0  0  0  0  0  0  0  0  0  0
  -25.2509  -20.1887   26.6133 C   0  0  0  0  0  0  0  0  0  0  0  0
  -29.3774  -28.5181   20.3058 C   0  0  0  0  0  0  0  0  0  0  0  0
  -23.1003  -17.5684   22.9603 C   0  0  1  0  0  0  0  0  0  0  0  0
  -22.8575  -19.8112   26.0068 C   0  0  2  0  0  0  0  0  0  0  0  0
  -21.8185  -17.0834   22.2260 C   0  0  0  0  0  0  0  0  0  0  0  0
  -23.3040  -28.8424   23.2462 N   0  0  0  0  0  0  0  0  0  0  0  0
  -24.1955  -29.6729   23.8133 N   0  0  0  0  0  0  0  0  0  0  0  0
  -28.8113  -23.6163   20.4926 N   0  0  0  0  0  0  0  0  0  0  0  0
  -25.3580  -16.6273   22.5850 N   0  0  0  0  0  0  0  0  0  0  0  0
  -26.3279  -30.5999   20.7798 N   0  0  0  0  0  0  0  0  0  0  0  0
  -24.9967  -30.4403   25.9061 N   0  0  0  0  0  0  0  0  0  0  0  0
  -21.7764  -27.4852   27.0433 N   0  0  0  0  0  0  0  0  0  0  0  0
  -26.9095  -13.6619   21.1372 N   0  0  0  0  0  0  0  0  0  0  0  0
  -22.8518  -18.1512   24.2745 N   0  0  0  0  0  0  0  0  0  0  0  0
  -28.0761  -29.0089   20.7013 N   0  0  0  0  0  0  0  0  0  0  0  0
  -23.8712  -20.7387   26.5839 N   0  3  0  0  0  0  0  0  0  0  0  0
  -23.3316  -28.9540   27.8696 O   0  0  0  0  0  0  0  0  0  0  0  0
  -25.3556  -15.2469   20.4332 O   0  0  0  0  0  0  0  0  0  0  0  0
  -23.7718  -15.4722   23.8443 O   0  0  0  0  0  0  0  0  0  0  0  0
  -23.8006  -20.2176   23.8198 O   0  0  0  0  0  0  0  0  0  0  0  0
  -28.2857  -31.0130   19.6074 O   0  0  0  0  0  0  0  0  0  0  0  0
  -18.6282  -24.5286   23.5244 O   0  0  0  0  0  0  0  0  0  0  0  0
  -29.3313  -20.4783   19.8581 O   0  0  0  0  0  0  0  0  0  1  0  0
  -19.4865  -20.5636   19.7900 F   0  0  0  0  0  0  0  0  0  0  0  0
  -19.0897  -25.1547   20.8715 F   0  0  0  0  0  0  0  0  0  0  0  0
  1  2  1  0  0  0  0
  1  5  2  0  0  0  0
  2  6  2  0  0  0  0
  3  8  2  0  0  0  0
  3 17  1  0  0  0  0
  4  9  1  0  0  0  0
  4 17  2  0  0  0  0
  5 19  1  0  0  0  0
  6 21  1  0  0  0  0
  7 10  2  0  0  0  0
  7 20  1  0  0  0  0
  8 27  1  0  0  0  0
  9 27  2  0  0  0  0
 10 28  1  0  0  0  0
 11 12  2  0  0  0  0
 11 29  1  0  0  0  0
 12 30  1  0  0  0  0
 13 22  1  0  0  0  0
 13 28  2  0  0  0  0
 14 23  1  0  0  0  0
 14 24  2  0  0  0  0
 15 23  2  0  0  0  0
 15 26  1  0  0  0  0
 16 30  2  0  0  0  0
 16 31  1  0  0  0  0
 17 32  1  0  0  0  0
 18 32  1  0  0  0  0
 18 33  2  0  0  0  0
 18 34  1  0  0  0  0
 19 21  2  0  0  0  0
 19 39  1  0  0  0  0
 20 22  2  0  0  0  0
 20 40  1  0  0  0  0
 21 50  1  0  0  0  0
 22 41  1  0  0  0  0
 23 54  1  0  0  0  0
 24 25  1  0  0  0  0
 24 61  1  0  0  0  0
 25 26  2  0  0  0  0
 25 55  1  0  0  0  0
 26 67  1  0  0  0  0
 27 81  1  0  0  0  0
 28 82  1  0  0  0  0
 29 31  2  0  0  0  0
 29 81  1  0  0  0  0
 30 83  1  0  0  0  0
 31 84  1  0  0  0  0
 32 65  2  0  0  0  0
 33 66  1  0  0  0  0
 33 70  1  0  0  0  0
 34 71  1  0  0  0  0
 34 76  2  0  0  0  0
 35 51  1  0  0  0  0
 35 72  1  0  0  0  0
 35 77  2  0  0  0  0
 36 62  1  0  0  0  0
 36 68  1  0  0  0  0
 36 78  2  0  0  0  0
 37 63  1  0  0  0  0
 37 73  1  0  0  0  0
 37 79  2  0  0  0  0
 38 69  1  0  0  0  0
 38 74  1  0  0  0  0
 38 80  2  0  0  0  0
 39 42  1  0  0  0  0
 40 51  1  0  0  0  0
 41 68  1  0  0  0  0
 42 44  1  0  0  0  0
 43 45  1  0  0  0  0
 43 46  1  0  0  0  0
 44 50  1  0  0  0  0
 45 52  1  0  0  0  0
 46 69  1  0  0  0  0
 47 52  1  0  0  0  0
 47 69  1  0  0  0  0
 48 53  1  0  0  0  0
 48 67  1  0  0  0  0
 49 53  1  0  0  0  0
 49 67  1  0  0  0  0
 50 72  1  0  0  0  0
 51 68  1  0  0  0  0
 52 66  1  0  0  0  0
 53 82  1  0  0  0  0
 56 63  1  0  0  0  0
 57 64  1  0  0  0  0
 58 64  1  0  0  0  0
 59 64  1  0  0  0  0
 60 75  1  0  0  0  0
 61 74  1  0  0  0  0
 62 64  1  0  0  0  0
 62 73  1  0  0  0  0
 63 75  1  0  0  0  0
 65 66  1  0  0  0  0
M  CHG  1  75   1
M  ISO  4  38 100  53 101  74 100  82 101
M  END
> <Batch ID>
0030

> <Smiles>
CNC(C)C(=O)NC(C(=O)N1Cc2cc([101O:1][101CH:1]3CN(c4cc(C)cc(C[100NH:0][100C:0](=O)N5CCCC(n6nc(-c7ccc(Oc8ccc(F)cc8F)cc7)c(C(N)=O)c6N)C5)c4C)C3)ccc2CC1C(=O)NC1CCCc2ccccc21)C(C)(C)C

> <Shape>
0.216

> <Color>
0.064

> <Negative vol penalty>
0.000

$$$$

  -OEChem-04042321363D

 83 92  0     1  0  0  0  0  0999 V2000
  -25.8962  -35.3958   23.7635 C   0  0  0  0  0  0  0  0  0  0  0  0
  -26.4829  -34.1872   23.4022 C   0  0  0  0  0  0  0  0  0  0  0  0
  -27.6326  -14.5921   19.5320 C   0  0  0  0  0  0  0  0  0  0  0  0
  -25.6516  -15.0052   20.8519 C   0  0  0  0  0  0  0  0  0  0  0  0
  -24.6166  -35.4104   24.3169 C   0  0  0  0  0  0  0  0  0  0  0  0
  -25.7906  -32.9923   23.5952 C   0  0  0  0  0  0  0  0  0  0  0  0
  -26.0928  -29.9040   19.5932 C   0  0  0  0  0  0  0  0  0  0  0  0
  -32.3827  -24.0985   19.5062 C   0  0  0  0  0  0  0  0  0  0  0  0
  -31.5405  -24.2982   18.4124 C   0  0  0  0  0  0  0  0  0  0  0  0
  -27.4344  -13.2178   19.6647 C   0  0  0  0  0  0  0  0  0  0  0  0
  -25.4534  -13.6309   20.9846 C   0  0  0  0  0  0  0  0  0  0  0  0
  -27.2759  -29.1842   19.4323 C   0  0  0  0  0  0  0  0  0  0  0  0
  -24.2220  -11.1014   19.1122 C   0  0  0  0  0  0  0  0  0  0  0  0
  -22.9291  -10.6134   18.9229 C   0  0  0  0  0  0  0  0  0  0  0  0
  -26.2153  -27.2392   20.3869 C   0  0  0  0  0  0  0  0  0  0  0  0
  -30.6876  -24.9958   20.9754 C   0  0  0  0  0  0  0  0  0  0  0  0
  -22.9275   -9.7435   21.1769 C   0  0  0  0  0  0  0  0  0  0  0  0
  -26.7412  -15.4858   20.1257 C   0  0  0  0  0  0  0  0  0  0  0  0
  -28.0652  -17.6475   20.4115 C   0  0  0  0  0  0  0  0  0  0  0  0
  -23.9044  -34.2158   24.5078 C   0  0  0  0  0  0  0  0  0  0  0  0
  -24.9634  -29.2989   20.1631 C   0  0  0  0  0  0  0  0  0  0  0  0
  -24.5008  -32.9907   24.1529 C   0  0  0  0  0  0  0  0  0  0  0  0
  -25.0183  -27.9527   20.5516 C   0  0  0  0  0  0  0  0  0  0  0  0
  -31.9562  -24.4473   20.7877 C   0  0  0  0  0  0  0  0  0  0  0  0
  -30.2718  -24.8467   18.6001 C   0  0  0  0  0  0  0  0  0  0  0  0
  -29.8453  -25.1956   19.8815 C   0  0  0  0  0  0  0  0  0  0  0  0
  -26.3448  -12.7372   20.3909 C   0  0  0  0  0  0  0  0  0  0  0  0
  -27.3382  -27.8524   19.8318 C   0  0  0  0  0  0  0  0  0  0  0  0
  -24.8677  -10.9104   20.3338 C   0  0  0  0  0  0  0  0  0  0  0  0
  -22.2818   -9.9344   19.9553 C   0  0  0  0  0  0  0  0  0  0  0  0
  -24.2205  -10.2315   21.3661 C   0  0  0  0  0  0  0  0  0  0  0  0
  -26.9457  -16.9056   19.9895 C   0  0  0  0  0  0  0  0  0  0  0  0
  -27.7739  -18.9415   20.0546 C   0  0  0  0  0  0  0  0  0  0  0  0
  -29.2614  -17.2066   21.0674 C   0  0  0  0  0  0  0  0  0  0  0  0
  -25.8742  -22.5701   16.2408 C   0  0  0  0  0  0  0  0  0  0  0  0
  -23.2161  -29.8152   22.7677 C   0  0  0  0  0  0  0  0  0  0  0  0
  -21.3403  -27.4945   21.4955 C   0  0  0  0  0  0  0  0  0  0  0  0
  -21.0769  -24.7888   19.4325 C   0  0  0  0  0  0  0  0  0  0  0  0
  -22.5427  -34.2777   25.1532 C   0  0  0  0  0  0  0  0  0  0  0  0
  -23.6867  -30.0813   20.3053 C   0  0  0  0  0  0  0  0  0  0  0  0
  -23.8277  -27.2509   21.1501 C   0  0  0  0  0  0  0  0  0  0  0  0
  -21.7271  -32.9993   24.9783 C   0  0  0  0  0  0  0  0  0  0  0  0
  -23.4707  -21.0327   18.4388 C   0  0  0  0  0  0  0  0  0  0  0  0
  -22.5821  -31.7741   25.2862 C   0  0  0  0  0  0  0  0  0  0  0  0
  -24.2435  -19.8624   19.0458 C   0  0  0  0  0  0  0  0  0  0  0  0
  -23.8846  -21.2853   16.9924 C   0  0  0  0  0  0  0  0  0  0  0  0
  -26.1297  -20.3313   17.4187 C   0  0  0  0  0  0  0  0  0  0  0  0
  -28.1819  -22.9233   17.4640 C   0  0  0  0  0  0  0  0  0  0  0  0
  -28.0208  -23.9934   15.6818 C   0  0  0  0  0  0  0  0  0  0  0  0
  -23.7718  -31.6756   24.3237 C   0  0  1  0  0  0  0  0  0  0  0  0
  -27.3988  -22.6639   16.1593 C   0  0  0  0  0  0  0  0  0  0  0  0
  -22.7535  -29.5137   21.3703 C   0  0  1  0  0  0  0  0  0  0  0  0
  -25.7612  -20.0626   18.8884 C   0  0  2  0  0  0  0  0  0  0  0  0
  -32.8571  -24.2341   21.9569 C   0  0  0  0  0  0  0  0  0  0  0  0
  -19.4261  -23.0787   18.6275 C   0  0  0  0  0  0  0  0  0  0  0  0
  -21.5673  -26.0248   24.1598 C   0  0  0  0  0  0  0  0  0  0  0  0
  -20.7383  -23.9600   23.0119 C   0  0  0  0  0  0  0  0  0  0  0  0
  -19.2855  -25.9840   23.1370 C   0  0  0  0  0  0  0  0  0  0  0  0
  -21.3619  -25.6676   16.6208 C   0  0  0  0  0  0  0  0  0  0  0  0
  -29.3882  -25.0523   17.4137 C   0  0  0  0  0  0  0  0  0  0  0  0
  -28.4852  -25.7874   20.1076 C   0  0  0  0  0  0  0  0  0  1  0  0
  -21.2878  -25.9890   21.5934 C   0  0  1  0  0  0  0  0  0  0  0  0
  -20.0618  -24.4342   18.3608 C   0  0  2  0  0  0  0  0  0  0  0  0
  -20.7429  -25.5029   22.9660 C   0  0  0  0  0  0  0  0  0  0  0  0
  -26.0128  -17.6650   19.4090 N   0  0  0  0  0  0  0  0  0  0  0  0
  -26.5454  -18.8976   19.4638 N   0  0  0  0  0  0  0  0  0  0  0  0
  -25.3356  -21.4411   16.8774 N   0  0  0  0  0  0  0  0  0  0  0  0
  -22.6040  -28.0602   21.2743 N   0  0  0  0  0  0  0  0  0  0  0  0
  -28.4513  -20.1011   20.1917 N   0  0  0  0  0  0  0  0  0  0  0  0
  -29.2853  -17.1830   22.4686 N   0  0  0  0  0  0  0  0  0  0  0  0
  -23.3421  -31.1641   23.0398 N   0  0  0  0  0  0  0  0  0  0  0  0
  -20.5106  -25.5323   20.4463 N   0  0  0  0  0  0  0  0  0  0  0  0
  -29.0800  -23.7999   16.6895 N   0  3  0  0  0  0  0  0  0  0  0  0
  -20.7154  -24.3917   17.0222 N   0  3  0  0  0  0  0  0  0  0  0  0
  -30.2846  -16.8597   20.4301 O   0  0  0  0  0  0  0  0  0  0  0  0
  -25.1640  -23.4653   15.7585 O   0  0  0  0  0  0  0  0  0  0  0  0
  -23.4405  -28.8925   23.5422 O   0  0  0  0  0  0  0  0  0  0  0  0
  -20.2974  -28.1443   21.6041 O   0  0  0  0  0  0  0  0  0  0  0  0
  -22.2535  -24.4378   19.3777 O   0  0  0  0  0  0  0  0  0  0  0  0
  -26.1510  -11.3962   20.5203 O   0  0  0  0  0  0  0  0  0  0  0  0
  -28.4919  -27.1477   19.6765 O   0  0  0  0  0  0  0  0  0  1  0  0
  -21.0397   -9.4672   19.7739 F   0  0  0  0  0  0  0  0  0  0  0  0
  -24.8353  -10.0460   22.5423 F   0  0  0  0  0  0  0  0  0  0  0  0
  1  2  1  0  0  0  0
  1  5  2  0  0  0  0
  2  6  2  0  0  0  0
  3 10  2  0  0  0  0
  3 18  1  0  0  0  0
  4 11  1  0  0  0  0
  4 18  2  0  0  0  0
  5 20  1  0  0  0  0
  6 22  1  0  0  0  0
  7 12  2  0  0  0  0
  7 21  1  0  0  0  0
  8  9  2  0  0  0  0
  8 24  1  0  0  0  0
  9 25  1  0  0  0  0
 10 27  1  0  0  0  0
 11 27  2  0  0  0  0
 12 28  1  0  0  0  0
 13 14  2  0  0  0  0
 13 29  1  0  0  0  0
 14 30  1  0  0  0  0
 15 23  1  0  0  0  0
 15 28  2  0  0  0  0
 16 24  2  0  0  0  0
 16 26  1  0  0  0  0
 17 30  2  0  0  0  0
 17 31  1  0  0  0  0
 18 32  1  0  0  0  0
 19 32  1  0  0  0  0
 19 33  2  0  0  0  0
 19 34  1  0  0  0  0
 20 22  2  0  0  0  0
 20 39  1  0  0  0  0
 21 23  2  0  0  0  0
 21 40  1  0  0  0  0
 22 50  1  0  0  0  0
 23 41  1  0  0  0  0
 24 54  1  0  0  0  0
 25 26  2  0  0  0  0
 25 60  1  0  0  0  0
 26 61  1  0  0  0  0
 27 80  1  0  0  0  0
 28 81  1  0  0  0  0
 29 31  2  0  0  0  0
 29 80  1  0  0  0  0
 30 82  1  0  0  0  0
 31 83  1  0  0  0  0
 32 65  2  0  0  0  0
 33 66  1  0  0  0  0
 33 69  1  0  0  0  0
 34 70  1  0  0  0  0
 34 75  2  0  0  0  0
 35 51  1  0  0  0  0
 35 67  1  0  0  0  0
 35 76  2  0  0  0  0
 36 52  1  0  0  0  0
 36 71  1  0  0  0  0
 36 77  2  0  0  0  0
 37 62  1  0  0  0  0
 37 68  1  0  0  0  0
 37 78  2  0  0  0  0
 38 63  1  0  0  0  0
 38 72  1  0  0  0  0
 38 79  2  0  0  0  0
 39 42  1  0  0  0  0
 40 52  1  0  0  0  0
 41 68  1  0  0  0  0
 42 44  1  0  0  0  0
 43 45  1  0  0  0  0
 43 46  1  0  0  0  0
 44 50  1  0  0  0  0
 45 53  1  0  0  0  0
 46 67  1  0  0  0  0
 47 53  1  0  0  0  0
 47 67  1  0  0  0  0
 48 51  1  0  0  0  0
 48 73  1  0  0  0  0
 49 51  1  0  0  0  0
 49 73  1  0  0  0  0
 50 71  1  0  0  0  0
 52 68  1  0  0  0  0
 53 66  1  0  0  0  0
 55 63  1  0  0  0  0
 56 64  1  0  0  0  0
 57 64  1  0  0  0  0
 58 64  1  0  0  0  0
 59 74  1  0  0  0  0
 60 73  1  0  0  0  0
 61 81  1  0  0  0  0
 62 64  1  0  0  0  0
 62 72  1  0  0  0  0
 63 74  1  0  0  0  0
 65 66  1  0  0  0  0
M  CHG  2  73   1  74   1
M  ISO  4  35 100  51 100  61 101  81 101
M  END
> <Batch ID>
0030

> <Smiles>
CNC(C)C(=O)NC(C(=O)N1Cc2cc([101O:1][101CH2:1]c3cc(C)ccc3CN3C[100CH:0]([100C:0](=O)N4CCCC(n5nc(-c6ccc(Oc7ccc(F)cc7F)cc6)c(C(N)=O)c5N)C4)C3)ccc2CC1C(=O)NC1CCCc2ccccc21)C(C)(C)C

> <Shape>
0.277

> <Color>
0.084

> <Negative vol penalty>
0.000

$$$$

  -OEChem-04042321363D

 85 94  0     1  0  0  0  0  0999 V2000
  -28.4640  -30.6978   27.6218 C   0  0  0  0  0  0  0  0  0  0  0  0
  -28.3338  -29.5588   26.8336 C   0  0  0  0  0  0  0  0  0  0  0  0
  -23.1051   -9.8953   21.5077 C   0  0  0  0  0  0  0  0  0  0  0  0
  -23.8227  -10.8525   23.6067 C   0  0  0  0  0  0  0  0  0  0  0  0
  -27.4132  -31.6105   27.7048 C   0  0  0  0  0  0  0  0  0  0  0  0
  -27.1523  -29.3313   26.1288 C   0  0  0  0  0  0  0  0  0  0  0  0
  -27.9899  -27.8295   21.3656 C   0  0  0  0  0  0  0  0  0  0  0  0
  -30.3835  -19.8436   18.8910 C   0  0  0  0  0  0  0  0  0  0  0  0
  -22.3808   -8.9237   22.1983 C   0  0  0  0  0  0  0  0  0  0  0  0
  -23.0983   -9.8809   24.2974 C   0  0  0  0  0  0  0  0  0  0  0  0
  -28.3531  -26.4974   21.1726 C   0  0  0  0  0  0  0  0  0  0  0  0
  -23.0162   -6.0253   23.8169 C   0  0  0  0  0  0  0  0  0  0  0  0
  -30.5985  -18.7010   18.1204 C   0  0  0  0  0  0  0  0  0  0  0  0
  -23.1214   -4.7055   23.3781 C   0  0  0  0  0  0  0  0  0  0  0  0
  -26.0827  -25.9755   20.5461 C   0  0  0  0  0  0  0  0  0  0  0  0
  -20.7408   -4.6515   22.9696 C   0  0  0  0  0  0  0  0  0  0  0  0
  -23.8261  -10.8596   22.2119 C   0  0  0  0  0  0  0  0  0  0  0  0
  -24.1178  -13.1268   21.0793 C   0  0  0  0  0  0  0  0  0  0  0  0
  -26.2219  -31.3989   26.9930 C   0  0  0  0  0  0  0  0  0  0  0  0
  -26.6658  -28.2432   21.1606 C   0  0  0  0  0  0  0  0  0  0  0  0
  -26.0841  -30.2413   26.2035 C   0  0  0  0  0  0  0  0  0  0  0  0
  -25.7059  -27.3140   20.7348 C   0  0  0  0  0  0  0  0  0  0  0  0
  -30.0268  -19.7222   20.2340 C   0  0  0  0  0  0  0  0  0  0  0  0
  -29.8851  -18.4581   20.8064 C   0  0  0  0  0  0  0  0  0  0  0  0
  -30.1001  -17.3154   20.0358 C   0  0  0  0  0  0  0  0  0  0  0  0
  -22.3774   -8.9165   23.5932 C   0  0  0  0  0  0  0  0  0  0  0  0
  -27.3988  -25.5696   20.7655 C   0  0  0  0  0  0  0  0  0  0  0  0
  -21.7732   -6.6582   23.8322 C   0  0  0  0  0  0  0  0  0  0  0  0
  -21.9838   -4.0186   22.9544 C   0  0  0  0  0  0  0  0  0  0  0  0
  -30.4568  -17.4370   18.6928 C   0  0  0  0  0  0  0  0  0  0  0  0
  -20.6356   -5.9713   23.4085 C   0  0  0  0  0  0  0  0  0  0  0  0
  -24.5750  -11.8632   21.4990 C   0  0  0  0  0  0  0  0  0  0  0  0
  -25.2007  -13.6927   20.4519 C   0  0  0  0  0  0  0  0  0  0  0  0
  -22.8295  -13.7346   21.2420 C   0  0  0  0  0  0  0  0  0  0  0  0
  -24.3997  -29.5045   22.9984 C   0  0  0  0  0  0  0  0  0  0  0  0
  -22.7930  -29.7318   20.1896 C   0  0  0  0  0  0  0  0  0  0  0  0
  -22.3599  -28.5989   16.9997 C   0  0  0  0  0  0  0  0  0  0  0  0
  -30.6400  -14.8626   20.2322 C   0  0  0  0  0  0  0  0  0  0  0  0
  -25.0959  -32.3898   27.1514 C   0  0  0  0  0  0  0  0  0  0  0  0
  -26.2960  -29.6891   21.3473 C   0  0  0  0  0  0  0  0  0  0  0  0
  -24.2754  -27.7113   20.4814 C   0  0  0  0  0  0  0  0  0  0  0  0
  -24.0184  -32.2642   26.0774 C   0  0  0  0  0  0  0  0  0  0  0  0
  -29.6191  -11.6669   19.0395 C   0  0  0  0  0  0  0  0  0  0  0  0
  -23.6293  -30.8025   25.8800 C   0  0  0  0  0  0  0  0  0  0  0  0
  -28.1782  -11.5370   19.5385 C   0  0  0  0  0  0  0  0  0  0  0  0
  -26.3926  -22.2873   20.4696 C   0  0  0  0  0  0  0  0  0  0  0  0
  -30.5072  -12.3878   20.0521 C   0  0  0  0  0  0  0  0  0  0  0  0
  -28.5608  -13.5601   21.0041 C   0  0  0  0  0  0  0  0  0  0  0  0
  -27.5272  -21.3779   20.0431 C   0  0  0  0  0  0  0  0  0  0  0  0
  -28.0980  -22.4748   22.1575 C   0  0  0  0  0  0  0  0  0  0  0  0
  -24.8275  -29.9720   25.4044 C   0  0  1  0  0  0  0  0  0  0  0  0
  -24.8069  -29.8964   21.6061 C   0  0  1  0  0  0  0  0  0  0  0  0
  -27.6134  -12.8981   19.9902 C   0  0  2  0  0  0  0  0  0  0  0  0
  -27.0822  -23.2928   21.3755 C   0  0  1  0  0  0  0  0  0  1  0  0
  -29.5037  -18.3331   22.2483 C   0  0  0  0  0  0  0  0  0  0  0  0
  -20.9439  -28.9536   14.9585 C   0  0  0  0  0  0  0  0  0  0  0  0
  -20.4939  -28.2372   21.5277 C   0  0  0  0  0  0  0  0  0  0  0  0
  -19.5508  -27.7919   19.2517 C   0  0  0  0  0  0  0  0  0  0  0  0
  -19.7901  -30.1385   20.0634 C   0  0  0  0  0  0  0  0  0  0  0  0
  -24.7055  -29.3578   15.3623 C   0  0  0  0  0  0  0  0  0  0  0  0
  -29.8024  -20.9675   21.0401 C   0  0  0  0  0  0  0  0  0  0  0  0
  -21.8570  -28.8335   19.4176 C   0  0  1  0  0  0  0  0  0  0  0  0
  -22.2280  -29.3349   15.6785 C   0  0  2  0  0  0  0  0  0  0  0  0
  -20.4494  -28.7421   20.0717 C   0  0  0  0  0  0  0  0  0  0  0  0
  -25.8490  -11.6391   21.1662 N   0  0  0  0  0  0  0  0  0  0  0  0
  -26.2015  -12.7696   20.5307 N   0  0  0  0  0  0  0  0  0  0  0  0
  -23.9616  -29.1354   20.6839 N   0  0  0  0  0  0  0  0  0  0  0  0
  -29.9111  -13.6709   20.4304 N   0  0  0  0  0  0  0  0  0  0  0  0
  -25.3848  -14.8850   19.8461 N   0  0  0  0  0  0  0  0  0  0  0  0
  -21.8306  -13.0143   21.9111 N   0  0  0  0  0  0  0  0  0  0  0  0
  -29.9588  -16.0229   20.5988 N   0  0  0  0  0  0  0  0  0  0  0  0
  -25.0670  -30.1918   23.9942 N   0  0  0  0  0  0  0  0  0  0  0  0
  -21.8478  -29.3345   18.0475 N   0  0  0  0  0  0  0  0  0  0  0  0
  -28.3565  -21.2450   21.2991 N   0  3  2  0  0  0  0  0  0  0  0  0
  -23.3792  -29.0126   14.7888 N   0  3  0  0  0  0  0  0  0  0  0  0
  -22.5668  -14.8759   20.7925 O   0  0  0  0  0  0  0  0  0  0  0  0
  -23.5424  -28.6434   23.1573 O   0  0  0  0  0  0  0  0  0  0  0  0
  -22.5014  -30.9207   20.3422 O   0  0  0  0  0  0  0  0  0  0  0  0
  -22.8632  -27.4815   17.0923 O   0  0  0  0  0  0  0  0  0  0  0  0
  -31.7737  -14.8567   19.7457 O   0  0  0  0  0  0  0  0  0  0  0  0
  -21.6705   -7.9688   24.2675 O   0  0  0  0  0  0  0  0  0  0  0  0
  -27.7505  -24.2686   20.5770 O   0  0  0  0  0  0  0  0  0  1  0  0
  -22.0852   -2.7517   22.5315 F   0  0  0  0  0  0  0  0  0  0  0  0
  -30.6639  -16.3463   17.9409 F   0  0  0  0  0  0  0  0  0  0  0  0
  -19.4389   -6.5744   23.4198 F   0  0  0  0  0  0  0  0  0  0  0  0
  1  2  1  0  0  0  0
  1  5  2  0  0  0  0
  2  6  2  0  0  0  0
  3  9  2  0  0  0  0
  3 17  1  0  0  0  0
  4 10  1  0  0  0  0
  4 17  2  0  0  0  0
  5 19  1  0  0  0  0
  6 21  1  0  0  0  0
  7 11  2  0  0  0  0
  7 20  1  0  0  0  0
  8 13  2  0  0  0  0
  8 23  1  0  0  0  0
  9 26  1  0  0  0  0
 10 26  2  0  0  0  0
 11 27  1  0  0  0  0
 12 14  2  0  0  0  0
 12 28  1  0  0  0  0
 13 30  1  0  0  0  0
 14 29  1  0  0  0  0
 15 22  1  0  0  0  0
 15 27  2  0  0  0  0
 16 29  2  0  0  0  0
 16 31  1  0  0  0  0
 17 32  1  0  0  0  0
 18 32  1  0  0  0  0
 18 33  2  0  0  0  0
 18 34  1  0  0  0  0
 19 21  2  0  0  0  0
 19 39  1  0  0  0  0
 20 22  2  0  0  0  0
 20 40  1  0  0  0  0
 21 51  1  0  0  0  0
 22 41  1  0  0  0  0
 23 24  2  0  0  0  0
 23 61  1  0  0  0  0
 24 25  1  0  0  0  0
 24 55  1  0  0  0  0
 25 30  2  0  0  0  0
 25 71  1  0  0  0  0
 26 81  1  0  0  0  0
 27 82  1  0  0  0  0
 28 31  2  0  0  0  0
 28 81  1  0  0  0  0
 29 83  1  0  0  0  0
 30 84  1  0  0  0  0
 31 85  1  0  0  0  0
 32 65  2  0  0  0  0
 33 66  1  0  0  0  0
 33 69  1  0  0  0  0
 34 70  1  0  0  0  0
 34 76  2  0  0  0  0
 35 52  1  0  0  0  0
 35 72  1  0  0  0  0
 35 77  2  0  0  0  0
 36 62  1  0  0  0  0
 36 67  1  0  0  0  0
 36 78  2  0  0  0  0
 37 63  1  0  0  0  0
 37 73  1  0  0  0  0
 37 79  2  0  0  0  0
 38 68  1  0  0  0  0
 38 71  1  0  0  0  0
 38 80  2  0  0  0  0
 39 42  1  0  0  0  0
 40 52  1  0  0  0  0
 41 67  1  0  0  0  0
 42 44  1  0  0  0  0
 43 45  1  0  0  0  0
 43 47  1  0  0  0  0
 44 51  1  0  0  0  0
 45 53  1  0  0  0  0
 46 49  1  0  0  0  0
 46 54  1  0  0  0  0
 47 68  1  0  0  0  0
 48 53  1  0  0  0  0
 48 68  1  0  0  0  0
 49 74  1  0  0  0  0
 50 54  1  0  0  0  0
 50 74  1  0  0  0  0
 51 72  1  0  0  0  0
 52 67  1  0  0  0  0
 53 66  1  0  0  0  0
 54 82  1  0  0  0  0
 56 63  1  0  0  0  0
 57 64  1  0  0  0  0
 58 64  1  0  0  0  0
 59 64  1  0  0  0  0
 60 75  1  0  0  0  0
 61 74  1  0  0  0  0
 62 64  1  0  0  0  0
 62 73  1  0  0  0  0
 63 75  1  0  0  0  0
 65 66  1  0  0  0  0
M  CHG  2  74   1  75   1
M  ISO  4  38 100  54 101  71 100  82 101
M  END
> <Batch ID>
0030

> <Smiles>
CNC(C)C(=O)NC(C(=O)N1Cc2cc([101O:1][101CH:1]3CCN(Cc4ccc(F)c([100NH:0][100C:0](=O)N5CCCC(n6nc(-c7ccc(Oc8ccc(F)cc8F)cc7)c(C(N)=O)c6N)C5)c4C)C3)ccc2CC1C(=O)NC1CCCc2ccccc21)C(C)(C)C

> <Shape>
0.318

> <Color>
0.178

> <Negative vol penalty>
0.000

$$$$

  -OEChem-04042321363D

 86 95  0     1  0  0  0  0  0999 V2000
  -28.6527  -36.6613   18.5043 C   0  0  0  0  0  0  0  0  0  0  0  0
  -28.9574  -35.3058   18.5767 C   0  0  0  0  0  0  0  0  0  0  0  0
  -29.2784  -15.8148   18.4194 C   0  0  0  0  0  0  0  0  0  0  0  0
  -28.3645  -16.3670   20.5867 C   0  0  0  0  0  0  0  0  0  0  0  0
  -27.7594  -37.2235   19.4153 C   0  0  0  0  0  0  0  0  0  0  0  0
  -28.3696  -34.5119   19.5609 C   0  0  0  0  0  0  0  0  0  0  0  0
  -26.7111  -28.6388   19.0489 C   0  0  0  0  0  0  0  0  0  0  0  0
  -28.7873  -14.5152   18.5435 C   0  0  0  0  0  0  0  0  0  0  0  0
  -27.8734  -15.0674   20.7107 C   0  0  0  0  0  0  0  0  0  0  0  0
  -27.3318  -27.4518   19.4353 C   0  0  0  0  0  0  0  0  0  0  0  0
  -25.2463  -13.2788   19.5618 C   0  0  0  0  0  0  0  0  0  0  0  0
  -23.9396  -13.1228   20.0240 C   0  0  0  0  0  0  0  0  0  0  0  0
  -26.0433  -27.4490   21.4747 C   0  0  0  0  0  0  0  0  0  0  0  0
  -31.7720  -21.9270   26.6142 C   0  0  0  0  0  0  0  0  0  0  0  0
  -31.4602  -23.2933   24.6463 C   0  0  0  0  0  0  0  0  0  0  0  0
  -24.7571  -11.8431   21.9032 C   0  0  0  0  0  0  0  0  0  0  0  0
  -29.0670  -16.7407   19.4411 C   0  0  0  0  0  0  0  0  0  0  0  0
  -28.9135  -19.1923   18.7527 C   0  0  0  0  0  0  0  0  0  0  0  0
  -27.1530  -36.4341   20.4051 C   0  0  0  0  0  0  0  0  0  0  0  0
  -25.7581  -29.2467   19.8788 C   0  0  0  0  0  0  0  0  0  0  0  0
  -27.4684  -35.0643   20.4869 C   0  0  0  0  0  0  0  0  0  0  0  0
  -25.4101  -28.6424   21.0953 C   0  0  0  0  0  0  0  0  0  0  0  0
  -32.2254  -22.3843   25.3769 C   0  0  0  0  0  0  0  0  0  0  0  0
  -30.5533  -22.3786   27.1208 C   0  0  0  0  0  0  0  0  0  0  0  0
  -30.2415  -23.7450   25.1529 C   0  0  0  0  0  0  0  0  0  0  0  0
  -29.7881  -23.2876   26.3902 C   0  0  0  0  0  0  0  0  0  0  0  0
  -28.0848  -14.1414   19.6891 C   0  0  0  0  0  0  0  0  0  0  0  0
  -27.0001  -26.8582   20.6497 C   0  0  0  0  0  0  0  0  0  0  0  0
  -26.3085  -12.7169   20.2702 C   0  0  0  0  0  0  0  0  0  0  0  0
  -23.6950  -12.4049   21.1947 C   0  0  0  0  0  0  0  0  0  0  0  0
  -26.0639  -11.9991   21.4409 C   0  0  0  0  0  0  0  0  0  0  0  0
  -29.5745  -18.0833   19.3138 C   0  0  0  0  0  0  0  0  0  0  0  0
  -29.8129  -20.2237   18.8701 C   0  0  0  0  0  0  0  0  0  0  0  0
  -27.6035  -19.2822   18.1769 C   0  0  0  0  0  0  0  0  0  0  0  0
  -25.5508  -32.0369   21.3872 C   0  0  0  0  0  0  0  0  0  0  0  0
  -22.5613  -30.9925   22.0903 C   0  0  0  0  0  0  0  0  0  0  0  0
  -20.4345  -28.3543   22.4947 C   0  0  0  0  0  0  0  0  0  0  0  0
  -34.3842  -21.2423   22.6007 C   0  0  0  0  0  0  0  0  0  0  0  0
  -26.2300  -37.0962   21.3972 C   0  0  0  0  0  0  0  0  0  0  0  0
  -25.0782  -30.5129   19.4353 C   0  0  0  0  0  0  0  0  0  0  0  0
  -24.3786  -29.2440   22.0131 C   0  0  0  0  0  0  0  0  0  0  0  0
  -25.3632  -36.1095   22.1752 C   0  0  0  0  0  0  0  0  0  0  0  0
  -34.5151  -21.0894   19.0459 C   0  0  0  0  0  0  0  0  0  0  0  0
  -26.2067  -34.9460   22.6868 C   0  0  0  0  0  0  0  0  0  0  0  0
  -33.2041  -20.4017   18.6609 C   0  0  0  0  0  0  0  0  0  0  0  0
  -27.3196  -23.3873   21.6224 C   0  0  0  0  0  0  0  0  0  0  0  0
  -35.0926  -20.5195   20.3397 C   0  0  0  0  0  0  0  0  0  0  0  0
  -32.8519  -19.8296   21.0996 C   0  0  0  0  0  0  0  0  0  0  0  0
  -28.5903  -23.3086   22.4444 C   0  0  0  0  0  0  0  0  0  0  0  0
  -27.1484  -25.0842   23.3206 C   0  0  0  0  0  0  0  0  0  0  0  0
  -26.8323  -34.1653   21.5247 C   0  0  1  0  0  0  0  0  0  0  0  0
  -24.4971  -31.3166   20.5945 C   0  0  1  0  0  0  0  0  0  0  0  0
  -32.2023  -20.4088   19.8312 C   0  0  2  0  0  0  0  0  0  0  0  0
  -26.8500  -24.8131   21.8543 C   0  0  1  0  0  0  0  0  0  1  0  0
  -30.0909  -21.8742   28.4488 C   0  0  0  0  0  0  0  0  0  0  0  0
  -28.4818  -23.7720   26.9338 C   0  0  0  0  0  0  0  0  0  0  0  0
  -18.0621  -27.8126   23.1077 C   0  0  0  0  0  0  0  0  0  0  0  0
  -23.2005  -31.5259   25.0257 C   0  0  0  0  0  0  0  0  0  0  0  0
  -21.2272  -30.1128   25.6401 C   0  0  0  0  0  0  0  0  0  0  0  0
  -20.8991  -32.2034   24.3194 C   0  0  0  0  0  0  0  0  0  0  0  0
  -19.9200  -27.0970   19.8654 C   0  0  0  0  0  0  0  0  0  0  0  0
  -33.5279  -21.9010   24.8350 C   0  0  0  0  0  0  0  0  0  0  0  0
  -29.4376  -24.7227   24.3474 C   0  0  0  0  0  0  0  0  0  0  0  0
  -21.9457  -30.1874   23.2092 C   0  0  1  0  0  0  0  0  0  0  0  0
  -19.0316  -28.1021   21.9724 C   0  0  2  0  0  0  0  0  0  0  0  0
  -21.8390  -30.9968   24.5324 C   0  0  0  0  0  0  0  0  0  0  0  0
  -30.7994  -18.3819   19.7548 N   0  0  0  0  0  0  0  0  0  0  0  0
  -30.9152  -19.6903   19.4707 N   0  0  0  0  0  0  0  0  0  0  0  0
  -23.7463  -30.4858   21.5381 N   0  0  0  0  0  0  0  0  0  0  0  0
  -34.0929  -20.5566   21.4099 N   0  0  0  0  0  0  0  0  0  0  0  0
  -29.7606  -21.5256   18.5171 N   0  0  0  0  0  0  0  0  0  0  0  0
  -26.8108  -18.1271   18.1362 N   0  0  0  0  0  0  0  0  0  0  0  0
  -25.8490  -33.2992   20.9104 N   0  0  0  0  0  0  0  0  0  0  0  0
  -20.6679  -29.6971   22.7040 N   0  0  0  0  0  0  0  0  0  0  0  0
  -33.3797  -21.2338   23.5607 N   0  0  0  0  0  0  0  0  0  0  0  0
  -28.2504  -24.1002   23.6857 N   0  3  2  0  0  0  0  0  0  0  0  0
  -19.0269  -26.9381   21.0419 N   0  3  0  0  0  0  0  0  0  0  0  0
  -27.1556  -20.3514   17.6974 O   0  0  0  0  0  0  0  0  0  0  0  0
  -26.0550  -31.4887   22.3604 O   0  0  0  0  0  0  0  0  0  0  0  0
  -22.0073  -32.0287   21.7151 O   0  0  0  0  0  0  0  0  0  0  0  0
  -21.2413  -27.4502   22.7004 O   0  0  0  0  0  0  0  0  0  0  0  0
  -35.4576  -21.8238   22.7919 O   0  0  0  0  0  0  0  0  0  0  0  0
  -27.6053  -12.8734   19.8104 O   0  0  0  0  0  0  0  0  0  0  0  0
  -27.6049  -25.6998   21.0296 O   0  0  0  0  0  0  0  0  0  1  0  0
  -22.4402  -12.2565   21.6394 F   0  0  0  0  0  0  0  0  0  0  0  0
  -27.0803  -11.4580   22.1263 F   0  0  0  0  0  0  0  0  0  0  0  0
  1  2  1  0  0  0  0
  1  5  2  0  0  0  0
  2  6  2  0  0  0  0
  3  8  2  0  0  0  0
  3 17  1  0  0  0  0
  4  9  1  0  0  0  0
  4 17  2  0  0  0  0
  5 19  1  0  0  0  0
  6 21  1  0  0  0  0
  7 10  2  0  0  0  0
  7 20  1  0  0  0  0
  8 27  1  0  0  0  0
  9 27  2  0  0  0  0
 10 28  1  0  0  0  0
 11 12  2  0  0  0  0
 11 29  1  0  0  0  0
 12 30  1  0  0  0  0
 13 22  1  0  0  0  0
 13 28  2  0  0  0  0
 14 23  1  0  0  0  0
 14 24  2  0  0  0  0
 15 23  2  0  0  0  0
 15 25  1  0  0  0  0
 16 30  2  0  0  0  0
 16 31  1  0  0  0  0
 17 32  1  0  0  0  0
 18 32  1  0  0  0  0
 18 33  2  0  0  0  0
 18 34  1  0  0  0  0
 19 21  2  0  0  0  0
 19 39  1  0  0  0  0
 20 22  2  0  0  0  0
 20 40  1  0  0  0  0
 21 51  1  0  0  0  0
 22 41  1  0  0  0  0
 23 62  1  0  0  0  0
 24 26  1  0  0  0  0
 24 55  1  0  0  0  0
 25 26  2  0  0  0  0
 25 63  1  0  0  0  0
 26 56  1  0  0  0  0
 27 83  1  0  0  0  0
 28 84  1  0  0  0  0
 29 31  2  0  0  0  0
 29 83  1  0  0  0  0
 30 85  1  0  0  0  0
 31 86  1  0  0  0  0
 32 67  2  0  0  0  0
 33 68  1  0  0  0  0
 33 71  1  0  0  0  0
 34 72  1  0  0  0  0
 34 78  2  0  0  0  0
 35 52  1  0  0  0  0
 35 73  1  0  0  0  0
 35 79  2  0  0  0  0
 36 64  1  0  0  0  0
 36 69  1  0  0  0  0
 36 80  2  0  0  0  0
 37 65  1  0  0  0  0
 37 74  1  0  0  0  0
 37 81  2  0  0  0  0
 38 70  1  0  0  0  0
 38 75  1  0  0  0  0
 38 82  2  0  0  0  0
 39 42  1  0  0  0  0
 40 52  1  0  0  0  0
 41 69  1  0  0  0  0
 42 44  1  0  0  0  0
 43 45  1  0  0  0  0
 43 47  1  0  0  0  0
 44 51  1  0  0  0  0
 45 53  1  0  0  0  0
 46 49  1  0  0  0  0
 46 54  1  0  0  0  0
 47 70  1  0  0  0  0
 48 53  1  0  0  0  0
 48 70  1  0  0  0  0
 49 76  1  0  0  0  0
 50 54  1  0  0  0  0
 50 76  1  0  0  0  0
 51 73  1  0  0  0  0
 52 69  1  0  0  0  0
 53 68  1  0  0  0  0
 54 84  1  0  0  0  0
 57 65  1  0  0  0  0
 58 66  1  0  0  0  0
 59 66  1  0  0  0  0
 60 66  1  0  0  0  0
 61 77  1  0  0  0  0
 62 75  1  0  0  0  0
 63 76  1  0  0  0  0
 64 66  1  0  0  0  0
 64 74  1  0  0  0  0
 65 77  1  0  0  0  0
 67 68  1  0  0  0  0
M  CHG  2  76   1  77   1
M  ISO  4  38 100  54 101  75 100  84 101
M  END
> <Batch ID>
0030

> <Smiles>
CNC(C)C(=O)NC(C(=O)N1Cc2cc([101O:1][101CH:1]3CCN(Cc4cc(C[100NH:0][100C:0](=O)N5CCCC(n6nc(-c7ccc(Oc8ccc(F)cc8F)cc7)c(C(N)=O)c6N)C5)cc(C)c4C)C3)ccc2CC1C(=O)NC1CCCc2ccccc21)C(C)(C)C

> <Shape>
0.214

> <Color>
0.071

> <Negative vol penalty>
0.000

$$$$

  -OEChem-04042321363D

 84 93  0     1  0  0  0  0  0999 V2000
  -25.7347  -36.3187   16.1645 C   0  0  0  0  0  0  0  0  0  0  0  0
  -26.2402  -35.0242   16.2274 C   0  0  0  0  0  0  0  0  0  0  0  0
  -24.2439   -9.6656   21.0613 C   0  0  0  0  0  0  0  0  0  0  0  0
  -25.0402  -10.4579   23.2003 C   0  0  0  0  0  0  0  0  0  0  0  0
  -25.4598  -37.0163   17.3400 C   0  0  0  0  0  0  0  0  0  0  0  0
  -26.4723  -34.4268   17.4658 C   0  0  0  0  0  0  0  0  0  0  0  0
  -25.8074  -28.5052   18.8794 C   0  0  0  0  0  0  0  0  0  0  0  0
  -29.9964  -21.1818   22.3816 C   0  0  0  0  0  0  0  0  0  0  0  0
  -23.9204   -8.4369   21.6369 C   0  0  0  0  0  0  0  0  0  0  0  0
  -24.7166   -9.2292   23.7759 C   0  0  0  0  0  0  0  0  0  0  0  0
  -26.7200  -27.4557   18.9757 C   0  0  0  0  0  0  0  0  0  0  0  0
  -21.4382   -7.1550   23.5417 C   0  0  0  0  0  0  0  0  0  0  0  0
  -30.9439  -20.1607   22.3086 C   0  0  0  0  0  0  0  0  0  0  0  0
  -20.1999   -6.5967   23.2248 C   0  0  0  0  0  0  0  0  0  0  0  0
  -26.8773  -27.8187   21.3553 C   0  0  0  0  0  0  0  0  0  0  0  0
  -21.3095   -4.6578   22.3047 C   0  0  0  0  0  0  0  0  0  0  0  0
  -24.8039  -10.6761   21.8431 C   0  0  0  0  0  0  0  0  0  0  0  0
  -24.3095  -13.0775   21.1385 C   0  0  0  0  0  0  0  0  0  0  0  0
  -25.6795  -36.4237   18.5935 C   0  0  0  0  0  0  0  0  0  0  0  0
  -25.4305  -29.2277   20.0207 C   0  0  0  0  0  0  0  0  0  0  0  0
  -26.2014  -35.1177   18.6592 C   0  0  0  0  0  0  0  0  0  0  0  0
  -25.9578  -28.8754   21.2713 C   0  0  0  0  0  0  0  0  0  0  0  0
  -28.7277  -20.9965   21.8323 C   0  0  0  0  0  0  0  0  0  0  0  0
  -28.4065  -19.7902   21.2100 C   0  0  0  0  0  0  0  0  0  0  0  0
  -29.3540  -18.7691   21.1370 C   0  0  0  0  0  0  0  0  0  0  0  0
  -24.1567   -8.2187   22.9941 C   0  0  0  0  0  0  0  0  0  0  0  0
  -27.2573  -27.1141   20.2133 C   0  0  0  0  0  0  0  0  0  0  0  0
  -22.6123   -6.4647   23.2401 C   0  0  0  0  0  0  0  0  0  0  0  0
  -20.1356   -5.3481   22.6063 C   0  0  0  0  0  0  0  0  0  0  0  0
  -30.6227  -18.9544   21.6863 C   0  0  0  0  0  0  0  0  0  0  0  0
  -22.5479   -5.2161   22.6217 C   0  0  0  0  0  0  0  0  0  0  0  0
  -25.1388  -11.9453   21.2490 C   0  0  0  0  0  0  0  0  0  0  0  0
  -25.0887  -14.0131   20.5029 C   0  0  0  0  0  0  0  0  0  0  0  0
  -22.9560  -13.2666   21.5719 C   0  0  0  0  0  0  0  0  0  0  0  0
  -25.6874  -32.2587   20.9429 C   0  0  0  0  0  0  0  0  0  0  0  0
  -23.8812  -31.2451   23.4394 C   0  0  0  0  0  0  0  0  0  0  0  0
  -22.8490  -28.6529   25.4045 C   0  0  0  0  0  0  0  0  0  0  0  0
  -29.9291  -16.6850   19.8440 C   0  0  0  0  0  0  0  0  0  0  0  0
  -25.4119  -37.2345   19.8367 C   0  0  0  0  0  0  0  0  0  0  0  0
  -24.4246  -30.3399   19.9040 C   0  0  0  0  0  0  0  0  0  0  0  0
  -25.5703  -29.6065   22.5297 C   0  0  0  0  0  0  0  0  0  0  0  0
  -25.3330  -36.3926   21.1076 C   0  0  0  0  0  0  0  0  0  0  0  0
  -29.5703  -13.5493   18.1960 C   0  0  0  0  0  0  0  0  0  0  0  0
  -26.4922  -35.4028   21.1651 C   0  0  0  0  0  0  0  0  0  0  0  0
  -28.3172  -12.9456   18.8343 C   0  0  0  0  0  0  0  0  0  0  0  0
  -30.4041  -14.3294   19.2109 C   0  0  0  0  0  0  0  0  0  0  0  0
  -28.4145  -14.7493   20.6019 C   0  0  0  0  0  0  0  0  0  0  0  0
  -26.7374  -24.0532   20.8144 C   0  0  0  0  0  0  0  0  0  0  0  0
  -28.7104  -23.6286   20.2766 C   0  0  0  0  0  0  0  0  0  0  0  0
  -26.4431  -34.4266   19.9836 C   0  0  1  0  0  0  0  0  0  0  0  0
  -24.5036  -31.3400   21.0534 C   0  0  1  0  0  0  0  0  0  0  0  0
  -27.5091  -14.0084   19.6043 C   0  0  2  0  0  0  0  0  0  0  0  0
  -27.7496  -24.7714   19.9044 C   0  0  0  0  0  0  0  0  0  1  0  0
  -27.0433  -19.5959   20.6236 C   0  0  0  0  0  0  0  0  0  0  0  0
  -21.4009  -28.1404   27.3889 C   0  0  0  0  0  0  0  0  0  0  0  0
  -26.0093  -32.4099   25.2900 C   0  0  0  0  0  0  0  0  0  0  0  0
  -25.0222  -31.0653   27.1570 C   0  0  0  0  0  0  0  0  0  0  0  0
  -23.6532  -32.8159   26.0238 C   0  0  0  0  0  0  0  0  0  0  0  0
  -21.1158  -26.8510   23.8207 C   0  0  0  0  0  0  0  0  0  0  0  0
  -27.7275  -22.1109   21.9255 C   0  0  0  0  0  0  0  0  0  0  0  0
  -24.1710  -30.6638   24.8021 C   0  0  1  0  0  0  0  0  0  0  0  0
  -21.4677  -28.2315   25.8724 C   0  0  2  0  0  0  0  0  0  0  0  0
  -24.7229  -31.7260   25.7944 C   0  0  0  0  0  0  0  0  0  0  0  0
  -26.3518  -12.1416   20.7253 N   0  0  0  0  0  0  0  0  0  0  0  0
  -26.2904  -13.4079   20.2796 N   0  0  0  0  0  0  0  0  0  0  0  0
  -24.5880  -30.6904   22.3630 N   0  0  0  0  0  0  0  0  0  0  0  0
  -29.5736  -15.3207   19.8984 N   0  0  0  0  0  0  0  0  0  0  0  0
  -24.8562  -15.2862   20.1187 N   0  0  0  0  0  0  0  0  0  0  0  0
  -22.3033  -12.2021   22.2083 N   0  0  0  0  0  0  0  0  0  0  0  0
  -29.0471  -17.5376   20.5070 N   0  0  0  0  0  0  0  0  0  0  0  0
  -25.4429  -33.4060   20.2124 N   0  0  0  0  0  0  0  0  0  0  0  0
  -22.9382  -30.0192   25.2415 N   0  0  0  0  0  0  0  0  0  0  0  0
  -27.5314  -22.8225   20.6435 N   0  3  0  0  0  0  0  0  0  0  0  0
  -21.1127  -26.8997   25.3055 N   0  3  0  0  0  0  0  0  0  0  0  0
  -22.3380  -14.3421   21.3851 O   0  0  0  0  0  0  0  0  0  0  0  0
  -26.7439  -31.9504   21.4817 O   0  0  0  0  0  0  0  0  0  0  0  0
  -23.0528  -32.1528   23.3329 O   0  0  0  0  0  0  0  0  0  0  0  0
  -23.7589  -27.8506   25.2072 O   0  0  0  0  0  0  0  0  0  0  0  0
  -30.9267  -17.0717   19.2297 O   0  0  0  0  0  0  0  0  0  0  0  0
  -23.8409   -7.0199   23.5561 O   0  0  0  0  0  0  0  0  0  0  0  0
  -28.1488  -26.0905   20.3100 O   0  0  0  0  0  0  0  0  0  1  0  0
  -18.9463   -4.8114   22.3034 F   0  0  0  0  0  0  0  0  0  0  0  0
  -31.5429  -17.9815   21.6206 F   0  0  0  0  0  0  0  0  0  0  0  0
  -23.6723   -4.5477   22.3305 F   0  0  0  0  0  0  0  0  0  0  0  0
  1  2  1  0  0  0  0
  1  5  2  0  0  0  0
  2  6  2  0  0  0  0
  3  9  2  0  0  0  0
  3 17  1  0  0  0  0
  4 10  1  0  0  0  0
  4 17  2  0  0  0  0
  5 19  1  0  0  0  0
  6 21  1  0  0  0  0
  7 11  2  0  0  0  0
  7 20  1  0  0  0  0
  8 13  2  0  0  0  0
  8 23  1  0  0  0  0
  9 26  1  0  0  0  0
 10 26  2  0  0  0  0
 11 27  1  0  0  0  0
 12 14  2  0  0  0  0
 12 28  1  0  0  0  0
 13 30  1  0  0  0  0
 14 29  1  0  0  0  0
 15 22  1  0  0  0  0
 15 27  2  0  0  0  0
 16 29  2  0  0  0  0
 16 31  1  0  0  0  0
 17 32  1  0  0  0  0
 18 32  1  0  0  0  0
 18 33  2  0  0  0  0
 18 34  1  0  0  0  0
 19 21  2  0  0  0  0
 19 39  1  0  0  0  0
 20 22  2  0  0  0  0
 20 40  1  0  0  0  0
 21 50  1  0  0  0  0
 22 41  1  0  0  0  0
 23 24  2  0  0  0  0
 23 60  1  0  0  0  0
 24 25  1  0  0  0  0
 24 54  1  0  0  0  0
 25 30  2  0  0  0  0
 25 70  1  0  0  0  0
 26 80  1  0  0  0  0
 27 81  1  0  0  0  0
 28 31  2  0  0  0  0
 28 80  1  0  0  0  0
 29 82  1  0  0  0  0
 30 83  1  0  0  0  0
 31 84  1  0  0  0  0
 32 64  2  0  0  0  0
 33 65  1  0  0  0  0
 33 68  1  0  0  0  0
 34 69  1  0  0  0  0
 34 75  2  0  0  0  0
 35 51  1  0  0  0  0
 35 71  1  0  0  0  0
 35 76  2  0  0  0  0
 36 61  1  0  0  0  0
 36 66  1  0  0  0  0
 36 77  2  0  0  0  0
 37 62  1  0  0  0  0
 37 72  1  0  0  0  0
 37 78  2  0  0  0  0
 38 67  1  0  0  0  0
 38 70  1  0  0  0  0
 38 79  2  0  0  0  0
 39 42  1  0  0  0  0
 40 51  1  0  0  0  0
 41 66  1  0  0  0  0
 42 44  1  0  0  0  0
 43 45  1  0  0  0  0
 43 46  1  0  0  0  0
 44 50  1  0  0  0  0
 45 52  1  0  0  0  0
 46 67  1  0  0  0  0
 47 52  1  0  0  0  0
 47 67  1  0  0  0  0
 48 53  1  0  0  0  0
 48 73  1  0  0  0  0
 49 53  1  0  0  0  0
 49 73  1  0  0  0  0
 50 71  1  0  0  0  0
 51 66  1  0  0  0  0
 52 65  1  0  0  0  0
 53 81  1  0  0  0  0
 55 62  1  0  0  0  0
 56 63  1  0  0  0  0
 57 63  1  0  0  0  0
 58 63  1  0  0  0  0
 59 74  1  0  0  0  0
 60 73  1  0  0  0  0
 61 63  1  0  0  0  0
 61 72  1  0  0  0  0
 62 74  1  0  0  0  0
 64 65  1  0  0  0  0
M  CHG  2  73   1  74   1
M  ISO  4  38 100  53 101  70 100  81 101
M  END
> <Batch ID>
0030

> <Smiles>
CNC(C)C(=O)NC(C(=O)N1Cc2cc([101O:1][101CH:1]3CN(Cc4ccc(F)c([100NH:0][100C:0](=O)N5CCCC(n6nc(-c7ccc(Oc8ccc(F)cc8F)cc7)c(C(N)=O)c6N)C5)c4C)C3)ccc2CC1C(=O)NC1CCCc2ccccc21)C(C)(C)C

> <Shape>
0.295

> <Color>
0.161

> <Negative vol penalty>
0.000

$$$$

  -OEChem-04042321363D

 87 96  0     1  0  0  0  0  0999 V2000
  -31.9228  -15.8428   22.7899 C   0  0  0  0  0  0  0  0  0  0  0  0
  -30.8859  -16.7669   22.7108 C   0  0  0  0  0  0  0  0  0  0  0  0
  -28.5670  -24.6588   19.9571 C   0  0  0  0  0  0  0  0  0  0  0  0
  -26.7132  -24.2640   21.4554 C   0  0  0  0  0  0  0  0  0  0  0  0
  -31.7884  -14.5927   22.1873 C   0  0  0  0  0  0  0  0  0  0  0  0
  -29.7143  -16.4418   22.0281 C   0  0  0  0  0  0  0  0  0  0  0  0
  -24.0211  -18.2024   23.4404 C   0  0  0  0  0  0  0  0  0  0  0  0
  -18.0877  -26.8579   21.6864 C   0  0  0  0  0  0  0  0  0  0  0  0
  -18.7498  -28.0818   21.7834 C   0  0  0  0  0  0  0  0  0  0  0  0
  -29.2744  -23.6177   20.5580 C   0  0  0  0  0  0  0  0  0  0  0  0
  -27.4207  -23.2228   22.0562 C   0  0  0  0  0  0  0  0  0  0  0  0
  -23.2059  -19.2219   22.9507 C   0  0  0  0  0  0  0  0  0  0  0  0
  -31.4253  -20.8287   21.4583 C   0  0  0  0  0  0  0  0  0  0  0  0
  -32.0828  -19.9250   20.6237 C   0  0  0  0  0  0  0  0  0  0  0  0
  -22.1537  -17.6522   21.4513 C   0  0  0  0  0  0  0  0  0  0  0  0
  -19.2570  -26.0699   23.6483 C   0  0  0  0  0  0  0  0  0  0  0  0
  -29.9744  -19.3342   19.6026 C   0  0  0  0  0  0  0  0  0  0  0  0
  -27.2864  -24.9820   20.4058 C   0  0  0  0  0  0  0  0  0  0  0  0
  -26.1729  -26.1580   18.4348 C   0  0  0  0  0  0  0  0  0  0  0  0
  -30.6107  -14.2486   21.5051 C   0  0  0  0  0  0  0  0  0  0  0  0
  -23.9161  -16.9002   22.9306 C   0  0  0  0  0  0  0  0  0  0  0  0
  -29.5645  -15.1865   21.4146 C   0  0  0  0  0  0  0  0  0  0  0  0
  -22.9670  -16.6174   21.9380 C   0  0  0  0  0  0  0  0  0  0  0  0
  -18.3413  -25.8520   22.6189 C   0  0  0  0  0  0  0  0  0  0  0  0
  -19.6655  -28.2997   22.8128 C   0  0  0  0  0  0  0  0  0  0  0  0
  -19.9191  -27.2937   23.7453 C   0  0  0  0  0  0  0  0  0  0  0  0
  -28.7013  -22.8996   21.6075 C   0  0  0  0  0  0  0  0  0  0  0  0
  -22.2741  -18.9475   21.9540 C   0  0  0  0  0  0  0  0  0  0  0  0
  -30.0424  -20.9852   21.3652 C   0  0  0  0  0  0  0  0  0  0  0  0
  -31.3573  -19.1777   19.6959 C   0  0  0  0  0  0  0  0  0  0  0  0
  -29.3169  -20.2379   20.4373 C   0  0  0  0  0  0  0  0  0  0  0  0
  -26.5553  -26.0578   19.7859 C   0  0  0  0  0  0  0  0  0  0  0  0
  -25.5067  -27.3563   18.3544 C   0  0  0  0  0  0  0  0  0  0  0  0
  -18.6782  -23.1970   20.6508 C   0  0  0  0  0  0  0  0  0  0  0  0
  -26.3996  -25.2489   17.3494 C   0  0  0  0  0  0  0  0  0  0  0  0
  -25.8786  -14.9279   21.3937 C   0  0  0  0  0  0  0  0  0  0  0  0
  -23.4390  -12.8252   21.7799 C   0  0  0  0  0  0  0  0  0  0  0  0
  -20.0995  -12.3202   22.2693 C   0  0  0  0  0  0  0  0  0  0  0  0
  -22.5565  -30.6597   22.3837 C   0  0  0  0  0  0  0  0  0  0  0  0
  -30.5302  -12.9027   20.8292 C   0  0  0  0  0  0  0  0  0  0  0  0
  -24.7843  -15.8059   23.4884 C   0  0  0  0  0  0  0  0  0  0  0  0
  -22.8007  -15.2317   21.3717 C   0  0  0  0  0  0  0  0  0  0  0  0
  -19.7462  -22.1319   20.5742 C   0  0  0  0  0  0  0  0  0  0  0  0
  -29.1093  -12.4981   20.4449 C   0  0  0  0  0  0  0  0  0  0  0  0
  -25.3232  -31.6824   20.3897 C   0  0  0  0  0  0  0  0  0  0  0  0
  -28.3902  -13.6575   19.7627 C   0  0  0  0  0  0  0  0  0  0  0  0
  -25.9182  -30.3659   19.8869 C   0  0  0  0  0  0  0  0  0  0  0  0
  -24.7958  -31.5546   21.8172 C   0  0  0  0  0  0  0  0  0  0  0  0
  -19.3522  -22.7269   22.8670 C   0  0  0  0  0  0  0  0  0  0  0  0
  -24.4359  -29.1341   21.5253 C   0  0  0  0  0  0  0  0  0  0  0  0
  -28.2684  -14.8618   20.7041 C   0  0  1  0  0  0  0  0  0  0  0  0
  -24.9471  -14.6272   22.5336 C   0  0  1  0  0  0  0  0  0  0  0  0
  -19.7822  -21.5571   21.9926 C   0  0  2  0  0  0  0  0  0  0  0  0
  -24.9304  -29.1980   20.0701 C   0  0  2  0  0  0  0  0  0  0  0  0
  -20.8955  -27.5042   24.8557 C   0  0  0  0  0  0  0  0  0  0  0  0
  -18.3975  -10.4913   22.5050 C   0  0  0  0  0  0  0  0  0  0  0  0
  -23.5436  -12.3432   18.7688 C   0  0  0  0  0  0  0  0  0  0  0  0
  -21.2794  -11.2869   18.9296 C   0  0  0  0  0  0  0  0  0  0  0  0
  -23.2120  -10.2812   20.1445 C   0  0  0  0  0  0  0  0  0  0  0  0
  -19.3644  -13.1974   24.9986 C   0  0  0  0  0  0  0  0  0  0  0  0
  -17.6289  -24.5345   22.5140 C   0  0  0  0  0  0  0  0  0  0  0  0
  -20.3630  -29.6177   22.8956 C   0  0  0  0  0  0  0  0  0  0  0  0
  -21.1413  -20.9961   22.3737 C   0  0  0  0  0  0  0  0  0  1  0  0
  -22.2151  -12.4491   20.9801 C   0  0  1  0  0  0  0  0  0  0  0  0
  -19.3474  -11.4257   23.2381 C   0  0  2  0  0  0  0  0  0  0  0  0
  -22.5667  -11.6167   19.7148 C   0  0  0  0  0  0  0  0  0  0  0  0
  -26.1647  -27.1089   20.5116 N   0  0  0  0  0  0  0  0  0  0  0  0
  -25.5299  -27.8809   19.6131 N   0  0  0  0  0  0  0  0  0  0  0  0
  -18.4902  -23.4928   21.9977 N   0  0  0  0  0  0  0  0  0  0  0  0
  -23.6771  -14.1970   21.9451 N   0  0  0  0  0  0  0  0  0  0  0  0
  -23.8633  -30.4298   21.9227 N   0  0  0  0  0  0  0  0  0  0  0  0
  -24.9092  -28.0021   17.3305 N   0  0  0  0  0  0  0  0  0  0  0  0
  -25.4449  -24.2532   17.1014 N   0  0  0  0  0  0  0  0  0  0  0  0
  -27.2050  -14.6487   21.6624 N   0  0  0  0  0  0  0  0  0  0  0  0
  -21.3130  -11.7746   21.9073 N   0  0  0  0  0  0  0  0  0  0  0  0
  -21.7355  -29.5404   22.4474 N   0  0  0  0  0  0  0  0  0  0  0  0
  -18.5529  -12.2489   24.1931 N   0  3  0  0  0  0  0  0  0  0  0  0
  -18.1388  -23.7099   19.6815 O   0  0  0  0  0  0  0  0  0  0  0  0
  -27.4265  -25.3073   16.6314 O   0  0  0  0  0  0  0  0  0  0  0  0
  -25.4273  -15.3785   20.3473 O   0  0  0  0  0  0  0  0  0  0  0  0
  -24.1534  -11.9347   22.2470 O   0  0  0  0  0  0  0  0  0  0  0  0
  -19.6534  -13.3937   21.8704 O   0  0  0  0  0  0  0  0  0  0  0  0
  -22.1498  -31.7802   22.7091 O   0  0  0  0  0  0  0  0  0  0  0  0
  -29.3912  -21.8834   22.1939 O   0  0  0  0  0  0  0  0  0  0  0  0
  -21.4776  -19.9410   21.4738 O   0  0  0  0  0  0  0  0  0  1  0  0
  -31.9890  -18.3110   18.8934 F   0  0  0  0  0  0  0  0  0  0  0  0
  -27.9883  -20.3847   20.3423 F   0  0  0  0  0  0  0  0  0  0  0  0
  1  2  1  0  0  0  0
  1  5  2  0  0  0  0
  2  6  2  0  0  0  0
  3 10  2  0  0  0  0
  3 18  1  0  0  0  0
  4 11  1  0  0  0  0
  4 18  2  0  0  0  0
  5 20  1  0  0  0  0
  6 22  1  0  0  0  0
  7 12  2  0  0  0  0
  7 21  1  0  0  0  0
  8  9  2  0  0  0  0
  8 24  1  0  0  0  0
  9 25  1  0  0  0  0
 10 27  1  0  0  0  0
 11 27  2  0  0  0  0
 12 28  1  0  0  0  0
 13 14  2  0  0  0  0
 13 29  1  0  0  0  0
 14 30  1  0  0  0  0
 15 23  1  0  0  0  0
 15 28  2  0  0  0  0
 16 24  2  0  0  0  0
 16 26  1  0  0  0  0
 17 30  2  0  0  0  0
 17 31  1  0  0  0  0
 18 32  1  0  0  0  0
 19 32  1  0  0  0  0
 19 33  2  0  0  0  0
 19 35  1  0  0  0  0
 20 22  2  0  0  0  0
 20 40  1  0  0  0  0
 21 23  2  0  0  0  0
 21 41  1  0  0  0  0
 22 51  1  0  0  0  0
 23 42  1  0  0  0  0
 24 61  1  0  0  0  0
 25 26  2  0  0  0  0
 25 62  1  0  0  0  0
 26 55  1  0  0  0  0
 27 84  1  0  0  0  0
 28 85  1  0  0  0  0
 29 31  2  0  0  0  0
 29 84  1  0  0  0  0
 30 86  1  0  0  0  0
 31 87  1  0  0  0  0
 32 67  2  0  0  0  0
 33 68  1  0  0  0  0
 33 72  1  0  0  0  0
 34 43  1  0  0  0  0
 34 69  1  0  0  0  0
 34 78  2  0  0  0  0
 35 73  1  0  0  0  0
 35 79  2  0  0  0  0
 36 52  1  0  0  0  0
 36 74  1  0  0  0  0
 36 80  2  0  0  0  0
 37 64  1  0  0  0  0
 37 70  1  0  0  0  0
 37 81  2  0  0  0  0
 38 65  1  0  0  0  0
 38 75  1  0  0  0  0
 38 82  2  0  0  0  0
 39 71  1  0  0  0  0
 39 76  1  0  0  0  0
 39 83  2  0  0  0  0
 40 44  1  0  0  0  0
 41 52  1  0  0  0  0
 42 70  1  0  0  0  0
 43 53  1  0  0  0  0
 44 46  1  0  0  0  0
 45 47  1  0  0  0  0
 45 48  1  0  0  0  0
 46 51  1  0  0  0  0
 47 54  1  0  0  0  0
 48 71  1  0  0  0  0
 49 53  1  0  0  0  0
 49 69  1  0  0  0  0
 50 54  1  0  0  0  0
 50 71  1  0  0  0  0
 51 74  1  0  0  0  0
 52 70  1  0  0  0  0
 53 63  1  0  0  0  0
 54 68  1  0  0  0  0
 56 65  1  0  0  0  0
 57 66  1  0  0  0  0
 58 66  1  0  0  0  0
 59 66  1  0  0  0  0
 60 77  1  0  0  0  0
 61 69  1  0  0  0  0
 62 76  1  0  0  0  0
 63 85  1  0  0  0  0
 64 66  1  0  0  0  0
 64 75  1  0  0  0  0
 65 77  1  0  0  0  0
 67 68  1  0  0  0  0
M  CHG  1  77   1
M  ISO  4  39 100  63 101  76 100  85 101
M  END
> <Batch ID>
0030

> <Smiles>
CNC(C)C(=O)NC(C(=O)N1Cc2cc([101O:1][101CH2:1]C3CC(=O)N(Cc4ccc(C[100NH:0][100C:0](=O)N5CCCC(n6nc(-c7ccc(Oc8ccc(F)cc8F)cc7)c(C(N)=O)c6N)C5)c(C)c4)C3)ccc2CC1C(=O)NC1CCCc2ccccc21)C(C)(C)C

> <Shape>
0.246

> <Color>
0.072

> <Negative vol penalty>
0.000

$$$$

  -OEChem-04042321363D

 85 94  0     1  0  0  0  0  0999 V2000
  -16.9545  -29.9358   23.3938 C   0  0  0  0  0  0  0  0  0  0  0  0
  -18.1718  -30.5985   23.2752 C   0  0  0  0  0  0  0  0  0  0  0  0
  -26.1188  -13.2397   21.7177 C   0  0  0  0  0  0  0  0  0  0  0  0
  -25.3317  -13.8743   19.5234 C   0  0  0  0  0  0  0  0  0  0  0  0
  -16.9131  -28.5429   23.3487 C   0  0  0  0  0  0  0  0  0  0  0  0
  -19.3488  -29.8687   23.1124 C   0  0  0  0  0  0  0  0  0  0  0  0
  -25.7500  -30.2377   19.9179 C   0  0  0  0  0  0  0  0  0  0  0  0
  -25.3219  -12.0959   21.6728 C   0  0  0  0  0  0  0  0  0  0  0  0
  -24.5348  -12.7304   19.4785 C   0  0  0  0  0  0  0  0  0  0  0  0
  -27.1076  -30.1096   20.2083 C   0  0  0  0  0  0  0  0  0  0  0  0
  -25.4418   -9.0308   20.2500 C   0  0  0  0  0  0  0  0  0  0  0  0
  -26.0144   -7.8255   20.6559 C   0  0  0  0  0  0  0  0  0  0  0  0
  -26.9056  -27.7100   20.0651 C   0  0  0  0  0  0  0  0  0  0  0  0
  -31.4434  -22.9665   17.7706 C   0  0  0  0  0  0  0  0  0  0  0  0
  -29.8256  -23.7154   19.9164 C   0  0  0  0  0  0  0  0  0  0  0  0
  -24.3439   -7.6153   22.3886 C   0  0  0  0  0  0  0  0  0  0  0  0
  -26.1237  -14.1290   20.6431 C   0  0  0  0  0  0  0  0  0  0  0  0
  -28.2772  -15.4384   20.2483 C   0  0  0  0  0  0  0  0  0  0  0  0
  -18.0890  -27.7959   23.1756 C   0  0  0  0  0  0  0  0  0  0  0  0
  -24.9564  -29.1006   19.7094 C   0  0  0  0  0  0  0  0  0  0  0  0
  -19.3233  -28.4644   23.0662 C   0  0  0  0  0  0  0  0  0  0  0  0
  -25.5388  -27.8265   19.7697 C   0  0  0  0  0  0  0  0  0  0  0  0
  -31.8035  -24.0512   18.5702 C   0  0  0  0  0  0  0  0  0  0  0  0
  -30.2744  -22.2563   18.0438 C   0  0  0  0  0  0  0  0  0  0  0  0
  -30.9946  -24.4256   19.6431 C   0  0  0  0  0  0  0  0  0  0  0  0
  -29.4655  -22.6307   19.1167 C   0  0  0  0  0  0  0  0  0  0  0  0
  -24.5299  -11.8412   20.5531 C   0  0  0  0  0  0  0  0  0  0  0  0
  -27.6850  -28.8455   20.2847 C   0  0  0  0  0  0  0  0  0  0  0  0
  -24.3202   -9.5285   20.9135 C   0  0  0  0  0  0  0  0  0  0  0  0
  -25.4655   -7.1177   21.7252 C   0  0  0  0  0  0  0  0  0  0  0  0
  -23.7713   -8.8207   21.9828 C   0  0  0  0  0  0  0  0  0  0  0  0
  -26.9463  -15.3111   20.6891 C   0  0  0  0  0  0  0  0  0  0  0  0
  -28.6017  -16.7472   20.5095 C   0  0  0  0  0  0  0  0  0  0  0  0
  -29.1427  -14.4610   19.6557 C   0  0  0  0  0  0  0  0  0  0  0  0
  -22.4228  -27.8376   21.1549 C   0  0  0  0  0  0  0  0  0  0  0  0
  -22.5100  -25.7756   18.6524 C   0  0  0  0  0  0  0  0  0  0  0  0
  -24.3440  -24.2790   16.1940 C   0  0  0  0  0  0  0  0  0  0  0  0
  -27.3717  -22.1773   20.4422 C   0  0  0  0  0  0  0  0  0  0  0  0
  -18.0000  -26.2903   23.1803 C   0  0  0  0  0  0  0  0  0  0  0  0
  -23.4992  -29.2568   19.3708 C   0  0  0  0  0  0  0  0  0  0  0  0
  -24.7347  -26.5750   19.5339 C   0  0  0  0  0  0  0  0  0  0  0  0
  -19.2476  -25.6047   22.6294 C   0  0  0  0  0  0  0  0  0  0  0  0
  -26.1585  -20.2738   23.1958 C   0  0  0  0  0  0  0  0  0  0  0  0
  -20.5060  -26.2238   23.2295 C   0  0  0  0  0  0  0  0  0  0  0  0
  -26.3648  -18.8234   22.7528 C   0  0  0  0  0  0  0  0  0  0  0  0
  -31.2629  -29.2381   19.9104 C   0  0  0  0  0  0  0  0  0  0  0  0
  -25.7464  -21.1699   22.0292 C   0  0  0  0  0  0  0  0  0  0  0  0
  -26.8377  -19.6614   20.4159 C   0  0  0  0  0  0  0  0  0  0  0  0
  -31.8808  -28.0503   20.6201 C   0  0  0  0  0  0  0  0  0  0  0  0
  -30.1867  -27.2733   19.0307 C   0  0  0  0  0  0  0  0  0  0  0  0
  -20.6186  -27.7087   22.8635 C   0  0  1  0  0  0  0  0  0  0  0  0
  -22.6761  -28.0111   19.6841 C   0  0  1  0  0  0  0  0  0  0  0  0
  -27.3168  -18.7333   21.5441 C   0  0  2  0  0  0  0  0  0  0  0  0
  -29.9125  -28.7051   19.4635 C   0  0  1  0  0  0  0  0  0  1  0  0
  -33.0594  -24.7968   18.2583 C   0  0  0  0  0  0  0  0  0  0  0  0
  -29.9133  -21.0985   17.1707 C   0  0  0  0  0  0  0  0  0  0  0  0
  -24.1489  -22.6112   14.3291 C   0  0  0  0  0  0  0  0  0  0  0  0
  -22.5216  -23.5022   20.6875 C   0  0  0  0  0  0  0  0  0  0  0  0
  -23.2753  -21.9644   18.8612 C   0  0  0  0  0  0  0  0  0  0  0  0
  -21.0654  -23.1092   18.6926 C   0  0  0  0  0  0  0  0  0  0  0  0
  -25.0853  -26.2950   14.1580 C   0  0  0  0  0  0  0  0  0  0  0  0
  -31.3614  -25.5889   20.5168 C   0  0  0  0  0  0  0  0  0  0  0  0
  -23.1842  -24.4526   18.3802 C   0  0  1  0  0  0  0  0  0  0  0  0
  -24.0722  -24.0806   14.7137 C   0  0  2  0  0  0  0  0  0  0  0  0
  -22.5266  -23.2804   19.1618 C   0  0  0  0  0  0  0  0  0  0  0  0
  -26.4588  -16.4483   21.1923 N   0  0  0  0  0  0  0  0  0  0  0  0
  -27.4889  -17.3026   21.0694 N   0  0  0  0  0  0  0  0  0  0  0  0
  -23.3126  -26.7796   19.2123 N   0  0  0  0  0  0  0  0  0  0  0  0
  -26.6965  -21.0354   20.9228 N   0  0  0  0  0  0  0  0  0  0  0  0
  -29.7276  -17.4656   20.3126 N   0  0  0  0  0  0  0  0  0  0  0  0
  -28.6496  -13.1640   19.4583 N   0  0  0  0  0  0  0  0  0  0  0  0
  -28.2743  -21.9217   19.4104 N   0  0  0  0  0  0  0  0  0  0  0  0
  -21.0854  -27.8597   21.5020 N   0  0  0  0  0  0  0  0  0  0  0  0
  -23.1788  -24.2821   16.9313 N   0  0  0  0  0  0  0  0  0  0  0  0
  -31.4593  -26.8777   19.7656 N   0  3  2  0  0  0  0  0  0  0  0  0
  -25.0682  -24.8323   13.8989 N   0  3  0  0  0  0  0  0  0  0  0  0
  -30.3238  -14.7254   19.3264 O   0  0  0  0  0  0  0  0  0  0  0  0
  -23.3705  -27.6928   21.9183 O   0  0  0  0  0  0  0  0  0  0  0  0
  -21.3169  -25.9153   18.3717 O   0  0  0  0  0  0  0  0  0  0  0  0
  -25.4769  -24.4137   16.6511 O   0  0  0  0  0  0  0  0  0  0  0  0
  -27.1846  -23.2950   20.9298 O   0  0  0  0  0  0  0  0  0  0  0  0
  -23.7524  -10.7249   20.5088 O   0  0  0  0  0  0  0  0  0  0  0  0
  -29.0098  -28.7176   20.5686 O   0  0  0  0  0  0  0  0  0  1  0  0
  -26.0146   -5.9594   22.1138 F   0  0  0  0  0  0  0  0  0  0  0  0
  -22.6932   -9.2932   22.6233 F   0  0  0  0  0  0  0  0  0  0  0  0
  1  2  1  0  0  0  0
  1  5  2  0  0  0  0
  2  6  2  0  0  0  0
  3  8  2  0  0  0  0
  3 17  1  0  0  0  0
  4  9  1  0  0  0  0
  4 17  2  0  0  0  0
  5 19  1  0  0  0  0
  6 21  1  0  0  0  0
  7 10  2  0  0  0  0
  7 20  1  0  0  0  0
  8 27  1  0  0  0  0
  9 27  2  0  0  0  0
 10 28  1  0  0  0  0
 11 12  2  0  0  0  0
 11 29  1  0  0  0  0
 12 30  1  0  0  0  0
 13 22  1  0  0  0  0
 13 28  2  0  0  0  0
 14 23  1  0  0  0  0
 14 24  2  0  0  0  0
 15 25  1  0  0  0  0
 15 26  2  0  0  0  0
 16 30  2  0  0  0  0
 16 31  1  0  0  0  0
 17 32  1  0  0  0  0
 18 32  1  0  0  0  0
 18 33  2  0  0  0  0
 18 34  1  0  0  0  0
 19 21  2  0  0  0  0
 19 39  1  0  0  0  0
 20 22  2  0  0  0  0
 20 40  1  0  0  0  0
 21 51  1  0  0  0  0
 22 41  1  0  0  0  0
 23 25  2  0  0  0  0
 23 55  1  0  0  0  0
 24 26  1  0  0  0  0
 24 56  1  0  0  0  0
 25 62  1  0  0  0  0
 26 72  1  0  0  0  0
 27 82  1  0  0  0  0
 28 83  1  0  0  0  0
 29 31  2  0  0  0  0
 29 82  1  0  0  0  0
 30 84  1  0  0  0  0
 31 85  1  0  0  0  0
 32 66  2  0  0  0  0
 33 67  1  0  0  0  0
 33 70  1  0  0  0  0
 34 71  1  0  0  0  0
 34 77  2  0  0  0  0
 35 52  1  0  0  0  0
 35 73  1  0  0  0  0
 35 78  2  0  0  0  0
 36 63  1  0  0  0  0
 36 68  1  0  0  0  0
 36 79  2  0  0  0  0
 37 64  1  0  0  0  0
 37 74  1  0  0  0  0
 37 80  2  0  0  0  0
 38 69  1  0  0  0  0
 38 72  1  0  0  0  0
 38 81  2  0  0  0  0
 39 42  1  0  0  0  0
 40 52  1  0  0  0  0
 41 68  1  0  0  0  0
 42 44  1  0  0  0  0
 43 45  1  0  0  0  0
 43 47  1  0  0  0  0
 44 51  1  0  0  0  0
 45 53  1  0  0  0  0
 46 49  1  0  0  0  0
 46 54  1  0  0  0  0
 47 69  1  0  0  0  0
 48 53  1  0  0  0  0
 48 69  1  0  0  0  0
 49 75  1  0  0  0  0
 50 54  1  0  0  0  0
 50 75  1  0  0  0  0
 51 73  1  0  0  0  0
 52 68  1  0  0  0  0
 53 67  1  0  0  0  0
 54 83  1  0  0  0  0
 57 64  1  0  0  0  0
 58 65  1  0  0  0  0
 59 65  1  0  0  0  0
 60 65  1  0  0  0  0
 61 76  1  0  0  0  0
 62 75  1  0  0  0  0
 63 65  1  0  0  0  0
 63 74  1  0  0  0  0
 64 76  1  0  0  0  0
 66 67  1  0  0  0  0
M  CHG  2  75   1  76   1
M  ISO  4  38 100  54 101  72 100  83 101
M  END
> <Batch ID>
0030

> <Smiles>
CNC(C)C(=O)NC(C(=O)N1Cc2cc([101O:1][101CH:1]3CCN(Cc4cc([100NH:0][100C:0](=O)N5CCCC(n6nc(-c7ccc(Oc8ccc(F)cc8F)cc7)c(C(N)=O)c6N)C5)c(C)cc4C)C3)ccc2CC1C(=O)NC1CCCc2ccccc21)C(C)(C)C

> <Shape>
0.270

> <Color>
0.068

> <Negative vol penalty>
0.000

$$$$

  -OEChem-04042321363D

 82 91  0     1  0  0  0  0  0999 V2000
  -30.0020  -35.9989   22.2747 C   0  0  0  0  0  0  0  0  0  0  0  0
  -30.1225  -34.6753   21.8638 C   0  0  0  0  0  0  0  0  0  0  0  0
  -22.8512  -10.6037   21.5265 C   0  0  0  0  0  0  0  0  0  0  0  0
  -24.5972   -8.9484   21.3059 C   0  0  0  0  0  0  0  0  0  0  0  0
  -29.9613  -21.5871   19.9324 C   0  0  0  0  0  0  0  0  0  0  0  0
  -29.0035  -36.3589   23.1787 C   0  0  0  0  0  0  0  0  0  0  0  0
  -29.2451  -33.7106   22.3577 C   0  0  0  0  0  0  0  0  0  0  0  0
  -27.0617  -28.8388   19.3568 C   0  0  0  0  0  0  0  0  0  0  0  0
  -29.7104  -22.9554   19.8165 C   0  0  0  0  0  0  0  0  0  0  0  0
  -21.9000   -9.5878   21.6212 C   0  0  0  0  0  0  0  0  0  0  0  0
  -23.6460   -7.9325   21.4006 C   0  0  0  0  0  0  0  0  0  0  0  0
  -27.4395  -27.4969   19.3463 C   0  0  0  0  0  0  0  0  0  0  0  0
  -21.8800   -6.3955   23.8377 C   0  0  0  0  0  0  0  0  0  0  0  0
  -22.1691   -5.3148   24.6708 C   0  0  0  0  0  0  0  0  0  0  0  0
  -27.4158  -22.5365   19.0896 C   0  0  0  0  0  0  0  0  0  0  0  0
  -25.7454  -27.0133   20.9942 C   0  0  0  0  0  0  0  0  0  0  0  0
  -22.0098   -3.8164   22.7823 C   0  0  0  0  0  0  0  0  0  0  0  0
  -24.1997  -10.2840   21.3688 C   0  0  0  0  0  0  0  0  0  0  0  0
  -28.9251  -20.7293   19.6213 C   0  0  0  0  0  0  0  0  0  0  0  0
  -25.8896  -11.9374   22.3270 C   0  0  0  0  0  0  0  0  0  0  0  0
  -28.1074  -35.3999   23.6765 C   0  0  0  0  0  0  0  0  0  0  0  0
  -26.0284  -29.2809   20.1956 C   0  0  0  0  0  0  0  0  0  0  0  0
  -28.2345  -34.0578   23.2703 C   0  0  0  0  0  0  0  0  0  0  0  0
  -27.6658  -21.1826   19.2052 C   0  0  0  0  0  0  0  0  0  0  0  0
  -25.3547  -28.3609   21.0116 C   0  0  0  0  0  0  0  0  0  0  0  0
  -28.4506  -23.4257   19.3992 C   0  0  0  0  0  0  0  0  0  0  0  0
  -22.2974   -8.2522   21.5583 C   0  0  0  0  0  0  0  0  0  0  0  0
  -26.7833  -26.5844   20.1672 C   0  0  0  0  0  0  0  0  0  0  0  0
  -21.6558   -6.1867   22.4769 C   0  0  0  0  0  0  0  0  0  0  0  0
  -22.2340   -4.0252   24.1431 C   0  0  0  0  0  0  0  0  0  0  0  0
  -21.7207   -4.8971   21.9492 C   0  0  0  0  0  0  0  0  0  0  0  0
  -25.1827  -11.3329   21.2703 C   0  0  0  0  0  0  0  0  0  0  0  0
  -26.6943  -12.8667   21.7144 C   0  0  0  0  0  0  0  0  0  0  0  0
  -28.9021  -19.2590   19.6508 C   0  0  0  0  0  0  0  0  0  0  0  0
  -25.8246  -11.6818   23.7363 C   0  0  0  0  0  0  0  0  0  0  0  0
  -25.8252  -31.3345   22.6132 C   0  0  0  0  0  0  0  0  0  0  0  0
  -22.6530  -30.6997   22.3753 C   0  0  0  0  0  0  0  0  0  0  0  0
  -20.1950  -28.5491   21.3854 C   0  0  0  0  0  0  0  0  0  0  0  0
  -27.3474  -16.9762   17.9308 C   0  0  0  0  0  0  0  0  0  0  0  0
  -27.0740  -35.8280   24.6883 C   0  0  0  0  0  0  0  0  0  0  0  0
  -25.6150  -30.7269   20.1755 C   0  0  0  0  0  0  0  0  0  0  0  0
  -26.7520  -20.0281   18.9415 C   0  0  0  0  0  0  0  0  0  0  0  0
  -24.2254  -28.7810   21.9154 C   0  0  0  0  0  0  0  0  0  0  0  0
  -25.9487  -34.8138   24.8761 C   0  0  0  0  0  0  0  0  0  0  0  0
  -27.7805  -13.5864   16.8379 C   0  0  0  0  0  0  0  0  0  0  0  0
  -26.5178  -33.4063   25.0236 C   0  0  0  0  0  0  0  0  0  0  0  0
  -27.1754  -12.7505   17.9638 C   0  0  0  0  0  0  0  0  0  0  0  0
  -27.0135  -14.8897   16.6394 C   0  0  0  0  0  0  0  0  0  0  0  0
  -26.2977  -14.8915   19.0055 C   0  0  0  0  0  0  0  0  0  0  0  0
  -27.2861  -32.9870   23.7645 C   0  0  1  0  0  0  0  0  0  0  0  0
  -24.8930  -31.1597   21.4478 C   0  0  1  0  0  0  0  0  0  0  0  0
  -27.0556  -13.5743   19.2571 C   0  0  1  0  0  0  0  0  0  0  0  0
  -17.6993  -28.2883   21.3578 C   0  0  0  0  0  0  0  0  0  0  0  0
  -22.6936  -30.0188   25.3493 C   0  0  0  0  0  0  0  0  0  0  0  0
  -20.4821  -28.8844   25.0486 C   0  0  0  0  0  0  0  0  0  0  0  0
  -20.6977  -31.3299   24.6064 C   0  0  0  0  0  0  0  0  0  0  0  0
  -20.1234  -28.4350   18.4289 C   0  0  0  0  0  0  0  0  0  0  0  0
  -28.2161  -24.9033   19.2857 C   0  0  0  0  0  0  0  0  0  1  0  0
  -21.7178  -29.6821   22.9828 C   0  0  1  0  0  0  0  0  0  0  0  0
  -18.9205  -28.7727   20.5917 C   0  0  2  0  0  0  0  0  0  0  0  0
  -21.4204  -29.9709   24.4813 C   0  0  0  0  0  0  0  0  0  0  0  0
  -25.5095  -11.8359   20.0769 N   0  0  0  0  0  0  0  0  0  0  0  0
  -26.4306  -12.7665   20.3800 N   0  0  0  0  0  0  0  0  0  0  0  0
  -27.6275  -18.9248   19.2497 N   0  0  0  0  0  0  0  0  0  0  0  0
  -23.8622  -30.2068   21.8647 N   0  0  0  0  0  0  0  0  0  0  0  0
  -26.9074  -15.6408   17.8941 N   0  0  0  0  0  0  0  0  0  0  0  0
  -27.5947  -13.7517   22.1924 N   0  0  0  0  0  0  0  0  0  0  0  0
  -24.9442  -10.6929   24.1960 N   0  0  0  0  0  0  0  0  0  0  0  0
  -26.3662  -32.6019   22.7159 N   0  0  0  0  0  0  0  0  0  0  0  0
  -20.5328  -29.6579   22.1322 N   0  0  0  0  0  0  0  0  0  0  0  0
  -27.2160  -17.6210   19.1496 N   0  0  0  0  0  0  0  0  0  0  0  0
  -18.9826  -28.0408   19.2950 N   0  3  0  0  0  0  0  0  0  0  0  0
  -29.8408  -18.5552   19.9701 O   0  0  0  0  0  0  0  0  0  0  0  0
  -26.5146  -12.3229   24.5648 O   0  0  0  0  0  0  0  0  0  0  0  0
  -26.0368  -30.3898   23.3647 O   0  0  0  0  0  0  0  0  0  0  0  0
  -22.3197  -31.8870   22.3482 O   0  0  0  0  0  0  0  0  0  0  0  0
  -20.8257  -27.4948   21.3496 O   0  0  0  0  0  0  0  0  0  0  0  0
  -27.8232  -17.5475   16.9429 O   0  0  0  0  0  0  0  0  0  0  0  0
  -21.3696   -7.2607   21.6510 O   0  0  0  0  0  0  0  0  0  0  0  0
  -27.1505  -25.2740   20.1594 O   0  0  0  0  0  0  0  0  0  1  0  0
  -22.5132   -2.9877   24.9430 F   0  0  0  0  0  0  0  0  0  0  0  0
  -21.5073   -4.6904   20.6425 F   0  0  0  0  0  0  0  0  0  0  0  0
  1  2  1  0  0  0  0
  1  6  2  0  0  0  0
  2  7  2  0  0  0  0
  3 10  2  0  0  0  0
  3 18  1  0  0  0  0
  4 11  1  0  0  0  0
  4 18  2  0  0  0  0
  5  9  2  0  0  0  0
  5 19  1  0  0  0  0
  6 21  1  0  0  0  0
  7 23  1  0  0  0  0
  8 12  2  0  0  0  0
  8 22  1  0  0  0  0
  9 26  1  0  0  0  0
 10 27  1  0  0  0  0
 11 27  2  0  0  0  0
 12 28  1  0  0  0  0
 13 14  2  0  0  0  0
 13 29  1  0  0  0  0
 14 30  1  0  0  0  0
 15 24  1  0  0  0  0
 15 26  2  0  0  0  0
 16 25  1  0  0  0  0
 16 28  2  0  0  0  0
 17 30  2  0  0  0  0
 17 31  1  0  0  0  0
 18 32  1  0  0  0  0
 19 24  2  0  0  0  0
 19 34  1  0  0  0  0
 20 32  1  0  0  0  0
 20 33  2  0  0  0  0
 20 35  1  0  0  0  0
 21 23  2  0  0  0  0
 21 40  1  0  0  0  0
 22 25  2  0  0  0  0
 22 41  1  0  0  0  0
 23 50  1  0  0  0  0
 24 42  1  0  0  0  0
 25 43  1  0  0  0  0
 26 58  1  0  0  0  0
 27 79  1  0  0  0  0
 28 80  1  0  0  0  0
 29 31  2  0  0  0  0
 29 79  1  0  0  0  0
 30 81  1  0  0  0  0
 31 82  1  0  0  0  0
 32 62  2  0  0  0  0
 33 63  1  0  0  0  0
 33 67  1  0  0  0  0
 34 64  1  0  0  0  0
 34 73  2  0  0  0  0
 35 68  1  0  0  0  0
 35 74  2  0  0  0  0
 36 51  1  0  0  0  0
 36 69  1  0  0  0  0
 36 75  2  0  0  0  0
 37 59  1  0  0  0  0
 37 65  1  0  0  0  0
 37 76  2  0  0  0  0
 38 60  1  0  0  0  0
 38 70  1  0  0  0  0
 38 77  2  0  0  0  0
 39 66  1  0  0  0  0
 39 71  1  0  0  0  0
 39 78  2  0  0  0  0
 40 44  1  0  0  0  0
 41 51  1  0  0  0  0
 42 64  1  0  0  0  0
 43 65  1  0  0  0  0
 44 46  1  0  0  0  0
 45 47  1  0  0  0  0
 45 48  1  0  0  0  0
 46 50  1  0  0  0  0
 47 52  1  0  0  0  0
 48 66  1  0  0  0  0
 49 52  1  0  0  0  0
 49 66  1  0  0  0  0
 50 69  1  0  0  0  0
 51 65  1  0  0  0  0
 52 63  1  0  0  0  0
 53 60  1  0  0  0  0
 54 61  1  0  0  0  0
 55 61  1  0  0  0  0
 56 61  1  0  0  0  0
 57 72  1  0  0  0  0
 58 80  1  0  0  0  0
 59 61  1  0  0  0  0
 59 70  1  0  0  0  0
 60 72  1  0  0  0  0
 62 63  1  0  0  0  0
 64 71  1  0  0  0  0
M  CHG  1  72   1
M  ISO  4  39 100  58 101  71 100  80 101
M  END
> <Batch ID>
0030

> <Smiles>
CNC(C)C(=O)NC(C(=O)N1Cc2cc([101O:1][101CH2:1]c3ccc4c(c3)CN([100NH:0][100C:0](=O)N3CCCC(n5nc(-c6ccc(Oc7ccc(F)cc7F)cc6)c(C(N)=O)c5N)C3)C4=O)ccc2CC1C(=O)NC1CCCc2ccccc21)C(C)(C)C

> <Shape>
0.313

> <Color>
0.120

> <Negative vol penalty>
0.000

$$$$

  -OEChem-04042321363D

 75 82  0     1  0  0  0  0  0999 V2000
  -32.6757  -26.9307   24.1935 C   0  0  0  0  0  0  0  0  0  0  0  0
  -33.2702  -25.6961   23.9527 C   0  0  0  0  0  0  0  0  0  0  0  0
  -23.1714   -9.8811   19.9137 C   0  0  0  0  0  0  0  0  0  0  0  0
  -23.5557  -10.0089   22.2955 C   0  0  0  0  0  0  0  0  0  0  0  0
  -31.2939  -27.0727   24.0744 C   0  0  0  0  0  0  0  0  0  0  0  0
  -32.4830  -24.6026   23.5938 C   0  0  0  0  0  0  0  0  0  0  0  0
  -34.0021  -20.0717   19.7637 C   0  0  0  0  0  0  0  0  0  0  0  0
  -22.3855   -8.7442   20.1014 C   0  0  0  0  0  0  0  0  0  0  0  0
  -22.7697   -8.8720   22.4833 C   0  0  0  0  0  0  0  0  0  0  0  0
  -34.4800  -18.7802   19.9813 C   0  0  0  0  0  0  0  0  0  0  0  0
  -21.1601   -5.7946   23.5550 C   0  0  0  0  0  0  0  0  0  0  0  0
  -21.6407   -4.8094   24.4175 C   0  0  0  0  0  0  0  0  0  0  0  0
  -32.2307  -17.9255   19.8106 C   0  0  0  0  0  0  0  0  0  0  0  0
  -23.5927   -4.5381   23.0199 C   0  0  0  0  0  0  0  0  0  0  0  0
  -23.7566  -10.5135   21.0107 C   0  0  0  0  0  0  0  0  0  0  0  0
  -24.1389  -13.0281   20.8149 C   0  0  0  0  0  0  0  0  0  0  0  0
  -30.4903  -25.9827   23.7044 C   0  0  0  0  0  0  0  0  0  0  0  0
  -32.6312  -20.3016   19.5785 C   0  0  0  0  0  0  0  0  0  0  0  0
  -31.0889  -24.7299   23.4710 C   0  0  0  0  0  0  0  0  0  0  0  0
  -31.7382  -19.2206   19.5883 C   0  0  0  0  0  0  0  0  0  0  0  0
  -22.1846   -8.2396   21.3862 C   0  0  0  0  0  0  0  0  0  0  0  0
  -33.5940  -17.7072   20.0076 C   0  0  0  0  0  0  0  0  0  0  0  0
  -21.8957   -6.1515   22.4248 C   0  0  0  0  0  0  0  0  0  0  0  0
  -22.8571   -4.1812   24.1500 C   0  0  0  0  0  0  0  0  0  0  0  0
  -23.1120   -5.5233   22.1573 C   0  0  0  0  0  0  0  0  0  0  0  0
  -24.5690  -11.6876   20.8173 C   0  0  0  0  0  0  0  0  0  0  0  0
  -25.2825  -13.7553   20.5922 C   0  0  0  0  0  0  0  0  0  0  0  0
  -22.8231  -13.5676   20.9979 C   0  0  0  0  0  0  0  0  0  0  0  0
  -30.4033  -21.9519   21.1331 C   0  0  0  0  0  0  0  0  0  0  0  0
  -28.5643  -21.1105   18.5969 C   0  0  0  0  0  0  0  0  0  0  0  0
  -27.9950  -18.9426   16.0234 C   0  0  0  0  0  0  0  0  0  0  0  0
  -30.8946  -12.8120   21.6977 C   0  0  0  0  0  0  0  0  0  0  0  0
  -28.9959  -26.1732   23.6345 C   0  0  0  0  0  0  0  0  0  0  0  0
  -32.1347  -21.6974   19.3183 C   0  0  0  0  0  0  0  0  0  0  0  0
  -30.2595  -19.4115   19.3746 C   0  0  0  0  0  0  0  0  0  0  0  0
  -28.2739  -25.0566   22.8848 C   0  0  0  0  0  0  0  0  0  0  0  0
  -29.5634  -13.4701   18.4935 C   0  0  0  0  0  0  0  0  0  0  0  0
  -28.7751  -23.6921   23.3473 C   0  0  0  0  0  0  0  0  0  0  0  0
  -28.0758  -13.2078   18.7242 C   0  0  0  0  0  0  0  0  0  0  0  0
  -30.4457  -12.4569   19.2251 C   0  0  0  0  0  0  0  0  0  0  0  0
  -28.6659  -12.0818   20.9026 C   0  0  0  0  0  0  0  0  0  0  0  0
  -30.2714  -23.5261   23.0554 C   0  0  1  0  0  0  0  0  0  0  0  0
  -30.6576  -21.8785   19.6540 C   0  0  1  0  0  0  0  0  0  0  0  0
  -27.7589  -13.1219   20.2273 C   0  0  2  0  0  0  0  0  0  0  0  0
  -26.3932  -18.4922   14.1448 C   0  0  0  0  0  0  0  0  0  0  0  0
  -26.5394  -20.0021   20.5923 C   0  0  0  0  0  0  0  0  0  0  0  0
  -25.4680  -18.7534   18.7052 C   0  0  0  0  0  0  0  0  0  0  0  0
  -25.5353  -21.2467   18.6695 C   0  0  0  0  0  0  0  0  0  0  0  0
  -32.9464  -11.7573   20.6572 C   0  0  0  0  0  0  0  0  0  0  0  0
  -30.1157  -19.2623   13.9840 C   0  0  0  0  0  0  0  0  0  0  0  0
  -34.0098  -14.5134   21.6426 C   0  0  0  0  0  0  0  0  0  0  0  0
  -33.1585  -13.4978   22.3926 C   0  0  0  0  0  0  0  0  0  0  0  0
  -33.1773  -15.5314   20.8726 C   0  0  0  0  0  0  0  0  0  1  0  0
  -27.6645  -19.9435   18.2691 C   0  0  1  0  0  0  0  0  0  0  0  0
  -27.6858  -19.1798   14.5562 C   0  0  2  0  0  0  0  0  0  0  0  0
  -26.3294  -19.9827   19.0650 C   0  0  0  0  0  0  0  0  0  0  0  0
  -25.8833  -11.5675   20.6121 N   0  0  0  0  0  0  0  0  0  0  0  0
  -26.2889  -12.8418   20.4787 N   0  0  0  0  0  0  0  0  0  0  0  0
  -29.8221  -20.7959   19.1303 N   0  0  0  0  0  0  0  0  0  0  0  0
  -30.0786  -12.3718   20.6452 N   0  0  0  0  0  0  0  0  0  0  0  0
  -25.5154  -15.0806   20.4843 N   0  0  0  0  0  0  0  0  0  0  0  0
  -21.7612  -12.6794   21.2161 N   0  0  0  0  0  0  0  0  0  0  0  0
  -30.4832  -23.2289   21.6549 N   0  0  0  0  0  0  0  0  0  0  0  0
  -27.4967  -19.9518   16.8199 N   0  0  0  0  0  0  0  0  0  0  0  0
  -32.2827  -12.7457   21.5051 N   0  0  0  0  0  0  0  0  0  0  0  0
  -28.7893  -18.6552   13.7029 N   0  3  0  0  0  0  0  0  0  0  0  0
  -22.5933  -14.7999   20.9523 O   0  0  0  0  0  0  0  0  0  0  0  0
  -30.1517  -20.9261   21.7545 O   0  0  0  0  0  0  0  0  0  0  0  0
  -28.1685  -22.2586   18.3806 O   0  0  0  0  0  0  0  0  0  0  0  0
  -28.6131  -17.9585   16.4232 O   0  0  0  0  0  0  0  0  0  0  0  0
  -30.4107  -13.2342   22.7559 O   0  0  0  0  0  0  0  0  0  0  0  0
  -21.4176   -7.1304   21.5699 O   0  0  0  0  0  0  0  0  0  0  0  0
  -34.0578  -16.4457   20.2205 O   0  0  0  0  0  0  0  0  0  1  0  0
  -23.3193   -3.2362   24.9792 F   0  0  0  0  0  0  0  0  0  0  0  0
  -23.8238   -5.8629   21.0738 F   0  0  0  0  0  0  0  0  0  0  0  0
  1  2  1  0  0  0  0
  1  5  2  0  0  0  0
  2  6  2  0  0  0  0
  3  8  2  0  0  0  0
  3 15  1  0  0  0  0
  4  9  1  0  0  0  0
  4 15  2  0  0  0  0
  5 17  1  0  0  0  0
  6 19  1  0  0  0  0
  7 10  2  0  0  0  0
  7 18  1  0  0  0  0
  8 21  1  0  0  0  0
  9 21  2  0  0  0  0
 10 22  1  0  0  0  0
 11 12  2  0  0  0  0
 11 23  1  0  0  0  0
 12 24  1  0  0  0  0
 13 20  1  0  0  0  0
 13 22  2  0  0  0  0
 14 24  2  0  0  0  0
 14 25  1  0  0  0  0
 15 26  1  0  0  0  0
 16 26  1  0  0  0  0
 16 27  2  0  0  0  0
 16 28  1  0  0  0  0
 17 19  2  0  0  0  0
 17 33  1  0  0  0  0
 18 20  2  0  0  0  0
 18 34  1  0  0  0  0
 19 42  1  0  0  0  0
 20 35  1  0  0  0  0
 21 72  1  0  0  0  0
 22 73  1  0  0  0  0
 23 25  2  0  0  0  0
 23 72  1  0  0  0  0
 24 74  1  0  0  0  0
 25 75  1  0  0  0  0
 26 57  2  0  0  0  0
 27 58  1  0  0  0  0
 27 61  1  0  0  0  0
 28 62  1  0  0  0  0
 28 67  2  0  0  0  0
 29 43  1  0  0  0  0
 29 63  1  0  0  0  0
 29 68  2  0  0  0  0
 30 54  1  0  0  0  0
 30 59  1  0  0  0  0
 30 69  2  0  0  0  0
 31 55  1  0  0  0  0
 31 64  1  0  0  0  0
 31 70  2  0  0  0  0
 32 60  1  0  0  0  0
 32 65  1  0  0  0  0
 32 71  2  0  0  0  0
 33 36  1  0  0  0  0
 34 43  1  0  0  0  0
 35 59  1  0  0  0  0
 36 38  1  0  0  0  0
 37 39  1  0  0  0  0
 37 40  1  0  0  0  0
 38 42  1  0  0  0  0
 39 44  1  0  0  0  0
 40 60  1  0  0  0  0
 41 44  1  0  0  0  0
 41 60  1  0  0  0  0
 42 63  1  0  0  0  0
 43 59  1  0  0  0  0
 44 58  1  0  0  0  0
 45 55  1  0  0  0  0
 46 56  1  0  0  0  0
 47 56  1  0  0  0  0
 48 56  1  0  0  0  0
 49 65  1  0  0  0  0
 50 66  1  0  0  0  0
 51 52  1  0  0  0  0
 51 53  1  0  0  0  0
 52 65  1  0  0  0  0
 53 73  1  0  0  0  0
 54 56  1  0  0  0  0
 54 64  1  0  0  0  0
 55 66  1  0  0  0  0
 57 58  1  0  0  0  0
M  CHG  1  66   1
M  ISO  4  32 100  53 101  65 100  73 101
M  END
> <Batch ID>
0030

> <Smiles>
CNC(C)C(=O)NC(C(=O)N1Cc2cc([101O:1][101CH2:1]CC[100N:0](C)[100C:0](=O)N3CCCC(n4nc(-c5ccc(Oc6ccc(F)cc6F)cc5)c(C(N)=O)c4N)C3)ccc2CC1C(=O)NC1CCCc2ccccc21)C(C)(C)C

> <Shape>
0.188

> <Color>
0.204

> <Negative vol penalty>
0.000

$$$$

  -OEChem-04042321363D

 84 93  0     1  0  0  0  0  0999 V2000
  -17.6017  -28.0987   19.5440 C   0  0  0  0  0  0  0  0  0  0  0  0
  -18.5893  -27.1805   19.8860 C   0  0  0  0  0  0  0  0  0  0  0  0
  -22.9842   -9.8923   20.0208 C   0  0  0  0  0  0  0  0  0  0  0  0
  -23.6235  -10.0759   22.3434 C   0  0  0  0  0  0  0  0  0  0  0  0
  -17.7972  -29.4564   19.7936 C   0  0  0  0  0  0  0  0  0  0  0  0
  -19.7736  -27.6197   20.4769 C   0  0  0  0  0  0  0  0  0  0  0  0
  -23.0886  -24.6810   24.7053 C   0  0  0  0  0  0  0  0  0  0  0  0
  -29.3655  -18.9463   21.8544 C   0  0  0  0  0  0  0  0  0  0  0  0
  -28.5316  -19.8499   22.5129 C   0  0  0  0  0  0  0  0  0  0  0  0
  -22.2001   -8.7795   20.3245 C   0  0  0  0  0  0  0  0  0  0  0  0
  -22.8393   -8.9630   22.6472 C   0  0  0  0  0  0  0  0  0  0  0  0
  -24.2344  -23.8916   24.6170 C   0  0  0  0  0  0  0  0  0  0  0  0
  -23.0768   -5.6008   22.3824 C   0  0  0  0  0  0  0  0  0  0  0  0
  -23.6285   -4.6270   23.2147 C   0  0  0  0  0  0  0  0  0  0  0  0
  -25.5919  -25.8130   25.1504 C   0  0  0  0  0  0  0  0  0  0  0  0
  -21.8453   -4.9773   24.8067 C   0  0  0  0  0  0  0  0  0  0  0  0
  -23.6959  -10.5405   21.0302 C   0  0  0  0  0  0  0  0  0  0  0  0
  -24.1058  -13.0393   20.7208 C   0  0  0  0  0  0  0  0  0  0  0  0
  -18.9804  -29.9114   20.3966 C   0  0  0  0  0  0  0  0  0  0  0  0
  -23.1869  -26.0470   25.0067 C   0  0  0  0  0  0  0  0  0  0  0  0
  -19.9856  -28.9849   20.7335 C   0  0  0  0  0  0  0  0  0  0  0  0
  -24.4457  -26.6170   25.2445 C   0  0  0  0  0  0  0  0  0  0  0  0
  -29.8881  -17.8509   22.5420 C   0  0  0  0  0  0  0  0  0  0  0  0
  -29.5767  -17.6592   23.8881 C   0  0  0  0  0  0  0  0  0  0  0  0
  -28.7427  -18.5628   24.5466 C   0  0  0  0  0  0  0  0  0  0  0  0
  -28.2202  -19.6582   23.8590 C   0  0  0  0  0  0  0  0  0  0  0  0
  -22.1276   -8.3148   21.6377 C   0  0  0  0  0  0  0  0  0  0  0  0
  -25.4865  -24.4582   24.8366 C   0  0  0  0  0  0  0  0  0  0  0  0
  -21.9093   -6.2630   22.7623 C   0  0  0  0  0  0  0  0  0  0  0  0
  -23.0128   -4.3152   24.4269 C   0  0  0  0  0  0  0  0  0  0  0  0
  -21.2936   -5.9512   23.9744 C   0  0  0  0  0  0  0  0  0  0  0  0
  -24.5065  -11.6898   20.7169 C   0  0  0  0  0  0  0  0  0  0  0  0
  -25.2335  -13.7335   20.3564 C   0  0  0  0  0  0  0  0  0  0  0  0
  -22.8283  -13.6140   21.0266 C   0  0  0  0  0  0  0  0  0  0  0  0
  -22.4296  -28.7379   23.4937 C   0  0  0  0  0  0  0  0  0  0  0  0
  -23.2870  -30.1032   26.3085 C   0  0  0  0  0  0  0  0  0  0  0  0
  -25.0816  -29.8910   29.2036 C   0  0  0  0  0  0  0  0  0  0  0  0
  -30.7235  -14.6534   20.7557 C   0  0  0  0  0  0  0  0  0  0  0  0
  -19.1661  -31.3938   20.6035 C   0  0  0  0  0  0  0  0  0  0  0  0
  -21.9394  -26.8790   25.1247 C   0  0  0  0  0  0  0  0  0  0  0  0
  -24.6037  -28.0741   25.5911 C   0  0  0  0  0  0  0  0  0  0  0  0
  -20.2925  -31.7367   21.5751 C   0  0  0  0  0  0  0  0  0  0  0  0
  -29.6533  -12.1010   18.5160 C   0  0  0  0  0  0  0  0  0  0  0  0
  -21.5416  -30.9226   21.2531 C   0  0  0  0  0  0  0  0  0  0  0  0
  -28.1884  -11.8737   18.8934 C   0  0  0  0  0  0  0  0  0  0  0  0
  -30.5118  -12.4030   19.7423 C   0  0  0  0  0  0  0  0  0  0  0  0
  -28.5590  -13.2859   20.9591 C   0  0  0  0  0  0  0  0  0  0  0  0
  -26.3464  -21.3367   23.9062 C   0  0  0  0  0  0  0  0  0  0  0  0
  -27.7723  -21.5664   25.4365 C   0  0  0  0  0  0  0  0  0  0  0  0
  -21.2734  -29.4198   21.3987 C   0  0  1  0  0  0  0  0  0  0  0  0
  -22.1954  -28.3705   24.9317 C   0  0  1  0  0  0  0  0  0  0  0  0
  -27.6435  -13.0331   19.7491 C   0  0  2  0  0  0  0  0  0  0  0  0
  -26.4749  -22.3096   25.0867 C   0  0  0  0  0  0  0  0  0  1  0  0
  -30.1384  -16.4834   24.6233 C   0  0  0  0  0  0  0  0  0  0  0  0
  -28.4098  -18.3558   25.9911 C   0  0  0  0  0  0  0  0  0  0  0  0
  -25.6125  -31.1787   31.2910 C   0  0  0  0  0  0  0  0  0  0  0  0
  -25.1807  -31.8924   24.7203 C   0  0  0  0  0  0  0  0  0  0  0  0
  -26.3373  -32.4564   26.8679 C   0  0  0  0  0  0  0  0  0  0  0  0
  -23.9366  -33.0557   26.5514 C   0  0  0  0  0  0  0  0  0  0  0  0
  -23.9086  -27.7956   30.9335 C   0  0  0  0  0  0  0  0  0  0  0  0
  -30.7778  -16.8982   21.8126 C   0  0  0  0  0  0  0  0  0  0  0  0
  -24.5749  -30.6331   26.8913 C   0  0  1  0  0  0  0  0  0  0  0  0
  -24.6959  -30.1489   30.6490 C   0  0  2  0  0  0  0  0  0  0  0  0
  -25.0049  -31.9823   26.2493 C   0  0  0  0  0  0  0  0  0  0  0  0
  -25.7887  -11.5337   20.3769 N   0  0  0  0  0  0  0  0  0  0  0  0
  -26.2034  -12.7941   20.1636 N   0  0  0  0  0  0  0  0  0  0  0  0
  -27.3877  -20.5706   24.4977 N   0  0  0  0  0  0  0  0  0  0  0  0
  -23.3547  -28.8475   25.6885 N   0  0  0  0  0  0  0  0  0  0  0  0
  -29.9413  -13.5130   20.5093 N   0  0  0  0  0  0  0  0  0  0  0  0
  -25.4802  -15.0496   20.1852 N   0  0  0  0  0  0  0  0  0  0  0  0
  -21.7780  -12.7570   21.3826 N   0  0  0  0  0  0  0  0  0  0  0  0
  -21.2761  -29.0390   22.7949 N   0  0  0  0  0  0  0  0  0  0  0  0
  -24.3746  -30.6953   28.3350 N   0  0  0  0  0  0  0  0  0  0  0  0
  -30.1044  -15.6614   21.4847 N   0  0  0  0  0  0  0  0  0  0  0  0
  -24.7782  -28.8885   31.4399 N   0  3  0  0  0  0  0  0  0  0  0  0
  -22.6198  -14.8497   20.9693 O   0  0  0  0  0  0  0  0  0  0  0  0
  -23.5724  -28.7490   23.0513 O   0  0  0  0  0  0  0  0  0  0  0  0
  -22.2573  -30.7753   26.4064 O   0  0  0  0  0  0  0  0  0  0  0  0
  -25.9283  -29.0617   28.8779 O   0  0  0  0  0  0  0  0  0  0  0  0
  -31.8855  -14.7673   20.3511 O   0  0  0  0  0  0  0  0  0  0  0  0
  -21.3624   -7.2291   21.9345 O   0  0  0  0  0  0  0  0  0  0  0  0
  -26.6066  -23.6901   24.7503 O   0  0  0  0  0  0  0  0  0  1  0  0
  -23.5419   -3.3788   25.2253 F   0  0  0  0  0  0  0  0  0  0  0  0
  -20.1712   -6.5831   24.3442 F   0  0  0  0  0  0  0  0  0  0  0  0
  1  2  1  0  0  0  0
  1  5  2  0  0  0  0
  2  6  2  0  0  0  0
  3 10  2  0  0  0  0
  3 17  1  0  0  0  0
  4 11  1  0  0  0  0
  4 17  2  0  0  0  0
  5 19  1  0  0  0  0
  6 21  1  0  0  0  0
  7 12  2  0  0  0  0
  7 20  1  0  0  0  0
  8  9  2  0  0  0  0
  8 23  1  0  0  0  0
  9 26  1  0  0  0  0
 10 27  1  0  0  0  0
 11 27  2  0  0  0  0
 12 28  1  0  0  0  0
 13 14  2  0  0  0  0
 13 29  1  0  0  0  0
 14 30  1  0  0  0  0
 15 22  1  0  0  0  0
 15 28  2  0  0  0  0
 16 30  2  0  0  0  0
 16 31  1  0  0  0  0
 17 32  1  0  0  0  0
 18 32  1  0  0  0  0
 18 33  2  0  0  0  0
 18 34  1  0  0  0  0
 19 21  2  0  0  0  0
 19 39  1  0  0  0  0
 20 22  2  0  0  0  0
 20 40  1  0  0  0  0
 21 50  1  0  0  0  0
 22 41  1  0  0  0  0
 23 24  2  0  0  0  0
 23 61  1  0  0  0  0
 24 25  1  0  0  0  0
 24 54  1  0  0  0  0
 25 26  2  0  0  0  0
 25 55  1  0  0  0  0
 26 67  1  0  0  0  0
 27 81  1  0  0  0  0
 28 82  1  0  0  0  0
 29 31  2  0  0  0  0
 29 81  1  0  0  0  0
 30 83  1  0  0  0  0
 31 84  1  0  0  0  0
 32 65  2  0  0  0  0
 33 66  1  0  0  0  0
 33 70  1  0  0  0  0
 34 71  1  0  0  0  0
 34 76  2  0  0  0  0
 35 51  1  0  0  0  0
 35 72  1  0  0  0  0
 35 77  2  0  0  0  0
 36 62  1  0  0  0  0
 36 68  1  0  0  0  0
 36 78  2  0  0  0  0
 37 63  1  0  0  0  0
 37 73  1  0  0  0  0
 37 79  2  0  0  0  0
 38 69  1  0  0  0  0
 38 74  1  0  0  0  0
 38 80  2  0  0  0  0
 39 42  1  0  0  0  0
 40 51  1  0  0  0  0
 41 68  1  0  0  0  0
 42 44  1  0  0  0  0
 43 45  1  0  0  0  0
 43 46  1  0  0  0  0
 44 50  1  0  0  0  0
 45 52  1  0  0  0  0
 46 69  1  0  0  0  0
 47 52  1  0  0  0  0
 47 69  1  0  0  0  0
 48 53  1  0  0  0  0
 48 67  1  0  0  0  0
 49 53  1  0  0  0  0
 49 67  1  0  0  0  0
 50 72  1  0  0  0  0
 51 68  1  0  0  0  0
 52 66  1  0  0  0  0
 53 82  1  0  0  0  0
 56 63  1  0  0  0  0
 57 64  1  0  0  0  0
 58 64  1  0  0  0  0
 59 64  1  0  0  0  0
 60 75  1  0  0  0  0
 61 74  1  0  0  0  0
 62 64  1  0  0  0  0
 62 73  1  0  0  0  0
 63 75  1  0  0  0  0
 65 66  1  0  0  0  0
M  CHG  1  75   1
M  ISO  4  38 100  53 101  74 100  82 101
M  END
> <Batch ID>
0030

> <Smiles>
CNC(C)C(=O)NC(C(=O)N1Cc2cc([101O:1][101CH:1]3CN(c4ccc(C[100NH:0][100C:0](=O)N5CCCC(n6nc(-c7ccc(Oc8ccc(F)cc8F)cc7)c(C(N)=O)c6N)C5)c(C)c4C)C3)ccc2CC1C(=O)NC1CCCc2ccccc21)C(C)(C)C

> <Shape>
0.247

> <Color>
0.243

> <Negative vol penalty>
0.000

$$$$

  -OEChem-04042321363D

 85 94  0     1  0  0  0  0  0999 V2000
  -36.5003  -29.3228   17.6659 C   0  0  0  0  0  0  0  0  0  0  0  0
  -36.0452  -28.6499   18.7952 C   0  0  0  0  0  0  0  0  0  0  0  0
  -23.0318  -10.0183   19.8423 C   0  0  0  0  0  0  0  0  0  0  0  0
  -23.8753   -9.7817   22.0939 C   0  0  0  0  0  0  0  0  0  0  0  0
  -35.6824  -29.4281   16.5417 C   0  0  0  0  0  0  0  0  0  0  0  0
  -34.7713  -28.0827   18.8014 C   0  0  0  0  0  0  0  0  0  0  0  0
  -34.7366  -23.4056   20.7427 C   0  0  0  0  0  0  0  0  0  0  0  0
  -32.8487  -17.1305   23.7450 C   0  0  0  0  0  0  0  0  0  0  0  0
  -32.2149  -16.3489   22.7791 C   0  0  0  0  0  0  0  0  0  0  0  0
  -22.2793   -8.8548   20.0019 C   0  0  0  0  0  0  0  0  0  0  0  0
  -23.1227   -8.6181   22.2535 C   0  0  0  0  0  0  0  0  0  0  0  0
  -34.7859  -23.2922   22.1314 C   0  0  0  0  0  0  0  0  0  0  0  0
  -19.3739   -7.9499   21.4759 C   0  0  0  0  0  0  0  0  0  0  0  0
  -18.0496   -7.9693   21.0386 C   0  0  0  0  0  0  0  0  0  0  0  0
  -32.4013  -22.9314   22.1806 C   0  0  0  0  0  0  0  0  0  0  0  0
  -30.0672  -17.1599   23.5320 C   0  0  0  0  0  0  0  0  0  0  0  0
  -18.5294   -6.1649   19.5053 C   0  0  0  0  0  0  0  0  0  0  0  0
  -23.8299  -10.4818   20.8883 C   0  0  0  0  0  0  0  0  0  0  0  0
  -24.2073  -13.0016   21.0127 C   0  0  0  0  0  0  0  0  0  0  0  0
  -34.4016  -28.8536   16.5306 C   0  0  0  0  0  0  0  0  0  0  0  0
  -33.5155  -23.2934   20.0623 C   0  0  0  0  0  0  0  0  0  0  0  0
  -33.9350  -28.1815   17.6765 C   0  0  0  0  0  0  0  0  0  0  0  0
  -32.3395  -23.0412   20.7830 C   0  0  0  0  0  0  0  0  0  0  0  0
  -32.0918  -17.9268   24.6045 C   0  0  0  0  0  0  0  0  0  0  0  0
  -30.7010  -17.9415   24.4980 C   0  0  0  0  0  0  0  0  0  0  0  0
  -30.8242  -16.3636   22.6726 C   0  0  0  0  0  0  0  0  0  0  0  0
  -22.3248   -8.1547   21.2075 C   0  0  0  0  0  0  0  0  0  0  0  0
  -33.6177  -23.0580   22.8508 C   0  0  0  0  0  0  0  0  0  0  0  0
  -20.2761   -7.0380   20.9278 C   0  0  0  0  0  0  0  0  0  0  0  0
  -17.6273   -7.0769   20.0533 C   0  0  0  0  0  0  0  0  0  0  0  0
  -19.8538   -6.1455   19.9426 C   0  0  0  0  0  0  0  0  0  0  0  0
  -24.6079  -11.6833   20.7239 C   0  0  0  0  0  0  0  0  0  0  0  0
  -25.2972  -13.7710   20.6862 C   0  0  0  0  0  0  0  0  0  0  0  0
  -33.1194  -21.0478   26.4265 C   0  0  0  0  0  0  0  0  0  0  0  0
  -32.2313  -21.1749   27.4196 C   0  0  0  0  0  0  0  0  0  0  0  0
  -22.9614  -13.4873   21.5300 C   0  0  0  0  0  0  0  0  0  0  0  0
  -31.7866  -25.2255   18.2234 C   0  0  0  0  0  0  0  0  0  0  0  0
  -29.9618  -22.5735   17.8239 C   0  0  0  0  0  0  0  0  0  0  0  0
  -28.9464  -19.5467   19.0299 C   0  0  0  0  0  0  0  0  0  0  0  0
  -30.7821  -14.7269   20.7579 C   0  0  0  0  0  0  0  0  0  0  0  0
  -33.5355  -29.0341   15.3091 C   0  0  0  0  0  0  0  0  0  0  0  0
  -33.4831  -23.3915   18.5617 C   0  0  0  0  0  0  0  0  0  0  0  0
  -31.0063  -22.8926   20.0983 C   0  0  0  0  0  0  0  0  0  0  0  0
  -34.3607  -21.8677   26.2613 C   0  0  0  0  0  0  0  0  0  0  0  0
  -32.3431  -28.0822   15.2618 C   0  0  0  0  0  0  0  0  0  0  0  0
  -29.5433  -12.5814   18.2007 C   0  0  0  0  0  0  0  0  0  0  0  0
  -31.6340  -28.0471   16.6119 C   0  0  0  0  0  0  0  0  0  0  0  0
  -28.1159  -12.2650   18.6529 C   0  0  0  0  0  0  0  0  0  0  0  0
  -30.5054  -12.6751   19.3836 C   0  0  0  0  0  0  0  0  0  0  0  0
  -28.6621  -13.2777   20.9030 C   0  0  0  0  0  0  0  0  0  0  0  0
  -33.9329  -20.5586   24.2855 C   0  0  0  0  0  0  0  0  0  0  0  0
  -32.5688  -27.5316   17.7127 C   0  0  1  0  0  0  0  0  0  0  0  0
  -32.1099  -23.7726   18.0174 C   0  0  1  0  0  0  0  0  0  0  0  0
  -27.6442  -13.2375   19.7516 C   0  0  2  0  0  0  0  0  0  0  0  0
  -34.4707  -21.9063   24.7451 C   0  0  1  0  0  0  0  0  0  1  0  0
  -29.8703  -18.7878   25.4059 C   0  0  0  0  0  0  0  0  0  0  0  0
  -27.7845  -17.3227   19.0588 C   0  0  0  0  0  0  0  0  0  0  0  0
  -27.5623  -24.2463   18.6923 C   0  0  0  0  0  0  0  0  0  0  0  0
  -26.2988  -22.1164   19.0602 C   0  0  0  0  0  0  0  0  0  0  0  0
  -27.1180  -22.7001   16.7775 C   0  0  0  0  0  0  0  0  0  0  0  0
  -31.2459  -18.1982   17.7444 C   0  0  0  0  0  0  0  0  0  0  0  0
  -32.7959  -18.7583   25.6359 C   0  0  0  0  0  0  0  0  0  0  0  0
  -28.7770  -21.9730   18.5413 C   0  0  1  0  0  0  0  0  0  0  0  0
  -28.8269  -18.1867   18.3663 C   0  0  2  0  0  0  0  0  0  0  0  0
  -27.4637  -22.7636   18.2812 C   0  0  0  0  0  0  0  0  0  0  0  0
  -25.8549  -11.6154   20.2501 N   0  0  0  0  0  0  0  0  0  0  0  0
  -26.2473  -12.9007   20.2387 N   0  0  0  0  0  0  0  0  0  0  0  0
  -31.0254  -23.0028   18.6303 N   0  0  0  0  0  0  0  0  0  0  0  0
  -29.9955  -13.6176   20.3819 N   0  0  0  0  0  0  0  0  0  0  0  0
  -25.5260  -15.1003   20.7409 N   0  0  0  0  0  0  0  0  0  0  0  0
  -21.9482  -12.5608   21.8114 N   0  0  0  0  0  0  0  0  0  0  0  0
  -30.1800  -15.5712   21.6902 N   0  0  0  0  0  0  0  0  0  0  0  0
  -32.6908  -26.0914   17.6387 N   0  0  0  0  0  0  0  0  0  0  0  0
  -28.7215  -20.5725   18.1364 N   0  0  0  0  0  0  0  0  0  0  0  0
  -32.8345  -20.2162   25.2887 N   0  3  1  0  0  0  0  0  0  0  0  0
  -30.1340  -17.4722   18.4103 N   0  3  0  0  0  0  0  0  0  0  0  0
  -22.7471  -14.7084   21.7211 O   0  0  0  0  0  0  0  0  0  0  0  0
  -30.7897  -25.5377   18.8641 O   0  0  0  0  0  0  0  0  0  0  0  0
  -29.9472  -22.6520   16.5930 O   0  0  0  0  0  0  0  0  0  0  0  0
  -29.2091  -19.6852   20.2226 O   0  0  0  0  0  0  0  0  0  0  0  0
  -31.8959  -14.9288   20.2672 O   0  0  0  0  0  0  0  0  0  0  0  0
  -21.5904   -7.0194   21.3636 O   0  0  0  0  0  0  0  0  0  0  0  0
  -33.6630  -22.9476   24.2064 O   0  0  0  0  0  0  0  0  0  1  0  0
  -16.3551   -7.0946   19.6346 F   0  0  0  0  0  0  0  0  0  0  0  0
  -20.7156   -5.2664   19.4132 F   0  0  0  0  0  0  0  0  0  0  0  0
  1  2  1  0  0  0  0
  1  5  2  0  0  0  0
  2  6  2  0  0  0  0
  3 10  2  0  0  0  0
  3 18  1  0  0  0  0
  4 11  1  0  0  0  0
  4 18  2  0  0  0  0
  5 20  1  0  0  0  0
  6 22  1  0  0  0  0
  7 12  2  0  0  0  0
  7 21  1  0  0  0  0
  8  9  2  0  0  0  0
  8 24  1  0  0  0  0
  9 26  1  0  0  0  0
 10 27  1  0  0  0  0
 11 27  2  0  0  0  0
 12 28  1  0  0  0  0
 13 14  2  0  0  0  0
 13 29  1  0  0  0  0
 14 30  1  0  0  0  0
 15 23  1  0  0  0  0
 15 28  2  0  0  0  0
 16 25  1  0  0  0  0
 16 26  2  0  0  0  0
 17 30  2  0  0  0  0
 17 31  1  0  0  0  0
 18 32  1  0  0  0  0
 19 32  1  0  0  0  0
 19 33  2  0  0  0  0
 19 36  1  0  0  0  0
 20 22  2  0  0  0  0
 20 41  1  0  0  0  0
 21 23  2  0  0  0  0
 21 42  1  0  0  0  0
 22 52  1  0  0  0  0
 23 43  1  0  0  0  0
 24 25  2  0  0  0  0
 24 62  1  0  0  0  0
 25 56  1  0  0  0  0
 26 72  1  0  0  0  0
 27 82  1  0  0  0  0
 28 83  1  0  0  0  0
 29 31  2  0  0  0  0
 29 82  1  0  0  0  0
 30 84  1  0  0  0  0
 31 85  1  0  0  0  0
 32 66  2  0  0  0  0
 33 67  1  0  0  0  0
 33 70  1  0  0  0  0
 34 35  2  0  0  0  0
 34 44  1  0  0  0  0
 34 75  1  0  0  0  0
 36 71  1  0  0  0  0
 36 77  2  0  0  0  0
 37 53  1  0  0  0  0
 37 73  1  0  0  0  0
 37 78  2  0  0  0  0
 38 63  1  0  0  0  0
 38 68  1  0  0  0  0
 38 79  2  0  0  0  0
 39 64  1  0  0  0  0
 39 74  1  0  0  0  0
 39 80  2  0  0  0  0
 40 69  1  0  0  0  0
 40 72  1  0  0  0  0
 40 81  2  0  0  0  0
 41 45  1  0  0  0  0
 42 53  1  0  0  0  0
 43 68  1  0  0  0  0
 44 55  1  0  0  0  0
 45 47  1  0  0  0  0
 46 48  1  0  0  0  0
 46 49  1  0  0  0  0
 47 52  1  0  0  0  0
 48 54  1  0  0  0  0
 49 69  1  0  0  0  0
 50 54  1  0  0  0  0
 50 69  1  0  0  0  0
 51 55  1  0  0  0  0
 51 75  1  0  0  0  0
 52 73  1  0  0  0  0
 53 68  1  0  0  0  0
 54 67  1  0  0  0  0
 55 83  1  0  0  0  0
 57 64  1  0  0  0  0
 58 65  1  0  0  0  0
 59 65  1  0  0  0  0
 60 65  1  0  0  0  0
 61 76  1  0  0  0  0
 62 75  1  0  0  0  0
 63 65  1  0  0  0  0
 63 74  1  0  0  0  0
 64 76  1  0  0  0  0
 66 67  1  0  0  0  0
M  CHG  2  75   1  76   1
M  ISO  4  40 100  55 101  72 100  83 101
M  END
> <Batch ID>
0030

> <Smiles>
C=C1C[101CH:1]([101O:1]c2ccc3c(c2)CN(C(=O)C(NC(=O)C(C)NC)C(C)(C)C)C(C(=O)NC2CCCc4ccccc42)C3)CN1Cc1ccc([100NH:0][100C:0](=O)N2CCCC(n3nc(-c4ccc(Oc5ccc(F)cc5F)cc4)c(C(N)=O)c3N)C2)cc1C

> <Shape>
0.215

> <Color>
0.208

> <Negative vol penalty>
0.000

$$$$

  -OEChem-04042321363D

 85 94  0     1  0  0  0  0  0999 V2000
  -26.4338  -38.1368   20.6134 C   0  0  0  0  0  0  0  0  0  0  0  0
  -26.9949  -37.0444   19.9597 C   0  0  0  0  0  0  0  0  0  0  0  0
  -24.5931   -8.8318   21.3915 C   0  0  0  0  0  0  0  0  0  0  0  0
  -23.1383  -10.6863   20.8609 C   0  0  0  0  0  0  0  0  0  0  0  0
  -25.8368  -37.9692   21.8622 C   0  0  0  0  0  0  0  0  0  0  0  0
  -26.9602  -35.7839   20.5550 C   0  0  0  0  0  0  0  0  0  0  0  0
  -26.4852  -28.8334   18.8871 C   0  0  0  0  0  0  0  0  0  0  0  0
  -23.6578   -8.3619   22.3135 C   0  0  0  0  0  0  0  0  0  0  0  0
  -22.2030  -10.2163   21.7828 C   0  0  0  0  0  0  0  0  0  0  0  0
  -27.1347  -27.6224   19.1226 C   0  0  0  0  0  0  0  0  0  0  0  0
  -20.7461   -6.6440   22.2527 C   0  0  0  0  0  0  0  0  0  0  0  0
  -20.4573   -5.2794   22.2449 C   0  0  0  0  0  0  0  0  0  0  0  0
  -26.0067  -27.4374   21.2469 C   0  0  0  0  0  0  0  0  0  0  0  0
  -27.3907  -19.7527   20.9798 C   0  0  0  0  0  0  0  0  0  0  0  0
  -21.2047   -5.1081   24.5360 C   0  0  0  0  0  0  0  0  0  0  0  0
  -24.3334   -9.9940   20.6652 C   0  0  0  0  0  0  0  0  0  0  0  0
  -25.3834  -10.1553   18.3460 C   0  0  0  0  0  0  0  0  0  0  0  0
  -25.7862  -36.7042   22.4687 C   0  0  0  0  0  0  0  0  0  0  0  0
  -25.5984  -29.3617   19.8362 C   0  0  0  0  0  0  0  0  0  0  0  0
  -26.3631  -35.5994   21.8136 C   0  0  0  0  0  0  0  0  0  0  0  0
  -25.3453  -28.6539   21.0199 C   0  0  0  0  0  0  0  0  0  0  0  0
  -26.4534  -20.3263   20.1207 C   0  0  0  0  0  0  0  0  0  0  0  0
  -25.9782  -19.6051   19.0254 C   0  0  0  0  0  0  0  0  0  0  0  0
  -27.3776  -17.7368   19.6483 C   0  0  0  0  0  0  0  0  0  0  0  0
  -22.4627   -9.0541   22.5091 C   0  0  0  0  0  0  0  0  0  0  0  0
  -26.8977  -26.9256   20.3039 C   0  0  0  0  0  0  0  0  0  0  0  0
  -21.2643   -7.2407   23.4021 C   0  0  0  0  0  0  0  0  0  0  0  0
  -20.6866   -4.5114   23.3865 C   0  0  0  0  0  0  0  0  0  0  0  0
  -21.4935   -6.4727   24.5437 C   0  0  0  0  0  0  0  0  0  0  0  0
  -27.8528  -18.4580   20.7436 C   0  0  0  0  0  0  0  0  0  0  0  0
  -26.4403  -18.3103   18.7892 C   0  0  0  0  0  0  0  0  0  0  0  0
  -25.2994  -10.4803   19.7131 C   0  0  0  0  0  0  0  0  0  0  0  0
  -26.4622  -10.8718   17.8885 C   0  0  0  0  0  0  0  0  0  0  0  0
  -24.5600   -9.2837   17.5599 C   0  0  0  0  0  0  0  0  0  0  0  0
  -25.5053  -32.0125   21.5879 C   0  0  0  0  0  0  0  0  0  0  0  0
  -22.5795  -30.8903   22.4261 C   0  0  0  0  0  0  0  0  0  0  0  0
  -20.4921  -28.2119   22.7662 C   0  0  0  0  0  0  0  0  0  0  0  0
  -29.1025  -15.9030   19.7381 C   0  0  0  0  0  0  0  0  0  0  0  0
  -25.1722  -36.5810   23.8407 C   0  0  0  0  0  0  0  0  0  0  0  0
  -24.8853  -30.6560   19.5553 C   0  0  0  0  0  0  0  0  0  0  0  0
  -24.3868  -29.1681   22.0618 C   0  0  0  0  0  0  0  0  0  0  0  0
  -24.8450  -35.1430   24.2348 C   0  0  0  0  0  0  0  0  0  0  0  0
  -30.6325  -12.7104   19.3591 C   0  0  0  0  0  0  0  0  0  0  0  0
  -26.0197  -34.2225   23.9188 C   0  0  0  0  0  0  0  0  0  0  0  0
  -29.4460  -11.7473   19.2763 C   0  0  0  0  0  0  0  0  0  0  0  0
  -30.3693  -13.8516   20.3400 C   0  0  0  0  0  0  0  0  0  0  0  0
  -27.9357  -13.6291   20.0278 C   0  0  0  0  0  0  0  0  0  0  0  0
  -25.9006  -24.0401   19.6217 C   0  0  0  0  0  0  0  0  0  0  0  0
  -27.8113  -23.2903   20.0080 C   0  0  0  0  0  0  0  0  0  0  0  0
  -26.3233  -34.2117   22.4158 C   0  0  1  0  0  0  0  0  0  0  0  0
  -24.3943  -31.3543   20.8196 C   0  0  1  0  0  0  0  0  0  0  0  0
  -28.1282  -12.4987   19.0037 C   0  0  2  0  0  0  0  0  0  0  0  0
  -27.2992  -24.6818   19.5970 C   0  0  0  0  0  0  0  0  0  1  0  0
  -24.9729  -20.2423   18.1162 C   0  0  0  0  0  0  0  0  0  0  0  0
  -18.1743  -27.6028   23.5104 C   0  0  0  0  0  0  0  0  0  0  0  0
  -23.4418  -31.1778   25.3387 C   0  0  0  0  0  0  0  0  0  0  0  0
  -21.5227  -29.7033   25.9798 C   0  0  0  0  0  0  0  0  0  0  0  0
  -21.0924  -31.8958   24.8706 C   0  0  0  0  0  0  0  0  0  0  0  0
  -19.7781  -27.1782   20.0865 C   0  0  0  0  0  0  0  0  0  0  0  0
  -25.9747  -21.7208   20.3982 C   0  0  0  0  0  0  0  0  0  0  0  0
  -22.0522  -29.9889   23.5162 C   0  0  1  0  0  0  0  0  0  0  0  0
  -19.0535  -27.9946   22.3331 C   0  0  2  0  0  0  0  0  0  0  0  0
  -22.0469  -30.6825   24.9078 C   0  0  0  0  0  0  0  0  0  0  0  0
  -26.2492  -11.3365   20.0990 N   0  0  0  0  0  0  0  0  0  0  0  0
  -26.9403  -11.5555   18.9674 N   0  0  0  0  0  0  0  0  0  0  0  0
  -23.7189  -30.4410   21.7438 N   0  0  0  0  0  0  0  0  0  0  0  0
  -29.1067  -14.5199   20.0174 N   0  0  0  0  0  0  0  0  0  0  0  0
  -27.0391  -10.9773   16.6725 N   0  0  0  0  0  0  0  0  0  0  0  0
  -23.4936   -8.6259   18.1878 N   0  0  0  0  0  0  0  0  0  0  0  0
  -27.8496  -16.4217   19.4128 N   0  0  0  0  0  0  0  0  0  0  0  0
  -25.3682  -33.3818   21.7132 N   0  0  0  0  0  0  0  0  0  0  0  0
  -20.7398  -29.5338   23.0704 N   0  0  0  0  0  0  0  0  0  0  0  0
  -26.5548  -22.7261   19.4811 N   0  3  0  0  0  0  0  0  0  0  0  0
  -18.9782  -26.9136   21.3100 N   0  3  0  0  0  0  0  0  0  0  0  0
  -24.7738   -9.0813   16.3405 O   0  0  0  0  0  0  0  0  0  0  0  0
  -26.4184  -31.3285   22.0351 O   0  0  0  0  0  0  0  0  0  0  0  0
  -21.9974  -31.9506   22.1838 O   0  0  0  0  0  0  0  0  0  0  0  0
  -21.3130  -27.2995   22.8318 O   0  0  0  0  0  0  0  0  0  0  0  0
  -30.1388  -16.5721   19.7576 O   0  0  0  0  0  0  0  0  0  0  0  0
  -21.5498   -8.5957   23.4085 O   0  0  0  0  0  0  0  0  0  0  0  0
  -27.5309  -25.7437   20.5365 O   0  0  0  0  0  0  0  0  0  1  0  0
  -20.4077   -3.2013   23.3794 F   0  0  0  0  0  0  0  0  0  0  0  0
  -21.9901   -7.0406   25.6514 F   0  0  0  0  0  0  0  0  0  0  0  0
  -29.0141  -17.7916   21.8368 Cl  0  0  0  0  0  0  0  0  0  0  0  0
  -25.8440  -17.4200   17.4239 Cl  0  0  0  0  0  0  0  0  0  0  0  0
  1  2  1  0  0  0  0
  1  5  2  0  0  0  0
  2  6  2  0  0  0  0
  3  8  2  0  0  0  0
  3 16  1  0  0  0  0
  4  9  1  0  0  0  0
  4 16  2  0  0  0  0
  5 18  1  0  0  0  0
  6 20  1  0  0  0  0
  7 10  2  0  0  0  0
  7 19  1  0  0  0  0
  8 25  1  0  0  0  0
  9 25  2  0  0  0  0
 10 26  1  0  0  0  0
 11 12  2  0  0  0  0
 11 27  1  0  0  0  0
 12 28  1  0  0  0  0
 13 21  1  0  0  0  0
 13 26  2  0  0  0  0
 14 22  1  0  0  0  0
 14 30  2  0  0  0  0
 15 28  2  0  0  0  0
 15 29  1  0  0  0  0
 16 32  1  0  0  0  0
 17 32  1  0  0  0  0
 17 33  2  0  0  0  0
 17 34  1  0  0  0  0
 18 20  2  0  0  0  0
 18 39  1  0  0  0  0
 19 21  2  0  0  0  0
 19 40  1  0  0  0  0
 20 50  1  0  0  0  0
 21 41  1  0  0  0  0
 22 23  2  0  0  0  0
 22 60  1  0  0  0  0
 23 31  1  0  0  0  0
 23 54  1  0  0  0  0
 24 30  1  0  0  0  0
 24 31  2  0  0  0  0
 24 70  1  0  0  0  0
 25 80  1  0  0  0  0
 26 81  1  0  0  0  0
 27 29  2  0  0  0  0
 27 80  1  0  0  0  0
 28 82  1  0  0  0  0
 29 83  1  0  0  0  0
 30 84  1  0  0  0  0
 31 85  1  0  0  0  0
 32 64  2  0  0  0  0
 33 65  1  0  0  0  0
 33 68  1  0  0  0  0
 34 69  1  0  0  0  0
 34 75  2  0  0  0  0
 35 51  1  0  0  0  0
 35 71  1  0  0  0  0
 35 76  2  0  0  0  0
 36 61  1  0  0  0  0
 36 66  1  0  0  0  0
 36 77  2  0  0  0  0
 37 62  1  0  0  0  0
 37 72  1  0  0  0  0
 37 78  2  0  0  0  0
 38 67  1  0  0  0  0
 38 70  1  0  0  0  0
 38 79  2  0  0  0  0
 39 42  1  0  0  0  0
 40 51  1  0  0  0  0
 41 66  1  0  0  0  0
 42 44  1  0  0  0  0
 43 45  1  0  0  0  0
 43 46  1  0  0  0  0
 44 50  1  0  0  0  0
 45 52  1  0  0  0  0
 46 67  1  0  0  0  0
 47 52  1  0  0  0  0
 47 67  1  0  0  0  0
 48 53  1  0  0  0  0
 48 73  1  0  0  0  0
 49 53  1  0  0  0  0
 49 73  1  0  0  0  0
 50 71  1  0  0  0  0
 51 66  1  0  0  0  0
 52 65  1  0  0  0  0
 53 81  1  0  0  0  0
 55 62  1  0  0  0  0
 56 63  1  0  0  0  0
 57 63  1  0  0  0  0
 58 63  1  0  0  0  0
 59 74  1  0  0  0  0
 60 73  1  0  0  0  0
 61 63  1  0  0  0  0
 61 72  1  0  0  0  0
 62 74  1  0  0  0  0
 64 65  1  0  0  0  0
M  CHG  2  73   1  74   1
M  ISO  4  38 100  53 101  70 100  81 101
M  END
> <Batch ID>
0030

> <Smiles>
CNC(C)C(=O)NC(C(=O)N1Cc2cc([101O:1][101CH:1]3CN(Cc4cc(Cl)c([100NH:0][100C:0](=O)N5CCCC(n6nc(-c7ccc(Oc8ccc(F)cc8F)cc7)c(C(N)=O)c6N)C5)c(Cl)c4C)C3)ccc2CC1C(=O)NC1CCCc2ccccc21)C(C)(C)C

> <Shape>
0.304

> <Color>
0.102

> <Negative vol penalty>
0.000

$$$$

  -OEChem-04042321363D

 86 95  0     1  0  0  0  0  0999 V2000
  -23.3670  -38.1510   20.3440 C   0  0  0  0  0  0  0  0  0  0  0  0
  -24.0059  -37.1682   19.5948 C   0  0  0  0  0  0  0  0  0  0  0  0
  -26.5398  -12.6284   21.6380 C   0  0  0  0  0  0  0  0  0  0  0  0
  -26.0784  -13.6742   19.5095 C   0  0  0  0  0  0  0  0  0  0  0  0
  -23.3313  -38.0531   21.7343 C   0  0  0  0  0  0  0  0  0  0  0  0
  -24.6105  -36.0874   20.2357 C   0  0  0  0  0  0  0  0  0  0  0  0
  -24.9626  -30.3242   18.1944 C   0  0  0  0  0  0  0  0  0  0  0  0
  -25.2693  -12.0529   21.6306 C   0  0  0  0  0  0  0  0  0  0  0  0
  -24.8079  -13.0986   19.5021 C   0  0  0  0  0  0  0  0  0  0  0  0
  -25.9752  -29.6193   17.5451 C   0  0  0  0  0  0  0  0  0  0  0  0
  -23.7349   -9.4219   20.1621 C   0  0  0  0  0  0  0  0  0  0  0  0
  -23.6310   -8.0759   20.5128 C   0  0  0  0  0  0  0  0  0  0  0  0
  -26.6996  -28.7207   19.6634 C   0  0  0  0  0  0  0  0  0  0  0  0
  -28.8346  -22.4470   16.9351 C   0  0  0  0  0  0  0  0  0  0  0  0
  -30.7809  -22.2755   18.9264 C   0  0  0  0  0  0  0  0  0  0  0  0
  -22.1769   -8.6669   22.3496 C   0  0  0  0  0  0  0  0  0  0  0  0
  -26.9444  -13.4391   20.5774 C   0  0  0  0  0  0  0  0  0  0  0  0
  -29.4416  -13.4864   20.0584 C   0  0  0  0  0  0  0  0  0  0  0  0
  -23.9273  -36.9656   22.3920 C   0  0  0  0  0  0  0  0  0  0  0  0
  -24.8175  -30.2411   19.5867 C   0  0  0  0  0  0  0  0  0  0  0  0
  -24.5839  -35.9755   21.6363 C   0  0  0  0  0  0  0  0  0  0  0  0
  -25.6828  -29.4236   20.3276 C   0  0  0  0  0  0  0  0  0  0  0  0
  -28.7811  -21.4186   17.8758 C   0  0  0  0  0  0  0  0  0  0  0  0
  -29.8613  -23.3897   16.9900 C   0  0  0  0  0  0  0  0  0  0  0  0
  -29.7542  -21.3328   18.8715 C   0  0  0  0  0  0  0  0  0  0  0  0
  -24.4033  -12.2879   20.5627 C   0  0  0  0  0  0  0  0  0  0  0  0
  -26.8457  -28.8197   18.2800 C   0  0  0  0  0  0  0  0  0  0  0  0
  -23.0599  -10.3904   20.9051 C   0  0  0  0  0  0  0  0  0  0  0  0
  -22.8520   -7.6984   21.6066 C   0  0  0  0  0  0  0  0  0  0  0  0
  -30.8344  -23.3040   17.9857 C   0  0  0  0  0  0  0  0  0  0  0  0
  -22.2809  -10.0129   21.9988 C   0  0  0  0  0  0  0  0  0  0  0  0
  -28.2565  -14.0344   20.5847 C   0  0  0  0  0  0  0  0  0  0  0  0
  -30.4018  -14.4343   20.3151 C   0  0  0  0  0  0  0  0  0  0  0  0
  -29.5041  -26.8640   15.5410 C   0  0  0  0  0  0  0  0  0  0  0  0
  -30.6606  -27.3043   15.0313 C   0  0  0  0  0  0  0  0  0  0  0  0
  -29.6553  -12.2326   19.3966 C   0  0  0  0  0  0  0  0  0  0  0  0
  -24.9802  -32.3186   21.9869 C   0  0  0  0  0  0  0  0  0  0  0  0
  -23.9945  -29.7747   23.7415 C   0  0  0  0  0  0  0  0  0  0  0  0
  -23.7828  -26.3836   24.0621 C   0  0  0  0  0  0  0  0  0  0  0  0
  -30.1808  -20.3469   21.1502 C   0  0  0  0  0  0  0  0  0  0  0  0
  -23.9040  -36.9274   23.8996 C   0  0  0  0  0  0  0  0  0  0  0  0
  -23.7034  -30.9866   20.2688 C   0  0  0  0  0  0  0  0  0  0  0  0
  -25.5567  -29.2844   21.8220 C   0  0  0  0  0  0  0  0  0  0  0  0
  -28.1651  -27.4995   15.3319 C   0  0  0  0  0  0  0  0  0  0  0  0
  -24.2441  -35.5569   24.4795 C   0  0  0  0  0  0  0  0  0  0  0  0
  -31.4856  -17.9245   23.4100 C   0  0  0  0  0  0  0  0  0  0  0  0
  -25.4772  -34.9780   23.7932 C   0  0  0  0  0  0  0  0  0  0  0  0
  -30.9184  -16.6014   22.8904 C   0  0  0  0  0  0  0  0  0  0  0  0
  -30.4847  -19.0687   23.2594 C   0  0  0  0  0  0  0  0  0  0  0  0
  -29.3698  -17.9177   21.3882 C   0  0  0  0  0  0  0  0  0  0  0  0
  -28.0512  -25.8122   17.0469 C   0  0  0  0  0  0  0  0  0  0  0  0
  -25.2298  -34.7752   22.2935 C   0  0  1  0  0  0  0  0  0  0  0  0
  -23.9688  -31.2327   21.7508 C   0  0  1  0  0  0  0  0  0  0  0  0
  -30.3657  -16.7485   21.4591 C   0  0  2  0  0  0  0  0  0  0  0  0
  -27.4905  -27.1719   16.6549 C   0  0  1  0  0  0  0  0  0  1  0  0
  -27.6700  -20.4225   17.7931 C   0  0  0  0  0  0  0  0  0  0  0  0
  -22.9563  -24.6002   25.6222 C   0  0  0  0  0  0  0  0  0  0  0  0
  -26.3910  -30.2633   25.5658 C   0  0  0  0  0  0  0  0  0  0  0  0
  -26.0652  -27.9612   26.4943 C   0  0  0  0  0  0  0  0  0  0  0  0
  -24.2734  -29.6763   26.7599 C   0  0  0  0  0  0  0  0  0  0  0  0
  -21.9018  -25.3225   22.0386 C   0  0  0  0  0  0  0  0  0  0  0  0
  -29.9161  -24.4950   15.9769 C   0  0  0  0  0  0  0  0  0  0  0  0
  -24.6848  -28.6559   24.4836 C   0  0  1  0  0  0  0  0  0  0  0  0
  -22.6209  -25.4768   24.4256 C   0  0  2  0  0  0  0  0  0  0  0  0
  -25.3574  -29.1431   25.7980 C   0  0  0  0  0  0  0  0  0  0  0  0
  -28.4443  -15.2372   21.1344 N   0  0  0  0  0  0  0  0  0  0  0  0
  -29.7586  -15.4527   20.9549 N   0  0  0  0  0  0  0  0  0  0  0  0
  -24.4555  -30.0381   22.4439 N   0  0  0  0  0  0  0  0  0  0  0  0
  -30.0077  -19.1501   21.8771 N   0  0  0  0  0  0  0  0  0  0  0  0
  -31.7252  -14.4877   20.0536 N   0  0  0  0  0  0  0  0  0  0  0  0
  -28.5596  -11.3777   19.2149 N   0  0  0  0  0  0  0  0  0  0  0  0
  -29.7174  -20.2954   19.8359 N   0  0  0  0  0  0  0  0  0  0  0  0
  -24.4360  -33.5862   22.0685 N   0  0  0  0  0  0  0  0  0  0  0  0
  -23.6819  -27.6140   24.6763 N   0  0  0  0  0  0  0  0  0  0  0  0
  -29.4876  -25.8208   16.5303 N   0  3  1  0  0  0  0  0  0  0  0  0
  -22.2753  -24.5921   23.2771 N   0  3  0  0  0  0  0  0  0  0  0  0
  -30.7876  -11.8736   18.9934 O   0  0  0  0  0  0  0  0  0  0  0  0
  -26.1662  -32.0279   22.0889 O   0  0  0  0  0  0  0  0  0  0  0  0
  -23.0752  -30.3874   24.2902 O   0  0  0  0  0  0  0  0  0  0  0  0
  -24.6911  -26.0340   23.3116 O   0  0  0  0  0  0  0  0  0  0  0  0
  -30.7264  -21.3352   21.6477 O   0  0  0  0  0  0  0  0  0  0  0  0
  -23.1635  -11.7263   20.5550 O   0  0  0  0  0  0  0  0  0  0  0  0
  -27.8354  -28.1311   17.6488 O   0  0  0  0  0  0  0  0  0  1  0  0
  -22.7510   -6.4056   21.9424 F   0  0  0  0  0  0  0  0  0  0  0  0
  -31.8247  -24.2051   18.0463 F   0  0  0  0  0  0  0  0  0  0  0  0
  -21.6292  -10.9387   22.7156 F   0  0  0  0  0  0  0  0  0  0  0  0
  1  2  1  0  0  0  0
  1  5  2  0  0  0  0
  2  6  2  0  0  0  0
  3  8  2  0  0  0  0
  3 17  1  0  0  0  0
  4  9  1  0  0  0  0
  4 17  2  0  0  0  0
  5 19  1  0  0  0  0
  6 21  1  0  0  0  0
  7 10  2  0  0  0  0
  7 20  1  0  0  0  0
  8 26  1  0  0  0  0
  9 26  2  0  0  0  0
 10 27  1  0  0  0  0
 11 12  2  0  0  0  0
 11 28  1  0  0  0  0
 12 29  1  0  0  0  0
 13 22  1  0  0  0  0
 13 27  2  0  0  0  0
 14 23  2  0  0  0  0
 14 24  1  0  0  0  0
 15 25  2  0  0  0  0
 15 30  1  0  0  0  0
 16 29  2  0  0  0  0
 16 31  1  0  0  0  0
 17 32  1  0  0  0  0
 18 32  1  0  0  0  0
 18 33  2  0  0  0  0
 18 36  1  0  0  0  0
 19 21  2  0  0  0  0
 19 41  1  0  0  0  0
 20 22  2  0  0  0  0
 20 42  1  0  0  0  0
 21 52  1  0  0  0  0
 22 43  1  0  0  0  0
 23 25  1  0  0  0  0
 23 56  1  0  0  0  0
 24 30  2  0  0  0  0
 24 62  1  0  0  0  0
 25 72  1  0  0  0  0
 26 82  1  0  0  0  0
 27 83  1  0  0  0  0
 28 31  2  0  0  0  0
 28 82  1  0  0  0  0
 29 84  1  0  0  0  0
 30 85  1  0  0  0  0
 31 86  1  0  0  0  0
 32 66  2  0  0  0  0
 33 67  1  0  0  0  0
 33 70  1  0  0  0  0
 34 35  2  0  0  0  0
 34 44  1  0  0  0  0
 34 75  1  0  0  0  0
 36 71  1  0  0  0  0
 36 77  2  0  0  0  0
 37 53  1  0  0  0  0
 37 73  1  0  0  0  0
 37 78  2  0  0  0  0
 38 63  1  0  0  0  0
 38 68  1  0  0  0  0
 38 79  2  0  0  0  0
 39 64  1  0  0  0  0
 39 74  1  0  0  0  0
 39 80  2  0  0  0  0
 40 69  1  0  0  0  0
 40 72  1  0  0  0  0
 40 81  2  0  0  0  0
 41 45  1  0  0  0  0
 42 53  1  0  0  0  0
 43 68  1  0  0  0  0
 44 55  1  0  0  0  0
 45 47  1  0  0  0  0
 46 48  1  0  0  0  0
 46 49  1  0  0  0  0
 47 52  1  0  0  0  0
 48 54  1  0  0  0  0
 49 69  1  0  0  0  0
 50 54  1  0  0  0  0
 50 69  1  0  0  0  0
 51 55  1  0  0  0  0
 51 75  1  0  0  0  0
 52 73  1  0  0  0  0
 53 68  1  0  0  0  0
 54 67  1  0  0  0  0
 55 83  1  0  0  0  0
 57 64  1  0  0  0  0
 58 65  1  0  0  0  0
 59 65  1  0  0  0  0
 60 65  1  0  0  0  0
 61 76  1  0  0  0  0
 62 75  1  0  0  0  0
 63 65  1  0  0  0  0
 63 74  1  0  0  0  0
 64 76  1  0  0  0  0
 66 67  1  0  0  0  0
M  CHG  2  75   1  76   1
M  ISO  4  40 100  55 101  72 100  83 101
M  END
> <Batch ID>
0030

> <Smiles>
C=C1C[101CH:1]([101O:1]c2ccc3c(c2)CN(C(=O)C(NC(=O)C(C)NC)C(C)(C)C)C(C(=O)NC2CCCc4ccccc42)C3)CN1Cc1cc(C)c([100NH:0][100C:0](=O)N2CCCC(n3nc(-c4ccc(Oc5ccc(F)cc5F)cc4)c(C(N)=O)c3N)C2)cc1F

> <Shape>
0.283

> <Color>
0.071

> <Negative vol penalty>
0.000

$$$$

  -OEChem-04042321363D

 85 94  0     1  0  0  0  0  0999 V2000
  -29.0847  -35.3995   24.8921 C   0  0  0  0  0  0  0  0  0  0  0  0
  -29.2873  -34.1548   24.3047 C   0  0  0  0  0  0  0  0  0  0  0  0
  -24.3034   -9.5246   21.9510 C   0  0  0  0  0  0  0  0  0  0  0  0
  -22.9022  -10.2487   20.1210 C   0  0  0  0  0  0  0  0  0  0  0  0
  -27.8496  -35.7079   25.4608 C   0  0  0  0  0  0  0  0  0  0  0  0
  -28.2553  -33.2173   24.2867 C   0  0  0  0  0  0  0  0  0  0  0  0
  -27.0572  -29.1455   19.8719 C   0  0  0  0  0  0  0  0  0  0  0  0
  -23.4627   -8.4319   22.1625 C   0  0  0  0  0  0  0  0  0  0  0  0
  -22.0614   -9.1560   20.3323 C   0  0  0  0  0  0  0  0  0  0  0  0
  -27.3613  -27.7915   19.7369 C   0  0  0  0  0  0  0  0  0  0  0  0
  -22.9300   -5.3940   20.7768 C   0  0  0  0  0  0  0  0  0  0  0  0
  -23.5243   -4.1485   20.9798 C   0  0  0  0  0  0  0  0  0  0  0  0
  -25.1826  -27.2222   20.6020 C   0  0  0  0  0  0  0  0  0  0  0  0
  -25.7580  -20.2808   18.0858 C   0  0  0  0  0  0  0  0  0  0  0  0
  -22.4807   -4.0051   23.1541 C   0  0  0  0  0  0  0  0  0  0  0  0
  -24.0232  -10.4331   20.9303 C   0  0  0  0  0  0  0  0  0  0  0  0
  -26.0182  -11.6179   19.8704 C   0  0  0  0  0  0  0  0  0  0  0  0
  -26.7988  -34.7772   25.4412 C   0  0  0  0  0  0  0  0  0  0  0  0
  -25.8155  -29.5485   20.3840 C   0  0  0  0  0  0  0  0  0  0  0  0
  -27.0054  -33.5130   24.8569 C   0  0  0  0  0  0  0  0  0  0  0  0
  -24.8643  -28.5818   20.7401 C   0  0  0  0  0  0  0  0  0  0  0  0
  -25.8205  -21.1546   17.0004 C   0  0  0  0  0  0  0  0  0  0  0  0
  -26.3595  -20.7236   15.7882 C   0  0  0  0  0  0  0  0  0  0  0  0
  -26.8361  -19.4188   15.6615 C   0  0  0  0  0  0  0  0  0  0  0  0
  -26.7736  -18.5450   16.7470 C   0  0  0  0  0  0  0  0  0  0  0  0
  -26.2346  -18.9760   17.9591 C   0  0  0  0  0  0  0  0  0  0  0  0
  -22.3417   -8.2476   21.3531 C   0  0  0  0  0  0  0  0  0  0  0  0
  -26.4250  -26.8296   20.1047 C   0  0  0  0  0  0  0  0  0  0  0  0
  -22.1111   -5.9451   21.7624 C   0  0  0  0  0  0  0  0  0  0  0  0
  -23.2997   -3.4541   22.1685 C   0  0  0  0  0  0  0  0  0  0  0  0
  -21.8865   -5.2506   22.9511 C   0  0  0  0  0  0  0  0  0  0  0  0
  -24.8910  -11.5624   20.7118 C   0  0  0  0  0  0  0  0  0  0  0  0
  -26.4912  -12.8994   20.0142 C   0  0  0  0  0  0  0  0  0  0  0  0
  -26.5869  -10.6021   19.0336 C   0  0  0  0  0  0  0  0  0  0  0  0
  -24.8676  -31.1923   22.9341 C   0  0  0  0  0  0  0  0  0  0  0  0
  -21.9527  -30.9313   21.5349 C   0  0  0  0  0  0  0  0  0  0  0  0
  -19.9076  -29.2317   19.3958 C   0  0  0  0  0  0  0  0  0  0  0  0
  -25.6503  -18.3939   20.3395 C   0  0  0  0  0  0  0  0  0  0  0  0
  -25.4965  -35.1385   26.1105 C   0  0  0  0  0  0  0  0  0  0  0  0
  -25.4928  -31.0131   20.4984 C   0  0  0  0  0  0  0  0  0  0  0  0
  -23.5092  -28.9625   21.2761 C   0  0  0  0  0  0  0  0  0  0  0  0
  -24.3364  -34.2273   25.7177 C   0  0  0  0  0  0  0  0  0  0  0  0
  -25.2562  -16.5129   23.3367 C   0  0  0  0  0  0  0  0  0  0  0  0
  -24.7623  -32.7639   25.7804 C   0  0  0  0  0  0  0  0  0  0  0  0
  -25.2188  -15.0618   22.8518 C   0  0  0  0  0  0  0  0  0  0  0  0
  -24.5527  -17.4551   22.3615 C   0  0  0  0  0  0  0  0  0  0  0  0
  -24.9772  -15.9158   20.4855 C   0  0  0  0  0  0  0  0  0  0  0  0
  -25.8625  -24.8800   17.6792 C   0  0  0  0  0  0  0  0  0  0  0  0
  -27.1025  -23.4496   18.5618 C   0  0  0  0  0  0  0  0  0  0  0  0
  -25.9026  -32.4785   24.7957 C   0  0  1  0  0  0  0  0  0  0  0  0
  -24.3919  -31.3049   21.5133 C   0  0  1  0  0  0  0  0  0  0  0  0
  -25.7300  -14.9385   21.4030 C   0  0  2  0  0  0  0  0  0  0  0  0
  -27.0321  -24.9826   18.6743 C   0  0  0  0  0  0  0  0  0  1  0  0
  -26.4262  -21.6639   14.6264 C   0  0  0  0  0  0  0  0  0  0  0  0
  -27.4144  -18.9572   14.3609 C   0  0  0  0  0  0  0  0  0  0  0  0
  -27.2872  -17.1458   16.6090 C   0  0  0  0  0  0  0  0  0  0  0  0
  -17.5685  -29.2347   18.4871 C   0  0  0  0  0  0  0  0  0  0  0  0
  -20.9311  -29.7762   24.1678 C   0  0  0  0  0  0  0  0  0  0  0  0
  -18.9181  -28.9370   22.9381 C   0  0  0  0  0  0  0  0  0  0  0  0
  -19.3712  -31.3870   23.0602 C   0  0  0  0  0  0  0  0  0  0  0  0
  -20.8625  -29.6070   16.6198 C   0  0  0  0  0  0  0  0  0  0  0  0
  -25.3045  -22.5539   17.1641 C   0  0  0  0  0  0  0  0  0  0  0  0
  -20.8250  -29.9293   21.5926 C   0  0  1  0  0  0  0  0  0  0  0  0
  -18.9979  -29.7099   18.2785 C   0  0  2  0  0  0  0  0  0  0  0  0
  -20.0375  -29.9998   22.9314 C   0  0  0  0  0  0  0  0  0  0  0  0
  -24.6616  -12.7167   21.3435 N   0  0  0  0  0  0  0  0  0  0  0  0
  -25.6514  -13.5096   20.8988 N   0  0  0  0  0  0  0  0  0  0  0  0
  -23.2433  -30.4072   21.3752 N   0  0  0  0  0  0  0  0  0  0  0  0
  -25.0917  -17.2855   21.0104 N   0  0  0  0  0  0  0  0  0  0  0  0
  -27.5394  -13.5524   19.4691 N   0  0  0  0  0  0  0  0  0  0  0  0
  -25.9755   -9.3413   19.0038 N   0  0  0  0  0  0  0  0  0  0  0  0
  -26.1604  -18.1049   19.0743 N   0  0  0  0  0  0  0  0  0  0  0  0
  -25.3894  -32.3644   23.4473 N   0  0  0  0  0  0  0  0  0  0  0  0
  -20.0090  -30.1643   20.4063 N   0  0  0  0  0  0  0  0  0  0  0  0
  -26.3831  -23.5597   17.2792 N   0  3  0  0  0  0  0  0  0  0  0  0
  -19.4772  -29.1957   16.9644 N   0  3  0  0  0  0  0  0  0  0  0  0
  -27.6167  -10.8014   18.3455 O   0  0  0  0  0  0  0  0  0  0  0  0
  -24.7673  -30.1217   23.5218 O   0  0  0  0  0  0  0  0  0  0  0  0
  -21.6972  -32.1350   21.6210 O   0  0  0  0  0  0  0  0  0  0  0  0
  -20.4689  -28.1385   19.3759 O   0  0  0  0  0  0  0  0  0  0  0  0
  -25.6990  -19.5110   20.8608 O   0  0  0  0  0  0  0  0  0  0  0  0
  -21.5212   -7.1813   21.5590 O   0  0  0  0  0  0  0  0  0  0  0  0
  -26.7195  -25.5074   19.9746 O   0  0  0  0  0  0  0  0  0  1  0  0
  -23.8692   -2.2574   22.3627 F   0  0  0  0  0  0  0  0  0  0  0  0
  -21.0998   -5.7744   23.9011 F   0  0  0  0  0  0  0  0  0  0  0  0
  1  2  1  0  0  0  0
  1  5  2  0  0  0  0
  2  6  2  0  0  0  0
  3  8  2  0  0  0  0
  3 16  1  0  0  0  0
  4  9  1  0  0  0  0
  4 16  2  0  0  0  0
  5 18  1  0  0  0  0
  6 20  1  0  0  0  0
  7 10  2  0  0  0  0
  7 19  1  0  0  0  0
  8 27  1  0  0  0  0
  9 27  2  0  0  0  0
 10 28  1  0  0  0  0
 11 12  2  0  0  0  0
 11 29  1  0  0  0  0
 12 30  1  0  0  0  0
 13 21  1  0  0  0  0
 13 28  2  0  0  0  0
 14 22  1  0  0  0  0
 14 26  2  0  0  0  0
 15 30  2  0  0  0  0
 15 31  1  0  0  0  0
 16 32  1  0  0  0  0
 17 32  1  0  0  0  0
 17 33  2  0  0  0  0
 17 34  1  0  0  0  0
 18 20  2  0  0  0  0
 18 39  1  0  0  0  0
 19 21  2  0  0  0  0
 19 40  1  0  0  0  0
 20 50  1  0  0  0  0
 21 41  1  0  0  0  0
 22 23  2  0  0  0  0
 22 62  1  0  0  0  0
 23 24  1  0  0  0  0
 23 54  1  0  0  0  0
 24 25  2  0  0  0  0
 24 55  1  0  0  0  0
 25 26  1  0  0  0  0
 25 56  1  0  0  0  0
 26 72  1  0  0  0  0
 27 82  1  0  0  0  0
 28 83  1  0  0  0  0
 29 31  2  0  0  0  0
 29 82  1  0  0  0  0
 30 84  1  0  0  0  0
 31 85  1  0  0  0  0
 32 66  2  0  0  0  0
 33 67  1  0  0  0  0
 33 70  1  0  0  0  0
 34 71  1  0  0  0  0
 34 77  2  0  0  0  0
 35 51  1  0  0  0  0
 35 73  1  0  0  0  0
 35 78  2  0  0  0  0
 36 63  1  0  0  0  0
 36 68  1  0  0  0  0
 36 79  2  0  0  0  0
 37 64  1  0  0  0  0
 37 74  1  0  0  0  0
 37 80  2  0  0  0  0
 38 69  1  0  0  0  0
 38 72  1  0  0  0  0
 38 81  2  0  0  0  0
 39 42  1  0  0  0  0
 40 51  1  0  0  0  0
 41 68  1  0  0  0  0
 42 44  1  0  0  0  0
 43 45  1  0  0  0  0
 43 46  1  0  0  0  0
 44 50  1  0  0  0  0
 45 52  1  0  0  0  0
 46 69  1  0  0  0  0
 47 52  1  0  0  0  0
 47 69  1  0  0  0  0
 48 53  1  0  0  0  0
 48 75  1  0  0  0  0
 49 53  1  0  0  0  0
 49 75  1  0  0  0  0
 50 73  1  0  0  0  0
 51 68  1  0  0  0  0
 52 67  1  0  0  0  0
 53 83  1  0  0  0  0
 57 64  1  0  0  0  0
 58 65  1  0  0  0  0
 59 65  1  0  0  0  0
 60 65  1  0  0  0  0
 61 76  1  0  0  0  0
 62 75  1  0  0  0  0
 63 65  1  0  0  0  0
 63 74  1  0  0  0  0
 64 76  1  0  0  0  0
 66 67  1  0  0  0  0
M  CHG  2  75   1  76   1
M  ISO  4  38 100  53 101  72 100  83 101
M  END
> <Batch ID>
0030

> <Smiles>
CNC(C)C(=O)NC(C(=O)N1Cc2cc([101O:1][101CH:1]3CN(Cc4cc([100NH:0][100C:0](=O)N5CCCC(n6nc(-c7ccc(Oc8ccc(F)cc8F)cc7)c(C(N)=O)c6N)C5)c(C)c(C)c4C)C3)ccc2CC1C(=O)NC1CCCc2ccccc21)C(C)(C)C

> <Shape>
0.257

> <Color>
0.093

> <Negative vol penalty>
0.000

$$$$

  -OEChem-04042321363D

 87 96  0     1  0  0  0  0  0999 V2000
  -23.8643  -33.5979   27.5986 C   0  0  0  0  0  0  0  0  0  0  0  0
  -24.8279  -32.9208   26.8580 C   0  0  0  0  0  0  0  0  0  0  0  0
  -23.2492  -10.1877   22.3124 C   0  0  0  0  0  0  0  0  0  0  0  0
  -22.4128  -10.3441   20.0512 C   0  0  0  0  0  0  0  0  0  0  0  0
  -22.5515  -33.1291   27.6265 C   0  0  0  0  0  0  0  0  0  0  0  0
  -24.4794  -31.7738   26.1457 C   0  0  0  0  0  0  0  0  0  0  0  0
  -26.7584  -29.9490   20.7622 C   0  0  0  0  0  0  0  0  0  0  0  0
  -22.8346   -8.8574   22.3738 C   0  0  0  0  0  0  0  0  0  0  0  0
  -21.9982   -9.0137   20.1125 C   0  0  0  0  0  0  0  0  0  0  0  0
  -27.7447  -29.0225   20.4268 C   0  0  0  0  0  0  0  0  0  0  0  0
  -23.9342   -5.8526   21.2805 C   0  0  0  0  0  0  0  0  0  0  0  0
  -24.8218   -4.9212   21.8193 C   0  0  0  0  0  0  0  0  0  0  0  0
  -26.0434  -27.3505   20.0673 C   0  0  0  0  0  0  0  0  0  0  0  0
  -25.5968  -20.6513   17.4622 C   0  0  0  0  0  0  0  0  0  0  0  0
  -23.7284  -21.0748   19.4901 C   0  0  0  0  0  0  0  0  0  0  0  0
  -23.2111   -4.3796   23.5367 C   0  0  0  0  0  0  0  0  0  0  0  0
  -23.0382  -10.9311   21.1511 C   0  0  0  0  0  0  0  0  0  0  0  0
  -24.7167  -12.7877   20.6576 C   0  0  0  0  0  0  0  0  0  0  0  0
  -22.1847  -31.9813   26.9065 C   0  0  0  0  0  0  0  0  0  0  0  0
  -25.4057  -29.5796   20.7633 C   0  0  0  0  0  0  0  0  0  0  0  0
  -23.1608  -31.2884   26.1651 C   0  0  0  0  0  0  0  0  0  0  0  0
  -25.0417  -28.2749   20.4006 C   0  0  0  0  0  0  0  0  0  0  0  0
  -24.6822  -19.6499   17.7881 C   0  0  0  0  0  0  0  0  0  0  0  0
  -25.5772  -21.8645   18.1503 C   0  0  0  0  0  0  0  0  0  0  0  0
  -23.7480  -19.8616   18.8020 C   0  0  0  0  0  0  0  0  0  0  0  0
  -22.2091   -8.2703   21.2739 C   0  0  0  0  0  0  0  0  0  0  0  0
  -27.3875  -27.7222   20.0820 C   0  0  0  0  0  0  0  0  0  0  0  0
  -22.6850   -6.0476   21.8699 C   0  0  0  0  0  0  0  0  0  0  0  0
  -24.4602   -4.1847   22.9473 C   0  0  0  0  0  0  0  0  0  0  0  0
  -22.3235   -5.3111   22.9979 C   0  0  0  0  0  0  0  0  0  0  0  0
  -24.6430  -22.0763   19.1642 C   0  0  0  0  0  0  0  0  0  0  0  0
  -23.4658  -12.3056   21.0872 C   0  0  0  0  0  0  0  0  0  0  0  0
  -24.6215  -14.1519   20.7862 C   0  0  0  0  0  0  0  0  0  0  0  0
  -25.8622  -12.0669   20.1845 C   0  0  0  0  0  0  0  0  0  0  0  0
  -23.1218  -29.4343   22.9693 C   0  0  0  0  0  0  0  0  0  0  0  0
  -21.2442  -28.7299   20.4196 C   0  0  0  0  0  0  0  0  0  0  0  0
  -21.0135  -27.5116   17.2401 C   0  0  0  0  0  0  0  0  0  0  0  0
  -21.8261  -18.9227   20.1328 C   0  0  0  0  0  0  0  0  0  0  0  0
  -20.7637  -31.4857   27.0052 C   0  0  0  0  0  0  0  0  0  0  0  0
  -24.3519  -30.5982   21.1016 C   0  0  0  0  0  0  0  0  0  0  0  0
  -23.6020  -27.8337   20.3666 C   0  0  0  0  0  0  0  0  0  0  0  0
  -20.3939  -30.4764   25.9213 C   0  0  0  0  0  0  0  0  0  0  0  0
  -29.0721  -23.4605   21.3717 C   0  0  0  0  0  0  0  0  0  0  0  0
  -21.1101  -17.0101   23.0494 C   0  0  0  0  0  0  0  0  0  0  0  0
  -29.5582  -22.6038   20.2064 C   0  0  0  0  0  0  0  0  0  0  0  0
  -21.4853  -29.4201   25.7807 C   0  0  0  0  0  0  0  0  0  0  0  0
  -21.7620  -15.6553   22.7635 C   0  0  0  0  0  0  0  0  0  0  0  0
  -29.1135  -24.9529   21.0542 C   0  0  0  0  0  0  0  0  0  0  0  0
  -20.5040  -17.6250   21.7891 C   0  0  0  0  0  0  0  0  0  0  0  0
  -22.0721  -16.3726   20.3601 C   0  0  0  0  0  0  0  0  0  0  0  0
  -28.5079  -22.2338   19.1659 C   0  0  0  0  0  0  0  0  0  0  0  0
  -28.0517  -24.6943   18.7183 C   0  0  0  0  0  0  0  0  0  0  0  0
  -22.8162  -30.0547   25.3594 C   0  0  1  0  0  0  0  0  0  0  0  0
  -23.0420  -29.9704   21.5679 C   0  0  1  0  0  0  0  0  0  0  0  0
  -22.7533  -15.7440   21.5867 C   0  0  2  0  0  0  0  0  0  0  0  0
  -28.0743  -25.4423   20.0471 C   0  0  2  0  0  0  0  0  0  1  0  0
  -24.7275  -18.3593   17.0359 C   0  0  0  0  0  0  0  0  0  0  0  0
  -19.3411  -27.0249   15.4335 C   0  0  0  0  0  0  0  0  0  0  0  0
  -20.3340  -26.2432   21.9353 C   0  0  0  0  0  0  0  0  0  0  0  0
  -19.4479  -25.3367   19.7763 C   0  0  0  0  0  0  0  0  0  0  0  0
  -18.5117  -27.4483   20.7183 C   0  0  0  0  0  0  0  0  0  0  0  0
  -22.3116  -29.4015   15.3688 C   0  0  0  0  0  0  0  0  0  0  0  0
  -26.5780  -22.9157   17.7703 C   0  0  0  0  0  0  0  0  0  0  0  0
  -20.8318  -27.4608   19.7137 C   0  0  1  0  0  0  0  0  0  0  0  0
  -20.3120  -28.0466   16.0048 C   0  0  2  0  0  0  0  0  0  0  0  0
  -19.8087  -26.6297   20.5383 C   0  0  0  0  0  0  0  0  0  0  0  0
  -22.6368  -13.2840   21.4610 N   0  0  0  0  0  0  0  0  0  0  0  0
  -23.3684  -14.3945   21.2667 N   0  0  0  0  0  0  0  0  0  0  0  0
  -22.6089  -28.8644   20.7116 N   0  0  0  0  0  0  0  0  0  0  0  0
  -21.5019  -17.6807   20.7186 N   0  0  0  0  0  0  0  0  0  0  0  0
  -25.4885  -15.1555   20.5342 N   0  0  0  0  0  0  0  0  0  0  0  0
  -25.7902  -10.6689   20.1153 N   0  0  0  0  0  0  0  0  0  0  0  0
  -22.8115  -18.8563   19.1483 N   0  0  0  0  0  0  0  0  0  0  0  0
  -22.8051  -30.3603   23.9448 N   0  0  0  0  0  0  0  0  0  0  0  0
  -20.3508  -27.8641   18.3967 N   0  0  0  0  0  0  0  0  0  0  0  0
  -27.4850  -23.3087   18.9112 N   0  3  1  0  0  0  0  0  0  0  0  0
  -21.3083  -28.3888   14.9507 N   0  3  0  0  0  0  0  0  0  0  0  0
  -26.9241  -12.6443   19.8491 O   0  0  0  0  0  0  0  0  0  0  0  0
  -23.4452  -28.2665   23.1519 O   0  0  0  0  0  0  0  0  0  0  0  0
  -20.3881  -29.5742   20.6951 O   0  0  0  0  0  0  0  0  0  0  0  0
  -22.0441  -26.8443   17.1843 O   0  0  0  0  0  0  0  0  0  0  0  0
  -21.2899  -19.9721   20.4980 O   0  0  0  0  0  0  0  0  0  0  0  0
  -21.8046   -6.9721   21.3333 O   0  0  0  0  0  0  0  0  0  0  0  0
  -28.3483  -26.8158   19.7548 O   0  0  0  0  0  0  0  0  0  1  0  0
  -25.3121   -3.2892   23.4637 F   0  0  0  0  0  0  0  0  0  0  0  0
  -21.1243   -5.4931   23.5677 F   0  0  0  0  0  0  0  0  0  0  0  0
  -24.5891  -23.5644   20.0373 Cl  0  0  0  0  0  0  0  0  0  0  0  0
  1  2  1  0  0  0  0
  1  5  2  0  0  0  0
  2  6  2  0  0  0  0
  3  8  2  0  0  0  0
  3 17  1  0  0  0  0
  4  9  1  0  0  0  0
  4 17  2  0  0  0  0
  5 19  1  0  0  0  0
  6 21  1  0  0  0  0
  7 10  2  0  0  0  0
  7 20  1  0  0  0  0
  8 26  1  0  0  0  0
  9 26  2  0  0  0  0
 10 27  1  0  0  0  0
 11 12  2  0  0  0  0
 11 28  1  0  0  0  0
 12 29  1  0  0  0  0
 13 22  1  0  0  0  0
 13 27  2  0  0  0  0
 14 23  2  0  0  0  0
 14 24  1  0  0  0  0
 15 25  2  0  0  0  0
 15 31  1  0  0  0  0
 16 29  2  0  0  0  0
 16 30  1  0  0  0  0
 17 32  1  0  0  0  0
 18 32  1  0  0  0  0
 18 33  2  0  0  0  0
 18 34  1  0  0  0  0
 19 21  2  0  0  0  0
 19 39  1  0  0  0  0
 20 22  2  0  0  0  0
 20 40  1  0  0  0  0
 21 53  1  0  0  0  0
 22 41  1  0  0  0  0
 23 25  1  0  0  0  0
 23 57  1  0  0  0  0
 24 31  2  0  0  0  0
 24 63  1  0  0  0  0
 25 73  1  0  0  0  0
 26 83  1  0  0  0  0
 27 84  1  0  0  0  0
 28 30  2  0  0  0  0
 28 83  1  0  0  0  0
 29 85  1  0  0  0  0
 30 86  1  0  0  0  0
 31 87  1  0  0  0  0
 32 67  2  0  0  0  0
 33 68  1  0  0  0  0
 33 71  1  0  0  0  0
 34 72  1  0  0  0  0
 34 78  2  0  0  0  0
 35 54  1  0  0  0  0
 35 74  1  0  0  0  0
 35 79  2  0  0  0  0
 36 64  1  0  0  0  0
 36 69  1  0  0  0  0
 36 80  2  0  0  0  0
 37 65  1  0  0  0  0
 37 75  1  0  0  0  0
 37 81  2  0  0  0  0
 38 70  1  0  0  0  0
 38 73  1  0  0  0  0
 38 82  2  0  0  0  0
 39 42  1  0  0  0  0
 40 54  1  0  0  0  0
 41 69  1  0  0  0  0
 42 46  1  0  0  0  0
 43 45  1  0  0  0  0
 43 48  1  0  0  0  0
 44 47  1  0  0  0  0
 44 49  1  0  0  0  0
 45 51  1  0  0  0  0
 46 53  1  0  0  0  0
 47 55  1  0  0  0  0
 48 56  1  0  0  0  0
 49 70  1  0  0  0  0
 50 55  1  0  0  0  0
 50 70  1  0  0  0  0
 51 76  1  0  0  0  0
 52 56  1  0  0  0  0
 52 76  1  0  0  0  0
 53 74  1  0  0  0  0
 54 69  1  0  0  0  0
 55 68  1  0  0  0  0
 56 84  1  0  0  0  0
 58 65  1  0  0  0  0
 59 66  1  0  0  0  0
 60 66  1  0  0  0  0
 61 66  1  0  0  0  0
 62 77  1  0  0  0  0
 63 76  1  0  0  0  0
 64 66  1  0  0  0  0
 64 75  1  0  0  0  0
 65 77  1  0  0  0  0
 67 68  1  0  0  0  0
M  CHG  2  76   1  77   1
M  ISO  4  38 100  56 101  73 100  84 101
M  END
> <Batch ID>
0030

> <Smiles>
CNC(C)C(=O)NC(C(=O)N1Cc2cc([101O:1][101CH:1]3CCCCN(Cc4cc(C)c([100NH:0][100C:0](=O)N5CCCC(n6nc(-c7ccc(Oc8ccc(F)cc8F)cc7)c(C(N)=O)c6N)C5)cc4Cl)C3)ccc2CC1C(=O)NC1CCCc2ccccc21)C(C)(C)C

> <Shape>
0.231

> <Color>
0.126

> <Negative vol penalty>
0.000

$$$$

  -OEChem-04042321363D

 84 92  0     1  0  0  0  0  0999 V2000
  -28.0258  -12.4323   17.8247 C   0  0  0  0  0  0  0  0  0  0  0  0
  -27.5212  -13.6708   17.4412 C   0  0  0  0  0  0  0  0  0  0  0  0
  -28.4752  -24.3782   18.5291 C   0  0  0  0  0  0  0  0  0  0  0  0
  -27.2437  -23.3642   20.3436 C   0  0  0  0  0  0  0  0  0  0  0  0
  -27.4738  -11.7637   18.9165 C   0  0  0  0  0  0  0  0  0  0  0  0
  -26.4636  -14.2409   18.1488 C   0  0  0  0  0  0  0  0  0  0  0  0
  -23.8897  -20.6136   20.1689 C   0  0  0  0  0  0  0  0  0  0  0  0
  -17.8203  -26.8777   22.1488 C   0  0  0  0  0  0  0  0  0  0  0  0
  -29.5023  -23.4517   18.7084 C   0  0  0  0  0  0  0  0  0  0  0  0
  -28.2708  -22.4376   20.5229 C   0  0  0  0  0  0  0  0  0  0  0  0
  -22.7134  -21.3610   20.1318 C   0  0  0  0  0  0  0  0  0  0  0  0
  -30.4065  -19.5798   21.2228 C   0  0  0  0  0  0  0  0  0  0  0  0
  -30.0512  -18.2423   21.3976 C   0  0  0  0  0  0  0  0  0  0  0  0
  -17.8529  -28.2235   21.7838 C   0  0  0  0  0  0  0  0  0  0  0  0
  -21.8913  -20.1509   22.0499 C   0  0  0  0  0  0  0  0  0  0  0  0
  -28.9791  -18.2441   19.2325 C   0  0  0  0  0  0  0  0  0  0  0  0
  -27.3459  -24.3345   19.3467 C   0  0  0  0  0  0  0  0  0  0  0  0
  -25.1593  -25.1627   18.3266 C   0  0  0  0  0  0  0  0  0  0  0  0
  -26.4152  -12.3303   19.6438 C   0  0  0  0  0  0  0  0  0  0  0  0
  -24.0715  -19.6201   21.1417 C   0  0  0  0  0  0  0  0  0  0  0  0
  -25.8960  -13.5786   19.2506 C   0  0  0  0  0  0  0  0  0  0  0  0
  -23.0720  -19.3941   22.0988 C   0  0  0  0  0  0  0  0  0  0  0  0
  -18.8145  -26.3551   22.9758 C   0  0  0  0  0  0  0  0  0  0  0  0
  -19.8414  -27.1782   23.4378 C   0  0  0  0  0  0  0  0  0  0  0  0
  -19.8741  -28.5241   23.0728 C   0  0  0  0  0  0  0  0  0  0  0  0
  -29.4002  -22.4814   19.7053 C   0  0  0  0  0  0  0  0  0  0  0  0
  -21.7127  -21.1277   21.0707 C   0  0  0  0  0  0  0  0  0  0  0  0
  -30.0480  -20.2494   20.0528 C   0  0  0  0  0  0  0  0  0  0  0  0
  -29.3376  -17.5744   20.4025 C   0  0  0  0  0  0  0  0  0  0  0  0
  -29.3344  -19.5815   19.0577 C   0  0  0  0  0  0  0  0  0  0  0  0
  -18.8798  -29.0467   22.2457 C   0  0  0  0  0  0  0  0  0  0  0  0
  -26.2848  -25.2917   19.1624 C   0  0  0  0  0  0  0  0  0  0  0  0
  -24.4615  -26.3318   18.5076 C   0  0  0  0  0  0  0  0  0  0  0  0
  -24.7786  -24.0826   17.4640 C   0  0  0  0  0  0  0  0  0  0  0  0
  -24.5027  -16.4715   21.0790 C   0  0  0  0  0  0  0  0  0  0  0  0
  -24.9415  -16.8600   24.2695 C   0  0  0  0  0  0  0  0  0  0  0  0
  -24.3686  -18.7299   27.0662 C   0  0  0  0  0  0  0  0  0  0  0  0
  -23.1536  -30.1612   22.6475 C   0  0  0  0  0  0  0  0  0  0  0  0
  -25.8200  -11.5483   20.7878 C   0  0  0  0  0  0  0  0  0  0  0  0
  -25.3574  -18.8409   21.1846 C   0  0  0  0  0  0  0  0  0  0  0  0
  -23.2265  -18.3530   23.1761 C   0  0  0  0  0  0  0  0  0  0  0  0
  -24.9484  -12.3923   21.7143 C   0  0  0  0  0  0  0  0  0  0  0  0
  -25.6024  -30.8508   20.1567 C   0  0  0  0  0  0  0  0  0  0  0  0
  -23.9944  -13.2632   20.9030 C   0  0  0  0  0  0  0  0  0  0  0  0
  -25.9233  -29.4756   19.5687 C   0  0  0  0  0  0  0  0  0  0  0  0
  -25.3405  -30.7750   21.6592 C   0  0  0  0  0  0  0  0  0  0  0  0
  -24.6330  -28.4216   21.4721 C   0  0  0  0  0  0  0  0  0  0  0  0
  -24.7658  -14.2410   20.0083 C   0  0  1  0  0  0  0  0  0  0  0  0
  -25.2211  -17.5021   21.9032 C   0  0  1  0  0  0  0  0  0  0  0  0
  -24.8496  -28.4385   19.9492 C   0  0  2  0  0  0  0  0  0  0  0  0
  -20.9060  -26.6139   24.3249 C   0  0  0  0  0  0  0  0  0  0  0  0
  -24.8220  -18.7731   29.5340 C   0  0  0  0  0  0  0  0  0  0  0  0
  -22.8067  -14.7222   24.6967 C   0  0  0  0  0  0  0  0  0  0  0  0
  -22.6253  -15.4781   27.0766 C   0  0  0  0  0  0  0  0  0  0  0  0
  -24.7780  -14.5482   26.2258 C   0  0  0  0  0  0  0  0  0  0  0  0
  -25.8603  -21.2781   26.8651 C   0  0  0  0  0  0  0  0  0  0  0  0
  -20.9825  -29.3964   23.5755 C   0  0  0  0  0  0  0  0  0  0  0  0
  -18.7538  -24.9045   23.3541 C   0  0  0  0  0  0  0  0  0  0  0  0
  -19.5647  -24.0396   21.1557 C   0  0  0  0  0  0  0  0  0  0  0  0
  -20.6526  -23.1874   20.5325 C   0  0  0  0  0  0  0  0  0  1  0  0
  -24.0416  -16.8495   25.4815 C   0  0  1  0  0  0  0  0  0  0  0  0
  -25.3010  -19.2172   28.1606 C   0  0  2  0  0  0  0  0  0  0  0  0
  -23.5589  -15.4179   25.8488 C   0  0  0  0  0  0  0  0  0  0  0  0
  -26.3049  -26.4513   19.8248 N   0  0  0  0  0  0  0  0  0  0  0  0
  -25.1835  -27.0617   19.4054 N   0  0  0  0  0  0  0  0  0  0  0  0
  -24.4992  -17.6128   23.1724 N   0  0  0  0  0  0  0  0  0  0  0  0
  -24.3114  -29.7746   21.9526 N   0  0  0  0  0  0  0  0  0  0  0  0
  -23.3070  -26.7964   17.9846 N   0  0  0  0  0  0  0  0  0  0  0  0
  -25.6096  -22.9559   17.3974 N   0  0  0  0  0  0  0  0  0  0  0  0
  -25.2625  -15.3548   20.7875 N   0  0  0  0  0  0  0  0  0  0  0  0
  -24.7806  -17.5219   26.5445 N   0  0  0  0  0  0  0  0  0  0  0  0
  -22.2260  -29.1528   22.8788 N   0  0  0  0  0  0  0  0  0  0  0  0
  -25.3803  -20.7053   28.1490 N   0  3  0  0  0  0  0  0  0  0  0  0
  -19.7497  -24.0706   22.6284 N   0  3  0  0  0  0  0  0  0  0  0  0
  -23.7409  -24.1225   16.7603 O   0  0  0  0  0  0  0  0  0  0  0  0
  -23.3442  -16.6737   20.7344 O   0  0  0  0  0  0  0  0  0  0  0  0
  -26.0014  -16.2295   24.2977 O   0  0  0  0  0  0  0  0  0  0  0  0
  -23.3721  -19.3563   26.7124 O   0  0  0  0  0  0  0  0  0  0  0  0
  -22.9583  -31.3203   23.0286 O   0  0  0  0  0  0  0  0  0  0  0  0
  -30.4022  -21.5770   19.8804 O   0  0  0  0  0  0  0  0  0  0  0  0
  -20.5632  -21.8553   21.0363 O   0  0  0  0  0  0  0  0  0  1  0  0
  -28.9978  -16.2896   20.5699 F   0  0  0  0  0  0  0  0  0  0  0  0
  -28.9882  -20.2193   17.9310 F   0  0  0  0  0  0  0  0  0  0  0  0
  -18.8844  -30.7067   21.7711 Cl  0  0  0  0  0  0  0  0  0  0  0  0
  1  2  1  0  0  0  0
  1  5  2  0  0  0  0
  2  6  2  0  0  0  0
  3  9  2  0  0  0  0
  3 17  1  0  0  0  0
  4 10  1  0  0  0  0
  4 17  2  0  0  0  0
  5 19  1  0  0  0  0
  6 21  1  0  0  0  0
  7 11  2  0  0  0  0
  7 20  1  0  0  0  0
  8 14  2  0  0  0  0
  8 23  1  0  0  0  0
  9 26  1  0  0  0  0
 10 26  2  0  0  0  0
 11 27  1  0  0  0  0
 12 13  2  0  0  0  0
 12 28  1  0  0  0  0
 13 29  1  0  0  0  0
 14 31  1  0  0  0  0
 15 22  1  0  0  0  0
 15 27  2  0  0  0  0
 16 29  2  0  0  0  0
 16 30  1  0  0  0  0
 17 32  1  0  0  0  0
 18 32  1  0  0  0  0
 18 33  2  0  0  0  0
 18 34  1  0  0  0  0
 19 21  2  0  0  0  0
 19 39  1  0  0  0  0
 20 22  2  0  0  0  0
 20 40  1  0  0  0  0
 21 48  1  0  0  0  0
 22 41  1  0  0  0  0
 23 24  2  0  0  0  0
 23 58  1  0  0  0  0
 24 25  1  0  0  0  0
 24 51  1  0  0  0  0
 25 31  2  0  0  0  0
 25 57  1  0  0  0  0
 26 80  1  0  0  0  0
 27 81  1  0  0  0  0
 28 30  2  0  0  0  0
 28 80  1  0  0  0  0
 29 82  1  0  0  0  0
 30 83  1  0  0  0  0
 31 84  1  0  0  0  0
 32 64  2  0  0  0  0
 33 65  1  0  0  0  0
 33 68  1  0  0  0  0
 34 69  1  0  0  0  0
 34 75  2  0  0  0  0
 35 49  1  0  0  0  0
 35 70  1  0  0  0  0
 35 76  2  0  0  0  0
 36 61  1  0  0  0  0
 36 66  1  0  0  0  0
 36 77  2  0  0  0  0
 37 62  1  0  0  0  0
 37 71  1  0  0  0  0
 37 78  2  0  0  0  0
 38 67  1  0  0  0  0
 38 72  1  0  0  0  0
 38 79  2  0  0  0  0
 39 42  1  0  0  0  0
 40 49  1  0  0  0  0
 41 66  1  0  0  0  0
 42 44  1  0  0  0  0
 43 45  1  0  0  0  0
 43 46  1  0  0  0  0
 44 48  1  0  0  0  0
 45 50  1  0  0  0  0
 46 67  1  0  0  0  0
 47 50  1  0  0  0  0
 47 67  1  0  0  0  0
 48 70  1  0  0  0  0
 49 66  1  0  0  0  0
 50 65  1  0  0  0  0
 52 62  1  0  0  0  0
 53 63  1  0  0  0  0
 54 63  1  0  0  0  0
 55 63  1  0  0  0  0
 56 73  1  0  0  0  0
 57 72  1  0  0  0  0
 58 74  1  0  0  0  0
 59 60  1  0  0  0  0
 59 74  1  0  0  0  0
 60 81  1  0  0  0  0
 61 63  1  0  0  0  0
 61 71  1  0  0  0  0
 62 73  1  0  0  0  0
 64 65  1  0  0  0  0
M  CHG  2  73   1  74   1
M  ISO  4  38 100  60 101  72 100  81 101
M  END
> <Batch ID>
0030

> <Smiles>
CNC(C)C(=O)NC(C(=O)N1Cc2cc([101O:1][101CH2:1]CNCc3ccc(Cl)c(C[100NH:0][100C:0](=O)N4CCCC(n5nc(-c6ccc(Oc7ccc(F)cc7F)cc6)c(C(N)=O)c5N)C4)c3C)ccc2CC1C(=O)NC1CCCc2ccccc21)C(C)(C)C

> <Shape>
0.227

> <Color>
0.074

> <Negative vol penalty>
0.000

$$$$

  -OEChem-04042321363D

 90100  0     1  0  0  0  0  0999 V2000
  -27.8384  -38.0621   25.1116 C   0  0  0  0  0  0  0  0  0  0  0  0
  -28.2752  -36.8765   25.6938 C   0  0  0  0  0  0  0  0  0  0  0  0
  -24.3079  -10.1572   22.3737 C   0  0  0  0  0  0  0  0  0  0  0  0
  -24.6066  -11.6332   24.2629 C   0  0  0  0  0  0  0  0  0  0  0  0
  -26.5120  -38.1886   24.7012 C   0  0  0  0  0  0  0  0  0  0  0  0
  -27.3853  -35.8170   25.8670 C   0  0  0  0  0  0  0  0  0  0  0  0
  -28.6565  -29.3821   22.8892 C   0  0  0  0  0  0  0  0  0  0  0  0
  -23.8810   -9.1443   23.2324 C   0  0  0  0  0  0  0  0  0  0  0  0
  -24.1797  -10.6204   25.1217 C   0  0  0  0  0  0  0  0  0  0  0  0
  -28.9337  -28.0635   22.5279 C   0  0  0  0  0  0  0  0  0  0  0  0
  -21.0576   -8.3165   24.8985 C   0  0  0  0  0  0  0  0  0  0  0  0
  -19.9256   -7.5892   24.5309 C   0  0  0  0  0  0  0  0  0  0  0  0
  -26.7982  -27.3595   23.4179 C   0  0  0  0  0  0  0  0  0  0  0  0
  -30.4492  -19.7597   20.6892 C   0  0  0  0  0  0  0  0  0  0  0  0
  -21.2332   -5.5576   24.5242 C   0  0  0  0  0  0  0  0  0  0  0  0
  -24.6707  -11.4016   22.8889 C   0  0  0  0  0  0  0  0  0  0  0  0
  -24.3137  -13.4196   21.3698 C   0  0  0  0  0  0  0  0  0  0  0  0
  -25.6078  -37.1267   24.8606 C   0  0  0  0  0  0  0  0  0  0  0  0
  -27.4411  -29.6972   23.5030 C   0  0  0  0  0  0  0  0  0  0  0  0
  -26.0452  -35.9299   25.4596 C   0  0  0  0  0  0  0  0  0  0  0  0
  -26.5097  -28.6805   23.7708 C   0  0  0  0  0  0  0  0  0  0  0  0
  -30.6155  -21.1220   20.9382 C   0  0  0  0  0  0  0  0  0  0  0  0
  -28.2168  -21.4089   20.9700 C   0  0  0  0  0  0  0  0  0  0  0  0
  -28.0505  -20.0465   20.7210 C   0  0  0  0  0  0  0  0  0  0  0  0
  -29.4993  -21.9466   21.0786 C   0  0  0  0  0  0  0  0  0  0  0  0
  -29.1668  -19.2219   20.5806 C   0  0  0  0  0  0  0  0  0  0  0  0
  -23.8169   -9.3759   24.6064 C   0  0  0  0  0  0  0  0  0  0  0  0
  -28.0069  -27.0547   22.7919 C   0  0  0  0  0  0  0  0  0  0  0  0
  -22.2774   -7.6645   25.0790 C   0  0  0  0  0  0  0  0  0  0  0  0
  -20.0134   -6.2097   24.3437 C   0  0  0  0  0  0  0  0  0  0  0  0
  -22.3652   -6.2850   24.8918 C   0  0  0  0  0  0  0  0  0  0  0  0
  -25.1123  -12.4481   22.0023 C   0  0  0  0  0  0  0  0  0  0  0  0
  -25.2018  -14.1731   20.6418 C   0  0  0  0  0  0  0  0  0  0  0  0
  -22.8959  -13.6229   21.4345 C   0  0  0  0  0  0  0  0  0  0  0  0
  -25.2338  -32.3604   24.9562 C   0  0  0  0  0  0  0  0  0  0  0  0
  -23.4171  -30.4655   23.3689 C   0  0  0  0  0  0  0  0  0  0  0  0
  -21.8300  -28.3886   21.1769 C   0  0  0  0  0  0  0  0  0  0  0  0
  -30.0364  -16.8942   20.1661 C   0  0  0  0  0  0  0  0  0  0  0  0
  -24.1720  -37.3271   24.4447 C   0  0  0  0  0  0  0  0  0  0  0  0
  -27.1261  -31.0941   23.9650 C   0  0  0  0  0  0  0  0  0  0  0  0
  -25.2301  -29.0606   24.4643 C   0  0  0  0  0  0  0  0  0  0  0  0
  -23.3859  -36.0244   24.3219 C   0  0  0  0  0  0  0  0  0  0  0  0
  -30.0853  -13.3846   19.5683 C   0  0  0  0  0  0  0  0  0  0  0  0
  -25.6296  -17.8821   23.7709 C   0  0  0  0  0  0  0  0  0  0  0  0
  -24.5456  -17.5867   22.7539 C   0  0  0  0  0  0  0  0  0  0  0  0
  -23.6355  -35.1339   25.5350 C   0  0  0  0  0  0  0  0  0  0  0  0
  -28.7301  -12.9080   20.0963 C   0  0  0  0  0  0  0  0  0  0  0  0
  -30.2360  -25.5597   21.0274 C   0  0  0  0  0  0  0  0  0  0  0  0
  -30.6669  -14.5049   20.4287 C   0  0  0  0  0  0  0  0  0  0  0  0
  -29.7749  -24.3075   20.2817 C   0  0  0  0  0  0  0  0  0  0  0  0
  -28.4161  -15.1710   21.1765 C   0  0  0  0  0  0  0  0  0  0  0  0
  -29.7480  -23.8758   22.6657 C   0  0  0  0  0  0  0  0  0  0  0  0
  -26.7315  -18.4712   22.9166 C   0  0  0  0  0  0  0  0  0  0  0  0
  -24.5649  -18.7942   21.8330 C   0  0  0  0  0  0  0  0  0  0  0  0
  -25.1161  -34.7493   25.6418 C   0  0  1  0  0  0  0  0  0  0  0  0
  -25.6351  -31.4522   23.8312 C   0  0  1  0  0  0  0  0  0  0  0  0
  -27.7602  -14.0875   20.3050 C   0  0  2  0  0  0  0  0  0  0  0  0
  -29.6507  -25.3809   22.4206 C   0  0  2  0  0  0  0  0  0  1  0  0
  -32.0018  -21.6688   21.0495 C   0  0  0  0  0  0  0  0  0  0  0  0
  -27.0168  -22.2912   21.1203 C   0  0  0  0  0  0  0  0  0  0  0  0
  -19.5675  -27.9111   20.2020 C   0  0  0  0  0  0  0  0  0  0  0  0
  -22.5830  -29.1171   25.9746 C   0  0  0  0  0  0  0  0  0  0  0  0
  -20.8227  -27.8841   24.6903 C   0  0  0  0  0  0  0  0  0  0  0  0
  -20.7561  -30.3744   24.8189 C   0  0  0  0  0  0  0  0  0  0  0  0
  -22.7652  -28.9623   18.4282 C   0  0  0  0  0  0  0  0  0  0  0  0
  -26.6728  -19.4723   20.6056 C   0  0  0  0  0  0  0  0  0  0  0  0
  -22.5208  -29.2535   23.3971 C   0  0  1  0  0  0  0  0  0  0  0  0
  -20.8733  -28.6722   20.0329 C   0  0  2  0  0  0  0  0  0  0  0  0
  -21.6980  -29.1553   24.7127 C   0  0  0  0  0  0  0  0  0  0  0  0
  -26.4081  -12.5707   21.7023 N   0  0  0  0  0  0  0  0  0  0  0  0
  -26.4305  -13.6281   20.8732 N   0  0  0  0  0  0  0  0  0  0  0  0
  -29.6657  -23.2931   21.3258 N   0  0  3  0  0  0  0  0  0  0  0  0
  -24.7045  -30.3126   23.8979 N   0  0  0  0  0  0  0  0  0  0  0  0
  -29.6941  -15.5893   20.5794 N   0  0  0  0  0  0  0  0  0  0  0  0
  -25.0438  -15.2420   19.8325 N   0  0  0  0  0  0  0  0  0  0  0  0
  -22.1326  -12.7577   22.2302 N   0  0  0  0  0  0  0  0  0  0  0  0
  -29.0202  -17.8354   20.3279 N   0  0  0  0  0  0  0  0  0  0  0  0
  -25.4358  -33.7023   24.6953 N   0  0  0  0  0  0  0  0  0  0  0  0
  -21.7078  -29.3187   22.1874 N   0  0  0  0  0  0  0  0  0  0  0  0
  -25.9815  -19.3316   21.9236 N   0  3  0  0  0  0  0  0  0  0  0  0
  -21.4855  -28.2725   18.7344 N   0  3  0  0  0  0  0  0  0  0  0  0
  -22.3209  -14.5343   20.7925 O   0  0  0  0  0  0  0  0  0  0  0  0
  -24.7732  -31.8804   25.9853 O   0  0  0  0  0  0  0  0  0  0  0  0
  -22.9882  -31.5220   22.8964 O   0  0  0  0  0  0  0  0  0  0  0  0
  -22.6055  -27.4351   21.1759 O   0  0  0  0  0  0  0  0  0  0  0  0
  -31.1395  -17.1518   19.6776 O   0  0  0  0  0  0  0  0  0  0  0  0
  -23.4001   -8.3879   25.4447 O   0  0  0  0  0  0  0  0  0  0  0  0
  -28.2820  -25.7702   22.4325 O   0  0  0  0  0  0  0  0  0  1  0  0
  -18.9260   -5.5111   23.9922 F   0  0  0  0  0  0  0  0  0  0  0  0
  -23.5341   -5.6528   25.0649 F   0  0  0  0  0  0  0  0  0  0  0  0
  1  2  1  0  0  0  0
  1  5  2  0  0  0  0
  2  6  2  0  0  0  0
  3  8  2  0  0  0  0
  3 16  1  0  0  0  0
  4  9  1  0  0  0  0
  4 16  2  0  0  0  0
  5 18  1  0  0  0  0
  6 20  1  0  0  0  0
  7 10  2  0  0  0  0
  7 19  1  0  0  0  0
  8 27  1  0  0  0  0
  9 27  2  0  0  0  0
 10 28  1  0  0  0  0
 11 12  2  0  0  0  0
 11 29  1  0  0  0  0
 12 30  1  0  0  0  0
 13 21  1  0  0  0  0
 13 28  2  0  0  0  0
 14 22  2  0  0  0  0
 14 26  1  0  0  0  0
 15 30  2  0  0  0  0
 15 31  1  0  0  0  0
 16 32  1  0  0  0  0
 17 32  1  0  0  0  0
 17 33  2  0  0  0  0
 17 34  1  0  0  0  0
 18 20  2  0  0  0  0
 18 39  1  0  0  0  0
 19 21  2  0  0  0  0
 19 40  1  0  0  0  0
 20 55  1  0  0  0  0
 21 41  1  0  0  0  0
 22 25  1  0  0  0  0
 22 59  1  0  0  0  0
 23 24  1  0  0  0  0
 23 25  2  0  0  0  0
 23 60  1  0  0  0  0
 24 26  2  0  0  0  0
 24 66  1  0  0  0  0
 25 72  1  0  0  0  0
 26 77  1  0  0  0  0
 27 87  1  0  0  0  0
 28 88  1  0  0  0  0
 29 31  2  0  0  0  0
 29 87  1  0  0  0  0
 30 89  1  0  0  0  0
 31 90  1  0  0  0  0
 32 70  2  0  0  0  0
 33 71  1  0  0  0  0
 33 75  1  0  0  0  0
 34 76  1  0  0  0  0
 34 82  2  0  0  0  0
 35 56  1  0  0  0  0
 35 78  1  0  0  0  0
 35 83  2  0  0  0  0
 36 67  1  0  0  0  0
 36 73  1  0  0  0  0
 36 84  2  0  0  0  0
 37 68  1  0  0  0  0
 37 79  1  0  0  0  0
 37 85  2  0  0  0  0
 38 74  1  0  0  0  0
 38 77  1  0  0  0  0
 38 86  2  0  0  0  0
 39 42  1  0  0  0  0
 40 56  1  0  0  0  0
 41 73  1  0  0  0  0
 42 46  1  0  0  0  0
 43 47  1  0  0  0  0
 43 49  1  0  0  0  0
 44 45  1  0  0  0  0
 44 53  1  0  0  0  0
 45 54  1  0  0  0  0
 46 55  1  0  0  0  0
 47 57  1  0  0  0  0
 48 50  1  0  0  0  0
 48 58  1  0  0  0  0
 49 74  1  0  0  0  0
 50 72  1  0  0  0  0
 51 57  1  0  0  0  0
 51 74  1  0  0  0  0
 52 58  1  0  0  0  0
 52 72  1  0  0  0  0
 53 80  1  0  0  0  0
 54 80  1  0  0  0  0
 55 78  1  0  0  0  0
 56 73  1  0  0  0  0
 57 71  1  0  0  0  0
 58 88  1  0  0  0  0
 61 68  1  0  0  0  0
 62 69  1  0  0  0  0
 63 69  1  0  0  0  0
 64 69  1  0  0  0  0
 65 81  1  0  0  0  0
 66 80  1  0  0  0  0
 67 69  1  0  0  0  0
 67 79  1  0  0  0  0
 68 81  1  0  0  0  0
 70 71  1  0  0  0  0
M  CHG  2  80   1  81   1
M  ISO  4  38 100  58 101  77 100  88 101
M  END
> <Batch ID>
0030

> <Smiles>
CNC(C)C(=O)NC(C(=O)N1Cc2cc([101O:1][101CH:1]3CCN(c4c(C)cc([100NH:0][100C:0](=O)N5CCCC(n6nc(-c7ccc(Oc8ccc(F)cc8F)cc7)c(C(N)=O)c6N)C5)c(CN5CCCC5)c4C)C3)ccc2CC1C(=O)NC1CCCc2ccccc21)C(C)(C)C

> <Shape>
0.301

> <Color>
0.116

> <Negative vol penalty>
0.000

$$$$

  -OEChem-04042321363D

 84 93  0     1  0  0  0  0  0999 V2000
  -25.8014  -29.6625   24.2091 C   0  0  0  0  0  0  0  0  0  0  0  0
  -26.0634  -28.4911   23.5059 C   0  0  0  0  0  0  0  0  0  0  0  0
  -22.8792  -10.3188   19.8638 C   0  0  0  0  0  0  0  0  0  0  0  0
  -23.8073   -9.7834   22.0293 C   0  0  0  0  0  0  0  0  0  0  0  0
  -24.9842  -30.6430   23.6482 C   0  0  0  0  0  0  0  0  0  0  0  0
  -25.5073  -28.2990   22.2416 C   0  0  0  0  0  0  0  0  0  0  0  0
  -28.8528  -26.4790   18.9040 C   0  0  0  0  0  0  0  0  0  0  0  0
  -22.0314   -9.2150   19.9542 C   0  0  0  0  0  0  0  0  0  0  0  0
  -22.9594   -8.6795   22.1197 C   0  0  0  0  0  0  0  0  0  0  0  0
  -29.1459  -25.1178   18.9739 C   0  0  0  0  0  0  0  0  0  0  0  0
  -19.7172   -8.0856   22.8652 C   0  0  0  0  0  0  0  0  0  0  0  0
  -19.0518   -7.8787   24.0735 C   0  0  0  0  0  0  0  0  0  0  0  0
  -27.6426  -24.7057   17.1328 C   0  0  0  0  0  0  0  0  0  0  0  0
  -32.3166  -17.7376   20.8129 C   0  0  0  0  0  0  0  0  0  0  0  0
  -30.0548  -19.3270   21.1883 C   0  0  0  0  0  0  0  0  0  0  0  0
  -20.1195   -5.7224   24.2921 C   0  0  0  0  0  0  0  0  0  0  0  0
  -23.7672  -10.6031   20.9013 C   0  0  0  0  0  0  0  0  0  0  0  0
  -24.3812  -13.0551   21.2454 C   0  0  0  0  0  0  0  0  0  0  0  0
  -24.4257  -30.4671   22.3724 C   0  0  0  0  0  0  0  0  0  0  0  0
  -27.9426  -26.9632   17.9534 C   0  0  0  0  0  0  0  0  0  0  0  0
  -24.6808  -29.2775   21.6637 C   0  0  0  0  0  0  0  0  0  0  0  0
  -27.3417  -26.0739   17.0512 C   0  0  0  0  0  0  0  0  0  0  0  0
  -32.1908  -18.9449   20.1259 C   0  0  0  0  0  0  0  0  0  0  0  0
  -31.3114  -17.3249   21.6877 C   0  0  0  0  0  0  0  0  0  0  0  0
  -31.0599  -19.7396   20.3135 C   0  0  0  0  0  0  0  0  0  0  0  0
  -22.0715   -8.3953   21.0822 C   0  0  0  0  0  0  0  0  0  0  0  0
  -28.5386  -24.2305   18.0902 C   0  0  0  0  0  0  0  0  0  0  0  0
  -20.5837   -7.1109   22.3702 C   0  0  0  0  0  0  0  0  0  0  0  0
  -19.2530   -6.6971   24.7870 C   0  0  0  0  0  0  0  0  0  0  0  0
  -20.7849   -5.9294   23.0837 C   0  0  0  0  0  0  0  0  0  0  0  0
  -30.1806  -18.1196   21.8753 C   0  0  0  0  0  0  0  0  0  0  0  0
  -24.6437  -11.7429   20.8083 C   0  0  0  0  0  0  0  0  0  0  0  0
  -25.5200  -13.7559   20.9316 C   0  0  0  0  0  0  0  0  0  0  0  0
  -23.2125  -13.5924   21.8787 C   0  0  0  0  0  0  0  0  0  0  0  0
  -25.1459  -28.4677   18.0886 C   0  0  0  0  0  0  0  0  0  0  0  0
  -25.5222  -28.6361   14.8711 C   0  0  0  0  0  0  0  0  0  0  0  0
  -26.9519  -27.3533   12.0503 C   0  0  0  0  0  0  0  0  0  0  0  0
  -31.0819  -14.1889   20.7820 C   0  0  0  0  0  0  0  0  0  0  0  0
  -23.5103  -31.5345   21.8272 C   0  0  0  0  0  0  0  0  0  0  0  0
  -27.6576  -28.4379   17.8735 C   0  0  0  0  0  0  0  0  0  0  0  0
  -26.3729  -26.5457   15.9989 C   0  0  0  0  0  0  0  0  0  0  0  0
  -23.2635  -31.4165   20.3254 C   0  0  0  0  0  0  0  0  0  0  0  0
  -29.5048  -12.4633   18.0966 C   0  0  0  0  0  0  0  0  0  0  0  0
  -22.9427  -29.9735   19.9489 C   0  0  0  0  0  0  0  0  0  0  0  0
  -28.0805  -12.2250   18.6012 C   0  0  0  0  0  0  0  0  0  0  0  0
  -30.5296  -12.3452   19.2225 C   0  0  0  0  0  0  0  0  0  0  0  0
  -28.8333  -12.9539   20.9035 C   0  0  0  0  0  0  0  0  0  0  0  0
  -30.2225  -22.1012   20.0850 C   0  0  0  0  0  0  0  0  0  0  0  0
  -30.6000  -21.1212   18.2616 C   0  0  0  0  0  0  0  0  0  0  0  0
  -24.1161  -29.0432   20.2793 C   0  0  1  0  0  0  0  0  0  0  0  0
  -26.3246  -28.7533   17.2017 C   0  0  1  0  0  0  0  0  0  0  0  0
  -27.7590  -13.1177   19.8149 C   0  0  2  0  0  0  0  0  0  0  0  0
  -30.1232  -22.5370   18.6164 C   0  0  0  0  0  0  0  0  0  1  0  0
  -33.2815  -19.3623   19.1938 C   0  0  0  0  0  0  0  0  0  0  0  0
  -27.0416  -27.6802    9.5638 C   0  0  0  0  0  0  0  0  0  0  0  0
  -22.7594  -27.3682   14.6073 C   0  0  0  0  0  0  0  0  0  0  0  0
  -23.2999  -26.8548   12.2172 C   0  0  0  0  0  0  0  0  0  0  0  0
  -23.2140  -29.2239   12.9936 C   0  0  0  0  0  0  0  0  0  0  0  0
  -29.8658  -27.8681   12.1064 C   0  0  0  0  0  0  0  0  0  0  0  0
  -31.4835  -16.0242   22.4036 C   0  0  0  0  0  0  0  0  0  0  0  0
  -25.1465  -27.7563   13.7033 C   0  0  1  0  0  0  0  0  0  0  0  0
  -27.6842  -28.0199   10.8997 C   0  0  2  0  0  0  0  0  0  0  0  0
  -23.6217  -27.7913   13.4013 C   0  0  0  0  0  0  0  0  0  0  0  0
  -25.8542  -11.6151   20.2584 N   0  0  0  0  0  0  0  0  0  0  0  0
  -26.3624  -12.8560   20.3479 N   0  0  0  0  0  0  0  0  0  0  0  0
  -30.9182  -20.9456   19.6360 N   0  0  0  0  0  0  0  0  0  0  0  0
  -26.1218  -27.9960   15.9650 N   0  0  0  0  0  0  0  0  0  0  0  0
  -30.1674  -13.2178   20.3420 N   0  0  0  0  0  0  0  0  0  0  0  0
  -25.8728  -15.0479   21.1006 N   0  0  0  0  0  0  0  0  0  0  0  0
  -22.1332  -12.7338   22.1281 N   0  0  0  0  0  0  0  0  0  0  0  0
  -25.1560  -29.1669   19.2804 N   0  0  0  0  0  0  0  0  0  0  0  0
  -25.9864  -28.1782   12.5876 N   0  0  0  0  0  0  0  0  0  0  0  0
  -30.6570  -14.9781   21.8437 N   0  0  0  0  0  0  0  0  0  0  0  0
  -29.1061  -27.5754   10.8637 N   0  3  0  0  0  0  0  0  0  0  0  0
  -23.1214  -14.8019   22.1986 O   0  0  0  0  0  0  0  0  0  0  0  0
  -24.2897  -27.6729   17.7184 O   0  0  0  0  0  0  0  0  0  0  0  0
  -25.2985  -29.8477   14.8120 O   0  0  0  0  0  0  0  0  0  0  0  0
  -27.2081  -26.2134   12.4317 O   0  0  0  0  0  0  0  0  0  0  0  0
  -32.1926  -14.3449   20.2633 O   0  0  0  0  0  0  0  0  0  0  0  0
  -21.2441   -7.3182   21.1708 O   0  0  0  0  0  0  0  0  0  0  0  0
  -28.8223  -22.9012   18.1567 O   0  0  0  0  0  0  0  0  0  1  0  0
  -18.6152   -6.4992   25.9481 F   0  0  0  0  0  0  0  0  0  0  0  0
  -21.6170   -4.9899   22.6139 F   0  0  0  0  0  0  0  0  0  0  0  0
  -28.9177  -17.6417   22.9507 Cl  0  0  0  0  0  0  0  0  0  0  0  0
  1  2  1  0  0  0  0
  1  5  2  0  0  0  0
  2  6  2  0  0  0  0
  3  8  2  0  0  0  0
  3 17  1  0  0  0  0
  4  9  1  0  0  0  0
  4 17  2  0  0  0  0
  5 19  1  0  0  0  0
  6 21  1  0  0  0  0
  7 10  2  0  0  0  0
  7 20  1  0  0  0  0
  8 26  1  0  0  0  0
  9 26  2  0  0  0  0
 10 27  1  0  0  0  0
 11 12  2  0  0  0  0
 11 28  1  0  0  0  0
 12 29  1  0  0  0  0
 13 22  1  0  0  0  0
 13 27  2  0  0  0  0
 14 23  1  0  0  0  0
 14 24  2  0  0  0  0
 15 25  1  0  0  0  0
 15 31  2  0  0  0  0
 16 29  2  0  0  0  0
 16 30  1  0  0  0  0
 17 32  1  0  0  0  0
 18 32  1  0  0  0  0
 18 33  2  0  0  0  0
 18 34  1  0  0  0  0
 19 21  2  0  0  0  0
 19 39  1  0  0  0  0
 20 22  2  0  0  0  0
 20 40  1  0  0  0  0
 21 50  1  0  0  0  0
 22 41  1  0  0  0  0
 23 25  2  0  0  0  0
 23 54  1  0  0  0  0
 24 31  1  0  0  0  0
 24 60  1  0  0  0  0
 25 66  1  0  0  0  0
 26 80  1  0  0  0  0
 27 81  1  0  0  0  0
 28 30  2  0  0  0  0
 28 80  1  0  0  0  0
 29 82  1  0  0  0  0
 30 83  1  0  0  0  0
 31 84  1  0  0  0  0
 32 64  2  0  0  0  0
 33 65  1  0  0  0  0
 33 69  1  0  0  0  0
 34 70  1  0  0  0  0
 34 75  2  0  0  0  0
 35 51  1  0  0  0  0
 35 71  1  0  0  0  0
 35 76  2  0  0  0  0
 36 61  1  0  0  0  0
 36 67  1  0  0  0  0
 36 77  2  0  0  0  0
 37 62  1  0  0  0  0
 37 72  1  0  0  0  0
 37 78  2  0  0  0  0
 38 68  1  0  0  0  0
 38 73  1  0  0  0  0
 38 79  2  0  0  0  0
 39 42  1  0  0  0  0
 40 51  1  0  0  0  0
 41 67  1  0  0  0  0
 42 44  1  0  0  0  0
 43 45  1  0  0  0  0
 43 46  1  0  0  0  0
 44 50  1  0  0  0  0
 45 52  1  0  0  0  0
 46 68  1  0  0  0  0
 47 52  1  0  0  0  0
 47 68  1  0  0  0  0
 48 53  1  0  0  0  0
 48 66  1  0  0  0  0
 49 53  1  0  0  0  0
 49 66  1  0  0  0  0
 50 71  1  0  0  0  0
 51 67  1  0  0  0  0
 52 65  1  0  0  0  0
 53 81  1  0  0  0  0
 55 62  1  0  0  0  0
 56 63  1  0  0  0  0
 57 63  1  0  0  0  0
 58 63  1  0  0  0  0
 59 74  1  0  0  0  0
 60 73  1  0  0  0  0
 61 63  1  0  0  0  0
 61 72  1  0  0  0  0
 62 74  1  0  0  0  0
 64 65  1  0  0  0  0
M  CHG  1  74   1
M  ISO  4  38 100  53 101  73 100  81 101
M  END
> <Batch ID>
0030

> <Smiles>
CNC(C)C(=O)NC(C(=O)N1Cc2cc([101O:1][101CH:1]3CN(c4cc(Cl)c(C[100NH:0][100C:0](=O)N5CCCC(n6nc(-c7ccc(Oc8ccc(F)cc8F)cc7)c(C(N)=O)c6N)C5)cc4C)C3)ccc2CC1C(=O)NC1CCCc2ccccc21)C(C)(C)C

> <Shape>
0.272

> <Color>
0.173

> <Negative vol penalty>
0.000

$$$$

  -OEChem-04042321363D

 85 94  0     1  0  0  0  0  0999 V2000
  -27.1587  -34.1596   25.9855 C   0  0  0  0  0  0  0  0  0  0  0  0
  -27.5099  -32.9818   25.3337 C   0  0  0  0  0  0  0  0  0  0  0  0
  -27.5323  -12.5344   21.3032 C   0  0  0  0  0  0  0  0  0  0  0  0
  -26.0638  -12.4880   19.3853 C   0  0  0  0  0  0  0  0  0  0  0  0
  -25.8327  -34.3819   26.3546 C   0  0  0  0  0  0  0  0  0  0  0  0
  -26.5355  -32.0250   25.0516 C   0  0  0  0  0  0  0  0  0  0  0  0
  -26.9143  -30.1955   20.3448 C   0  0  0  0  0  0  0  0  0  0  0  0
  -27.0809  -11.2694   21.6795 C   0  0  0  0  0  0  0  0  0  0  0  0
  -25.6125  -11.2229   19.7615 C   0  0  0  0  0  0  0  0  0  0  0  0
  -27.9060  -29.2444   20.1093 C   0  0  0  0  0  0  0  0  0  0  0  0
  -23.4526   -9.9154   22.0102 C   0  0  0  0  0  0  0  0  0  0  0  0
  -22.0786   -9.6790   21.9694 C   0  0  0  0  0  0  0  0  0  0  0  0
  -28.2770  -20.6467   16.4746 C   0  0  0  0  0  0  0  0  0  0  0  0
  -26.2539  -27.4931   20.2606 C   0  0  0  0  0  0  0  0  0  0  0  0
  -25.5711  -20.8596   15.8303 C   0  0  0  0  0  0  0  0  0  0  0  0
  -22.4323   -7.8989   20.3745 C   0  0  0  0  0  0  0  0  0  0  0  0
  -27.0237  -13.1438   20.1561 C   0  0  0  0  0  0  0  0  0  0  0  0
  -27.7430  -19.8753   15.4425 C   0  0  0  0  0  0  0  0  0  0  0  0
  -27.3999  -15.6415   20.5128 C   0  0  0  0  0  0  0  0  0  0  0  0
  -24.8398  -33.4317   26.0682 C   0  0  0  0  0  0  0  0  0  0  0  0
  -25.5845  -29.8012   20.5512 C   0  0  0  0  0  0  0  0  0  0  0  0
  -25.1952  -32.2343   25.4184 C   0  0  0  0  0  0  0  0  0  0  0  0
  -25.2467  -28.4414   20.4960 C   0  0  0  0  0  0  0  0  0  0  0  0
  -27.4581  -21.5247   17.1846 C   0  0  0  0  0  0  0  0  0  0  0  0
  -26.3900  -19.9817   15.1203 C   0  0  0  0  0  0  0  0  0  0  0  0
  -26.1051  -21.6311   16.8625 C   0  0  0  0  0  0  0  0  0  0  0  0
  -26.1210  -10.6137   20.9087 C   0  0  0  0  0  0  0  0  0  0  0  0
  -27.5764  -27.8927   20.0700 C   0  0  0  0  0  0  0  0  0  0  0  0
  -24.3165   -9.1437   21.2331 C   0  0  0  0  0  0  0  0  0  0  0  0
  -21.5684   -8.6707   21.1515 C   0  0  0  0  0  0  0  0  0  0  0  0
  -23.8064   -8.1354   20.4153 C   0  0  0  0  0  0  0  0  0  0  0  0
  -27.4892  -14.4507   19.7672 C   0  0  0  0  0  0  0  0  0  0  0  0
  -27.9811  -16.5931   19.7108 C   0  0  0  0  0  0  0  0  0  0  0  0
  -28.6276  -18.9590   14.7113 C   0  0  0  0  0  0  0  0  0  0  0  0
  -26.8416  -15.8673   21.8139 C   0  0  0  0  0  0  0  0  0  0  0  0
  -23.5163  -30.0552   22.9515 C   0  0  0  0  0  0  0  0  0  0  0  0
  -21.4500  -28.7977   20.7901 C   0  0  0  0  0  0  0  0  0  0  0  0
  -21.5194  -26.2093   18.2776 C   0  0  0  0  0  0  0  0  0  0  0  0
  -23.4281  -33.6955   26.5289 C   0  0  0  0  0  0  0  0  0  0  0  0
  -24.5219  -30.8414   20.7775 C   0  0  0  0  0  0  0  0  0  0  0  0
  -23.8304  -27.9676   20.6911 C   0  0  0  0  0  0  0  0  0  0  0  0
  -22.3911  -32.7975   25.8593 C   0  0  0  0  0  0  0  0  0  0  0  0
  -30.6775  -16.1334   15.4569 C   0  0  0  0  0  0  0  0  0  0  0  0
  -29.5443  -25.4205   16.5735 C   0  0  0  0  0  0  0  0  0  0  0  0
  -22.8591  -31.3457   25.8644 C   0  0  0  0  0  0  0  0  0  0  0  0
  -30.0141  -15.5275   16.6950 C   0  0  0  0  0  0  0  0  0  0  0  0
  -29.5700  -26.3737   17.7611 C   0  0  0  0  0  0  0  0  0  0  0  0
  -29.6468  -16.7175   14.4942 C   0  0  0  0  0  0  0  0  0  0  0  0
  -28.0547  -17.0895   16.3466 C   0  0  0  0  0  0  0  0  0  0  0  0
  -29.4574  -23.9680   17.0199 C   0  0  0  0  0  0  0  0  0  0  0  0
  -28.3002  -24.6776   19.1288 C   0  0  0  0  0  0  0  0  0  0  0  0
  -24.1624  -31.1835   25.0729 C   0  0  1  0  0  0  0  0  0  0  0  0
  -23.2877  -30.2907   21.4853 C   0  0  1  0  0  0  0  0  0  0  0  0
  -29.0621  -16.5348   17.3670 C   0  0  1  0  0  0  0  0  0  0  0  0
  -28.3861  -26.1344   18.6928 C   0  0  1  0  0  0  0  0  0  1  0  0
  -25.7926  -19.1669   14.0198 C   0  0  0  0  0  0  0  0  0  0  0  0
  -25.2090  -22.5641   17.6087 C   0  0  0  0  0  0  0  0  0  0  0  0
  -20.1903  -25.9503   16.1648 C   0  0  0  0  0  0  0  0  0  0  0  0
  -19.5824  -27.1103   22.5147 C   0  0  0  0  0  0  0  0  0  0  0  0
  -19.2842  -25.5709   20.5629 C   0  0  0  0  0  0  0  0  0  0  0  0
  -18.5645  -27.9532   20.3916 C   0  0  0  0  0  0  0  0  0  0  0  0
  -23.9665  -25.9820   16.6287 C   0  0  0  0  0  0  0  0  0  0  0  0
  -28.0548  -22.3444   18.2904 C   0  0  0  0  0  0  0  0  0  0  0  0
  -21.0317  -27.4012   20.3979 C   0  0  1  0  0  0  0  0  0  0  0  0
  -21.5088  -26.4037   16.7721 C   0  0  2  0  0  0  0  0  0  0  0  0
  -19.6416  -27.0143   20.9771 C   0  0  0  0  0  0  0  0  0  0  0  0
  -28.0804  -14.6271   18.5826 N   0  0  0  0  0  0  0  0  0  0  0  0
  -28.3678  -15.9400   18.5777 N   0  0  0  0  0  0  0  0  0  0  0  0
  -28.7623  -17.6528   15.1881 N   0  0  0  0  0  0  0  0  0  0  0  0
  -22.8283  -29.0224   20.9156 N   0  0  0  0  0  0  0  0  0  0  0  0
  -28.1940  -17.9165   19.8714 N   0  0  0  0  0  0  0  0  0  0  0  0
  -25.4861  -16.2105   21.9090 N   0  0  0  0  0  0  0  0  0  0  0  0
  -23.8938  -31.1856   23.6508 N   0  0  0  0  0  0  0  0  0  0  0  0
  -21.1090  -27.3456   18.9422 N   0  0  0  0  0  0  0  0  0  0  0  0
  -28.2535  -23.7867   17.9136 N   0  3  2  0  0  0  0  0  0  0  0  0
  -22.6100  -25.6225   16.1412 N   0  3  0  0  0  0  0  0  0  0  0  0
  -29.1993  -19.4252   13.7269 O   0  0  0  0  0  0  0  0  0  0  0  0
  -27.5286  -15.7837   22.8602 O   0  0  0  0  0  0  0  0  0  0  0  0
  -23.3601  -28.9313   23.4144 O   0  0  0  0  0  0  0  0  0  0  0  0
  -20.5861  -29.6594   20.9712 O   0  0  0  0  0  0  0  0  0  0  0  0
  -21.8545  -25.1538   18.8106 O   0  0  0  0  0  0  0  0  0  0  0  0
  -25.6805   -9.3791   21.2754 O   0  0  0  0  0  0  0  0  0  0  0  0
  -28.5426  -26.9622   19.8410 O   0  0  0  0  0  0  0  0  0  1  0  0
  -20.2490   -8.4428   21.1136 F   0  0  0  0  0  0  0  0  0  0  0  0
  -24.6315   -7.3900   19.6675 F   0  0  0  0  0  0  0  0  0  0  0  0
  1  2  1  0  0  0  0
  1  5  2  0  0  0  0
  2  6  2  0  0  0  0
  3  8  2  0  0  0  0
  3 17  1  0  0  0  0
  4  9  1  0  0  0  0
  4 17  2  0  0  0  0
  5 20  1  0  0  0  0
  6 22  1  0  0  0  0
  7 10  2  0  0  0  0
  7 21  1  0  0  0  0
  8 27  1  0  0  0  0
  9 27  2  0  0  0  0
 10 28  1  0  0  0  0
 11 12  2  0  0  0  0
 11 29  1  0  0  0  0
 12 30  1  0  0  0  0
 13 18  2  0  0  0  0
 13 24  1  0  0  0  0
 14 23  1  0  0  0  0
 14 28  2  0  0  0  0
 15 25  2  0  0  0  0
 15 26  1  0  0  0  0
 16 30  2  0  0  0  0
 16 31  1  0  0  0  0
 17 32  1  0  0  0  0
 18 25  1  0  0  0  0
 18 34  1  0  0  0  0
 19 32  1  0  0  0  0
 19 33  2  0  0  0  0
 19 35  1  0  0  0  0
 20 22  2  0  0  0  0
 20 39  1  0  0  0  0
 21 23  2  0  0  0  0
 21 40  1  0  0  0  0
 22 52  1  0  0  0  0
 23 41  1  0  0  0  0
 24 26  2  0  0  0  0
 24 63  1  0  0  0  0
 25 56  1  0  0  0  0
 26 57  1  0  0  0  0
 27 82  1  0  0  0  0
 28 83  1  0  0  0  0
 29 31  2  0  0  0  0
 29 82  1  0  0  0  0
 30 84  1  0  0  0  0
 31 85  1  0  0  0  0
 32 67  2  0  0  0  0
 33 68  1  0  0  0  0
 33 71  1  0  0  0  0
 34 69  1  0  0  0  0
 34 77  2  0  0  0  0
 35 72  1  0  0  0  0
 35 78  2  0  0  0  0
 36 53  1  0  0  0  0
 36 73  1  0  0  0  0
 36 79  2  0  0  0  0
 37 64  1  0  0  0  0
 37 70  1  0  0  0  0
 37 80  2  0  0  0  0
 38 65  1  0  0  0  0
 38 74  1  0  0  0  0
 38 81  2  0  0  0  0
 39 42  1  0  0  0  0
 40 53  1  0  0  0  0
 41 70  1  0  0  0  0
 42 45  1  0  0  0  0
 43 46  1  0  0  0  0
 43 48  1  0  0  0  0
 44 47  1  0  0  0  0
 44 50  1  0  0  0  0
 45 52  1  0  0  0  0
 46 54  1  0  0  0  0
 47 55  1  0  0  0  0
 48 69  1  0  0  0  0
 49 54  1  0  0  0  0
 49 69  1  0  0  0  0
 50 75  1  0  0  0  0
 51 55  1  0  0  0  0
 51 75  1  0  0  0  0
 52 73  1  0  0  0  0
 53 70  1  0  0  0  0
 54 68  1  0  0  0  0
 55 83  1  0  0  0  0
 58 65  1  0  0  0  0
 59 66  1  0  0  0  0
 60 66  1  0  0  0  0
 61 66  1  0  0  0  0
 62 76  1  0  0  0  0
 63 75  1  0  0  0  0
 64 66  1  0  0  0  0
 64 74  1  0  0  0  0
 65 76  1  0  0  0  0
 67 68  1  0  0  0  0
M  CHG  2  75   1  76   1
M  ISO  4  18 100  34 100  55 101  83 101
M  END
> <Batch ID>
0030

> <Smiles>
CNC(C)C(=O)NC(C(=O)N1Cc2cc([101O:1][101CH:1]3CCCN(Cc4c[100c:0]([100C:0](=O)N5CCCC(n6nc(-c7ccc(Oc8ccc(F)cc8F)cc7)c(C(N)=O)c6N)C5)c(C)cc4C)C3)ccc2CC1C(=O)NC1CCCc2ccccc21)C(C)(C)C

> <Shape>
0.236

> <Color>
0.073

> <Negative vol penalty>
0.000

$$$$

  -OEChem-04042321363D

 86 95  0     1  0  0  0  0  0999 V2000
  -26.9761  -35.9791   21.3752 C   0  0  0  0  0  0  0  0  0  0  0  0
  -27.3882  -34.6508   21.4133 C   0  0  0  0  0  0  0  0  0  0  0  0
  -24.9709  -13.2722   19.3146 C   0  0  0  0  0  0  0  0  0  0  0  0
  -25.3160  -14.0542   21.5743 C   0  0  0  0  0  0  0  0  0  0  0  0
  -25.7619  -36.3479   21.9527 C   0  0  0  0  0  0  0  0  0  0  0  0
  -26.5867  -33.6908   22.0300 C   0  0  0  0  0  0  0  0  0  0  0  0
  -26.1750  -29.4523   19.2894 C   0  0  0  0  0  0  0  0  0  0  0  0
  -25.4466  -12.0123   19.6779 C   0  0  0  0  0  0  0  0  0  0  0  0
  -25.7917  -12.7943   21.9377 C   0  0  0  0  0  0  0  0  0  0  0  0
  -27.2503  -28.5656   19.3228 C   0  0  0  0  0  0  0  0  0  0  0  0
  -24.2768   -9.2756   21.2825 C   0  0  0  0  0  0  0  0  0  0  0  0
  -23.5605   -8.1615   20.8454 C   0  0  0  0  0  0  0  0  0  0  0  0
  -26.0695  -27.2035   20.9258 C   0  0  0  0  0  0  0  0  0  0  0  0
  -28.7447  -22.1862   24.1040 C   0  0  0  0  0  0  0  0  0  0  0  0
  -29.2538  -22.6666   21.4035 C   0  0  0  0  0  0  0  0  0  0  0  0
  -25.5124   -7.3713   19.6610 C   0  0  0  0  0  0  0  0  0  0  0  0
  -24.9056  -14.2932   20.2628 C   0  0  0  0  0  0  0  0  0  0  0  0
  -23.0826  -16.0473   19.9352 C   0  0  0  0  0  0  0  0  0  0  0  0
  -24.9406  -35.3902   22.5683 C   0  0  0  0  0  0  0  0  0  0  0  0
  -25.0415  -29.2267   20.0835 C   0  0  0  0  0  0  0  0  0  0  0  0
  -25.3609  -34.0474   22.6175 C   0  0  0  0  0  0  0  0  0  0  0  0
  -24.9801  -28.0876   20.8988 C   0  0  0  0  0  0  0  0  0  0  0  0
  -29.8182  -22.9942   23.7297 C   0  0  0  0  0  0  0  0  0  0  0  0
  -27.9257  -21.6182   23.1281 C   0  0  0  0  0  0  0  0  0  0  0  0
  -30.0728  -23.2345   22.3794 C   0  0  0  0  0  0  0  0  0  0  0  0
  -28.1802  -21.8585   21.7778 C   0  0  0  0  0  0  0  0  0  0  0  0
  -25.8569  -11.7733   20.9894 C   0  0  0  0  0  0  0  0  0  0  0  0
  -27.1989  -27.4425   20.1432 C   0  0  0  0  0  0  0  0  0  0  0  0
  -25.6109   -9.4377   20.9089 C   0  0  0  0  0  0  0  0  0  0  0  0
  -24.1783   -7.2093   20.0347 C   0  0  0  0  0  0  0  0  0  0  0  0
  -26.2287   -8.4855   20.0982 C   0  0  0  0  0  0  0  0  0  0  0  0
  -24.4149  -15.5950   19.8880 C   0  0  0  0  0  0  0  0  0  0  0  0
  -23.1429  -17.3414   19.4790 C   0  0  0  0  0  0  0  0  0  0  0  0
  -31.1325  -25.5069   19.8622 C   0  0  0  0  0  0  0  0  0  0  0  0
  -21.8965  -15.3591   20.3539 C   0  0  0  0  0  0  0  0  0  0  0  0
  -23.6074  -30.7996   22.4443 C   0  0  0  0  0  0  0  0  0  0  0  0
  -21.3753  -28.4686   22.1186 C   0  0  0  0  0  0  0  0  0  0  0  0
  -20.6233  -25.2992   21.1005 C   0  0  0  0  0  0  0  0  0  0  0  0
  -27.4898  -21.4404   19.3914 C   0  0  0  0  0  0  0  0  0  0  0  0
  -23.6588  -35.8447   23.2205 C   0  0  0  0  0  0  0  0  0  0  0  0
  -23.8788  -30.1786   20.0160 C   0  0  0  0  0  0  0  0  0  0  0  0
  -23.7777  -27.7892   21.7553 C   0  0  0  0  0  0  0  0  0  0  0  0
  -30.5507  -26.8553   19.5045 C   0  0  0  0  0  0  0  0  0  0  0  0
  -22.6924  -34.7030   23.5252 C   0  0  0  0  0  0  0  0  0  0  0  0
  -25.6974  -20.1771   16.5863 C   0  0  0  0  0  0  0  0  0  0  0  0
  -23.4290  -33.5418   24.1853 C   0  0  0  0  0  0  0  0  0  0  0  0
  -25.0389  -18.9032   17.1207 C   0  0  0  0  0  0  0  0  0  0  0  0
  -27.0907  -20.3860   17.1770 C   0  0  0  0  0  0  0  0  0  0  0  0
  -26.4964  -19.0775   19.1779 C   0  0  0  0  0  0  0  0  0  0  0  0
  -30.0050  -26.3044   21.7848 C   0  0  0  0  0  0  0  0  0  0  0  0
  -24.5076  -32.9727   23.2555 C   0  0  1  0  0  0  0  0  0  0  0  0
  -22.9887  -30.1233   21.2537 C   0  0  1  0  0  0  0  0  0  0  0  0
  -25.0651  -18.8587   18.6611 C   0  0  2  0  0  0  0  0  0  0  0  0
  -29.5064  -27.0977   20.5910 C   0  0  2  0  0  0  0  0  0  1  0  0
  -30.6816  -23.5911   24.7921 C   0  0  0  0  0  0  0  0  0  0  0  0
  -26.7828  -20.7568   23.5578 C   0  0  0  0  0  0  0  0  0  0  0  0
  -18.7247  -23.6614   20.9981 C   0  0  0  0  0  0  0  0  0  0  0  0
  -21.6775  -27.9351   25.1076 C   0  0  0  0  0  0  0  0  0  0  0  0
  -20.5210  -25.7415   24.7621 C   0  0  0  0  0  0  0  0  0  0  0  0
  -19.3219  -27.8728   24.2697 C   0  0  0  0  0  0  0  0  0  0  0  0
  -20.7480  -25.1622   18.1468 C   0  0  0  0  0  0  0  0  0  0  0  0
  -31.2225  -24.1006   21.9527 C   0  0  0  0  0  0  0  0  0  0  0  0
  -21.1633  -27.0999   22.7193 C   0  0  1  0  0  0  0  0  0  0  0  0
  -19.4816  -24.7552   20.2608 C   0  0  2  0  0  0  0  0  0  0  0  0
  -20.6945  -27.1687   24.2001 C   0  0  0  0  0  0  0  0  0  0  0  0
  -25.2598  -16.5261   19.4373 N   0  0  0  0  0  0  0  0  0  0  0  0
  -24.4565  -17.5764   19.1970 N   0  0  0  0  0  0  0  0  0  0  0  0
  -30.7824  -25.2442   21.1828 N   0  0  0  0  0  0  0  0  0  0  0  0
  -22.6690  -28.7531   21.6593 N   0  0  0  0  0  0  0  0  0  0  0  0
  -27.0371  -20.3356   18.6396 N   0  0  0  0  0  0  0  0  0  0  0  0
  -22.1999  -18.2898   19.2956 N   0  0  0  0  0  0  0  0  0  0  0  0
  -22.0133  -14.0335   20.7940 N   0  0  0  0  0  0  0  0  0  0  0  0
  -27.3597  -21.2908   20.7718 N   0  0  0  0  0  0  0  0  0  0  0  0
  -23.9082  -32.1328   22.2407 N   0  0  0  0  0  0  0  0  0  0  0  0
  -20.2386  -26.4033   21.8315 N   0  0  0  0  0  0  0  0  0  0  0  0
  -20.0017  -24.1884   18.9844 N   0  3  0  0  0  0  0  0  0  0  0  0
  -31.8178  -24.8270   19.1126 O   0  0  0  0  0  0  0  0  0  0  0  0
  -20.7643  -15.8981   20.3229 O   0  0  0  0  0  0  0  0  0  0  0  0
  -23.7965  -30.1596   23.4721 O   0  0  0  0  0  0  0  0  0  0  0  0
  -20.4261  -29.2536   22.0527 O   0  0  0  0  0  0  0  0  0  0  0  0
  -21.7432  -24.7930   21.1100 O   0  0  0  0  0  0  0  0  0  0  0  0
  -27.9332  -22.4562   18.8496 O   0  0  0  0  0  0  0  0  0  0  0  0
  -26.3209  -10.5440   21.3443 O   0  0  0  0  0  0  0  0  0  0  0  0
  -28.2474  -26.5757   20.1782 O   0  0  0  0  0  0  0  0  0  1  0  0
  -23.4908   -6.1386   19.6162 F   0  0  0  0  0  0  0  0  0  0  0  0
  -27.5105   -8.6351   19.7369 F   0  0  0  0  0  0  0  0  0  0  0  0
  1  2  1  0  0  0  0
  1  5  2  0  0  0  0
  2  6  2  0  0  0  0
  3  8  2  0  0  0  0
  3 17  1  0  0  0  0
  4  9  1  0  0  0  0
  4 17  2  0  0  0  0
  5 19  1  0  0  0  0
  6 21  1  0  0  0  0
  7 10  2  0  0  0  0
  7 20  1  0  0  0  0
  8 27  1  0  0  0  0
  9 27  2  0  0  0  0
 10 28  1  0  0  0  0
 11 12  2  0  0  0  0
 11 29  1  0  0  0  0
 12 30  1  0  0  0  0
 13 22  1  0  0  0  0
 13 28  2  0  0  0  0
 14 23  1  0  0  0  0
 14 24  2  0  0  0  0
 15 25  1  0  0  0  0
 15 26  2  0  0  0  0
 16 30  2  0  0  0  0
 16 31  1  0  0  0  0
 17 32  1  0  0  0  0
 18 32  1  0  0  0  0
 18 33  2  0  0  0  0
 18 35  1  0  0  0  0
 19 21  2  0  0  0  0
 19 40  1  0  0  0  0
 20 22  2  0  0  0  0
 20 41  1  0  0  0  0
 21 51  1  0  0  0  0
 22 42  1  0  0  0  0
 23 25  2  0  0  0  0
 23 55  1  0  0  0  0
 24 26  1  0  0  0  0
 24 56  1  0  0  0  0
 25 62  1  0  0  0  0
 26 73  1  0  0  0  0
 27 83  1  0  0  0  0
 28 84  1  0  0  0  0
 29 31  2  0  0  0  0
 29 83  1  0  0  0  0
 30 85  1  0  0  0  0
 31 86  1  0  0  0  0
 32 66  2  0  0  0  0
 33 67  1  0  0  0  0
 33 71  1  0  0  0  0
 34 43  1  0  0  0  0
 34 68  1  0  0  0  0
 34 77  2  0  0  0  0
 35 72  1  0  0  0  0
 35 78  2  0  0  0  0
 36 52  1  0  0  0  0
 36 74  1  0  0  0  0
 36 79  2  0  0  0  0
 37 63  1  0  0  0  0
 37 69  1  0  0  0  0
 37 80  2  0  0  0  0
 38 64  1  0  0  0  0
 38 75  1  0  0  0  0
 38 81  2  0  0  0  0
 39 70  1  0  0  0  0
 39 73  1  0  0  0  0
 39 82  2  0  0  0  0
 40 44  1  0  0  0  0
 41 52  1  0  0  0  0
 42 69  1  0  0  0  0
 43 54  1  0  0  0  0
 44 46  1  0  0  0  0
 45 47  1  0  0  0  0
 45 48  1  0  0  0  0
 46 51  1  0  0  0  0
 47 53  1  0  0  0  0
 48 70  1  0  0  0  0
 49 53  1  0  0  0  0
 49 70  1  0  0  0  0
 50 54  1  0  0  0  0
 50 68  1  0  0  0  0
 51 74  1  0  0  0  0
 52 69  1  0  0  0  0
 53 67  1  0  0  0  0
 54 84  1  0  0  0  0
 57 64  1  0  0  0  0
 58 65  1  0  0  0  0
 59 65  1  0  0  0  0
 60 65  1  0  0  0  0
 61 76  1  0  0  0  0
 62 68  1  0  0  0  0
 63 65  1  0  0  0  0
 63 75  1  0  0  0  0
 64 76  1  0  0  0  0
 66 67  1  0  0  0  0
M  CHG  1  76   1
M  ISO  4  39 100  54 101  73 100  84 101
M  END
> <Batch ID>
0030

> <Smiles>
CNC(C)C(=O)NC(C(=O)N1Cc2cc([101O:1][101CH:1]3CC(=O)N(Cc4cc([100NH:0][100C:0](=O)N5CCCC(n6nc(-c7ccc(Oc8ccc(F)cc8F)cc7)c(C(N)=O)c6N)C5)c(C)cc4C)C3)ccc2CC1C(=O)NC1CCCc2ccccc21)C(C)(C)C

> <Shape>
0.241

> <Color>
0.073

> <Negative vol penalty>
0.000

$$$$

  -OEChem-04042321363D

 85 94  0     1  0  0  0  0  0999 V2000
  -32.4087  -13.8316   21.1196 C   0  0  0  0  0  0  0  0  0  0  0  0
  -31.6549  -14.9690   21.3907 C   0  0  0  0  0  0  0  0  0  0  0  0
  -19.4080  -25.6391   25.6315 C   0  0  0  0  0  0  0  0  0  0  0  0
  -27.4664  -29.0685   19.2744 C   0  0  0  0  0  0  0  0  0  0  0  0
  -25.9813  -27.1946   19.6205 C   0  0  0  0  0  0  0  0  0  0  0  0
  -31.8321  -12.7607   20.4380 C   0  0  0  0  0  0  0  0  0  0  0  0
  -30.3243  -15.0366   20.9794 C   0  0  0  0  0  0  0  0  0  0  0  0
  -25.7047  -17.8016   23.8983 C   0  0  0  0  0  0  0  0  0  0  0  0
  -20.0546  -26.6888   26.2839 C   0  0  0  0  0  0  0  0  0  0  0  0
  -20.1011  -24.4627   25.3463 C   0  0  0  0  0  0  0  0  0  0  0  0
  -28.3530  -28.2391   18.5878 C   0  0  0  0  0  0  0  0  0  0  0  0
  -26.8679  -26.3651   18.9338 C   0  0  0  0  0  0  0  0  0  0  0  0
  -25.1000  -19.0465   23.7301 C   0  0  0  0  0  0  0  0  0  0  0  0
  -28.9083  -23.6769   17.5847 C   0  0  0  0  0  0  0  0  0  0  0  0
  -29.1899  -22.4284   18.1394 C   0  0  0  0  0  0  0  0  0  0  0  0
  -23.3893  -18.0250   22.3702 C   0  0  0  0  0  0  0  0  0  0  0  0
  -30.0539  -23.5044   20.1225 C   0  0  0  0  0  0  0  0  0  0  0  0
  -26.2806  -28.5463   19.7909 C   0  0  0  0  0  0  0  0  0  0  0  0
  -24.2999  -30.1454   19.9565 C   0  0  0  0  0  0  0  0  0  0  0  0
  -30.4909  -12.8113   20.0266 C   0  0  0  0  0  0  0  0  0  0  0  0
  -25.1614  -16.6589   23.2938 C   0  0  0  0  0  0  0  0  0  0  0  0
  -29.7295  -13.9659   20.2905 C   0  0  0  0  0  0  0  0  0  0  0  0
  -23.9875  -16.7664   22.5345 C   0  0  0  0  0  0  0  0  0  0  0  0
  -21.3943  -26.5622   26.6510 C   0  0  0  0  0  0  0  0  0  0  0  0
  -21.4408  -24.3360   25.7134 C   0  0  0  0  0  0  0  0  0  0  0  0
  -22.0875  -25.3857   26.3657 C   0  0  0  0  0  0  0  0  0  0  0  0
  -28.0538  -26.8874   18.4174 C   0  0  0  0  0  0  0  0  0  0  0  0
  -23.9438  -19.1589   22.9636 C   0  0  0  0  0  0  0  0  0  0  0  0
  -29.1995  -24.8391   18.2989 C   0  0  0  0  0  0  0  0  0  0  0  0
  -29.7627  -22.3422   19.4083 C   0  0  0  0  0  0  0  0  0  0  0  0
  -29.7723  -24.7529   19.5678 C   0  0  0  0  0  0  0  0  0  0  0  0
  -25.3646  -29.4024   20.5008 C   0  0  0  0  0  0  0  0  0  0  0  0
  -23.7414  -30.7861   21.0354 C   0  0  0  0  0  0  0  0  0  0  0  0
  -23.8555  -30.2471   18.5971 C   0  0  0  0  0  0  0  0  0  0  0  0
  -26.1815  -14.5661   21.1297 C   0  0  0  0  0  0  0  0  0  0  0  0
  -23.4130  -13.0446   21.8663 C   0  0  0  0  0  0  0  0  0  0  0  0
  -20.2329  -13.2458   23.0885 C   0  0  0  0  0  0  0  0  0  0  0  0
  -23.6367  -29.5663   26.8964 C   0  0  0  0  0  0  0  0  0  0  0  0
  -29.9250  -11.6480   19.2512 C   0  0  0  0  0  0  0  0  0  0  0  0
  -25.8106  -15.3189   23.5070 C   0  0  0  0  0  0  0  0  0  0  0  0
  -23.3530  -15.5668   21.8812 C   0  0  0  0  0  0  0  0  0  0  0  0
  -28.4002  -11.6479   19.1795 C   0  0  0  0  0  0  0  0  0  0  0  0
  -24.8627  -32.5286   25.3478 C   0  0  0  0  0  0  0  0  0  0  0  0
  -27.8827  -13.0363   18.8171 C   0  0  0  0  0  0  0  0  0  0  0  0
  -25.0343  -32.1303   23.8809 C   0  0  0  0  0  0  0  0  0  0  0  0
  -23.5069  -22.6430   21.9724 C   0  0  0  0  0  0  0  0  0  0  0  0
  -25.2127  -31.3785   26.2895 C   0  0  0  0  0  0  0  0  0  0  0  0
  -24.6712  -29.7182   24.5506 C   0  0  0  0  0  0  0  0  0  0  0  0
  -22.4341  -23.1853   22.8952 C   0  0  0  0  0  0  0  0  0  0  0  0
  -24.2147  -22.1473   24.2188 C   0  0  0  0  0  0  0  0  0  0  0  0
  -28.2758  -14.0669   19.8824 C   0  0  1  0  0  0  0  0  0  0  0  0
  -25.4601  -14.3057   22.4218 C   0  0  1  0  0  0  0  0  0  0  0  0
  -24.2763  -30.8279   23.5611 C   0  0  2  0  0  0  0  0  0  0  0  0
  -24.1697  -21.5662   22.8142 C   0  0  1  0  0  0  0  0  0  1  0  0
  -23.5240  -25.2500   26.7593 C   0  0  0  0  0  0  0  0  0  0  0  0
  -18.2003  -11.8424   23.5315 C   0  0  0  0  0  0  0  0  0  0  0  0
  -22.7641  -13.0476   18.8849 C   0  0  0  0  0  0  0  0  0  0  0  0
  -20.3868  -12.5267   19.4729 C   0  0  0  0  0  0  0  0  0  0  0  0
  -22.1989  -10.9210   20.0734 C   0  0  0  0  0  0  0  0  0  0  0  0
  -20.3318  -13.8124   25.9916 C   0  0  0  0  0  0  0  0  0  0  0  0
  -22.0634  -27.7010   27.3489 C   0  0  0  0  0  0  0  0  0  0  0  0
  -22.1632  -23.0601   25.3952 C   0  0  0  0  0  0  0  0  0  0  0  0
  -21.9955  -13.0942   21.3493 C   0  0  1  0  0  0  0  0  0  0  0  0
  -19.4909  -12.4022   24.1093 C   0  0  2  0  0  0  0  0  0  0  0  0
  -21.8491  -12.4205   19.9557 C   0  0  0  0  0  0  0  0  0  0  0  0
  -25.4778  -29.5562   21.8228 N   0  0  0  0  0  0  0  0  0  0  0  0
  -24.4771  -30.4032   22.1181 N   0  0  0  0  0  0  0  0  0  0  0  0
  -24.0287  -14.2796   22.1139 N   0  0  0  0  0  0  0  0  0  0  0  0
  -24.4590  -30.1739   25.9333 N   0  0  0  0  0  0  0  0  0  0  0  0
  -22.6978  -31.6342   21.1540 N   0  0  0  0  0  0  0  0  0  0  0  0
  -24.5422  -29.5223   17.6136 N   0  0  0  0  0  0  0  0  0  0  0  0
  -27.4153  -13.9504   21.0402 N   0  0  0  0  0  0  0  0  0  0  0  0
  -21.1607  -12.5029   22.3895 N   0  0  0  0  0  0  0  0  0  0  0  0
  -22.9526  -28.4328   26.4745 N   0  0  0  0  0  0  0  0  0  0  0  0
  -23.1103  -23.1941   24.2463 N   0  3  2  0  0  0  0  0  0  0  0  0
  -19.1531  -13.2191   25.3092 N   0  3  0  0  0  0  0  0  0  0  0  0
  -22.8885  -30.9726   18.2621 O   0  0  0  0  0  0  0  0  0  0  0  0
  -25.6569  -15.2721   20.2765 O   0  0  0  0  0  0  0  0  0  0  0  0
  -23.9515  -11.9502   22.0508 O   0  0  0  0  0  0  0  0  0  0  0  0
  -20.0092  -14.4432   22.9248 O   0  0  0  0  0  0  0  0  0  0  0  0
  -23.5166  -30.0047   28.0455 O   0  0  0  0  0  0  0  0  0  0  0  0
  -28.9186  -26.0778   17.7472 O   0  0  0  0  0  0  0  0  0  0  0  0
  -23.3519  -20.3729   22.7972 O   0  0  0  0  0  0  0  0  0  1  0  0
  -30.0317  -21.1432   19.9414 F   0  0  0  0  0  0  0  0  0  0  0  0
  -30.0533  -25.8659   20.2592 F   0  0  0  0  0  0  0  0  0  0  0  0
  1  2  1  0  0  0  0
  1  6  2  0  0  0  0
  2  7  2  0  0  0  0
  3  9  1  0  0  0  0
  3 10  2  0  0  0  0
  4 11  2  0  0  0  0
  4 18  1  0  0  0  0
  5 12  1  0  0  0  0
  5 18  2  0  0  0  0
  6 20  1  0  0  0  0
  7 22  1  0  0  0  0
  8 13  2  0  0  0  0
  8 21  1  0  0  0  0
  9 24  2  0  0  0  0
 10 25  1  0  0  0  0
 11 27  1  0  0  0  0
 12 27  2  0  0  0  0
 13 28  1  0  0  0  0
 14 15  2  0  0  0  0
 14 29  1  0  0  0  0
 15 30  1  0  0  0  0
 16 23  1  0  0  0  0
 16 28  2  0  0  0  0
 17 30  2  0  0  0  0
 17 31  1  0  0  0  0
 18 32  1  0  0  0  0
 19 32  1  0  0  0  0
 19 33  2  0  0  0  0
 19 34  1  0  0  0  0
 20 22  2  0  0  0  0
 20 39  1  0  0  0  0
 21 23  2  0  0  0  0
 21 40  1  0  0  0  0
 22 51  1  0  0  0  0
 23 41  1  0  0  0  0
 24 26  1  0  0  0  0
 24 61  1  0  0  0  0
 25 26  2  0  0  0  0
 25 62  1  0  0  0  0
 26 55  1  0  0  0  0
 27 82  1  0  0  0  0
 28 83  1  0  0  0  0
 29 31  2  0  0  0  0
 29 82  1  0  0  0  0
 30 84  1  0  0  0  0
 31 85  1  0  0  0  0
 32 66  2  0  0  0  0
 33 67  1  0  0  0  0
 33 70  1  0  0  0  0
 34 71  1  0  0  0  0
 34 77  2  0  0  0  0
 35 52  1  0  0  0  0
 35 72  1  0  0  0  0
 35 78  2  0  0  0  0
 36 63  1  0  0  0  0
 36 68  1  0  0  0  0
 36 79  2  0  0  0  0
 37 64  1  0  0  0  0
 37 73  1  0  0  0  0
 37 80  2  0  0  0  0
 38 69  1  0  0  0  0
 38 74  1  0  0  0  0
 38 81  2  0  0  0  0
 39 42  1  0  0  0  0
 40 52  1  0  0  0  0
 41 68  1  0  0  0  0
 42 44  1  0  0  0  0
 43 45  1  0  0  0  0
 43 47  1  0  0  0  0
 44 51  1  0  0  0  0
 45 53  1  0  0  0  0
 46 49  1  0  0  0  0
 46 54  1  0  0  0  0
 47 69  1  0  0  0  0
 48 53  1  0  0  0  0
 48 69  1  0  0  0  0
 49 75  1  0  0  0  0
 50 54  1  0  0  0  0
 50 75  1  0  0  0  0
 51 72  1  0  0  0  0
 52 68  1  0  0  0  0
 53 67  1  0  0  0  0
 54 83  1  0  0  0  0
 56 64  1  0  0  0  0
 57 65  1  0  0  0  0
 58 65  1  0  0  0  0
 59 65  1  0  0  0  0
 60 76  1  0  0  0  0
 61 74  1  0  0  0  0
 62 75  1  0  0  0  0
 63 65  1  0  0  0  0
 63 73  1  0  0  0  0
 64 76  1  0  0  0  0
 66 67  1  0  0  0  0
M  CHG  2  75   1  76   1
M  ISO  4  38 100  54 101  74 100  83 101
M  END
> <Batch ID>
0030

> <Smiles>
CNC(C)C(=O)NC(C(=O)N1Cc2cc([101O:1][101CH:1]3CCN(Cc4cccc(C[100NH:0][100C:0](=O)N5CCCC(n6nc(-c7ccc(Oc8ccc(F)cc8F)cc7)c(C(N)=O)c6N)C5)c4C)C3)ccc2CC1C(=O)NC1CCCc2ccccc21)C(C)(C)C

> <Shape>
0.232

> <Color>
0.062

> <Negative vol penalty>
0.000

$$$$

  -OEChem-04042321363D

 86 95  0     1  0  0  0  0  0999 V2000
  -27.5098  -24.4667   17.0534 C   0  0  0  0  0  0  0  0  0  0  0  0
  -26.3396  -24.7891   17.7331 C   0  0  0  0  0  0  0  0  0  0  0  0
  -25.1300  -12.5640   21.8318 C   0  0  0  0  0  0  0  0  0  0  0  0
  -26.3335  -12.1684   19.7746 C   0  0  0  0  0  0  0  0  0  0  0  0
  -28.7427  -24.8821   17.5546 C   0  0  0  0  0  0  0  0  0  0  0  0
  -26.4017  -25.5263   18.9151 C   0  0  0  0  0  0  0  0  0  0  0  0
  -22.9417  -29.2201   19.0851 C   0  0  0  0  0  0  0  0  0  0  0  0
  -24.7529  -11.2216   21.8694 C   0  0  0  0  0  0  0  0  0  0  0  0
  -25.9564  -10.8260   19.8121 C   0  0  0  0  0  0  0  0  0  0  0  0
  -21.6323  -28.8523   19.3918 C   0  0  0  0  0  0  0  0  0  0  0  0
  -22.4557   -9.2377   20.3825 C   0  0  0  0  0  0  0  0  0  0  0  0
  -21.1255   -8.9472   20.6854 C   0  0  0  0  0  0  0  0  0  0  0  0
  -19.7636  -23.6848   20.1214 C   0  0  0  0  0  0  0  0  0  0  0  0
  -21.9708  -29.5697   21.6700 C   0  0  0  0  0  0  0  0  0  0  0  0
  -21.5524  -23.5771   21.7228 C   0  0  0  0  0  0  0  0  0  0  0  0
  -21.8408   -7.6868   22.6185 C   0  0  0  0  0  0  0  0  0  0  0  0
  -25.9203  -13.0374   20.7844 C   0  0  0  0  0  0  0  0  0  0  0  0
  -27.4639  -14.9994   21.3091 C   0  0  0  0  0  0  0  0  0  0  0  0
  -28.8193  -25.6331   18.7381 C   0  0  0  0  0  0  0  0  0  0  0  0
  -23.7803  -29.7562   20.0729 C   0  0  0  0  0  0  0  0  0  0  0  0
  -27.6370  -25.9510   19.4333 C   0  0  0  0  0  0  0  0  0  0  0  0
  -20.2614  -22.5475   19.4576 C   0  0  0  0  0  0  0  0  0  0  0  0
  -23.2896  -29.9458   21.3726 C   0  0  0  0  0  0  0  0  0  0  0  0
  -22.0583  -22.4465   21.0776 C   0  0  0  0  0  0  0  0  0  0  0  0
  -21.4193  -21.9046   19.9473 C   0  0  0  0  0  0  0  0  0  0  0  0
  -20.4028  -24.1939   21.2481 C   0  0  0  0  0  0  0  0  0  0  0  0
  -25.1662  -10.3526   20.8596 C   0  0  0  0  0  0  0  0  0  0  0  0
  -21.1476  -29.0244   20.6851 C   0  0  0  0  0  0  0  0  0  0  0  0
  -23.4785   -8.7527   21.1976 C   0  0  0  0  0  0  0  0  0  0  0  0
  -20.8180   -8.1718   21.8034 C   0  0  0  0  0  0  0  0  0  0  0  0
  -23.1711   -7.9773   22.3156 C   0  0  0  0  0  0  0  0  0  0  0  0
  -26.3097  -14.4241   20.7447 C   0  0  0  0  0  0  0  0  0  0  0  0
  -27.3703  -16.3337   20.9968 C   0  0  0  0  0  0  0  0  0  0  0  0
  -28.5258  -14.3829   22.0494 C   0  0  0  0  0  0  0  0  0  0  0  0
  -26.5250  -28.8692   21.4084 C   0  0  0  0  0  0  0  0  0  0  0  0
  -26.3112  -31.7677   22.8489 C   0  0  0  0  0  0  0  0  0  0  0  0
  -24.3320  -34.3412   23.9009 C   0  0  0  0  0  0  0  0  0  0  0  0
  -22.8271  -19.8537   19.9505 C   0  0  0  0  0  0  0  0  0  0  0  0
  -30.1783  -26.0193   19.2662 C   0  0  0  0  0  0  0  0  0  0  0  0
  -25.1818  -30.1726   19.7195 C   0  0  0  0  0  0  0  0  0  0  0  0
  -24.1432  -30.5360   22.4643 C   0  0  0  0  0  0  0  0  0  0  0  0
  -30.1306  -27.1176   20.3253 C   0  0  0  0  0  0  0  0  0  0  0  0
  -25.5680  -19.3062   17.7241 C   0  0  0  0  0  0  0  0  0  0  0  0
  -29.0486  -26.8171   21.3576 C   0  0  0  0  0  0  0  0  0  0  0  0
  -26.1699  -18.0231   18.2932 C   0  0  0  0  0  0  0  0  0  0  0  0
  -19.8737  -20.5905   17.9473 C   0  0  0  0  0  0  0  0  0  0  0  0
  -24.0397  -19.3031   17.7853 C   0  0  0  0  0  0  0  0  0  0  0  0
  -21.3799  -20.3842   17.9783 C   0  0  0  0  0  0  0  0  0  0  0  0
  -24.1007  -17.7377   19.7056 C   0  0  0  0  0  0  0  0  0  0  0  0
  -19.5174  -22.0489   18.2356 C   0  0  2  0  0  0  0  0  0  0  0  0
  -27.6615  -26.7704   20.7054 C   0  0  1  0  0  0  0  0  0  0  0  0
  -26.1105  -30.2313   20.9283 C   0  0  1  0  0  0  0  0  0  0  0  0
  -25.6365  -17.7491   19.7096 C   0  0  1  0  0  0  0  0  0  0  0  0
  -23.3812  -21.9735   21.5996 C   0  0  0  0  0  0  0  0  0  0  0  0
  -19.7882  -22.9521   17.0271 C   0  0  0  0  0  0  0  0  0  0  0  0
  -24.4391  -36.5542   25.0793 C   0  0  0  0  0  0  0  0  0  0  0  0
  -26.6548  -30.3276   25.5169 C   0  0  0  0  0  0  0  0  0  0  0  0
  -25.8159  -32.3913   26.6595 C   0  0  0  0  0  0  0  0  0  0  0  0
  -27.9191  -32.4765   25.3209 C   0  0  0  0  0  0  0  0  0  0  0  0
  -23.2573  -35.7777   21.5471 C   0  0  0  0  0  0  0  0  0  0  0  0
  -18.4512  -27.2503   22.3140 C   0  0  0  0  0  0  0  0  0  0  0  0
  -18.7182  -26.0233   21.4506 C   0  0  0  0  0  0  0  0  0  0  0  0
  -19.6136  -28.2362   22.3226 C   0  0  0  0  0  0  0  0  0  1  0  0
  -25.6980  -32.2829   24.1286 C   0  0  1  0  0  0  0  0  0  0  0  0
  -24.4613  -35.8445   23.7345 C   0  0  2  0  0  0  0  0  0  0  0  0
  -26.5062  -31.8567   25.3866 C   0  0  0  0  0  0  0  0  0  0  0  0
  -25.5393  -15.3196   20.1213 N   0  0  0  0  0  0  0  0  0  0  0  0
  -26.2107  -16.4711   20.2921 N   0  0  0  0  0  0  0  0  0  0  0  0
  -21.9556  -20.7437   19.2845 N   0  0  0  0  0  0  0  0  0  0  0  0
  -25.5084  -30.9217   22.0707 N   0  0  0  0  0  0  0  0  0  0  0  0
  -23.5653  -18.9767   19.1362 N   0  0  0  0  0  0  0  0  0  0  0  0
  -28.1676  -17.3910   21.2591 N   0  0  0  0  0  0  0  0  0  0  0  0
  -28.4651  -13.0019   22.2803 N   0  0  0  0  0  0  0  0  0  0  0  0
  -19.8912  -25.3360   21.8964 N   0  0  0  0  0  0  0  0  0  0  0  0
  -27.1757  -28.1103   20.4544 N   0  0  0  0  0  0  0  0  0  0  0  0
  -25.5645  -33.7265   23.9650 N   0  0  0  0  0  0  0  0  0  0  0  0
  -23.3406  -36.3723   22.9060 N   0  3  0  0  0  0  0  0  0  0  0  0
  -29.4913  -15.0400   22.5070 O   0  0  0  0  0  0  0  0  0  0  0  0
  -26.2744  -28.5322   22.5597 O   0  0  0  0  0  0  0  0  0  0  0  0
  -27.4575  -32.1092   22.5473 O   0  0  0  0  0  0  0  0  0  0  0  0
  -23.2461  -33.7698   23.9711 O   0  0  0  0  0  0  0  0  0  0  0  0
  -22.9068  -19.8106   21.1844 O   0  0  0  0  0  0  0  0  0  0  0  0
  -24.7986   -9.0426   20.8960 O   0  0  0  0  0  0  0  0  0  0  0  0
  -19.8610  -28.6632   20.9894 O   0  0  0  0  0  0  0  0  0  1  0  0
  -19.5405   -7.8942   22.0950 F   0  0  0  0  0  0  0  0  0  0  0  0
  -24.1493   -7.5096   23.1030 F   0  0  0  0  0  0  0  0  0  0  0  0
  1  2  1  0  0  0  0
  1  5  2  0  0  0  0
  2  6  2  0  0  0  0
  3  8  2  0  0  0  0
  3 17  1  0  0  0  0
  4  9  1  0  0  0  0
  4 17  2  0  0  0  0
  5 19  1  0  0  0  0
  6 21  1  0  0  0  0
  7 10  2  0  0  0  0
  7 20  1  0  0  0  0
  8 27  1  0  0  0  0
  9 27  2  0  0  0  0
 10 28  1  0  0  0  0
 11 12  2  0  0  0  0
 11 29  1  0  0  0  0
 12 30  1  0  0  0  0
 13 22  1  0  0  0  0
 13 26  2  0  0  0  0
 14 23  1  0  0  0  0
 14 28  2  0  0  0  0
 15 24  2  0  0  0  0
 15 26  1  0  0  0  0
 16 30  2  0  0  0  0
 16 31  1  0  0  0  0
 17 32  1  0  0  0  0
 18 32  1  0  0  0  0
 18 33  2  0  0  0  0
 18 34  1  0  0  0  0
 19 21  2  0  0  0  0
 19 39  1  0  0  0  0
 20 23  2  0  0  0  0
 20 40  1  0  0  0  0
 21 51  1  0  0  0  0
 22 25  2  0  0  0  0
 22 50  1  0  0  0  0
 23 41  1  0  0  0  0
 24 25  1  0  0  0  0
 24 54  1  0  0  0  0
 25 69  1  0  0  0  0
 26 74  1  0  0  0  0
 27 83  1  0  0  0  0
 28 84  1  0  0  0  0
 29 31  2  0  0  0  0
 29 83  1  0  0  0  0
 30 85  1  0  0  0  0
 31 86  1  0  0  0  0
 32 67  2  0  0  0  0
 33 68  1  0  0  0  0
 33 72  1  0  0  0  0
 34 73  1  0  0  0  0
 34 78  2  0  0  0  0
 35 52  1  0  0  0  0
 35 75  1  0  0  0  0
 35 79  2  0  0  0  0
 36 64  1  0  0  0  0
 36 70  1  0  0  0  0
 36 80  2  0  0  0  0
 37 65  1  0  0  0  0
 37 76  1  0  0  0  0
 37 81  2  0  0  0  0
 38 69  1  0  0  0  0
 38 71  1  0  0  0  0
 38 82  2  0  0  0  0
 39 42  1  0  0  0  0
 40 52  1  0  0  0  0
 41 70  1  0  0  0  0
 42 44  1  0  0  0  0
 43 45  1  0  0  0  0
 43 47  1  0  0  0  0
 44 51  1  0  0  0  0
 45 53  1  0  0  0  0
 46 48  1  0  0  0  0
 46 50  1  0  0  0  0
 47 71  1  0  0  0  0
 48 69  1  0  0  0  0
 49 53  1  0  0  0  0
 49 71  1  0  0  0  0
 50 55  1  0  0  0  0
 51 75  1  0  0  0  0
 52 70  1  0  0  0  0
 53 68  1  0  0  0  0
 56 65  1  0  0  0  0
 57 66  1  0  0  0  0
 58 66  1  0  0  0  0
 59 66  1  0  0  0  0
 60 77  1  0  0  0  0
 61 62  1  0  0  0  0
 61 63  1  0  0  0  0
 62 74  1  0  0  0  0
 63 84  1  0  0  0  0
 64 66  1  0  0  0  0
 64 76  1  0  0  0  0
 65 77  1  0  0  0  0
 67 68  1  0  0  0  0
M  CHG  1  77   1
M  ISO  4  38 100  63 101  69 100  84 101
M  END
> <Batch ID>
0030

> <Smiles>
CNC(C)C(=O)NC(C(=O)N1Cc2cc([101O:1][101CH2:1]CCNc3cc(C)c4c(c3)C(C)CC[100N:0]4[100C:0](=O)N3CCCC(n4nc(-c5ccc(Oc6ccc(F)cc6F)cc5)c(C(N)=O)c4N)C3)ccc2CC1C(=O)NC1CCCc2ccccc21)C(C)(C)C

> <Shape>
0.308

> <Color>
0.082

> <Negative vol penalty>
0.000

$$$$

  -OEChem-04042321363D

 87 96  0     1  0  0  0  0  0999 V2000
  -20.5125  -23.5151   18.8027 C   0  0  0  0  0  0  0  0  0  0  0  0
  -20.8475  -22.2843   18.2475 C   0  0  0  0  0  0  0  0  0  0  0  0
  -28.8695  -17.1304   22.8412 C   0  0  0  0  0  0  0  0  0  0  0  0
  -26.5886  -28.5117   21.3949 C   0  0  0  0  0  0  0  0  0  0  0  0
  -26.4415  -28.1162   19.0160 C   0  0  0  0  0  0  0  0  0  0  0  0
  -21.1926  -23.9792   19.9278 C   0  0  0  0  0  0  0  0  0  0  0  0
  -21.8637  -21.5174   18.8164 C   0  0  0  0  0  0  0  0  0  0  0  0
  -23.7611  -14.6983   19.9189 C   0  0  0  0  0  0  0  0  0  0  0  0
  -29.4632  -15.9667   22.3524 C   0  0  0  0  0  0  0  0  0  0  0  0
  -29.0199  -18.3331   22.1507 C   0  0  0  0  0  0  0  0  0  0  0  0
  -25.3676  -29.1850   21.3585 C   0  0  0  0  0  0  0  0  0  0  0  0
  -25.2205  -28.7896   18.9796 C   0  0  0  0  0  0  0  0  0  0  0  0
  -24.8375  -13.8344   19.7217 C   0  0  0  0  0  0  0  0  0  0  0  0
  -22.0844  -28.3852   21.2393 C   0  0  0  0  0  0  0  0  0  0  0  0
  -21.1505  -28.0881   22.2318 C   0  0  0  0  0  0  0  0  0  0  0  0
  -25.8901  -14.7014   21.7116 C   0  0  0  0  0  0  0  0  0  0  0  0
  -21.1780  -30.3953   22.9482 C   0  0  0  0  0  0  0  0  0  0  0  0
  -27.1256  -27.9773   20.2236 C   0  0  0  0  0  0  0  0  0  0  0  0
  -29.6315  -27.8000   20.6668 C   0  0  0  0  0  0  0  0  0  0  0  0
  -22.2111  -23.2133   20.5166 C   0  0  0  0  0  0  0  0  0  0  0  0
  -23.7462  -15.5793   21.0098 C   0  0  0  0  0  0  0  0  0  0  0  0
  -22.5590  -21.9724   19.9497 C   0  0  0  0  0  0  0  0  0  0  0  0
  -24.8111  -15.5736   21.9218 C   0  0  0  0  0  0  0  0  0  0  0  0
  -30.2073  -16.0057   21.1732 C   0  0  0  0  0  0  0  0  0  0  0  0
  -29.7641  -18.3721   20.9716 C   0  0  0  0  0  0  0  0  0  0  0  0
  -30.3578  -17.2084   20.4828 C   0  0  0  0  0  0  0  0  0  0  0  0
  -24.6835  -29.3239   20.1508 C   0  0  0  0  0  0  0  0  0  0  0  0
  -25.9036  -13.8379   20.6165 C   0  0  0  0  0  0  0  0  0  0  0  0
  -22.5653  -29.6873   21.1013 C   0  0  0  0  0  0  0  0  0  0  0  0
  -20.6973  -29.0932   23.0863 C   0  0  0  0  0  0  0  0  0  0  0  0
  -22.1120  -30.6923   21.9557 C   0  0  0  0  0  0  0  0  0  0  0  0
  -28.3871  -27.2821   20.2605 C   0  0  0  0  0  0  0  0  0  0  0  0
  -30.5052  -26.7507   20.5180 C   0  0  0  0  0  0  0  0  0  0  0  0
  -29.9677  -29.1122   21.1367 C   0  0  0  0  0  0  0  0  0  0  0  0
  -23.6881  -18.7403   21.3394 C   0  0  0  0  0  0  0  0  0  0  0  0
  -23.3633  -18.0158   24.4846 C   0  0  0  0  0  0  0  0  0  0  0  0
  -24.7811  -15.6391   26.7995 C   0  0  0  0  0  0  0  0  0  0  0  0
  -29.3702  -20.8473   20.6508 C   0  0  0  0  0  0  0  0  0  0  0  0
  -22.9501  -23.7781   21.7039 C   0  0  0  0  0  0  0  0  0  0  0  0
  -22.5652  -16.4860   21.2233 C   0  0  0  0  0  0  0  0  0  0  0  0
  -24.8339  -16.4858   23.1201 C   0  0  0  0  0  0  0  0  0  0  0  0
  -23.7600  -22.7352   22.4697 C   0  0  0  0  0  0  0  0  0  0  0  0
  -30.4164  -22.9034   17.5845 C   0  0  0  0  0  0  0  0  0  0  0  0
  -24.5633  -21.8690   21.5047 C   0  0  0  0  0  0  0  0  0  0  0  0
  -30.7767  -24.2183   18.2720 C   0  0  0  0  0  0  0  0  0  0  0  0
  -28.2510  -11.7871   18.7753 C   0  0  0  0  0  0  0  0  0  0  0  0
  -29.3366  -11.3034   19.7298 C   0  0  0  0  0  0  0  0  0  0  0  0
  -30.4960  -21.7146   18.5340 C   0  0  0  0  0  0  0  0  0  0  0  0
  -29.1790  -23.2434   20.0119 C   0  0  0  0  0  0  0  0  0  0  0  0
  -28.7797  -14.1703   19.4080 C   0  0  0  0  0  0  0  0  0  0  0  0
  -23.6387  -21.1003   20.5529 C   0  0  1  0  0  0  0  0  0  0  0  0
  -22.8940  -17.7032   22.0822 C   0  0  1  0  0  0  0  0  0  0  0  0
  -30.2452  -24.3098   19.7161 C   0  0  2  0  0  0  0  0  0  0  0  0
  -27.6844  -13.1335   19.2081 C   0  0  2  0  0  0  0  0  0  1  0  0
  -30.4497  -12.3410   19.9180 C   0  0  2  0  0  0  0  0  0  0  0  0
  -31.4622  -11.8317   20.9420 C   0  0  0  0  0  0  0  0  0  0  0  0
  -23.8366  -14.6469   28.9021 C   0  0  0  0  0  0  0  0  0  0  0  0
  -24.8397  -20.2937   25.8781 C   0  0  0  0  0  0  0  0  0  0  0  0
  -25.4121  -18.7010   27.7231 C   0  0  0  0  0  0  0  0  0  0  0  0
  -23.0251  -19.2399   27.2388 C   0  0  0  0  0  0  0  0  0  0  0  0
  -30.5574  -17.6415   18.0337 C   0  0  0  0  0  0  0  0  0  0  0  0
  -25.2019  -12.8771   25.8232 C   0  0  0  0  0  0  0  0  0  0  0  0
  -30.8339  -14.7376   20.6730 C   0  0  0  0  0  0  0  0  0  0  0  0
  -24.3165  -17.7775   25.6308 C   0  0  1  0  0  0  0  0  0  0  0  0
  -24.0805  -14.4414   27.4151 C   0  0  2  0  0  0  0  0  0  0  0  0
  -24.4057  -18.9973   26.5908 C   0  0  0  0  0  0  0  0  0  0  0  0
  -28.4596  -26.0033   19.8820 N   0  0  0  0  0  0  0  0  0  0  0  0
  -29.7601  -25.7088   20.0496 N   0  0  0  0  0  0  0  0  0  0  0  0
  -23.6591  -17.3582   23.2821 N   0  0  0  0  0  0  0  0  0  0  0  0
  -29.6918  -21.8933   19.7516 N   0  0  0  0  0  0  0  0  0  0  0  0
  -31.8305  -26.6268   20.7433 N   0  0  0  0  0  0  0  0  0  0  0  0
  -30.3541  -30.0792   20.1986 N   0  0  0  0  0  0  0  0  0  0  0  0
  -29.9017  -19.6066   20.2889 N   0  0  0  0  0  0  0  0  0  0  0  0
  -31.1134  -17.2434   19.2869 N   0  0  0  0  0  0  0  0  0  0  0  0
  -23.0524  -19.9621   21.2275 N   0  0  0  0  0  0  0  0  0  0  0  0
  -23.8816  -16.5420   26.2732 N   0  0  0  0  0  0  0  0  0  0  0  0
  -29.8242  -13.6528   20.3833 N   0  3  1  0  0  0  0  0  0  0  0  0
  -24.9051  -13.2124   27.2397 N   0  3  0  0  0  0  0  0  0  0  0  0
  -29.9424  -29.4135   22.3541 O   0  0  0  0  0  0  0  0  0  0  0  0
  -24.7962  -18.4536   20.9016 O   0  0  0  0  0  0  0  0  0  0  0  0
  -22.3882  -18.7525   24.6522 O   0  0  0  0  0  0  0  0  0  0  0  0
  -26.0038  -15.7633   26.7899 O   0  0  0  0  0  0  0  0  0  0  0  0
  -28.6916  -21.0466   21.6605 O   0  0  0  0  0  0  0  0  0  0  0  0
  -23.4919  -29.9807   20.1149 O   0  0  0  0  0  0  0  0  0  0  0  0
  -26.9558  -12.9962   20.4260 O   0  0  0  0  0  0  0  0  0  1  0  0
  -19.7992  -28.8081   24.0383 F   0  0  0  0  0  0  0  0  0  0  0  0
  -22.5694  -31.9454   21.8272 F   0  0  0  0  0  0  0  0  0  0  0  0
  1  2  1  0  0  0  0
  1  6  2  0  0  0  0
  2  7  2  0  0  0  0
  3  9  1  0  0  0  0
  3 10  2  0  0  0  0
  4 11  2  0  0  0  0
  4 18  1  0  0  0  0
  5 12  1  0  0  0  0
  5 18  2  0  0  0  0
  6 20  1  0  0  0  0
  7 22  1  0  0  0  0
  8 13  2  0  0  0  0
  8 21  1  0  0  0  0
  9 24  2  0  0  0  0
 10 25  1  0  0  0  0
 11 27  1  0  0  0  0
 12 27  2  0  0  0  0
 13 28  1  0  0  0  0
 14 15  2  0  0  0  0
 14 29  1  0  0  0  0
 15 30  1  0  0  0  0
 16 23  1  0  0  0  0
 16 28  2  0  0  0  0
 17 30  2  0  0  0  0
 17 31  1  0  0  0  0
 18 32  1  0  0  0  0
 19 32  1  0  0  0  0
 19 33  2  0  0  0  0
 19 34  1  0  0  0  0
 20 22  2  0  0  0  0
 20 39  1  0  0  0  0
 21 23  2  0  0  0  0
 21 40  1  0  0  0  0
 22 51  1  0  0  0  0
 23 41  1  0  0  0  0
 24 26  1  0  0  0  0
 24 63  1  0  0  0  0
 25 26  2  0  0  0  0
 25 73  1  0  0  0  0
 26 74  1  0  0  0  0
 27 84  1  0  0  0  0
 28 85  1  0  0  0  0
 29 31  2  0  0  0  0
 29 84  1  0  0  0  0
 30 86  1  0  0  0  0
 31 87  1  0  0  0  0
 32 67  2  0  0  0  0
 33 68  1  0  0  0  0
 33 71  1  0  0  0  0
 34 72  1  0  0  0  0
 34 79  2  0  0  0  0
 35 52  1  0  0  0  0
 35 75  1  0  0  0  0
 35 80  2  0  0  0  0
 36 64  1  0  0  0  0
 36 69  1  0  0  0  0
 36 81  2  0  0  0  0
 37 65  1  0  0  0  0
 37 76  1  0  0  0  0
 37 82  2  0  0  0  0
 38 70  1  0  0  0  0
 38 73  1  0  0  0  0
 38 83  2  0  0  0  0
 39 42  1  0  0  0  0
 40 52  1  0  0  0  0
 41 69  1  0  0  0  0
 42 44  1  0  0  0  0
 43 45  1  0  0  0  0
 43 48  1  0  0  0  0
 44 51  1  0  0  0  0
 45 53  1  0  0  0  0
 46 47  1  0  0  0  0
 46 54  1  0  0  0  0
 47 55  1  0  0  0  0
 48 70  1  0  0  0  0
 49 53  1  0  0  0  0
 49 70  1  0  0  0  0
 50 54  1  0  0  0  0
 50 77  1  0  0  0  0
 51 75  1  0  0  0  0
 52 69  1  0  0  0  0
 53 68  1  0  0  0  0
 54 85  1  0  0  0  0
 55 56  1  0  0  0  0
 55 77  1  0  0  0  0
 57 65  1  0  0  0  0
 58 66  1  0  0  0  0
 59 66  1  0  0  0  0
 60 66  1  0  0  0  0
 61 74  1  0  0  0  0
 62 78  1  0  0  0  0
 63 77  1  0  0  0  0
 64 66  1  0  0  0  0
 64 76  1  0  0  0  0
 65 78  1  0  0  0  0
 67 68  1  0  0  0  0
M  CHG  2  77   1  78   1
M  ISO  4  38 100  54 101  73 100  85 101
M  END
> <Batch ID>
0030

> <Smiles>
CNc1c(CN2C[101CH:1]([101O:1]c3ccc4c(c3)CN(C(=O)C(NC(=O)C(C)NC)C(C)(C)C)C(C(=O)NC3CCCc5ccccc53)C4)CCC2C)cccc1[100NH:0][100C:0](=O)N1CCCC(n2nc(-c3ccc(Oc4ccc(F)cc4F)cc3)c(C(N)=O)c2N)C1

> <Shape>
0.264

> <Color>
0.045

> <Negative vol penalty>
0.000

$$$$

  -OEChem-04042321363D

 85 94  0     1  0  0  0  0  0999 V2000
  -18.0431  -32.8271   23.6335 C   0  0  0  0  0  0  0  0  0  0  0  0
  -19.2626  -33.0331   22.9963 C   0  0  0  0  0  0  0  0  0  0  0  0
  -27.2930  -11.1488   20.7083 C   0  0  0  0  0  0  0  0  0  0  0  0
  -26.6949  -12.2144   18.6241 C   0  0  0  0  0  0  0  0  0  0  0  0
  -17.8345  -31.6674   24.3787 C   0  0  0  0  0  0  0  0  0  0  0  0
  -20.2745  -32.0799   23.1049 C   0  0  0  0  0  0  0  0  0  0  0  0
  -25.7104  -29.2605   19.3877 C   0  0  0  0  0  0  0  0  0  0  0  0
  -30.7380  -22.6642   17.7831 C   0  0  0  0  0  0  0  0  0  0  0  0
  -30.2223  -21.5288   17.1582 C   0  0  0  0  0  0  0  0  0  0  0  0
  -26.3452  -10.1533   20.4713 C   0  0  0  0  0  0  0  0  0  0  0  0
  -25.7470  -11.2189   18.3871 C   0  0  0  0  0  0  0  0  0  0  0  0
  -27.0744  -28.9972   19.5064 C   0  0  0  0  0  0  0  0  0  0  0  0
  -22.9945   -9.7923   20.7307 C   0  0  0  0  0  0  0  0  0  0  0  0
  -22.1669   -9.4211   21.7903 C   0  0  0  0  0  0  0  0  0  0  0  0
  -26.5730  -26.9949   20.7549 C   0  0  0  0  0  0  0  0  0  0  0  0
  -28.9239  -22.6105   19.3778 C   0  0  0  0  0  0  0  0  0  0  0  0
  -23.0018   -7.1583   21.6496 C   0  0  0  0  0  0  0  0  0  0  0  0
  -27.4678  -12.1794   19.7847 C   0  0  0  0  0  0  0  0  0  0  0  0
  -29.7990  -13.2051   19.6391 C   0  0  0  0  0  0  0  0  0  0  0  0
  -18.8409  -30.6949   24.4885 C   0  0  0  0  0  0  0  0  0  0  0  0
  -24.7662  -28.3973   19.9620 C   0  0  0  0  0  0  0  0  0  0  0  0
  -20.0795  -30.9066   23.8533 C   0  0  0  0  0  0  0  0  0  0  0  0
  -25.1976  -27.2481   20.6399 C   0  0  0  0  0  0  0  0  0  0  0  0
  -30.0888  -23.2051   18.8929 C   0  0  0  0  0  0  0  0  0  0  0  0
  -29.0574  -20.9343   17.6431 C   0  0  0  0  0  0  0  0  0  0  0  0
  -28.4081  -21.4751   18.7529 C   0  0  0  0  0  0  0  0  0  0  0  0
  -25.5722  -10.1883   19.3107 C   0  0  0  0  0  0  0  0  0  0  0  0
  -27.5060  -27.8658   20.1925 C   0  0  0  0  0  0  0  0  0  0  0  0
  -23.8257   -8.8466   20.1304 C   0  0  0  0  0  0  0  0  0  0  0  0
  -22.1705   -8.1041   22.2498 C   0  0  0  0  0  0  0  0  0  0  0  0
  -23.8294   -7.5296   20.5899 C   0  0  0  0  0  0  0  0  0  0  0  0
  -28.4464  -13.2084   20.0292 C   0  0  0  0  0  0  0  0  0  0  0  0
  -30.2939  -14.3982   20.1061 C   0  0  0  0  0  0  0  0  0  0  0  0
  -31.0106  -26.8486   19.3567 C   0  0  0  0  0  0  0  0  0  0  0  0
  -32.0881  -27.3487   19.9682 C   0  0  0  0  0  0  0  0  0  0  0  0
  -30.5417  -12.2124   18.9189 C   0  0  0  0  0  0  0  0  0  0  0  0
  -22.5320  -28.6889   22.2041 C   0  0  0  0  0  0  0  0  0  0  0  0
  -21.7760  -25.6689   21.2931 C   0  0  0  0  0  0  0  0  0  0  0  0
  -22.7780  -22.7390   19.8583 C   0  0  0  0  0  0  0  0  0  0  0  0
  -27.7292  -19.6553   21.3854 C   0  0  0  0  0  0  0  0  0  0  0  0
  -18.5856  -29.4793   25.3440 C   0  0  0  0  0  0  0  0  0  0  0  0
  -23.2978  -28.6812   19.8022 C   0  0  0  0  0  0  0  0  0  0  0  0
  -24.2238  -26.2790   21.2571 C   0  0  0  0  0  0  0  0  0  0  0  0
  -19.5766  -28.3441   25.1004 C   0  0  0  0  0  0  0  0  0  0  0  0
  -29.6446  -17.6156   23.5872 C   0  0  0  0  0  0  0  0  0  0  0  0
  -21.0047  -28.8794   25.0700 C   0  0  0  0  0  0  0  0  0  0  0  0
  -29.6767  -16.2545   22.8898 C   0  0  0  0  0  0  0  0  0  0  0  0
  -28.3034  -18.3189   23.3906 C   0  0  0  0  0  0  0  0  0  0  0  0
  -27.9083  -17.0950   21.2883 C   0  0  0  0  0  0  0  0  0  0  0  0
  -29.3803  -26.1096   18.3299 C   0  0  0  0  0  0  0  0  0  0  0  0
  -21.1929  -29.8843   23.9271 C   0  0  1  0  0  0  0  0  0  0  0  0
  -29.6292  -27.4205   19.1144 C   0  0  1  0  0  0  0  0  0  1  0  0
  -22.4394  -28.0074   20.8682 C   0  0  1  0  0  0  0  0  0  0  0  0
  -29.2605  -16.3720   21.4112 C   0  0  2  0  0  0  0  0  0  0  0  0
  -28.5235  -19.7199   16.9568 C   0  0  0  0  0  0  0  0  0  0  0  0
  -21.9491  -20.4398   19.2890 C   0  0  0  0  0  0  0  0  0  0  0  0
  -22.0225  -24.8569   24.2240 C   0  0  0  0  0  0  0  0  0  0  0  0
  -22.1320  -22.4686   23.4809 C   0  0  0  0  0  0  0  0  0  0  0  0
  -20.0915  -23.8257   23.0147 C   0  0  0  0  0  0  0  0  0  0  0  0
  -23.2276  -23.1672   16.9646 C   0  0  0  0  0  0  0  0  0  0  0  0
  -27.1594  -20.8559   19.2895 C   0  0  0  0  0  0  0  0  0  0  0  0
  -30.6435  -24.4266   19.5646 C   0  0  0  0  0  0  0  0  0  0  0  0
  -22.2098  -24.2853   21.7132 C   0  0  1  0  0  0  0  0  0  0  0  0
  -22.1350  -21.8662   18.7956 C   0  0  2  0  0  0  0  0  0  0  0  0
  -21.6326  -23.8782   23.0983 C   0  0  0  0  0  0  0  0  0  0  0  0
  -28.1038  -14.3156   20.6931 N   0  0  0  0  0  0  0  0  0  0  0  0
  -29.2484  -15.0192   20.7238 N   0  0  0  0  0  0  0  0  0  0  0  0
  -22.7988  -26.6036   21.0792 N   0  0  0  0  0  0  0  0  0  0  0  0
  -27.9680  -18.3991   21.9669 N   0  0  0  0  0  0  0  0  0  0  0  0
  -31.5171  -14.9661   20.0447 N   0  0  0  0  0  0  0  0  0  0  0  0
  -29.8791  -11.0458   18.5135 N   0  0  0  0  0  0  0  0  0  0  0  0
  -21.3300  -29.1926   22.6633 N   0  0  0  0  0  0  0  0  0  0  0  0
  -21.8342  -23.3912   20.6233 N   0  0  0  0  0  0  0  0  0  0  0  0
  -27.4240  -19.6424   20.0299 N   0  0  0  0  0  0  0  0  0  0  0  0
  -30.7232  -25.6011   18.6613 N   0  3  2  0  0  0  0  0  0  0  0  0
  -22.9825  -21.8330   17.5702 N   0  3  0  0  0  0  0  0  0  0  0  0
  -31.7610  -12.3483   18.6574 O   0  0  0  0  0  0  0  0  0  0  0  0
  -23.6137  -28.7518   22.7766 O   0  0  0  0  0  0  0  0  0  0  0  0
  -20.5743  -25.9093   21.1528 O   0  0  0  0  0  0  0  0  0  0  0  0
  -23.9956  -22.8299   19.9984 O   0  0  0  0  0  0  0  0  0  0  0  0
  -27.7893  -20.7105   22.0256 O   0  0  0  0  0  0  0  0  0  0  0  0
  -24.6474   -9.2169   19.0790 O   0  0  0  0  0  0  0  0  0  0  0  0
  -28.8367  -27.6067   20.3104 O   0  0  0  0  0  0  0  0  0  1  0  0
  -21.3768   -7.7481   23.2683 F   0  0  0  0  0  0  0  0  0  0  0  0
  -24.6266   -6.6168   20.0180 F   0  0  0  0  0  0  0  0  0  0  0  0
  1  2  1  0  0  0  0
  1  5  2  0  0  0  0
  2  6  2  0  0  0  0
  3 10  2  0  0  0  0
  3 18  1  0  0  0  0
  4 11  1  0  0  0  0
  4 18  2  0  0  0  0
  5 20  1  0  0  0  0
  6 22  1  0  0  0  0
  7 12  2  0  0  0  0
  7 21  1  0  0  0  0
  8  9  2  0  0  0  0
  8 24  1  0  0  0  0
  9 25  1  0  0  0  0
 10 27  1  0  0  0  0
 11 27  2  0  0  0  0
 12 28  1  0  0  0  0
 13 14  2  0  0  0  0
 13 29  1  0  0  0  0
 14 30  1  0  0  0  0
 15 23  1  0  0  0  0
 15 28  2  0  0  0  0
 16 24  2  0  0  0  0
 16 26  1  0  0  0  0
 17 30  2  0  0  0  0
 17 31  1  0  0  0  0
 18 32  1  0  0  0  0
 19 32  1  0  0  0  0
 19 33  2  0  0  0  0
 19 36  1  0  0  0  0
 20 22  2  0  0  0  0
 20 41  1  0  0  0  0
 21 23  2  0  0  0  0
 21 42  1  0  0  0  0
 22 51  1  0  0  0  0
 23 43  1  0  0  0  0
 24 62  1  0  0  0  0
 25 26  2  0  0  0  0
 25 55  1  0  0  0  0
 26 61  1  0  0  0  0
 27 82  1  0  0  0  0
 28 83  1  0  0  0  0
 29 31  2  0  0  0  0
 29 82  1  0  0  0  0
 30 84  1  0  0  0  0
 31 85  1  0  0  0  0
 32 66  2  0  0  0  0
 33 67  1  0  0  0  0
 33 70  1  0  0  0  0
 34 35  2  0  0  0  0
 34 52  1  0  0  0  0
 34 75  1  0  0  0  0
 36 71  1  0  0  0  0
 36 77  2  0  0  0  0
 37 53  1  0  0  0  0
 37 72  1  0  0  0  0
 37 78  2  0  0  0  0
 38 63  1  0  0  0  0
 38 68  1  0  0  0  0
 38 79  2  0  0  0  0
 39 64  1  0  0  0  0
 39 73  1  0  0  0  0
 39 80  2  0  0  0  0
 40 69  1  0  0  0  0
 40 74  1  0  0  0  0
 40 81  2  0  0  0  0
 41 44  1  0  0  0  0
 42 53  1  0  0  0  0
 43 68  1  0  0  0  0
 44 46  1  0  0  0  0
 45 47  1  0  0  0  0
 45 48  1  0  0  0  0
 46 51  1  0  0  0  0
 47 54  1  0  0  0  0
 48 69  1  0  0  0  0
 49 54  1  0  0  0  0
 49 69  1  0  0  0  0
 50 52  1  0  0  0  0
 50 75  1  0  0  0  0
 51 72  1  0  0  0  0
 52 83  1  0  0  0  0
 53 68  1  0  0  0  0
 54 67  1  0  0  0  0
 56 64  1  0  0  0  0
 57 65  1  0  0  0  0
 58 65  1  0  0  0  0
 59 65  1  0  0  0  0
 60 76  1  0  0  0  0
 61 74  1  0  0  0  0
 62 75  1  0  0  0  0
 63 65  1  0  0  0  0
 63 73  1  0  0  0  0
 64 76  1  0  0  0  0
 66 67  1  0  0  0  0
M  CHG  2  75   1  76   1
M  ISO  4  40 100  52 101  74 100  83 101
M  END
> <Batch ID>
0030

> <Smiles>
C=C1N(Cc2ccc(C)c(C[100NH:0][100C:0](=O)N3CCCC(n4nc(-c5ccc(Oc6ccc(F)cc6F)cc5)c(C(N)=O)c4N)C3)c2)C[101CH:1]1[101O:1]c1ccc2c(c1)CN(C(=O)C(NC(=O)C(C)NC)C(C)(C)C)C(C(=O)NC1CCCc3ccccc31)C2

> <Shape>
0.270

> <Color>
0.086

> <Negative vol penalty>
0.000

$$$$

  -OEChem-04042321363D

 86 95  0     1  0  0  0  0  0999 V2000
  -12.8606  -24.7164   26.9100 C   0  0  0  0  0  0  0  0  0  0  0  0
  -13.9243  -23.8308   27.0500 C   0  0  0  0  0  0  0  0  0  0  0  0
  -22.9107  -10.1207   19.9559 C   0  0  0  0  0  0  0  0  0  0  0  0
  -23.8388   -9.8475   22.1698 C   0  0  0  0  0  0  0  0  0  0  0  0
  -12.7565  -25.5034   25.7638 C   0  0  0  0  0  0  0  0  0  0  0  0
  -14.8840  -23.7309   26.0434 C   0  0  0  0  0  0  0  0  0  0  0  0
  -21.8723  -22.4716   25.0976 C   0  0  0  0  0  0  0  0  0  0  0  0
  -29.0974  -20.2505   21.2192 C   0  0  0  0  0  0  0  0  0  0  0  0
  -22.1298   -8.9801   20.1425 C   0  0  0  0  0  0  0  0  0  0  0  0
  -23.0579   -8.7069   22.3564 C   0  0  0  0  0  0  0  0  0  0  0  0
  -22.7295  -21.6536   24.3629 C   0  0  0  0  0  0  0  0  0  0  0  0
  -23.1371   -5.4551   21.4339 C   0  0  0  0  0  0  0  0  0  0  0  0
  -23.7515   -4.3330   21.9897 C   0  0  0  0  0  0  0  0  0  0  0  0
  -30.1915  -19.8755   20.4396 C   0  0  0  0  0  0  0  0  0  0  0  0
  -22.4904  -23.1202   22.4626 C   0  0  0  0  0  0  0  0  0  0  0  0
  -22.1931   -4.3936   23.8349 C   0  0  0  0  0  0  0  0  0  0  0  0
  -23.7652  -10.5544   20.9696 C   0  0  0  0  0  0  0  0  0  0  0  0
  -24.2251  -13.0609   21.0870 C   0  0  0  0  0  0  0  0  0  0  0  0
  -13.7207  -25.4201   24.7469 C   0  0  0  0  0  0  0  0  0  0  0  0
  -21.3081  -23.6160   24.5159 C   0  0  0  0  0  0  0  0  0  0  0  0
  -14.7920  -24.5166   24.8819 C   0  0  0  0  0  0  0  0  0  0  0  0
  -21.6283  -23.9524   23.1929 C   0  0  0  0  0  0  0  0  0  0  0  0
  -28.6638  -19.4243   22.2562 C   0  0  0  0  0  0  0  0  0  0  0  0
  -29.3244  -18.2231   22.5134 C   0  0  0  0  0  0  0  0  0  0  0  0
  -30.4186  -17.8480   21.7338 C   0  0  0  0  0  0  0  0  0  0  0  0
  -22.2034   -8.2732   21.3427 C   0  0  0  0  0  0  0  0  0  0  0  0
  -23.0364  -21.9763   23.0442 C   0  0  0  0  0  0  0  0  0  0  0  0
  -22.0507   -6.0467   22.0787 C   0  0  0  0  0  0  0  0  0  0  0  0
  -23.2794   -3.8022   23.1901 C   0  0  0  0  0  0  0  0  0  0  0  0
  -21.5787   -5.5159   23.2791 C   0  0  0  0  0  0  0  0  0  0  0  0
  -30.8521  -18.6742   20.6969 C   0  0  0  0  0  0  0  0  0  0  0  0
  -24.5725  -11.7323   20.7772 C   0  0  0  0  0  0  0  0  0  0  0  0
  -25.3239  -13.7979   20.7182 C   0  0  0  0  0  0  0  0  0  0  0  0
  -23.0173  -13.5821   21.6572 C   0  0  0  0  0  0  0  0  0  0  0  0
  -18.3474  -24.5805   23.8777 C   0  0  0  0  0  0  0  0  0  0  0  0
  -19.8431  -27.3310   23.0292 C   0  0  0  0  0  0  0  0  0  0  0  0
  -22.7022  -28.8680   21.9755 C   0  0  0  0  0  0  0  0  0  0  0  0
  -30.8511  -14.5559   20.5752 C   0  0  0  0  0  0  0  0  0  0  0  0
  -13.5402  -26.2567   23.5051 C   0  0  0  0  0  0  0  0  0  0  0  0
  -20.4064  -24.5025   25.3304 C   0  0  0  0  0  0  0  0  0  0  0  0
  -21.0650  -25.1811   22.5285 C   0  0  0  0  0  0  0  0  0  0  0  0
  -14.8023  -26.3623   22.6530 C   0  0  0  0  0  0  0  0  0  0  0  0
  -29.4189  -12.4938   18.0506 C   0  0  0  0  0  0  0  0  0  0  0  0
  -15.4416  -24.9890   22.4735 C   0  0  0  0  0  0  0  0  0  0  0  0
  -28.0047  -12.2166   18.5634 C   0  0  0  0  0  0  0  0  0  0  0  0
  -24.3205  -19.0053   21.3599 C   0  0  0  0  0  0  0  0  0  0  0  0
  -30.4331  -12.5444   19.1912 C   0  0  0  0  0  0  0  0  0  0  0  0
  -28.6796  -13.2018   20.7934 C   0  0  0  0  0  0  0  0  0  0  0  0
  -25.8225  -19.1989   21.3064 C   0  0  0  0  0  0  0  0  0  0  0  0
  -25.0358  -19.4738   23.6097 C   0  0  0  0  0  0  0  0  0  0  0  0
  -15.8666  -24.3976   23.8230 C   0  0  1  0  0  0  0  0  0  0  0  0
  -19.4827  -25.3634   24.4742 C   0  0  1  0  0  0  0  0  0  0  0  0
  -27.6128  -13.1971   19.6852 C   0  0  2  0  0  0  0  0  0  0  0  0
  -23.9225  -19.7628   22.6150 C   0  0  1  0  0  0  0  0  0  1  0  0
  -28.8565  -17.3397   23.6267 C   0  0  0  0  0  0  0  0  0  0  0  0
  -23.6063  -31.1186   21.3315 C   0  0  0  0  0  0  0  0  0  0  0  0
  -18.4053  -27.1377   20.3449 C   0  0  0  0  0  0  0  0  0  0  0  0
  -20.0279  -28.8128   19.4341 C   0  0  0  0  0  0  0  0  0  0  0  0
  -18.5085  -29.4428   21.3095 C   0  0  0  0  0  0  0  0  0  0  0  0
  -24.7039  -28.8164   24.1548 C   0  0  0  0  0  0  0  0  0  0  0  0
  -31.1183  -16.5555   22.0206 C   0  0  0  0  0  0  0  0  0  0  0  0
  -27.4855  -19.8532   23.0799 C   0  0  0  0  0  0  0  0  0  0  0  0
  -20.4404  -27.8734   21.7532 C   0  0  1  0  0  0  0  0  0  0  0  0
  -23.4107  -30.1196   22.4613 C   0  0  2  0  0  0  0  0  0  0  0  0
  -19.3548  -28.2924   20.7220 C   0  0  0  0  0  0  0  0  0  0  0  0
  -25.7961  -11.6283   20.2519 N   0  0  0  0  0  0  0  0  0  0  0  0
  -26.2272  -12.9010   20.2287 N   0  0  0  0  0  0  0  0  0  0  0  0
  -20.1832  -26.0127   23.3643 N   0  0  0  0  0  0  0  0  0  0  0  0
  -30.0031  -13.4937   20.2207 N   0  0  0  0  0  0  0  0  0  0  0  0
  -25.5957  -15.1193   20.7681 N   0  0  0  0  0  0  0  0  0  0  0  0
  -21.9884  -12.6858   21.9771 N   0  0  0  0  0  0  0  0  0  0  0  0
  -17.0964  -25.0097   24.2782 N   0  0  0  0  0  0  0  0  0  0  0  0
  -21.3370  -28.9539   22.1493 N   0  0  0  0  0  0  0  0  0  0  0  0
  -30.3644  -15.4130   21.5545 N   0  0  0  0  0  0  0  0  0  0  0  0
  -26.2376  -19.0966   22.7556 N   0  3  2  0  0  0  0  0  0  0  0  0
  -24.7484  -29.7738   23.0197 N   0  3  0  0  0  0  0  0  0  0  0  0
  -22.8489  -14.8083   21.8613 O   0  0  0  0  0  0  0  0  0  0  0  0
  -18.5884  -23.6565   23.1097 O   0  0  0  0  0  0  0  0  0  0  0  0
  -19.1078  -28.0528   23.7073 O   0  0  0  0  0  0  0  0  0  0  0  0
  -23.2996  -27.9114   21.4871 O   0  0  0  0  0  0  0  0  0  0  0  0
  -31.9575  -14.7308   20.0534 O   0  0  0  0  0  0  0  0  0  0  0  0
  -21.4414   -7.1602   21.5253 O   0  0  0  0  0  0  0  0  0  0  0  0
  -23.8724  -21.1793   22.3246 O   0  0  0  0  0  0  0  0  0  1  0  0
  -23.8685   -2.7236   23.7229 F   0  0  0  0  0  0  0  0  0  0  0  0
  -20.5347   -6.0791   23.9026 F   0  0  0  0  0  0  0  0  0  0  0  0
  -32.2019  -18.2460   19.7093 Cl  0  0  0  0  0  0  0  0  0  0  0  0
  1  2  1  0  0  0  0
  1  5  2  0  0  0  0
  2  6  2  0  0  0  0
  3  9  2  0  0  0  0
  3 17  1  0  0  0  0
  4 10  1  0  0  0  0
  4 17  2  0  0  0  0
  5 19  1  0  0  0  0
  6 21  1  0  0  0  0
  7 11  2  0  0  0  0
  7 20  1  0  0  0  0
  8 14  2  0  0  0  0
  8 23  1  0  0  0  0
  9 26  1  0  0  0  0
 10 26  2  0  0  0  0
 11 27  1  0  0  0  0
 12 13  2  0  0  0  0
 12 28  1  0  0  0  0
 13 29  1  0  0  0  0
 14 31  1  0  0  0  0
 15 22  1  0  0  0  0
 15 27  2  0  0  0  0
 16 29  2  0  0  0  0
 16 30  1  0  0  0  0
 17 32  1  0  0  0  0
 18 32  1  0  0  0  0
 18 33  2  0  0  0  0
 18 34  1  0  0  0  0
 19 21  2  0  0  0  0
 19 39  1  0  0  0  0
 20 22  2  0  0  0  0
 20 40  1  0  0  0  0
 21 51  1  0  0  0  0
 22 41  1  0  0  0  0
 23 24  2  0  0  0  0
 23 62  1  0  0  0  0
 24 25  1  0  0  0  0
 24 55  1  0  0  0  0
 25 31  2  0  0  0  0
 25 61  1  0  0  0  0
 26 82  1  0  0  0  0
 27 83  1  0  0  0  0
 28 30  2  0  0  0  0
 28 82  1  0  0  0  0
 29 84  1  0  0  0  0
 30 85  1  0  0  0  0
 31 86  1  0  0  0  0
 32 66  2  0  0  0  0
 33 67  1  0  0  0  0
 33 70  1  0  0  0  0
 34 71  1  0  0  0  0
 34 77  2  0  0  0  0
 35 52  1  0  0  0  0
 35 72  1  0  0  0  0
 35 78  2  0  0  0  0
 36 63  1  0  0  0  0
 36 68  1  0  0  0  0
 36 79  2  0  0  0  0
 37 64  1  0  0  0  0
 37 73  1  0  0  0  0
 37 80  2  0  0  0  0
 38 69  1  0  0  0  0
 38 74  1  0  0  0  0
 38 81  2  0  0  0  0
 39 42  1  0  0  0  0
 40 52  1  0  0  0  0
 41 68  1  0  0  0  0
 42 44  1  0  0  0  0
 43 45  1  0  0  0  0
 43 47  1  0  0  0  0
 44 51  1  0  0  0  0
 45 53  1  0  0  0  0
 46 49  1  0  0  0  0
 46 54  1  0  0  0  0
 47 69  1  0  0  0  0
 48 53  1  0  0  0  0
 48 69  1  0  0  0  0
 49 75  1  0  0  0  0
 50 54  1  0  0  0  0
 50 75  1  0  0  0  0
 51 72  1  0  0  0  0
 52 68  1  0  0  0  0
 53 67  1  0  0  0  0
 54 83  1  0  0  0  0
 56 64  1  0  0  0  0
 57 65  1  0  0  0  0
 58 65  1  0  0  0  0
 59 65  1  0  0  0  0
 60 76  1  0  0  0  0
 61 74  1  0  0  0  0
 62 75  1  0  0  0  0
 63 65  1  0  0  0  0
 63 73  1  0  0  0  0
 64 76  1  0  0  0  0
 66 67  1  0  0  0  0
M  CHG  2  75   1  76   1
M  ISO  4  38 100  54 101  74 100  83 101
M  END
> <Batch ID>
0030

> <Smiles>
CNC(C)C(=O)NC(C(=O)N1Cc2cc([101O:1][101CH:1]3CCN(Cc4ccc(Cl)c(C[100NH:0][100C:0](=O)N5CCCC(n6nc(-c7ccc(Oc8ccc(F)cc8F)cc7)c(C(N)=O)c6N)C5)c4C)C3)ccc2CC1C(=O)NC1CCCc2ccccc21)C(C)(C)C

> <Shape>
0.272

> <Color>
0.198

> <Negative vol penalty>
0.000

$$$$

  -OEChem-04042321363D

 85 94  0     1  0  0  0  0  0999 V2000
  -17.4526  -32.0930   23.6503 C   0  0  0  0  0  0  0  0  0  0  0  0
  -18.6698  -32.4997   23.1132 C   0  0  0  0  0  0  0  0  0  0  0  0
  -26.3610  -13.0112   21.7070 C   0  0  0  0  0  0  0  0  0  0  0  0
  -25.4709  -13.6533   19.5547 C   0  0  0  0  0  0  0  0  0  0  0  0
  -17.3495  -30.8540   24.2811 C   0  0  0  0  0  0  0  0  0  0  0  0
  -19.7850  -31.6678   23.2076 C   0  0  0  0  0  0  0  0  0  0  0  0
  -25.7235  -29.8644   19.6302 C   0  0  0  0  0  0  0  0  0  0  0  0
  -25.5758  -11.8585   21.6879 C   0  0  0  0  0  0  0  0  0  0  0  0
  -24.6857  -12.5006   19.5355 C   0  0  0  0  0  0  0  0  0  0  0  0
  -27.1011  -29.7557   19.8151 C   0  0  0  0  0  0  0  0  0  0  0  0
  -25.6673   -8.8060   20.2364 C   0  0  0  0  0  0  0  0  0  0  0  0
  -26.2708   -7.6043   20.6068 C   0  0  0  0  0  0  0  0  0  0  0  0
  -26.7854  -27.6032   20.8572 C   0  0  0  0  0  0  0  0  0  0  0  0
  -29.8552  -23.5402   19.8383 C   0  0  0  0  0  0  0  0  0  0  0  0
  -31.4072  -22.8441   17.6271 C   0  0  0  0  0  0  0  0  0  0  0  0
  -24.6808   -7.3616   22.4096 C   0  0  0  0  0  0  0  0  0  0  0  0
  -26.3085  -13.9086   20.6405 C   0  0  0  0  0  0  0  0  0  0  0  0
  -28.4276  -15.2458   20.1621 C   0  0  0  0  0  0  0  0  0  0  0  0
  -18.4616  -30.0024   24.3748 C   0  0  0  0  0  0  0  0  0  0  0  0
  -24.8641  -28.8464   20.0680 C   0  0  0  0  0  0  0  0  0  0  0  0
  -19.6970  -30.4168   23.8415 C   0  0  0  0  0  0  0  0  0  0  0  0
  -25.3975  -27.7002   20.6744 C   0  0  0  0  0  0  0  0  0  0  0  0
  -31.0025  -24.2725   19.5331 C   0  0  0  0  0  0  0  0  0  0  0  0
  -31.7785  -23.9245   18.4275 C   0  0  0  0  0  0  0  0  0  0  0  0
  -29.4840  -22.4598   19.0379 C   0  0  0  0  0  0  0  0  0  0  0  0
  -24.7381  -11.6032   20.6021 C   0  0  0  0  0  0  0  0  0  0  0  0
  -27.6320  -28.6263   20.4312 C   0  0  0  0  0  0  0  0  0  0  0  0
  -24.5705   -9.2856   20.9525 C   0  0  0  0  0  0  0  0  0  0  0  0
  -25.7776   -6.8821   21.6934 C   0  0  0  0  0  0  0  0  0  0  0  0
  -24.0773   -8.5633   22.0391 C   0  0  0  0  0  0  0  0  0  0  0  0
  -30.2599  -22.1118   17.9323 C   0  0  0  0  0  0  0  0  0  0  0  0
  -27.1189  -15.0998   20.6600 C   0  0  0  0  0  0  0  0  0  0  0  0
  -28.7486  -16.5563   20.4194 C   0  0  0  0  0  0  0  0  0  0  0  0
  -29.2771  -14.2831   19.5241 C   0  0  0  0  0  0  0  0  0  0  0  0
  -22.4923  -28.6656   22.1764 C   0  0  0  0  0  0  0  0  0  0  0  0
  -22.1683  -25.6720   20.9698 C   0  0  0  0  0  0  0  0  0  0  0  0
  -23.6034  -23.0244   19.3642 C   0  0  0  0  0  0  0  0  0  0  0  0
  -27.4559  -21.9721   20.4505 C   0  0  0  0  0  0  0  0  0  0  0  0
  -18.3132  -28.6926   25.1076 C   0  0  0  0  0  0  0  0  0  0  0  0
  -23.3827  -28.9668   19.8371 C   0  0  0  0  0  0  0  0  0  0  0  0
  -24.5196  -26.5701   21.1441 C   0  0  0  0  0  0  0  0  0  0  0  0
  -19.4495  -27.7102   24.8354 C   0  0  0  0  0  0  0  0  0  0  0  0
  -26.3866  -20.0337   23.2391 C   0  0  0  0  0  0  0  0  0  0  0  0
  -20.7994  -28.4123   24.9426 C   0  0  0  0  0  0  0  0  0  0  0  0
  -26.5895  -18.5893   22.7757 C   0  0  0  0  0  0  0  0  0  0  0  0
  -31.2074  -29.0841   19.8656 C   0  0  0  0  0  0  0  0  0  0  0  0
  -25.9135  -20.9338   22.0991 C   0  0  0  0  0  0  0  0  0  0  0  0
  -26.9495  -19.4505   20.4272 C   0  0  0  0  0  0  0  0  0  0  0  0
  -31.8690  -27.8955   20.5335 C   0  0  0  0  0  0  0  0  0  0  0  0
  -30.1295  -27.1160   18.9953 C   0  0  0  0  0  0  0  0  0  0  0  0
  -20.9231  -29.5319   23.9021 C   0  0  1  0  0  0  0  0  0  0  0  0
  -22.5580  -28.1017   20.7852 C   0  0  1  0  0  0  0  0  0  0  0  0
  -27.4883  -18.5194   21.5256 C   0  0  2  0  0  0  0  0  0  0  0  0
  -29.8497  -28.5366   19.4602 C   0  0  1  0  0  0  0  0  0  1  0  0
  -33.0111  -24.6936   18.0814 C   0  0  0  0  0  0  0  0  0  0  0  0
  -23.0991  -20.7040   18.5527 C   0  0  0  0  0  0  0  0  0  0  0  0
  -22.3539  -24.6330   23.8327 C   0  0  0  0  0  0  0  0  0  0  0  0
  -22.7998  -22.3520   22.9020 C   0  0  0  0  0  0  0  0  0  0  0  0
  -20.6349  -23.4930   22.4186 C   0  0  0  0  0  0  0  0  0  0  0  0
  -24.1531  -23.7636   16.5517 C   0  0  0  0  0  0  0  0  0  0  0  0
  -31.3836  -25.4281   20.4108 C   0  0  0  0  0  0  0  0  0  0  0  0
  -22.7472  -24.3176   21.3005 C   0  0  1  0  0  0  0  0  0  0  0  0
  -23.1327  -22.1812   18.1929 C   0  0  2  0  0  0  0  0  0  0  0  0
  -22.1506  -23.7209   22.6064 C   0  0  0  0  0  0  0  0  0  0  0  0
  -26.6413  -16.2274   21.1933 N   0  0  0  0  0  0  0  0  0  0  0  0
  -27.6554  -17.0944   21.0322 N   0  0  0  0  0  0  0  0  0  0  0  0
  -23.0771  -26.7375   20.9015 N   0  0  0  0  0  0  0  0  0  0  0  0
  -26.8153  -20.8188   20.9509 N   0  0  0  0  0  0  0  0  0  0  0  0
  -29.8565  -17.2892   20.1791 N   0  0  0  0  0  0  0  0  0  0  0  0
  -28.7904  -12.9820   19.3380 N   0  0  0  0  0  0  0  0  0  0  0  0
  -28.3150  -21.7349   19.3779 N   0  0  0  0  0  0  0  0  0  0  0  0
  -21.2137  -28.9788   22.5967 N   0  0  0  0  0  0  0  0  0  0  0  0
  -22.5456  -23.4876   20.1178 N   0  0  0  0  0  0  0  0  0  0  0  0
  -31.4341  -26.7295   19.6768 N   0  3  2  0  0  0  0  0  0  0  0  0
  -24.0432  -22.3603   17.0268 N   0  3  0  0  0  0  0  0  0  0  0  0
  -30.4396  -14.5637   19.1454 O   0  0  0  0  0  0  0  0  0  0  0  0
  -23.5250  -28.8047   22.8213 O   0  0  0  0  0  0  0  0  0  0  0  0
  -20.9555  -25.7793   20.7721 O   0  0  0  0  0  0  0  0  0  0  0  0
  -24.7908  -23.2467   19.5904 O   0  0  0  0  0  0  0  0  0  0  0  0
  -27.2779  -23.0838   20.9548 O   0  0  0  0  0  0  0  0  0  0  0  0
  -23.9720  -10.4784   20.5830 O   0  0  0  0  0  0  0  0  0  0  0  0
  -28.9762  -28.5180   20.6135 O   0  0  0  0  0  0  0  0  0  1  0  0
  -26.3563   -5.7273   22.0481 F   0  0  0  0  0  0  0  0  0  0  0  0
  -23.0232   -9.0183   22.7302 F   0  0  0  0  0  0  0  0  0  0  0  0
  -29.8362  -20.7816   16.9142 Cl  0  0  0  0  0  0  0  0  0  0  0  0
  1  2  1  0  0  0  0
  1  5  2  0  0  0  0
  2  6  2  0  0  0  0
  3  8  2  0  0  0  0
  3 17  1  0  0  0  0
  4  9  1  0  0  0  0
  4 17  2  0  0  0  0
  5 19  1  0  0  0  0
  6 21  1  0  0  0  0
  7 10  2  0  0  0  0
  7 20  1  0  0  0  0
  8 26  1  0  0  0  0
  9 26  2  0  0  0  0
 10 27  1  0  0  0  0
 11 12  2  0  0  0  0
 11 28  1  0  0  0  0
 12 29  1  0  0  0  0
 13 22  1  0  0  0  0
 13 27  2  0  0  0  0
 14 23  1  0  0  0  0
 14 25  2  0  0  0  0
 15 24  1  0  0  0  0
 15 31  2  0  0  0  0
 16 29  2  0  0  0  0
 16 30  1  0  0  0  0
 17 32  1  0  0  0  0
 18 32  1  0  0  0  0
 18 33  2  0  0  0  0
 18 34  1  0  0  0  0
 19 21  2  0  0  0  0
 19 39  1  0  0  0  0
 20 22  2  0  0  0  0
 20 40  1  0  0  0  0
 21 51  1  0  0  0  0
 22 41  1  0  0  0  0
 23 24  2  0  0  0  0
 23 61  1  0  0  0  0
 24 55  1  0  0  0  0
 25 31  1  0  0  0  0
 25 71  1  0  0  0  0
 26 81  1  0  0  0  0
 27 82  1  0  0  0  0
 28 30  2  0  0  0  0
 28 81  1  0  0  0  0
 29 83  1  0  0  0  0
 30 84  1  0  0  0  0
 31 85  1  0  0  0  0
 32 65  2  0  0  0  0
 33 66  1  0  0  0  0
 33 69  1  0  0  0  0
 34 70  1  0  0  0  0
 34 76  2  0  0  0  0
 35 52  1  0  0  0  0
 35 72  1  0  0  0  0
 35 77  2  0  0  0  0
 36 62  1  0  0  0  0
 36 67  1  0  0  0  0
 36 78  2  0  0  0  0
 37 63  1  0  0  0  0
 37 73  1  0  0  0  0
 37 79  2  0  0  0  0
 38 68  1  0  0  0  0
 38 71  1  0  0  0  0
 38 80  2  0  0  0  0
 39 42  1  0  0  0  0
 40 52  1  0  0  0  0
 41 67  1  0  0  0  0
 42 44  1  0  0  0  0
 43 45  1  0  0  0  0
 43 47  1  0  0  0  0
 44 51  1  0  0  0  0
 45 53  1  0  0  0  0
 46 49  1  0  0  0  0
 46 54  1  0  0  0  0
 47 68  1  0  0  0  0
 48 53  1  0  0  0  0
 48 68  1  0  0  0  0
 49 74  1  0  0  0  0
 50 54  1  0  0  0  0
 50 74  1  0  0  0  0
 51 72  1  0  0  0  0
 52 67  1  0  0  0  0
 53 66  1  0  0  0  0
 54 82  1  0  0  0  0
 56 63  1  0  0  0  0
 57 64  1  0  0  0  0
 58 64  1  0  0  0  0
 59 64  1  0  0  0  0
 60 75  1  0  0  0  0
 61 74  1  0  0  0  0
 62 64  1  0  0  0  0
 62 73  1  0  0  0  0
 63 75  1  0  0  0  0
 65 66  1  0  0  0  0
M  CHG  2  74   1  75   1
M  ISO  4  38 100  54 101  71 100  82 101
M  END
> <Batch ID>
0030

> <Smiles>
CNC(C)C(=O)NC(C(=O)N1Cc2cc([101O:1][101CH:1]3CCN(Cc4cc([100NH:0][100C:0](=O)N5CCCC(n6nc(-c7ccc(Oc8ccc(F)cc8F)cc7)c(C(N)=O)c6N)C5)c(Cl)cc4C)C3)ccc2CC1C(=O)NC1CCCc2ccccc21)C(C)(C)C

> <Shape>
0.247

> <Color>
0.077

> <Negative vol penalty>
0.000

$$$$

  -OEChem-04042321363D

 84 92  0     1  0  0  0  0  0999 V2000
  -22.3707  -22.8770   16.0524 C   0  0  0  0  0  0  0  0  0  0  0  0
  -23.6631  -23.3430   16.2716 C   0  0  0  0  0  0  0  0  0  0  0  0
  -26.4520  -14.2024   21.5130 C   0  0  0  0  0  0  0  0  0  0  0  0
  -26.4295  -13.9974   19.1058 C   0  0  0  0  0  0  0  0  0  0  0  0
  -21.2973  -23.7666   16.0732 C   0  0  0  0  0  0  0  0  0  0  0  0
  -23.8829  -24.6991   16.5107 C   0  0  0  0  0  0  0  0  0  0  0  0
  -27.0868  -25.5004   20.3497 C   0  0  0  0  0  0  0  0  0  0  0  0
  -34.2756  -23.6472   19.1716 C   0  0  0  0  0  0  0  0  0  0  0  0
  -25.5600  -13.1347   21.6123 C   0  0  0  0  0  0  0  0  0  0  0  0
  -25.5375  -12.9297   19.2051 C   0  0  0  0  0  0  0  0  0  0  0  0
  -28.4464  -25.3332   20.0898 C   0  0  0  0  0  0  0  0  0  0  0  0
  -23.5690  -10.2307   22.5168 C   0  0  0  0  0  0  0  0  0  0  0  0
  -23.8328   -9.2522   23.4751 C   0  0  0  0  0  0  0  0  0  0  0  0
  -34.2864  -22.3042   18.7948 C   0  0  0  0  0  0  0  0  0  0  0  0
  -28.6924  -27.7230   19.8717 C   0  0  0  0  0  0  0  0  0  0  0  0
  -32.3370  -24.0223   17.7795 C   0  0  0  0  0  0  0  0  0  0  0  0
  -25.9496   -8.7802   22.4105 C   0  0  0  0  0  0  0  0  0  0  0  0
  -26.8867  -14.6338   20.2598 C   0  0  0  0  0  0  0  0  0  0  0  0
  -29.2140  -15.6726   20.1487 C   0  0  0  0  0  0  0  0  0  0  0  0
  -21.5030  -25.1327   16.3223 C   0  0  0  0  0  0  0  0  0  0  0  0
  -26.5168  -26.7815   20.3617 C   0  0  0  0  0  0  0  0  0  0  0  0
  -22.8114  -25.6079   16.5336 C   0  0  0  0  0  0  0  0  0  0  0  0
  -27.3259  -27.9039   20.1345 C   0  0  0  0  0  0  0  0  0  0  0  0
  -33.3009  -24.5062   18.6640 C   0  0  0  0  0  0  0  0  0  0  0  0
  -32.3477  -22.6794   17.4026 C   0  0  0  0  0  0  0  0  0  0  0  0
  -25.1027  -12.4983   20.4584 C   0  0  0  0  0  0  0  0  0  0  0  0
  -29.2488  -26.4444   19.8480 C   0  0  0  0  0  0  0  0  0  0  0  0
  -24.4955  -10.4839   21.5052 C   0  0  0  0  0  0  0  0  0  0  0  0
  -25.0231   -8.5270   23.4221 C   0  0  0  0  0  0  0  0  0  0  0  0
  -25.6858   -9.7587   21.4521 C   0  0  0  0  0  0  0  0  0  0  0  0
  -33.3224  -21.8203   17.9103 C   0  0  0  0  0  0  0  0  0  0  0  0
  -27.8078  -15.7371   20.1565 C   0  0  0  0  0  0  0  0  0  0  0  0
  -29.6171  -16.9805   20.0327 C   0  0  0  0  0  0  0  0  0  0  0  0
  -30.0787  -14.5324   20.2381 C   0  0  0  0  0  0  0  0  0  0  0  0
  -24.2705  -28.2532   18.6611 C   0  0  0  0  0  0  0  0  0  0  0  0
  -24.7236  -30.6180   20.8348 C   0  0  0  0  0  0  0  0  0  0  0  0
  -26.7885  -32.1078   23.1071 C   0  0  0  0  0  0  0  0  0  0  0  0
  -29.1546  -22.0264   17.6939 C   0  0  0  0  0  0  0  0  0  0  0  0
  -31.4215  -26.3029   20.7266 C   0  0  0  0  0  0  0  0  0  1  0  0
  -20.3168  -26.0635   16.2882 C   0  0  0  0  0  0  0  0  0  0  0  0
  -25.0539  -26.9469   20.6700 C   0  0  0  0  0  0  0  0  0  0  0  0
  -26.7666  -29.3022   20.1563 C   0  0  0  0  0  0  0  0  0  0  0  0
  -20.5928  -27.4253   16.9202 C   0  0  0  0  0  0  0  0  0  0  0  0
  -26.9852  -21.2830   20.4174 C   0  0  0  0  0  0  0  0  0  0  0  0
  -21.9231  -27.9838   16.4252 C   0  0  0  0  0  0  0  0  0  0  0  0
  -27.1172  -19.7685   20.5873 C   0  0  0  0  0  0  0  0  0  0  0  0
  -27.0443  -21.6933   18.9476 C   0  0  0  0  0  0  0  0  0  0  0  0
  -28.3563  -19.6847   18.3836 C   0  0  0  0  0  0  0  0  0  0  0  0
  -23.0875  -27.0678   16.8209 C   0  0  1  0  0  0  0  0  0  0  0  0
  -24.4782  -28.2602   20.1492 C   0  0  1  0  0  0  0  0  0  0  0  0
  -28.3585  -19.2279   19.8524 C   0  0  2  0  0  0  0  0  0  0  0  0
  -26.8950  -34.0450   24.6987 C   0  0  0  0  0  0  0  0  0  0  0  0
  -25.1693  -32.5177   18.4891 C   0  0  0  0  0  0  0  0  0  0  0  0
  -26.1843  -34.1496   20.0938 C   0  0  0  0  0  0  0  0  0  0  0  0
  -23.7993  -33.4663   20.3539 C   0  0  0  0  0  0  0  0  0  0  0  0
  -33.7700  -26.1326   21.4884 C   0  0  0  0  0  0  0  0  0  0  0  0
  -27.1304  -30.3208   25.4413 C   0  0  0  0  0  0  0  0  0  0  0  0
  -33.2898  -25.9517   19.0697 C   0  0  0  0  0  0  0  0  0  0  0  0
  -31.2973  -22.1999   16.4536 C   0  0  0  0  0  0  0  0  0  0  0  0
  -25.6300  -31.8213   20.9322 C   0  0  1  0  0  0  0  0  0  0  0  0
  -26.5493  -32.5735   24.5320 C   0  0  2  0  0  0  0  0  0  0  0  0
  -25.2062  -32.9624   19.9648 C   0  0  0  0  0  0  0  0  0  0  0  0
  -27.3483  -16.9870   20.0539 N   0  0  0  0  0  0  0  0  0  0  0  0
  -28.4723  -17.7201   19.9805 N   0  0  0  0  0  0  0  0  0  0  0  0
  -25.3293  -29.4115   20.4561 N   0  0  0  0  0  0  0  0  0  0  0  0
  -28.2457  -21.1500   18.3094 N   0  0  0  0  0  0  0  0  0  0  0  0
  -30.8355  -17.5585   19.9714 N   0  0  0  0  0  0  0  0  0  0  0  0
  -29.4989  -13.2615   20.3525 N   0  0  0  0  0  0  0  0  0  0  0  0
  -23.4259  -27.2544   18.2156 N   0  0  0  0  0  0  0  0  0  0  0  0
  -25.6475  -32.2064   22.3392 N   0  0  0  0  0  0  0  0  0  0  0  0
  -30.2698  -21.4298   17.1184 N   0  0  0  0  0  0  0  0  0  0  0  0
  -32.7772  -26.1350   20.4236 N   0  0  0  0  0  0  0  0  0  0  0  0
  -27.3835  -31.7842   25.4818 N   0  3  0  0  0  0  0  0  0  0  0  0
  -31.3285  -14.6388   20.2338 O   0  0  0  0  0  0  0  0  0  0  0  0
  -24.8336  -29.0928   17.9685 O   0  0  0  0  0  0  0  0  0  0  0  0
  -23.5237  -30.7424   21.0923 O   0  0  0  0  0  0  0  0  0  0  0  0
  -27.8795  -31.7012   22.7135 O   0  0  0  0  0  0  0  0  0  0  0  0
  -28.9875  -23.2504   17.6643 O   0  0  0  0  0  0  0  0  0  0  0  0
  -30.9804  -26.4549   21.8653 O   0  0  0  0  0  0  0  0  0  0  0  0
  -24.2324  -11.4563   20.5549 O   0  0  0  0  0  0  0  0  0  0  0  0
  -30.5760  -26.2840   19.5934 O   0  0  0  0  0  0  0  0  0  1  0  0
  -25.2770   -7.5884   24.3434 F   0  0  0  0  0  0  0  0  0  0  0  0
  -26.5802   -9.9983   20.4833 F   0  0  0  0  0  0  0  0  0  0  0  0
  -33.3665  -20.1529   17.4665 Cl  0  0  0  0  0  0  0  0  0  0  0  0
  1  2  1  0  0  0  0
  1  5  2  0  0  0  0
  2  6  2  0  0  0  0
  3  9  2  0  0  0  0
  3 18  1  0  0  0  0
  4 10  1  0  0  0  0
  4 18  2  0  0  0  0
  5 20  1  0  0  0  0
  6 22  1  0  0  0  0
  7 11  2  0  0  0  0
  7 21  1  0  0  0  0
  8 14  2  0  0  0  0
  8 24  1  0  0  0  0
  9 26  1  0  0  0  0
 10 26  2  0  0  0  0
 11 27  1  0  0  0  0
 12 13  2  0  0  0  0
 12 28  1  0  0  0  0
 13 29  1  0  0  0  0
 14 31  1  0  0  0  0
 15 23  1  0  0  0  0
 15 27  2  0  0  0  0
 16 24  2  0  0  0  0
 16 25  1  0  0  0  0
 17 29  2  0  0  0  0
 17 30  1  0  0  0  0
 18 32  1  0  0  0  0
 19 32  1  0  0  0  0
 19 33  2  0  0  0  0
 19 34  1  0  0  0  0
 20 22  2  0  0  0  0
 20 40  1  0  0  0  0
 21 23  2  0  0  0  0
 21 41  1  0  0  0  0
 22 49  1  0  0  0  0
 23 42  1  0  0  0  0
 24 58  1  0  0  0  0
 25 31  2  0  0  0  0
 25 59  1  0  0  0  0
 26 80  1  0  0  0  0
 27 81  1  0  0  0  0
 28 30  2  0  0  0  0
 28 80  1  0  0  0  0
 29 82  1  0  0  0  0
 30 83  1  0  0  0  0
 31 84  1  0  0  0  0
 32 63  2  0  0  0  0
 33 64  1  0  0  0  0
 33 67  1  0  0  0  0
 34 68  1  0  0  0  0
 34 74  2  0  0  0  0
 35 50  1  0  0  0  0
 35 69  1  0  0  0  0
 35 75  2  0  0  0  0
 36 60  1  0  0  0  0
 36 65  1  0  0  0  0
 36 76  2  0  0  0  0
 37 61  1  0  0  0  0
 37 70  1  0  0  0  0
 37 77  2  0  0  0  0
 38 66  1  0  0  0  0
 38 71  1  0  0  0  0
 38 78  2  0  0  0  0
 39 72  1  0  0  0  0
 39 79  2  0  0  0  0
 39 81  1  0  0  0  0
 40 43  1  0  0  0  0
 41 50  1  0  0  0  0
 42 65  1  0  0  0  0
 43 45  1  0  0  0  0
 44 46  1  0  0  0  0
 44 47  1  0  0  0  0
 45 49  1  0  0  0  0
 46 51  1  0  0  0  0
 47 66  1  0  0  0  0
 48 51  1  0  0  0  0
 48 66  1  0  0  0  0
 49 69  1  0  0  0  0
 50 65  1  0  0  0  0
 51 64  1  0  0  0  0
 52 61  1  0  0  0  0
 53 62  1  0  0  0  0
 54 62  1  0  0  0  0
 55 62  1  0  0  0  0
 56 72  1  0  0  0  0
 57 73  1  0  0  0  0
 58 72  1  0  0  0  0
 59 71  1  0  0  0  0
 60 62  1  0  0  0  0
 60 70  1  0  0  0  0
 61 73  1  0  0  0  0
 63 64  1  0  0  0  0
M  CHG  1  73   1
M  ISO  4  38 100  39 101  71 100  81 101
M  END
> <Batch ID>
0030

> <Smiles>
CNC(C)C(=O)NC(C(=O)N1Cc2cc([101O:1][101C:1](=O)N(C)Cc3ccc(Cl)c(C[100NH:0][100C:0](=O)N4CCCC(n5nc(-c6ccc(Oc7ccc(F)cc7F)cc6)c(C(N)=O)c5N)C4)c3)ccc2CC1C(=O)NC1CCCc2ccccc21)C(C)(C)C

> <Shape>
0.254

> <Color>
0.059

> <Negative vol penalty>
0.000

$$$$

  -OEChem-04042321363D

 85 94  0     1  0  0  0  0  0999 V2000
  -27.1501  -29.2939   27.9822 C   0  0  0  0  0  0  0  0  0  0  0  0
  -27.6342  -28.3784   27.0533 C   0  0  0  0  0  0  0  0  0  0  0  0
  -23.0582   -9.9283   19.8850 C   0  0  0  0  0  0  0  0  0  0  0  0
  -23.8771   -9.7922   22.1539 C   0  0  0  0  0  0  0  0  0  0  0  0
  -25.8823  -29.8497   27.8160 C   0  0  0  0  0  0  0  0  0  0  0  0
  -26.8503  -28.0174   25.9581 C   0  0  0  0  0  0  0  0  0  0  0  0
  -28.8070  -26.6783   20.3115 C   0  0  0  0  0  0  0  0  0  0  0  0
  -22.3205   -8.7609   20.0813 C   0  0  0  0  0  0  0  0  0  0  0  0
  -23.1393   -8.6249   22.3502 C   0  0  0  0  0  0  0  0  0  0  0  0
  -29.0468  -25.4668   19.6646 C   0  0  0  0  0  0  0  0  0  0  0  0
  -19.9274   -7.7873   22.9847 C   0  0  0  0  0  0  0  0  0  0  0  0
  -19.2009   -7.6732   24.1699 C   0  0  0  0  0  0  0  0  0  0  0  0
  -26.8455  -25.5624   18.6826 C   0  0  0  0  0  0  0  0  0  0  0  0
  -31.6158  -18.3888   20.3192 C   0  0  0  0  0  0  0  0  0  0  0  0
  -29.1857  -19.7588   20.3365 C   0  0  0  0  0  0  0  0  0  0  0  0
  -20.4599   -5.6948   24.7511 C   0  0  0  0  0  0  0  0  0  0  0  0
  -23.8366  -10.4439   20.9213 C   0  0  0  0  0  0  0  0  0  0  0  0
  -24.1766  -12.9720   20.9512 C   0  0  0  0  0  0  0  0  0  0  0  0
  -25.0863  -29.5026   26.7131 C   0  0  0  0  0  0  0  0  0  0  0  0
  -27.5785  -27.3366   20.1573 C   0  0  0  0  0  0  0  0  0  0  0  0
  -25.5701  -28.5681   25.7777 C   0  0  0  0  0  0  0  0  0  0  0  0
  -26.5936  -26.7834   19.3266 C   0  0  0  0  0  0  0  0  0  0  0  0
  -31.4199  -19.4722   19.4628 C   0  0  0  0  0  0  0  0  0  0  0  0
  -30.5967  -17.9903   21.1842 C   0  0  0  0  0  0  0  0  0  0  0  0
  -30.2049  -20.1572   19.4714 C   0  0  0  0  0  0  0  0  0  0  0  0
  -22.3609   -8.1092   21.3139 C   0  0  0  0  0  0  0  0  0  0  0  0
  -28.0649  -24.9072   18.8523 C   0  0  0  0  0  0  0  0  0  0  0  0
  -20.9200   -6.8551   22.6826 C   0  0  0  0  0  0  0  0  0  0  0  0
  -19.4672   -6.6270   25.0531 C   0  0  0  0  0  0  0  0  0  0  0  0
  -21.1863   -5.8089   23.5658 C   0  0  0  0  0  0  0  0  0  0  0  0
  -29.3816  -18.6754   21.1929 C   0  0  0  0  0  0  0  0  0  0  0  0
  -24.5994  -11.6494   20.7190 C   0  0  0  0  0  0  0  0  0  0  0  0
  -25.2594  -13.7440   20.6075 C   0  0  0  0  0  0  0  0  0  0  0  0
  -22.9177  -13.4591   21.4343 C   0  0  0  0  0  0  0  0  0  0  0  0
  -25.2249  -28.1823   22.1191 C   0  0  0  0  0  0  0  0  0  0  0  0
  -24.0685  -29.6526   19.4690 C   0  0  0  0  0  0  0  0  0  0  0  0
  -23.9729  -29.8286   16.0621 C   0  0  0  0  0  0  0  0  0  0  0  0
  -30.7468  -14.7551   20.7178 C   0  0  0  0  0  0  0  0  0  0  0  0
  -23.7034  -30.0940   26.6011 C   0  0  0  0  0  0  0  0  0  0  0  0
  -27.3455  -28.6561   20.8407 C   0  0  0  0  0  0  0  0  0  0  0  0
  -25.2655  -27.4606   19.1118 C   0  0  0  0  0  0  0  0  0  0  0  0
  -23.0866  -29.9422   25.2130 C   0  0  0  0  0  0  0  0  0  0  0  0
  -29.5466  -12.5238   18.2163 C   0  0  0  0  0  0  0  0  0  0  0  0
  -23.2722  -28.5180   24.6991 C   0  0  0  0  0  0  0  0  0  0  0  0
  -28.1206  -12.2019   18.6669 C   0  0  0  0  0  0  0  0  0  0  0  0
  -29.6793  -22.4944   16.6677 C   0  0  0  0  0  0  0  0  0  0  0  0
  -30.4946  -12.6698   19.4046 C   0  0  0  0  0  0  0  0  0  0  0  0
  -29.4421  -21.1159   17.2842 C   0  0  0  0  0  0  0  0  0  0  0  0
  -28.6297  -13.3104   20.8830 C   0  0  0  0  0  0  0  0  0  0  0  0
  -30.2923  -22.6184   18.9843 C   0  0  0  0  0  0  0  0  0  0  0  0
  -24.7595  -28.1700   24.5633 C   0  0  1  0  0  0  0  0  0  0  0  0
  -25.8662  -28.9826   21.0210 C   0  0  1  0  0  0  0  0  0  0  0  0
  -27.6253  -13.2090   19.7223 C   0  0  2  0  0  0  0  0  0  0  0  0
  -29.6428  -23.4320   17.8657 C   0  0  2  0  0  0  0  0  0  1  0  0
  -32.5277  -19.8769   18.5454 C   0  0  0  0  0  0  0  0  0  0  0  0
  -22.9089  -31.1096   14.1849 C   0  0  0  0  0  0  0  0  0  0  0  0
  -21.4536  -28.1488   19.9283 C   0  0  0  0  0  0  0  0  0  0  0  0
  -20.8011  -28.7060   17.5763 C   0  0  0  0  0  0  0  0  0  0  0  0
  -21.1765  -30.5345   19.2310 C   0  0  0  0  0  0  0  0  0  0  0  0
  -26.5962  -30.7566   15.0539 C   0  0  0  0  0  0  0  0  0  0  0  0
  -30.8457  -16.8239   22.0850 C   0  0  0  0  0  0  0  0  0  0  0  0
  -23.1597  -29.2491   18.3331 C   0  0  1  0  0  0  0  0  0  0  0  0
  -24.1112  -31.0028   15.1099 C   0  0  2  0  0  0  0  0  0  0  0  0
  -21.6719  -29.1456   18.7725 C   0  0  0  0  0  0  0  0  0  0  0  0
  -25.8530  -11.5814   20.2630 N   0  0  0  0  0  0  0  0  0  0  0  0
  -26.2272  -12.8709   20.2058 N   0  0  0  0  0  0  0  0  0  0  0  0
  -29.9943  -21.2299   18.6307 N   0  0  3  0  0  0  0  0  0  0  0  0
  -25.0830  -28.7456   19.8067 N   0  0  0  0  0  0  0  0  0  0  0  0
  -29.9676  -13.6401   20.3673 N   0  0  0  0  0  0  0  0  0  0  0  0
  -25.4686  -15.0776   20.6128 N   0  0  0  0  0  0  0  0  0  0  0  0
  -21.9143  -12.5295   21.7399 N   0  0  0  0  0  0  0  0  0  0  0  0
  -25.3116  -28.7691   23.3672 N   0  0  0  0  0  0  0  0  0  0  0  0
  -23.4002  -30.2059   17.2583 N   0  0  0  0  0  0  0  0  0  0  0  0
  -30.1701  -15.6286   21.6316 N   0  0  0  0  0  0  0  0  0  0  0  0
  -25.3354  -30.8502   14.2737 N   0  3  0  0  0  0  0  0  0  0  0  0
  -22.6836  -14.6835   21.5748 O   0  0  0  0  0  0  0  0  0  0  0  0
  -24.6897  -27.1124   21.8535 O   0  0  0  0  0  0  0  0  0  0  0  0
  -23.8894  -30.7359   20.0311 O   0  0  0  0  0  0  0  0  0  0  0  0
  -24.3333  -28.6899   15.7723 O   0  0  0  0  0  0  0  0  0  0  0  0
  -31.8707  -14.9599   20.2469 O   0  0  0  0  0  0  0  0  0  0  0  0
  -21.6409   -6.9702   21.5058 O   0  0  0  0  0  0  0  0  0  0  0  0
  -28.2961  -23.7245   18.2202 O   0  0  0  0  0  0  0  0  0  1  0  0
  -18.7705   -6.5184   26.1920 F   0  0  0  0  0  0  0  0  0  0  0  0
  -22.1396   -4.9109   23.2815 F   0  0  0  0  0  0  0  0  0  0  0  0
  -28.0987  -18.2117   22.2506 Cl  0  0  0  0  0  0  0  0  0  0  0  0
  1  2  1  0  0  0  0
  1  5  2  0  0  0  0
  2  6  2  0  0  0  0
  3  8  2  0  0  0  0
  3 17  1  0  0  0  0
  4  9  1  0  0  0  0
  4 17  2  0  0  0  0
  5 19  1  0  0  0  0
  6 21  1  0  0  0  0
  7 10  2  0  0  0  0
  7 20  1  0  0  0  0
  8 26  1  0  0  0  0
  9 26  2  0  0  0  0
 10 27  1  0  0  0  0
 11 12  2  0  0  0  0
 11 28  1  0  0  0  0
 12 29  1  0  0  0  0
 13 22  1  0  0  0  0
 13 27  2  0  0  0  0
 14 23  1  0  0  0  0
 14 24  2  0  0  0  0
 15 25  1  0  0  0  0
 15 31  2  0  0  0  0
 16 29  2  0  0  0  0
 16 30  1  0  0  0  0
 17 32  1  0  0  0  0
 18 32  1  0  0  0  0
 18 33  2  0  0  0  0
 18 34  1  0  0  0  0
 19 21  2  0  0  0  0
 19 39  1  0  0  0  0
 20 22  2  0  0  0  0
 20 40  1  0  0  0  0
 21 51  1  0  0  0  0
 22 41  1  0  0  0  0
 23 25  2  0  0  0  0
 23 55  1  0  0  0  0
 24 31  1  0  0  0  0
 24 61  1  0  0  0  0
 25 67  1  0  0  0  0
 26 81  1  0  0  0  0
 27 82  1  0  0  0  0
 28 30  2  0  0  0  0
 28 81  1  0  0  0  0
 29 83  1  0  0  0  0
 30 84  1  0  0  0  0
 31 85  1  0  0  0  0
 32 65  2  0  0  0  0
 33 66  1  0  0  0  0
 33 70  1  0  0  0  0
 34 71  1  0  0  0  0
 34 76  2  0  0  0  0
 35 52  1  0  0  0  0
 35 72  1  0  0  0  0
 35 77  2  0  0  0  0
 36 62  1  0  0  0  0
 36 68  1  0  0  0  0
 36 78  2  0  0  0  0
 37 63  1  0  0  0  0
 37 73  1  0  0  0  0
 37 79  2  0  0  0  0
 38 69  1  0  0  0  0
 38 74  1  0  0  0  0
 38 80  2  0  0  0  0
 39 42  1  0  0  0  0
 40 52  1  0  0  0  0
 41 68  1  0  0  0  0
 42 44  1  0  0  0  0
 43 45  1  0  0  0  0
 43 47  1  0  0  0  0
 44 51  1  0  0  0  0
 45 53  1  0  0  0  0
 46 48  1  0  0  0  0
 46 54  1  0  0  0  0
 47 69  1  0  0  0  0
 48 67  1  0  0  0  0
 49 53  1  0  0  0  0
 49 69  1  0  0  0  0
 50 54  1  0  0  0  0
 50 67  1  0  0  0  0
 51 72  1  0  0  0  0
 52 68  1  0  0  0  0
 53 66  1  0  0  0  0
 54 82  1  0  0  0  0
 56 63  1  0  0  0  0
 57 64  1  0  0  0  0
 58 64  1  0  0  0  0
 59 64  1  0  0  0  0
 60 75  1  0  0  0  0
 61 74  1  0  0  0  0
 62 64  1  0  0  0  0
 62 73  1  0  0  0  0
 63 75  1  0  0  0  0
 65 66  1  0  0  0  0
M  CHG  1  75   1
M  ISO  4  38 100  54 101  74 100  82 101
M  END
> <Batch ID>
0030

> <Smiles>
CNC(C)C(=O)NC(C(=O)N1Cc2cc([101O:1][101CH:1]3CCN(c4cc(Cl)c(C[100NH:0][100C:0](=O)N5CCCC(n6nc(-c7ccc(Oc8ccc(F)cc8F)cc7)c(C(N)=O)c6N)C5)cc4C)C3)ccc2CC1C(=O)NC1CCCc2ccccc21)C(C)(C)C

> <Shape>
0.314

> <Color>
0.221

> <Negative vol penalty>
0.000

$$$$

  -OEChem-04042321363D

 84 93  0     1  0  0  0  0  0999 V2000
  -31.5074  -33.4951   23.8588 C   0  0  0  0  0  0  0  0  0  0  0  0
  -31.5328  -32.2272   23.2868 C   0  0  0  0  0  0  0  0  0  0  0  0
  -23.9592   -9.3376   22.0477 C   0  0  0  0  0  0  0  0  0  0  0  0
  -23.7591  -11.3677   23.3422 C   0  0  0  0  0  0  0  0  0  0  0  0
  -30.3376  -33.9674   24.4524 C   0  0  0  0  0  0  0  0  0  0  0  0
  -30.3887  -31.4304   23.3090 C   0  0  0  0  0  0  0  0  0  0  0  0
  -28.5615  -27.4909   18.9908 C   0  0  0  0  0  0  0  0  0  0  0  0
  -23.3992   -8.6120   23.0991 C   0  0  0  0  0  0  0  0  0  0  0  0
  -23.1991  -10.6421   24.3936 C   0  0  0  0  0  0  0  0  0  0  0  0
  -28.6853  -26.1075   18.8702 C   0  0  0  0  0  0  0  0  0  0  0  0
  -20.1917   -9.3150   25.1781 C   0  0  0  0  0  0  0  0  0  0  0  0
  -19.0621   -9.8460   25.8006 C   0  0  0  0  0  0  0  0  0  0  0  0
  -26.4749  -25.8350   19.7972 C   0  0  0  0  0  0  0  0  0  0  0  0
  -29.6766  -18.9508   22.6214 C   0  0  0  0  0  0  0  0  0  0  0  0
  -30.2847  -18.9885   20.2836 C   0  0  0  0  0  0  0  0  0  0  0  0
  -20.2518   -9.9131   27.9023 C   0  0  0  0  0  0  0  0  0  0  0  0
  -24.1393  -10.7155   22.1693 C   0  0  0  0  0  0  0  0  0  0  0  0
  -24.0365  -12.0795   20.0160 C   0  0  0  0  0  0  0  0  0  0  0  0
  -29.1757  -33.1798   24.4734 C   0  0  0  0  0  0  0  0  0  0  0  0
  -27.3958  -28.0572   19.5265 C   0  0  0  0  0  0  0  0  0  0  0  0
  -29.2026  -31.8921   23.9046 C   0  0  0  0  0  0  0  0  0  0  0  0
  -26.3378  -27.2260   19.9211 C   0  0  0  0  0  0  0  0  0  0  0  0
  -30.0161  -19.6659   21.4730 C   0  0  0  0  0  0  0  0  0  0  0  0
  -29.6059  -17.5583   22.5805 C   0  0  0  0  0  0  0  0  0  0  0  0
  -29.8745  -16.8809   21.3911 C   0  0  0  0  0  0  0  0  0  0  0  0
  -23.0191   -9.2642   24.2720 C   0  0  0  0  0  0  0  0  0  0  0  0
  -27.6431  -25.2791   19.2761 C   0  0  0  0  0  0  0  0  0  0  0  0
  -21.3514   -9.0830   25.9177 C   0  0  0  0  0  0  0  0  0  0  0  0
  -19.0921  -10.1451   27.1626 C   0  0  0  0  0  0  0  0  0  0  0  0
  -21.3814   -9.3820   27.2798 C   0  0  0  0  0  0  0  0  0  0  0  0
  -30.2139  -17.5960   20.2426 C   0  0  0  0  0  0  0  0  0  0  0  0
  -24.7182  -11.4656   21.0838 C   0  0  0  0  0  0  0  0  0  0  0  0
  -25.0285  -12.6585   19.2629 C   0  0  0  0  0  0  0  0  0  0  0  0
  -22.6321  -12.1226   19.7304 C   0  0  0  0  0  0  0  0  0  0  0  0
  -26.7344  -29.8421   22.0721 C   0  0  0  0  0  0  0  0  0  0  0  0
  -23.7745  -29.9413   20.7487 C   0  0  0  0  0  0  0  0  0  0  0  0
  -21.4724  -28.4924   18.6877 C   0  0  0  0  0  0  0  0  0  0  0  0
  -30.5309  -14.5967   20.5559 C   0  0  0  0  0  0  0  0  0  0  0  0
  -27.9486  -33.7146   25.1683 C   0  0  0  0  0  0  0  0  0  0  0  0
  -27.2673  -29.5526   19.6250 C   0  0  0  0  0  0  0  0  0  0  0  0
  -25.0575  -27.7851   20.4838 C   0  0  0  0  0  0  0  0  0  0  0  0
  -26.6712  -32.9557   24.8186 C   0  0  0  0  0  0  0  0  0  0  0  0
  -29.6528  -12.1440   18.1289 C   0  0  0  0  0  0  0  0  0  0  0  0
  -26.9067  -31.4505   24.8944 C   0  0  0  0  0  0  0  0  0  0  0  0
  -28.2235  -11.7520   18.5104 C   0  0  0  0  0  0  0  0  0  0  0  0
  -30.5137  -12.4180   19.3608 C   0  0  0  0  0  0  0  0  0  0  0  0
  -28.5215  -12.9967   20.6896 C   0  0  0  0  0  0  0  0  0  0  0  0
  -28.8546  -23.2679   21.3434 C   0  0  0  0  0  0  0  0  0  0  0  0
  -28.0560  -21.6728   20.2570 C   0  0  0  0  0  0  0  0  0  0  0  0
  -27.9747  -31.0078   23.8869 C   0  0  1  0  0  0  0  0  0  0  0  0
  -26.2400  -29.9969   20.6617 C   0  0  1  0  0  0  0  0  0  0  0  0
  -27.5986  -12.7739   19.4803 C   0  0  2  0  0  0  0  0  0  0  0  0
  -27.6684  -23.1577   20.3690 C   0  0  0  0  0  0  0  0  0  1  0  0
  -29.2393  -16.8221   23.8285 C   0  0  0  0  0  0  0  0  0  0  0  0
  -19.1300  -28.7853   17.8363 C   0  0  0  0  0  0  0  0  0  0  0  0
  -22.6822  -28.9614   23.4239 C   0  0  0  0  0  0  0  0  0  0  0  0
  -20.5465  -28.3731   22.2573 C   0  0  0  0  0  0  0  0  0  0  0  0
  -21.3139  -30.7456   22.3289 C   0  0  0  0  0  0  0  0  0  0  0  0
  -22.3944  -28.7058   15.8835 C   0  0  0  0  0  0  0  0  0  0  0  0
  -30.0913  -21.1637   21.5167 C   0  0  0  0  0  0  0  0  0  0  0  0
  -22.5292  -29.0939   20.8500 C   0  0  1  0  0  0  0  0  0  0  0  0
  -20.6027  -29.0696   17.5854 C   0  0  2  0  0  0  0  0  0  0  0  0
  -21.7927  -29.2826   22.2063 C   0  0  0  0  0  0  0  0  0  0  0  0
  -26.0411  -11.6383   21.0183 N   0  0  0  0  0  0  0  0  0  0  0  0
  -26.1986  -12.3672   19.9003 N   0  0  0  0  0  0  0  0  0  0  0  0
  -24.9823  -29.2531   20.5660 N   0  0  0  0  0  0  0  0  0  0  0  0
  -29.8606  -13.3983   20.2311 N   0  0  0  0  0  0  0  0  0  0  0  0
  -25.0054  -13.3832   18.1241 N   0  0  0  0  0  0  0  0  0  0  0  0
  -21.7517  -11.4753   20.6080 N   0  0  0  0  0  0  0  0  0  0  0  0
  -29.7986  -15.4663   21.3635 N   0  0  0  0  0  0  0  0  0  0  0  0
  -27.4158  -30.9436   22.5535 N   0  0  0  0  0  0  0  0  0  0  0  0
  -21.7193  -29.4170   19.6803 N   0  0  0  0  0  0  0  0  0  0  0  0
  -28.7611  -21.8103   21.5449 N   0  3  0  0  0  0  0  0  0  0  0  0
  -20.9772  -28.4811   16.2684 N   0  3  0  0  0  0  0  0  0  0  0  0
  -22.1730  -12.7035   18.7179 O   0  0  0  0  0  0  0  0  0  0  0  0
  -26.5127  -28.8010   22.6792 O   0  0  0  0  0  0  0  0  0  0  0  0
  -23.6782  -31.1689   20.8216 O   0  0  0  0  0  0  0  0  0  0  0  0
  -21.8877  -27.3358   18.6717 O   0  0  0  0  0  0  0  0  0  0  0  0
  -31.6599  -14.8459   20.1255 O   0  0  0  0  0  0  0  0  0  0  0  0
  -22.4724   -8.5565   25.2981 O   0  0  0  0  0  0  0  0  0  0  0  0
  -27.7616  -23.9284   19.1602 O   0  0  0  0  0  0  0  0  0  1  0  0
  -18.0077  -10.6564   27.7600 F   0  0  0  0  0  0  0  0  0  0  0  0
  -22.4930   -9.1624   27.9953 F   0  0  0  0  0  0  0  0  0  0  0  0
  -30.5547  -16.7999   18.7469 Cl  0  0  0  0  0  0  0  0  0  0  0  0
  1  2  1  0  0  0  0
  1  5  2  0  0  0  0
  2  6  2  0  0  0  0
  3  8  2  0  0  0  0
  3 17  1  0  0  0  0
  4  9  1  0  0  0  0
  4 17  2  0  0  0  0
  5 19  1  0  0  0  0
  6 21  1  0  0  0  0
  7 10  2  0  0  0  0
  7 20  1  0  0  0  0
  8 26  1  0  0  0  0
  9 26  2  0  0  0  0
 10 27  1  0  0  0  0
 11 12  2  0  0  0  0
 11 28  1  0  0  0  0
 12 29  1  0  0  0  0
 13 22  1  0  0  0  0
 13 27  2  0  0  0  0
 14 23  1  0  0  0  0
 14 24  2  0  0  0  0
 15 23  2  0  0  0  0
 15 31  1  0  0  0  0
 16 29  2  0  0  0  0
 16 30  1  0  0  0  0
 17 32  1  0  0  0  0
 18 32  1  0  0  0  0
 18 33  2  0  0  0  0
 18 34  1  0  0  0  0
 19 21  2  0  0  0  0
 19 39  1  0  0  0  0
 20 22  2  0  0  0  0
 20 40  1  0  0  0  0
 21 50  1  0  0  0  0
 22 41  1  0  0  0  0
 23 60  1  0  0  0  0
 24 25  1  0  0  0  0
 24 54  1  0  0  0  0
 25 31  2  0  0  0  0
 25 70  1  0  0  0  0
 26 80  1  0  0  0  0
 27 81  1  0  0  0  0
 28 30  2  0  0  0  0
 28 80  1  0  0  0  0
 29 82  1  0  0  0  0
 30 83  1  0  0  0  0
 31 84  1  0  0  0  0
 32 64  2  0  0  0  0
 33 65  1  0  0  0  0
 33 68  1  0  0  0  0
 34 69  1  0  0  0  0
 34 75  2  0  0  0  0
 35 51  1  0  0  0  0
 35 71  1  0  0  0  0
 35 76  2  0  0  0  0
 36 61  1  0  0  0  0
 36 66  1  0  0  0  0
 36 77  2  0  0  0  0
 37 62  1  0  0  0  0
 37 72  1  0  0  0  0
 37 78  2  0  0  0  0
 38 67  1  0  0  0  0
 38 70  1  0  0  0  0
 38 79  2  0  0  0  0
 39 42  1  0  0  0  0
 40 51  1  0  0  0  0
 41 66  1  0  0  0  0
 42 44  1  0  0  0  0
 43 45  1  0  0  0  0
 43 46  1  0  0  0  0
 44 50  1  0  0  0  0
 45 52  1  0  0  0  0
 46 67  1  0  0  0  0
 47 52  1  0  0  0  0
 47 67  1  0  0  0  0
 48 53  1  0  0  0  0
 48 73  1  0  0  0  0
 49 53  1  0  0  0  0
 49 73  1  0  0  0  0
 50 71  1  0  0  0  0
 51 66  1  0  0  0  0
 52 65  1  0  0  0  0
 53 81  1  0  0  0  0
 55 62  1  0  0  0  0
 56 63  1  0  0  0  0
 57 63  1  0  0  0  0
 58 63  1  0  0  0  0
 59 74  1  0  0  0  0
 60 73  1  0  0  0  0
 61 63  1  0  0  0  0
 61 72  1  0  0  0  0
 62 74  1  0  0  0  0
 64 65  1  0  0  0  0
M  CHG  2  73   1  74   1
M  ISO  4  38 100  53 101  70 100  81 101
M  END
> <Batch ID>
0030

> <Smiles>
CNC(C)C(=O)NC(C(=O)N1Cc2cc([101O:1][101CH:1]3CN(Cc4cc(C)c([100NH:0][100C:0](=O)N5CCCC(n6nc(-c7ccc(Oc8ccc(F)cc8F)cc7)c(C(N)=O)c6N)C5)c(Cl)c4)C3)ccc2CC1C(=O)NC1CCCc2ccccc21)C(C)(C)C

> <Shape>
0.290

> <Color>
0.080

> <Negative vol penalty>
0.000

$$$$

  -OEChem-04042321363D

 86 95  0     1  0  0  0  0  0999 V2000
  -21.3337  -26.1148   19.1193 C   0  0  0  0  0  0  0  0  0  0  0  0
  -22.1955  -25.0250   19.0484 C   0  0  0  0  0  0  0  0  0  0  0  0
  -26.2925  -28.2151   18.9383 C   0  0  0  0  0  0  0  0  0  0  0  0
  -26.0875  -27.3708   21.1926 C   0  0  0  0  0  0  0  0  0  0  0  0
  -20.2963  -26.1222   20.0508 C   0  0  0  0  0  0  0  0  0  0  0  0
  -22.0210  -23.9424   19.9098 C   0  0  0  0  0  0  0  0  0  0  0  0
  -23.0598  -18.0380   18.6588 C   0  0  0  0  0  0  0  0  0  0  0  0
  -29.0774  -13.6746   17.3185 C   0  0  0  0  0  0  0  0  0  0  0  0
  -25.3383  -29.1933   19.2179 C   0  0  0  0  0  0  0  0  0  0  0  0
  -25.1333  -28.3490   21.4723 C   0  0  0  0  0  0  0  0  0  0  0  0
  -24.1376  -17.1968   18.9320 C   0  0  0  0  0  0  0  0  0  0  0  0
  -25.0923  -31.6433   22.2248 C   0  0  0  0  0  0  0  0  0  0  0  0
  -25.2094  -32.3349   23.4304 C   0  0  0  0  0  0  0  0  0  0  0  0
  -29.6298  -14.6927   16.5415 C   0  0  0  0  0  0  0  0  0  0  0  0
  -23.0020  -16.3918   20.9022 C   0  0  0  0  0  0  0  0  0  0  0  0
  -29.2315  -15.0840   19.2748 C   0  0  0  0  0  0  0  0  0  0  0  0
  -23.0264  -31.5429   24.0969 C   0  0  0  0  0  0  0  0  0  0  0  0
  -26.6671  -27.3038   19.9257 C   0  0  0  0  0  0  0  0  0  0  0  0
  -29.0469  -26.3932   19.8019 C   0  0  0  0  0  0  0  0  0  0  0  0
  -20.1031  -25.0349   20.9174 C   0  0  0  0  0  0  0  0  0  0  0  0
  -21.9479  -18.0704   19.5126 C   0  0  0  0  0  0  0  0  0  0  0  0
  -20.9809  -23.9359   20.8546 C   0  0  0  0  0  0  0  0  0  0  0  0
  -21.9103  -17.2323   20.6362 C   0  0  0  0  0  0  0  0  0  0  0  0
  -28.8782  -13.8703   18.6852 C   0  0  0  0  0  0  0  0  0  0  0  0
  -29.7839  -16.1022   18.4977 C   0  0  0  0  0  0  0  0  0  0  0  0
  -24.7587  -29.2602   20.4849 C   0  0  0  0  0  0  0  0  0  0  0  0
  -24.1100  -16.3757   20.0554 C   0  0  0  0  0  0  0  0  0  0  0  0
  -23.9421  -30.9015   21.9552 C   0  0  0  0  0  0  0  0  0  0  0  0
  -24.1765  -32.2847   24.3664 C   0  0  0  0  0  0  0  0  0  0  0  0
  -22.9092  -30.8513   22.8912 C   0  0  0  0  0  0  0  0  0  0  0  0
  -29.9831  -15.9065   17.1310 C   0  0  0  0  0  0  0  0  0  0  0  0
  -27.6524  -26.2928   19.6373 C   0  0  0  0  0  0  0  0  0  0  0  0
  -29.5298  -25.1751   19.3905 C   0  0  0  0  0  0  0  0  0  0  0  0
  -26.8448  -13.2588   21.5339 C   0  0  0  0  0  0  0  0  0  0  0  0
  -29.8352  -27.4897   20.2838 C   0  0  0  0  0  0  0  0  0  0  0  0
  -20.5725  -20.2933   21.3212 C   0  0  0  0  0  0  0  0  0  0  0  0
  -18.3377  -17.9863   21.7747 C   0  0  0  0  0  0  0  0  0  0  0  0
  -17.5663  -14.6619   21.7850 C   0  0  0  0  0  0  0  0  0  0  0  0
  -29.3107  -19.7073   19.4428 C   0  0  0  0  0  0  0  0  0  0  0  0
  -18.9966  -25.1090   21.9397 C   0  0  0  0  0  0  0  0  0  0  0  0
  -20.7818  -18.9638   19.1893 C   0  0  0  0  0  0  0  0  0  0  0  0
  -20.7313  -17.2147   21.5732 C   0  0  0  0  0  0  0  0  0  0  0  0
  -25.3920  -13.6162   21.7489 C   0  0  0  0  0  0  0  0  0  0  0  0
  -18.6515  -23.7588   22.5626 C   0  0  0  0  0  0  0  0  0  0  0  0
  -27.2343  -21.3630   16.9842 C   0  0  0  0  0  0  0  0  0  0  0  0
  -19.9214  -23.0196   22.9720 C   0  0  0  0  0  0  0  0  0  0  0  0
  -27.2764  -22.8109   17.4761 C   0  0  0  0  0  0  0  0  0  0  0  0
  -27.1958  -20.3830   18.1531 C   0  0  0  0  0  0  0  0  0  0  0  0
  -28.3565  -21.9878   19.6199 C   0  0  0  0  0  0  0  0  0  0  0  0
  -25.8589  -13.4601   19.3912 C   0  0  0  0  0  0  0  0  0  0  0  0
  -20.8089  -22.7318   21.7551 C   0  0  1  0  0  0  0  0  0  0  0  0
  -19.9244  -19.2915   20.4079 C   0  0  1  0  0  0  0  0  0  0  0  0
  -28.4194  -23.0268   18.4856 C   0  0  2  0  0  0  0  0  0  0  0  0
  -24.9460  -14.1479   20.3894 C   0  0  2  0  0  0  0  0  0  1  0  0
  -15.6693  -13.0812   22.2325 C   0  0  0  0  0  0  0  0  0  0  0  0
  -18.7189  -18.3822   24.7760 C   0  0  0  0  0  0  0  0  0  0  0  0
  -17.5586  -16.1940   25.1415 C   0  0  0  0  0  0  0  0  0  0  0  0
  -16.3425  -18.0827   24.0568 C   0  0  0  0  0  0  0  0  0  0  0  0
  -17.6142  -13.6351   19.0097 C   0  0  0  0  0  0  0  0  0  0  0  0
  -28.2837  -12.7741   19.5213 C   0  0  0  0  0  0  0  0  0  0  0  0
  -30.1482  -17.3879   19.1670 C   0  0  0  0  0  0  0  0  0  0  0  0
  -18.1445  -16.8653   22.7672 C   0  0  1  0  0  0  0  0  0  0  0  0
  -16.4042  -13.8956   21.1792 C   0  0  2  0  0  0  0  0  0  0  0  0
  -17.7143  -17.3826   24.1690 C   0  0  0  0  0  0  0  0  0  0  0  0
  -27.2740  -25.1047   19.1584 N   0  0  0  0  0  0  0  0  0  0  0  0
  -28.4379  -24.4475   19.0186 N   0  0  0  0  0  0  0  0  0  0  0  0
  -27.0527  -13.1872   20.1602 N   0  0  0  0  0  0  0  0  0  0  0  0
  -19.6184  -18.1106   21.2178 N   0  0  0  0  0  0  0  0  0  0  0  0
  -28.3205  -20.6300   19.0665 N   0  0  0  0  0  0  0  0  0  0  0  0
  -30.7778  -24.6661   19.3141 N   0  0  0  0  0  0  0  0  0  0  0  0
  -29.1787  -28.6679   20.6646 N   0  0  0  0  0  0  0  0  0  0  0  0
  -20.2895  -21.6084   21.0051 N   0  0  0  0  0  0  0  0  0  0  0  0
  -17.1984  -15.9378   22.1564 N   0  0  0  0  0  0  0  0  0  0  0  0
  -29.2007  -18.4418   18.8798 N   0  0  0  0  0  0  0  0  0  0  0  0
  -16.8921  -12.9655   20.1219 N   0  3  0  0  0  0  0  0  0  0  0  0
  -27.6440  -13.0368   22.4316 O   0  0  0  0  0  0  0  0  0  0  0  0
  -31.0860  -27.4321   20.3585 O   0  0  0  0  0  0  0  0  0  0  0  0
  -21.2759  -19.9020   22.2451 O   0  0  0  0  0  0  0  0  0  0  0  0
  -17.3854  -18.7199   21.4981 O   0  0  0  0  0  0  0  0  0  0  0  0
  -18.6871  -14.1758   21.9190 O   0  0  0  0  0  0  0  0  0  0  0  0
  -30.2288  -19.9919   20.2195 O   0  0  0  0  0  0  0  0  0  0  0  0
  -23.8276  -30.2148   20.7581 O   0  0  0  0  0  0  0  0  0  0  0  0
  -25.1609  -15.5541   20.3248 O   0  0  0  0  0  0  0  0  0  1  0  0
  -24.2899  -32.9477   25.5248 F   0  0  0  0  0  0  0  0  0  0  0  0
  -21.8024  -30.1394   22.6384 F   0  0  0  0  0  0  0  0  0  0  0  0
  -30.6638  -17.1436   16.1384 Cl  0  0  0  0  0  0  0  0  0  0  0  0
  1  2  1  0  0  0  0
  1  5  2  0  0  0  0
  2  6  2  0  0  0  0
  3  9  2  0  0  0  0
  3 18  1  0  0  0  0
  4 10  1  0  0  0  0
  4 18  2  0  0  0  0
  5 20  1  0  0  0  0
  6 22  1  0  0  0  0
  7 11  2  0  0  0  0
  7 21  1  0  0  0  0
  8 14  2  0  0  0  0
  8 24  1  0  0  0  0
  9 26  1  0  0  0  0
 10 26  2  0  0  0  0
 11 27  1  0  0  0  0
 12 13  2  0  0  0  0
 12 28  1  0  0  0  0
 13 29  1  0  0  0  0
 14 31  1  0  0  0  0
 15 23  1  0  0  0  0
 15 27  2  0  0  0  0
 16 24  2  0  0  0  0
 16 25  1  0  0  0  0
 17 29  2  0  0  0  0
 17 30  1  0  0  0  0
 18 32  1  0  0  0  0
 19 32  1  0  0  0  0
 19 33  2  0  0  0  0
 19 35  1  0  0  0  0
 20 22  2  0  0  0  0
 20 40  1  0  0  0  0
 21 23  2  0  0  0  0
 21 41  1  0  0  0  0
 22 51  1  0  0  0  0
 23 42  1  0  0  0  0
 24 60  1  0  0  0  0
 25 31  2  0  0  0  0
 25 61  1  0  0  0  0
 26 82  1  0  0  0  0
 27 83  1  0  0  0  0
 28 30  2  0  0  0  0
 28 82  1  0  0  0  0
 29 84  1  0  0  0  0
 30 85  1  0  0  0  0
 31 86  1  0  0  0  0
 32 65  2  0  0  0  0
 33 66  1  0  0  0  0
 33 70  1  0  0  0  0
 34 43  1  0  0  0  0
 34 67  1  0  0  0  0
 34 76  2  0  0  0  0
 35 71  1  0  0  0  0
 35 77  2  0  0  0  0
 36 52  1  0  0  0  0
 36 72  1  0  0  0  0
 36 78  2  0  0  0  0
 37 62  1  0  0  0  0
 37 68  1  0  0  0  0
 37 79  2  0  0  0  0
 38 63  1  0  0  0  0
 38 73  1  0  0  0  0
 38 80  2  0  0  0  0
 39 69  1  0  0  0  0
 39 74  1  0  0  0  0
 39 81  2  0  0  0  0
 40 44  1  0  0  0  0
 41 52  1  0  0  0  0
 42 68  1  0  0  0  0
 43 54  1  0  0  0  0
 44 46  1  0  0  0  0
 45 47  1  0  0  0  0
 45 48  1  0  0  0  0
 46 51  1  0  0  0  0
 47 53  1  0  0  0  0
 48 69  1  0  0  0  0
 49 53  1  0  0  0  0
 49 69  1  0  0  0  0
 50 54  1  0  0  0  0
 50 67  1  0  0  0  0
 51 72  1  0  0  0  0
 52 68  1  0  0  0  0
 53 66  1  0  0  0  0
 54 83  1  0  0  0  0
 55 63  1  0  0  0  0
 56 64  1  0  0  0  0
 57 64  1  0  0  0  0
 58 64  1  0  0  0  0
 59 75  1  0  0  0  0
 60 67  1  0  0  0  0
 61 74  1  0  0  0  0
 62 64  1  0  0  0  0
 62 73  1  0  0  0  0
 63 75  1  0  0  0  0
 65 66  1  0  0  0  0
M  CHG  1  75   1
M  ISO  4  39 100  54 101  74 100  83 101
M  END
> <Batch ID>
0030

> <Smiles>
CNC(C)C(=O)NC(C(=O)N1Cc2cc([101O:1][101CH:1]3CC(=O)N(Cc4ccc(Cl)c(C[100NH:0][100C:0](=O)N5CCCC(n6nc(-c7ccc(Oc8ccc(F)cc8F)cc7)c(C(N)=O)c6N)C5)c4)C3)ccc2CC1C(=O)NC1CCCc2ccccc21)C(C)(C)C

> <Shape>
0.211

> <Color>
0.056

> <Negative vol penalty>
0.000

$$$$

  -OEChem-04042321363D

 86 95  0     1  0  0  0  0  0999 V2000
  -28.1866  -33.8318   24.5715 C   0  0  0  0  0  0  0  0  0  0  0  0
  -28.2730  -32.5065   24.1577 C   0  0  0  0  0  0  0  0  0  0  0  0
  -24.2513   -9.7117   22.0048 C   0  0  0  0  0  0  0  0  0  0  0  0
  -22.9315  -10.2878   20.0649 C   0  0  0  0  0  0  0  0  0  0  0  0
  -26.9576  -34.3591   24.9660 C   0  0  0  0  0  0  0  0  0  0  0  0
  -27.1305  -31.7072   24.1390 C   0  0  0  0  0  0  0  0  0  0  0  0
  -26.7466  -28.9655   19.8986 C   0  0  0  0  0  0  0  0  0  0  0  0
  -27.6166  -20.9835   16.2774 C   0  0  0  0  0  0  0  0  0  0  0  0
  -26.5282  -20.2196   15.8565 C   0  0  0  0  0  0  0  0  0  0  0  0
  -23.4647   -8.5770   22.2030 C   0  0  0  0  0  0  0  0  0  0  0  0
  -22.1449   -9.1531   20.2630 C   0  0  0  0  0  0  0  0  0  0  0  0
  -27.5392  -27.8223   19.8057 C   0  0  0  0  0  0  0  0  0  0  0  0
  -23.2037   -5.4681   20.8992 C   0  0  0  0  0  0  0  0  0  0  0  0
  -23.8562   -4.2689   21.1849 C   0  0  0  0  0  0  0  0  0  0  0  0
  -25.6411  -26.4641   20.4156 C   0  0  0  0  0  0  0  0  0  0  0  0
  -22.6839   -4.1333   23.2931 C   0  0  0  0  0  0  0  0  0  0  0  0
  -23.9847  -10.5671   20.9358 C   0  0  0  0  0  0  0  0  0  0  0  0
  -25.9709  -11.8367   19.9605 C   0  0  0  0  0  0  0  0  0  0  0  0
  -25.7977  -33.5686   24.9429 C   0  0  0  0  0  0  0  0  0  0  0  0
  -25.3958  -28.8675   20.2620 C   0  0  0  0  0  0  0  0  0  0  0  0
  -25.8851  -32.2239   24.5348 C   0  0  0  0  0  0  0  0  0  0  0  0
  -24.8329  -27.6074   20.5100 C   0  0  0  0  0  0  0  0  0  0  0  0
  -28.0972  -20.8543   17.5805 C   0  0  0  0  0  0  0  0  0  0  0  0
  -25.9202  -19.3264   16.7387 C   0  0  0  0  0  0  0  0  0  0  0  0
  -27.4892  -19.9612   18.4627 C   0  0  0  0  0  0  0  0  0  0  0  0
  -26.4007  -19.1972   18.0418 C   0  0  0  0  0  0  0  0  0  0  0  0
  -22.4115   -8.2977   21.3321 C   0  0  0  0  0  0  0  0  0  0  0  0
  -26.9872  -26.5716   20.0670 C   0  0  0  0  0  0  0  0  0  0  0  0
  -22.2914   -6.0001   21.8105 C   0  0  0  0  0  0  0  0  0  0  0  0
  -23.5962   -3.6014   22.3819 C   0  0  0  0  0  0  0  0  0  0  0  0
  -22.0314   -5.3326   23.0074 C   0  0  0  0  0  0  0  0  0  0  0  0
  -24.7966  -11.7397   20.7308 C   0  0  0  0  0  0  0  0  0  0  0  0
  -26.3569  -13.1488   20.0865 C   0  0  0  0  0  0  0  0  0  0  0  0
  -30.0085  -23.6459   19.2692 C   0  0  0  0  0  0  0  0  0  0  0  0
  -30.9654  -23.1685   20.0739 C   0  0  0  0  0  0  0  0  0  0  0  0
  -26.6518  -10.8306   19.1990 C   0  0  0  0  0  0  0  0  0  0  0  0
  -23.6385  -29.9527   22.6782 C   0  0  0  0  0  0  0  0  0  0  0  0
  -21.1943  -28.6995   20.9526 C   0  0  0  0  0  0  0  0  0  0  0  0
  -20.1622  -26.4542   18.5988 C   0  0  0  0  0  0  0  0  0  0  0  0
  -25.1732  -18.5891   20.1561 C   0  0  0  0  0  0  0  0  0  0  0  0
  -24.5004  -34.1691   25.4234 C   0  0  0  0  0  0  0  0  0  0  0  0
  -24.5476  -30.1077   20.3319 C   0  0  0  0  0  0  0  0  0  0  0  0
  -23.3829  -27.4463   20.8840 C   0  0  0  0  0  0  0  0  0  0  0  0
  -29.8658  -25.0732   18.8414 C   0  0  0  0  0  0  0  0  0  0  0  0
  -23.2690  -33.3631   25.0180 C   0  0  0  0  0  0  0  0  0  0  0  0
  -24.6971  -16.7870   23.1897 C   0  0  0  0  0  0  0  0  0  0  0  0
  -23.4874  -31.8791   25.2951 C   0  0  0  0  0  0  0  0  0  0  0  0
  -24.7771  -15.3213   22.7571 C   0  0  0  0  0  0  0  0  0  0  0  0
  -24.0039  -17.6517   22.1382 C   0  0  0  0  0  0  0  0  0  0  0  0
  -24.6398  -16.0805   20.3505 C   0  0  0  0  0  0  0  0  0  0  0  0
  -27.9120  -23.8010   18.2370 C   0  0  0  0  0  0  0  0  0  0  0  0
  -24.6637  -31.3323   24.4772 C   0  0  1  0  0  0  0  0  0  0  0  0
  -23.3127  -29.9383   21.2115 C   0  0  1  0  0  0  0  0  0  0  0  0
  -25.3878  -15.1819   21.3488 C   0  0  2  0  0  0  0  0  0  0  0  0
  -28.3540  -25.1771   18.7143 C   0  0  1  0  0  0  0  0  0  1  0  0
  -24.7555  -18.5223   16.2583 C   0  0  0  0  0  0  0  0  0  0  0  0
  -28.0093  -19.8288   19.8601 C   0  0  0  0  0  0  0  0  0  0  0  0
  -18.0995  -25.6379   17.4257 C   0  0  0  0  0  0  0  0  0  0  0  0
  -20.3870  -27.1511   23.4547 C   0  0  0  0  0  0  0  0  0  0  0  0
  -18.9698  -25.6829   22.0042 C   0  0  0  0  0  0  0  0  0  0  0  0
  -18.4758  -28.1226   22.1671 C   0  0  0  0  0  0  0  0  0  0  0  0
  -21.2096  -27.2584   15.9502 C   0  0  0  0  0  0  0  0  0  0  0  0
  -29.2691  -21.6885   18.0069 C   0  0  0  0  0  0  0  0  0  0  0  0
  -20.5139  -27.3536   20.8839 C   0  0  1  0  0  0  0  0  0  0  0  0
  -19.2683  -26.6099   17.3818 C   0  0  2  0  0  0  0  0  0  0  0  0
  -19.6145  -27.0804   22.1223 C   0  0  0  0  0  0  0  0  0  0  0  0
  -24.4588  -12.8980   21.3040 N   0  0  0  0  0  0  0  0  0  0  0  0
  -25.4268  -13.7351   20.8936 N   0  0  0  0  0  0  0  0  0  0  0  0
  -22.5963  -28.6893   20.9454 N   0  0  0  0  0  0  0  0  0  0  0  0
  -24.6387  -17.4712   20.8308 N   0  0  0  0  0  0  0  0  0  0  0  0
  -27.3978  -13.8466   19.5847 N   0  0  0  0  0  0  0  0  0  0  0  0
  -26.1193   -9.5344   19.1773 N   0  0  0  0  0  0  0  0  0  0  0  0
  -25.7807  -18.2904   18.9369 N   0  0  0  0  0  0  0  0  0  0  0  0
  -24.2640  -31.1088   23.1043 N   0  0  0  0  0  0  0  0  0  0  0  0
  -19.8034  -27.3200   19.6102 N   0  0  0  0  0  0  0  0  0  0  0  0
  -28.8842  -22.8290   18.9005 N   0  3  1  0  0  0  0  0  0  0  0  0
  -20.0432  -26.3569   16.1342 N   0  3  0  0  0  0  0  0  0  0  0  0
  -27.7105  -11.0700   18.5702 O   0  0  0  0  0  0  0  0  0  0  0  0
  -23.3428  -28.9870   23.3723 O   0  0  0  0  0  0  0  0  0  0  0  0
  -20.5070  -29.7226   21.0032 O   0  0  0  0  0  0  0  0  0  0  0  0
  -21.0841  -25.6430   18.6487 O   0  0  0  0  0  0  0  0  0  0  0  0
  -25.1218  -19.7236   20.6379 O   0  0  0  0  0  0  0  0  0  0  0  0
  -21.6439   -7.1904   21.5250 O   0  0  0  0  0  0  0  0  0  0  0  0
  -27.7587  -25.4542   19.9776 O   0  0  0  0  0  0  0  0  0  1  0  0
  -24.2217   -2.4490   22.6554 F   0  0  0  0  0  0  0  0  0  0  0  0
  -21.1551   -5.8381   23.8862 F   0  0  0  0  0  0  0  0  0  0  0  0
  1  2  1  0  0  0  0
  1  5  2  0  0  0  0
  2  6  2  0  0  0  0
  3 10  2  0  0  0  0
  3 17  1  0  0  0  0
  4 11  1  0  0  0  0
  4 17  2  0  0  0  0
  5 19  1  0  0  0  0
  6 21  1  0  0  0  0
  7 12  2  0  0  0  0
  7 20  1  0  0  0  0
  8  9  2  0  0  0  0
  8 23  1  0  0  0  0
  9 24  1  0  0  0  0
 10 27  1  0  0  0  0
 11 27  2  0  0  0  0
 12 28  1  0  0  0  0
 13 14  2  0  0  0  0
 13 29  1  0  0  0  0
 14 30  1  0  0  0  0
 15 22  1  0  0  0  0
 15 28  2  0  0  0  0
 16 30  2  0  0  0  0
 16 31  1  0  0  0  0
 17 32  1  0  0  0  0
 18 32  1  0  0  0  0
 18 33  2  0  0  0  0
 18 36  1  0  0  0  0
 19 21  2  0  0  0  0
 19 41  1  0  0  0  0
 20 22  2  0  0  0  0
 20 42  1  0  0  0  0
 21 52  1  0  0  0  0
 22 43  1  0  0  0  0
 23 25  2  0  0  0  0
 23 63  1  0  0  0  0
 24 26  2  0  0  0  0
 24 56  1  0  0  0  0
 25 26  1  0  0  0  0
 25 57  1  0  0  0  0
 26 73  1  0  0  0  0
 27 83  1  0  0  0  0
 28 84  1  0  0  0  0
 29 31  2  0  0  0  0
 29 83  1  0  0  0  0
 30 85  1  0  0  0  0
 31 86  1  0  0  0  0
 32 67  2  0  0  0  0
 33 68  1  0  0  0  0
 33 71  1  0  0  0  0
 34 35  2  0  0  0  0
 34 44  1  0  0  0  0
 34 76  1  0  0  0  0
 36 72  1  0  0  0  0
 36 78  2  0  0  0  0
 37 53  1  0  0  0  0
 37 74  1  0  0  0  0
 37 79  2  0  0  0  0
 38 64  1  0  0  0  0
 38 69  1  0  0  0  0
 38 80  2  0  0  0  0
 39 65  1  0  0  0  0
 39 75  1  0  0  0  0
 39 81  2  0  0  0  0
 40 70  1  0  0  0  0
 40 73  1  0  0  0  0
 40 82  2  0  0  0  0
 41 45  1  0  0  0  0
 42 53  1  0  0  0  0
 43 69  1  0  0  0  0
 44 55  1  0  0  0  0
 45 47  1  0  0  0  0
 46 48  1  0  0  0  0
 46 49  1  0  0  0  0
 47 52  1  0  0  0  0
 48 54  1  0  0  0  0
 49 70  1  0  0  0  0
 50 54  1  0  0  0  0
 50 70  1  0  0  0  0
 51 55  1  0  0  0  0
 51 76  1  0  0  0  0
 52 74  1  0  0  0  0
 53 69  1  0  0  0  0
 54 68  1  0  0  0  0
 55 84  1  0  0  0  0
 58 65  1  0  0  0  0
 59 66  1  0  0  0  0
 60 66  1  0  0  0  0
 61 66  1  0  0  0  0
 62 77  1  0  0  0  0
 63 76  1  0  0  0  0
 64 66  1  0  0  0  0
 64 75  1  0  0  0  0
 65 77  1  0  0  0  0
 67 68  1  0  0  0  0
M  CHG  2  76   1  77   1
M  ISO  4  40 100  55 101  73 100  84 101
M  END
> <Batch ID>
0030

> <Smiles>
C=C1C[101CH:1]([101O:1]c2ccc3c(c2)CN(C(=O)C(NC(=O)C(C)NC)C(C)(C)C)C(C(=O)NC2CCCc4ccccc42)C3)CN1Cc1ccc(C)c([100NH:0][100C:0](=O)N2CCCC(n3nc(-c4ccc(Oc5ccc(F)cc5F)cc4)c(C(N)=O)c3N)C2)c1C

> <Shape>
0.315

> <Color>
0.092

> <Negative vol penalty>
0.000

$$$$

  -OEChem-04042321363D

 84 92  0     1  0  0  0  0  0999 V2000
  -28.3186  -24.7746   16.5766 C   0  0  0  0  0  0  0  0  0  0  0  0
  -27.1384  -24.9130   17.3000 C   0  0  0  0  0  0  0  0  0  0  0  0
  -28.6634  -17.6376   21.3106 C   0  0  0  0  0  0  0  0  0  0  0  0
  -26.2851  -17.8488   20.9418 C   0  0  0  0  0  0  0  0  0  0  0  0
  -29.5022  -25.3279   17.0633 C   0  0  0  0  0  0  0  0  0  0  0  0
  -27.1414  -25.6039   18.5113 C   0  0  0  0  0  0  0  0  0  0  0  0
  -23.2372  -28.8014   18.9334 C   0  0  0  0  0  0  0  0  0  0  0  0
  -28.6353  -16.3570   20.7584 C   0  0  0  0  0  0  0  0  0  0  0  0
  -26.2570  -16.5682   20.3896 C   0  0  0  0  0  0  0  0  0  0  0  0
  -21.9971  -28.2529   19.2576 C   0  0  0  0  0  0  0  0  0  0  0  0
  -25.4942  -13.2153   19.2121 C   0  0  0  0  0  0  0  0  0  0  0  0
  -24.4677  -12.3594   19.6115 C   0  0  0  0  0  0  0  0  0  0  0  0
  -22.3111  -28.9164   21.5555 C   0  0  0  0  0  0  0  0  0  0  0  0
  -21.4676  -24.2367   26.0955 C   0  0  0  0  0  0  0  0  0  0  0  0
  -20.2217  -22.4906   24.3118 C   0  0  0  0  0  0  0  0  0  0  0  0
  -25.2257  -12.5181   21.9000 C   0  0  0  0  0  0  0  0  0  0  0  0
  -27.4882  -18.3835   21.4024 C   0  0  0  0  0  0  0  0  0  0  0  0
  -27.7294  -20.9207   21.2941 C   0  0  0  0  0  0  0  0  0  0  0  0
  -29.5177  -26.0342   18.2764 C   0  0  0  0  0  0  0  0  0  0  0  0
  -24.0297  -29.4029   19.9216 C   0  0  0  0  0  0  0  0  0  0  0  0
  -28.3265  -26.1660   19.0153 C   0  0  0  0  0  0  0  0  0  0  0  0
  -23.5597  -29.4741   21.2408 C   0  0  0  0  0  0  0  0  0  0  0  0
  -21.6510  -22.8600   26.2243 C   0  0  0  0  0  0  0  0  0  0  0  0
  -20.0383  -23.8674   24.1830 C   0  0  0  0  0  0  0  0  0  0  0  0
  -27.4322  -15.8223   20.2979 C   0  0  0  0  0  0  0  0  0  0  0  0
  -21.5352  -28.3078   20.5693 C   0  0  0  0  0  0  0  0  0  0  0  0
  -26.3864  -13.7226   20.1567 C   0  0  0  0  0  0  0  0  0  0  0  0
  -24.3335  -12.0109   20.9554 C   0  0  0  0  0  0  0  0  0  0  0  0
  -26.2522  -13.3740   21.5006 C   0  0  0  0  0  0  0  0  0  0  0  0
  -21.0281  -21.9869   25.3325 C   0  0  0  0  0  0  0  0  0  0  0  0
  -20.6612  -24.7404   25.0749 C   0  0  0  0  0  0  0  0  0  0  0  0
  -27.5164  -19.7061   21.9732 C   0  0  0  0  0  0  0  0  0  0  0  0
  -27.6615  -21.8793   22.2754 C   0  0  0  0  0  0  0  0  0  0  0  0
  -27.9672  -21.1610   19.9008 C   0  0  0  0  0  0  0  0  0  0  0  0
  -26.9072  -28.8310   21.1451 C   0  0  0  0  0  0  0  0  0  0  0  0
  -26.3636  -31.6162   22.7167 C   0  0  0  0  0  0  0  0  0  0  0  0
  -24.1006  -33.8631   23.9319 C   0  0  0  0  0  0  0  0  0  0  0  0
  -24.9692  -22.0587   27.6206 C   0  0  0  0  0  0  0  0  0  0  0  0
  -30.8308  -26.5740   18.7853 C   0  0  0  0  0  0  0  0  0  0  0  0
  -25.3532  -30.0137   19.5506 C   0  0  0  0  0  0  0  0  0  0  0  0
  -24.3632  -30.1269   22.3348 C   0  0  0  0  0  0  0  0  0  0  0  0
  -30.6741  -27.6131   19.8926 C   0  0  0  0  0  0  0  0  0  0  0  0
  -28.4375  -22.5095   26.9543 C   0  0  0  0  0  0  0  0  0  0  0  0
  -29.6735  -27.1318   20.9385 C   0  0  0  0  0  0  0  0  0  0  0  0
  -28.6140  -21.9518   25.5409 C   0  0  0  0  0  0  0  0  0  0  0  0
  -27.4171  -21.7040   27.7555 C   0  0  0  0  0  0  0  0  0  0  0  0
  -26.2804  -20.9868   25.6898 C   0  0  0  0  0  0  0  0  0  0  0  0
  -28.2844  -26.9297   20.3211 C   0  0  1  0  0  0  0  0  0  0  0  0
  -26.3041  -30.1451   20.7363 C   0  0  1  0  0  0  0  0  0  0  0  0
  -27.2585  -21.8000   24.8247 C   0  0  2  0  0  0  0  0  0  0  0  0
  -23.9560  -36.0218   25.2033 C   0  0  0  0  0  0  0  0  0  0  0  0
  -26.9757  -30.1277   25.3089 C   0  0  0  0  0  0  0  0  0  0  0  0
  -25.9118  -32.0157   26.5626 C   0  0  0  0  0  0  0  0  0  0  0  0
  -27.9428  -32.4301   25.1748 C   0  0  0  0  0  0  0  0  0  0  0  0
  -22.7745  -35.2395   21.6723 C   0  0  0  0  0  0  0  0  0  0  0  0
  -22.5229  -22.3610   27.3310 C   0  0  0  0  0  0  0  0  0  0  0  0
  -19.1631  -24.3696   23.0727 C   0  0  0  0  0  0  0  0  0  0  0  0
  -19.0550  -25.7331   20.9828 C   0  0  0  0  0  0  0  0  0  0  0  0
  -19.8830  -26.6590   20.1137 C   0  0  0  0  0  0  0  0  0  1  0  0
  -25.7293  -31.9946   24.0333 C   0  0  1  0  0  0  0  0  0  0  0  0
  -24.0280  -35.3759   23.8284 C   0  0  2  0  0  0  0  0  0  0  0  0
  -26.6254  -31.6279   25.2499 C   0  0  0  0  0  0  0  0  0  0  0  0
  -27.3276  -19.8749   23.2847 N   0  0  0  0  0  0  0  0  0  0  0  0
  -27.4217  -21.2067   23.4375 N   0  0  0  0  0  0  0  0  0  0  0  0
  -25.6536  -30.7040   21.9232 N   0  0  0  0  0  0  0  0  0  0  0  0
  -26.1536  -21.5988   27.0218 N   0  0  0  0  0  0  0  0  0  0  0  0
  -27.7841  -23.2234   22.2491 N   0  0  0  0  0  0  0  0  0  0  0  0
  -28.0054  -20.0632   19.0304 N   0  0  0  0  0  0  0  0  0  0  0  0
  -27.6207  -28.2032   20.1420 N   0  0  0  0  0  0  0  0  0  0  0  0
  -25.4041  -33.4135   23.9368 N   0  0  0  0  0  0  0  0  0  0  0  0
  -23.8175  -21.9276   26.8543 N   0  0  0  0  0  0  0  0  0  0  0  0
  -22.8226  -35.7848   23.0533 N   0  3  0  0  0  0  0  0  0  0  0  0
  -19.8791  -25.2672   22.1264 N   0  3  0  0  0  0  0  0  0  0  0  0
  -28.1570  -22.3137   19.4437 O   0  0  0  0  0  0  0  0  0  0  0  0
  -26.7390  -28.4181   22.2865 O   0  0  0  0  0  0  0  0  0  0  0  0
  -27.4457  -32.1171   22.4006 O   0  0  0  0  0  0  0  0  0  0  0  0
  -23.1010  -33.1517   24.0051 O   0  0  0  0  0  0  0  0  0  0  0  0
  -24.9410  -22.5547   28.7520 O   0  0  0  0  0  0  0  0  0  0  0  0
  -27.4045  -14.5729   19.7588 O   0  0  0  0  0  0  0  0  0  0  0  0
  -20.3254  -27.7726   20.8886 O   0  0  0  0  0  0  0  0  0  1  0  0
  -23.3468  -11.1901   21.3389 F   0  0  0  0  0  0  0  0  0  0  0  0
  -27.1056  -13.8591   22.4128 F   0  0  0  0  0  0  0  0  0  0  0  0
  -21.2333  -20.2780   25.4606 Cl  0  0  0  0  0  0  0  0  0  0  0  0
  -20.4573  -26.4496   24.9463 Cl  0  0  0  0  0  0  0  0  0  0  0  0
  1  2  1  0  0  0  0
  1  5  2  0  0  0  0
  2  6  2  0  0  0  0
  3  8  2  0  0  0  0
  3 17  1  0  0  0  0
  4  9  1  0  0  0  0
  4 17  2  0  0  0  0
  5 19  1  0  0  0  0
  6 21  1  0  0  0  0
  7 10  2  0  0  0  0
  7 20  1  0  0  0  0
  8 25  1  0  0  0  0
  9 25  2  0  0  0  0
 10 26  1  0  0  0  0
 11 12  2  0  0  0  0
 11 27  1  0  0  0  0
 12 28  1  0  0  0  0
 13 22  1  0  0  0  0
 13 26  2  0  0  0  0
 14 23  2  0  0  0  0
 14 31  1  0  0  0  0
 15 24  1  0  0  0  0
 15 30  2  0  0  0  0
 16 28  2  0  0  0  0
 16 29  1  0  0  0  0
 17 32  1  0  0  0  0
 18 32  1  0  0  0  0
 18 33  2  0  0  0  0
 18 34  1  0  0  0  0
 19 21  2  0  0  0  0
 19 39  1  0  0  0  0
 20 22  2  0  0  0  0
 20 40  1  0  0  0  0
 21 48  1  0  0  0  0
 22 41  1  0  0  0  0
 23 30  1  0  0  0  0
 23 56  1  0  0  0  0
 24 31  2  0  0  0  0
 24 57  1  0  0  0  0
 25 79  1  0  0  0  0
 26 80  1  0  0  0  0
 27 29  2  0  0  0  0
 27 79  1  0  0  0  0
 28 81  1  0  0  0  0
 29 82  1  0  0  0  0
 30 83  1  0  0  0  0
 31 84  1  0  0  0  0
 32 63  2  0  0  0  0
 33 64  1  0  0  0  0
 33 67  1  0  0  0  0
 34 68  1  0  0  0  0
 34 74  2  0  0  0  0
 35 49  1  0  0  0  0
 35 69  1  0  0  0  0
 35 75  2  0  0  0  0
 36 60  1  0  0  0  0
 36 65  1  0  0  0  0
 36 76  2  0  0  0  0
 37 61  1  0  0  0  0
 37 70  1  0  0  0  0
 37 77  2  0  0  0  0
 38 66  1  0  0  0  0
 38 71  1  0  0  0  0
 38 78  2  0  0  0  0
 39 42  1  0  0  0  0
 40 49  1  0  0  0  0
 41 65  1  0  0  0  0
 42 44  1  0  0  0  0
 43 45  1  0  0  0  0
 43 46  1  0  0  0  0
 44 48  1  0  0  0  0
 45 50  1  0  0  0  0
 46 66  1  0  0  0  0
 47 50  1  0  0  0  0
 47 66  1  0  0  0  0
 48 69  1  0  0  0  0
 49 65  1  0  0  0  0
 50 64  1  0  0  0  0
 51 61  1  0  0  0  0
 52 62  1  0  0  0  0
 53 62  1  0  0  0  0
 54 62  1  0  0  0  0
 55 72  1  0  0  0  0
 56 71  1  0  0  0  0
 57 73  1  0  0  0  0
 58 59  1  0  0  0  0
 58 73  1  0  0  0  0
 59 80  1  0  0  0  0
 60 62  1  0  0  0  0
 60 70  1  0  0  0  0
 61 72  1  0  0  0  0
 63 64  1  0  0  0  0
M  CHG  2  72   1  73   1
M  ISO  4  38 100  59 101  71 100  80 101
M  END
> <Batch ID>
0030

> <Smiles>
CNC(C)C(=O)NC(C(=O)N1Cc2cc([101O:1][101CH2:1]CNCc3cc(Cl)c(C[100NH:0][100C:0](=O)N4CCCC(n5nc(-c6ccc(Oc7ccc(F)cc7F)cc6)c(C(N)=O)c5N)C4)cc3Cl)ccc2CC1C(=O)NC1CCCc2ccccc21)C(C)(C)C

> <Shape>
0.270

> <Color>
0.077

> <Negative vol penalty>
0.000

$$$$

  -OEChem-04042321363D

 87 96  0     1  0  0  0  0  0999 V2000
  -19.5603  -27.0971   26.4592 C   0  0  0  0  0  0  0  0  0  0  0  0
  -20.8552  -26.8320   26.0252 C   0  0  0  0  0  0  0  0  0  0  0  0
  -23.4533  -13.1595   22.6703 C   0  0  0  0  0  0  0  0  0  0  0  0
  -24.9997  -12.0719   21.1660 C   0  0  0  0  0  0  0  0  0  0  0  0
  -18.5996  -27.5417   25.5519 C   0  0  0  0  0  0  0  0  0  0  0  0
  -21.1899  -27.0104   24.6834 C   0  0  0  0  0  0  0  0  0  0  0  0
  -26.5627  -28.9235   22.4521 C   0  0  0  0  0  0  0  0  0  0  0  0
  -22.8096  -11.9416   22.8892 C   0  0  0  0  0  0  0  0  0  0  0  0
  -24.3560  -10.8539   21.3850 C   0  0  0  0  0  0  0  0  0  0  0  0
  -27.6544  -28.2391   21.9195 C   0  0  0  0  0  0  0  0  0  0  0  0
  -24.2992   -8.4622   23.7718 C   0  0  0  0  0  0  0  0  0  0  0  0
  -25.0970   -7.3411   24.0001 C   0  0  0  0  0  0  0  0  0  0  0  0
  -26.8012  -28.6213   19.6957 C   0  0  0  0  0  0  0  0  0  0  0  0
  -30.6962  -22.3970   20.7394 C   0  0  0  0  0  0  0  0  0  0  0  0
  -24.1447   -6.2677   22.0563 C   0  0  0  0  0  0  0  0  0  0  0  0
  -24.5483  -13.2247   21.8086 C   0  0  0  0  0  0  0  0  0  0  0  0
  -25.8437  -15.2964   22.5420 C   0  0  0  0  0  0  0  0  0  0  0  0
  -18.9251  -27.7350   24.2001 C   0  0  0  0  0  0  0  0  0  0  0  0
  -25.5748  -29.4534   21.6096 C   0  0  0  0  0  0  0  0  0  0  0  0
  -20.2323  -27.4568   23.7568 C   0  0  0  0  0  0  0  0  0  0  0  0
  -25.6994  -29.3142   20.2200 C   0  0  0  0  0  0  0  0  0  0  0  0
  -28.9379  -22.8810   19.1548 C   0  0  0  0  0  0  0  0  0  0  0  0
  -29.5222  -20.5892   19.6483 C   0  0  0  0  0  0  0  0  0  0  0  0
  -29.9154  -23.3222   20.0467 C   0  0  0  0  0  0  0  0  0  0  0  0
  -23.2609  -10.7888   22.2466 C   0  0  0  0  0  0  0  0  0  0  0  0
  -27.7723  -28.0854   20.5412 C   0  0  0  0  0  0  0  0  0  0  0  0
  -23.4240   -8.4861   22.6858 C   0  0  0  0  0  0  0  0  0  0  0  0
  -25.0198   -6.2438   23.1423 C   0  0  0  0  0  0  0  0  0  0  0  0
  -23.3468   -7.3888   21.8281 C   0  0  0  0  0  0  0  0  0  0  0  0
  -30.4997  -21.0305   20.5402 C   0  0  0  0  0  0  0  0  0  0  0  0
  -28.7413  -21.5144   18.9556 C   0  0  0  0  0  0  0  0  0  0  0  0
  -25.2133  -14.4826   21.5817 C   0  0  0  0  0  0  0  0  0  0  0  0
  -26.3165  -16.3689   21.8261 C   0  0  0  0  0  0  0  0  0  0  0  0
  -25.9889  -15.1003   23.9548 C   0  0  0  0  0  0  0  0  0  0  0  0
  -22.4586  -28.9616   21.2207 C   0  0  0  0  0  0  0  0  0  0  0  0
  -22.7149  -31.4655   19.1746 C   0  0  0  0  0  0  0  0  0  0  0  0
  -24.6983  -33.3451   17.1301 C   0  0  0  0  0  0  0  0  0  0  0  0
  -29.1279  -18.0178   17.1684 C   0  0  0  0  0  0  0  0  0  0  0  0
  -17.8406  -28.1719   23.2474 C   0  0  0  0  0  0  0  0  0  0  0  0
  -24.4172  -30.2121   22.1985 C   0  0  0  0  0  0  0  0  0  0  0  0
  -24.6765  -29.8819   19.2713 C   0  0  0  0  0  0  0  0  0  0  0  0
  -18.3737  -28.6939   21.9157 C   0  0  0  0  0  0  0  0  0  0  0  0
  -25.4326  -17.8245   17.0727 C   0  0  0  0  0  0  0  0  0  0  0  0
  -19.4411  -27.7549   21.3629 C   0  0  0  0  0  0  0  0  0  0  0  0
  -25.1138  -16.9435   18.2793 C   0  0  0  0  0  0  0  0  0  0  0  0
  -31.1553  -26.7880   20.2715 C   0  0  0  0  0  0  0  0  0  0  0  0
  -26.8086  -17.5139   16.4913 C   0  0  0  0  0  0  0  0  0  0  0  0
  -31.0628  -25.4797   19.4865 C   0  0  0  0  0  0  0  0  0  0  0  0
  -27.5945  -16.7068   18.6924 C   0  0  0  0  0  0  0  0  0  0  0  0
  -29.4327  -25.4555   21.2790 C   0  0  0  0  0  0  0  0  0  0  0  0
  -20.6403  -27.6619   22.3141 C   0  0  1  0  0  0  0  0  0  0  0  0
  -23.2049  -30.2646   21.2739 C   0  0  1  0  0  0  0  0  0  0  0  0
  -26.2343  -17.0264   19.3305 C   0  0  2  0  0  0  0  0  0  0  0  0
  -29.7920  -26.9011   20.9382 C   0  0  2  0  0  0  0  0  0  1  0  0
  -28.1085  -23.8898   18.4201 C   0  0  0  0  0  0  0  0  0  0  0  0
  -24.6160  -35.3014   15.5605 C   0  0  0  0  0  0  0  0  0  0  0  0
  -21.4008  -29.7069   17.0555 C   0  0  0  0  0  0  0  0  0  0  0  0
  -22.1991  -31.3237   15.3186 C   0  0  0  0  0  0  0  0  0  0  0  0
  -20.6054  -32.0777   17.0833 C   0  0  0  0  0  0  0  0  0  0  0  0
  -31.2003  -19.1676   17.8485 C   0  0  0  0  0  0  0  0  0  0  0  0
  -26.6134  -34.8920   18.7728 C   0  0  0  0  0  0  0  0  0  0  0  0
  -29.3147  -19.1198   19.4385 C   0  0  0  0  0  0  0  0  0  0  0  0
  -23.0130  -31.6170   17.7024 C   0  0  1  0  0  0  0  0  0  0  0  0
  -24.8639  -34.8477   16.9907 C   0  0  2  0  0  0  0  0  0  0  0  0
  -21.8230  -31.1688   16.8076 C   0  0  0  0  0  0  0  0  0  0  0  0
  -25.2780  -14.9944   20.3496 N   0  0  0  0  0  0  0  0  0  0  0  0
  -25.9544  -16.1414   20.5310 N   0  0  0  0  0  0  0  0  0  0  0  0
  -30.1259  -24.6686   20.2583 N   0  0  3  0  0  0  0  0  0  0  0  0
  -23.5597  -30.6100   19.8958 N   0  0  0  0  0  0  0  0  0  0  0  0
  -27.8484  -17.5573   17.5200 N   0  0  0  0  0  0  0  0  0  0  0  0
  -27.0024  -17.4751   22.1844 N   0  0  0  0  0  0  0  0  0  0  0  0
  -27.1178  -14.4132   24.4215 N   0  0  0  0  0  0  0  0  0  0  0  0
  -21.4786  -28.8348   22.1866 N   0  0  0  0  0  0  0  0  0  0  0  0
  -23.4166  -33.0055   17.5084 N   0  0  0  0  0  0  0  0  0  0  0  0
  -29.8726  -18.6623   18.1677 N   0  0  0  0  0  0  0  0  0  0  0  0
  -26.2433  -35.2552   17.3806 N   0  3  0  0  0  0  0  0  0  0  0  0
  -25.1343  -15.5075   24.7779 O   0  0  0  0  0  0  0  0  0  0  0  0
  -22.7494  -28.1332   20.3658 O   0  0  0  0  0  0  0  0  0  0  0  0
  -21.7718  -32.0891   19.6679 O   0  0  0  0  0  0  0  0  0  0  0  0
  -25.6134  -32.5519   16.9205 O   0  0  0  0  0  0  0  0  0  0  0  0
  -29.5751  -17.8702   16.0237 O   0  0  0  0  0  0  0  0  0  0  0  0
  -22.6332   -9.6002   22.4601 O   0  0  0  0  0  0  0  0  0  0  0  0
  -28.8365  -27.4173   20.0187 O   0  0  0  0  0  0  0  0  0  1  0  0
  -25.7872   -5.1679   23.3608 F   0  0  0  0  0  0  0  0  0  0  0  0
  -22.5089   -7.4064   20.7825 F   0  0  0  0  0  0  0  0  0  0  0  0
  -31.4884  -19.9202   21.4186 Cl  0  0  0  0  0  0  0  0  0  0  0  0
  -27.5265  -20.9689   17.8455 Cl  0  0  0  0  0  0  0  0  0  0  0  0
  1  2  1  0  0  0  0
  1  5  2  0  0  0  0
  2  6  2  0  0  0  0
  3  8  2  0  0  0  0
  3 16  1  0  0  0  0
  4  9  1  0  0  0  0
  4 16  2  0  0  0  0
  5 18  1  0  0  0  0
  6 20  1  0  0  0  0
  7 10  2  0  0  0  0
  7 19  1  0  0  0  0
  8 25  1  0  0  0  0
  9 25  2  0  0  0  0
 10 26  1  0  0  0  0
 11 12  2  0  0  0  0
 11 27  1  0  0  0  0
 12 28  1  0  0  0  0
 13 21  1  0  0  0  0
 13 26  2  0  0  0  0
 14 24  1  0  0  0  0
 14 30  2  0  0  0  0
 15 28  2  0  0  0  0
 15 29  1  0  0  0  0
 16 32  1  0  0  0  0
 17 32  1  0  0  0  0
 17 33  2  0  0  0  0
 17 34  1  0  0  0  0
 18 20  2  0  0  0  0
 18 39  1  0  0  0  0
 19 21  2  0  0  0  0
 19 40  1  0  0  0  0
 20 51  1  0  0  0  0
 21 41  1  0  0  0  0
 22 24  2  0  0  0  0
 22 31  1  0  0  0  0
 22 55  1  0  0  0  0
 23 30  1  0  0  0  0
 23 31  2  0  0  0  0
 23 62  1  0  0  0  0
 24 68  1  0  0  0  0
 25 82  1  0  0  0  0
 26 83  1  0  0  0  0
 27 29  2  0  0  0  0
 27 82  1  0  0  0  0
 28 84  1  0  0  0  0
 29 85  1  0  0  0  0
 30 86  1  0  0  0  0
 31 87  1  0  0  0  0
 32 66  2  0  0  0  0
 33 67  1  0  0  0  0
 33 71  1  0  0  0  0
 34 72  1  0  0  0  0
 34 77  2  0  0  0  0
 35 52  1  0  0  0  0
 35 73  1  0  0  0  0
 35 78  2  0  0  0  0
 36 63  1  0  0  0  0
 36 69  1  0  0  0  0
 36 79  2  0  0  0  0
 37 64  1  0  0  0  0
 37 74  1  0  0  0  0
 37 80  2  0  0  0  0
 38 70  1  0  0  0  0
 38 75  1  0  0  0  0
 38 81  2  0  0  0  0
 39 42  1  0  0  0  0
 40 52  1  0  0  0  0
 41 69  1  0  0  0  0
 42 44  1  0  0  0  0
 43 45  1  0  0  0  0
 43 47  1  0  0  0  0
 44 51  1  0  0  0  0
 45 53  1  0  0  0  0
 46 48  1  0  0  0  0
 46 54  1  0  0  0  0
 47 70  1  0  0  0  0
 48 68  1  0  0  0  0
 49 53  1  0  0  0  0
 49 70  1  0  0  0  0
 50 54  1  0  0  0  0
 50 68  1  0  0  0  0
 51 73  1  0  0  0  0
 52 69  1  0  0  0  0
 53 67  1  0  0  0  0
 54 83  1  0  0  0  0
 56 64  1  0  0  0  0
 57 65  1  0  0  0  0
 58 65  1  0  0  0  0
 59 65  1  0  0  0  0
 60 75  1  0  0  0  0
 61 76  1  0  0  0  0
 62 75  1  0  0  0  0
 63 65  1  0  0  0  0
 63 74  1  0  0  0  0
 64 76  1  0  0  0  0
 66 67  1  0  0  0  0
M  CHG  1  76   1
M  ISO  4  38 100  54 101  75 100  83 101
M  END
> <Batch ID>
0030

> <Smiles>
CNC(C)C(=O)NC(C(=O)N1Cc2cc([101O:1][101CH:1]3CCN(c4cc(Cl)c(C[100N:0](C)[100C:0](=O)N5CCCC(n6nc(-c7ccc(Oc8ccc(F)cc8F)cc7)c(C(N)=O)c6N)C5)c(Cl)c4C)C3)ccc2CC1C(=O)NC1CCCc2ccccc21)C(C)(C)C

> <Shape>
0.245

> <Color>
0.084

> <Negative vol penalty>
0.000

$$$$

  -OEChem-04042321363D

 88 97  0     1  0  0  0  0  0999 V2000
  -19.5471  -28.4616   21.9249 C   0  0  0  0  0  0  0  0  0  0  0  0
  -20.1868  -27.2609   21.6344 C   0  0  0  0  0  0  0  0  0  0  0  0
  -32.4690  -17.7916   23.3975 C   0  0  0  0  0  0  0  0  0  0  0  0
  -23.1518   -9.8298   19.9510 C   0  0  0  0  0  0  0  0  0  0  0  0
  -23.9031   -9.8854   22.2466 C   0  0  0  0  0  0  0  0  0  0  0  0
  -20.0184  -29.6524   21.3739 C   0  0  0  0  0  0  0  0  0  0  0  0
  -21.2978  -27.2502   20.7917 C   0  0  0  0  0  0  0  0  0  0  0  0
  -25.0584  -24.3630   22.5713 C   0  0  0  0  0  0  0  0  0  0  0  0
  -31.6573  -18.6467   24.1427 C   0  0  0  0  0  0  0  0  0  0  0  0
  -31.8945  -16.8859   22.5055 C   0  0  0  0  0  0  0  0  0  0  0  0
  -22.4473   -8.6542   20.2100 C   0  0  0  0  0  0  0  0  0  0  0  0
  -23.1985   -8.7098   22.5056 C   0  0  0  0  0  0  0  0  0  0  0  0
  -24.9327  -22.9838   22.4112 C   0  0  0  0  0  0  0  0  0  0  0  0
  -19.9977   -7.8070   23.1059 C   0  0  0  0  0  0  0  0  0  0  0  0
  -19.2385   -7.7524   24.2747 C   0  0  0  0  0  0  0  0  0  0  0  0
  -26.4042  -23.0774   20.5020 C   0  0  0  0  0  0  0  0  0  0  0  0
  -20.5434   -5.8662   25.0342 C   0  0  0  0  0  0  0  0  0  0  0  0
  -23.8798  -10.4454   20.9693 C   0  0  0  0  0  0  0  0  0  0  0  0
  -24.1348  -12.9796   20.8254 C   0  0  0  0  0  0  0  0  0  0  0  0
  -21.1415  -29.6576   20.5317 C   0  0  0  0  0  0  0  0  0  0  0  0
  -25.8506  -25.1126   21.6899 C   0  0  0  0  0  0  0  0  0  0  0  0
  -21.7838  -28.4421   20.2278 C   0  0  0  0  0  0  0  0  0  0  0  0
  -26.5403  -24.4657   20.6546 C   0  0  0  0  0  0  0  0  0  0  0  0
  -30.2711  -18.5961   23.9962 C   0  0  0  0  0  0  0  0  0  0  0  0
  -29.6966  -17.6904   23.1043 C   0  0  0  0  0  0  0  0  0  0  0  0
  -30.5083  -16.8353   22.3590 C   0  0  0  0  0  0  0  0  0  0  0  0
  -22.4706   -8.0942   21.4873 C   0  0  0  0  0  0  0  0  0  0  0  0
  -25.6033  -22.3412   21.3746 C   0  0  0  0  0  0  0  0  0  0  0  0
  -21.0297   -6.8912   22.9011 C   0  0  0  0  0  0  0  0  0  0  0  0
  -19.5114   -6.7821   25.2389 C   0  0  0  0  0  0  0  0  0  0  0  0
  -21.3026   -5.9208   23.8653 C   0  0  0  0  0  0  0  0  0  0  0  0
  -24.6082  -11.6596   20.7022 C   0  0  0  0  0  0  0  0  0  0  0  0
  -25.2017  -13.7627   20.4582 C   0  0  0  0  0  0  0  0  0  0  0  0
  -22.8458  -13.4553   21.2352 C   0  0  0  0  0  0  0  0  0  0  0  0
  -25.2999  -27.4737   19.6342 C   0  0  0  0  0  0  0  0  0  0  0  0
  -28.5316  -27.4611   19.3543 C   0  0  0  0  0  0  0  0  0  0  0  0
  -31.4589  -25.7327   19.6545 C   0  0  0  0  0  0  0  0  0  0  0  0
  -30.6280  -14.9980   20.6397 C   0  0  0  0  0  0  0  0  0  0  0  0
  -21.5857  -30.9636   19.9219 C   0  0  0  0  0  0  0  0  0  0  0  0
  -25.9972  -26.5958   21.8923 C   0  0  0  0  0  0  0  0  0  0  0  0
  -27.4195  -25.2220   19.6936 C   0  0  0  0  0  0  0  0  0  0  0  0
  -22.9952  -30.9150   19.3379 C   0  0  0  0  0  0  0  0  0  0  0  0
  -29.6057  -12.5241   18.2919 C   0  0  0  0  0  0  0  0  0  0  0  0
  -29.2767  -22.8777   23.2703 C   0  0  0  0  0  0  0  0  0  0  0  0
  -28.5623  -22.9741   24.6033 C   0  0  0  0  0  0  0  0  0  0  0  0
  -23.1792  -29.6596   18.4911 C   0  0  0  0  0  0  0  0  0  0  0  0
  -28.1754  -12.1872   18.7198 C   0  0  0  0  0  0  0  0  0  0  0  0
  -30.5082  -12.7961   19.4941 C   0  0  0  0  0  0  0  0  0  0  0  0
  -28.5726  -13.4678   20.8621 C   0  0  0  0  0  0  0  0  0  0  0  0
  -29.9219  -21.5103   23.3400 C   0  0  0  0  0  0  0  0  0  0  0  0
  -27.9658  -21.5918   24.8027 C   0  0  0  0  0  0  0  0  0  0  0  0
  -23.0068  -28.3928   19.3379 C   0  0  1  0  0  0  0  0  0  0  0  0
  -26.4203  -27.3329   20.6254 C   0  0  1  0  0  0  0  0  0  0  0  0
  -27.6104  -13.2496   19.6830 C   0  0  2  0  0  0  0  0  0  0  0  0
  -33.9365  -25.3344   19.6722 C   0  0  0  0  0  0  0  0  0  0  0  0
  -28.1443  -27.1955   16.3394 C   0  0  0  0  0  0  0  0  0  0  0  0
  -30.5421  -26.4971   16.1632 C   0  0  0  0  0  0  0  0  0  0  0  0
  -29.9659  -28.7668   17.0228 C   0  0  0  0  0  0  0  0  0  0  0  0
  -31.6761  -26.4826   22.5092 C   0  0  0  0  0  0  0  0  0  0  0  0
  -29.4251  -19.5229   24.8064 C   0  0  0  0  0  0  0  0  0  0  0  0
  -28.2050  -17.6398   22.9500 C   0  0  0  0  0  0  0  0  0  0  0  0
  -25.8707  -18.8546   20.1686 C   0  0  0  0  0  0  0  0  0  0  0  0
  -26.2641  -18.1771   21.4726 C   0  0  0  0  0  0  0  0  0  0  0  0
  -26.1866  -20.3448   20.1323 C   0  0  0  0  0  0  0  0  0  1  0  0
  -29.5256  -26.7435   18.4734 C   0  0  1  0  0  0  0  0  0  0  0  0
  -32.7821  -26.0974   20.3030 C   0  0  2  0  0  0  0  0  0  0  0  0
  -29.5264  -27.2865   17.0165 C   0  0  0  0  0  0  0  0  0  0  0  0
  -25.8771  -11.6034   20.2889 N   0  0  0  0  0  0  0  0  0  0  0  0
  -26.2100  -12.8979   20.1490 N   0  0  0  0  0  0  0  0  0  0  0  0
  -27.5257  -26.6714   19.9292 N   0  0  0  0  0  0  0  0  0  0  0  0
  -29.9109  -13.8155   20.3595 N   0  0  0  0  0  0  0  0  0  0  0  0
  -25.3663  -15.0999   20.3726 N   0  0  0  0  0  0  0  0  0  0  0  0
  -21.8647  -12.5151   21.5783 N   0  0  0  0  0  0  0  0  0  0  0  0
  -29.9462  -15.9081   21.4468 N   0  0  0  0  0  0  0  0  0  0  0  0
  -24.1960  -28.1449   20.1245 N   0  0  0  0  0  0  0  0  0  0  0  0
  -30.8151  -26.8421   19.1486 N   0  0  0  0  0  0  0  0  0  0  0  0
  -28.8666  -20.6601   24.0128 N   0  3  0  0  0  0  0  0  0  0  0  0
  -32.7498  -25.7815   21.7591 N   0  3  0  0  0  0  0  0  0  0  0  0
  -27.7276  -18.2663   21.6863 N   0  3  0  0  0  0  0  0  0  0  0  0
  -22.5671  -14.6776   21.2796 O   0  0  0  0  0  0  0  0  0  0  0  0
  -25.4280  -27.0091   18.5075 O   0  0  0  0  0  0  0  0  0  0  0  0
  -28.6476  -28.6763   19.5318 O   0  0  0  0  0  0  0  0  0  0  0  0
  -31.0402  -24.5785   19.5987 O   0  0  0  0  0  0  0  0  0  0  0  0
  -31.7522  -15.2010   20.1739 O   0  0  0  0  0  0  0  0  0  0  0  0
  -21.7830   -6.9472   21.7405 O   0  0  0  0  0  0  0  0  0  0  0  0
  -25.4818  -20.9951   21.2157 O   0  0  0  0  0  0  0  0  0  1  0  0
  -18.7832   -6.7307   26.3620 F   0  0  0  0  0  0  0  0  0  0  0  0
  -22.2935   -5.0390   23.6747 F   0  0  0  0  0  0  0  0  0  0  0  0
  1  2  1  0  0  0  0
  1  6  2  0  0  0  0
  2  7  2  0  0  0  0
  3  9  1  0  0  0  0
  3 10  2  0  0  0  0
  4 11  2  0  0  0  0
  4 18  1  0  0  0  0
  5 12  1  0  0  0  0
  5 18  2  0  0  0  0
  6 20  1  0  0  0  0
  7 22  1  0  0  0  0
  8 13  2  0  0  0  0
  8 21  1  0  0  0  0
  9 24  2  0  0  0  0
 10 26  1  0  0  0  0
 11 27  1  0  0  0  0
 12 27  2  0  0  0  0
 13 28  1  0  0  0  0
 14 15  2  0  0  0  0
 14 29  1  0  0  0  0
 15 30  1  0  0  0  0
 16 23  1  0  0  0  0
 16 28  2  0  0  0  0
 17 30  2  0  0  0  0
 17 31  1  0  0  0  0
 18 32  1  0  0  0  0
 19 32  1  0  0  0  0
 19 33  2  0  0  0  0
 19 34  1  0  0  0  0
 20 22  2  0  0  0  0
 20 39  1  0  0  0  0
 21 23  2  0  0  0  0
 21 40  1  0  0  0  0
 22 52  1  0  0  0  0
 23 41  1  0  0  0  0
 24 25  1  0  0  0  0
 24 60  1  0  0  0  0
 25 26  2  0  0  0  0
 25 61  1  0  0  0  0
 26 74  1  0  0  0  0
 27 85  1  0  0  0  0
 28 86  1  0  0  0  0
 29 31  2  0  0  0  0
 29 85  1  0  0  0  0
 30 87  1  0  0  0  0
 31 88  1  0  0  0  0
 32 68  2  0  0  0  0
 33 69  1  0  0  0  0
 33 72  1  0  0  0  0
 34 73  1  0  0  0  0
 34 80  2  0  0  0  0
 35 53  1  0  0  0  0
 35 75  1  0  0  0  0
 35 81  2  0  0  0  0
 36 65  1  0  0  0  0
 36 70  1  0  0  0  0
 36 82  2  0  0  0  0
 37 66  1  0  0  0  0
 37 76  1  0  0  0  0
 37 83  2  0  0  0  0
 38 71  1  0  0  0  0
 38 74  1  0  0  0  0
 38 84  2  0  0  0  0
 39 42  1  0  0  0  0
 40 53  1  0  0  0  0
 41 70  1  0  0  0  0
 42 46  1  0  0  0  0
 43 47  1  0  0  0  0
 43 48  1  0  0  0  0
 44 45  1  0  0  0  0
 44 50  1  0  0  0  0
 45 51  1  0  0  0  0
 46 52  1  0  0  0  0
 47 54  1  0  0  0  0
 48 71  1  0  0  0  0
 49 54  1  0  0  0  0
 49 71  1  0  0  0  0
 50 77  1  0  0  0  0
 51 77  1  0  0  0  0
 52 75  1  0  0  0  0
 53 70  1  0  0  0  0
 54 69  1  0  0  0  0
 55 66  1  0  0  0  0
 56 67  1  0  0  0  0
 57 67  1  0  0  0  0
 58 67  1  0  0  0  0
 59 78  1  0  0  0  0
 60 77  1  0  0  0  0
 61 79  1  0  0  0  0
 62 63  1  0  0  0  0
 62 64  1  0  0  0  0
 63 79  1  0  0  0  0
 64 86  1  0  0  0  0
 65 67  1  0  0  0  0
 65 76  1  0  0  0  0
 66 78  1  0  0  0  0
 68 69  1  0  0  0  0
M  CHG  3  77   1  78   1  79   1
M  ISO  4  38 100  64 101  74 100  86 101
M  END
> <Batch ID>
0030

> <Smiles>
CNC(C)C(=O)NC(C(=O)N1Cc2cc([101O:1][101CH2:1]CCNCc3c(CN4CCCC4)cccc3[100NH:0][100C:0](=O)N3CCCC(n4nc(-c5ccc(Oc6ccc(F)cc6F)cc5)c(C(N)=O)c4N)C3)ccc2CC1C(=O)NC1CCCc2ccccc21)C(C)(C)C

> <Shape>
0.286

> <Color>
0.189

> <Negative vol penalty>
0.000

$$$$

  -OEChem-04042321363D

 87 96  0     1  0  0  0  0  0999 V2000
  -26.5367  -37.6424   27.0512 C   0  0  0  0  0  0  0  0  0  0  0  0
  -26.0857  -36.4160   27.5284 C   0  0  0  0  0  0  0  0  0  0  0  0
  -29.2570  -14.2061   21.2838 C   0  0  0  0  0  0  0  0  0  0  0  0
  -27.5321  -15.6836   20.4600 C   0  0  0  0  0  0  0  0  0  0  0  0
  -26.3333  -37.9870   25.7156 C   0  0  0  0  0  0  0  0  0  0  0  0
  -25.4299  -35.5337   26.6705 C   0  0  0  0  0  0  0  0  0  0  0  0
  -27.9757  -28.8929   25.5262 C   0  0  0  0  0  0  0  0  0  0  0  0
  -27.7752  -20.5212   21.3013 C   0  0  0  0  0  0  0  0  0  0  0  0
  -27.0882  -20.1550   20.1440 C   0  0  0  0  0  0  0  0  0  0  0  0
  -28.3987  -13.1176   21.1290 C   0  0  0  0  0  0  0  0  0  0  0  0
  -26.6737  -14.5951   20.3051 C   0  0  0  0  0  0  0  0  0  0  0  0
  -28.2826  -27.5363   25.4187 C   0  0  0  0  0  0  0  0  0  0  0  0
  -25.7987  -11.7400   22.7925 C   0  0  0  0  0  0  0  0  0  0  0  0
  -25.7316  -10.8153   23.8345 C   0  0  0  0  0  0  0  0  0  0  0  0
  -26.4769  -27.2423   23.8371 C   0  0  0  0  0  0  0  0  0  0  0  0
  -29.2965  -21.8515   19.9772 C   0  0  0  0  0  0  0  0  0  0  0  0
  -26.4718   -9.0717   22.3348 C   0  0  0  0  0  0  0  0  0  0  0  0
  -28.8237  -15.4891   20.9493 C   0  0  0  0  0  0  0  0  0  0  0  0
  -30.3082  -17.0616   22.3026 C   0  0  0  0  0  0  0  0  0  0  0  0
  -25.6833  -37.1045   24.8385 C   0  0  0  0  0  0  0  0  0  0  0  0
  -26.9268  -29.4331   24.7771 C   0  0  0  0  0  0  0  0  0  0  0  0
  -25.2164  -35.8674   25.3222 C   0  0  0  0  0  0  0  0  0  0  0  0
  -26.1728  -28.6029   23.9313 C   0  0  0  0  0  0  0  0  0  0  0  0
  -28.8794  -21.3695   21.2179 C   0  0  0  0  0  0  0  0  0  0  0  0
  -27.5053  -20.6369   18.9033 C   0  0  0  0  0  0  0  0  0  0  0  0
  -28.6094  -21.4852   18.8199 C   0  0  0  0  0  0  0  0  0  0  0  0
  -27.1070  -13.3121   20.6396 C   0  0  0  0  0  0  0  0  0  0  0  0
  -27.5349  -26.7130   24.5764 C   0  0  0  0  0  0  0  0  0  0  0  0
  -26.2024  -11.3306   21.5215 C   0  0  0  0  0  0  0  0  0  0  0  0
  -26.0682   -9.4811   23.6057 C   0  0  0  0  0  0  0  0  0  0  0  0
  -26.5389   -9.9965   21.2927 C   0  0  0  0  0  0  0  0  0  0  0  0
  -29.7097  -16.6140   21.1096 C   0  0  0  0  0  0  0  0  0  0  0  0
  -31.0519  -18.1529   21.9253 C   0  0  0  0  0  0  0  0  0  0  0  0
  -29.3606  -22.8407   24.6415 C   0  0  0  0  0  0  0  0  0  0  0  0
  -29.1646  -21.8205   25.4852 C   0  0  0  0  0  0  0  0  0  0  0  0
  -30.2016  -16.5375   23.6329 C   0  0  0  0  0  0  0  0  0  0  0  0
  -24.9376  -32.4817   23.8688 C   0  0  0  0  0  0  0  0  0  0  0  0
  -25.3585  -30.8888   21.2811 C   0  0  0  0  0  0  0  0  0  0  0  0
  -26.4009  -29.0593   18.5972 C   0  0  0  0  0  0  0  0  0  0  0  0
  -30.3415  -21.7532   17.0256 C   0  0  0  0  0  0  0  0  0  0  0  0
  -25.4444  -37.5409   23.4147 C   0  0  0  0  0  0  0  0  0  0  0  0
  -26.5216  -30.8762   24.9079 C   0  0  0  0  0  0  0  0  0  0  0  0
  -25.0314  -29.2207   23.1707 C   0  0  0  0  0  0  0  0  0  0  0  0
  -29.8782  -24.1933   25.0196 C   0  0  0  0  0  0  0  0  0  0  0  0
  -25.0730  -36.3926   22.4799 C   0  0  0  0  0  0  0  0  0  0  0  0
  -33.3903  -20.0116   18.1936 C   0  0  0  0  0  0  0  0  0  0  0  0
  -24.0075  -35.5074   23.1188 C   0  0  0  0  0  0  0  0  0  0  0  0
  -32.8305  -18.9260   19.1109 C   0  0  0  0  0  0  0  0  0  0  0  0
  -32.4031  -20.3874   17.0928 C   0  0  0  0  0  0  0  0  0  0  0  0
  -30.5006  -19.7097   18.5289 C   0  0  0  0  0  0  0  0  0  0  0  0
  -29.0422  -24.1998   22.7609 C   0  0  0  0  0  0  0  0  0  0  0  0
  -24.5228  -34.8731   24.4164 C   0  0  1  0  0  0  0  0  0  0  0  0
  -26.0231  -31.4854   23.5852 C   0  0  1  0  0  0  0  0  0  0  0  0
  -31.4602  -19.3422   19.6706 C   0  0  1  0  0  0  0  0  0  0  0  0
  -29.1487  -25.0645   24.0090 C   0  0  1  0  0  0  0  0  0  1  0  0
  -26.7508  -20.2273   17.6801 C   0  0  0  0  0  0  0  0  0  0  0  0
  -28.4559  -24.3837   17.4994 C   0  0  0  0  0  0  0  0  0  0  0  0
  -26.2270  -28.9569   16.0959 C   0  0  0  0  0  0  0  0  0  0  0  0
  -22.5267  -29.7824   21.5270 C   0  0  0  0  0  0  0  0  0  0  0  0
  -22.7708  -28.8397   19.2205 C   0  0  0  0  0  0  0  0  0  0  0  0
  -22.8861  -31.3060   19.5766 C   0  0  0  0  0  0  0  0  0  0  0  0
  -29.3240  -29.3815   18.2648 C   0  0  0  0  0  0  0  0  0  0  0  0
  -29.6177  -21.7631   22.4633 C   0  0  0  0  0  0  0  0  0  0  0  0
  -28.2375  -23.0129   16.8915 C   0  0  0  0  0  0  0  0  0  0  0  0
  -24.8133  -29.8535   20.3302 C   0  0  1  0  0  0  0  0  0  0  0  0
  -27.0307  -29.4728   17.2793 C   0  0  2  0  0  0  0  0  0  0  0  0
  -23.2677  -29.9385   20.1841 C   0  0  0  0  0  0  0  0  0  0  0  0
  -30.0441  -17.3602   20.0535 N   0  0  0  0  0  0  0  0  0  0  0  0
  -30.8608  -18.2877   20.5816 N   0  0  0  0  0  0  0  0  0  0  0  0
  -25.4362  -30.5285   22.6319 N   0  0  0  0  0  0  0  0  0  0  0  0
  -31.0861  -20.7232   17.6362 N   0  0  0  0  0  0  0  0  0  0  0  0
  -31.8441  -19.0008   22.6151 N   0  0  0  0  0  0  0  0  0  0  0  0
  -29.1839  -17.0258   24.4637 N   0  0  0  0  0  0  0  0  0  0  0  0
  -25.3988  -33.7596   24.1216 N   0  0  0  0  0  0  0  0  0  0  0  0
  -25.5423  -30.0251   19.0782 N   0  0  0  0  0  0  0  0  0  0  0  0
  -29.0559  -21.9948   17.5464 N   0  0  0  0  0  0  0  0  0  0  0  0
  -28.8813  -22.7760   23.2874 N   0  3  1  0  0  0  0  0  0  0  0  0
  -28.4168  -28.9351   17.1764 N   0  3  0  0  0  0  0  0  0  0  0  0
  -30.9957  -15.6742   24.0773 O   0  0  0  0  0  0  0  0  0  0  0  0
  -23.7670  -32.1194   23.8578 O   0  0  0  0  0  0  0  0  0  0  0  0
  -25.7015  -31.9900   20.8418 O   0  0  0  0  0  0  0  0  0  0  0  0
  -26.6432  -27.9853   19.1433 O   0  0  0  0  0  0  0  0  0  0  0  0
  -30.7691  -22.3782   16.0472 O   0  0  0  0  0  0  0  0  0  0  0  0
  -26.2692  -12.2501   20.4882 O   0  0  0  0  0  0  0  0  0  0  0  0
  -27.8427  -25.3904   24.4727 O   0  0  0  0  0  0  0  0  0  1  0  0
  -26.0052   -8.5935   24.6069 F   0  0  0  0  0  0  0  0  0  0  0  0
  -26.9285   -9.5975   20.0742 F   0  0  0  0  0  0  0  0  0  0  0  0
  1  2  1  0  0  0  0
  1  5  2  0  0  0  0
  2  6  2  0  0  0  0
  3 10  2  0  0  0  0
  3 18  1  0  0  0  0
  4 11  1  0  0  0  0
  4 18  2  0  0  0  0
  5 20  1  0  0  0  0
  6 22  1  0  0  0  0
  7 12  2  0  0  0  0
  7 21  1  0  0  0  0
  8  9  2  0  0  0  0
  8 24  1  0  0  0  0
  9 25  1  0  0  0  0
 10 27  1  0  0  0  0
 11 27  2  0  0  0  0
 12 28  1  0  0  0  0
 13 14  2  0  0  0  0
 13 29  1  0  0  0  0
 14 30  1  0  0  0  0
 15 23  1  0  0  0  0
 15 28  2  0  0  0  0
 16 24  2  0  0  0  0
 16 26  1  0  0  0  0
 17 30  2  0  0  0  0
 17 31  1  0  0  0  0
 18 32  1  0  0  0  0
 19 32  1  0  0  0  0
 19 33  2  0  0  0  0
 19 36  1  0  0  0  0
 20 22  2  0  0  0  0
 20 41  1  0  0  0  0
 21 23  2  0  0  0  0
 21 42  1  0  0  0  0
 22 52  1  0  0  0  0
 23 43  1  0  0  0  0
 24 63  1  0  0  0  0
 25 26  2  0  0  0  0
 25 56  1  0  0  0  0
 26 76  1  0  0  0  0
 27 84  1  0  0  0  0
 28 85  1  0  0  0  0
 29 31  2  0  0  0  0
 29 84  1  0  0  0  0
 30 86  1  0  0  0  0
 31 87  1  0  0  0  0
 32 68  2  0  0  0  0
 33 69  1  0  0  0  0
 33 72  1  0  0  0  0
 34 35  2  0  0  0  0
 34 44  1  0  0  0  0
 34 77  1  0  0  0  0
 36 73  1  0  0  0  0
 36 79  2  0  0  0  0
 37 53  1  0  0  0  0
 37 74  1  0  0  0  0
 37 80  2  0  0  0  0
 38 65  1  0  0  0  0
 38 70  1  0  0  0  0
 38 81  2  0  0  0  0
 39 66  1  0  0  0  0
 39 75  1  0  0  0  0
 39 82  2  0  0  0  0
 40 71  1  0  0  0  0
 40 76  1  0  0  0  0
 40 83  2  0  0  0  0
 41 45  1  0  0  0  0
 42 53  1  0  0  0  0
 43 70  1  0  0  0  0
 44 55  1  0  0  0  0
 45 47  1  0  0  0  0
 46 48  1  0  0  0  0
 46 49  1  0  0  0  0
 47 52  1  0  0  0  0
 48 54  1  0  0  0  0
 49 71  1  0  0  0  0
 50 54  1  0  0  0  0
 50 71  1  0  0  0  0
 51 55  1  0  0  0  0
 51 77  1  0  0  0  0
 52 74  1  0  0  0  0
 53 70  1  0  0  0  0
 54 69  1  0  0  0  0
 55 85  1  0  0  0  0
 57 64  1  0  0  0  0
 58 66  1  0  0  0  0
 59 67  1  0  0  0  0
 60 67  1  0  0  0  0
 61 67  1  0  0  0  0
 62 78  1  0  0  0  0
 63 77  1  0  0  0  0
 64 76  1  0  0  0  0
 65 67  1  0  0  0  0
 65 75  1  0  0  0  0
 66 78  1  0  0  0  0
 68 69  1  0  0  0  0
M  CHG  2  77   1  78   1
M  ISO  4  40 100  55 101  76 100  85 101
M  END
> <Batch ID>
0030

> <Smiles>
C=C1C[101CH:1]([101O:1]c2ccc3c(c2)CN(C(=O)C(NC(=O)C(C)NC)C(C)(C)C)C(C(=O)NC2CCCc4ccccc42)C3)CN1Cc1ccc(C)c([100N:0](CC)[100C:0](=O)N2CCCC(n3nc(-c4ccc(Oc5ccc(F)cc5F)cc4)c(C(N)=O)c3N)C2)c1

> <Shape>
0.249

> <Color>
0.063

> <Negative vol penalty>
0.000

$$$$

  -OEChem-04042321363D

 85 94  0     1  0  0  0  0  0999 V2000
  -27.9460  -24.0720   17.6576 C   0  0  0  0  0  0  0  0  0  0  0  0
  -26.8481  -24.8957   17.8788 C   0  0  0  0  0  0  0  0  0  0  0  0
  -25.2266  -16.7540   20.2107 C   0  0  0  0  0  0  0  0  0  0  0  0
  -27.4135  -16.8403   21.2341 C   0  0  0  0  0  0  0  0  0  0  0  0
  -29.0229  -24.1002   18.5412 C   0  0  0  0  0  0  0  0  0  0  0  0
  -26.8318  -25.7565   18.9769 C   0  0  0  0  0  0  0  0  0  0  0  0
  -23.0934  -28.9416   19.2648 C   0  0  0  0  0  0  0  0  0  0  0  0
  -25.3444  -15.3707   20.0756 C   0  0  0  0  0  0  0  0  0  0  0  0
  -27.5312  -15.4569   21.0991 C   0  0  0  0  0  0  0  0  0  0  0  0
  -21.7924  -28.5504   19.5780 C   0  0  0  0  0  0  0  0  0  0  0  0
  -28.5604  -11.9944   20.6971 C   0  0  0  0  0  0  0  0  0  0  0  0
  -29.7701  -11.4902   20.2196 C   0  0  0  0  0  0  0  0  0  0  0  0
  -22.0802  -29.4057   21.8152 C   0  0  0  0  0  0  0  0  0  0  0  0
  -19.0701  -21.3518   24.1504 C   0  0  0  0  0  0  0  0  0  0  0  0
  -20.2580  -23.7427   24.9597 C   0  0  0  0  0  0  0  0  0  0  0  0
  -29.4836  -12.7416   18.1728 C   0  0  0  0  0  0  0  0  0  0  0  0
  -26.2612  -17.4888   20.7899 C   0  0  0  0  0  0  0  0  0  0  0  0
  -25.9664  -19.8607   19.8985 C   0  0  0  0  0  0  0  0  0  0  0  0
  -29.0136  -24.9529   19.6573 C   0  0  0  0  0  0  0  0  0  0  0  0
  -23.9027  -29.5589   20.2294 C   0  0  0  0  0  0  0  0  0  0  0  0
  -27.9195  -25.8168   19.8668 C   0  0  0  0  0  0  0  0  0  0  0  0
  -23.3903  -29.8060   21.5109 C   0  0  0  0  0  0  0  0  0  0  0  0
  -20.1511  -21.3301   25.0316 C   0  0  0  0  0  0  0  0  0  0  0  0
  -18.5831  -22.5689   23.6737 C   0  0  0  0  0  0  0  0  0  0  0  0
  -20.7450  -22.5255   25.4363 C   0  0  0  0  0  0  0  0  0  0  0  0
  -19.1771  -23.7643   24.0784 C   0  0  0  0  0  0  0  0  0  0  0  0
  -26.4967  -14.7222   20.5198 C   0  0  0  0  0  0  0  0  0  0  0  0
  -21.2866  -28.7798   20.8542 C   0  0  0  0  0  0  0  0  0  0  0  0
  -27.8122  -12.8721   19.9125 C   0  0  0  0  0  0  0  0  0  0  0  0
  -30.2317  -11.8639   18.9575 C   0  0  0  0  0  0  0  0  0  0  0  0
  -28.2738  -13.2457   18.6504 C   0  0  0  0  0  0  0  0  0  0  0  0
  -26.1404  -18.9178   20.9292 C   0  0  0  0  0  0  0  0  0  0  0  0
  -25.9085  -21.0706   20.5461 C   0  0  0  0  0  0  0  0  0  0  0  0
  -25.8660  -19.6608   18.4823 C   0  0  0  0  0  0  0  0  0  0  0  0
  -26.6568  -28.8362   21.6422 C   0  0  0  0  0  0  0  0  0  0  0  0
  -26.3352  -31.8032   22.9133 C   0  0  0  0  0  0  0  0  0  0  0  0
  -24.2642  -34.3679   23.7963 C   0  0  0  0  0  0  0  0  0  0  0  0
  -24.3676  -22.6457   26.1135 C   0  0  0  0  0  0  0  0  0  0  0  0
  -30.2091  -24.9486   20.5770 C   0  0  0  0  0  0  0  0  0  0  0  0
  -25.2948  -29.9990   19.8677 C   0  0  0  0  0  0  0  0  0  0  0  0
  -24.2115  -30.4836   22.5763 C   0  0  0  0  0  0  0  0  0  0  0  0
  -29.9112  -25.5601   21.9422 C   0  0  0  0  0  0  0  0  0  0  0  0
  -27.4703  -23.2859   24.4887 C   0  0  0  0  0  0  0  0  0  0  0  0
  -29.2219  -26.9054   21.7698 C   0  0  0  0  0  0  0  0  0  0  0  0
  -27.4656  -22.3241   23.2992 C   0  0  0  0  0  0  0  0  0  0  0  0
  -26.8132  -22.6648   25.7192 C   0  0  0  0  0  0  0  0  0  0  0  0
  -25.4493  -21.1757   24.3063 C   0  0  0  0  0  0  0  0  0  0  0  0
  -18.3630  -26.5454   21.6393 C   0  0  0  0  0  0  0  0  0  0  0  0
  -20.3464  -26.0742   22.0938 C   0  0  0  0  0  0  0  0  0  0  0  0
  -27.8663  -26.7390   21.0715 C   0  0  1  0  0  0  0  0  0  0  0  0
  -26.2062  -30.1552   21.0811 C   0  0  1  0  0  0  0  0  0  0  0  0
  -26.0514  -21.7779   23.0253 C   0  0  2  0  0  0  0  0  0  0  0  0
  -19.7075  -27.0006   21.0444 C   0  0  0  0  0  0  0  0  0  1  0  0
  -20.6548  -20.0151   25.5292 C   0  0  0  0  0  0  0  0  0  0  0  0
  -17.4253  -22.5672   22.7304 C   0  0  0  0  0  0  0  0  0  0  0  0
  -24.2879  -36.6462   24.8482 C   0  0  0  0  0  0  0  0  0  0  0  0
  -26.6904  -30.5277   25.6623 C   0  0  0  0  0  0  0  0  0  0  0  0
  -25.7736  -32.6250   26.6768 C   0  0  0  0  0  0  0  0  0  0  0  0
  -27.8896  -32.7011   25.3579 C   0  0  0  0  0  0  0  0  0  0  0  0
  -23.1747  -35.6345   21.3534 C   0  0  0  0  0  0  0  0  0  0  0  0
  -21.9030  -22.5271   26.3795 C   0  0  0  0  0  0  0  0  0  0  0  0
  -18.6712  -25.0854   23.5785 C   0  0  0  0  0  0  0  0  0  0  0  0
  -25.6906  -32.3702   24.1551 C   0  0  1  0  0  0  0  0  0  0  0  0
  -24.3489  -35.8628   23.5461 C   0  0  2  0  0  0  0  0  0  0  0  0
  -26.4960  -32.0414   25.4438 C   0  0  0  0  0  0  0  0  0  0  0  0
  -26.1900  -19.4803   22.1397 N   0  0  0  0  0  0  0  0  0  0  0  0
  -26.0463  -20.7898   21.8736 N   0  0  0  0  0  0  0  0  0  0  0  0
  -25.5688  -30.8896   22.1760 N   0  0  0  0  0  0  0  0  0  0  0  0
  -25.4744  -22.1680   25.3924 N   0  0  0  0  0  0  0  0  0  0  0  0
  -25.7537  -22.3366   20.1038 N   0  0  0  0  0  0  0  0  0  0  0  0
  -27.0417  -19.6811   17.7196 N   0  0  0  0  0  0  0  0  0  0  0  0
  -27.3426  -28.0457   20.7398 N   0  0  0  0  0  0  0  0  0  0  0  0
  -25.5144  -33.7972   23.9083 N   0  0  0  0  0  0  0  0  0  0  0  0
  -23.1347  -22.1281   25.7357 N   0  0  0  0  0  0  0  0  0  0  0  0
  -19.0580  -25.3616   22.1777 N   0  3  0  0  0  0  0  0  0  0  0  0
  -23.2227  -36.3072   22.6771 N   0  3  0  0  0  0  0  0  0  0  0  0
  -24.7646  -19.4863   17.9079 O   0  0  0  0  0  0  0  0  0  0  0  0
  -26.4026  -28.5570   22.8080 O   0  0  0  0  0  0  0  0  0  0  0  0
  -27.4740  -32.1633   22.6049 O   0  0  0  0  0  0  0  0  0  0  0  0
  -23.1958  -33.7673   23.8873 O   0  0  0  0  0  0  0  0  0  0  0  0
  -24.4700  -23.4761   27.0227 O   0  0  0  0  0  0  0  0  0  0  0  0
  -26.6118  -13.3724   20.3884 O   0  0  0  0  0  0  0  0  0  0  0  0
  -20.0172  -28.3984   21.1627 O   0  0  0  0  0  0  0  0  0  1  0  0
  -31.3941  -11.3809   18.4997 F   0  0  0  0  0  0  0  0  0  0  0  0
  -27.5601  -14.0895   17.8925 F   0  0  0  0  0  0  0  0  0  0  0  0
  1  2  1  0  0  0  0
  1  5  2  0  0  0  0
  2  6  2  0  0  0  0
  3  8  2  0  0  0  0
  3 17  1  0  0  0  0
  4  9  1  0  0  0  0
  4 17  2  0  0  0  0
  5 19  1  0  0  0  0
  6 21  1  0  0  0  0
  7 10  2  0  0  0  0
  7 20  1  0  0  0  0
  8 27  1  0  0  0  0
  9 27  2  0  0  0  0
 10 28  1  0  0  0  0
 11 12  2  0  0  0  0
 11 29  1  0  0  0  0
 12 30  1  0  0  0  0
 13 22  1  0  0  0  0
 13 28  2  0  0  0  0
 14 23  2  0  0  0  0
 14 24  1  0  0  0  0
 15 25  2  0  0  0  0
 15 26  1  0  0  0  0
 16 30  2  0  0  0  0
 16 31  1  0  0  0  0
 17 32  1  0  0  0  0
 18 32  1  0  0  0  0
 18 33  2  0  0  0  0
 18 34  1  0  0  0  0
 19 21  2  0  0  0  0
 19 39  1  0  0  0  0
 20 22  2  0  0  0  0
 20 40  1  0  0  0  0
 21 50  1  0  0  0  0
 22 41  1  0  0  0  0
 23 25  1  0  0  0  0
 23 54  1  0  0  0  0
 24 26  2  0  0  0  0
 24 55  1  0  0  0  0
 25 61  1  0  0  0  0
 26 62  1  0  0  0  0
 27 82  1  0  0  0  0
 28 83  1  0  0  0  0
 29 31  2  0  0  0  0
 29 82  1  0  0  0  0
 30 84  1  0  0  0  0
 31 85  1  0  0  0  0
 32 66  2  0  0  0  0
 33 67  1  0  0  0  0
 33 70  1  0  0  0  0
 34 71  1  0  0  0  0
 34 77  2  0  0  0  0
 35 51  1  0  0  0  0
 35 72  1  0  0  0  0
 35 78  2  0  0  0  0
 36 63  1  0  0  0  0
 36 68  1  0  0  0  0
 36 79  2  0  0  0  0
 37 64  1  0  0  0  0
 37 73  1  0  0  0  0
 37 80  2  0  0  0  0
 38 69  1  0  0  0  0
 38 74  1  0  0  0  0
 38 81  2  0  0  0  0
 39 42  1  0  0  0  0
 40 51  1  0  0  0  0
 41 68  1  0  0  0  0
 42 44  1  0  0  0  0
 43 45  1  0  0  0  0
 43 46  1  0  0  0  0
 44 50  1  0  0  0  0
 45 52  1  0  0  0  0
 46 69  1  0  0  0  0
 47 52  1  0  0  0  0
 47 69  1  0  0  0  0
 48 53  1  0  0  0  0
 48 75  1  0  0  0  0
 49 53  1  0  0  0  0
 49 75  1  0  0  0  0
 50 72  1  0  0  0  0
 51 68  1  0  0  0  0
 52 67  1  0  0  0  0
 53 83  1  0  0  0  0
 56 64  1  0  0  0  0
 57 65  1  0  0  0  0
 58 65  1  0  0  0  0
 59 65  1  0  0  0  0
 60 76  1  0  0  0  0
 61 74  1  0  0  0  0
 62 75  1  0  0  0  0
 63 65  1  0  0  0  0
 63 73  1  0  0  0  0
 64 76  1  0  0  0  0
 66 67  1  0  0  0  0
M  CHG  2  75   1  76   1
M  ISO  4  38 100  53 101  74 100  83 101
M  END
> <Batch ID>
0030

> <Smiles>
CNC(C)C(=O)NC(C(=O)N1Cc2cc([101O:1][101CH:1]3CN(Cc4cc(C[100NH:0][100C:0](=O)N5CCCC(n6nc(-c7ccc(Oc8ccc(F)cc8F)cc7)c(C(N)=O)c6N)C5)c(C)cc4C)C3)ccc2CC1C(=O)NC1CCCc2ccccc21)C(C)(C)C

> <Shape>
0.274

> <Color>
0.065

> <Negative vol penalty>
0.000

$$$$

  -OEChem-04042321363D

 85 94  0     1  0  0  0  0  0999 V2000
  -23.0127   -7.9330   24.6947 C   0  0  0  0  0  0  0  0  0  0  0  0
  -24.1202   -8.7452   24.9165 C   0  0  0  0  0  0  0  0  0  0  0  0
  -21.7510  -26.3354   22.7750 C   0  0  0  0  0  0  0  0  0  0  0  0
  -21.6794  -26.4148   20.3614 C   0  0  0  0  0  0  0  0  0  0  0  0
  -22.4277   -7.8840   23.4300 C   0  0  0  0  0  0  0  0  0  0  0  0
  -24.6441   -9.5080   23.8734 C   0  0  0  0  0  0  0  0  0  0  0  0
  -27.9092  -15.7602   22.6223 C   0  0  0  0  0  0  0  0  0  0  0  0
  -31.1221  -22.8108   17.0098 C   0  0  0  0  0  0  0  0  0  0  0  0
  -31.0512  -21.4183   17.0475 C   0  0  0  0  0  0  0  0  0  0  0  0
  -20.4265  -26.7694   22.8286 C   0  0  0  0  0  0  0  0  0  0  0  0
  -20.3548  -26.8487   20.4150 C   0  0  0  0  0  0  0  0  0  0  0  0
  -29.0404  -16.2775   21.9926 C   0  0  0  0  0  0  0  0  0  0  0  0
  -18.7478  -29.6876   22.5273 C   0  0  0  0  0  0  0  0  0  0  0  0
  -18.4319  -30.6908   23.4435 C   0  0  0  0  0  0  0  0  0  0  0  0
  -27.8990  -16.1736   19.8700 C   0  0  0  0  0  0  0  0  0  0  0  0
  -16.8614  -29.2079   24.5258 C   0  0  0  0  0  0  0  0  0  0  0  0
  -22.3775  -26.1582   21.5414 C   0  0  0  0  0  0  0  0  0  0  0  0
  -24.2035  -24.3804   21.4279 C   0  0  0  0  0  0  0  0  0  0  0  0
  -22.9388   -8.6539   22.3733 C   0  0  0  0  0  0  0  0  0  0  0  0
  -26.7662  -15.4350   21.8777 C   0  0  0  0  0  0  0  0  0  0  0  0
  -24.0663   -9.4682   22.5930 C   0  0  0  0  0  0  0  0  0  0  0  0
  -26.7537  -15.6547   20.4929 C   0  0  0  0  0  0  0  0  0  0  0  0
  -31.1477  -23.5403   18.1985 C   0  0  0  0  0  0  0  0  0  0  0  0
  -31.1023  -22.8772   19.4248 C   0  0  0  0  0  0  0  0  0  0  0  0
  -31.0314  -21.4847   19.4625 C   0  0  0  0  0  0  0  0  0  0  0  0
  -31.0058  -20.7552   18.2738 C   0  0  0  0  0  0  0  0  0  0  0  0
  -19.7284  -27.0260   21.6486 C   0  0  0  0  0  0  0  0  0  0  0  0
  -29.0365  -16.4816   20.6159 C   0  0  0  0  0  0  0  0  0  0  0  0
  -18.1205  -28.4445   22.6103 C   0  0  0  0  0  0  0  0  0  0  0  0
  -17.4887  -30.4510   24.4427 C   0  0  0  0  0  0  0  0  0  0  0  0
  -17.1773  -28.2046   23.6096 C   0  0  0  0  0  0  0  0  0  0  0  0
  -23.7459  -25.7104   21.4854 C   0  0  0  0  0  0  0  0  0  0  0  0
  -25.5721  -24.4894   21.3900 C   0  0  0  0  0  0  0  0  0  0  0  0
  -23.4580  -23.1557   21.4102 C   0  0  0  0  0  0  0  0  0  0  0  0
  -25.1461  -12.7601   21.3085 C   0  0  0  0  0  0  0  0  0  0  0  0
  -23.0904  -14.7826   19.8234 C   0  0  0  0  0  0  0  0  0  0  0  0
  -22.5919  -17.7759   18.2617 C   0  0  0  0  0  0  0  0  0  0  0  0
  -30.2104  -26.8899   19.4229 C   0  0  0  0  0  0  0  0  0  0  0  0
  -22.3017   -8.5318   21.0118 C   0  0  0  0  0  0  0  0  0  0  0  0
  -25.5447  -14.9029   22.5757 C   0  0  0  0  0  0  0  0  0  0  0  0
  -25.5448  -15.3409   19.6511 C   0  0  0  0  0  0  0  0  0  0  0  0
  -22.6883   -9.6568   20.0552 C   0  0  0  0  0  0  0  0  0  0  0  0
  -28.5789  -28.4842   22.1566 C   0  0  0  0  0  0  0  0  0  0  0  0
  -24.1943   -9.8964   20.0938 C   0  0  0  0  0  0  0  0  0  0  0  0
  -27.2123  -27.7995   22.2167 C   0  0  0  0  0  0  0  0  0  0  0  0
  -31.5281  -17.1131   18.0257 C   0  0  0  0  0  0  0  0  0  0  0  0
  -29.0591  -28.6603   20.7177 C   0  0  0  0  0  0  0  0  0  0  0  0
  -32.1019  -18.5008   18.3111 C   0  0  0  0  0  0  0  0  0  0  0  0
  -27.7063  -26.7393   19.9738 C   0  0  0  0  0  0  0  0  0  0  0  0
  -29.6820  -18.6223   18.2943 C   0  0  0  0  0  0  0  0  0  0  0  0
  -24.6483  -10.3293   21.4931 C   0  0  1  0  0  0  0  0  0  0  0  0
  -24.6172  -14.1251   21.6471 C   0  0  1  0  0  0  0  0  0  0  0  0
  -27.2055  -26.4892   21.4066 C   0  0  2  0  0  0  0  0  0  0  0  0
  -30.1169  -17.1876   18.5902 C   0  0  2  0  0  0  0  0  0  1  0  0
  -31.1299  -23.6621   20.6983 C   0  0  0  0  0  0  0  0  0  0  0  0
  -30.9824  -20.7748   20.7793 C   0  0  0  0  0  0  0  0  0  0  0  0
  -21.3322  -19.6478   17.1633 C   0  0  0  0  0  0  0  0  0  0  0  0
  -23.3224  -13.0053   17.3541 C   0  0  0  0  0  0  0  0  0  0  0  0
  -22.3306  -14.8675   16.0063 C   0  0  0  0  0  0  0  0  0  0  0  0
  -21.0076  -13.8168   17.8416 C   0  0  0  0  0  0  0  0  0  0  0  0
  -22.0826  -19.1093   20.8543 C   0  0  0  0  0  0  0  0  0  0  0  0
  -31.2247  -25.0305   18.1295 C   0  0  0  0  0  0  0  0  0  0  0  0
  -22.9509  -15.3264   18.4220 C   0  0  1  0  0  0  0  0  0  0  0  0
  -21.5202  -18.8368   18.4360 C   0  0  2  0  0  0  0  0  0  0  0  0
  -22.4265  -14.2582   17.4213 C   0  0  0  0  0  0  0  0  0  0  0  0
  -24.7429  -26.5992   21.4845 N   0  0  0  0  0  0  0  0  0  0  0  0
  -25.8406  -25.8261   21.4261 N   0  0  0  0  0  0  0  0  0  0  0  0
  -30.9352  -19.3780   18.2901 N   0  0  3  0  0  0  0  0  0  0  0  0
  -24.3773  -14.8167   20.3789 N   0  0  0  0  0  0  0  0  0  0  0  0
  -29.0300  -27.3808   20.0050 N   0  0  0  0  0  0  0  0  0  0  0  0
  -26.5600  -23.5714   21.3298 N   0  0  0  0  0  0  0  0  0  0  0  0
  -22.0589  -23.2246   21.4548 N   0  0  0  0  0  0  0  0  0  0  0  0
  -24.3305  -11.7229   21.7190 N   0  0  0  0  0  0  0  0  0  0  0  0
  -22.1076  -16.5123   18.5264 N   0  0  0  0  0  0  0  0  0  0  0  0
  -30.0968  -25.6675   18.7719 N   0  0  0  0  0  0  0  0  0  0  0  0
  -21.8894  -19.7699   19.5377 N   0  3  0  0  0  0  0  0  0  0  0  0
  -24.0166  -22.0332   21.3731 O   0  0  0  0  0  0  0  0  0  0  0  0
  -26.2144  -12.6556   20.7173 O   0  0  0  0  0  0  0  0  0  0  0  0
  -22.0930  -14.3503   20.4064 O   0  0  0  0  0  0  0  0  0  0  0  0
  -23.7426  -18.0411   17.9209 O   0  0  0  0  0  0  0  0  0  0  0  0
  -31.2869  -27.4934   19.4836 O   0  0  0  0  0  0  0  0  0  0  0  0
  -18.4358  -27.4493   21.7005 O   0  0  0  0  0  0  0  0  0  0  0  0
  -30.1395  -16.9858   19.9987 O   0  0  0  0  0  0  0  0  0  1  0  0
  -17.1865  -31.4139   25.3233 F   0  0  0  0  0  0  0  0  0  0  0  0
  -16.5721  -27.0120   23.6951 F   0  0  0  0  0  0  0  0  0  0  0  0
  1  2  1  0  0  0  0
  1  5  2  0  0  0  0
  2  6  2  0  0  0  0
  3 10  2  0  0  0  0
  3 17  1  0  0  0  0
  4 11  1  0  0  0  0
  4 17  2  0  0  0  0
  5 19  1  0  0  0  0
  6 21  1  0  0  0  0
  7 12  2  0  0  0  0
  7 20  1  0  0  0  0
  8  9  2  0  0  0  0
  8 23  1  0  0  0  0
  9 26  1  0  0  0  0
 10 27  1  0  0  0  0
 11 27  2  0  0  0  0
 12 28  1  0  0  0  0
 13 14  2  0  0  0  0
 13 29  1  0  0  0  0
 14 30  1  0  0  0  0
 15 22  1  0  0  0  0
 15 28  2  0  0  0  0
 16 30  2  0  0  0  0
 16 31  1  0  0  0  0
 17 32  1  0  0  0  0
 18 32  1  0  0  0  0
 18 33  2  0  0  0  0
 18 34  1  0  0  0  0
 19 21  2  0  0  0  0
 19 39  1  0  0  0  0
 20 22  2  0  0  0  0
 20 40  1  0  0  0  0
 21 51  1  0  0  0  0
 22 41  1  0  0  0  0
 23 24  2  0  0  0  0
 23 62  1  0  0  0  0
 24 25  1  0  0  0  0
 24 55  1  0  0  0  0
 25 26  2  0  0  0  0
 25 56  1  0  0  0  0
 26 68  1  0  0  0  0
 27 82  1  0  0  0  0
 28 83  1  0  0  0  0
 29 31  2  0  0  0  0
 29 82  1  0  0  0  0
 30 84  1  0  0  0  0
 31 85  1  0  0  0  0
 32 66  2  0  0  0  0
 33 67  1  0  0  0  0
 33 71  1  0  0  0  0
 34 72  1  0  0  0  0
 34 77  2  0  0  0  0
 35 52  1  0  0  0  0
 35 73  1  0  0  0  0
 35 78  2  0  0  0  0
 36 63  1  0  0  0  0
 36 69  1  0  0  0  0
 36 79  2  0  0  0  0
 37 64  1  0  0  0  0
 37 74  1  0  0  0  0
 37 80  2  0  0  0  0
 38 70  1  0  0  0  0
 38 75  1  0  0  0  0
 38 81  2  0  0  0  0
 39 42  1  0  0  0  0
 40 52  1  0  0  0  0
 41 69  1  0  0  0  0
 42 44  1  0  0  0  0
 43 45  1  0  0  0  0
 43 47  1  0  0  0  0
 44 51  1  0  0  0  0
 45 53  1  0  0  0  0
 46 48  1  0  0  0  0
 46 54  1  0  0  0  0
 47 70  1  0  0  0  0
 48 68  1  0  0  0  0
 49 53  1  0  0  0  0
 49 70  1  0  0  0  0
 50 54  1  0  0  0  0
 50 68  1  0  0  0  0
 51 73  1  0  0  0  0
 52 69  1  0  0  0  0
 53 67  1  0  0  0  0
 54 83  1  0  0  0  0
 57 64  1  0  0  0  0
 58 65  1  0  0  0  0
 59 65  1  0  0  0  0
 60 65  1  0  0  0  0
 61 76  1  0  0  0  0
 62 75  1  0  0  0  0
 63 65  1  0  0  0  0
 63 74  1  0  0  0  0
 64 76  1  0  0  0  0
 66 67  1  0  0  0  0
M  CHG  1  76   1
M  ISO  4  38 100  54 101  75 100  83 101
M  END
> <Batch ID>
0030

> <Smiles>
CNC(C)C(=O)NC(C(=O)N1Cc2cc([101O:1][101CH:1]3CCN(c4ccc(C[100NH:0][100C:0](=O)N5CCCC(n6nc(-c7ccc(Oc8ccc(F)cc8F)cc7)c(C(N)=O)c6N)C5)c(C)c4C)C3)ccc2CC1C(=O)NC1CCCc2ccccc21)C(C)(C)C

> <Shape>
0.234

> <Color>
0.071

> <Negative vol penalty>
0.000

$$$$

  -OEChem-04042321363D

 86 95  0     1  0  0  0  0  0999 V2000
  -40.5811  -27.3169   18.5982 C   0  0  0  0  0  0  0  0  0  0  0  0
  -39.7996  -26.4883   19.3971 C   0  0  0  0  0  0  0  0  0  0  0  0
  -23.0553   -9.9691   19.8691 C   0  0  0  0  0  0  0  0  0  0  0  0
  -23.9071   -9.7693   22.1211 C   0  0  0  0  0  0  0  0  0  0  0  0
  -39.9840  -28.3407   17.8639 C   0  0  0  0  0  0  0  0  0  0  0  0
  -38.4205  -26.6839   19.4630 C   0  0  0  0  0  0  0  0  0  0  0  0
  -35.8255  -22.3479   19.1314 C   0  0  0  0  0  0  0  0  0  0  0  0
  -22.3257   -8.7928   20.0406 C   0  0  0  0  0  0  0  0  0  0  0  0
  -23.1773   -8.5930   22.2927 C   0  0  0  0  0  0  0  0  0  0  0  0
  -35.7606  -21.5555   20.2767 C   0  0  0  0  0  0  0  0  0  0  0  0
  -19.9785   -7.7212   22.9470 C   0  0  0  0  0  0  0  0  0  0  0  0
  -19.2695   -7.5681   24.1384 C   0  0  0  0  0  0  0  0  0  0  0  0
  -33.5527  -22.4115   20.7365 C   0  0  0  0  0  0  0  0  0  0  0  0
  -30.6403  -18.0774   24.4447 C   0  0  0  0  0  0  0  0  0  0  0  0
  -32.1216  -16.4782   22.7038 C   0  0  0  0  0  0  0  0  0  0  0  0
  -20.5455   -5.5793   24.6422 C   0  0  0  0  0  0  0  0  0  0  0  0
  -23.8461  -10.4574   20.9093 C   0  0  0  0  0  0  0  0  0  0  0  0
  -24.1752  -12.9850   21.0100 C   0  0  0  0  0  0  0  0  0  0  0  0
  -38.5957  -28.5428   17.9133 C   0  0  0  0  0  0  0  0  0  0  0  0
  -34.7571  -23.1876   18.7854 C   0  0  0  0  0  0  0  0  0  0  0  0
  -37.8044  -27.7122   18.7297 C   0  0  0  0  0  0  0  0  0  0  0  0
  -33.6054  -23.2116   19.5849 C   0  0  0  0  0  0  0  0  0  0  0  0
  -32.0330  -18.0669   24.5219 C   0  0  0  0  0  0  0  0  0  0  0  0
  -30.7289  -16.4887   22.6267 C   0  0  0  0  0  0  0  0  0  0  0  0
  -22.3866   -8.1048   21.2525 C   0  0  0  0  0  0  0  0  0  0  0  0
  -34.6253  -21.5894   21.0810 C   0  0  0  0  0  0  0  0  0  0  0  0
  -20.9710   -6.8033   22.6031 C   0  0  0  0  0  0  0  0  0  0  0  0
  -19.5530   -6.4972   24.9861 C   0  0  0  0  0  0  0  0  0  0  0  0
  -32.7736  -17.2673   23.6514 C   0  0  0  0  0  0  0  0  0  0  0  0
  -21.2545   -5.7324   23.4508 C   0  0  0  0  0  0  0  0  0  0  0  0
  -29.9882  -17.2883   23.4972 C   0  0  0  0  0  0  0  0  0  0  0  0
  -24.6006  -11.6721   20.7325 C   0  0  0  0  0  0  0  0  0  0  0  0
  -25.2495  -13.7722   20.6745 C   0  0  0  0  0  0  0  0  0  0  0  0
  -35.0110  -19.9094   25.1217 C   0  0  0  0  0  0  0  0  0  0  0  0
  -22.9210  -13.4514   21.5252 C   0  0  0  0  0  0  0  0  0  0  0  0
  -34.3914  -26.3263   18.4407 C   0  0  0  0  0  0  0  0  0  0  0  0
  -31.4456  -25.4738   17.3836 C   0  0  0  0  0  0  0  0  0  0  0  0
  -28.9296  -23.1681   17.3640 C   0  0  0  0  0  0  0  0  0  0  0  0
  -30.7151  -14.8341   20.7271 C   0  0  0  0  0  0  0  0  0  0  0  0
  -38.0014  -29.6924   17.1388 C   0  0  0  0  0  0  0  0  0  0  0  0
  -34.8318  -24.0161   17.5323 C   0  0  0  0  0  0  0  0  0  0  0  0
  -32.4229  -24.0807   19.2463 C   0  0  0  0  0  0  0  0  0  0  0  0
  -35.5292  -21.1268   24.3910 C   0  0  0  0  0  0  0  0  0  0  0  0
  -36.4871  -29.5962   16.9719 C   0  0  0  0  0  0  0  0  0  0  0  0
  -29.5134  -12.6419   18.1919 C   0  0  0  0  0  0  0  0  0  0  0  0
  -35.8251  -29.2429   18.3000 C   0  0  0  0  0  0  0  0  0  0  0  0
  -28.0932  -12.3022   18.6497 C   0  0  0  0  0  0  0  0  0  0  0  0
  -30.4755  -12.7649   19.3721 C   0  0  0  0  0  0  0  0  0  0  0  0
  -28.6237  -13.3458   20.8894 C   0  0  0  0  0  0  0  0  0  0  0  0
  -33.1408  -20.9649   24.1258 C   0  0  0  0  0  0  0  0  0  0  0  0
  -36.3022  -27.8771   18.8081 C   0  0  1  0  0  0  0  0  0  0  0  0
  -33.8941  -25.2193   17.5547 C   0  0  1  0  0  0  0  0  0  0  0  0
  -27.6047  -13.2755   19.7404 C   0  0  2  0  0  0  0  0  0  0  0  0
  -34.3898  -21.4911   23.4430 C   0  0  2  0  0  0  0  0  0  1  0  0
  -26.6310  -22.7685   16.4399 C   0  0  0  0  0  0  0  0  0  0  0  0
  -30.2856  -27.4072   19.4394 C   0  0  0  0  0  0  0  0  0  0  0  0
  -28.0676  -26.2852   19.1400 C   0  0  0  0  0  0  0  0  0  0  0  0
  -29.1469  -27.4449   17.2131 C   0  0  0  0  0  0  0  0  0  0  0  0
  -29.8157  -20.7617   15.8865 C   0  0  0  0  0  0  0  0  0  0  0  0
  -32.7318  -18.9174   25.5428 C   0  0  0  0  0  0  0  0  0  0  0  0
  -30.1004  -25.2510   18.0314 C   0  0  1  0  0  0  0  0  0  0  0  0
  -28.1232  -22.5668   16.2271 C   0  0  2  0  0  0  0  0  0  0  0  0
  -29.4230  -26.5820   18.4637 C   0  0  0  0  0  0  0  0  0  0  0  0
  -25.8478  -11.6239   20.2570 N   0  0  0  0  0  0  0  0  0  0  0  0
  -26.2153  -12.9163   20.2331 N   0  0  0  0  0  0  0  0  0  0  0  0
  -33.6338  -19.8685   24.9294 N   0  0  0  0  0  0  0  0  0  0  0  0
  -32.5466  -24.8773   18.0143 N   0  0  0  0  0  0  0  0  0  0  0  0
  -29.9493  -13.7065   20.3627 N   0  0  0  0  0  0  0  0  0  0  0  0
  -25.4528  -15.1061   20.7167 N   0  0  0  0  0  0  0  0  0  0  0  0
  -21.9263  -12.5081   21.8169 N   0  0  0  0  0  0  0  0  0  0  0  0
  -30.0984  -15.6752   21.6528 N   0  0  0  0  0  0  0  0  0  0  0  0
  -35.6374  -26.8105   18.0905 N   0  0  0  0  0  0  0  0  0  0  0  0
  -29.3179  -24.4617   17.0864 N   0  0  0  0  0  0  0  0  0  0  0  0
  -28.3892  -21.1043   16.1204 N   0  3  0  0  0  0  0  0  0  0  0  0
  -35.7039  -19.1528   25.7860 O   0  0  0  0  0  0  0  0  0  0  0  0
  -22.6836  -14.6698   21.7056 O   0  0  0  0  0  0  0  0  0  0  0  0
  -33.6956  -26.7134   19.3721 O   0  0  0  0  0  0  0  0  0  0  0  0
  -31.5159  -26.1462   16.3518 O   0  0  0  0  0  0  0  0  0  0  0  0
  -29.1860  -22.5532   18.3968 O   0  0  0  0  0  0  0  0  0  0  0  0
  -31.8239  -15.0529   20.2325 O   0  0  0  0  0  0  0  0  0  0  0  0
  -21.6745   -6.9570   21.4203 O   0  0  0  0  0  0  0  0  0  0  0  0
  -34.5596  -20.8175   22.1998 O   0  0  0  0  0  0  0  0  0  1  0  0
  -18.8732   -6.3513   26.1309 F   0  0  0  0  0  0  0  0  0  0  0  0
  -34.1123  -17.2505   23.7181 F   0  0  0  0  0  0  0  0  0  0  0  0
  -22.2076   -4.8480   23.1264 F   0  0  0  0  0  0  0  0  0  0  0  0
  -28.2621  -17.3309   23.4363 Cl  0  0  0  0  0  0  0  0  0  0  0  0
  1  2  1  0  0  0  0
  1  5  2  0  0  0  0
  2  6  2  0  0  0  0
  3  8  2  0  0  0  0
  3 17  1  0  0  0  0
  4  9  1  0  0  0  0
  4 17  2  0  0  0  0
  5 19  1  0  0  0  0
  6 21  1  0  0  0  0
  7 10  2  0  0  0  0
  7 20  1  0  0  0  0
  8 25  1  0  0  0  0
  9 25  2  0  0  0  0
 10 26  1  0  0  0  0
 11 12  2  0  0  0  0
 11 27  1  0  0  0  0
 12 28  1  0  0  0  0
 13 22  1  0  0  0  0
 13 26  2  0  0  0  0
 14 23  1  0  0  0  0
 14 31  2  0  0  0  0
 15 24  2  0  0  0  0
 15 29  1  0  0  0  0
 16 28  2  0  0  0  0
 16 30  1  0  0  0  0
 17 32  1  0  0  0  0
 18 32  1  0  0  0  0
 18 33  2  0  0  0  0
 18 35  1  0  0  0  0
 19 21  2  0  0  0  0
 19 40  1  0  0  0  0
 20 22  2  0  0  0  0
 20 41  1  0  0  0  0
 21 51  1  0  0  0  0
 22 42  1  0  0  0  0
 23 29  2  0  0  0  0
 23 60  1  0  0  0  0
 24 31  1  0  0  0  0
 24 71  1  0  0  0  0
 25 81  1  0  0  0  0
 26 82  1  0  0  0  0
 27 30  2  0  0  0  0
 27 81  1  0  0  0  0
 28 83  1  0  0  0  0
 29 84  1  0  0  0  0
 30 85  1  0  0  0  0
 31 86  1  0  0  0  0
 32 64  2  0  0  0  0
 33 65  1  0  0  0  0
 33 69  1  0  0  0  0
 34 43  1  0  0  0  0
 34 66  1  0  0  0  0
 34 75  2  0  0  0  0
 35 70  1  0  0  0  0
 35 76  2  0  0  0  0
 36 52  1  0  0  0  0
 36 72  1  0  0  0  0
 36 77  2  0  0  0  0
 37 61  1  0  0  0  0
 37 67  1  0  0  0  0
 37 78  2  0  0  0  0
 38 62  1  0  0  0  0
 38 73  1  0  0  0  0
 38 79  2  0  0  0  0
 39 68  1  0  0  0  0
 39 71  1  0  0  0  0
 39 80  2  0  0  0  0
 40 44  1  0  0  0  0
 41 52  1  0  0  0  0
 42 67  1  0  0  0  0
 43 54  1  0  0  0  0
 44 46  1  0  0  0  0
 45 47  1  0  0  0  0
 45 48  1  0  0  0  0
 46 51  1  0  0  0  0
 47 53  1  0  0  0  0
 48 68  1  0  0  0  0
 49 53  1  0  0  0  0
 49 68  1  0  0  0  0
 50 54  1  0  0  0  0
 50 66  1  0  0  0  0
 51 72  1  0  0  0  0
 52 67  1  0  0  0  0
 53 65  1  0  0  0  0
 54 82  1  0  0  0  0
 55 62  1  0  0  0  0
 56 63  1  0  0  0  0
 57 63  1  0  0  0  0
 58 63  1  0  0  0  0
 59 74  1  0  0  0  0
 60 66  1  0  0  0  0
 61 63  1  0  0  0  0
 61 73  1  0  0  0  0
 62 74  1  0  0  0  0
 64 65  1  0  0  0  0
M  CHG  1  74   1
M  ISO  4  39 100  54 101  71 100  82 101
M  END
> <Batch ID>
0030

> <Smiles>
CNC(C)C(=O)NC(C(=O)N1Cc2cc([101O:1][101CH:1]3CC(=O)N(Cc4cc(Cl)c([100NH:0][100C:0](=O)N5CCCC(n6nc(-c7ccc(Oc8ccc(F)cc8F)cc7)c(C(N)=O)c6N)C5)cc4F)C3)ccc2CC1C(=O)NC1CCCc2ccccc21)C(C)(C)C

> <Shape>
0.213

> <Color>
0.199

> <Negative vol penalty>
0.000

$$$$

  -OEChem-04042321363D

 84 93  0     1  0  0  0  0  0999 V2000
  -28.7472  -20.1440   15.1150 C   0  0  0  0  0  0  0  0  0  0  0  0
  -28.8379  -20.2889   16.4956 C   0  0  0  0  0  0  0  0  0  0  0  0
  -23.0477   -9.9284   19.8578 C   0  0  0  0  0  0  0  0  0  0  0  0
  -23.8631   -9.7588   22.1257 C   0  0  0  0  0  0  0  0  0  0  0  0
  -29.2798  -21.1220   14.2761 C   0  0  0  0  0  0  0  0  0  0  0  0
  -29.4623  -21.4114   17.0382 C   0  0  0  0  0  0  0  0  0  0  0  0
  -26.8452  -23.4245   20.8779 C   0  0  0  0  0  0  0  0  0  0  0  0
  -32.1057  -16.4274   22.7296 C   0  0  0  0  0  0  0  0  0  0  0  0
  -22.3088   -8.7589   20.0360 C   0  0  0  0  0  0  0  0  0  0  0  0
  -23.1241   -8.5893   22.3040 C   0  0  0  0  0  0  0  0  0  0  0  0
  -26.9354  -22.7859   22.1139 C   0  0  0  0  0  0  0  0  0  0  0  0
  -19.3957   -7.8505   21.4927 C   0  0  0  0  0  0  0  0  0  0  0  0
  -18.0774   -7.8409   21.0373 C   0  0  0  0  0  0  0  0  0  0  0  0
  -32.7526  -17.2274   23.6715 C   0  0  0  0  0  0  0  0  0  0  0  0
  -28.5476  -24.4278   22.8379 C   0  0  0  0  0  0  0  0  0  0  0  0
  -18.6025   -6.0062   19.5557 C   0  0  0  0  0  0  0  0  0  0  0  0
  -23.8249  -10.4284   20.9027 C   0  0  0  0  0  0  0  0  0  0  0  0
  -24.1667  -12.9555   20.9697 C   0  0  0  0  0  0  0  0  0  0  0  0
  -29.9025  -22.2618   14.8087 C   0  0  0  0  0  0  0  0  0  0  0  0
  -27.6150  -24.5652   20.6083 C   0  0  0  0  0  0  0  0  0  0  0  0
  -30.0050  -22.4050   16.2056 C   0  0  0  0  0  0  0  0  0  0  0  0
  -28.4634  -25.0806   21.5985 C   0  0  0  0  0  0  0  0  0  0  0  0
  -30.6165  -18.0688   24.4239 C   0  0  0  0  0  0  0  0  0  0  0  0
  -30.7142  -16.4481   22.6348 C   0  0  0  0  0  0  0  0  0  0  0  0
  -22.3469   -8.0893   21.2591 C   0  0  0  0  0  0  0  0  0  0  0  0
  -27.7888  -23.2858   23.0931 C   0  0  0  0  0  0  0  0  0  0  0  0
  -20.3175   -6.9379   20.9796 C   0  0  0  0  0  0  0  0  0  0  0  0
  -17.6807   -6.9188   20.0688 C   0  0  0  0  0  0  0  0  0  0  0  0
  -19.9209   -6.0158   20.0112 C   0  0  0  0  0  0  0  0  0  0  0  0
  -32.0080  -18.0481   24.5186 C   0  0  0  0  0  0  0  0  0  0  0  0
  -29.9696  -17.2688   23.4820 C   0  0  0  0  0  0  0  0  0  0  0  0
  -24.5889  -11.6361   20.7191 C   0  0  0  0  0  0  0  0  0  0  0  0
  -25.2505  -13.7316   20.6390 C   0  0  0  0  0  0  0  0  0  0  0  0
  -22.9073  -13.4365   21.4580 C   0  0  0  0  0  0  0  0  0  0  0  0
  -29.8858  -25.2936   18.5067 C   0  0  0  0  0  0  0  0  0  0  0  0
  -29.5727  -28.2591   19.7834 C   0  0  0  0  0  0  0  0  0  0  0  0
  -28.6340  -30.1856   22.4393 C   0  0  0  0  0  0  0  0  0  0  0  0
  -30.7206  -14.7644   20.7609 C   0  0  0  0  0  0  0  0  0  0  0  0
  -30.5052  -23.2691   13.8617 C   0  0  0  0  0  0  0  0  0  0  0  0
  -27.4863  -25.2580   19.2794 C   0  0  0  0  0  0  0  0  0  0  0  0
  -29.2960  -26.3140   21.3662 C   0  0  0  0  0  0  0  0  0  0  0  0
  -30.8191  -24.6108   14.5186 C   0  0  0  0  0  0  0  0  0  0  0  0
  -29.5461  -12.5399   18.2411 C   0  0  0  0  0  0  0  0  0  0  0  0
  -31.5348  -24.3995   15.8490 C   0  0  0  0  0  0  0  0  0  0  0  0
  -28.1170  -12.2150   18.6818 C   0  0  0  0  0  0  0  0  0  0  0  0
  -30.4904  -12.6759   19.4343 C   0  0  0  0  0  0  0  0  0  0  0  0
  -28.6185  -13.2902   20.9133 C   0  0  0  0  0  0  0  0  0  0  0  0
  -29.6835  -20.9348   23.9110 C   0  0  0  0  0  0  0  0  0  0  0  0
  -29.2026  -21.2480   25.9192 C   0  0  0  0  0  0  0  0  0  0  0  0
  -30.6528  -23.6206   16.8323 C   0  0  1  0  0  0  0  0  0  0  0  0
  -28.7006  -26.1136   18.9315 C   0  0  1  0  0  0  0  0  0  0  0  0
  -27.6171  -13.2077   19.7496 C   0  0  2  0  0  0  0  0  0  0  0  0
  -29.1703  -22.1634   24.6828 C   0  0  0  0  0  0  0  0  0  1  0  0
  -28.5314  -32.5743   23.2015 C   0  0  0  0  0  0  0  0  0  0  0  0
  -32.5840  -28.2292   20.2746 C   0  0  0  0  0  0  0  0  0  0  0  0
  -32.2760  -30.1516   21.8487 C   0  0  0  0  0  0  0  0  0  0  0  0
  -31.6849  -30.4080   19.4388 C   0  0  0  0  0  0  0  0  0  0  0  0
  -25.6905  -30.0877   22.7305 C   0  0  0  0  0  0  0  0  0  0  0  0
  -29.8209  -18.9525   25.3389 C   0  0  0  0  0  0  0  0  0  0  0  0
  -30.2098  -29.0005   20.9337 C   0  0  1  0  0  0  0  0  0  0  0  0
  -27.7811  -31.4386   22.5233 C   0  0  2  0  0  0  0  0  0  0  0  0
  -31.6746  -29.4229   20.6279 C   0  0  0  0  0  0  0  0  0  0  0  0
  -25.8431  -11.5738   20.2640 N   0  0  0  0  0  0  0  0  0  0  0  0
  -26.2183  -12.8637   20.2260 N   0  0  0  0  0  0  0  0  0  0  0  0
  -29.1399  -26.9521   20.0487 N   0  0  0  0  0  0  0  0  0  0  0  0
  -29.9541  -13.6355   20.4019 N   0  0  0  0  0  0  0  0  0  0  0  0
  -25.4607  -15.0648   20.6639 N   0  0  0  0  0  0  0  0  0  0  0  0
  -21.9028  -12.5033   21.7486 N   0  0  0  0  0  0  0  0  0  0  0  0
  -30.0944  -15.6231   21.6638 N   0  0  0  0  0  0  0  0  0  0  0  0
  -29.6489  -24.4894   17.4082 N   0  0  0  0  0  0  0  0  0  0  0  0
  -29.3196  -30.1136   21.2451 N   0  0  0  0  0  0  0  0  0  0  0  0
  -30.1557  -20.3863   25.1956 N   0  3  0  0  0  0  0  0  0  0  0  0
  -26.5376  -31.1677   23.2987 N   0  3  0  0  0  0  0  0  0  0  0  0
  -22.6740  -14.6589   21.6159 O   0  0  0  0  0  0  0  0  0  0  0  0
  -30.9378  -25.3848   19.1285 O   0  0  0  0  0  0  0  0  0  0  0  0
  -29.4566  -28.8214   18.6916 O   0  0  0  0  0  0  0  0  0  0  0  0
  -28.6897  -29.3559   23.3442 O   0  0  0  0  0  0  0  0  0  0  0  0
  -31.8382  -14.9696   20.2804 O   0  0  0  0  0  0  0  0  0  0  0  0
  -21.6258   -6.9482   21.4334 O   0  0  0  0  0  0  0  0  0  0  0  0
  -27.8792  -22.6640   24.3002 O   0  0  0  0  0  0  0  0  0  1  0  0
  -16.4143   -6.9087   19.6326 F   0  0  0  0  0  0  0  0  0  0  0  0
  -20.8017   -5.1359   19.5153 F   0  0  0  0  0  0  0  0  0  0  0  0
  -32.8507  -19.0232   25.6682 Cl  0  0  0  0  0  0  0  0  0  0  0  0
  -28.2388  -17.2916   23.3652 Cl  0  0  0  0  0  0  0  0  0  0  0  0
  1  2  1  0  0  0  0
  1  5  2  0  0  0  0
  2  6  2  0  0  0  0
  3  9  2  0  0  0  0
  3 17  1  0  0  0  0
  4 10  1  0  0  0  0
  4 17  2  0  0  0  0
  5 19  1  0  0  0  0
  6 21  1  0  0  0  0
  7 11  2  0  0  0  0
  7 20  1  0  0  0  0
  8 14  1  0  0  0  0
  8 24  2  0  0  0  0
  9 25  1  0  0  0  0
 10 25  2  0  0  0  0
 11 26  1  0  0  0  0
 12 13  2  0  0  0  0
 12 27  1  0  0  0  0
 13 28  1  0  0  0  0
 14 30  2  0  0  0  0
 15 22  1  0  0  0  0
 15 26  2  0  0  0  0
 16 28  2  0  0  0  0
 16 29  1  0  0  0  0
 17 32  1  0  0  0  0
 18 32  1  0  0  0  0
 18 33  2  0  0  0  0
 18 34  1  0  0  0  0
 19 21  2  0  0  0  0
 19 39  1  0  0  0  0
 20 22  2  0  0  0  0
 20 40  1  0  0  0  0
 21 50  1  0  0  0  0
 22 41  1  0  0  0  0
 23 30  1  0  0  0  0
 23 31  2  0  0  0  0
 23 59  1  0  0  0  0
 24 31  1  0  0  0  0
 24 69  1  0  0  0  0
 25 79  1  0  0  0  0
 26 80  1  0  0  0  0
 27 29  2  0  0  0  0
 27 79  1  0  0  0  0
 28 81  1  0  0  0  0
 29 82  1  0  0  0  0
 30 83  1  0  0  0  0
 31 84  1  0  0  0  0
 32 63  2  0  0  0  0
 33 64  1  0  0  0  0
 33 67  1  0  0  0  0
 34 68  1  0  0  0  0
 34 74  2  0  0  0  0
 35 51  1  0  0  0  0
 35 70  1  0  0  0  0
 35 75  2  0  0  0  0
 36 60  1  0  0  0  0
 36 65  1  0  0  0  0
 36 76  2  0  0  0  0
 37 61  1  0  0  0  0
 37 71  1  0  0  0  0
 37 77  2  0  0  0  0
 38 66  1  0  0  0  0
 38 69  1  0  0  0  0
 38 78  2  0  0  0  0
 39 42  1  0  0  0  0
 40 51  1  0  0  0  0
 41 65  1  0  0  0  0
 42 44  1  0  0  0  0
 43 45  1  0  0  0  0
 43 46  1  0  0  0  0
 44 50  1  0  0  0  0
 45 52  1  0  0  0  0
 46 66  1  0  0  0  0
 47 52  1  0  0  0  0
 47 66  1  0  0  0  0
 48 53  1  0  0  0  0
 48 72  1  0  0  0  0
 49 53  1  0  0  0  0
 49 72  1  0  0  0  0
 50 70  1  0  0  0  0
 51 65  1  0  0  0  0
 52 64  1  0  0  0  0
 53 80  1  0  0  0  0
 54 61  1  0  0  0  0
 55 62  1  0  0  0  0
 56 62  1  0  0  0  0
 57 62  1  0  0  0  0
 58 73  1  0  0  0  0
 59 72  1  0  0  0  0
 60 62  1  0  0  0  0
 60 71  1  0  0  0  0
 61 73  1  0  0  0  0
 63 64  1  0  0  0  0
M  CHG  2  72   1  73   1
M  ISO  4  38 100  53 101  69 100  80 101
M  END
> <Batch ID>
0030

> <Smiles>
CNC(C)C(=O)NC(C(=O)N1Cc2cc([101O:1][101CH:1]3CN(Cc4c(Cl)ccc([100NH:0][100C:0](=O)N5CCCC(n6nc(-c7ccc(Oc8ccc(F)cc8F)cc7)c(C(N)=O)c6N)C5)c4Cl)C3)ccc2CC1C(=O)NC1CCCc2ccccc21)C(C)(C)C

> <Shape>
0.235

> <Color>
0.203

> <Negative vol penalty>
0.000

$$$$

  -OEChem-04042321363D

 84 92  0     1  0  0  0  0  0999 V2000
  -24.3907  -23.5925   13.3478 C   0  0  0  0  0  0  0  0  0  0  0  0
  -24.2325  -24.0826   14.6401 C   0  0  0  0  0  0  0  0  0  0  0  0
  -24.4028  -17.6548   21.9358 C   0  0  0  0  0  0  0  0  0  0  0  0
  -23.3999  -18.2628   19.8236 C   0  0  0  0  0  0  0  0  0  0  0  0
  -25.4740  -22.7693   13.0434 C   0  0  0  0  0  0  0  0  0  0  0  0
  -25.1570  -23.7489   15.6292 C   0  0  0  0  0  0  0  0  0  0  0  0
  -26.5325  -27.7383   18.4287 C   0  0  0  0  0  0  0  0  0  0  0  0
  -24.0712  -16.3191   21.7089 C   0  0  0  0  0  0  0  0  0  0  0  0
  -23.0683  -16.9270   19.5966 C   0  0  0  0  0  0  0  0  0  0  0  0
  -25.6420  -28.1620   19.4142 C   0  0  0  0  0  0  0  0  0  0  0  0
  -25.2621  -13.7320   19.8864 C   0  0  0  0  0  0  0  0  0  0  0  0
  -26.2381  -12.7692   20.1430 C   0  0  0  0  0  0  0  0  0  0  0  0
  -26.9487  -27.0088   21.0821 C   0  0  0  0  0  0  0  0  0  0  0  0
  -19.3197  -31.0094   24.4005 C   0  0  0  0  0  0  0  0  0  0  0  0
  -18.1889  -28.9380   23.8833 C   0  0  0  0  0  0  0  0  0  0  0  0
  -24.7877  -11.7337   21.7743 C   0  0  0  0  0  0  0  0  0  0  0  0
  -24.0670  -18.6267   20.9932 C   0  0  0  0  0  0  0  0  0  0  0  0
  -25.5960  -20.6639   20.8526 C   0  0  0  0  0  0  0  0  0  0  0  0
  -26.4176  -22.4331   14.0269 C   0  0  0  0  0  0  0  0  0  0  0  0
  -27.6336  -26.9363   18.7615 C   0  0  0  0  0  0  0  0  0  0  0  0
  -26.2533  -22.9193   15.3380 C   0  0  0  0  0  0  0  0  0  0  0  0
  -27.8531  -26.5784   20.0993 C   0  0  0  0  0  0  0  0  0  0  0  0
  -18.2182  -30.1659   24.5445 C   0  0  0  0  0  0  0  0  0  0  0  0
  -20.3919  -30.6252   23.5952 C   0  0  0  0  0  0  0  0  0  0  0  0
  -19.2611  -28.5537   23.0780 C   0  0  0  0  0  0  0  0  0  0  0  0
  -20.3626  -29.3973   22.9340 C   0  0  0  0  0  0  0  0  0  0  0  0
  -23.4040  -15.9552   20.5392 C   0  0  0  0  0  0  0  0  0  0  0  0
  -25.8484  -27.7949   20.7407 C   0  0  0  0  0  0  0  0  0  0  0  0
  -24.0488  -13.6957   20.5738 C   0  0  0  0  0  0  0  0  0  0  0  0
  -26.0009  -11.7700   21.0869 C   0  0  0  0  0  0  0  0  0  0  0  0
  -23.8116  -12.6966   21.5177 C   0  0  0  0  0  0  0  0  0  0  0  0
  -24.4088  -20.0067   21.2274 C   0  0  0  0  0  0  0  0  0  0  0  0
  -25.4315  -21.9519   21.3004 C   0  0  0  0  0  0  0  0  0  0  0  0
  -26.7447  -20.1556   20.1614 C   0  0  0  0  0  0  0  0  0  0  0  0
  -28.5903  -24.0060   17.9857 C   0  0  0  0  0  0  0  0  0  0  0  0
  -31.2352  -24.8460   19.6653 C   0  0  0  0  0  0  0  0  0  0  0  0
  -22.7758  -28.8306   22.4989 C   0  0  0  0  0  0  0  0  0  0  0  0
  -32.6314  -26.8170   22.0763 C   0  0  0  0  0  0  0  0  0  0  0  0
  -20.5908  -25.1778   22.3084 C   0  0  0  0  0  0  0  0  0  0  0  0
  -27.5462  -21.5017   13.6618 C   0  0  0  0  0  0  0  0  0  0  0  0
  -28.5998  -26.5097   17.6905 C   0  0  0  0  0  0  0  0  0  0  0  0
  -29.0312  -25.7355   20.5117 C   0  0  0  0  0  0  0  0  0  0  0  0
  -28.6868  -21.4999   14.6763 C   0  0  0  0  0  0  0  0  0  0  0  0
  -23.2104  -24.4778   24.7054 C   0  0  0  0  0  0  0  0  0  0  0  0
  -28.1384  -21.3970   16.0960 C   0  0  0  0  0  0  0  0  0  0  0  0
  -23.9287  -23.3042   24.0368 C   0  0  0  0  0  0  0  0  0  0  0  0
  -21.7022  -24.3990   24.4881 C   0  0  0  0  0  0  0  0  0  0  0  0
  -22.0057  -23.1446   22.3886 C   0  0  0  0  0  0  0  0  0  0  0  0
  -27.2486  -22.5998   16.4322 C   0  0  1  0  0  0  0  0  0  0  0  0
  -29.4014  -25.2681   18.0690 C   0  0  1  0  0  0  0  0  0  0  0  0
  -23.5360  -23.1789   22.5528 C   0  0  2  0  0  0  0  0  0  0  0  0
  -17.0718  -30.5768   25.4052 C   0  0  0  0  0  0  0  0  0  0  0  0
  -21.5577  -31.5507   23.4601 C   0  0  0  0  0  0  0  0  0  0  0  0
  -34.8052  -27.2474   23.2540 C   0  0  0  0  0  0  0  0  0  0  0  0
  -30.8425  -22.3079   21.3125 C   0  0  0  0  0  0  0  0  0  0  0  0
  -32.4086  -23.2570   23.0198 C   0  0  0  0  0  0  0  0  0  0  0  0
  -33.2180  -22.8000   20.7049 C   0  0  0  0  0  0  0  0  0  0  0  0
  -32.7288  -29.6162   21.1201 C   0  0  0  0  0  0  0  0  0  0  0  0
  -19.2009  -27.2320   22.3827 C   0  0  0  0  0  0  0  0  0  0  0  0
  -23.6229  -28.4076   21.3132 C   0  0  0  0  0  0  0  0  0  1  0  0
  -31.6593  -24.7488   21.1109 C   0  0  1  0  0  0  0  0  0  0  0  0
  -33.9073  -27.6394   22.0909 C   0  0  2  0  0  0  0  0  0  0  0  0
  -32.0087  -23.2927   21.5293 C   0  0  0  0  0  0  0  0  0  0  0  0
  -23.5534  -20.8108   21.8644 N   0  0  0  0  0  0  0  0  0  0  0  0
  -24.2038  -21.9864   21.8934 N   0  0  0  0  0  0  0  0  0  0  0  0
  -29.9441  -25.3380   19.4272 N   0  0  0  0  0  0  0  0  0  0  0  0
  -21.3952  -24.3002   23.0542 N   0  0  0  0  0  0  0  0  0  0  0  0
  -26.2189  -23.0469   21.2410 N   0  0  0  0  0  0  0  0  0  0  0  0
  -26.7489  -18.8090   19.7727 N   0  0  0  0  0  0  0  0  0  0  0  0
  -21.4502  -29.0072   22.1171 N   0  0  0  0  0  0  0  0  0  0  0  0
  -28.0597  -23.7598   16.7338 N   0  0  0  0  0  0  0  0  0  0  0  0
  -32.7541  -25.6981   21.2798 N   0  0  0  0  0  0  0  0  0  0  0  0
  -20.0447  -26.2425   23.0149 N   0  0  0  0  0  0  0  0  0  0  0  0
  -33.5872  -29.0899   22.2124 N   0  3  0  0  0  0  0  0  0  0  0  0
  -27.7449  -20.8700   19.9108 O   0  0  0  0  0  0  0  0  0  0  0  0
  -28.4571  -23.3065   18.9830 O   0  0  0  0  0  0  0  0  0  0  0  0
  -32.0233  -24.5050   18.7797 O   0  0  0  0  0  0  0  0  0  0  0  0
  -23.2615  -28.9780   23.6155 O   0  0  0  0  0  0  0  0  0  0  0  0
  -31.6277  -27.1334   22.7110 O   0  0  0  0  0  0  0  0  0  0  0  0
  -20.3791  -25.0269   21.1003 O   0  0  0  0  0  0  0  0  0  0  0  0
  -23.0805  -14.6519   20.3173 O   0  0  0  0  0  0  0  0  0  0  0  0
  -24.9804  -28.2065   21.7046 O   0  0  0  0  0  0  0  0  0  1  0  0
  -26.9377  -10.8445   21.3322 F   0  0  0  0  0  0  0  0  0  0  0  0
  -22.6476  -12.6558   22.1804 F   0  0  0  0  0  0  0  0  0  0  0  0
  1  2  1  0  0  0  0
  1  5  2  0  0  0  0
  2  6  2  0  0  0  0
  3  8  2  0  0  0  0
  3 17  1  0  0  0  0
  4  9  1  0  0  0  0
  4 17  2  0  0  0  0
  5 19  1  0  0  0  0
  6 21  1  0  0  0  0
  7 10  2  0  0  0  0
  7 20  1  0  0  0  0
  8 27  1  0  0  0  0
  9 27  2  0  0  0  0
 10 28  1  0  0  0  0
 11 12  2  0  0  0  0
 11 29  1  0  0  0  0
 12 30  1  0  0  0  0
 13 22  1  0  0  0  0
 13 28  2  0  0  0  0
 14 23  1  0  0  0  0
 14 24  2  0  0  0  0
 15 23  2  0  0  0  0
 15 25  1  0  0  0  0
 16 30  2  0  0  0  0
 16 31  1  0  0  0  0
 17 32  1  0  0  0  0
 18 32  1  0  0  0  0
 18 33  2  0  0  0  0
 18 34  1  0  0  0  0
 19 21  2  0  0  0  0
 19 40  1  0  0  0  0
 20 22  2  0  0  0  0
 20 41  1  0  0  0  0
 21 49  1  0  0  0  0
 22 42  1  0  0  0  0
 23 52  1  0  0  0  0
 24 26  1  0  0  0  0
 24 53  1  0  0  0  0
 25 26  2  0  0  0  0
 25 59  1  0  0  0  0
 26 70  1  0  0  0  0
 27 81  1  0  0  0  0
 28 82  1  0  0  0  0
 29 31  2  0  0  0  0
 29 81  1  0  0  0  0
 30 83  1  0  0  0  0
 31 84  1  0  0  0  0
 32 64  2  0  0  0  0
 33 65  1  0  0  0  0
 33 68  1  0  0  0  0
 34 69  1  0  0  0  0
 34 75  2  0  0  0  0
 35 50  1  0  0  0  0
 35 71  1  0  0  0  0
 35 76  2  0  0  0  0
 36 61  1  0  0  0  0
 36 66  1  0  0  0  0
 36 77  2  0  0  0  0
 37 60  1  0  0  0  0
 37 70  1  0  0  0  0
 37 78  2  0  0  0  0
 38 62  1  0  0  0  0
 38 72  1  0  0  0  0
 38 79  2  0  0  0  0
 39 67  1  0  0  0  0
 39 73  1  0  0  0  0
 39 80  2  0  0  0  0
 40 43  1  0  0  0  0
 41 50  1  0  0  0  0
 42 66  1  0  0  0  0
 43 45  1  0  0  0  0
 44 46  1  0  0  0  0
 44 47  1  0  0  0  0
 45 49  1  0  0  0  0
 46 51  1  0  0  0  0
 47 67  1  0  0  0  0
 48 51  1  0  0  0  0
 48 67  1  0  0  0  0
 49 71  1  0  0  0  0
 50 66  1  0  0  0  0
 51 65  1  0  0  0  0
 54 62  1  0  0  0  0
 55 63  1  0  0  0  0
 56 63  1  0  0  0  0
 57 63  1  0  0  0  0
 58 74  1  0  0  0  0
 59 73  1  0  0  0  0
 60 82  1  0  0  0  0
 61 63  1  0  0  0  0
 61 72  1  0  0  0  0
 62 74  1  0  0  0  0
 64 65  1  0  0  0  0
M  CHG  1  74   1
M  ISO  4  39 100  60 101  73 100  82 101
M  END
> <Batch ID>
0030

> <Smiles>
CNC(C)C(=O)NC(C(=O)N1Cc2cc([101O:1][101CH2:1]C(=O)Nc3c(C)cc(C)cc3C[100NH:0][100C:0](=O)N3CCCC(n4nc(-c5ccc(Oc6ccc(F)cc6F)cc5)c(C(N)=O)c4N)C3)ccc2CC1C(=O)NC1CCCc2ccccc21)C(C)(C)C

> <Shape>
0.185

> <Color>
0.084

> <Negative vol penalty>
0.000

$$$$

  -OEChem-04042321363D

 86 95  0     1  0  0  0  0  0999 V2000
  -16.6654  -27.4884   21.8356 C   0  0  0  0  0  0  0  0  0  0  0  0
  -17.8987  -26.8950   21.5863 C   0  0  0  0  0  0  0  0  0  0  0  0
  -28.3428  -11.2783   22.9812 C   0  0  0  0  0  0  0  0  0  0  0  0
  -26.8415  -12.5685   21.5960 C   0  0  0  0  0  0  0  0  0  0  0  0
  -16.5324  -28.8744   21.7622 C   0  0  0  0  0  0  0  0  0  0  0  0
  -18.9996  -27.6872   21.2622 C   0  0  0  0  0  0  0  0  0  0  0  0
  -24.8410  -26.6795   22.8012 C   0  0  0  0  0  0  0  0  0  0  0  0
  -27.2851  -10.4498   23.3559 C   0  0  0  0  0  0  0  0  0  0  0  0
  -25.7838  -11.7400   21.9708 C   0  0  0  0  0  0  0  0  0  0  0  0
  -25.9107  -26.1176   22.1057 C   0  0  0  0  0  0  0  0  0  0  0  0
  -24.6149   -8.6746   21.1598 C   0  0  0  0  0  0  0  0  0  0  0  0
  -23.7543   -8.2307   20.1558 C   0  0  0  0  0  0  0  0  0  0  0  0
  -26.6487  -28.3246   21.4702 C   0  0  0  0  0  0  0  0  0  0  0  0
  -30.2306  -21.6826   21.0386 C   0  0  0  0  0  0  0  0  0  0  0  0
  -28.1169  -21.6179   19.2190 C   0  0  0  0  0  0  0  0  0  0  0  0
  -21.8988   -9.3009   21.2733 C   0  0  0  0  0  0  0  0  0  0  0  0
  -28.1210  -12.3377   22.1012 C   0  0  0  0  0  0  0  0  0  0  0  0
  -30.0790  -13.0245   20.6173 C   0  0  0  0  0  0  0  0  0  0  0  0
  -17.6344  -29.6846   21.4465 C   0  0  0  0  0  0  0  0  0  0  0  0
  -24.6606  -28.0699   22.8275 C   0  0  0  0  0  0  0  0  0  0  0  0
  -18.8809  -29.0851   21.1832 C   0  0  0  0  0  0  0  0  0  0  0  0
  -25.5774  -28.9017   22.1689 C   0  0  0  0  0  0  0  0  0  0  0  0
  -30.1120  -22.6808   20.0717 C   0  0  0  0  0  0  0  0  0  0  0  0
  -29.0552  -22.6485   19.1619 C   0  0  0  0  0  0  0  0  0  0  0  0
  -29.2923  -20.6520   21.0958 C   0  0  0  0  0  0  0  0  0  0  0  0
  -26.0056  -10.6806   22.8507 C   0  0  0  0  0  0  0  0  0  0  0  0
  -26.8131  -26.9400   21.4376 C   0  0  0  0  0  0  0  0  0  0  0  0
  -24.1175   -9.4316   22.2205 C   0  0  0  0  0  0  0  0  0  0  0  0
  -22.3963   -8.5439   20.2125 C   0  0  0  0  0  0  0  0  0  0  0  0
  -22.7594   -9.7448   22.2772 C   0  0  0  0  0  0  0  0  0  0  0  0
  -28.2355  -20.6197   20.1860 C   0  0  0  0  0  0  0  0  0  0  0  0
  -29.2131  -13.1942   21.7142 C   0  0  0  0  0  0  0  0  0  0  0  0
  -30.9350  -14.0964   20.6865 C   0  0  0  0  0  0  0  0  0  0  0  0
  -30.5598  -26.1150   19.2786 C   0  0  0  0  0  0  0  0  0  0  0  0
  -30.1070  -11.9904   19.6245 C   0  0  0  0  0  0  0  0  0  0  0  0
  -22.3861  -30.0558   21.8343 C   0  0  0  0  0  0  0  0  0  0  0  0
  -24.2097  -32.2760   23.3402 C   0  0  0  0  0  0  0  0  0  0  0  0
  -27.2853  -33.1990   24.4958 C   0  0  0  0  0  0  0  0  0  0  0  0
  -30.4489  -19.5625   23.0507 C   0  0  0  0  0  0  0  0  0  0  0  0
  -17.4309  -31.1747   21.3325 C   0  0  0  0  0  0  0  0  0  0  0  0
  -23.5168  -28.6617   23.6046 C   0  0  0  0  0  0  0  0  0  0  0  0
  -25.4398  -30.4015   22.1834 C   0  0  0  0  0  0  0  0  0  0  0  0
  -29.9302  -27.3232   19.9332 C   0  0  0  0  0  0  0  0  0  0  0  0
  -18.7335  -31.9705   21.3503 C   0  0  0  0  0  0  0  0  0  0  0  0
  -32.9108  -17.1135   23.8373 C   0  0  0  0  0  0  0  0  0  0  0  0
  -19.7573  -31.3396   20.4119 C   0  0  0  0  0  0  0  0  0  0  0  0
  -32.3235  -15.8161   23.2769 C   0  0  0  0  0  0  0  0  0  0  0  0
  -31.8291  -18.0186   24.4242 C   0  0  0  0  0  0  0  0  0  0  0  0
  -30.1201  -17.0131   22.9622 C   0  0  0  0  0  0  0  0  0  0  0  0
  -29.9506  -25.4720   21.4738 C   0  0  0  0  0  0  0  0  0  0  0  0
  -20.1042  -29.9125   20.8529 C   0  0  1  0  0  0  0  0  0  0  0  0
  -23.1374  -30.0629   23.1355 C   0  0  1  0  0  0  0  0  0  0  0  0
  -31.1637  -16.0976   22.3016 C   0  0  2  0  0  0  0  0  0  0  0  0
  -29.1879  -26.7386   21.1319 C   0  0  2  0  0  0  0  0  0  1  0  0
  -28.9080  -23.7062   18.1176 C   0  0  0  0  0  0  0  0  0  0  0  0
  -28.4718  -35.0862   25.6482 C   0  0  0  0  0  0  0  0  0  0  0  0
  -24.1949  -33.8705   20.7389 C   0  0  0  0  0  0  0  0  0  0  0  0
  -26.1183  -35.2046   21.6271 C   0  0  0  0  0  0  0  0  0  0  0  0
  -23.9215  -35.2479   22.8083 C   0  0  0  0  0  0  0  0  0  0  0  0
  -28.0253  -31.4852   26.7923 C   0  0  0  0  0  0  0  0  0  0  0  0
  -31.1362  -23.7778   20.0276 C   0  0  0  0  0  0  0  0  0  0  0  0
  -25.3566  -33.1703   22.9357 C   0  0  1  0  0  0  0  0  0  0  0  0
  -27.7302  -33.7710   25.8297 C   0  0  2  0  0  0  0  0  0  0  0  0
  -24.8996  -34.3450   22.0254 C   0  0  0  0  0  0  0  0  0  0  0  0
  -29.4935  -14.2877   22.4280 N   0  0  0  0  0  0  0  0  0  0  0  0
  -30.5452  -14.8148   21.7783 N   0  0  0  0  0  0  0  0  0  0  0  0
  -30.5396  -25.0833   20.2117 N   0  0  0  0  0  0  0  0  0  0  0  0
  -24.3015  -30.9319   22.9517 N   0  0  0  0  0  0  0  0  0  0  0  0
  -30.7659  -18.2447   23.4427 N   0  0  0  0  0  0  0  0  0  0  0  0
  -31.9756  -14.4850   19.9193 N   0  0  0  0  0  0  0  0  0  0  0  0
  -29.1554  -10.9643   19.7014 N   0  0  0  0  0  0  0  0  0  0  0  0
  -29.4441  -19.6518   22.0880 N   0  0  0  0  0  0  0  0  0  0  0  0
  -21.0166  -29.9383   21.9760 N   0  0  0  0  0  0  0  0  0  0  0  0
  -26.0030  -33.5907   24.1743 N   0  0  0  0  0  0  0  0  0  0  0  0
  -28.6345  -32.8141   26.5279 N   0  3  0  0  0  0  0  0  0  0  0  0
  -31.0295  -26.1042   18.1502 O   0  0  0  0  0  0  0  0  0  0  0  0
  -30.9612  -11.9679   18.7061 O   0  0  0  0  0  0  0  0  0  0  0  0
  -23.0031  -30.1515   20.7799 O   0  0  0  0  0  0  0  0  0  0  0  0
  -23.2704  -32.7508   23.9836 O   0  0  0  0  0  0  0  0  0  0  0  0
  -28.0049  -32.4799   23.8061 O   0  0  0  0  0  0  0  0  0  0  0  0
  -31.0452  -20.5384   23.5135 O   0  0  0  0  0  0  0  0  0  0  0  0
  -24.9733   -9.8723   23.2160 O   0  0  0  0  0  0  0  0  0  0  0  0
  -27.8578  -26.3942   20.7574 O   0  0  0  0  0  0  0  0  0  1  0  0
  -21.5702   -8.1188   19.2476 F   0  0  0  0  0  0  0  0  0  0  0  0
  -22.2759  -10.4728   23.2932 F   0  0  0  0  0  0  0  0  0  0  0  0
  -27.0511  -19.3620   20.2217 Cl  0  0  0  0  0  0  0  0  0  0  0  0
  1  2  1  0  0  0  0
  1  5  2  0  0  0  0
  2  6  2  0  0  0  0
  3  8  2  0  0  0  0
  3 17  1  0  0  0  0
  4  9  1  0  0  0  0
  4 17  2  0  0  0  0
  5 19  1  0  0  0  0
  6 21  1  0  0  0  0
  7 10  2  0  0  0  0
  7 20  1  0  0  0  0
  8 26  1  0  0  0  0
  9 26  2  0  0  0  0
 10 27  1  0  0  0  0
 11 12  2  0  0  0  0
 11 28  1  0  0  0  0
 12 29  1  0  0  0  0
 13 22  1  0  0  0  0
 13 27  2  0  0  0  0
 14 23  1  0  0  0  0
 14 25  2  0  0  0  0
 15 24  1  0  0  0  0
 15 31  2  0  0  0  0
 16 29  2  0  0  0  0
 16 30  1  0  0  0  0
 17 32  1  0  0  0  0
 18 32  1  0  0  0  0
 18 33  2  0  0  0  0
 18 35  1  0  0  0  0
 19 21  2  0  0  0  0
 19 40  1  0  0  0  0
 20 22  2  0  0  0  0
 20 41  1  0  0  0  0
 21 51  1  0  0  0  0
 22 42  1  0  0  0  0
 23 24  2  0  0  0  0
 23 61  1  0  0  0  0
 24 55  1  0  0  0  0
 25 31  1  0  0  0  0
 25 72  1  0  0  0  0
 26 82  1  0  0  0  0
 27 83  1  0  0  0  0
 28 30  2  0  0  0  0
 28 82  1  0  0  0  0
 29 84  1  0  0  0  0
 30 85  1  0  0  0  0
 31 86  1  0  0  0  0
 32 65  2  0  0  0  0
 33 66  1  0  0  0  0
 33 70  1  0  0  0  0
 34 43  1  0  0  0  0
 34 67  1  0  0  0  0
 34 76  2  0  0  0  0
 35 71  1  0  0  0  0
 35 77  2  0  0  0  0
 36 52  1  0  0  0  0
 36 73  1  0  0  0  0
 36 78  2  0  0  0  0
 37 62  1  0  0  0  0
 37 68  1  0  0  0  0
 37 79  2  0  0  0  0
 38 63  1  0  0  0  0
 38 74  1  0  0  0  0
 38 80  2  0  0  0  0
 39 69  1  0  0  0  0
 39 72  1  0  0  0  0
 39 81  2  0  0  0  0
 40 44  1  0  0  0  0
 41 52  1  0  0  0  0
 42 68  1  0  0  0  0
 43 54  1  0  0  0  0
 44 46  1  0  0  0  0
 45 47  1  0  0  0  0
 45 48  1  0  0  0  0
 46 51  1  0  0  0  0
 47 53  1  0  0  0  0
 48 69  1  0  0  0  0
 49 53  1  0  0  0  0
 49 69  1  0  0  0  0
 50 54  1  0  0  0  0
 50 67  1  0  0  0  0
 51 73  1  0  0  0  0
 52 68  1  0  0  0  0
 53 66  1  0  0  0  0
 54 83  1  0  0  0  0
 56 63  1  0  0  0  0
 57 64  1  0  0  0  0
 58 64  1  0  0  0  0
 59 64  1  0  0  0  0
 60 75  1  0  0  0  0
 61 67  1  0  0  0  0
 62 64  1  0  0  0  0
 62 74  1  0  0  0  0
 63 75  1  0  0  0  0
 65 66  1  0  0  0  0
M  CHG  1  75   1
M  ISO  4  39 100  54 101  72 100  83 101
M  END
> <Batch ID>
0030

> <Smiles>
CNC(C)C(=O)NC(C(=O)N1Cc2cc([101O:1][101CH:1]3CC(=O)N(Cc4cc([100NH:0][100C:0](=O)N5CCCC(n6nc(-c7ccc(Oc8ccc(F)cc8F)cc7)c(C(N)=O)c6N)C5)c(Cl)cc4C)C3)ccc2CC1C(=O)NC1CCCc2ccccc21)C(C)(C)C

> <Shape>
0.321

> <Color>
0.083

> <Negative vol penalty>
0.000

$$$$

  -OEChem-04042321363D

 84 93  0     1  0  0  0  0  0999 V2000
  -26.1547  -36.2865   16.9659 C   0  0  0  0  0  0  0  0  0  0  0  0
  -26.8024  -35.1257   16.5554 C   0  0  0  0  0  0  0  0  0  0  0  0
  -23.3021   -9.6337   20.8591 C   0  0  0  0  0  0  0  0  0  0  0  0
  -23.9953  -10.3157   23.0707 C   0  0  0  0  0  0  0  0  0  0  0  0
  -25.8833  -36.4910   18.3181 C   0  0  0  0  0  0  0  0  0  0  0  0
  -27.1800  -34.1692   17.4971 C   0  0  0  0  0  0  0  0  0  0  0  0
  -27.9683  -27.0898   18.2567 C   0  0  0  0  0  0  0  0  0  0  0  0
  -31.3325  -19.6011   22.7303 C   0  0  0  0  0  0  0  0  0  0  0  0
  -22.6361   -8.5369   21.4060 C   0  0  0  0  0  0  0  0  0  0  0  0
  -23.3292   -9.2190   23.6177 C   0  0  0  0  0  0  0  0  0  0  0  0
  -28.9112  -26.1492   18.6690 C   0  0  0  0  0  0  0  0  0  0  0  0
  -19.7132   -7.9371   22.9964 C   0  0  0  0  0  0  0  0  0  0  0  0
  -18.4271   -7.6621   22.5320 C   0  0  0  0  0  0  0  0  0  0  0  0
  -32.0304  -18.3957   22.8033 C   0  0  0  0  0  0  0  0  0  0  0  0
  -28.3197  -26.5732   20.9689 C   0  0  0  0  0  0  0  0  0  0  0  0
  -19.1613   -5.4836   21.7888 C   0  0  0  0  0  0  0  0  0  0  0  0
  -23.9818  -10.5231   21.6914 C   0  0  0  0  0  0  0  0  0  0  0  0
  -24.1450  -12.9412   20.8955 C   0  0  0  0  0  0  0  0  0  0  0  0
  -26.2492  -35.5321   19.2758 C   0  0  0  0  0  0  0  0  0  0  0  0
  -27.2004  -27.7882   19.1996 C   0  0  0  0  0  0  0  0  0  0  0  0
  -26.9145  -34.3617   18.8635 C   0  0  0  0  0  0  0  0  0  0  0  0
  -27.3660  -27.5203   20.5659 C   0  0  0  0  0  0  0  0  0  0  0  0
  -30.1336  -19.6711   22.0207 C   0  0  0  0  0  0  0  0  0  0  0  0
  -30.3307  -17.3301   21.4569 C   0  0  0  0  0  0  0  0  0  0  0  0
  -22.6496   -8.3296   22.7853 C   0  0  0  0  0  0  0  0  0  0  0  0
  -29.0891  -25.8928   20.0254 C   0  0  0  0  0  0  0  0  0  0  0  0
  -20.7235   -6.9854   22.8570 C   0  0  0  0  0  0  0  0  0  0  0  0
  -18.1511   -6.4353   21.9282 C   0  0  0  0  0  0  0  0  0  0  0  0
  -20.4475   -5.7586   22.2532 C   0  0  0  0  0  0  0  0  0  0  0  0
  -31.5296  -17.2602   22.1666 C   0  0  0  0  0  0  0  0  0  0  0  0
  -29.6328  -18.5356   21.3840 C   0  0  0  0  0  0  0  0  0  0  0  0
  -24.6704  -11.6559   21.1270 C   0  0  0  0  0  0  0  0  0  0  0  0
  -25.1903  -13.6466   20.3512 C   0  0  0  0  0  0  0  0  0  0  0  0
  -22.8296  -13.4520   21.1497 C   0  0  0  0  0  0  0  0  0  0  0  0
  -26.8697  -30.8464   20.0009 C   0  0  0  0  0  0  0  0  0  0  0  0
  -24.5154  -29.6883   21.9085 C   0  0  0  0  0  0  0  0  0  0  0  0
  -23.2108  -27.0366   23.6153 C   0  0  0  0  0  0  0  0  0  0  0  0
  -30.5605  -15.1159   20.2777 C   0  0  0  0  0  0  0  0  0  0  0  0
  -25.9769  -35.8190   20.7312 C   0  0  0  0  0  0  0  0  0  0  0  0
  -26.1687  -28.7804   18.7374 C   0  0  0  0  0  0  0  0  0  0  0  0
  -26.5524  -28.2284   21.6171 C   0  0  0  0  0  0  0  0  0  0  0  0
  -26.0752  -34.5848   21.6241 C   0  0  0  0  0  0  0  0  0  0  0  0
  -29.6885  -12.0758   18.6422 C   0  0  0  0  0  0  0  0  0  0  0  0
  -27.3373  -33.7914   21.3011 C   0  0  0  0  0  0  0  0  0  0  0  0
  -28.2620  -11.8013   19.1238 C   0  0  0  0  0  0  0  0  0  0  0  0
  -30.5509  -12.6889   19.7441 C   0  0  0  0  0  0  0  0  0  0  0  0
  -28.5592  -13.6102   20.8635 C   0  0  0  0  0  0  0  0  0  0  0  0
  -28.6573  -22.8423   20.5679 C   0  0  0  0  0  0  0  0  0  0  0  0
  -30.7262  -22.5626   20.6315 C   0  0  0  0  0  0  0  0  0  0  0  0
  -27.3177  -33.2893   19.8523 C   0  0  1  0  0  0  0  0  0  0  0  0
  -25.8039  -29.8051   19.8071 C   0  0  1  0  0  0  0  0  0  0  0  0
  -27.6345  -13.0524   19.7692 C   0  0  2  0  0  0  0  0  0  0  0  0
  -29.8365  -23.6271   19.9661 C   0  0  0  0  0  0  0  0  0  1  0  0
  -21.2985  -26.4062   25.1130 C   0  0  0  0  0  0  0  0  0  0  0  0
  -25.8730  -31.1158   24.2386 C   0  0  0  0  0  0  0  0  0  0  0  0
  -24.5161  -29.7070   25.8013 C   0  0  0  0  0  0  0  0  0  0  0  0
  -23.3771  -31.2740   24.2297 C   0  0  0  0  0  0  0  0  0  0  0  0
  -22.2128  -25.0246   21.6879 C   0  0  0  0  0  0  0  0  0  0  0  0
  -29.4175  -20.9886   21.9726 C   0  0  0  0  0  0  0  0  0  0  0  0
  -24.4450  -29.1688   23.3242 C   0  0  1  0  0  0  0  0  0  0  0  0
  -21.8020  -26.4748   23.6796 C   0  0  2  0  0  0  0  0  0  0  0  0
  -24.5696  -30.3043   24.3790 C   0  0  0  0  0  0  0  0  0  0  0  0
  -25.9501  -11.5481   20.7597 N   0  0  0  0  0  0  0  0  0  0  0  0
  -26.2375  -12.7748   20.2918 N   0  0  0  0  0  0  0  0  0  0  0  0
  -25.5609  -29.1942   21.1155 N   0  0  0  0  0  0  0  0  0  0  0  0
  -29.8953  -13.8719   20.3057 N   0  0  0  0  0  0  0  0  0  0  0  0
  -25.3067  -14.9214   19.9224 N   0  0  0  0  0  0  0  0  0  0  0  0
  -21.8764  -12.5924   21.7127 N   0  0  0  0  0  0  0  0  0  0  0  0
  -29.8259  -16.1747   20.8105 N   0  0  0  0  0  0  0  0  0  0  0  0
  -26.4529  -32.1355   19.7289 N   0  0  0  0  0  0  0  0  0  0  0  0
  -23.2079  -28.4010   23.4161 N   0  0  0  0  0  0  0  0  0  0  0  0
  -29.5504  -21.6733   20.6681 N   0  3  0  0  0  0  0  0  0  0  0  0
  -21.7653  -25.1013   23.1024 N   0  3  0  0  0  0  0  0  0  0  0  0
  -22.5042  -14.6308   20.8703 O   0  0  0  0  0  0  0  0  0  0  0  0
  -27.9870  -30.5056   20.3714 O   0  0  0  0  0  0  0  0  0  0  0  0
  -23.6697  -30.4971   21.5183 O   0  0  0  0  0  0  0  0  0  0  0  0
  -24.2135  -26.3358   23.7338 O   0  0  0  0  0  0  0  0  0  0  0  0
  -31.6872  -15.2384   19.7904 O   0  0  0  0  0  0  0  0  0  0  0  0
  -21.9997   -7.2596   23.3194 O   0  0  0  0  0  0  0  0  0  0  0  0
  -30.0091  -24.9756   20.4305 O   0  0  0  0  0  0  0  0  0  1  0  0
  -16.9155   -6.1708   21.4836 F   0  0  0  0  0  0  0  0  0  0  0  0
  -21.4136   -4.8399   22.1175 F   0  0  0  0  0  0  0  0  0  0  0  0
  -32.4335  -15.7913   22.2836 Cl  0  0  0  0  0  0  0  0  0  0  0  0
  -28.1401  -18.6352   20.5061 Cl  0  0  0  0  0  0  0  0  0  0  0  0
  1  2  1  0  0  0  0
  1  5  2  0  0  0  0
  2  6  2  0  0  0  0
  3  9  2  0  0  0  0
  3 17  1  0  0  0  0
  4 10  1  0  0  0  0
  4 17  2  0  0  0  0
  5 19  1  0  0  0  0
  6 21  1  0  0  0  0
  7 11  2  0  0  0  0
  7 20  1  0  0  0  0
  8 14  2  0  0  0  0
  8 23  1  0  0  0  0
  9 25  1  0  0  0  0
 10 25  2  0  0  0  0
 11 26  1  0  0  0  0
 12 13  2  0  0  0  0
 12 27  1  0  0  0  0
 13 28  1  0  0  0  0
 14 30  1  0  0  0  0
 15 22  1  0  0  0  0
 15 26  2  0  0  0  0
 16 28  2  0  0  0  0
 16 29  1  0  0  0  0
 17 32  1  0  0  0  0
 18 32  1  0  0  0  0
 18 33  2  0  0  0  0
 18 34  1  0  0  0  0
 19 21  2  0  0  0  0
 19 39  1  0  0  0  0
 20 22  2  0  0  0  0
 20 40  1  0  0  0  0
 21 50  1  0  0  0  0
 22 41  1  0  0  0  0
 23 31  2  0  0  0  0
 23 59  1  0  0  0  0
 24 30  2  0  0  0  0
 24 31  1  0  0  0  0
 24 69  1  0  0  0  0
 25 79  1  0  0  0  0
 26 80  1  0  0  0  0
 27 29  2  0  0  0  0
 27 79  1  0  0  0  0
 28 81  1  0  0  0  0
 29 82  1  0  0  0  0
 30 83  1  0  0  0  0
 31 84  1  0  0  0  0
 32 63  2  0  0  0  0
 33 64  1  0  0  0  0
 33 67  1  0  0  0  0
 34 68  1  0  0  0  0
 34 74  2  0  0  0  0
 35 51  1  0  0  0  0
 35 70  1  0  0  0  0
 35 75  2  0  0  0  0
 36 60  1  0  0  0  0
 36 65  1  0  0  0  0
 36 76  2  0  0  0  0
 37 61  1  0  0  0  0
 37 71  1  0  0  0  0
 37 77  2  0  0  0  0
 38 66  1  0  0  0  0
 38 69  1  0  0  0  0
 38 78  2  0  0  0  0
 39 42  1  0  0  0  0
 40 51  1  0  0  0  0
 41 65  1  0  0  0  0
 42 44  1  0  0  0  0
 43 45  1  0  0  0  0
 43 46  1  0  0  0  0
 44 50  1  0  0  0  0
 45 52  1  0  0  0  0
 46 66  1  0  0  0  0
 47 52  1  0  0  0  0
 47 66  1  0  0  0  0
 48 53  1  0  0  0  0
 48 72  1  0  0  0  0
 49 53  1  0  0  0  0
 49 72  1  0  0  0  0
 50 70  1  0  0  0  0
 51 65  1  0  0  0  0
 52 64  1  0  0  0  0
 53 80  1  0  0  0  0
 54 61  1  0  0  0  0
 55 62  1  0  0  0  0
 56 62  1  0  0  0  0
 57 62  1  0  0  0  0
 58 73  1  0  0  0  0
 59 72  1  0  0  0  0
 60 62  1  0  0  0  0
 60 71  1  0  0  0  0
 61 73  1  0  0  0  0
 63 64  1  0  0  0  0
M  CHG  2  72   1  73   1
M  ISO  4  38 100  53 101  69 100  80 101
M  END
> <Batch ID>
0030

> <Smiles>
CNC(C)C(=O)NC(C(=O)N1Cc2cc([101O:1][101CH:1]3CN(Cc4ccc(Cl)c([100NH:0][100C:0](=O)N5CCCC(n6nc(-c7ccc(Oc8ccc(F)cc8F)cc7)c(C(N)=O)c6N)C5)c4Cl)C3)ccc2CC1C(=O)NC1CCCc2ccccc21)C(C)(C)C

> <Shape>
0.310

> <Color>
0.167

> <Negative vol penalty>
0.000

$$$$

  -OEChem-04042321363D

 85 94  0     1  0  0  0  0  0999 V2000
  -42.6346  -26.2718   17.0896 C   0  0  0  0  0  0  0  0  0  0  0  0
  -41.7589  -25.5716   17.9134 C   0  0  0  0  0  0  0  0  0  0  0  0
  -23.0750   -9.8702   19.9380 C   0  0  0  0  0  0  0  0  0  0  0  0
  -23.8361   -9.8717   22.2309 C   0  0  0  0  0  0  0  0  0  0  0  0
  -42.1577  -27.3083   16.2883 C   0  0  0  0  0  0  0  0  0  0  0  0
  -40.4060  -25.9084   17.9370 C   0  0  0  0  0  0  0  0  0  0  0  0
  -37.3892  -21.8441   17.7774 C   0  0  0  0  0  0  0  0  0  0  0  0
  -31.8925  -18.3366   24.2017 C   0  0  0  0  0  0  0  0  0  0  0  0
  -30.5051  -18.3341   24.0583 C   0  0  0  0  0  0  0  0  0  0  0  0
  -22.3309   -8.7167   20.1857 C   0  0  0  0  0  0  0  0  0  0  0  0
  -23.0920   -8.7182   22.4787 C   0  0  0  0  0  0  0  0  0  0  0  0
  -37.2240  -21.1269   18.9615 C   0  0  0  0  0  0  0  0  0  0  0  0
  -19.8640   -7.9199   23.0812 C   0  0  0  0  0  0  0  0  0  0  0  0
  -19.1077   -7.8776   24.2524 C   0  0  0  0  0  0  0  0  0  0  0  0
  -35.1070  -22.2250   19.3241 C   0  0  0  0  0  0  0  0  0  0  0  0
  -32.0671  -16.5885   22.5430 C   0  0  0  0  0  0  0  0  0  0  0  0
  -20.3489   -5.9381   24.9838 C   0  0  0  0  0  0  0  0  0  0  0  0
  -23.8276  -10.4477   20.9606 C   0  0  0  0  0  0  0  0  0  0  0  0
  -24.1701  -12.9730   20.8461 C   0  0  0  0  0  0  0  0  0  0  0  0
  -40.7965  -27.6516   16.2949 C   0  0  0  0  0  0  0  0  0  0  0  0
  -36.4180  -22.7667   17.3627 C   0  0  0  0  0  0  0  0  0  0  0  0
  -39.9107  -26.9514   17.1360 C   0  0  0  0  0  0  0  0  0  0  0  0
  -35.2610  -22.9507   18.1331 C   0  0  0  0  0  0  0  0  0  0  0  0
  -32.6736  -17.4638   23.4440 C   0  0  0  0  0  0  0  0  0  0  0  0
  -29.8986  -17.4588   23.1574 C   0  0  0  0  0  0  0  0  0  0  0  0
  -30.6796  -16.5860   22.3997 C   0  0  0  0  0  0  0  0  0  0  0  0
  -22.3394   -8.1407   21.4561 C   0  0  0  0  0  0  0  0  0  0  0  0
  -36.0841  -21.3194   19.7366 C   0  0  0  0  0  0  0  0  0  0  0  0
  -20.8627   -6.9713   22.8612 C   0  0  0  0  0  0  0  0  0  0  0  0
  -19.3502   -6.8867   25.2037 C   0  0  0  0  0  0  0  0  0  0  0  0
  -21.1052   -5.9805   23.8125 C   0  0  0  0  0  0  0  0  0  0  0  0
  -24.5969  -11.6389   20.7051 C   0  0  0  0  0  0  0  0  0  0  0  0
  -25.2623  -13.7230   20.4839 C   0  0  0  0  0  0  0  0  0  0  0  0
  -36.2540  -18.6186   23.0639 C   0  0  0  0  0  0  0  0  0  0  0  0
  -36.8449  -18.7846   24.2531 C   0  0  0  0  0  0  0  0  0  0  0  0
  -22.9000  -13.4882   21.2669 C   0  0  0  0  0  0  0  0  0  0  0  0
  -36.3799  -25.9023   16.8428 C   0  0  0  0  0  0  0  0  0  0  0  0
  -33.3815  -25.2936   15.7652 C   0  0  0  0  0  0  0  0  0  0  0  0
  -30.6446  -23.2555   15.8107 C   0  0  0  0  0  0  0  0  0  0  0  0
  -30.7289  -14.7666   20.6580 C   0  0  0  0  0  0  0  0  0  0  0  0
  -40.3360  -28.8105   15.4467 C   0  0  0  0  0  0  0  0  0  0  0  0
  -36.5986  -23.5128   16.0692 C   0  0  0  0  0  0  0  0  0  0  0  0
  -34.1792  -23.9145   17.7215 C   0  0  0  0  0  0  0  0  0  0  0  0
  -36.9546  -18.5994   21.7412 C   0  0  0  0  0  0  0  0  0  0  0  0
  -38.8229  -28.8583   15.2504 C   0  0  0  0  0  0  0  0  0  0  0  0
  -29.6124  -12.3585   18.2848 C   0  0  0  0  0  0  0  0  0  0  0  0
  -38.1053  -28.6475   16.5799 C   0  0  0  0  0  0  0  0  0  0  0  0
  -28.1730  -12.0664   18.7145 C   0  0  0  0  0  0  0  0  0  0  0  0
  -30.5283  -12.5843   19.4865 C   0  0  0  0  0  0  0  0  0  0  0  0
  -28.6223  -13.3062   20.8704 C   0  0  0  0  0  0  0  0  0  0  0  0
  -34.5674  -18.7096   21.4416 C   0  0  0  0  0  0  0  0  0  0  0  0
  -38.4319  -27.2708   17.1709 C   0  0  1  0  0  0  0  0  0  0  0  0
  -35.7881  -24.8037   16.0059 C   0  0  1  0  0  0  0  0  0  0  0  0
  -27.6488  -13.1359   19.6928 C   0  0  2  0  0  0  0  0  0  0  0  0
  -35.8804  -19.1988   20.8471 C   0  0  1  0  0  0  0  0  0  1  0  0
  -28.4102  -17.4773   23.0253 C   0  0  0  0  0  0  0  0  0  0  0  0
  -28.3337  -23.0389   14.8566 C   0  0  0  0  0  0  0  0  0  0  0  0
  -32.3886  -27.4448   17.6878 C   0  0  0  0  0  0  0  0  0  0  0  0
  -30.0735  -26.5371   17.3977 C   0  0  0  0  0  0  0  0  0  0  0  0
  -31.2987  -27.4737   15.4371 C   0  0  0  0  0  0  0  0  0  0  0  0
  -31.3068  -20.6940   14.4843 C   0  0  0  0  0  0  0  0  0  0  0  0
  -34.1659  -17.4674   23.5987 C   0  0  0  0  0  0  0  0  0  0  0  0
  -32.0095  -25.2436   16.3929 C   0  0  1  0  0  0  0  0  0  0  0  0
  -29.8011  -22.6764   14.6892 C   0  0  2  0  0  0  0  0  0  0  0  0
  -31.4637  -26.6580   16.7379 C   0  0  0  0  0  0  0  0  0  0  0  0
  -25.8615  -11.5437   20.2859 N   0  0  0  0  0  0  0  0  0  0  0  0
  -26.2387  -12.8274   20.1603 N   0  0  0  0  0  0  0  0  0  0  0  0
  -34.4049  -24.6251   16.4520 N   0  0  0  0  0  0  0  0  0  0  0  0
  -29.9701  -13.6133   20.3665 N   0  0  0  0  0  0  0  0  0  0  0  0
  -25.4730  -15.0546   20.4138 N   0  0  0  0  0  0  0  0  0  0  0  0
  -21.8880  -12.5786   21.6027 N   0  0  0  0  0  0  0  0  0  0  0  0
  -30.0822  -15.6900   21.4788 N   0  0  0  0  0  0  0  0  0  0  0  0
  -37.6746  -26.2385   16.4961 N   0  0  0  0  0  0  0  0  0  0  0  0
  -31.1673  -24.4860   15.4735 N   0  0  0  0  0  0  0  0  0  0  0  0
  -34.8214  -18.6468   22.9455 N   0  3  1  0  0  0  0  0  0  0  0  0
  -29.9187  -21.1909   14.6667 N   0  3  0  0  0  0  0  0  0  0  0  0
  -22.6642  -14.7188   21.3272 O   0  0  0  0  0  0  0  0  0  0  0  0
  -35.7109  -26.4086   17.7361 O   0  0  0  0  0  0  0  0  0  0  0  0
  -33.5380  -25.8974   14.7010 O   0  0  0  0  0  0  0  0  0  0  0  0
  -30.8189  -22.6760   16.8804 O   0  0  0  0  0  0  0  0  0  0  0  0
  -31.8578  -14.9361   20.1901 O   0  0  0  0  0  0  0  0  0  0  0  0
  -21.6133   -7.0152   21.6982 O   0  0  0  0  0  0  0  0  0  0  0  0
  -35.9207  -20.6211   20.8931 O   0  0  0  0  0  0  0  0  0  1  0  0
  -18.6248   -6.8470   26.3291 F   0  0  0  0  0  0  0  0  0  0  0  0
  -22.0642   -5.0672   23.6072 F   0  0  0  0  0  0  0  0  0  0  0  0
  1  2  1  0  0  0  0
  1  5  2  0  0  0  0
  2  6  2  0  0  0  0
  3 10  2  0  0  0  0
  3 18  1  0  0  0  0
  4 11  1  0  0  0  0
  4 18  2  0  0  0  0
  5 20  1  0  0  0  0
  6 22  1  0  0  0  0
  7 12  2  0  0  0  0
  7 21  1  0  0  0  0
  8  9  2  0  0  0  0
  8 24  1  0  0  0  0
  9 25  1  0  0  0  0
 10 27  1  0  0  0  0
 11 27  2  0  0  0  0
 12 28  1  0  0  0  0
 13 14  2  0  0  0  0
 13 29  1  0  0  0  0
 14 30  1  0  0  0  0
 15 23  1  0  0  0  0
 15 28  2  0  0  0  0
 16 24  2  0  0  0  0
 16 26  1  0  0  0  0
 17 30  2  0  0  0  0
 17 31  1  0  0  0  0
 18 32  1  0  0  0  0
 19 32  1  0  0  0  0
 19 33  2  0  0  0  0
 19 36  1  0  0  0  0
 20 22  2  0  0  0  0
 20 41  1  0  0  0  0
 21 23  2  0  0  0  0
 21 42  1  0  0  0  0
 22 52  1  0  0  0  0
 23 43  1  0  0  0  0
 24 62  1  0  0  0  0
 25 26  2  0  0  0  0
 25 56  1  0  0  0  0
 26 72  1  0  0  0  0
 27 82  1  0  0  0  0
 28 83  1  0  0  0  0
 29 31  2  0  0  0  0
 29 82  1  0  0  0  0
 30 84  1  0  0  0  0
 31 85  1  0  0  0  0
 32 66  2  0  0  0  0
 33 67  1  0  0  0  0
 33 70  1  0  0  0  0
 34 35  2  0  0  0  0
 34 44  1  0  0  0  0
 34 75  1  0  0  0  0
 36 71  1  0  0  0  0
 36 77  2  0  0  0  0
 37 53  1  0  0  0  0
 37 73  1  0  0  0  0
 37 78  2  0  0  0  0
 38 63  1  0  0  0  0
 38 68  1  0  0  0  0
 38 79  2  0  0  0  0
 39 64  1  0  0  0  0
 39 74  1  0  0  0  0
 39 80  2  0  0  0  0
 40 69  1  0  0  0  0
 40 72  1  0  0  0  0
 40 81  2  0  0  0  0
 41 45  1  0  0  0  0
 42 53  1  0  0  0  0
 43 68  1  0  0  0  0
 44 55  1  0  0  0  0
 45 47  1  0  0  0  0
 46 48  1  0  0  0  0
 46 49  1  0  0  0  0
 47 52  1  0  0  0  0
 48 54  1  0  0  0  0
 49 69  1  0  0  0  0
 50 54  1  0  0  0  0
 50 69  1  0  0  0  0
 51 55  1  0  0  0  0
 51 75  1  0  0  0  0
 52 73  1  0  0  0  0
 53 68  1  0  0  0  0
 54 67  1  0  0  0  0
 55 83  1  0  0  0  0
 57 64  1  0  0  0  0
 58 65  1  0  0  0  0
 59 65  1  0  0  0  0
 60 65  1  0  0  0  0
 61 76  1  0  0  0  0
 62 75  1  0  0  0  0
 63 65  1  0  0  0  0
 63 74  1  0  0  0  0
 64 76  1  0  0  0  0
 66 67  1  0  0  0  0
M  CHG  2  75   1  76   1
M  ISO  4  40 100  55 101  72 100  83 101
M  END
> <Batch ID>
0030

> <Smiles>
C=C1C[101CH:1]([101O:1]c2ccc3c(c2)CN(C(=O)C(NC(=O)C(C)NC)C(C)(C)C)C(C(=O)NC2CCCc4ccccc42)C3)CN1Cc1ccc(C)c([100NH:0][100C:0](=O)N2CCCC(n3nc(-c4ccc(Oc5ccc(F)cc5F)cc4)c(C(N)=O)c3N)C2)c1

> <Shape>
0.179

> <Color>
0.188

> <Negative vol penalty>
0.000

$$$$

  -OEChem-04042321363D

 85 93  0     1  0  0  0  0  0999 V2000
  -16.6867  -30.0828   23.9428 C   0  0  0  0  0  0  0  0  0  0  0  0
  -17.8407  -30.6064   24.5168 C   0  0  0  0  0  0  0  0  0  0  0  0
  -29.9069  -13.0514   20.7303 C   0  0  0  0  0  0  0  0  0  0  0  0
  -28.1606  -13.5273   19.1299 C   0  0  0  0  0  0  0  0  0  0  0  0
  -16.7711  -28.9844   23.0882 C   0  0  0  0  0  0  0  0  0  0  0  0
  -19.0798  -30.0311   24.2374 C   0  0  0  0  0  0  0  0  0  0  0  0
  -25.9853  -31.7610   23.4387 C   0  0  0  0  0  0  0  0  0  0  0  0
  -29.9927  -11.7454   20.2483 C   0  0  0  0  0  0  0  0  0  0  0  0
  -28.2465  -12.2212   18.6478 C   0  0  0  0  0  0  0  0  0  0  0  0
  -27.2478  -31.3963   23.9044 C   0  0  0  0  0  0  0  0  0  0  0  0
  -30.2651  -10.4542   16.5927 C   0  0  0  0  0  0  0  0  0  0  0  0
  -30.2758  -10.2749   15.2095 C   0  0  0  0  0  0  0  0  0  0  0  0
  -27.2812  -29.5511   22.3509 C   0  0  0  0  0  0  0  0  0  0  0  0
  -25.8418  -23.8713   24.1182 C   0  0  0  0  0  0  0  0  0  0  0  0
  -28.2998  -24.3153   22.8756 C   0  0  0  0  0  0  0  0  0  0  0  0
  -28.2680   -8.9403   15.3670 C   0  0  0  0  0  0  0  0  0  0  0  0
  -28.9908  -13.9424   20.1712 C   0  0  0  0  0  0  0  0  0  0  0  0
  -29.6208  -16.4140   20.2173 C   0  0  0  0  0  0  0  0  0  0  0  0
  -18.0129  -28.4014   22.7905 C   0  0  0  0  0  0  0  0  0  0  0  0
  -25.3555  -31.0157   22.4316 C   0  0  0  0  0  0  0  0  0  0  0  0
  -19.1808  -28.9231   23.3790 C   0  0  0  0  0  0  0  0  0  0  0  0
  -26.0118  -29.9099   21.8724 C   0  0  0  0  0  0  0  0  0  0  0  0
  -26.7936  -24.6889   24.7274 C   0  0  0  0  0  0  0  0  0  0  0  0
  -27.3479  -23.4975   22.2664 C   0  0  0  0  0  0  0  0  0  0  0  0
  -26.1190  -23.2755   22.8877 C   0  0  0  0  0  0  0  0  0  0  0  0
  -28.0226  -24.9109   24.1061 C   0  0  0  0  0  0  0  0  0  0  0  0
  -29.1626  -11.3302   19.2070 C   0  0  0  0  0  0  0  0  0  0  0  0
  -27.8947  -30.2895   23.3625 C   0  0  0  0  0  0  0  0  0  0  0  0
  -29.2560   -9.8764   17.3632 C   0  0  0  0  0  0  0  0  0  0  0  0
  -29.2772   -9.5180   14.5966 C   0  0  0  0  0  0  0  0  0  0  0  0
  -28.2574   -9.1195   16.7503 C   0  0  0  0  0  0  0  0  0  0  0  0
  -28.9012  -15.2916   20.6691 C   0  0  0  0  0  0  0  0  0  0  0  0
  -29.1774  -17.4467   21.0069 C   0  0  0  0  0  0  0  0  0  0  0  0
  -30.6023  -16.5141   19.1769 C   0  0  0  0  0  0  0  0  0  0  0  0
  -22.6731  -29.3212   22.2397 C   0  0  0  0  0  0  0  0  0  0  0  0
  -23.4932  -29.1058   19.1086 C   0  0  0  0  0  0  0  0  0  0  0  0
  -25.9524  -29.2045   16.7444 C   0  0  0  0  0  0  0  0  0  0  0  0
  -25.0336  -20.2472   23.4829 C   0  0  0  0  0  0  0  0  0  0  0  0
  -18.0490  -27.1859   21.8983 C   0  0  0  0  0  0  0  0  0  0  0  0
  -24.0050  -31.4380   21.9215 C   0  0  0  0  0  0  0  0  0  0  0  0
  -25.3874  -29.0886   20.7751 C   0  0  0  0  0  0  0  0  0  0  0  0
  -19.4410  -26.8680   21.3582 C   0  0  0  0  0  0  0  0  0  0  0  0
  -26.3339  -17.4062   25.1901 C   0  0  0  0  0  0  0  0  0  0  0  0
  -20.4757  -26.9343   22.4770 C   0  0  0  0  0  0  0  0  0  0  0  0
  -27.1715  -16.6926   24.1274 C   0  0  0  0  0  0  0  0  0  0  0  0
  -25.0764  -18.0321   24.5910 C   0  0  0  0  0  0  0  0  0  0  0  0
  -26.1542  -18.2152   22.3822 C   0  0  0  0  0  0  0  0  0  0  0  0
  -20.5460  -28.3421   23.0808 C   0  0  1  0  0  0  0  0  0  0  0  0
  -23.2375  -30.3024   21.2516 C   0  0  1  0  0  0  0  0  0  0  0  0
  -27.4613  -17.6159   22.9287 C   0  0  2  0  0  0  0  0  0  0  0  0
  -26.4742  -25.3165   26.0444 C   0  0  0  0  0  0  0  0  0  0  0  0
  -27.6674  -22.8699   20.9494 C   0  0  0  0  0  0  0  0  0  0  0  0
  -26.3219  -28.9554   14.2748 C   0  0  0  0  0  0  0  0  0  0  0  0
  -30.2621  -30.5660   25.8642 C   0  0  0  0  0  0  0  0  0  0  0  0
  -23.2306  -26.0778   19.3772 C   0  0  0  0  0  0  0  0  0  0  0  0
  -24.5017  -25.8473   17.2326 C   0  0  0  0  0  0  0  0  0  0  0  0
  -22.3009  -27.0215   17.2560 C   0  0  0  0  0  0  0  0  0  0  0  0
  -26.9670  -31.9739   16.4994 C   0  0  0  0  0  0  0  0  0  0  0  0
  -25.0848  -22.4034   22.2550 C   0  0  0  0  0  0  0  0  0  0  0  0
  -29.0615  -25.7869   24.7419 C   0  0  0  0  0  0  0  0  0  0  0  0
  -29.7216  -28.1272   25.3132 C   0  0  0  0  0  0  0  0  0  0  0  0
  -24.3179  -28.1482   18.2829 C   0  0  1  0  0  0  0  0  0  0  0  0
  -26.0398  -29.9256   15.4114 C   0  0  2  0  0  0  0  0  0  0  0  0
  -29.2944  -29.5878   25.2112 C   0  0  2  0  0  0  0  0  0  1  0  0
  -23.5990  -26.7878   18.0592 C   0  0  0  0  0  0  0  0  0  0  0  0
  -28.0643  -15.5836   21.6683 N   0  0  0  0  0  0  0  0  0  0  0  0
  -28.2554  -16.9012   21.8509 N   0  0  0  0  0  0  0  0  0  0  0  0
  -24.0631  -29.5379   20.3146 N   0  0  0  0  0  0  0  0  0  0  0  0
  -25.4206  -18.8972   23.4600 N   0  0  0  0  0  0  0  0  0  0  0  0
  -29.4903  -18.7590   21.0546 N   0  0  0  0  0  0  0  0  0  0  0  0
  -30.9409  -15.3559   18.4641 N   0  0  0  0  0  0  0  0  0  0  0  0
  -21.2947  -29.2269   22.2142 N   0  0  0  0  0  0  0  0  0  0  0  0
  -24.6544  -28.8557   17.0522 N   0  0  0  0  0  0  0  0  0  0  0  0
  -25.4052  -20.9984   22.3746 N   0  0  0  0  0  0  0  0  0  0  0  0
  -27.1292  -30.9421   15.4429 N   0  3  0  0  0  0  0  0  0  0  0  0
  -28.7429  -27.2370   24.6405 N   0  3  0  0  0  0  0  0  0  0  0  0
  -31.1743  -17.5954   18.8989 O   0  0  0  0  0  0  0  0  0  0  0  0
  -23.4321  -28.6948   22.9699 O   0  0  0  0  0  0  0  0  0  0  0  0
  -22.3873  -29.4632   18.6953 O   0  0  0  0  0  0  0  0  0  0  0  0
  -26.9375  -28.9705   17.4410 O   0  0  0  0  0  0  0  0  0  0  0  0
  -24.4082  -20.7475   24.4239 O   0  0  0  0  0  0  0  0  0  0  0  0
  -29.2463  -10.0559   18.7362 O   0  0  0  0  0  0  0  0  0  0  0  0
  -29.1268  -29.9310   23.8157 O   0  0  0  0  0  0  0  0  0  1  0  0
  -29.2867   -9.3472   13.2681 F   0  0  0  0  0  0  0  0  0  0  0  0
  -27.2847   -8.5630   17.4850 F   0  0  0  0  0  0  0  0  0  0  0  0
  1  2  1  0  0  0  0
  1  5  2  0  0  0  0
  2  6  2  0  0  0  0
  3  8  2  0  0  0  0
  3 17  1  0  0  0  0
  4  9  1  0  0  0  0
  4 17  2  0  0  0  0
  5 19  1  0  0  0  0
  6 21  1  0  0  0  0
  7 10  2  0  0  0  0
  7 20  1  0  0  0  0
  8 27  1  0  0  0  0
  9 27  2  0  0  0  0
 10 28  1  0  0  0  0
 11 12  2  0  0  0  0
 11 29  1  0  0  0  0
 12 30  1  0  0  0  0
 13 22  1  0  0  0  0
 13 28  2  0  0  0  0
 14 23  1  0  0  0  0
 14 25  2  0  0  0  0
 15 24  2  0  0  0  0
 15 26  1  0  0  0  0
 16 30  2  0  0  0  0
 16 31  1  0  0  0  0
 17 32  1  0  0  0  0
 18 32  1  0  0  0  0
 18 33  2  0  0  0  0
 18 34  1  0  0  0  0
 19 21  2  0  0  0  0
 19 39  1  0  0  0  0
 20 22  2  0  0  0  0
 20 40  1  0  0  0  0
 21 48  1  0  0  0  0
 22 41  1  0  0  0  0
 23 26  2  0  0  0  0
 23 51  1  0  0  0  0
 24 25  1  0  0  0  0
 24 52  1  0  0  0  0
 25 59  1  0  0  0  0
 26 60  1  0  0  0  0
 27 82  1  0  0  0  0
 28 83  1  0  0  0  0
 29 31  2  0  0  0  0
 29 82  1  0  0  0  0
 30 84  1  0  0  0  0
 31 85  1  0  0  0  0
 32 66  2  0  0  0  0
 33 67  1  0  0  0  0
 33 70  1  0  0  0  0
 34 71  1  0  0  0  0
 34 77  2  0  0  0  0
 35 49  1  0  0  0  0
 35 72  1  0  0  0  0
 35 78  2  0  0  0  0
 36 62  1  0  0  0  0
 36 68  1  0  0  0  0
 36 79  2  0  0  0  0
 37 63  1  0  0  0  0
 37 73  1  0  0  0  0
 37 80  2  0  0  0  0
 38 69  1  0  0  0  0
 38 74  1  0  0  0  0
 38 81  2  0  0  0  0
 39 42  1  0  0  0  0
 40 49  1  0  0  0  0
 41 68  1  0  0  0  0
 42 44  1  0  0  0  0
 43 45  1  0  0  0  0
 43 46  1  0  0  0  0
 44 48  1  0  0  0  0
 45 50  1  0  0  0  0
 46 69  1  0  0  0  0
 47 50  1  0  0  0  0
 47 69  1  0  0  0  0
 48 72  1  0  0  0  0
 49 68  1  0  0  0  0
 50 67  1  0  0  0  0
 53 63  1  0  0  0  0
 54 64  1  0  0  0  0
 55 65  1  0  0  0  0
 56 65  1  0  0  0  0
 57 65  1  0  0  0  0
 58 75  1  0  0  0  0
 59 74  1  0  0  0  0
 60 76  1  0  0  0  0
 61 64  1  0  0  0  0
 61 76  1  0  0  0  0
 62 65  1  0  0  0  0
 62 73  1  0  0  0  0
 63 75  1  0  0  0  0
 64 83  1  0  0  0  0
 66 67  1  0  0  0  0
M  CHG  2  75   1  76   1
M  ISO  4  38 100  64 101  74 100  83 101
M  END
> <Batch ID>
0030

> <Smiles>
CNC(C)C(=O)NC(C(=O)N1Cc2cc([101O:1][101CH:1](C)CNCc3cc(C)c(C[100NH:0][100C:0](=O)N4CCCC(n5nc(-c6ccc(Oc7ccc(F)cc7F)cc6)c(C(N)=O)c5N)C4)cc3C)ccc2CC1C(=O)NC1CCCc2ccccc21)C(C)(C)C

> <Shape>
0.221

> <Color>
0.115

> <Negative vol penalty>
0.000

$$$$

  -OEChem-04042321363D

 85 94  0     1  0  0  0  0  0999 V2000
  -30.6002  -34.3710   23.0265 C   0  0  0  0  0  0  0  0  0  0  0  0
  -30.7617  -32.9894   23.0541 C   0  0  0  0  0  0  0  0  0  0  0  0
  -32.1621  -18.1554   23.3527 C   0  0  0  0  0  0  0  0  0  0  0  0
  -23.2327   -9.7174   20.0147 C   0  0  0  0  0  0  0  0  0  0  0  0
  -23.8752   -9.9398   22.3330 C   0  0  0  0  0  0  0  0  0  0  0  0
  -29.3196  -34.9222   23.0304 C   0  0  0  0  0  0  0  0  0  0  0  0
  -29.6425  -32.1583   23.0865 C   0  0  0  0  0  0  0  0  0  0  0  0
  -29.0567  -26.6672   20.4388 C   0  0  0  0  0  0  0  0  0  0  0  0
  -31.2939  -19.0311   24.0048 C   0  0  0  0  0  0  0  0  0  0  0  0
  -31.6541  -17.1786   22.4962 C   0  0  0  0  0  0  0  0  0  0  0  0
  -22.5490   -8.5398   20.3171 C   0  0  0  0  0  0  0  0  0  0  0  0
  -23.1915   -8.7623   22.6355 C   0  0  0  0  0  0  0  0  0  0  0  0
  -29.1788  -25.3695   20.9335 C   0  0  0  0  0  0  0  0  0  0  0  0
  -19.9919   -7.8038   23.1498 C   0  0  0  0  0  0  0  0  0  0  0  0
  -19.1812   -7.8002   24.2849 C   0  0  0  0  0  0  0  0  0  0  0  0
  -26.7891  -25.2709   21.2478 C   0  0  0  0  0  0  0  0  0  0  0  0
  -20.5001   -6.0054   25.2211 C   0  0  0  0  0  0  0  0  0  0  0  0
  -23.8959  -10.4174   21.0226 C   0  0  0  0  0  0  0  0  0  0  0  0
  -24.0887  -12.9439   20.7276 C   0  0  0  0  0  0  0  0  0  0  0  0
  -28.1840  -34.0972   23.0531 C   0  0  0  0  0  0  0  0  0  0  0  0
  -27.7989  -27.2816   20.3549 C   0  0  0  0  0  0  0  0  0  0  0  0
  -28.3455  -32.6990   23.0920 C   0  0  0  0  0  0  0  0  0  0  0  0
  -26.6535  -26.5756   20.7492 C   0  0  0  0  0  0  0  0  0  0  0  0
  -29.9178  -18.9299   23.8004 C   0  0  0  0  0  0  0  0  0  0  0  0
  -29.4099  -17.9531   22.9439 C   0  0  0  0  0  0  0  0  0  0  0  0
  -30.2780  -17.0775   22.2918 C   0  0  0  0  0  0  0  0  0  0  0  0
  -22.5283   -8.0623   21.6275 C   0  0  0  0  0  0  0  0  0  0  0  0
  -28.0453  -24.6722   21.3408 C   0  0  0  0  0  0  0  0  0  0  0  0
  -21.0566   -6.9081   23.0503 C   0  0  0  0  0  0  0  0  0  0  0  0
  -19.4354   -6.9011   25.3206 C   0  0  0  0  0  0  0  0  0  0  0  0
  -21.3108   -6.0090   24.0860 C   0  0  0  0  0  0  0  0  0  0  0  0
  -24.6028  -11.6335   20.7107 C   0  0  0  0  0  0  0  0  0  0  0  0
  -25.1499  -13.7339   20.3586 C   0  0  0  0  0  0  0  0  0  0  0  0
  -27.6179  -21.8859   24.3203 C   0  0  0  0  0  0  0  0  0  0  0  0
  -26.4322  -21.5048   24.8100 C   0  0  0  0  0  0  0  0  0  0  0  0
  -22.7698  -13.4058   21.0484 C   0  0  0  0  0  0  0  0  0  0  0  0
  -26.4686  -29.8564   21.6603 C   0  0  0  0  0  0  0  0  0  0  0  0
  -24.0223  -29.1281   19.6584 C   0  0  0  0  0  0  0  0  0  0  0  0
  -22.3842  -26.7595   17.8273 C   0  0  0  0  0  0  0  0  0  0  0  0
  -30.5266  -15.1399   20.7011 C   0  0  0  0  0  0  0  0  0  0  0  0
  -26.8206  -34.7400   23.1040 C   0  0  0  0  0  0  0  0  0  0  0  0
  -27.6812  -28.6722   19.7939 C   0  0  0  0  0  0  0  0  0  0  0  0
  -25.2780  -27.1827   20.6604 C   0  0  0  0  0  0  0  0  0  0  0  0
  -28.1140  -23.2962   24.2458 C   0  0  0  0  0  0  0  0  0  0  0  0
  -25.6825  -33.7823   22.7607 C   0  0  0  0  0  0  0  0  0  0  0  0
  -29.6811  -12.4937   18.4740 C   0  0  0  0  0  0  0  0  0  0  0  0
  -25.8519  -32.4626   23.5067 C   0  0  0  0  0  0  0  0  0  0  0  0
  -28.2423  -12.1418   18.8588 C   0  0  0  0  0  0  0  0  0  0  0  0
  -30.5194  -12.8677   19.6952 C   0  0  0  0  0  0  0  0  0  0  0  0
  -28.5052  -13.5660   20.9299 C   0  0  0  0  0  0  0  0  0  0  0  0
  -29.5448  -21.8201   22.9907 C   0  0  0  0  0  0  0  0  0  0  0  0
  -27.1557  -31.7639   23.1026 C   0  0  1  0  0  0  0  0  0  0  0  0
  -26.4079  -29.3881   20.2339 C   0  0  1  0  0  0  0  0  0  0  0  0
  -27.6048  -13.2453   19.7257 C   0  0  2  0  0  0  0  0  0  0  0  0
  -28.9644  -23.2273   22.9869 C   0  0  1  0  0  0  0  0  0  1  0  0
  -27.9326  -17.8486   22.7276 C   0  0  0  0  0  0  0  0  0  0  0  0
  -20.3964  -26.4567   16.3259 C   0  0  0  0  0  0  0  0  0  0  0  0
  -22.1797  -29.1898   22.0897 C   0  0  0  0  0  0  0  0  0  0  0  0
  -20.4611  -27.9782   20.7308 C   0  0  0  0  0  0  0  0  0  0  0  0
  -21.2282  -30.2468   20.0326 C   0  0  0  0  0  0  0  0  0  0  0  0
  -24.0840  -25.9306   15.5508 C   0  0  0  0  0  0  0  0  0  0  0  0
  -29.0066  -19.8844   24.5141 C   0  0  0  0  0  0  0  0  0  0  0  0
  -22.7823  -28.2723   19.7528 C   0  0  1  0  0  0  0  0  0  0  0  0
  -21.8847  -26.7619   16.3938 C   0  0  2  0  0  0  0  0  0  0  0  0
  -21.6888  -28.9108   20.6551 C   0  0  0  0  0  0  0  0  0  0  0  0
  -25.8905  -11.5894   20.3585 N   0  0  0  0  0  0  0  0  0  0  0  0
  -26.1944  -12.8819   20.1507 N   0  0  0  0  0  0  0  0  0  0  0  0
  -25.2154  -28.5472   20.1110 N   0  0  0  0  0  0  0  0  0  0  0  0
  -29.8555  -13.9213   20.4659 N   0  0  0  0  0  0  0  0  0  0  0  0
  -25.2821  -15.0674   20.1947 N   0  0  0  0  0  0  0  0  0  0  0  0
  -21.7996  -12.4601   21.4072 N   0  0  0  0  0  0  0  0  0  0  0  0
  -29.7839  -16.0782   21.4171 N   0  0  0  0  0  0  0  0  0  0  0  0
  -27.0060  -31.1200   21.8152 N   0  0  0  0  0  0  0  0  0  0  0  0
  -22.3537  -28.0220   18.3809 N   0  0  0  0  0  0  0  0  0  0  0  0
  -28.4564  -20.9528   23.6178 N   0  3  1  0  0  0  0  0  0  0  0  0
  -22.6114  -25.7385   15.5903 N   0  3  0  0  0  0  0  0  0  0  0  0
  -22.4564  -14.6195   21.0018 O   0  0  0  0  0  0  0  0  0  0  0  0
  -26.0570  -29.1260   22.5541 O   0  0  0  0  0  0  0  0  0  0  0  0
  -23.9368  -30.2675   19.1935 O   0  0  0  0  0  0  0  0  0  0  0  0
  -22.7601  -25.7391   18.4000 O   0  0  0  0  0  0  0  0  0  0  0  0
  -31.6652  -15.3467   20.2737 O   0  0  0  0  0  0  0  0  0  0  0  0
  -21.8610   -6.9134   21.9231 O   0  0  0  0  0  0  0  0  0  0  0  0
  -28.1618  -23.4056   21.8247 O   0  0  0  0  0  0  0  0  0  1  0  0
  -18.6578   -6.8988   26.4112 F   0  0  0  0  0  0  0  0  0  0  0  0
  -22.3329   -5.1470   23.9967 F   0  0  0  0  0  0  0  0  0  0  0  0
  1  2  1  0  0  0  0
  1  6  2  0  0  0  0
  2  7  2  0  0  0  0
  3  9  2  0  0  0  0
  3 10  1  0  0  0  0
  4 11  2  0  0  0  0
  4 18  1  0  0  0  0
  5 12  1  0  0  0  0
  5 18  2  0  0  0  0
  6 20  1  0  0  0  0
  7 22  1  0  0  0  0
  8 13  2  0  0  0  0
  8 21  1  0  0  0  0
  9 24  1  0  0  0  0
 10 26  2  0  0  0  0
 11 27  1  0  0  0  0
 12 27  2  0  0  0  0
 13 28  1  0  0  0  0
 14 15  2  0  0  0  0
 14 29  1  0  0  0  0
 15 30  1  0  0  0  0
 16 23  1  0  0  0  0
 16 28  2  0  0  0  0
 17 30  2  0  0  0  0
 17 31  1  0  0  0  0
 18 32  1  0  0  0  0
 19 32  1  0  0  0  0
 19 33  2  0  0  0  0
 19 36  1  0  0  0  0
 20 22  2  0  0  0  0
 20 41  1  0  0  0  0
 21 23  2  0  0  0  0
 21 42  1  0  0  0  0
 22 52  1  0  0  0  0
 23 43  1  0  0  0  0
 24 25  2  0  0  0  0
 24 62  1  0  0  0  0
 25 26  1  0  0  0  0
 25 56  1  0  0  0  0
 26 72  1  0  0  0  0
 27 82  1  0  0  0  0
 28 83  1  0  0  0  0
 29 31  2  0  0  0  0
 29 82  1  0  0  0  0
 30 84  1  0  0  0  0
 31 85  1  0  0  0  0
 32 66  2  0  0  0  0
 33 67  1  0  0  0  0
 33 70  1  0  0  0  0
 34 35  2  0  0  0  0
 34 44  1  0  0  0  0
 34 75  1  0  0  0  0
 36 71  1  0  0  0  0
 36 77  2  0  0  0  0
 37 53  1  0  0  0  0
 37 73  1  0  0  0  0
 37 78  2  0  0  0  0
 38 63  1  0  0  0  0
 38 68  1  0  0  0  0
 38 79  2  0  0  0  0
 39 64  1  0  0  0  0
 39 74  1  0  0  0  0
 39 80  2  0  0  0  0
 40 69  1  0  0  0  0
 40 72  1  0  0  0  0
 40 81  2  0  0  0  0
 41 45  1  0  0  0  0
 42 53  1  0  0  0  0
 43 68  1  0  0  0  0
 44 55  1  0  0  0  0
 45 47  1  0  0  0  0
 46 48  1  0  0  0  0
 46 49  1  0  0  0  0
 47 52  1  0  0  0  0
 48 54  1  0  0  0  0
 49 69  1  0  0  0  0
 50 54  1  0  0  0  0
 50 69  1  0  0  0  0
 51 55  1  0  0  0  0
 51 75  1  0  0  0  0
 52 73  1  0  0  0  0
 53 68  1  0  0  0  0
 54 67  1  0  0  0  0
 55 83  1  0  0  0  0
 57 64  1  0  0  0  0
 58 65  1  0  0  0  0
 59 65  1  0  0  0  0
 60 65  1  0  0  0  0
 61 76  1  0  0  0  0
 62 75  1  0  0  0  0
 63 65  1  0  0  0  0
 63 74  1  0  0  0  0
 64 76  1  0  0  0  0
 66 67  1  0  0  0  0
M  CHG  2  75   1  76   1
M  ISO  4  40 100  55 101  72 100  83 101
M  END
> <Batch ID>
0030

> <Smiles>
C=C1C[101CH:1]([101O:1]c2ccc3c(c2)CN(C(=O)C(NC(=O)C(C)NC)C(C)(C)C)C(C(=O)NC2CCCc4ccccc42)C3)CN1Cc1cccc([100NH:0][100C:0](=O)N2CCCC(n3nc(-c4ccc(Oc5ccc(F)cc5F)cc4)c(C(N)=O)c3N)C2)c1C

> <Shape>
0.302

> <Color>
0.192

> <Negative vol penalty>
0.000

$$$$

  -OEChem-04042321363D

 90100  0     1  0  0  0  0  0999 V2000
  -18.7024  -29.2250   27.7621 C   0  0  0  0  0  0  0  0  0  0  0  0
  -19.3981  -28.0599   28.0689 C   0  0  0  0  0  0  0  0  0  0  0  0
  -23.2141   -9.7174   20.0148 C   0  0  0  0  0  0  0  0  0  0  0  0
  -23.7715   -9.9915   22.3495 C   0  0  0  0  0  0  0  0  0  0  0  0
  -18.5892  -29.6391   26.4356 C   0  0  0  0  0  0  0  0  0  0  0  0
  -19.9799  -27.3076   27.0492 C   0  0  0  0  0  0  0  0  0  0  0  0
  -25.2141  -24.1412   27.3376 C   0  0  0  0  0  0  0  0  0  0  0  0
  -32.2369  -18.0100   23.4631 C   0  0  0  0  0  0  0  0  0  0  0  0
  -31.7358  -17.0226   22.6149 C   0  0  0  0  0  0  0  0  0  0  0  0
  -22.4867   -8.5679   20.3234 C   0  0  0  0  0  0  0  0  0  0  0  0
  -23.0441   -8.8421   22.6582 C   0  0  0  0  0  0  0  0  0  0  0  0
  -25.4822  -22.7894   27.5485 C   0  0  0  0  0  0  0  0  0  0  0  0
  -19.4492   -7.8105   21.6011 C   0  0  0  0  0  0  0  0  0  0  0  0
  -18.1914   -7.6629   21.0167 C   0  0  0  0  0  0  0  0  0  0  0  0
  -25.6210  -22.4512   25.1640 C   0  0  0  0  0  0  0  0  0  0  0  0
  -18.9224   -5.6170   19.9599 C   0  0  0  0  0  0  0  0  0  0  0  0
  -23.8566  -10.4292   21.0278 C   0  0  0  0  0  0  0  0  0  0  0  0
  -24.1307  -12.9398   20.6685 C   0  0  0  0  0  0  0  0  0  0  0  0
  -19.1782  -28.8966   25.4000 C   0  0  0  0  0  0  0  0  0  0  0  0
  -25.1365  -24.6569   26.0359 C   0  0  0  0  0  0  0  0  0  0  0  0
  -19.8733  -27.7114   25.7074 C   0  0  0  0  0  0  0  0  0  0  0  0
  -25.3543  -23.8105   24.9394 C   0  0  0  0  0  0  0  0  0  0  0  0
  -31.3686  -18.9270   24.0555 C   0  0  0  0  0  0  0  0  0  0  0  0
  -29.9992  -18.8566   23.7995 C   0  0  0  0  0  0  0  0  0  0  0  0
  -29.4981  -17.8692   22.9513 C   0  0  0  0  0  0  0  0  0  0  0  0
  -30.3664  -16.9522   22.3590 C   0  0  0  0  0  0  0  0  0  0  0  0
  -22.4017   -8.1303   21.6451 C   0  0  0  0  0  0  0  0  0  0  0  0
  -25.6828  -21.9436   26.4615 C   0  0  0  0  0  0  0  0  0  0  0  0
  -20.4437   -6.8613   21.3650 C   0  0  0  0  0  0  0  0  0  0  0  0
  -17.9280   -6.5662   20.1961 C   0  0  0  0  0  0  0  0  0  0  0  0
  -20.1803   -5.7646   20.5444 C   0  0  0  0  0  0  0  0  0  0  0  0
  -24.6086  -11.6163   20.7096 C   0  0  0  0  0  0  0  0  0  0  0  0
  -25.2270  -13.6900   20.3195 C   0  0  0  0  0  0  0  0  0  0  0  0
  -22.8136  -13.4459   20.9231 C   0  0  0  0  0  0  0  0  0  0  0  0
  -22.8621  -26.0504   24.3071 C   0  0  0  0  0  0  0  0  0  0  0  0
  -25.2719  -26.4499   22.1727 C   0  0  0  0  0  0  0  0  0  0  0  0
  -28.3034  -25.4122   20.9979 C   0  0  0  0  0  0  0  0  0  0  0  0
  -30.6231  -14.9623   20.8356 C   0  0  0  0  0  0  0  0  0  0  0  0
  -18.9887  -29.3587   23.9769 C   0  0  0  0  0  0  0  0  0  0  0  0
  -24.8729  -26.1228   25.8260 C   0  0  0  0  0  0  0  0  0  0  0  0
  -25.3018  -24.3187   23.5226 C   0  0  0  0  0  0  0  0  0  0  0  0
  -19.9535  -28.7054   22.9907 C   0  0  0  0  0  0  0  0  0  0  0  0
  -29.7922  -12.2744   18.6534 C   0  0  0  0  0  0  0  0  0  0  0  0
  -33.8522  -23.0527   24.2743 C   0  0  0  0  0  0  0  0  0  0  0  0
  -32.6510  -23.0707   23.3504 C   0  0  0  0  0  0  0  0  0  0  0  0
  -20.0177  -27.1994   23.2249 C   0  0  0  0  0  0  0  0  0  0  0  0
  -28.3303  -11.9724   18.9904 C   0  0  0  0  0  0  0  0  0  0  0  0
  -27.2625  -18.7913   27.4922 C   0  0  0  0  0  0  0  0  0  0  0  0
  -30.5922  -12.6621   19.8957 C   0  0  0  0  0  0  0  0  0  0  0  0
  -28.5515  -13.4501   21.0287 C   0  0  0  0  0  0  0  0  0  0  0  0
  -33.5357  -21.9012   25.2042 C   0  0  0  0  0  0  0  0  0  0  0  0
  -32.3768  -21.6030   23.0733 C   0  0  0  0  0  0  0  0  0  0  0  0
  -27.8567  -18.4418   26.1427 C   0  0  0  0  0  0  0  0  0  0  0  0
  -28.3548  -20.7780   26.6844 C   0  0  0  0  0  0  0  0  0  0  0  0
  -20.5394  -26.8816   24.6314 C   0  0  1  0  0  0  0  0  0  0  0  0
  -24.3077  -26.4364   24.4442 C   0  0  1  0  0  0  0  0  0  0  0  0
  -27.6903  -13.1177   19.7993 C   0  0  2  0  0  0  0  0  0  0  0  0
  -27.1116  -20.3010   27.4188 C   0  0  1  0  0  0  0  0  0  1  0  0
  -28.0282  -17.7955   22.6781 C   0  0  0  0  0  0  0  0  0  0  0  0
  -30.3985  -25.4384   19.6170 C   0  0  0  0  0  0  0  0  0  0  0  0
  -23.4860  -25.1075   20.0946 C   0  0  0  0  0  0  0  0  0  0  0  0
  -25.5154  -24.7766   18.6662 C   0  0  0  0  0  0  0  0  0  0  0  0
  -24.7659  -27.0831   19.2501 C   0  0  0  0  0  0  0  0  0  0  0  0
  -29.7135  -27.1214   22.9598 C   0  0  0  0  0  0  0  0  0  0  0  0
  -31.9313  -19.9743   24.9597 C   0  0  0  0  0  0  0  0  0  0  0  0
  -29.0678  -19.8443   24.4382 C   0  0  0  0  0  0  0  0  0  0  0  0
  -25.8331  -25.6389   21.0298 C   0  0  1  0  0  0  0  0  0  0  0  0
  -29.5658  -26.1804   20.6508 C   0  0  2  0  0  0  0  0  0  0  0  0
  -24.8993  -25.6413   19.7867 C   0  0  0  0  0  0  0  0  0  0  0  0
  -25.9073  -11.5275   20.4105 N   0  0  0  0  0  0  0  0  0  0  0  0
  -26.2548  -12.8047   20.1780 N   0  0  0  0  0  0  0  0  0  0  0  0
  -25.0346  -25.7583   23.3690 N   0  0  0  0  0  0  0  0  0  0  0  0
  -29.9282  -13.7554   20.6089 N   0  0  0  0  0  0  0  0  0  0  0  0
  -25.4024  -15.0140   20.1229 N   0  0  0  0  0  0  0  0  0  0  0  0
  -21.8043  -12.5374   21.2700 N   0  0  0  0  0  0  0  0  0  0  0  0
  -29.8794  -15.9408   21.4942 N   0  0  0  0  0  0  0  0  0  0  0  0
  -21.9768  -27.0416   24.6854 N   0  0  0  0  0  0  0  0  0  0  0  0
  -27.1698  -26.1646   20.7740 N   0  0  0  0  0  0  0  0  0  0  0  0
  -32.9211  -20.8686   24.2850 N   0  3  0  0  0  0  0  0  0  0  0  0
  -28.8283  -19.5706   25.8882 N   0  3  2  0  0  0  0  0  0  0  0  0
  -30.4003  -26.3831   21.8688 N   0  3  0  0  0  0  0  0  0  0  0  0
  -22.5360  -14.6655   20.8293 O   0  0  0  0  0  0  0  0  0  0  0  0
  -22.5714  -24.9363   23.8876 O   0  0  0  0  0  0  0  0  0  0  0  0
  -25.0588  -27.6543   22.0122 O   0  0  0  0  0  0  0  0  0  0  0  0
  -28.3209  -24.2586   21.4216 O   0  0  0  0  0  0  0  0  0  0  0  0
  -31.7829  -15.1259   20.4481 O   0  0  0  0  0  0  0  0  0  0  0  0
  -21.6918   -7.0088   21.9466 O   0  0  0  0  0  0  0  0  0  0  0  0
  -25.9440  -20.6236   26.6645 O   0  0  0  0  0  0  0  0  0  1  0  0
  -16.7195   -6.4238   19.6361 F   0  0  0  0  0  0  0  0  0  0  0  0
  -21.1314   -4.8488   20.3147 F   0  0  0  0  0  0  0  0  0  0  0  0
  1  2  1  0  0  0  0
  1  5  2  0  0  0  0
  2  6  2  0  0  0  0
  3 10  2  0  0  0  0
  3 17  1  0  0  0  0
  4 11  1  0  0  0  0
  4 17  2  0  0  0  0
  5 19  1  0  0  0  0
  6 21  1  0  0  0  0
  7 12  2  0  0  0  0
  7 20  1  0  0  0  0
  8  9  1  0  0  0  0
  8 23  2  0  0  0  0
  9 26  2  0  0  0  0
 10 27  1  0  0  0  0
 11 27  2  0  0  0  0
 12 28  1  0  0  0  0
 13 14  2  0  0  0  0
 13 29  1  0  0  0  0
 14 30  1  0  0  0  0
 15 22  1  0  0  0  0
 15 28  2  0  0  0  0
 16 30  2  0  0  0  0
 16 31  1  0  0  0  0
 17 32  1  0  0  0  0
 18 32  1  0  0  0  0
 18 33  2  0  0  0  0
 18 34  1  0  0  0  0
 19 21  2  0  0  0  0
 19 39  1  0  0  0  0
 20 22  2  0  0  0  0
 20 40  1  0  0  0  0
 21 55  1  0  0  0  0
 22 41  1  0  0  0  0
 23 24  1  0  0  0  0
 23 65  1  0  0  0  0
 24 25  2  0  0  0  0
 24 66  1  0  0  0  0
 25 26  1  0  0  0  0
 25 59  1  0  0  0  0
 26 76  1  0  0  0  0
 27 87  1  0  0  0  0
 28 88  1  0  0  0  0
 29 31  2  0  0  0  0
 29 87  1  0  0  0  0
 30 89  1  0  0  0  0
 31 90  1  0  0  0  0
 32 70  2  0  0  0  0
 33 71  1  0  0  0  0
 33 74  1  0  0  0  0
 34 75  1  0  0  0  0
 34 82  2  0  0  0  0
 35 56  1  0  0  0  0
 35 77  1  0  0  0  0
 35 83  2  0  0  0  0
 36 67  1  0  0  0  0
 36 72  1  0  0  0  0
 36 84  2  0  0  0  0
 37 68  1  0  0  0  0
 37 78  1  0  0  0  0
 37 85  2  0  0  0  0
 38 73  1  0  0  0  0
 38 76  1  0  0  0  0
 38 86  2  0  0  0  0
 39 42  1  0  0  0  0
 40 56  1  0  0  0  0
 41 72  1  0  0  0  0
 42 46  1  0  0  0  0
 43 47  1  0  0  0  0
 43 49  1  0  0  0  0
 44 45  1  0  0  0  0
 44 51  1  0  0  0  0
 45 52  1  0  0  0  0
 46 55  1  0  0  0  0
 47 57  1  0  0  0  0
 48 53  1  0  0  0  0
 48 58  1  0  0  0  0
 49 73  1  0  0  0  0
 50 57  1  0  0  0  0
 50 73  1  0  0  0  0
 51 79  1  0  0  0  0
 52 79  1  0  0  0  0
 53 80  1  0  0  0  0
 54 58  1  0  0  0  0
 54 80  1  0  0  0  0
 55 77  1  0  0  0  0
 56 72  1  0  0  0  0
 57 71  1  0  0  0  0
 58 88  1  0  0  0  0
 60 68  1  0  0  0  0
 61 69  1  0  0  0  0
 62 69  1  0  0  0  0
 63 69  1  0  0  0  0
 64 81  1  0  0  0  0
 65 79  1  0  0  0  0
 66 80  1  0  0  0  0
 67 69  1  0  0  0  0
 67 78  1  0  0  0  0
 68 81  1  0  0  0  0
 70 71  1  0  0  0  0
M  CHG  3  79   1  80   1  81   1
M  ISO  4  38 100  58 101  76 100  88 101
M  END
> <Batch ID>
0030

> <Smiles>
CNC(C)C(=O)NC(C(=O)N1Cc2cc([101O:1][101CH:1]3CCN(Cc4c(CN5CCCC5)ccc([100NH:0][100C:0](=O)N5CCCC(n6nc(-c7ccc(Oc8ccc(F)cc8F)cc7)c(C(N)=O)c6N)C5)c4C)C3)ccc2CC1C(=O)NC1CCCc2ccccc21)C(C)(C)C

> <Shape>
0.208

> <Color>
0.166

> <Negative vol penalty>
0.000

$$$$

  -OEChem-04042321363D

 87 96  0     1  0  0  0  0  0999 V2000
  -27.5712  -26.9353   12.7528 C   0  0  0  0  0  0  0  0  0  0  0  0
  -26.9131  -26.1152   13.6623 C   0  0  0  0  0  0  0  0  0  0  0  0
  -25.4876  -13.5606   21.8677 C   0  0  0  0  0  0  0  0  0  0  0  0
  -25.8687  -13.9489   19.5138 C   0  0  0  0  0  0  0  0  0  0  0  0
  -28.0123  -28.1960   13.1491 C   0  0  0  0  0  0  0  0  0  0  0  0
  -26.6854  -26.5602   14.9650 C   0  0  0  0  0  0  0  0  0  0  0  0
  -24.2412  -23.6995   19.7577 C   0  0  0  0  0  0  0  0  0  0  0  0
  -25.2929  -12.2032   21.6123 C   0  0  0  0  0  0  0  0  0  0  0  0
  -25.6740  -12.5915   19.2583 C   0  0  0  0  0  0  0  0  0  0  0  0
  -24.6846  -22.9334   20.8349 C   0  0  0  0  0  0  0  0  0  0  0  0
  -24.3402   -8.6947   21.5312 C   0  0  0  0  0  0  0  0  0  0  0  0
  -23.2594   -8.0656   22.1489 C   0  0  0  0  0  0  0  0  0  0  0  0
  -24.6723  -24.9004   22.2313 C   0  0  0  0  0  0  0  0  0  0  0  0
  -29.4431  -26.3004   19.2082 C   0  0  0  0  0  0  0  0  0  0  0  0
  -29.7527  -25.7291   21.5352 C   0  0  0  0  0  0  0  0  0  0  0  0
  -21.7426   -9.5891   21.0464 C   0  0  0  0  0  0  0  0  0  0  0  0
  -25.7755  -14.4334   20.8184 C   0  0  0  0  0  0  0  0  0  0  0  0
  -25.0561  -16.7332   21.6559 C   0  0  0  0  0  0  0  0  0  0  0  0
  -27.8005  -28.6510   14.4610 C   0  0  0  0  0  0  0  0  0  0  0  0
  -24.0201  -25.0763   19.9067 C   0  0  0  0  0  0  0  0  0  0  0  0
  -27.1018  -27.8389   15.3774 C   0  0  0  0  0  0  0  0  0  0  0  0
  -24.2236  -25.6813   21.1552 C   0  0  0  0  0  0  0  0  0  0  0  0
  -29.5321  -26.6870   20.5455 C   0  0  0  0  0  0  0  0  0  0  0  0
  -29.5746  -24.9559   18.8606 C   0  0  0  0  0  0  0  0  0  0  0  0
  -29.8843  -24.3847   21.1876 C   0  0  0  0  0  0  0  0  0  0  0  0
  -29.7952  -23.9981   19.8503 C   0  0  0  0  0  0  0  0  0  0  0  0
  -25.3861  -11.7187   20.3076 C   0  0  0  0  0  0  0  0  0  0  0  0
  -24.9030  -23.5343   22.0711 C   0  0  0  0  0  0  0  0  0  0  0  0
  -24.1223   -9.7711   20.6711 C   0  0  0  0  0  0  0  0  0  0  0  0
  -21.9606   -8.5127   21.9065 C   0  0  0  0  0  0  0  0  0  0  0  0
  -22.8234  -10.2182   20.4288 C   0  0  0  0  0  0  0  0  0  0  0  0
  -25.9762  -15.8358   21.0816 C   0  0  0  0  0  0  0  0  0  0  0  0
  -25.7227  -17.9336   21.6898 C   0  0  0  0  0  0  0  0  0  0  0  0
  -23.7185  -16.5023   22.1176 C   0  0  0  0  0  0  0  0  0  0  0  0
  -25.2593  -27.7004   18.6099 C   0  0  0  0  0  0  0  0  0  0  0  0
  -22.9162  -29.1729   20.3023 C   0  0  0  0  0  0  0  0  0  0  0  0
  -21.4634  -28.8813   23.5919 C   0  0  0  0  0  0  0  0  0  0  0  0
  -28.8092  -21.7525   19.4306 C   0  0  0  0  0  0  0  0  0  0  0  0
  -28.2920  -30.0273   14.8343 C   0  0  0  0  0  0  0  0  0  0  0  0
  -23.5163  -25.8837   18.7420 C   0  0  0  0  0  0  0  0  0  0  0  0
  -23.9816  -27.1518   21.3726 C   0  0  0  0  0  0  0  0  0  0  0  0
  -28.4000  -30.2314   16.3420 C   0  0  0  0  0  0  0  0  0  0  0  0
  -30.5846  -19.0344   20.8809 C   0  0  0  0  0  0  0  0  0  0  0  0
  -28.2382  -22.4651   25.4758 C   0  0  0  0  0  0  0  0  0  0  0  0
  -27.1116  -29.7895   17.0199 C   0  0  0  0  0  0  0  0  0  0  0  0
  -29.4616  -18.0215   21.1012 C   0  0  0  0  0  0  0  0  0  0  0  0
  -26.8557  -22.2230   24.8844 C   0  0  0  0  0  0  0  0  0  0  0  0
  -30.4249  -19.7879   19.5600 C   0  0  0  0  0  0  0  0  0  0  0  0
  -27.9783  -19.4193   19.6123 C   0  0  0  0  0  0  0  0  0  0  0  0
  -29.3267  -22.3773   24.4155 C   0  0  0  0  0  0  0  0  0  0  0  0
  -27.6789  -23.0690   22.6559 C   0  0  0  0  0  0  0  0  0  0  0  0
  -26.8699  -28.2896   16.8083 C   0  0  1  0  0  0  0  0  0  0  0  0
  -23.8165  -27.3737   18.8734 C   0  0  1  0  0  0  0  0  0  0  0  0
  -28.0816  -18.6875   20.9595 C   0  0  1  0  0  0  0  0  0  0  0  0
  -26.5818  -23.1558   23.7088 C   0  0  1  0  0  0  0  0  0  1  0  0
  -29.3911  -28.1243   20.9171 C   0  0  0  0  0  0  0  0  0  0  0  0
  -29.4740  -24.5726   17.4195 C   0  0  0  0  0  0  0  0  0  0  0  0
  -19.1669  -29.4642   24.4188 C   0  0  0  0  0  0  0  0  0  0  0  0
  -24.1850  -31.8395   21.0702 C   0  0  0  0  0  0  0  0  0  0  0  0
  -22.7879  -31.8266   23.1477 C   0  0  0  0  0  0  0  0  0  0  0  0
  -21.6897  -31.8797   20.9086 C   0  0  0  0  0  0  0  0  0  0  0  0
  -31.2158  -22.1452   18.9521 C   0  0  0  0  0  0  0  0  0  0  0  0
  -21.0232  -26.1508   24.6453 C   0  0  0  0  0  0  0  0  0  0  0  0
  -30.1214  -23.3779   22.2744 C   0  0  0  0  0  0  0  0  0  0  0  0
  -22.8029  -29.7495   21.6929 C   0  0  1  0  0  0  0  0  0  0  0  0
  -20.0819  -28.3515   23.9315 C   0  0  2  0  0  0  0  0  0  0  0  0
  -22.8840  -31.3022   21.6991 C   0  0  0  0  0  0  0  0  0  0  0  0
  -27.1387  -16.4165   20.7726 N   0  0  0  0  0  0  0  0  0  0  0  0
  -26.9535  -17.6917   21.1542 N   0  0  0  0  0  0  0  0  0  0  0  0
  -23.4953  -27.9000   20.2016 N   0  0  0  0  0  0  0  0  0  0  0  0
  -29.0801  -20.3713   19.4523 N   0  0  0  0  0  0  0  0  0  0  0  0
  -25.3702  -19.1619   22.1250 N   0  0  0  0  0  0  0  0  0  0  0  0
  -22.6614  -16.6670   21.2122 N   0  0  0  0  0  0  0  0  0  0  0  0
  -25.5452  -27.9535   17.2819 N   0  0  0  0  0  0  0  0  0  0  0  0
  -21.5693  -29.2133   22.2578 N   0  0  0  0  0  0  0  0  0  0  0  0
  -29.9316  -22.6062   19.4907 N   0  0  0  0  0  0  0  0  0  0  0  0
  -29.0171  -23.3408   23.2946 N   0  3  2  0  0  0  0  0  0  0  0  0
  -20.1724  -27.3160   24.9994 N   0  3  0  0  0  0  0  0  0  0  0  0
  -23.4668  -16.1759   23.3023 O   0  0  0  0  0  0  0  0  0  0  0  0
  -26.0538  -27.7228   19.5425 O   0  0  0  0  0  0  0  0  0  0  0  0
  -22.4996  -29.8248   19.3415 O   0  0  0  0  0  0  0  0  0  0  0  0
  -22.3579  -28.9931   24.4274 O   0  0  0  0  0  0  0  0  0  0  0  0
  -27.6557  -22.1894   19.3382 O   0  0  0  0  0  0  0  0  0  0  0  0
  -25.1963  -10.3942   20.0581 O   0  0  0  0  0  0  0  0  0  0  0  0
  -25.3363  -22.7889   23.1239 O   0  0  0  0  0  0  0  0  0  1  0  0
  -20.9226   -7.9075   22.4985 F   0  0  0  0  0  0  0  0  0  0  0  0
  -22.6077  -11.2511   19.6026 F   0  0  0  0  0  0  0  0  0  0  0  0
  1  2  1  0  0  0  0
  1  5  2  0  0  0  0
  2  6  2  0  0  0  0
  3  8  2  0  0  0  0
  3 17  1  0  0  0  0
  4  9  1  0  0  0  0
  4 17  2  0  0  0  0
  5 19  1  0  0  0  0
  6 21  1  0  0  0  0
  7 10  2  0  0  0  0
  7 20  1  0  0  0  0
  8 27  1  0  0  0  0
  9 27  2  0  0  0  0
 10 28  1  0  0  0  0
 11 12  2  0  0  0  0
 11 29  1  0  0  0  0
 12 30  1  0  0  0  0
 13 22  1  0  0  0  0
 13 28  2  0  0  0  0
 14 23  1  0  0  0  0
 14 24  2  0  0  0  0
 15 23  2  0  0  0  0
 15 25  1  0  0  0  0
 16 30  2  0  0  0  0
 16 31  1  0  0  0  0
 17 32  1  0  0  0  0
 18 32  1  0  0  0  0
 18 33  2  0  0  0  0
 18 34  1  0  0  0  0
 19 21  2  0  0  0  0
 19 39  1  0  0  0  0
 20 22  2  0  0  0  0
 20 40  1  0  0  0  0
 21 52  1  0  0  0  0
 22 41  1  0  0  0  0
 23 56  1  0  0  0  0
 24 26  1  0  0  0  0
 24 57  1  0  0  0  0
 25 26  2  0  0  0  0
 25 64  1  0  0  0  0
 26 76  1  0  0  0  0
 27 84  1  0  0  0  0
 28 85  1  0  0  0  0
 29 31  2  0  0  0  0
 29 84  1  0  0  0  0
 30 86  1  0  0  0  0
 31 87  1  0  0  0  0
 32 68  2  0  0  0  0
 33 69  1  0  0  0  0
 33 72  1  0  0  0  0
 34 73  1  0  0  0  0
 34 79  2  0  0  0  0
 35 53  1  0  0  0  0
 35 74  1  0  0  0  0
 35 80  2  0  0  0  0
 36 65  1  0  0  0  0
 36 70  1  0  0  0  0
 36 81  2  0  0  0  0
 37 66  1  0  0  0  0
 37 75  1  0  0  0  0
 37 82  2  0  0  0  0
 38 71  1  0  0  0  0
 38 76  1  0  0  0  0
 38 83  2  0  0  0  0
 39 42  1  0  0  0  0
 40 53  1  0  0  0  0
 41 70  1  0  0  0  0
 42 45  1  0  0  0  0
 43 46  1  0  0  0  0
 43 48  1  0  0  0  0
 44 47  1  0  0  0  0
 44 50  1  0  0  0  0
 45 52  1  0  0  0  0
 46 54  1  0  0  0  0
 47 55  1  0  0  0  0
 48 71  1  0  0  0  0
 49 54  1  0  0  0  0
 49 71  1  0  0  0  0
 50 77  1  0  0  0  0
 51 55  1  0  0  0  0
 51 77  1  0  0  0  0
 52 74  1  0  0  0  0
 53 70  1  0  0  0  0
 54 69  1  0  0  0  0
 55 85  1  0  0  0  0
 58 66  1  0  0  0  0
 59 67  1  0  0  0  0
 60 67  1  0  0  0  0
 61 67  1  0  0  0  0
 62 76  1  0  0  0  0
 63 78  1  0  0  0  0
 64 77  1  0  0  0  0
 65 67  1  0  0  0  0
 65 75  1  0  0  0  0
 66 78  1  0  0  0  0
 68 69  1  0  0  0  0
M  CHG  2  77   1  78   1
M  ISO  4  38 100  55 101  76 100  85 101
M  END
> <Batch ID>
0030

> <Smiles>
CNC(C)C(=O)NC(C(=O)N1Cc2cc([101O:1][101CH:1]3CCCN(Cc4cc(C)cc(C)c4[100N:0](C)[100C:0](=O)N4CCCC(n5nc(-c6ccc(Oc7ccc(F)cc7F)cc6)c(C(N)=O)c5N)C4)C3)ccc2CC1C(=O)NC1CCCc2ccccc21)C(C)(C)C

> <Shape>
0.241

> <Color>
0.055

> <Negative vol penalty>
0.000

$$$$

  -OEChem-04042321363D

 81 89  0     1  0  0  0  0  0999 V2000
  -25.9356  -33.0833   18.6224 C   0  0  0  0  0  0  0  0  0  0  0  0
  -26.5704  -31.9398   19.0966 C   0  0  0  0  0  0  0  0  0  0  0  0
  -23.1061   -9.8306   19.9342 C   0  0  0  0  0  0  0  0  0  0  0  0
  -23.8753   -9.8425   22.2244 C   0  0  0  0  0  0  0  0  0  0  0  0
  -25.0369  -32.9908   17.5605 C   0  0  0  0  0  0  0  0  0  0  0  0
  -26.3060  -30.7028   18.5098 C   0  0  0  0  0  0  0  0  0  0  0  0
  -30.2466  -26.0799   17.7314 C   0  0  0  0  0  0  0  0  0  0  0  0
  -22.3925   -8.6575   20.1799 C   0  0  0  0  0  0  0  0  0  0  0  0
  -23.1617   -8.6695   22.4702 C   0  0  0  0  0  0  0  0  0  0  0  0
  -30.4775  -24.9120   18.4569 C   0  0  0  0  0  0  0  0  0  0  0  0
  -19.9572   -7.7869   23.0809 C   0  0  0  0  0  0  0  0  0  0  0  0
  -19.2065   -7.7207   24.2546 C   0  0  0  0  0  0  0  0  0  0  0  0
  -29.0373  -23.6982   16.9497 C   0  0  0  0  0  0  0  0  0  0  0  0
  -29.1107  -18.7732   21.0182 C   0  0  0  0  0  0  0  0  0  0  0  0
  -31.3255  -18.5959   20.0695 C   0  0  0  0  0  0  0  0  0  0  0  0
  -20.4994   -5.8106   24.9738 C   0  0  0  0  0  0  0  0  0  0  0  0
  -23.8475  -10.4231   20.9564 C   0  0  0  0  0  0  0  0  0  0  0  0
  -24.1252  -12.9567   20.8509 C   0  0  0  0  0  0  0  0  0  0  0  0
  -24.7687  -31.7534   16.9540 C   0  0  0  0  0  0  0  0  0  0  0  0
  -29.3992  -26.0680   16.6141 C   0  0  0  0  0  0  0  0  0  0  0  0
  -25.4019  -30.5934   17.4396 C   0  0  0  0  0  0  0  0  0  0  0  0
  -28.7993  -24.8667   16.2102 C   0  0  0  0  0  0  0  0  0  0  0  0
  -30.3623  -18.1587   20.9788 C   0  0  0  0  0  0  0  0  0  0  0  0
  -29.7855  -20.2620   19.2392 C   0  0  0  0  0  0  0  0  0  0  0  0
  -22.4203   -8.0770   21.4479 C   0  0  0  0  0  0  0  0  0  0  0  0
  -29.8705  -23.7215   18.0678 C   0  0  0  0  0  0  0  0  0  0  0  0
  -20.9790   -6.8649   22.8536 C   0  0  0  0  0  0  0  0  0  0  0  0
  -19.4776   -6.7326   25.2011 C   0  0  0  0  0  0  0  0  0  0  0  0
  -28.8223  -19.8248   20.1484 C   0  0  0  0  0  0  0  0  0  0  0  0
  -21.2501   -5.8768   23.8000 C   0  0  0  0  0  0  0  0  0  0  0  0
  -31.0371  -19.6476   19.1997 C   0  0  0  0  0  0  0  0  0  0  0  0
  -24.5853  -11.6345   20.7030 C   0  0  0  0  0  0  0  0  0  0  0  0
  -25.1966  -13.7357   20.4878 C   0  0  0  0  0  0  0  0  0  0  0  0
  -22.8439  -13.4378   21.2782 C   0  0  0  0  0  0  0  0  0  0  0  0
  -26.6666  -27.5039   15.8559 C   0  0  0  0  0  0  0  0  0  0  0  0
  -27.1859  -26.1104   12.9731 C   0  0  0  0  0  0  0  0  0  0  0  0
  -28.6774  -23.6123   11.1893 C   0  0  0  0  0  0  0  0  0  0  0  0
  -30.6537  -14.8914   20.6602 C   0  0  0  0  0  0  0  0  0  0  0  0
  -23.7539  -31.6959   15.8398 C   0  0  0  0  0  0  0  0  0  0  0  0
  -29.1816  -27.3307   15.8263 C   0  0  0  0  0  0  0  0  0  0  0  0
  -27.8972  -24.7965   15.0061 C   0  0  0  0  0  0  0  0  0  0  0  0
  -23.8124  -30.4040   15.0287 C   0  0  0  0  0  0  0  0  0  0  0  0
  -29.5663  -12.4938   18.2632 C   0  0  0  0  0  0  0  0  0  0  0  0
  -23.8895  -29.1949   15.9555 C   0  0  0  0  0  0  0  0  0  0  0  0
  -28.1386  -12.1613   18.7001 C   0  0  0  0  0  0  0  0  0  0  0  0
  -30.4827  -12.7302   19.4616 C   0  0  0  0  0  0  0  0  0  0  0  0
  -28.5691  -13.4046   20.8606 C   0  0  0  0  0  0  0  0  0  0  0  0
  -25.1600  -29.2373   16.8131 C   0  0  1  0  0  0  0  0  0  0  0  0
  -27.8932  -27.3109   15.0097 C   0  0  1  0  0  0  0  0  0  0  0  0
  -27.5946  -13.2128   19.6858 C   0  0  2  0  0  0  0  0  0  0  0  0
  -28.8863  -22.7118    8.8563 C   0  0  0  0  0  0  0  0  0  0  0  0
  -24.3847  -24.9192   13.1846 C   0  0  0  0  0  0  0  0  0  0  0  0
  -25.0035  -23.3184   11.3617 C   0  0  0  0  0  0  0  0  0  0  0  0
  -24.9869  -25.7720   10.9120 C   0  0  0  0  0  0  0  0  0  0  0  0
  -31.6057  -24.0399   11.1622 C   0  0  0  0  0  0  0  0  0  0  0  0
  -30.6706  -17.0353   21.9103 C   0  0  0  0  0  0  0  0  0  0  0  0
  -29.4395  -21.3962   18.3199 C   0  0  0  0  0  0  0  0  0  1  0  0
  -26.8225  -24.7868   12.3445 C   0  0  1  0  0  0  0  0  0  0  0  0
  -29.4857  -23.6362    9.9046 C   0  0  2  0  0  0  0  0  0  0  0  0
  -25.3148  -24.7005   11.9746 C   0  0  0  0  0  0  0  0  0  0  0  0
  -25.8504  -11.5732   20.2790 N   0  0  0  0  0  0  0  0  0  0  0  0
  -26.1943  -12.8666   20.1572 N   0  0  0  0  0  0  0  0  0  0  0  0
  -27.7105  -26.0591   14.2723 N   0  0  0  0  0  0  0  0  0  0  0  0
  -29.9102  -13.7390   20.3563 N   0  0  0  0  0  0  0  0  0  0  0  0
  -25.3731  -15.0725   20.4223 N   0  0  0  0  0  0  0  0  0  0  0  0
  -21.8566  -12.5013   21.6139 N   0  0  0  0  0  0  0  0  0  0  0  0
  -26.3090  -28.8266   16.0349 N   0  0  0  0  0  0  0  0  0  0  0  0
  -27.7264  -24.6105   11.2130 N   0  0  0  0  0  0  0  0  0  0  0  0
  -30.0349  -15.7996   21.5105 N   0  0  0  0  0  0  0  0  0  0  0  0
  -30.8875  -23.2033   10.1666 N   0  3  0  0  0  0  0  0  0  0  0  0
  -22.5770  -14.6617   21.3442 O   0  0  0  0  0  0  0  0  0  0  0  0
  -26.0868  -26.5251   16.3114 O   0  0  0  0  0  0  0  0  0  0  0  0
  -27.0173  -27.1508   12.3322 O   0  0  0  0  0  0  0  0  0  0  0  0
  -28.8678  -22.7881   12.0809 O   0  0  0  0  0  0  0  0  0  0  0  0
  -31.7829  -15.0982   20.2030 O   0  0  0  0  0  0  0  0  0  0  0  0
  -21.7239   -6.9325   21.6882 O   0  0  0  0  0  0  0  0  0  0  0  0
  -30.0937  -22.5802   18.7746 O   0  0  0  0  0  0  0  0  0  1  0  0
  -18.7576   -6.6701   26.3289 F   0  0  0  0  0  0  0  0  0  0  0  0
  -27.6159  -20.4075   20.1938 F   0  0  0  0  0  0  0  0  0  0  0  0
  -22.2312   -4.9891   23.5878 F   0  0  0  0  0  0  0  0  0  0  0  0
  -32.2536  -20.1623   18.0885 Cl  0  0  0  0  0  0  0  0  0  0  0  0
  1  2  1  0  0  0  0
  1  5  2  0  0  0  0
  2  6  2  0  0  0  0
  3  8  2  0  0  0  0
  3 17  1  0  0  0  0
  4  9  1  0  0  0  0
  4 17  2  0  0  0  0
  5 19  1  0  0  0  0
  6 21  1  0  0  0  0
  7 10  2  0  0  0  0
  7 20  1  0  0  0  0
  8 25  1  0  0  0  0
  9 25  2  0  0  0  0
 10 26  1  0  0  0  0
 11 12  2  0  0  0  0
 11 27  1  0  0  0  0
 12 28  1  0  0  0  0
 13 22  1  0  0  0  0
 13 26  2  0  0  0  0
 14 23  1  0  0  0  0
 14 29  2  0  0  0  0
 15 23  2  0  0  0  0
 15 31  1  0  0  0  0
 16 28  2  0  0  0  0
 16 30  1  0  0  0  0
 17 32  1  0  0  0  0
 18 32  1  0  0  0  0
 18 33  2  0  0  0  0
 18 34  1  0  0  0  0
 19 21  2  0  0  0  0
 19 39  1  0  0  0  0
 20 22  2  0  0  0  0
 20 40  1  0  0  0  0
 21 48  1  0  0  0  0
 22 41  1  0  0  0  0
 23 56  1  0  0  0  0
 24 29  1  0  0  0  0
 24 31  2  0  0  0  0
 24 57  1  0  0  0  0
 25 76  1  0  0  0  0
 26 77  1  0  0  0  0
 27 30  2  0  0  0  0
 27 76  1  0  0  0  0
 28 78  1  0  0  0  0
 29 79  1  0  0  0  0
 30 80  1  0  0  0  0
 31 81  1  0  0  0  0
 32 61  2  0  0  0  0
 33 62  1  0  0  0  0
 33 65  1  0  0  0  0
 34 66  1  0  0  0  0
 34 71  2  0  0  0  0
 35 49  1  0  0  0  0
 35 67  1  0  0  0  0
 35 72  2  0  0  0  0
 36 58  1  0  0  0  0
 36 63  1  0  0  0  0
 36 73  2  0  0  0  0
 37 59  1  0  0  0  0
 37 68  1  0  0  0  0
 37 74  2  0  0  0  0
 38 64  1  0  0  0  0
 38 69  1  0  0  0  0
 38 75  2  0  0  0  0
 39 42  1  0  0  0  0
 40 49  1  0  0  0  0
 41 63  1  0  0  0  0
 42 44  1  0  0  0  0
 43 45  1  0  0  0  0
 43 46  1  0  0  0  0
 44 48  1  0  0  0  0
 45 50  1  0  0  0  0
 46 64  1  0  0  0  0
 47 50  1  0  0  0  0
 47 64  1  0  0  0  0
 48 67  1  0  0  0  0
 49 63  1  0  0  0  0
 50 62  1  0  0  0  0
 51 59  1  0  0  0  0
 52 60  1  0  0  0  0
 53 60  1  0  0  0  0
 54 60  1  0  0  0  0
 55 70  1  0  0  0  0
 56 69  1  0  0  0  0
 57 77  1  0  0  0  0
 58 60  1  0  0  0  0
 58 68  1  0  0  0  0
 59 70  1  0  0  0  0
 61 62  1  0  0  0  0
M  CHG  1  70   1
M  ISO  4  38 100  57 101  69 100  77 101
M  END
> <Batch ID>
0030

> <Smiles>
CNC(C)C(=O)NC(C(=O)N1Cc2cc([101O:1][101CH2:1]c3c(F)cc(C[100NH:0][100C:0](=O)N4CCCC(n5nc(-c6ccc(Oc7ccc(F)cc7F)cc6)c(C(N)=O)c5N)C4)cc3Cl)ccc2CC1C(=O)NC1CCCc2ccccc21)C(C)(C)C

> <Shape>
0.238

> <Color>
0.204

> <Negative vol penalty>
0.000

$$$$

  -OEChem-04042321363D

 88 97  0     1  0  0  0  0  0999 V2000
  -31.4945  -31.5043   14.9441 C   0  0  0  0  0  0  0  0  0  0  0  0
  -31.4307  -30.2869   15.6144 C   0  0  0  0  0  0  0  0  0  0  0  0
  -22.0460  -11.0093   21.0661 C   0  0  0  0  0  0  0  0  0  0  0  0
  -20.9111  -12.0344   19.1957 C   0  0  0  0  0  0  0  0  0  0  0  0
  -30.9187  -32.6412   15.5096 C   0  0  0  0  0  0  0  0  0  0  0  0
  -30.7920  -30.2060   16.8513 C   0  0  0  0  0  0  0  0  0  0  0  0
  -27.6885  -26.1156   17.2104 C   0  0  0  0  0  0  0  0  0  0  0  0
  -28.7245  -21.3677   21.1360 C   0  0  0  0  0  0  0  0  0  0  0  0
  -21.2331   -9.8826   20.9419 C   0  0  0  0  0  0  0  0  0  0  0  0
  -20.0982  -10.9077   19.0715 C   0  0  0  0  0  0  0  0  0  0  0  0
  -28.2624  -24.8676   17.4488 C   0  0  0  0  0  0  0  0  0  0  0  0
  -18.0858   -8.9781   21.7789 C   0  0  0  0  0  0  0  0  0  0  0  0
  -17.5388   -8.4427   22.9450 C   0  0  0  0  0  0  0  0  0  0  0  0
  -27.4744  -21.3781   21.7546 C   0  0  0  0  0  0  0  0  0  0  0  0
  -27.7450  -25.0845   19.7948 C   0  0  0  0  0  0  0  0  0  0  0  0
  -27.8649  -19.8960   19.4236 C   0  0  0  0  0  0  0  0  0  0  0  0
  -18.6664   -6.3501   22.5132 C   0  0  0  0  0  0  0  0  0  0  0  0
  -21.8850  -12.0852   20.1930 C   0  0  0  0  0  0  0  0  0  0  0  0
  -24.1274  -13.3011   20.2224 C   0  0  0  0  0  0  0  0  0  0  0  0
  -30.2642  -32.5722   16.7496 C   0  0  0  0  0  0  0  0  0  0  0  0
  -27.1468  -26.8638   18.2656 C   0  0  0  0  0  0  0  0  0  0  0  0
  -30.2081  -31.3434   17.4346 C   0  0  0  0  0  0  0  0  0  0  0  0
  -27.1606  -26.3396   19.5663 C   0  0  0  0  0  0  0  0  0  0  0  0
  -26.6148  -19.9064   20.0422 C   0  0  0  0  0  0  0  0  0  0  0  0
  -28.9197  -20.6267   19.9704 C   0  0  0  0  0  0  0  0  0  0  0  0
  -20.2592   -9.8318   19.9445 C   0  0  0  0  0  0  0  0  0  0  0  0
  -28.2927  -24.3529   18.7415 C   0  0  0  0  0  0  0  0  0  0  0  0
  -18.9230   -8.1994   20.9799 C   0  0  0  0  0  0  0  0  0  0  0  0
  -17.8291   -7.1288   23.3122 C   0  0  0  0  0  0  0  0  0  0  0  0
  -19.2133   -6.8854   21.3471 C   0  0  0  0  0  0  0  0  0  0  0  0
  -26.4195  -20.6475   21.2077 C   0  0  0  0  0  0  0  0  0  0  0  0
  -22.7240  -13.2495   20.3212 C   0  0  0  0  0  0  0  0  0  0  0  0
  -24.4369  -14.6250   20.4173 C   0  0  0  0  0  0  0  0  0  0  0  0
  -30.8260  -21.7985   18.8510 C   0  0  0  0  0  0  0  0  0  0  0  0
  -30.8660  -19.3587   19.2533 C   0  0  0  0  0  0  0  0  0  0  0  0
  -30.1699  -22.9598   18.6613 C   0  0  0  0  0  0  0  0  0  1  0  0
  -25.0672  -12.2466   19.9764 C   0  0  0  0  0  0  0  0  0  0  0  0
  -27.6900  -29.7226   19.5991 C   0  0  0  0  0  0  0  0  0  0  0  0
  -24.9751  -28.8589   21.3128 C   0  0  0  0  0  0  0  0  0  0  0  0
  -24.7192  -32.0724   22.4297 C   0  0  0  0  0  0  0  0  0  0  0  0
  -23.1725  -19.9861   19.0113 C   0  0  0  0  0  0  0  0  0  0  0  0
  -29.6981  -33.8378   17.3431 C   0  0  0  0  0  0  0  0  0  0  0  0
  -26.5050  -28.1951   17.9823 C   0  0  0  0  0  0  0  0  0  0  0  0
  -26.5892  -27.1013   20.7315 C   0  0  0  0  0  0  0  0  0  0  0  0
  -32.2825  -21.7758   18.4473 C   0  0  0  0  0  0  0  0  0  0  0  0
  -32.1904  -19.3304   18.5260 C   0  0  0  0  0  0  0  0  0  0  0  0
  -28.7133  -33.5888   18.4826 C   0  0  0  0  0  0  0  0  0  0  0  0
  -33.0136  -20.5345   18.9144 C   0  0  0  0  0  0  0  0  0  0  0  0
  -21.6013  -18.4876   22.0092 C   0  0  0  0  0  0  0  0  0  0  0  0
  -29.2751  -32.5598   19.4584 C   0  0  0  0  0  0  0  0  0  0  0  0
  -21.8120  -16.9915   21.7831 C   0  0  0  0  0  0  0  0  0  0  0  0
  -21.5205  -19.2544   20.6927 C   0  0  0  0  0  0  0  0  0  0  0  0
  -22.8956  -17.5351   19.5671 C   0  0  0  0  0  0  0  0  0  0  0  0
  -29.5024  -31.2102   18.7667 C   0  0  1  0  0  0  0  0  0  0  0  0
  -26.3831  -29.0885   19.2150 C   0  0  1  0  0  0  0  0  0  0  0  0
  -23.0279  -16.7399   20.8746 C   0  0  2  0  0  0  0  0  0  0  0  0
  -23.1773  -33.6054   23.6826 C   0  0  0  0  0  0  0  0  0  0  0  0
  -23.1966  -29.0819   18.8444 C   0  0  0  0  0  0  0  0  0  0  0  0
  -22.3078  -31.2333   19.7661 C   0  0  0  0  0  0  0  0  0  0  0  0
  -21.9670  -29.1051   21.0220 C   0  0  0  0  0  0  0  0  0  0  0  0
  -25.1192  -21.0002   17.8882 C   0  0  0  0  0  0  0  0  0  0  0  0
  -26.7207  -32.5334   24.5605 C   0  0  0  0  0  0  0  0  0  0  0  0
  -25.5102  -19.1106   19.4251 C   0  0  0  0  0  0  0  0  0  0  0  0
  -24.2722  -30.1401   20.9394 C   0  0  1  0  0  0  0  0  0  0  0  0
  -24.3480  -32.6405   23.7876 C   0  0  2  0  0  0  0  0  0  0  0  0
  -22.9638  -29.8867   20.1387 C   0  0  0  0  0  0  0  0  0  0  0  0
  -22.1797  -14.4455   20.5604 N   0  0  0  0  0  0  0  0  0  0  0  0
  -23.2465  -15.2611   20.6136 N   0  0  0  0  0  0  0  0  0  0  0  0
  -30.2171  -20.6169   19.3280 N   0  0  0  0  0  0  0  0  0  0  0  0
  -25.9008  -28.3533   20.3911 N   0  0  0  0  0  0  0  0  0  0  0  0
  -22.6666  -18.9636   19.8307 N   0  0  0  0  0  0  0  0  0  0  0  0
  -25.6084  -15.2954   20.4382 N   0  0  0  0  0  0  0  0  0  0  0  0
  -25.4124  -11.9554   18.6496 N   0  0  0  0  0  0  0  0  0  0  0  0
  -28.2480  -30.5064   18.6072 N   0  0  0  0  0  0  0  0  0  0  0  0
  -24.0781  -30.8767   22.1837 N   0  0  0  0  0  0  0  0  0  0  0  0
  -24.5455  -19.9552   18.7240 N   0  0  0  0  0  0  0  0  0  0  0  0
  -25.5060  -33.3690   24.3785 N   0  3  0  0  0  0  0  0  0  0  0  0
  -30.4307  -18.3014   19.7191 O   0  0  0  0  0  0  0  0  0  0  0  0
  -25.5729  -11.5714   20.9047 O   0  0  0  0  0  0  0  0  0  0  0  0
  -28.1568  -29.5173   20.7134 O   0  0  0  0  0  0  0  0  0  0  0  0
  -24.7069  -28.3153   22.3878 O   0  0  0  0  0  0  0  0  0  0  0  0
  -25.4970  -32.6351   21.6623 O   0  0  0  0  0  0  0  0  0  0  0  0
  -22.4405  -20.8813   18.5700 O   0  0  0  0  0  0  0  0  0  0  0  0
  -19.4659   -8.7325   19.8229 O   0  0  0  0  0  0  0  0  0  0  0  0
  -28.8517  -23.1347   18.9769 O   0  0  0  0  0  0  0  0  0  1  0  0
  -17.3050   -6.6153   24.4329 F   0  0  0  0  0  0  0  0  0  0  0  0
  -20.0180   -6.1328   20.5842 F   0  0  0  0  0  0  0  0  0  0  0  0
  -24.8870  -20.6852   22.0009 Cl  0  0  0  0  0  0  0  0  0  0  0  0
  1  2  1  0  0  0  0
  1  5  2  0  0  0  0
  2  6  2  0  0  0  0
  3  9  2  0  0  0  0
  3 18  1  0  0  0  0
  4 10  1  0  0  0  0
  4 18  2  0  0  0  0
  5 20  1  0  0  0  0
  6 22  1  0  0  0  0
  7 11  2  0  0  0  0
  7 21  1  0  0  0  0
  8 14  2  0  0  0  0
  8 25  1  0  0  0  0
  9 26  1  0  0  0  0
 10 26  2  0  0  0  0
 11 27  1  0  0  0  0
 12 13  2  0  0  0  0
 12 28  1  0  0  0  0
 13 29  1  0  0  0  0
 14 31  1  0  0  0  0
 15 23  1  0  0  0  0
 15 27  2  0  0  0  0
 16 24  1  0  0  0  0
 16 25  2  0  0  0  0
 17 29  2  0  0  0  0
 17 30  1  0  0  0  0
 18 32  1  0  0  0  0
 19 32  1  0  0  0  0
 19 33  2  0  0  0  0
 19 37  1  0  0  0  0
 20 22  2  0  0  0  0
 20 42  1  0  0  0  0
 21 23  2  0  0  0  0
 21 43  1  0  0  0  0
 22 54  1  0  0  0  0
 23 44  1  0  0  0  0
 24 31  2  0  0  0  0
 24 63  1  0  0  0  0
 25 69  1  0  0  0  0
 26 84  1  0  0  0  0
 27 85  1  0  0  0  0
 28 30  2  0  0  0  0
 28 84  1  0  0  0  0
 29 86  1  0  0  0  0
 30 87  1  0  0  0  0
 31 88  1  0  0  0  0
 32 67  2  0  0  0  0
 33 68  1  0  0  0  0
 33 72  1  0  0  0  0
 34 36  2  0  0  0  0
 34 45  1  0  0  0  0
 34 69  1  0  0  0  0
 35 46  1  0  0  0  0
 35 69  1  0  0  0  0
 35 78  2  0  0  0  0
 36 85  1  0  0  0  0
 37 73  1  0  0  0  0
 37 79  2  0  0  0  0
 38 55  1  0  0  0  0
 38 74  1  0  0  0  0
 38 80  2  0  0  0  0
 39 64  1  0  0  0  0
 39 70  1  0  0  0  0
 39 81  2  0  0  0  0
 40 65  1  0  0  0  0
 40 75  1  0  0  0  0
 40 82  2  0  0  0  0
 41 71  1  0  0  0  0
 41 76  1  0  0  0  0
 41 83  2  0  0  0  0
 42 47  1  0  0  0  0
 43 55  1  0  0  0  0
 44 70  1  0  0  0  0
 45 48  1  0  0  0  0
 46 48  1  0  0  0  0
 47 50  1  0  0  0  0
 49 51  1  0  0  0  0
 49 52  1  0  0  0  0
 50 54  1  0  0  0  0
 51 56  1  0  0  0  0
 52 71  1  0  0  0  0
 53 56  1  0  0  0  0
 53 71  1  0  0  0  0
 54 74  1  0  0  0  0
 55 70  1  0  0  0  0
 56 68  1  0  0  0  0
 57 65  1  0  0  0  0
 58 66  1  0  0  0  0
 59 66  1  0  0  0  0
 60 66  1  0  0  0  0
 61 76  1  0  0  0  0
 62 77  1  0  0  0  0
 63 76  1  0  0  0  0
 64 66  1  0  0  0  0
 64 75  1  0  0  0  0
 65 77  1  0  0  0  0
 67 68  1  0  0  0  0
M  CHG  1  77   1
M  ISO  4  36 101  41 100  76 100  85 101
M  END
> <Batch ID>
0030

> <Smiles>
CNC(C)C(=O)NC(C(=O)N1Cc2cc([101O:1][101CH:1]=C3CCCC(=O)N3c3ccc(Cl)c(C[100N:0](C)[100C:0](=O)N4CCCC(n5nc(-c6ccc(Oc7ccc(F)cc7F)cc6)c(C(N)=O)c5N)C4)c3)ccc2CC1C(=O)NC1CCCc2ccccc21)C(C)(C)C

> <Shape>
0.194

> <Color>
0.130

> <Negative vol penalty>
0.000

$$$$

  -OEChem-04042321363D

 86 95  0     1  0  0  0  0  0999 V2000
  -45.5597  -16.5357   29.2556 C   0  0  0  0  0  0  0  0  0  0  0  0
  -44.2232  -16.9191   29.2082 C   0  0  0  0  0  0  0  0  0  0  0  0
  -23.0752   -9.8683   19.9399 C   0  0  0  0  0  0  0  0  0  0  0  0
  -23.8345   -9.8741   22.2335 C   0  0  0  0  0  0  0  0  0  0  0  0
  -46.3025  -16.4544   28.0786 C   0  0  0  0  0  0  0  0  0  0  0  0
  -43.6291  -17.2225   27.9837 C   0  0  0  0  0  0  0  0  0  0  0  0
  -37.8283  -16.1480   26.3397 C   0  0  0  0  0  0  0  0  0  0  0  0
  -22.3310   -8.7153   20.1892 C   0  0  0  0  0  0  0  0  0  0  0  0
  -23.0903   -8.7211   22.4828 C   0  0  0  0  0  0  0  0  0  0  0  0
  -36.6964  -16.9613   26.3081 C   0  0  0  0  0  0  0  0  0  0  0  0
  -19.8618   -7.9238   23.0842 C   0  0  0  0  0  0  0  0  0  0  0  0
  -19.1046   -7.8835   24.2549 C   0  0  0  0  0  0  0  0  0  0  0  0
  -37.0863  -17.4029   23.9688 C   0  0  0  0  0  0  0  0  0  0  0  0
  -31.4525  -19.1400   21.4670 C   0  0  0  0  0  0  0  0  0  0  0  0
  -31.2100  -18.3958   23.7526 C   0  0  0  0  0  0  0  0  0  0  0  0
  -20.3453   -5.9455   24.9908 C   0  0  0  0  0  0  0  0  0  0  0  0
  -23.8270  -10.4478   20.9621 C   0  0  0  0  0  0  0  0  0  0  0  0
  -24.1695  -12.9729   20.8432 C   0  0  0  0  0  0  0  0  0  0  0  0
  -45.7146  -16.7476   26.8380 C   0  0  0  0  0  0  0  0  0  0  0  0
  -38.6053  -15.9645   25.1868 C   0  0  0  0  0  0  0  0  0  0  0  0
  -44.3651  -17.1463   26.7891 C   0  0  0  0  0  0  0  0  0  0  0  0
  -38.2262  -16.5848   23.9878 C   0  0  0  0  0  0  0  0  0  0  0  0
  -31.5797  -19.3793   22.8352 C   0  0  0  0  0  0  0  0  0  0  0  0
  -30.9555  -17.9172   21.0160 C   0  0  0  0  0  0  0  0  0  0  0  0
  -30.7130  -17.1729   23.3017 C   0  0  0  0  0  0  0  0  0  0  0  0
  -30.5858  -16.9336   21.9334 C   0  0  0  0  0  0  0  0  0  0  0  0
  -22.3385   -8.1416   21.4606 C   0  0  0  0  0  0  0  0  0  0  0  0
  -36.3268  -17.5912   25.1232 C   0  0  0  0  0  0  0  0  0  0  0  0
  -20.8608   -6.9748   22.8668 C   0  0  0  0  0  0  0  0  0  0  0  0
  -19.3464   -6.8944   25.2083 C   0  0  0  0  0  0  0  0  0  0  0  0
  -21.1026   -5.9857   23.8201 C   0  0  0  0  0  0  0  0  0  0  0  0
  -24.5965  -11.6386   20.7050 C   0  0  0  0  0  0  0  0  0  0  0  0
  -25.2619  -13.7223   20.4805 C   0  0  0  0  0  0  0  0  0  0  0  0
  -33.4477  -20.8929   25.4512 C   0  0  0  0  0  0  0  0  0  0  0  0
  -22.8990  -13.4888   21.2621 C   0  0  0  0  0  0  0  0  0  0  0  0
  -41.6132  -16.6056   24.3834 C   0  0  0  0  0  0  0  0  0  0  0  0
  -40.8278  -14.9846   21.6857 C   0  0  0  0  0  0  0  0  0  0  0  0
  -38.3861  -13.9227   19.5509 C   0  0  0  0  0  0  0  0  0  0  0  0
  -30.7283  -14.7664   20.6569 C   0  0  0  0  0  0  0  0  0  0  0  0
  -46.5706  -16.6913   25.5975 C   0  0  0  0  0  0  0  0  0  0  0  0
  -39.8083  -15.0627   25.2308 C   0  0  0  0  0  0  0  0  0  0  0  0
  -39.0150  -16.4039   22.7175 C   0  0  0  0  0  0  0  0  0  0  0  0
  -34.8909  -20.6602   25.8351 C   0  0  0  0  0  0  0  0  0  0  0  0
  -45.7642  -16.6670   24.3016 C   0  0  0  0  0  0  0  0  0  0  0  0
  -29.6139  -12.3539   18.2873 C   0  0  0  0  0  0  0  0  0  0  0  0
  -44.6668  -17.7259   24.3358 C   0  0  0  0  0  0  0  0  0  0  0  0
  -28.1740  -12.0625   18.7165 C   0  0  0  0  0  0  0  0  0  0  0  0
  -30.5288  -12.5820   19.4893 C   0  0  0  0  0  0  0  0  0  0  0  0
  -28.6217  -13.3063   20.8704 C   0  0  0  0  0  0  0  0  0  0  0  0
  -34.5509  -20.0719   23.5244 C   0  0  0  0  0  0  0  0  0  0  0  0
  -43.6783  -17.4594   25.4774 C   0  0  1  0  0  0  0  0  0  0  0  0
  -40.8170  -15.3578   24.1249 C   0  0  1  0  0  0  0  0  0  0  0  0
  -27.6491  -13.1338   19.6923 C   0  0  2  0  0  0  0  0  0  0  0  0
  -35.4166  -19.7498   24.7285 C   0  0  2  0  0  0  0  0  0  1  0  0
  -30.8303  -17.6906   19.5440 C   0  0  0  0  0  0  0  0  0  0  0  0
  -30.3257  -16.1385   24.3087 C   0  0  0  0  0  0  0  0  0  0  0  0
  -38.0549  -12.6500   17.4136 C   0  0  0  0  0  0  0  0  0  0  0  0
  -41.8126  -17.3976   20.0989 C   0  0  0  0  0  0  0  0  0  0  0  0
  -40.6060  -16.4892   18.1021 C   0  0  0  0  0  0  0  0  0  0  0  0
  -42.4610  -15.1817   19.1377 C   0  0  0  0  0  0  0  0  0  0  0  0
  -36.7336  -11.8680   20.8948 C   0  0  0  0  0  0  0  0  0  0  0  0
  -32.1144  -20.6956   23.3206 C   0  0  0  0  0  0  0  0  0  0  0  0
  -40.2463  -15.3598   20.3440 C   0  0  1  0  0  0  0  0  0  0  0  0
  -38.1108  -12.5646   18.9310 C   0  0  2  0  0  0  0  0  0  0  0  0
  -41.2675  -16.1122   19.4449 C   0  0  0  0  0  0  0  0  0  0  0  0
  -25.8614  -11.5426   20.2870 N   0  0  0  0  0  0  0  0  0  0  0  0
  -26.2386  -12.8261   20.1593 N   0  0  0  0  0  0  0  0  0  0  0  0
  -33.3139  -20.5336   24.1138 N   0  0  0  0  0  0  0  0  0  0  0  0
  -40.1867  -15.5176   22.8129 N   0  0  0  0  0  0  0  0  0  0  0  0
  -29.9698  -13.6126   20.3670 N   0  0  0  0  0  0  0  0  0  0  0  0
  -25.4727  -15.0537   20.4081 N   0  0  0  0  0  0  0  0  0  0  0  0
  -21.8868  -12.5798   21.5987 N   0  0  0  0  0  0  0  0  0  0  0  0
  -30.0810  -15.6913   21.4756 N   0  0  0  0  0  0  0  0  0  0  0  0
  -42.7651  -16.3961   25.1173 N   0  0  0  0  0  0  0  0  0  0  0  0
  -39.7338  -14.1244   19.7613 N   0  0  0  0  0  0  0  0  0  0  0  0
  -36.8099  -12.0263   19.4197 N   0  3  0  0  0  0  0  0  0  0  0  0
  -32.5982  -21.3569   26.1975 O   0  0  0  0  0  0  0  0  0  0  0  0
  -22.6631  -14.7195   21.3199 O   0  0  0  0  0  0  0  0  0  0  0  0
  -41.2128  -17.6788   23.9479 O   0  0  0  0  0  0  0  0  0  0  0  0
  -41.8102  -14.2401   21.7320 O   0  0  0  0  0  0  0  0  0  0  0  0
  -37.4950  -14.7260   19.8180 O   0  0  0  0  0  0  0  0  0  0  0  0
  -31.8576  -14.9351   20.1896 O   0  0  0  0  0  0  0  0  0  0  0  0
  -21.6122   -7.0166   21.7043 O   0  0  0  0  0  0  0  0  0  0  0  0
  -35.2228  -18.3861   25.0898 O   0  0  0  0  0  0  0  0  0  1  0  0
  -18.6201   -6.8568   26.3331 F   0  0  0  0  0  0  0  0  0  0  0  0
  -22.0617   -5.0721   23.6173 F   0  0  0  0  0  0  0  0  0  0  0  0
  1  2  1  0  0  0  0
  1  5  2  0  0  0  0
  2  6  2  0  0  0  0
  3  8  2  0  0  0  0
  3 17  1  0  0  0  0
  4  9  1  0  0  0  0
  4 17  2  0  0  0  0
  5 19  1  0  0  0  0
  6 21  1  0  0  0  0
  7 10  2  0  0  0  0
  7 20  1  0  0  0  0
  8 27  1  0  0  0  0
  9 27  2  0  0  0  0
 10 28  1  0  0  0  0
 11 12  2  0  0  0  0
 11 29  1  0  0  0  0
 12 30  1  0  0  0  0
 13 22  1  0  0  0  0
 13 28  2  0  0  0  0
 14 23  1  0  0  0  0
 14 24  2  0  0  0  0
 15 23  2  0  0  0  0
 15 25  1  0  0  0  0
 16 30  2  0  0  0  0
 16 31  1  0  0  0  0
 17 32  1  0  0  0  0
 18 32  1  0  0  0  0
 18 33  2  0  0  0  0
 18 35  1  0  0  0  0
 19 21  2  0  0  0  0
 19 40  1  0  0  0  0
 20 22  2  0  0  0  0
 20 41  1  0  0  0  0
 21 51  1  0  0  0  0
 22 42  1  0  0  0  0
 23 62  1  0  0  0  0
 24 26  1  0  0  0  0
 24 55  1  0  0  0  0
 25 26  2  0  0  0  0
 25 56  1  0  0  0  0
 26 73  1  0  0  0  0
 27 83  1  0  0  0  0
 28 84  1  0  0  0  0
 29 31  2  0  0  0  0
 29 83  1  0  0  0  0
 30 85  1  0  0  0  0
 31 86  1  0  0  0  0
 32 66  2  0  0  0  0
 33 67  1  0  0  0  0
 33 71  1  0  0  0  0
 34 43  1  0  0  0  0
 34 68  1  0  0  0  0
 34 77  2  0  0  0  0
 35 72  1  0  0  0  0
 35 78  2  0  0  0  0
 36 52  1  0  0  0  0
 36 74  1  0  0  0  0
 36 79  2  0  0  0  0
 37 63  1  0  0  0  0
 37 69  1  0  0  0  0
 37 80  2  0  0  0  0
 38 64  1  0  0  0  0
 38 75  1  0  0  0  0
 38 81  2  0  0  0  0
 39 70  1  0  0  0  0
 39 73  1  0  0  0  0
 39 82  2  0  0  0  0
 40 44  1  0  0  0  0
 41 52  1  0  0  0  0
 42 69  1  0  0  0  0
 43 54  1  0  0  0  0
 44 46  1  0  0  0  0
 45 47  1  0  0  0  0
 45 48  1  0  0  0  0
 46 51  1  0  0  0  0
 47 53  1  0  0  0  0
 48 70  1  0  0  0  0
 49 53  1  0  0  0  0
 49 70  1  0  0  0  0
 50 54  1  0  0  0  0
 50 68  1  0  0  0  0
 51 74  1  0  0  0  0
 52 69  1  0  0  0  0
 53 67  1  0  0  0  0
 54 84  1  0  0  0  0
 57 64  1  0  0  0  0
 58 65  1  0  0  0  0
 59 65  1  0  0  0  0
 60 65  1  0  0  0  0
 61 76  1  0  0  0  0
 62 68  1  0  0  0  0
 63 65  1  0  0  0  0
 63 75  1  0  0  0  0
 64 76  1  0  0  0  0
 66 67  1  0  0  0  0
M  CHG  1  76   1
M  ISO  4  39 100  54 101  73 100  84 101
M  END
> <Batch ID>
0030

> <Smiles>
CNC(C)C(=O)NC(C(=O)N1Cc2cc([101O:1][101CH:1]3CC(=O)N(Cc4cc(C)c([100NH:0][100C:0](=O)N5CCCC(n6nc(-c7ccc(Oc8ccc(F)cc8F)cc7)c(C(N)=O)c6N)C5)c(C)c4)C3)ccc2CC1C(=O)NC1CCCc2ccccc21)C(C)(C)C

> <Shape>
0.173

> <Color>
0.192

> <Negative vol penalty>
0.000

$$$$

  -OEChem-04042321363D

 87 96  0     1  0  0  0  0  0999 V2000
  -36.8733  -30.5439   15.3951 C   0  0  0  0  0  0  0  0  0  0  0  0
  -35.7374  -29.8830   14.9387 C   0  0  0  0  0  0  0  0  0  0  0  0
  -23.2509  -10.2014   22.1482 C   0  0  0  0  0  0  0  0  0  0  0  0
  -23.5356   -9.5581   19.8369 C   0  0  0  0  0  0  0  0  0  0  0  0
  -37.9470  -29.8133   15.9025 C   0  0  0  0  0  0  0  0  0  0  0  0
  -35.6750  -28.4908   14.9885 C   0  0  0  0  0  0  0  0  0  0  0  0
  -30.4662  -25.1418   18.6688 C   0  0  0  0  0  0  0  0  0  0  0  0
  -22.4850   -9.0574   22.3723 C   0  0  0  0  0  0  0  0  0  0  0  0
  -22.7697   -8.4140   20.0609 C   0  0  0  0  0  0  0  0  0  0  0  0
  -29.3806  -24.4272   19.1757 C   0  0  0  0  0  0  0  0  0  0  0  0
  -23.0254   -5.7597   22.8883 C   0  0  0  0  0  0  0  0  0  0  0  0
  -23.2906   -5.0172   24.0389 C   0  0  0  0  0  0  0  0  0  0  0  0
  -30.4599  -22.3461   18.5826 C   0  0  0  0  0  0  0  0  0  0  0  0
  -28.9733  -18.1024   24.9566 C   0  0  0  0  0  0  0  0  0  0  0  0
  -29.4557  -18.7731   22.2920 C   0  0  0  0  0  0  0  0  0  0  0  0
  -21.0238   -5.3767   24.7934 C   0  0  0  0  0  0  0  0  0  0  0  0
  -23.7761  -10.4518   20.8804 C   0  0  0  0  0  0  0  0  0  0  0  0
  -24.1630  -12.9724   20.8118 C   0  0  0  0  0  0  0  0  0  0  0  0
  -37.8937  -28.4121   15.9675 C   0  0  0  0  0  0  0  0  0  0  0  0
  -31.5609  -24.4600   18.1302 C   0  0  0  0  0  0  0  0  0  0  0  0
  -36.7494  -27.7407   15.4960 C   0  0  0  0  0  0  0  0  0  0  0  0
  -31.5556  -23.0562   18.0846 C   0  0  0  0  0  0  0  0  0  0  0  0
  -29.7751  -17.2804   24.1647 C   0  0  0  0  0  0  0  0  0  0  0  0
  -28.4125  -19.2596   24.4162 C   0  0  0  0  0  0  0  0  0  0  0  0
  -30.0163  -17.6158   22.8324 C   0  0  0  0  0  0  0  0  0  0  0  0
  -28.6538  -19.5950   23.0839 C   0  0  0  0  0  0  0  0  0  0  0  0
  -22.2445   -8.1637   21.3287 C   0  0  0  0  0  0  0  0  0  0  0  0
  -29.3774  -23.0328   19.1325 C   0  0  0  0  0  0  0  0  0  0  0  0
  -21.7594   -6.3108   22.6903 C   0  0  0  0  0  0  0  0  0  0  0  0
  -22.2898   -4.8257   24.9914 C   0  0  0  0  0  0  0  0  0  0  0  0
  -20.7586   -6.1193   23.6428 C   0  0  0  0  0  0  0  0  0  0  0  0
  -24.5668  -11.6337   20.6482 C   0  0  0  0  0  0  0  0  0  0  0  0
  -25.2692  -13.7094   20.4658 C   0  0  0  0  0  0  0  0  0  0  0  0
  -26.8344  -20.7938   21.8831 C   0  0  0  0  0  0  0  0  0  0  0  0
  -25.9030  -19.8202   21.9449 C   0  0  0  0  0  0  0  0  0  0  0  0
  -22.9009  -13.5022   21.2384 C   0  0  0  0  0  0  0  0  0  0  0  0
  -34.9516  -24.6862   16.5402 C   0  0  0  0  0  0  0  0  0  0  0  0
  -35.0510  -22.3467   18.5219 C   0  0  0  0  0  0  0  0  0  0  0  0
  -34.8725  -20.1246   21.1041 C   0  0  0  0  0  0  0  0  0  0  0  0
  -30.7697  -14.6267   20.6857 C   0  0  0  0  0  0  0  0  0  0  0  0
  -39.0980  -27.6629   16.4803 C   0  0  0  0  0  0  0  0  0  0  0  0
  -32.7247  -25.1901   17.5168 C   0  0  0  0  0  0  0  0  0  0  0  0
  -32.7397  -22.3659   17.4646 C   0  0  0  0  0  0  0  0  0  0  0  0
  -26.4392  -22.0401   21.1064 C   0  0  0  0  0  0  0  0  0  0  0  0
  -38.8019  -26.2105   16.8453 C   0  0  0  0  0  0  0  0  0  0  0  0
  -29.5956  -12.3111   18.2493 C   0  0  0  0  0  0  0  0  0  0  0  0
  -37.9882  -25.5385   15.7438 C   0  0  0  0  0  0  0  0  0  0  0  0
  -28.1521  -12.0344   18.6733 C   0  0  0  0  0  0  0  0  0  0  0  0
  -28.5165  -23.1605   21.9064 C   0  0  0  0  0  0  0  0  0  0  0  0
  -30.5136  -12.4914   19.4562 C   0  0  0  0  0  0  0  0  0  0  0  0
  -29.0951  -21.8437   22.4099 C   0  0  0  0  0  0  0  0  0  0  0  0
  -28.6219  -13.2284   20.8533 C   0  0  0  0  0  0  0  0  0  0  0  0
  -36.6339  -26.2330   15.5565 C   0  0  1  0  0  0  0  0  0  0  0  0
  -34.0694  -24.4737   17.7352 C   0  0  1  0  0  0  0  0  0  0  0  0
  -27.6476  -13.0947   19.6704 C   0  0  2  0  0  0  0  0  0  0  0  0
  -27.6038  -22.9404   20.7112 C   0  0  1  0  0  0  0  0  0  1  0  0
  -30.3643  -16.0462   24.7651 C   0  0  0  0  0  0  0  0  0  0  0  0
  -27.5555  -20.1204   25.2863 C   0  0  0  0  0  0  0  0  0  0  0  0
  -36.2426  -18.4187   22.3331 C   0  0  0  0  0  0  0  0  0  0  0  0
  -34.6947  -20.3961   16.2041 C   0  0  0  0  0  0  0  0  0  0  0  0
  -35.1919  -18.5269   17.7937 C   0  0  0  0  0  0  0  0  0  0  0  0
  -36.9182  -20.2699   17.3418 C   0  0  0  0  0  0  0  0  0  0  0  0
  -34.6349  -21.6029   23.6570 C   0  0  0  0  0  0  0  0  0  0  0  0
  -30.8708  -16.7506   21.9655 C   0  0  0  0  0  0  0  0  0  0  0  0
  -34.8938  -20.8624   18.7357 C   0  0  1  0  0  0  0  0  0  0  0  0
  -35.7968  -19.8718   22.2815 C   0  0  2  0  0  0  0  0  0  0  0  0
  -35.4034  -20.0320   17.5240 C   0  0  0  0  0  0  0  0  0  0  0  0
  -25.8308  -11.5238   20.2306 N   0  0  0  0  0  0  0  0  0  0  0  0
  -26.2307  -12.8028   20.1288 N   0  0  0  0  0  0  0  0  0  0  0  0
  -28.0879  -20.7739   22.5143 N   0  0  0  0  0  0  0  0  0  0  0  0
  -33.9856  -23.0131   17.9044 N   0  0  0  0  0  0  0  0  0  0  0  0
  -29.9793  -13.5117   20.3615 N   0  0  0  0  0  0  0  0  0  0  0  0
  -25.5034  -15.0381   20.4199 N   0  0  0  0  0  0  0  0  0  0  0  0
  -21.9286  -13.7763   20.2669 N   0  0  0  0  0  0  0  0  0  0  0  0
  -35.7141  -25.8369   16.6012 N   0  0  0  0  0  0  0  0  0  0  0  0
  -35.5663  -20.5578   19.9940 N   0  0  0  0  0  0  0  0  0  0  0  0
  -30.1851  -15.5490   21.5449 N   0  0  0  0  0  0  0  0  0  0  0  0
  -35.1062  -20.1973   23.5614 N   0  3  0  0  0  0  0  0  0  0  0  0
  -22.6490  -13.7415   22.4437 O   0  0  0  0  0  0  0  0  0  0  0  0
  -34.9431  -23.8661   15.6295 O   0  0  0  0  0  0  0  0  0  0  0  0
  -36.0914  -22.9017   18.8863 O   0  0  0  0  0  0  0  0  0  0  0  0
  -33.6572  -19.9513   21.1622 O   0  0  0  0  0  0  0  0  0  0  0  0
  -31.9097  -14.7909   20.2379 O   0  0  0  0  0  0  0  0  0  0  0  0
  -21.4974   -7.0471   21.5470 O   0  0  0  0  0  0  0  0  0  0  0  0
  -28.3163  -22.3413   19.6332 O   0  0  0  0  0  0  0  0  0  1  0  0
  -22.5442   -4.1113   26.0956 F   0  0  0  0  0  0  0  0  0  0  0  0
  -19.5401   -6.6453   23.4576 F   0  0  0  0  0  0  0  0  0  0  0  0
  1  2  1  0  0  0  0
  1  5  2  0  0  0  0
  2  6  2  0  0  0  0
  3  8  2  0  0  0  0
  3 17  1  0  0  0  0
  4  9  1  0  0  0  0
  4 17  2  0  0  0  0
  5 19  1  0  0  0  0
  6 21  1  0  0  0  0
  7 10  2  0  0  0  0
  7 20  1  0  0  0  0
  8 27  1  0  0  0  0
  9 27  2  0  0  0  0
 10 28  1  0  0  0  0
 11 12  2  0  0  0  0
 11 29  1  0  0  0  0
 12 30  1  0  0  0  0
 13 22  1  0  0  0  0
 13 28  2  0  0  0  0
 14 23  2  0  0  0  0
 14 24  1  0  0  0  0
 15 25  2  0  0  0  0
 15 26  1  0  0  0  0
 16 30  2  0  0  0  0
 16 31  1  0  0  0  0
 17 32  1  0  0  0  0
 18 32  1  0  0  0  0
 18 33  2  0  0  0  0
 18 36  1  0  0  0  0
 19 21  2  0  0  0  0
 19 41  1  0  0  0  0
 20 22  2  0  0  0  0
 20 42  1  0  0  0  0
 21 53  1  0  0  0  0
 22 43  1  0  0  0  0
 23 25  1  0  0  0  0
 23 57  1  0  0  0  0
 24 26  2  0  0  0  0
 24 58  1  0  0  0  0
 25 64  1  0  0  0  0
 26 70  1  0  0  0  0
 27 84  1  0  0  0  0
 28 85  1  0  0  0  0
 29 31  2  0  0  0  0
 29 84  1  0  0  0  0
 30 86  1  0  0  0  0
 31 87  1  0  0  0  0
 32 68  2  0  0  0  0
 33 69  1  0  0  0  0
 33 73  1  0  0  0  0
 34 35  2  0  0  0  0
 34 44  1  0  0  0  0
 34 70  1  0  0  0  0
 36 74  1  0  0  0  0
 36 79  2  0  0  0  0
 37 54  1  0  0  0  0
 37 75  1  0  0  0  0
 37 80  2  0  0  0  0
 38 65  1  0  0  0  0
 38 71  1  0  0  0  0
 38 81  2  0  0  0  0
 39 66  1  0  0  0  0
 39 76  1  0  0  0  0
 39 82  2  0  0  0  0
 40 72  1  0  0  0  0
 40 77  1  0  0  0  0
 40 83  2  0  0  0  0
 41 45  1  0  0  0  0
 42 54  1  0  0  0  0
 43 71  1  0  0  0  0
 44 56  1  0  0  0  0
 45 47  1  0  0  0  0
 46 48  1  0  0  0  0
 46 50  1  0  0  0  0
 47 53  1  0  0  0  0
 48 55  1  0  0  0  0
 49 51  1  0  0  0  0
 49 56  1  0  0  0  0
 50 72  1  0  0  0  0
 51 70  1  0  0  0  0
 52 55  1  0  0  0  0
 52 72  1  0  0  0  0
 53 75  1  0  0  0  0
 54 71  1  0  0  0  0
 55 69  1  0  0  0  0
 56 85  1  0  0  0  0
 59 66  1  0  0  0  0
 60 67  1  0  0  0  0
 61 67  1  0  0  0  0
 62 67  1  0  0  0  0
 63 78  1  0  0  0  0
 64 77  1  0  0  0  0
 65 67  1  0  0  0  0
 65 76  1  0  0  0  0
 66 78  1  0  0  0  0
 68 69  1  0  0  0  0
M  CHG  1  78   1
M  ISO  4  40 100  56 101  77 100  85 101
M  END
> <Batch ID>
0030

> <Smiles>
C=C1C[101CH:1]([101O:1]c2ccc3c(c2)CN(C(=O)C(NC(=O)C(C)NC)C(C)(C)C)C(C(=O)NC2CCCc4ccccc42)C3)CCN1c1cc(C[100NH:0][100C:0](=O)N2CCCC(n3nc(-c4ccc(Oc5ccc(F)cc5F)cc4)c(C(N)=O)c3N)C2)c(C)cc1C

> <Shape>
0.222

> <Color>
0.184

> <Negative vol penalty>
0.000

$$$$

  -OEChem-04042321363D

 86 95  0     1  0  0  0  0  0999 V2000
  -26.9649  -36.1162   20.0760 C   0  0  0  0  0  0  0  0  0  0  0  0
  -27.6953  -35.0122   19.6480 C   0  0  0  0  0  0  0  0  0  0  0  0
  -23.8922   -9.6016   22.4296 C   0  0  0  0  0  0  0  0  0  0  0  0
  -23.1536  -10.2383   20.2191 C   0  0  0  0  0  0  0  0  0  0  0  0
  -26.2710  -36.0658   21.2842 C   0  0  0  0  0  0  0  0  0  0  0  0
  -27.7331  -33.8574   20.4287 C   0  0  0  0  0  0  0  0  0  0  0  0
  -27.9771  -28.0721   18.4348 C   0  0  0  0  0  0  0  0  0  0  0  0
  -28.1408  -21.1097   20.8012 C   0  0  0  0  0  0  0  0  0  0  0  0
  -27.0119  -20.3155   21.0020 C   0  0  0  0  0  0  0  0  0  0  0  0
  -23.1684   -8.4135   22.3292 C   0  0  0  0  0  0  0  0  0  0  0  0
  -22.4298   -9.0501   20.1188 C   0  0  0  0  0  0  0  0  0  0  0  0
  -29.0341  -27.1755   18.2845 C   0  0  0  0  0  0  0  0  0  0  0  0
  -23.5287   -5.3946   20.8496 C   0  0  0  0  0  0  0  0  0  0  0  0
  -24.1572   -4.2166   21.2531 C   0  0  0  0  0  0  0  0  0  0  0  0
  -28.5218  -26.2196   20.4392 C   0  0  0  0  0  0  0  0  0  0  0  0
  -28.7695  -19.7388   18.9137 C   0  0  0  0  0  0  0  0  0  0  0  0
  -22.4368   -3.8672   22.9129 C   0  0  0  0  0  0  0  0  0  0  0  0
  -23.8847  -10.5140   21.3746 C   0  0  0  0  0  0  0  0  0  0  0  0
  -25.9685  -11.9584   21.0934 C   0  0  0  0  0  0  0  0  0  0  0  0
  -26.2925  -34.9064   22.0755 C   0  0  0  0  0  0  0  0  0  0  0  0
  -27.1899  -28.0563   19.5952 C   0  0  0  0  0  0  0  0  0  0  0  0
  -27.0399  -33.7919   21.6493 C   0  0  0  0  0  0  0  0  0  0  0  0
  -27.4537  -27.1152   20.6007 C   0  0  0  0  0  0  0  0  0  0  0  0
  -29.0196  -20.8214   19.7570 C   0  0  0  0  0  0  0  0  0  0  0  0
  -26.7617  -19.2330   20.1587 C   0  0  0  0  0  0  0  0  0  0  0  0
  -22.4372   -8.1377   21.1738 C   0  0  0  0  0  0  0  0  0  0  0  0
  -29.3084  -26.2510   19.2880 C   0  0  0  0  0  0  0  0  0  0  0  0
  -22.3542   -5.8090   21.4777 C   0  0  0  0  0  0  0  0  0  0  0  0
  -23.6113   -3.4529   22.2847 C   0  0  0  0  0  0  0  0  0  0  0  0
  -21.8083   -5.0453   22.5094 C   0  0  0  0  0  0  0  0  0  0  0  0
  -27.6405  -18.9446   19.1145 C   0  0  0  0  0  0  0  0  0  0  0  0
  -24.6317  -11.7418   21.4779 C   0  0  0  0  0  0  0  0  0  0  0  0
  -26.2028  -13.2779   21.3943 C   0  0  0  0  0  0  0  0  0  0  0  0
  -31.2862  -23.3498   18.0807 C   0  0  0  0  0  0  0  0  0  0  0  0
  -34.7387  -22.1010   18.0041 C   0  0  0  0  0  0  0  0  0  0  0  0
  -32.6200  -23.3307   18.0067 C   0  0  0  0  0  0  0  0  0  0  0  0
  -33.4031  -22.1195   18.0782 C   0  0  0  0  0  0  0  0  0  0  0  0
  -26.9139  -11.0483   20.5158 C   0  0  0  0  0  0  0  0  0  0  0  0
  -26.5804  -30.1357   21.9207 C   0  0  0  0  0  0  0  0  0  0  0  0
  -24.4640  -27.8659   22.8649 C   0  0  0  0  0  0  0  0  0  0  0  0
  -23.5372  -24.5815   22.8454 C   0  0  0  0  0  0  0  0  0  0  0  0
  -24.6496  -18.6249   21.3898 C   0  0  0  0  0  0  0  0  0  0  0  0
  -25.5653  -34.9157   23.3968 C   0  0  0  0  0  0  0  0  0  0  0  0
  -26.0366  -29.0123   19.7302 C   0  0  0  0  0  0  0  0  0  0  0  0
  -26.6258  -27.0437   21.8568 C   0  0  0  0  0  0  0  0  0  0  0  0
  -25.3511  -33.5230   23.9839 C   0  0  0  0  0  0  0  0  0  0  0  0
  -23.4483  -16.5896   24.0527 C   0  0  0  0  0  0  0  0  0  0  0  0
  -26.6389  -32.7087   23.9102 C   0  0  0  0  0  0  0  0  0  0  0  0
  -23.7591  -15.1647   23.5886 C   0  0  0  0  0  0  0  0  0  0  0  0
  -23.0281  -17.4860   22.8894 C   0  0  0  0  0  0  0  0  0  0  0  0
  -24.2704  -16.0829   21.2903 C   0  0  0  0  0  0  0  0  0  0  0  0
  -29.2228  -23.3654   18.1011 C   0  0  0  0  0  0  0  0  0  0  0  0
  -27.0851  -32.5125   22.4563 C   0  0  1  0  0  0  0  0  0  0  0  0
  -30.2871  -24.4869   18.0286 C   0  0  1  0  0  0  0  0  0  1  0  0
  -25.6218  -29.2473   21.1794 C   0  0  1  0  0  0  0  0  0  0  0  0
  -24.7609  -15.1595   22.4173 C   0  0  2  0  0  0  0  0  0  0  0  0
  -21.7827  -23.0244   23.7369 C   0  0  0  0  0  0  0  0  0  0  0  0
  -25.7827  -27.9584   25.6149 C   0  0  0  0  0  0  0  0  0  0  0  0
  -24.6653  -25.7820   26.1469 C   0  0  0  0  0  0  0  0  0  0  0  0
  -23.2871  -27.8032   25.6594 C   0  0  0  0  0  0  0  0  0  0  0  0
  -22.6582  -23.8264   20.1222 C   0  0  0  0  0  0  0  0  0  0  0  0
  -30.2339  -21.6759   19.5418 C   0  0  0  0  0  0  0  0  0  0  0  0
  -24.5226  -26.6609   23.7724 C   0  0  1  0  0  0  0  0  0  0  0  0
  -22.2009  -23.9135   22.5761 C   0  0  2  0  0  0  0  0  0  0  0  0
  -24.5814  -27.0535   25.2757 C   0  0  0  0  0  0  0  0  0  0  0  0
  -24.0571  -12.8359   21.9845 N   0  0  0  0  0  0  0  0  0  0  0  0
  -25.0376  -13.7528   21.9205 N   0  0  0  0  0  0  0  0  0  0  0  0
  -25.5130  -28.0037   21.9449 N   0  0  0  0  0  0  0  0  0  0  0  0
  -24.0267  -17.4340   21.8193 N   0  0  0  0  0  0  0  0  0  0  0  0
  -27.2898  -14.0667   21.2574 N   0  0  0  0  0  0  0  0  0  0  0  0
  -26.5084   -9.7291   20.2721 N   0  0  0  0  0  0  0  0  0  0  0  0
  -25.6052  -18.4475   20.3899 N   0  0  0  0  0  0  0  0  0  0  0  0
  -26.2921  -31.4833   21.8188 N   0  0  0  0  0  0  0  0  0  0  0  0
  -23.3799  -25.8264   23.4171 N   0  0  0  0  0  0  0  0  0  0  0  0
  -30.2598  -22.3237   18.2071 N   0  3  2  0  0  0  0  0  0  0  0  0
  -22.2793  -23.0752   21.3465 N   0  3  0  0  0  0  0  0  0  0  0  0
  -28.0888  -11.3904   20.2396 O   0  0  0  0  0  0  0  0  0  0  0  0
  -27.5117  -29.6355   22.5406 O   0  0  0  0  0  0  0  0  0  0  0  0
  -23.5185  -28.6519   22.9637 O   0  0  0  0  0  0  0  0  0  0  0  0
  -24.6130  -24.0503   22.5790 O   0  0  0  0  0  0  0  0  0  0  0  0
  -24.3764  -19.7180   21.8924 O   0  0  0  0  0  0  0  0  0  0  0  0
  -21.7310   -6.9783   21.0754 O   0  0  0  0  0  0  0  0  0  0  0  0
  -30.3400  -25.3752   19.1442 O   0  0  0  0  0  0  0  0  0  1  0  0
  -24.2141   -2.3208   22.6711 F   0  0  0  0  0  0  0  0  0  0  0  0
  -20.6795   -5.4376   23.1158 F   0  0  0  0  0  0  0  0  0  0  0  0
  -27.3688  -17.6135   18.0472 Cl  0  0  0  0  0  0  0  0  0  0  0  0
  1  2  1  0  0  0  0
  1  5  2  0  0  0  0
  2  6  2  0  0  0  0
  3 10  2  0  0  0  0
  3 18  1  0  0  0  0
  4 11  1  0  0  0  0
  4 18  2  0  0  0  0
  5 20  1  0  0  0  0
  6 22  1  0  0  0  0
  7 12  2  0  0  0  0
  7 21  1  0  0  0  0
  8  9  2  0  0  0  0
  8 24  1  0  0  0  0
  9 25  1  0  0  0  0
 10 26  1  0  0  0  0
 11 26  2  0  0  0  0
 12 27  1  0  0  0  0
 13 14  2  0  0  0  0
 13 28  1  0  0  0  0
 14 29  1  0  0  0  0
 15 23  1  0  0  0  0
 15 27  2  0  0  0  0
 16 24  2  0  0  0  0
 16 31  1  0  0  0  0
 17 29  2  0  0  0  0
 17 30  1  0  0  0  0
 18 32  1  0  0  0  0
 19 32  1  0  0  0  0
 19 33  2  0  0  0  0
 19 38  1  0  0  0  0
 20 22  2  0  0  0  0
 20 43  1  0  0  0  0
 21 23  2  0  0  0  0
 21 44  1  0  0  0  0
 22 53  1  0  0  0  0
 23 45  1  0  0  0  0
 24 62  1  0  0  0  0
 25 31  2  0  0  0  0
 25 72  1  0  0  0  0
 26 82  1  0  0  0  0
 27 83  1  0  0  0  0
 28 30  2  0  0  0  0
 28 82  1  0  0  0  0
 29 84  1  0  0  0  0
 30 85  1  0  0  0  0
 31 86  1  0  0  0  0
 32 66  2  0  0  0  0
 33 67  1  0  0  0  0
 33 70  1  0  0  0  0
 34 36  2  0  0  0  0
 34 54  1  0  0  0  0
 34 75  1  0  0  0  0
 35 37  2  0  0  0  0
 36 37  1  0  0  0  0
 38 71  1  0  0  0  0
 38 77  2  0  0  0  0
 39 55  1  0  0  0  0
 39 73  1  0  0  0  0
 39 78  2  0  0  0  0
 40 63  1  0  0  0  0
 40 68  1  0  0  0  0
 40 79  2  0  0  0  0
 41 64  1  0  0  0  0
 41 74  1  0  0  0  0
 41 80  2  0  0  0  0
 42 69  1  0  0  0  0
 42 72  1  0  0  0  0
 42 81  2  0  0  0  0
 43 46  1  0  0  0  0
 44 55  1  0  0  0  0
 45 68  1  0  0  0  0
 46 48  1  0  0  0  0
 47 49  1  0  0  0  0
 47 50  1  0  0  0  0
 48 53  1  0  0  0  0
 49 56  1  0  0  0  0
 50 69  1  0  0  0  0
 51 56  1  0  0  0  0
 51 69  1  0  0  0  0
 52 54  1  0  0  0  0
 52 75  1  0  0  0  0
 53 73  1  0  0  0  0
 54 83  1  0  0  0  0
 55 68  1  0  0  0  0
 56 67  1  0  0  0  0
 57 64  1  0  0  0  0
 58 65  1  0  0  0  0
 59 65  1  0  0  0  0
 60 65  1  0  0  0  0
 61 76  1  0  0  0  0
 62 75  1  0  0  0  0
 63 65  1  0  0  0  0
 63 74  1  0  0  0  0
 64 76  1  0  0  0  0
 66 67  1  0  0  0  0
M  CHG  2  75   1  76   1
M  ISO  4  42 100  54 101  72 100  83 101
M  END
> <Batch ID>
0030

> <Smiles>
C=CC=C1N(Cc2ccc([100NH:0][100C:0](=O)N3CCCC(n4nc(-c5ccc(Oc6ccc(F)cc6F)cc5)c(C(N)=O)c4N)C3)c(Cl)c2)C[101CH:1]1[101O:1]c1ccc2c(c1)CN(C(=O)C(NC(=O)C(C)NC)C(C)(C)C)C(C(=O)NC1CCCc3ccccc31)C2

> <Shape>
0.246

> <Color>
0.083

> <Negative vol penalty>
0.000

$$$$

  -OEChem-04042321363D

 87 96  0     1  0  0  0  0  0999 V2000
  -21.6204  -34.6875   25.5002 C   0  0  0  0  0  0  0  0  0  0  0  0
  -22.2029  -33.6046   26.1509 C   0  0  0  0  0  0  0  0  0  0  0  0
  -22.6700  -10.2713   20.1962 C   0  0  0  0  0  0  0  0  0  0  0  0
  -24.2870   -9.5570   21.8431 C   0  0  0  0  0  0  0  0  0  0  0  0
  -21.1759  -34.5525   24.1856 C   0  0  0  0  0  0  0  0  0  0  0  0
  -22.3403  -32.3857   25.4877 C   0  0  0  0  0  0  0  0  0  0  0  0
  -26.9158  -28.3603   26.0936 C   0  0  0  0  0  0  0  0  0  0  0  0
  -21.9299   -9.1102   20.4193 C   0  0  0  0  0  0  0  0  0  0  0  0
  -23.5469   -8.3959   22.0662 C   0  0  0  0  0  0  0  0  0  0  0  0
  -27.0396  -27.1855   26.8340 C   0  0  0  0  0  0  0  0  0  0  0  0
  -20.7618   -7.5066   23.7613 C   0  0  0  0  0  0  0  0  0  0  0  0
  -20.5484   -7.1203   25.0844 C   0  0  0  0  0  0  0  0  0  0  0  0
  -26.4099  -25.9017   24.8912 C   0  0  0  0  0  0  0  0  0  0  0  0
  -29.3717  -18.9185   22.3313 C   0  0  0  0  0  0  0  0  0  0  0  0
  -28.9226  -18.2221   24.9952 C   0  0  0  0  0  0  0  0  0  0  0  0
  -21.6801   -5.0291   24.6563 C   0  0  0  0  0  0  0  0  0  0  0  0
  -23.8486  -10.4947   20.9081 C   0  0  0  0  0  0  0  0  0  0  0  0
  -24.1847  -13.0228   20.8527 C   0  0  0  0  0  0  0  0  0  0  0  0
  -21.3167  -33.3341   23.5027 C   0  0  0  0  0  0  0  0  0  0  0  0
  -26.5268  -28.3153   24.7471 C   0  0  0  0  0  0  0  0  0  0  0  0
  -21.8961  -32.2339   24.1632 C   0  0  0  0  0  0  0  0  0  0  0  0
  -26.2843  -27.0772   24.1352 C   0  0  0  0  0  0  0  0  0  0  0  0
  -28.5595  -19.7194   23.1341 C   0  0  0  0  0  0  0  0  0  0  0  0
  -29.7348  -17.4212   24.1923 C   0  0  0  0  0  0  0  0  0  0  0  0
  -29.9593  -17.7693   22.8604 C   0  0  0  0  0  0  0  0  0  0  0  0
  -28.3350  -19.3713   24.4660 C   0  0  0  0  0  0  0  0  0  0  0  0
  -22.3683   -8.1726   21.3543 C   0  0  0  0  0  0  0  0  0  0  0  0
  -26.7839  -25.9562   26.2336 C   0  0  0  0  0  0  0  0  0  0  0  0
  -21.4344   -6.6542   22.8856 C   0  0  0  0  0  0  0  0  0  0  0  0
  -21.0075   -5.8815   25.5319 C   0  0  0  0  0  0  0  0  0  0  0  0
  -21.8936   -5.4155   23.3331 C   0  0  0  0  0  0  0  0  0  0  0  0
  -24.6139  -11.6936   20.6776 C   0  0  0  0  0  0  0  0  0  0  0  0
  -25.2733  -13.7839   20.5034 C   0  0  0  0  0  0  0  0  0  0  0  0
  -22.9155  -13.5247   21.2920 C   0  0  0  0  0  0  0  0  0  0  0  0
  -24.0619  -29.4410   23.0855 C   0  0  0  0  0  0  0  0  0  0  0  0
  -25.7548  -28.3183   20.5564 C   0  0  0  0  0  0  0  0  0  0  0  0
  -28.1169  -26.1527   19.3828 C   0  0  0  0  0  0  0  0  0  0  0  0
  -30.7560  -14.8094   20.6888 C   0  0  0  0  0  0  0  0  0  0  0  0
  -20.7782  -33.2226   22.0983 C   0  0  0  0  0  0  0  0  0  0  0  0
  -26.4237  -29.5897   23.9548 C   0  0  0  0  0  0  0  0  0  0  0  0
  -25.8835  -26.9733   22.6870 C   0  0  0  0  0  0  0  0  0  0  0  0
  -21.3011  -32.0050   21.3404 C   0  0  0  0  0  0  0  0  0  0  0  0
  -29.6101  -12.4862   18.2462 C   0  0  0  0  0  0  0  0  0  0  0  0
  -29.8732  -22.5340   27.2109 C   0  0  0  0  0  0  0  0  0  0  0  0
  -21.2176  -30.7567   22.2130 C   0  0  0  0  0  0  0  0  0  0  0  0
  -28.1756  -12.1781   18.6791 C   0  0  0  0  0  0  0  0  0  0  0  0
  -28.9035  -23.6501   27.5763 C   0  0  0  0  0  0  0  0  0  0  0  0
  -30.5333  -12.6773   19.4475 C   0  0  0  0  0  0  0  0  0  0  0  0
  -28.6378  -13.3675   20.8632 C   0  0  0  0  0  0  0  0  0  0  0  0
  -29.1430  -21.2387   26.8855 C   0  0  0  0  0  0  0  0  0  0  0  0
  -27.1279  -22.5468   26.1657 C   0  0  0  0  0  0  0  0  0  0  0  0
  -22.0852  -30.9026   23.4690 C   0  0  1  0  0  0  0  0  0  0  0  0
  -25.5219  -29.4612   22.7310 C   0  0  1  0  0  0  0  0  0  0  0  0
  -27.6575  -13.2219   19.6867 C   0  0  2  0  0  0  0  0  0  0  0  0
  -27.8486  -23.8482   26.4923 C   0  0  1  0  0  0  0  0  0  1  0  0
  -27.9417  -20.9453   22.5460 C   0  0  0  0  0  0  0  0  0  0  0  0
  -30.3525  -16.1952   24.7805 C   0  0  0  0  0  0  0  0  0  0  0  0
  -29.2592  -25.4424   17.2643 C   0  0  0  0  0  0  0  0  0  0  0  0
  -23.2577  -26.7710   19.7316 C   0  0  0  0  0  0  0  0  0  0  0  0
  -24.6988  -25.3856   18.2243 C   0  0  0  0  0  0  0  0  0  0  0  0
  -24.4939  -27.8417   17.8395 C   0  0  0  0  0  0  0  0  0  0  0  0
  -30.7751  -26.9482   20.4124 C   0  0  0  0  0  0  0  0  0  0  0  0
  -30.8243  -16.9268   21.9816 C   0  0  0  0  0  0  0  0  0  0  0  0
  -27.4658  -20.2176   25.3488 C   0  0  0  0  0  0  0  0  0  0  0  0
  -25.8276  -27.0040   19.8173 C   0  0  1  0  0  0  0  0  0  0  0  0
  -29.3136  -26.3637   18.4730 C   0  0  2  0  0  0  0  0  0  0  0  0
  -24.5751  -26.7523   18.9310 C   0  0  0  0  0  0  0  0  0  0  0  0
  -25.8766  -11.6115   20.2501 N   0  0  0  0  0  0  0  0  0  0  0  0
  -26.2502  -12.8988   20.1536 N   0  0  0  0  0  0  0  0  0  0  0  0
  -25.7901  -28.2480   21.9562 N   0  0  0  0  0  0  0  0  0  0  0  0
  -29.9856  -13.6809   20.3633 N   0  0  0  0  0  0  0  0  0  0  0  0
  -25.4807  -15.1173   20.4644 N   0  0  0  0  0  0  0  0  0  0  0  0
  -22.7174  -13.7318   22.6639 N   0  0  0  0  0  0  0  0  0  0  0  0
  -23.4804  -30.6930   23.1467 N   0  0  0  0  0  0  0  0  0  0  0  0
  -27.0872  -27.0188   19.0814 N   0  0  0  0  0  0  0  0  0  0  0  0
  -30.1596  -15.7145   21.5583 N   0  0  0  0  0  0  0  0  0  0  0  0
  -28.1351  -21.4902   25.7893 N   0  3  2  0  0  0  0  0  0  0  0  0
  -30.5797  -26.0953   19.2119 N   0  3  0  0  0  0  0  0  0  0  0  0
  -21.9790  -13.7664   20.4932 O   0  0  0  0  0  0  0  0  0  0  0  0
  -23.5039  -28.3687   23.2869 O   0  0  0  0  0  0  0  0  0  0  0  0
  -25.6769  -29.3692   19.9151 O   0  0  0  0  0  0  0  0  0  0  0  0
  -28.0961  -25.3020   20.2696 O   0  0  0  0  0  0  0  0  0  0  0  0
  -31.8891  -14.9992   20.2338 O   0  0  0  0  0  0  0  0  0  0  0  0
  -21.6462   -7.0396   21.5725 O   0  0  0  0  0  0  0  0  0  0  0  0
  -26.9034  -24.8080   26.9543 O   0  0  0  0  0  0  0  0  0  1  0  0
  -20.8038   -5.5112   26.8030 F   0  0  0  0  0  0  0  0  0  0  0  0
  -22.5414   -4.5928   22.4968 F   0  0  0  0  0  0  0  0  0  0  0  0
  1  2  1  0  0  0  0
  1  5  2  0  0  0  0
  2  6  2  0  0  0  0
  3  8  2  0  0  0  0
  3 17  1  0  0  0  0
  4  9  1  0  0  0  0
  4 17  2  0  0  0  0
  5 19  1  0  0  0  0
  6 21  1  0  0  0  0
  7 10  2  0  0  0  0
  7 20  1  0  0  0  0
  8 27  1  0  0  0  0
  9 27  2  0  0  0  0
 10 28  1  0  0  0  0
 11 12  2  0  0  0  0
 11 29  1  0  0  0  0
 12 30  1  0  0  0  0
 13 22  1  0  0  0  0
 13 28  2  0  0  0  0
 14 23  1  0  0  0  0
 14 25  2  0  0  0  0
 15 24  2  0  0  0  0
 15 26  1  0  0  0  0
 16 30  2  0  0  0  0
 16 31  1  0  0  0  0
 17 32  1  0  0  0  0
 18 32  1  0  0  0  0
 18 33  2  0  0  0  0
 18 34  1  0  0  0  0
 19 21  2  0  0  0  0
 19 39  1  0  0  0  0
 20 22  2  0  0  0  0
 20 40  1  0  0  0  0
 21 52  1  0  0  0  0
 22 41  1  0  0  0  0
 23 26  2  0  0  0  0
 23 56  1  0  0  0  0
 24 25  1  0  0  0  0
 24 57  1  0  0  0  0
 25 63  1  0  0  0  0
 26 64  1  0  0  0  0
 27 84  1  0  0  0  0
 28 85  1  0  0  0  0
 29 31  2  0  0  0  0
 29 84  1  0  0  0  0
 30 86  1  0  0  0  0
 31 87  1  0  0  0  0
 32 68  2  0  0  0  0
 33 69  1  0  0  0  0
 33 72  1  0  0  0  0
 34 73  1  0  0  0  0
 34 79  2  0  0  0  0
 35 53  1  0  0  0  0
 35 74  1  0  0  0  0
 35 80  2  0  0  0  0
 36 65  1  0  0  0  0
 36 70  1  0  0  0  0
 36 81  2  0  0  0  0
 37 66  1  0  0  0  0
 37 75  1  0  0  0  0
 37 82  2  0  0  0  0
 38 71  1  0  0  0  0
 38 76  1  0  0  0  0
 38 83  2  0  0  0  0
 39 42  1  0  0  0  0
 40 53  1  0  0  0  0
 41 70  1  0  0  0  0
 42 45  1  0  0  0  0
 43 46  1  0  0  0  0
 43 48  1  0  0  0  0
 44 47  1  0  0  0  0
 44 50  1  0  0  0  0
 45 52  1  0  0  0  0
 46 54  1  0  0  0  0
 47 55  1  0  0  0  0
 48 71  1  0  0  0  0
 49 54  1  0  0  0  0
 49 71  1  0  0  0  0
 50 77  1  0  0  0  0
 51 55  1  0  0  0  0
 51 77  1  0  0  0  0
 52 74  1  0  0  0  0
 53 70  1  0  0  0  0
 54 69  1  0  0  0  0
 55 85  1  0  0  0  0
 58 66  1  0  0  0  0
 59 67  1  0  0  0  0
 60 67  1  0  0  0  0
 61 67  1  0  0  0  0
 62 78  1  0  0  0  0
 63 76  1  0  0  0  0
 64 77  1  0  0  0  0
 65 67  1  0  0  0  0
 65 75  1  0  0  0  0
 66 78  1  0  0  0  0
 68 69  1  0  0  0  0
M  CHG  2  77   1  78   1
M  ISO  4  38 100  55 101  76 100  85 101
M  END
> <Batch ID>
0030

> <Smiles>
CNC(C)C(=O)NC(C(=O)N1Cc2cc([101O:1][101CH:1]3CCCN(Cc4cc(C)c(C[100NH:0][100C:0](=O)N5CCCC(n6nc(-c7ccc(Oc8ccc(F)cc8F)cc7)c(C(N)=O)c6N)C5)cc4C)C3)ccc2CC1C(=O)NC1CCCc2ccccc21)C(C)(C)C

> <Shape>
0.294

> <Color>
0.196

> <Negative vol penalty>
0.000

$$$$

  -OEChem-04042321363D

 84 93  0     1  0  0  0  0  0999 V2000
  -24.5327  -34.7398   26.7673 C   0  0  0  0  0  0  0  0  0  0  0  0
  -25.4091  -33.9155   26.0688 C   0  0  0  0  0  0  0  0  0  0  0  0
  -33.2090  -21.9820   22.3343 C   0  0  0  0  0  0  0  0  0  0  0  0
  -26.5002  -12.7429   19.8378 C   0  0  0  0  0  0  0  0  0  0  0  0
  -27.6007  -11.3569   18.1931 C   0  0  0  0  0  0  0  0  0  0  0  0
  -23.2180  -34.3307   26.9868 C   0  0  0  0  0  0  0  0  0  0  0  0
  -24.9715  -32.6810   25.5903 C   0  0  0  0  0  0  0  0  0  0  0  0
  -26.7059  -29.9164   20.4082 C   0  0  0  0  0  0  0  0  0  0  0  0
  -32.1467  -22.8394   22.6207 C   0  0  0  0  0  0  0  0  0  0  0  0
  -33.0194  -20.8994   21.4755 C   0  0  0  0  0  0  0  0  0  0  0  0
  -25.3643  -11.9376   19.7564 C   0  0  0  0  0  0  0  0  0  0  0  0
  -26.4647  -10.5516   18.1117 C   0  0  0  0  0  0  0  0  0  0  0  0
  -27.6367  -28.9117   20.1472 C   0  0  0  0  0  0  0  0  0  0  0  0
  -24.3458   -8.9397   20.9431 C   0  0  0  0  0  0  0  0  0  0  0  0
  -23.7354   -8.5573   22.1376 C   0  0  0  0  0  0  0  0  0  0  0  0
  -25.8732  -27.2673   20.2202 C   0  0  0  0  0  0  0  0  0  0  0  0
  -21.6952   -9.6504   21.4448 C   0  0  0  0  0  0  0  0  0  0  0  0
  -27.6184  -12.4526   19.0561 C   0  0  0  0  0  0  0  0  0  0  0  0
  -29.8881  -13.1236   20.0080 C   0  0  0  0  0  0  0  0  0  0  0  0
  -22.7615  -33.0947   26.5025 C   0  0  0  0  0  0  0  0  0  0  0  0
  -25.3512  -29.6022   20.5883 C   0  0  0  0  0  0  0  0  0  0  0  0
  -23.6499  -32.2543   25.8048 C   0  0  0  0  0  0  0  0  0  0  0  0
  -24.9269  -28.2701   20.4808 C   0  0  0  0  0  0  0  0  0  0  0  0
  -30.8948  -22.6141   22.0483 C   0  0  0  0  0  0  0  0  0  0  0  0
  -30.7052  -21.5314   21.1895 C   0  0  0  0  0  0  0  0  0  0  0  0
  -31.7675  -20.6740   20.9031 C   0  0  0  0  0  0  0  0  0  0  0  0
  -25.3465  -10.8419   18.8934 C   0  0  0  0  0  0  0  0  0  0  0  0
  -27.2208  -27.5866   20.0560 C   0  0  0  0  0  0  0  0  0  0  0  0
  -23.6310   -9.6775   19.9995 C   0  0  0  0  0  0  0  0  0  0  0  0
  -22.4100   -8.9126   22.3884 C   0  0  0  0  0  0  0  0  0  0  0  0
  -22.3057  -10.0328   20.2504 C   0  0  0  0  0  0  0  0  0  0  0  0
  -28.7920  -13.2844   19.1394 C   0  0  0  0  0  0  0  0  0  0  0  0
  -30.7300  -14.1626   19.6945 C   0  0  0  0  0  0  0  0  0  0  0  0
  -30.1242  -12.1243   21.0087 C   0  0  0  0  0  0  0  0  0  0  0  0
  -23.2769  -29.9045   22.9777 C   0  0  0  0  0  0  0  0  0  0  0  0
  -21.1581  -28.8619   20.7538 C   0  0  0  0  0  0  0  0  0  0  0  0
  -20.6097  -27.1486   17.8536 C   0  0  0  0  0  0  0  0  0  0  0  0
  -31.1915  -19.7252   18.6753 C   0  0  0  0  0  0  0  0  0  0  0  0
  -21.3450  -32.6747   26.8054 C   0  0  0  0  0  0  0  0  0  0  0  0
  -24.3556  -30.7007   20.8427 C   0  0  0  0  0  0  0  0  0  0  0  0
  -23.4808  -27.8827   20.6460 C   0  0  0  0  0  0  0  0  0  0  0  0
  -20.8551  -31.5159   25.9409 C   0  0  0  0  0  0  0  0  0  0  0  0
  -30.6699  -17.4233   15.8399 C   0  0  0  0  0  0  0  0  0  0  0  0
  -21.9056  -30.4113   25.8837 C   0  0  0  0  0  0  0  0  0  0  0  0
  -30.1623  -16.1536   16.5211 C   0  0  0  0  0  0  0  0  0  0  0  0
  -30.2875  -18.6771   16.6208 C   0  0  0  0  0  0  0  0  0  0  0  0
  -30.2134  -17.3812   18.7292 C   0  0  0  0  0  0  0  0  0  0  0  0
  -30.0473  -25.1203   20.5160 C   0  0  0  0  0  0  0  0  0  0  0  0
  -28.8481  -25.8003   22.0850 C   0  0  0  0  0  0  0  0  0  0  0  0
  -23.2058  -30.9188   25.2486 C   0  0  1  0  0  0  0  0  0  0  0  0
  -23.0805  -30.2065   21.5190 C   0  0  1  0  0  0  0  0  0  0  0  0
  -30.6199  -16.0980   17.9889 C   0  0  1  0  0  0  0  0  0  0  0  0
  -29.2163  -26.4000   20.7166 C   0  0  0  0  0  0  0  0  0  1  0  0
  -29.3602  -21.2938   20.5776 C   0  0  0  0  0  0  0  0  0  0  0  0
  -18.7682  -26.4347   16.3055 C   0  0  0  0  0  0  0  0  0  0  0  0
  -20.3365  -26.6922   22.7355 C   0  0  0  0  0  0  0  0  0  0  0  0
  -19.2361  -25.4777   20.8428 C   0  0  0  0  0  0  0  0  0  0  0  0
  -18.4370  -27.7481   21.4979 C   0  0  0  0  0  0  0  0  0  0  0  0
  -32.0768  -18.2331   20.4528 C   0  0  0  0  0  0  0  0  0  0  0  0
  -21.7717  -28.6574   15.5882 C   0  0  0  0  0  0  0  0  0  0  0  0
  -29.7694  -23.5516   22.3732 C   0  0  0  0  0  0  0  0  0  0  0  0
  -20.6548  -27.5104   20.3075 C   0  0  1  0  0  0  0  0  0  0  0  0
  -19.8097  -27.4996   16.6122 C   0  0  2  0  0  0  0  0  0  0  0  0
  -19.6937  -26.8638   21.3447 C   0  0  0  0  0  0  0  0  0  0  0  0
  -28.9227  -14.3424   18.3346 N   0  0  0  0  0  0  0  0  0  0  0  0
  -30.1109  -14.8558   18.6963 N   0  0  0  0  0  0  0  0  0  0  0  0
  -22.5465  -28.9919   20.8996 N   0  0  0  0  0  0  0  0  0  0  0  0
  -30.6934  -18.5793   18.0234 N   0  0  0  0  0  0  0  0  0  0  0  0
  -31.9319  -14.5418   20.1781 N   0  0  0  0  0  0  0  0  0  0  0  0
  -29.1562  -11.1292   21.2007 N   0  0  0  0  0  0  0  0  0  0  0  0
  -23.0715  -30.9888   23.8094 N   0  0  0  0  0  0  0  0  0  0  0  0
  -20.0639  -27.7099   18.9886 N   0  0  0  0  0  0  0  0  0  0  0  0
  -31.5944  -19.5476   20.0166 N   0  0  0  0  0  0  0  0  0  0  0  0
  -30.0486  -24.9503   21.9806 N   0  3  0  0  0  0  0  0  0  0  0  0
  -20.7123  -27.6276   15.4333 N   0  3  0  0  0  0  0  0  0  0  0  0
  -31.1554  -12.1237   21.7230 O   0  0  0  0  0  0  0  0  0  0  0  0
  -23.5899  -28.7713   23.3233 O   0  0  0  0  0  0  0  0  0  0  0  0
  -20.3497  -29.7709   20.9583 O   0  0  0  0  0  0  0  0  0  0  0  0
  -21.6159  -26.4436   17.8204 O   0  0  0  0  0  0  0  0  0  0  0  0
  -31.2955  -20.8125   18.0951 O   0  0  0  0  0  0  0  0  0  0  0  0
  -24.2382  -10.0558   18.8139 O   0  0  0  0  0  0  0  0  0  0  0  0
  -28.1273  -26.6040   19.8020 O   0  0  0  0  0  0  0  0  0  1  0  0
  -21.8234   -8.5440   23.5348 F   0  0  0  0  0  0  0  0  0  0  0  0
  -21.6135  -10.7405   19.3471 F   0  0  0  0  0  0  0  0  0  0  0  0
  1  2  1  0  0  0  0
  1  6  2  0  0  0  0
  2  7  2  0  0  0  0
  3  9  2  0  0  0  0
  3 10  1  0  0  0  0
  4 11  2  0  0  0  0
  4 18  1  0  0  0  0
  5 12  1  0  0  0  0
  5 18  2  0  0  0  0
  6 20  1  0  0  0  0
  7 22  1  0  0  0  0
  8 13  2  0  0  0  0
  8 21  1  0  0  0  0
  9 24  1  0  0  0  0
 10 26  2  0  0  0  0
 11 27  1  0  0  0  0
 12 27  2  0  0  0  0
 13 28  1  0  0  0  0
 14 15  2  0  0  0  0
 14 29  1  0  0  0  0
 15 30  1  0  0  0  0
 16 23  1  0  0  0  0
 16 28  2  0  0  0  0
 17 30  2  0  0  0  0
 17 31  1  0  0  0  0
 18 32  1  0  0  0  0
 19 32  1  0  0  0  0
 19 33  2  0  0  0  0
 19 34  1  0  0  0  0
 20 22  2  0  0  0  0
 20 39  1  0  0  0  0
 21 23  2  0  0  0  0
 21 40  1  0  0  0  0
 22 50  1  0  0  0  0
 23 41  1  0  0  0  0
 24 25  2  0  0  0  0
 24 61  1  0  0  0  0
 25 26  1  0  0  0  0
 25 54  1  0  0  0  0
 26 73  1  0  0  0  0
 27 81  1  0  0  0  0
 28 82  1  0  0  0  0
 29 31  2  0  0  0  0
 29 81  1  0  0  0  0
 30 83  1  0  0  0  0
 31 84  1  0  0  0  0
 32 65  2  0  0  0  0
 33 66  1  0  0  0  0
 33 69  1  0  0  0  0
 34 70  1  0  0  0  0
 34 76  2  0  0  0  0
 35 51  1  0  0  0  0
 35 71  1  0  0  0  0
 35 77  2  0  0  0  0
 36 62  1  0  0  0  0
 36 67  1  0  0  0  0
 36 78  2  0  0  0  0
 37 63  1  0  0  0  0
 37 72  1  0  0  0  0
 37 79  2  0  0  0  0
 38 68  1  0  0  0  0
 38 73  1  0  0  0  0
 38 80  2  0  0  0  0
 39 42  1  0  0  0  0
 40 51  1  0  0  0  0
 41 67  1  0  0  0  0
 42 44  1  0  0  0  0
 43 45  1  0  0  0  0
 43 46  1  0  0  0  0
 44 50  1  0  0  0  0
 45 52  1  0  0  0  0
 46 68  1  0  0  0  0
 47 52  1  0  0  0  0
 47 68  1  0  0  0  0
 48 53  1  0  0  0  0
 48 74  1  0  0  0  0
 49 53  1  0  0  0  0
 49 74  1  0  0  0  0
 50 71  1  0  0  0  0
 51 67  1  0  0  0  0
 52 66  1  0  0  0  0
 53 82  1  0  0  0  0
 55 63  1  0  0  0  0
 56 64  1  0  0  0  0
 57 64  1  0  0  0  0
 58 64  1  0  0  0  0
 59 73  1  0  0  0  0
 60 75  1  0  0  0  0
 61 74  1  0  0  0  0
 62 64  1  0  0  0  0
 62 72  1  0  0  0  0
 63 75  1  0  0  0  0
 65 66  1  0  0  0  0
M  CHG  2  74   1  75   1
M  ISO  4  38 100  53 101  73 100  82 101
M  END
> <Batch ID>
0030

> <Smiles>
CNC(C)C(=O)NC(C(=O)N1Cc2cc([101O:1][101CH:1]3CN(Cc4cccc([100N:0](C)[100C:0](=O)N5CCCC(n6nc(-c7ccc(Oc8ccc(F)cc8F)cc7)c(C(N)=O)c6N)C5)c4C)C3)ccc2CC1C(=O)NC1CCCc2ccccc21)C(C)(C)C

> <Shape>
0.247

> <Color>
0.098

> <Negative vol penalty>
0.000

$$$$

  -OEChem-04042321363D

 86 95  0     1  0  0  0  0  0999 V2000
  -26.6687  -37.8345   21.4213 C   0  0  0  0  0  0  0  0  0  0  0  0
  -27.2396  -36.7948   20.6942 C   0  0  0  0  0  0  0  0  0  0  0  0
  -23.1310  -10.3337   23.5448 C   0  0  0  0  0  0  0  0  0  0  0  0
  -24.0257  -10.4718   21.3048 C   0  0  0  0  0  0  0  0  0  0  0  0
  -26.0191  -37.5668   22.6255 C   0  0  0  0  0  0  0  0  0  0  0  0
  -27.1620  -35.4869   21.1715 C   0  0  0  0  0  0  0  0  0  0  0  0
  -26.6519  -28.7237   18.8662 C   0  0  0  0  0  0  0  0  0  0  0  0
  -22.3865   -9.2126   23.1783 C   0  0  0  0  0  0  0  0  0  0  0  0
  -23.2811   -9.3506   20.9383 C   0  0  0  0  0  0  0  0  0  0  0  0
  -27.2733  -27.4847   19.0167 C   0  0  0  0  0  0  0  0  0  0  0  0
  -20.5274   -6.0985   22.9300 C   0  0  0  0  0  0  0  0  0  0  0  0
  -20.5205   -5.0108   23.8032 C   0  0  0  0  0  0  0  0  0  0  0  0
  -26.0572  -27.1310   21.0698 C   0  0  0  0  0  0  0  0  0  0  0  0
  -28.3946  -20.1282   20.5258 C   0  0  0  0  0  0  0  0  0  0  0  0
  -22.9188   -4.8190   23.5833 C   0  0  0  0  0  0  0  0  0  0  0  0
  -23.9506  -10.9634   22.6080 C   0  0  0  0  0  0  0  0  0  0  0  0
  -26.0264  -12.1412   23.5087 C   0  0  0  0  0  0  0  0  0  0  0  0
  -25.9251  -36.2537   23.1130 C   0  0  0  0  0  0  0  0  0  0  0  0
  -25.7352  -29.1812   19.8236 C   0  0  0  0  0  0  0  0  0  0  0  0
  -26.5116  -35.2016   22.3841 C   0  0  0  0  0  0  0  0  0  0  0  0
  -25.4237  -28.3750   20.9278 C   0  0  0  0  0  0  0  0  0  0  0  0
  -29.4443  -20.7541   19.8535 C   0  0  0  0  0  0  0  0  0  0  0  0
  -30.7001  -20.1490   19.8040 C   0  0  0  0  0  0  0  0  0  0  0  0
  -30.9063  -18.9180   20.4268 C   0  0  0  0  0  0  0  0  0  0  0  0
  -29.8566  -18.2922   21.0992 C   0  0  0  0  0  0  0  0  0  0  0  0
  -28.6008  -18.8972   21.1487 C   0  0  0  0  0  0  0  0  0  0  0  0
  -22.4615   -8.7210   21.8751 C   0  0  0  0  0  0  0  0  0  0  0  0
  -26.9782  -26.6894   20.1201 C   0  0  0  0  0  0  0  0  0  0  0  0
  -21.7300   -6.5464   22.3833 C   0  0  0  0  0  0  0  0  0  0  0  0
  -21.7162   -4.3711   24.1299 C   0  0  0  0  0  0  0  0  0  0  0  0
  -22.9257   -5.9067   22.7100 C   0  0  0  0  0  0  0  0  0  0  0  0
  -24.7195  -12.1219   22.9858 C   0  0  0  0  0  0  0  0  0  0  0  0
  -26.3003  -13.4735   23.6994 C   0  0  0  0  0  0  0  0  0  0  0  0
  -26.9136  -11.0522   23.7964 C   0  0  0  0  0  0  0  0  0  0  0  0
  -25.6104  -31.6658   21.8022 C   0  0  0  0  0  0  0  0  0  0  0  0
  -22.6366  -30.5272   22.4207 C   0  0  0  0  0  0  0  0  0  0  0  0
  -20.4976  -27.8681   22.4359 C   0  0  0  0  0  0  0  0  0  0  0  0
  -26.2184  -18.7611   21.9563 C   0  0  0  0  0  0  0  0  0  0  0  0
  -25.2540  -36.0196   24.4433 C   0  0  0  0  0  0  0  0  0  0  0  0
  -25.0535  -30.5083   19.6329 C   0  0  0  0  0  0  0  0  0  0  0  0
  -24.4315  -28.8114   21.9735 C   0  0  0  0  0  0  0  0  0  0  0  0
  -24.8898  -34.5583   24.6929 C   0  0  0  0  0  0  0  0  0  0  0  0
  -23.2652  -17.5201   23.5105 C   0  0  0  0  0  0  0  0  0  0  0  0
  -26.0625  -33.6483   24.3414 C   0  0  0  0  0  0  0  0  0  0  0  0
  -23.4878  -16.0066   23.5556 C   0  0  0  0  0  0  0  0  0  0  0  0
  -29.4242  -24.8216   21.6697 C   0  0  0  0  0  0  0  0  0  0  0  0
  -23.8286  -18.1384   22.2322 C   0  0  0  0  0  0  0  0  0  0  0  0
  -25.4573  -16.3046   22.0001 C   0  0  0  0  0  0  0  0  0  0  0  0
  -29.2885  -23.3420   21.3715 C   0  0  0  0  0  0  0  0  0  0  0  0
  -29.5964  -24.5811   19.2811 C   0  0  0  0  0  0  0  0  0  0  0  0
  -26.4268  -33.7665   22.8565 C   0  0  1  0  0  0  0  0  0  0  0  0
  -24.5219  -31.0996   20.9349 C   0  0  1  0  0  0  0  0  0  0  0  0
  -24.9643  -15.6463   23.2991 C   0  0  2  0  0  0  0  0  0  0  0  0
  -29.0077  -25.4736   20.3625 C   0  0  1  0  0  0  0  0  0  1  0  0
  -31.8241  -20.8238   19.0830 C   0  0  0  0  0  0  0  0  0  0  0  0
  -32.2538  -18.2696   20.3734 C   0  0  0  0  0  0  0  0  0  0  0  0
  -30.0808  -16.9720   21.7682 C   0  0  0  0  0  0  0  0  0  0  0  0
  -18.1426  -27.2376   23.0309 C   0  0  0  0  0  0  0  0  0  0  0  0
  -23.3841  -30.5368   25.3789 C   0  0  0  0  0  0  0  0  0  0  0  0
  -21.4189  -29.0465   25.8088 C   0  0  0  0  0  0  0  0  0  0  0  0
  -21.0666  -31.3371   24.8859 C   0  0  0  0  0  0  0  0  0  0  0  0
  -19.8778  -27.0918   19.6480 C   0  0  0  0  0  0  0  0  0  0  0  0
  -29.1971  -22.0794   19.1951 C   0  0  0  0  0  0  0  0  0  0  0  0
  -22.0522  -29.5417   23.4036 C   0  0  1  0  0  0  0  0  0  0  0  0
  -19.0747  -27.7170   21.9290 C   0  0  2  0  0  0  0  0  0  0  0  0
  -22.0006  -30.1078   24.8508 C   0  0  0  0  0  0  0  0  0  0  0  0
  -24.1992  -13.3448   22.8529 N   0  0  0  0  0  0  0  0  0  0  0  0
  -25.1841  -14.1451   23.2951 N   0  0  0  0  0  0  0  0  0  0  0  0
  -23.7961  -30.1198   21.7458 N   0  0  0  0  0  0  0  0  0  0  0  0
  -25.2319  -17.7574   22.0573 N   0  0  0  0  0  0  0  0  0  0  0  0
  -27.3845  -14.1245   24.1718 N   0  0  0  0  0  0  0  0  0  0  0  0
  -26.4733   -9.7464   23.5408 N   0  0  0  0  0  0  0  0  0  0  0  0
  -27.5203  -18.2788   21.8253 N   0  0  0  0  0  0  0  0  0  0  0  0
  -25.4888  -33.0206   22.0451 N   0  0  0  0  0  0  0  0  0  0  0  0
  -20.7523  -29.1526   22.8676 N   0  0  0  0  0  0  0  0  0  0  0  0
  -29.7868  -23.2273   19.9497 N   0  3  2  0  0  0  0  0  0  0  0  0
  -19.0249  -26.7335   20.8105 N   0  3  0  0  0  0  0  0  0  0  0  0
  -28.0565  -11.2308   24.2815 O   0  0  0  0  0  0  0  0  0  0  0  0
  -26.4944  -30.9277   22.2214 O   0  0  0  0  0  0  0  0  0  0  0  0
  -22.0807  -31.6155   22.2525 O   0  0  0  0  0  0  0  0  0  0  0  0
  -21.3015  -26.9385   22.4511 O   0  0  0  0  0  0  0  0  0  0  0  0
  -25.9325  -19.9599   22.0112 O   0  0  0  0  0  0  0  0  0  0  0  0
  -21.7353   -7.6269   21.5172 O   0  0  0  0  0  0  0  0  0  0  0  0
  -27.5837  -25.4800   20.2698 O   0  0  0  0  0  0  0  0  0  1  0  0
  -21.7096   -3.3276   24.9696 F   0  0  0  0  0  0  0  0  0  0  0  0
  -24.0843   -6.3332   22.1889 F   0  0  0  0  0  0  0  0  0  0  0  0
  1  2  1  0  0  0  0
  1  5  2  0  0  0  0
  2  6  2  0  0  0  0
  3  8  2  0  0  0  0
  3 16  1  0  0  0  0
  4  9  1  0  0  0  0
  4 16  2  0  0  0  0
  5 18  1  0  0  0  0
  6 20  1  0  0  0  0
  7 10  2  0  0  0  0
  7 19  1  0  0  0  0
  8 27  1  0  0  0  0
  9 27  2  0  0  0  0
 10 28  1  0  0  0  0
 11 12  2  0  0  0  0
 11 29  1  0  0  0  0
 12 30  1  0  0  0  0
 13 21  1  0  0  0  0
 13 28  2  0  0  0  0
 14 22  1  0  0  0  0
 14 26  2  0  0  0  0
 15 30  2  0  0  0  0
 15 31  1  0  0  0  0
 16 32  1  0  0  0  0
 17 32  1  0  0  0  0
 17 33  2  0  0  0  0
 17 34  1  0  0  0  0
 18 20  2  0  0  0  0
 18 39  1  0  0  0  0
 19 21  2  0  0  0  0
 19 40  1  0  0  0  0
 20 51  1  0  0  0  0
 21 41  1  0  0  0  0
 22 23  2  0  0  0  0
 22 63  1  0  0  0  0
 23 24  1  0  0  0  0
 23 55  1  0  0  0  0
 24 25  2  0  0  0  0
 24 56  1  0  0  0  0
 25 26  1  0  0  0  0
 25 57  1  0  0  0  0
 26 73  1  0  0  0  0
 27 83  1  0  0  0  0
 28 84  1  0  0  0  0
 29 31  2  0  0  0  0
 29 83  1  0  0  0  0
 30 85  1  0  0  0  0
 31 86  1  0  0  0  0
 32 67  2  0  0  0  0
 33 68  1  0  0  0  0
 33 71  1  0  0  0  0
 34 72  1  0  0  0  0
 34 78  2  0  0  0  0
 35 52  1  0  0  0  0
 35 74  1  0  0  0  0
 35 79  2  0  0  0  0
 36 64  1  0  0  0  0
 36 69  1  0  0  0  0
 36 80  2  0  0  0  0
 37 65  1  0  0  0  0
 37 75  1  0  0  0  0
 37 81  2  0  0  0  0
 38 70  1  0  0  0  0
 38 73  1  0  0  0  0
 38 82  2  0  0  0  0
 39 42  1  0  0  0  0
 40 52  1  0  0  0  0
 41 69  1  0  0  0  0
 42 44  1  0  0  0  0
 43 45  1  0  0  0  0
 43 47  1  0  0  0  0
 44 51  1  0  0  0  0
 45 53  1  0  0  0  0
 46 49  1  0  0  0  0
 46 54  1  0  0  0  0
 47 70  1  0  0  0  0
 48 53  1  0  0  0  0
 48 70  1  0  0  0  0
 49 76  1  0  0  0  0
 50 54  1  0  0  0  0
 50 76  1  0  0  0  0
 51 74  1  0  0  0  0
 52 69  1  0  0  0  0
 53 68  1  0  0  0  0
 54 84  1  0  0  0  0
 58 65  1  0  0  0  0
 59 66  1  0  0  0  0
 60 66  1  0  0  0  0
 61 66  1  0  0  0  0
 62 77  1  0  0  0  0
 63 76  1  0  0  0  0
 64 66  1  0  0  0  0
 64 75  1  0  0  0  0
 65 77  1  0  0  0  0
 67 68  1  0  0  0  0
M  CHG  2  76   1  77   1
M  ISO  4  38 100  54 101  73 100  84 101
M  END
> <Batch ID>
0030

> <Smiles>
CNC(C)C(=O)NC(C(=O)N1Cc2cc([101O:1][101CH:1]3CCN(Cc4cc([100NH:0][100C:0](=O)N5CCCC(n6nc(-c7ccc(Oc8ccc(F)cc8F)cc7)c(C(N)=O)c6N)C5)c(C)c(C)c4C)C3)ccc2CC1C(=O)NC1CCCc2ccccc21)C(C)(C)C

> <Shape>
0.299

> <Color>
0.072

> <Negative vol penalty>
0.000

$$$$

  -OEChem-04042321363D

 83 92  0     1  0  0  0  0  0999 V2000
  -26.3206  -38.3689   21.4580 C   0  0  0  0  0  0  0  0  0  0  0  0
  -26.9637  -37.3592   20.7493 C   0  0  0  0  0  0  0  0  0  0  0  0
  -24.8952  -10.8666   22.0124 C   0  0  0  0  0  0  0  0  0  0  0  0
  -24.3907  -11.6743   19.7920 C   0  0  0  0  0  0  0  0  0  0  0  0
  -31.3918  -23.0462   20.2218 C   0  0  0  0  0  0  0  0  0  0  0  0
  -25.6483  -38.0686   22.6420 C   0  0  0  0  0  0  0  0  0  0  0  0
  -26.9358  -36.0486   21.2248 C   0  0  0  0  0  0  0  0  0  0  0  0
  -26.8288  -29.2706   18.9089 C   0  0  0  0  0  0  0  0  0  0  0  0
  -30.8178  -24.2838   19.9165 C   0  0  0  0  0  0  0  0  0  0  0  0
  -23.7207  -10.1142   22.0056 C   0  0  0  0  0  0  0  0  0  0  0  0
  -23.2162  -10.9219   19.7852 C   0  0  0  0  0  0  0  0  0  0  0  0
  -27.5052  -28.0634   19.0791 C   0  0  0  0  0  0  0  0  0  0  0  0
  -22.6447   -7.1876   20.6980 C   0  0  0  0  0  0  0  0  0  0  0  0
  -22.7161   -5.8704   21.1512 C   0  0  0  0  0  0  0  0  0  0  0  0
  -28.6136  -23.2739   19.7535 C   0  0  0  0  0  0  0  0  0  0  0  0
  -26.2459  -27.6487   21.0943 C   0  0  0  0  0  0  0  0  0  0  0  0
  -21.1085   -6.3788   22.8817 C   0  0  0  0  0  0  0  0  0  0  0  0
  -25.2302  -11.6467   20.9056 C   0  0  0  0  0  0  0  0  0  0  0  0
  -30.5672  -21.9328   20.2904 C   0  0  0  0  0  0  0  0  0  0  0  0
  -27.7171  -12.0164   20.4741 C   0  0  0  0  0  0  0  0  0  0  0  0
  -25.6040  -36.7520   23.1272 C   0  0  0  0  0  0  0  0  0  0  0  0
  -25.8619  -29.6817   19.8377 C   0  0  0  0  0  0  0  0  0  0  0  0
  -26.2635  -35.7306   22.4171 C   0  0  0  0  0  0  0  0  0  0  0  0
  -29.1935  -22.0529   20.0562 C   0  0  0  0  0  0  0  0  0  0  0  0
  -25.5567  -28.8603   20.9323 C   0  0  0  0  0  0  0  0  0  0  0  0
  -29.4388  -24.3968   19.6836 C   0  0  0  0  0  0  0  0  0  0  0  0
  -22.8812  -10.1418   20.8920 C   0  0  0  0  0  0  0  0  0  0  0  0
  -27.2159  -27.2537   20.1734 C   0  0  0  0  0  0  0  0  0  0  0  0
  -21.8054   -8.1005   21.3366 C   0  0  0  0  0  0  0  0  0  0  0  0
  -21.9479   -5.4659   22.2431 C   0  0  0  0  0  0  0  0  0  0  0  0
  -21.0373   -7.6960   22.4284 C   0  0  0  0  0  0  0  0  0  0  0  0
  -26.4430  -12.4245   20.9123 C   0  0  0  0  0  0  0  0  0  0  0  0
  -28.5204  -13.1097   20.6884 C   0  0  0  0  0  0  0  0  0  0  0  0
  -30.8496  -20.5199   20.5679 C   0  0  0  0  0  0  0  0  0  0  0  0
  -32.0663  -20.0424   20.8586 C   0  0  0  0  0  0  0  0  0  0  0  0
  -28.1369  -10.7613   19.9227 C   0  0  0  0  0  0  0  0  0  0  0  0
  -25.5550  -32.1554   21.8101 C   0  0  0  0  0  0  0  0  0  0  0  0
  -22.6231  -30.8717   22.3381 C   0  0  0  0  0  0  0  0  0  0  0  0
  -20.6177  -28.1108   22.2895 C   0  0  0  0  0  0  0  0  0  0  0  0
  -29.5555  -18.3986   20.4001 C   0  0  0  0  0  0  0  0  0  0  0  0
  -24.9050  -36.4840   24.4365 C   0  0  0  0  0  0  0  0  0  0  0  0
  -25.1220  -30.9740   19.6254 C   0  0  0  0  0  0  0  0  0  0  0  0
  -28.5222  -20.7266   20.2018 C   0  0  0  0  0  0  0  0  0  0  0  0
  -24.5128  -29.2465   21.9470 C   0  0  0  0  0  0  0  0  0  0  0  0
  -24.6054  -35.0064   24.6757 C   0  0  0  0  0  0  0  0  0  0  0  0
  -27.6820  -17.3827   23.2345 C   0  0  0  0  0  0  0  0  0  0  0  0
  -25.8315  -34.1553   24.3607 C   0  0  0  0  0  0  0  0  0  0  0  0
  -27.2709  -15.9670   22.8366 C   0  0  0  0  0  0  0  0  0  0  0  0
  -27.6428  -18.3528   22.0518 C   0  0  0  0  0  0  0  0  0  0  0  0
  -28.0009  -16.4694   20.4787 C   0  0  0  0  0  0  0  0  0  0  0  0
  -26.2347  -34.2926   22.8876 C   0  0  1  0  0  0  0  0  0  0  0  0
  -24.5226  -31.5373   20.9103 C   0  0  1  0  0  0  0  0  0  0  0  0
  -28.1035  -15.4726   21.6420 C   0  0  2  0  0  0  0  0  0  0  0  0
  -33.8280  -18.3739   21.4370 C   0  0  0  0  0  0  0  0  0  0  0  0
  -18.2794  -27.3651   22.8127 C   0  0  0  0  0  0  0  0  0  0  0  0
  -23.2786  -30.9153   25.3178 C   0  0  0  0  0  0  0  0  0  0  0  0
  -21.3766  -29.3299   25.6882 C   0  0  0  0  0  0  0  0  0  0  0  0
  -20.9407  -31.6014   24.7538 C   0  0  0  0  0  0  0  0  0  0  0  0
  -20.1221  -27.3077   19.4844 C   0  0  0  0  0  0  0  0  0  0  0  0
  -28.8508  -25.7297   19.3607 C   0  0  0  0  0  0  0  0  0  1  0  0
  -32.3533  -18.5992   21.1417 C   0  0  0  0  0  0  0  0  0  0  0  0
  -22.0580  -29.8578   23.3033 C   0  0  1  0  0  0  0  0  0  0  0  0
  -19.2200  -27.8907   21.7395 C   0  0  2  0  0  0  0  0  0  0  0  0
  -21.9346  -30.4194   24.7479 C   0  0  0  0  0  0  0  0  0  0  0  0
  -26.4327  -13.6791   21.3704 N   0  0  0  0  0  0  0  0  0  0  0  0
  -27.7103  -14.0687   21.2214 N   0  0  0  0  0  0  0  0  0  0  0  0
  -29.6499  -19.7971   20.4946 N   0  0  0  0  0  0  0  0  0  0  0  0
  -23.8212  -30.5223   21.6991 N   0  0  0  0  0  0  0  0  0  0  0  0
  -28.3789  -17.8197   20.9008 N   0  0  0  0  0  0  0  0  0  0  0  0
  -29.8336  -13.3346   20.4711 N   0  0  0  0  0  0  0  0  0  0  0  0
  -27.1830   -9.7457   19.7708 N   0  0  0  0  0  0  0  0  0  0  0  0
  -25.3597  -33.5024   22.0484 N   0  0  0  0  0  0  0  0  0  0  0  0
  -20.7958  -29.4059   22.7280 N   0  0  0  0  0  0  0  0  0  0  0  0
  -19.2528  -26.9069   20.6205 N   0  3  0  0  0  0  0  0  0  0  0  0
  -29.3262  -10.5411   19.5901 O   0  0  0  0  0  0  0  0  0  0  0  0
  -26.4609  -31.4612   22.2564 O   0  0  0  0  0  0  0  0  0  0  0  0
  -22.0199  -31.9316   22.1524 O   0  0  0  0  0  0  0  0  0  0  0  0
  -21.4654  -27.2218   22.3298 O   0  0  0  0  0  0  0  0  0  0  0  0
  -30.4209  -17.7067   19.8509 O   0  0  0  0  0  0  0  0  0  0  0  0
  -21.7351   -9.4076   20.8850 O   0  0  0  0  0  0  0  0  0  0  0  0
  -27.8798  -26.0670   20.3434 O   0  0  0  0  0  0  0  0  0  1  0  0
  -22.0154   -4.2006   22.6773 F   0  0  0  0  0  0  0  0  0  0  0  0
  -20.2282   -8.5682   23.0453 F   0  0  0  0  0  0  0  0  0  0  0  0
  1  2  1  0  0  0  0
  1  6  2  0  0  0  0
  2  7  2  0  0  0  0
  3 10  2  0  0  0  0
  3 18  1  0  0  0  0
  4 11  1  0  0  0  0
  4 18  2  0  0  0  0
  5  9  2  0  0  0  0
  5 19  1  0  0  0  0
  6 21  1  0  0  0  0
  7 23  1  0  0  0  0
  8 12  2  0  0  0  0
  8 22  1  0  0  0  0
  9 26  1  0  0  0  0
 10 27  1  0  0  0  0
 11 27  2  0  0  0  0
 12 28  1  0  0  0  0
 13 14  2  0  0  0  0
 13 29  1  0  0  0  0
 14 30  1  0  0  0  0
 15 24  1  0  0  0  0
 15 26  2  0  0  0  0
 16 25  1  0  0  0  0
 16 28  2  0  0  0  0
 17 30  2  0  0  0  0
 17 31  1  0  0  0  0
 18 32  1  0  0  0  0
 19 24  2  0  0  0  0
 19 34  1  0  0  0  0
 20 32  1  0  0  0  0
 20 33  2  0  0  0  0
 20 36  1  0  0  0  0
 21 23  2  0  0  0  0
 21 41  1  0  0  0  0
 22 25  2  0  0  0  0
 22 42  1  0  0  0  0
 23 51  1  0  0  0  0
 24 43  1  0  0  0  0
 25 44  1  0  0  0  0
 26 60  1  0  0  0  0
 27 80  1  0  0  0  0
 28 81  1  0  0  0  0
 29 31  2  0  0  0  0
 29 80  1  0  0  0  0
 30 82  1  0  0  0  0
 31 83  1  0  0  0  0
 32 65  2  0  0  0  0
 33 66  1  0  0  0  0
 33 70  1  0  0  0  0
 34 35  2  0  0  0  0
 34 67  1  0  0  0  0
 35 61  1  0  0  0  0
 36 71  1  0  0  0  0
 36 75  2  0  0  0  0
 37 52  1  0  0  0  0
 37 72  1  0  0  0  0
 37 76  2  0  0  0  0
 38 62  1  0  0  0  0
 38 68  1  0  0  0  0
 38 77  2  0  0  0  0
 39 63  1  0  0  0  0
 39 73  1  0  0  0  0
 39 78  2  0  0  0  0
 40 67  1  0  0  0  0
 40 69  1  0  0  0  0
 40 79  2  0  0  0  0
 41 45  1  0  0  0  0
 42 52  1  0  0  0  0
 43 67  1  0  0  0  0
 44 68  1  0  0  0  0
 45 47  1  0  0  0  0
 46 48  1  0  0  0  0
 46 49  1  0  0  0  0
 47 51  1  0  0  0  0
 48 53  1  0  0  0  0
 49 69  1  0  0  0  0
 50 53  1  0  0  0  0
 50 69  1  0  0  0  0
 51 72  1  0  0  0  0
 52 68  1  0  0  0  0
 53 66  1  0  0  0  0
 54 61  1  0  0  0  0
 55 63  1  0  0  0  0
 56 64  1  0  0  0  0
 57 64  1  0  0  0  0
 58 64  1  0  0  0  0
 59 74  1  0  0  0  0
 60 81  1  0  0  0  0
 62 64  1  0  0  0  0
 62 73  1  0  0  0  0
 63 74  1  0  0  0  0
 65 66  1  0  0  0  0
M  CHG  1  74   1
M  ISO  4  40 100  60 101  67 100  81 101
M  END
> <Batch ID>
0030

> <Smiles>
CCC=C1c2ccc([101CH2:1][101O:1]c3ccc4c(c3)CN(C(=O)C(NC(=O)C(C)NC)C(C)(C)C)C(C(=O)NC3CCCc5ccccc53)C4)cc2C[100N:0]1[100C:0](=O)N1CCCC(n2nc(-c3ccc(Oc4ccc(F)cc4F)cc3)c(C(N)=O)c2N)C1

> <Shape>
0.356

> <Color>
0.074

> <Negative vol penalty>
0.000

$$$$

  -OEChem-04042321363D

 83 91  0     1  0  0  0  0  0999 V2000
  -17.7888  -27.1717   22.8466 C   0  0  0  0  0  0  0  0  0  0  0  0
  -18.6332  -26.2191   23.4077 C   0  0  0  0  0  0  0  0  0  0  0  0
  -23.0127   -9.9682   19.9900 C   0  0  0  0  0  0  0  0  0  0  0  0
  -23.7811   -9.9857   22.2805 C   0  0  0  0  0  0  0  0  0  0  0  0
  -18.3180  -28.1932   22.0589 C   0  0  0  0  0  0  0  0  0  0  0  0
  -20.0073  -26.2868   23.1806 C   0  0  0  0  0  0  0  0  0  0  0  0
  -24.4651  -24.7535   27.0900 C   0  0  0  0  0  0  0  0  0  0  0  0
  -22.2387   -8.8392   20.2583 C   0  0  0  0  0  0  0  0  0  0  0  0
  -23.0070   -8.8567   22.5488 C   0  0  0  0  0  0  0  0  0  0  0  0
  -25.2410  -23.6029   27.2233 C   0  0  0  0  0  0  0  0  0  0  0  0
  -19.7606   -8.1555   23.1730 C   0  0  0  0  0  0  0  0  0  0  0  0
  -19.0072   -8.1521   24.3469 C   0  0  0  0  0  0  0  0  0  0  0  0
  -26.9880  -24.6372   25.9206 C   0  0  0  0  0  0  0  0  0  0  0  0
  -29.5544  -18.8460   22.0861 C   0  0  0  0  0  0  0  0  0  0  0  0
  -29.0649  -18.2953   24.7768 C   0  0  0  0  0  0  0  0  0  0  0  0
  -20.1982   -6.1918   25.1057 C   0  0  0  0  0  0  0  0  0  0  0  0
  -23.7840  -10.5414   21.0011 C   0  0  0  0  0  0  0  0  0  0  0  0
  -24.1939  -13.0544   20.8453 C   0  0  0  0  0  0  0  0  0  0  0  0
  -19.7003  -28.2790   21.8299 C   0  0  0  0  0  0  0  0  0  0  0  0
  -24.9412  -25.8524   26.3605 C   0  0  0  0  0  0  0  0  0  0  0  0
  -20.5554  -27.3096   22.3879 C   0  0  0  0  0  0  0  0  0  0  0  0
  -26.2173  -25.8016   25.7816 C   0  0  0  0  0  0  0  0  0  0  0  0
  -28.7622  -19.7101   22.8419 C   0  0  0  0  0  0  0  0  0  0  0  0
  -30.1018  -17.7064   22.6756 C   0  0  0  0  0  0  0  0  0  0  0  0
  -28.5175  -19.4349   24.1872 C   0  0  0  0  0  0  0  0  0  0  0  0
  -22.2358   -8.2835   21.5376 C   0  0  0  0  0  0  0  0  0  0  0  0
  -26.5015  -23.5435   26.6362 C   0  0  0  0  0  0  0  0  0  0  0  0
  -20.7327   -7.1769   22.9654 C   0  0  0  0  0  0  0  0  0  0  0  0
  -19.2260   -7.1703   25.3132 C   0  0  0  0  0  0  0  0  0  0  0  0
  -20.9515   -6.1951   23.9317 C   0  0  0  0  0  0  0  0  0  0  0  0
  -29.8570  -17.4311   24.0209 C   0  0  0  0  0  0  0  0  0  0  0  0
  -24.5842  -11.7072   20.7245 C   0  0  0  0  0  0  0  0  0  0  0  0
  -25.3047  -13.7688   20.4682 C   0  0  0  0  0  0  0  0  0  0  0  0
  -22.9395  -13.6103   21.2614 C   0  0  0  0  0  0  0  0  0  0  0  0
  -23.9902  -27.3921   23.7473 C   0  0  0  0  0  0  0  0  0  0  0  0
  -26.4058  -29.4107   24.5299 C   0  0  0  0  0  0  0  0  0  0  0  0
  -29.3732  -29.8888   26.1465 C   0  0  0  0  0  0  0  0  0  0  0  0
  -30.8148  -14.6405   20.6242 C   0  0  0  0  0  0  0  0  0  0  0  0
  -20.2209  -29.3739   20.9327 C   0  0  0  0  0  0  0  0  0  0  0  0
  -24.1030  -27.0963   26.2484 C   0  0  0  0  0  0  0  0  0  0  0  0
  -26.7828  -26.9618   25.0054 C   0  0  0  0  0  0  0  0  0  0  0  0
  -21.7274  -29.5914   21.0484 C   0  0  0  0  0  0  0  0  0  0  0  0
  -29.6039  -12.2556   18.2742 C   0  0  0  0  0  0  0  0  0  0  0  0
  -22.4642  -28.2564   21.0075 C   0  0  0  0  0  0  0  0  0  0  0  0
  -28.1606  -12.0071   18.7159 C   0  0  0  0  0  0  0  0  0  0  0  0
  -30.5311  -12.4677   19.4689 C   0  0  0  0  0  0  0  0  0  0  0  0
  -28.6551  -13.2691   20.8516 C   0  0  0  0  0  0  0  0  0  0  0  0
  -22.0540  -27.3636   22.1849 C   0  0  1  0  0  0  0  0  0  0  0  0
  -24.4765  -27.9626   25.0495 C   0  0  1  0  0  0  0  0  0  0  0  0
  -27.6722  -13.1051   19.6798 C   0  0  2  0  0  0  0  0  0  0  0  0
  -28.1871  -20.9228   22.1851 C   0  0  0  0  0  0  0  0  0  0  0  0
  -31.1246  -31.6344   26.5740 C   0  0  0  0  0  0  0  0  0  0  0  0
  -27.4778  -29.0251   21.6993 C   0  0  0  0  0  0  0  0  0  0  0  0
  -29.6582  -29.9849   22.4691 C   0  0  0  0  0  0  0  0  0  0  0  0
  -27.5889  -31.3758   22.5457 C   0  0  0  0  0  0  0  0  0  0  0  0
  -28.9247  -29.7888   29.0701 C   0  0  0  0  0  0  0  0  0  0  0  0
  -30.9437  -16.8051   21.8312 C   0  0  0  0  0  0  0  0  0  0  0  0
  -27.4378  -20.0579   26.3486 C   0  0  0  0  0  0  0  0  0  0  0  0
  -26.5684  -21.1799   26.8910 C   0  0  0  0  0  0  0  0  0  1  0  0
  -27.8783  -29.4920   24.2068 C   0  0  1  0  0  0  0  0  0  0  0  0
  -29.8452  -30.9875   27.0815 C   0  0  2  0  0  0  0  0  0  0  0  0
  -28.1396  -29.9467   22.7431 C   0  0  0  0  0  0  0  0  0  0  0  0
  -25.8444  -11.5713   20.3034 N   0  0  0  0  0  0  0  0  0  0  0  0
  -26.2556  -12.8422   20.1562 N   0  0  0  0  0  0  0  0  0  0  0  0
  -25.9224  -28.1534   24.9187 N   0  0  0  0  0  0  0  0  0  0  0  0
  -30.0120  -13.5228   20.3425 N   0  0  0  0  0  0  0  0  0  0  0  0
  -25.5510  -15.0929   20.3762 N   0  0  0  0  0  0  0  0  0  0  0  0
  -21.9045  -12.7337   21.6145 N   0  0  0  0  0  0  0  0  0  0  0  0
  -27.7326  -20.2819   24.9519 N   0  0  0  0  0  0  0  0  0  0  0  0
  -22.7146  -27.7930   23.3989 N   0  0  0  0  0  0  0  0  0  0  0  0
  -28.4705  -30.3616   25.2175 N   0  0  0  0  0  0  0  0  0  0  0  0
  -30.2442  -15.5967   21.4554 N   0  0  0  0  0  0  0  0  0  0  0  0
  -30.1053  -30.4347   28.4408 N   0  3  0  0  0  0  0  0  0  0  0  0
  -22.7370  -14.8476   21.3026 O   0  0  0  0  0  0  0  0  0  0  0  0
  -24.7191  -26.6448   23.1054 O   0  0  0  0  0  0  0  0  0  0  0  0
  -25.7117  -30.4271   24.4474 O   0  0  0  0  0  0  0  0  0  0  0  0
  -29.7686  -28.7281   26.2293 O   0  0  0  0  0  0  0  0  0  0  0  0
  -31.9534  -14.7788   20.1644 O   0  0  0  0  0  0  0  0  0  0  0  0
  -21.4804   -7.1820   21.7998 O   0  0  0  0  0  0  0  0  0  0  0  0
  -27.2606  -22.4213   26.7643 O   0  0  0  0  0  0  0  0  0  1  0  0
  -18.5035   -7.1682   26.4411 F   0  0  0  0  0  0  0  0  0  0  0  0
  -21.8849   -5.2531   23.7385 F   0  0  0  0  0  0  0  0  0  0  0  0
  -30.5189  -16.0315   24.7842 Cl  0  0  0  0  0  0  0  0  0  0  0  0
  1  2  1  0  0  0  0
  1  5  2  0  0  0  0
  2  6  2  0  0  0  0
  3  8  2  0  0  0  0
  3 17  1  0  0  0  0
  4  9  1  0  0  0  0
  4 17  2  0  0  0  0
  5 19  1  0  0  0  0
  6 21  1  0  0  0  0
  7 10  2  0  0  0  0
  7 20  1  0  0  0  0
  8 26  1  0  0  0  0
  9 26  2  0  0  0  0
 10 27  1  0  0  0  0
 11 12  2  0  0  0  0
 11 28  1  0  0  0  0
 12 29  1  0  0  0  0
 13 22  1  0  0  0  0
 13 27  2  0  0  0  0
 14 23  1  0  0  0  0
 14 24  2  0  0  0  0
 15 25  1  0  0  0  0
 15 31  2  0  0  0  0
 16 29  2  0  0  0  0
 16 30  1  0  0  0  0
 17 32  1  0  0  0  0
 18 32  1  0  0  0  0
 18 33  2  0  0  0  0
 18 34  1  0  0  0  0
 19 21  2  0  0  0  0
 19 39  1  0  0  0  0
 20 22  2  0  0  0  0
 20 40  1  0  0  0  0
 21 48  1  0  0  0  0
 22 41  1  0  0  0  0
 23 25  2  0  0  0  0
 23 51  1  0  0  0  0
 24 31  1  0  0  0  0
 24 57  1  0  0  0  0
 25 69  1  0  0  0  0
 26 79  1  0  0  0  0
 27 80  1  0  0  0  0
 28 30  2  0  0  0  0
 28 79  1  0  0  0  0
 29 81  1  0  0  0  0
 30 82  1  0  0  0  0
 31 83  1  0  0  0  0
 32 63  2  0  0  0  0
 33 64  1  0  0  0  0
 33 67  1  0  0  0  0
 34 68  1  0  0  0  0
 34 74  2  0  0  0  0
 35 49  1  0  0  0  0
 35 70  1  0  0  0  0
 35 75  2  0  0  0  0
 36 60  1  0  0  0  0
 36 65  1  0  0  0  0
 36 76  2  0  0  0  0
 37 61  1  0  0  0  0
 37 71  1  0  0  0  0
 37 77  2  0  0  0  0
 38 66  1  0  0  0  0
 38 72  1  0  0  0  0
 38 78  2  0  0  0  0
 39 42  1  0  0  0  0
 40 49  1  0  0  0  0
 41 65  1  0  0  0  0
 42 44  1  0  0  0  0
 43 45  1  0  0  0  0
 43 46  1  0  0  0  0
 44 48  1  0  0  0  0
 45 50  1  0  0  0  0
 46 66  1  0  0  0  0
 47 50  1  0  0  0  0
 47 66  1  0  0  0  0
 48 70  1  0  0  0  0
 49 65  1  0  0  0  0
 50 64  1  0  0  0  0
 52 61  1  0  0  0  0
 53 62  1  0  0  0  0
 54 62  1  0  0  0  0
 55 62  1  0  0  0  0
 56 73  1  0  0  0  0
 57 72  1  0  0  0  0
 58 59  1  0  0  0  0
 58 69  1  0  0  0  0
 59 80  1  0  0  0  0
 60 62  1  0  0  0  0
 60 71  1  0  0  0  0
 61 73  1  0  0  0  0
 63 64  1  0  0  0  0
M  CHG  1  73   1
M  ISO  4  38 100  59 101  72 100  80 101
M  END
> <Batch ID>
0030

> <Smiles>
CNC(C)C(=O)NC(C(=O)N1Cc2cc([101O:1][101CH2:1]CNc3cc(Cl)c(C[100NH:0][100C:0](=O)N4CCCC(n5nc(-c6ccc(Oc7ccc(F)cc7F)cc6)c(C(N)=O)c5N)C4)cc3C)ccc2CC1C(=O)NC1CCCc2ccccc21)C(C)(C)C

> <Shape>
0.273

> <Color>
0.214

> <Negative vol penalty>
0.000

$$$$

  -OEChem-04042321363D

 87 96  0     1  0  0  0  0  0999 V2000
  -31.0379  -23.7565   21.4595 C   0  0  0  0  0  0  0  0  0  0  0  0
  -29.6891  -23.8814   21.1425 C   0  0  0  0  0  0  0  0  0  0  0  0
  -27.9347  -15.1366   21.1330 C   0  0  0  0  0  0  0  0  0  0  0  0
  -25.7000  -15.6897   20.4001 C   0  0  0  0  0  0  0  0  0  0  0  0
  -31.5714  -24.4769   22.5273 C   0  0  0  0  0  0  0  0  0  0  0  0
  -28.8727  -24.7260   21.8939 C   0  0  0  0  0  0  0  0  0  0  0  0
  -24.1611  -28.0646   19.8542 C   0  0  0  0  0  0  0  0  0  0  0  0
  -21.6822  -24.9160   24.4525 C   0  0  0  0  0  0  0  0  0  0  0  0
  -22.8560  -24.1626   24.4672 C   0  0  0  0  0  0  0  0  0  0  0  0
  -27.6233  -13.7791   21.0582 C   0  0  0  0  0  0  0  0  0  0  0  0
  -25.3886  -14.3321   20.3252 C   0  0  0  0  0  0  0  0  0  0  0  0
  -22.7834  -27.8516   19.8717 C   0  0  0  0  0  0  0  0  0  0  0  0
  -27.3424  -11.4166   18.6555 C   0  0  0  0  0  0  0  0  0  0  0  0
  -28.2731  -10.5703   18.0530 C   0  0  0  0  0  0  0  0  0  0  0  0
  -22.6112  -29.1704   21.8842 C   0  0  0  0  0  0  0  0  0  0  0  0
  -28.4608   -9.3137   20.1079 C   0  0  0  0  0  0  0  0  0  0  0  0
  -26.9730  -16.0920   20.8040 C   0  0  0  0  0  0  0  0  0  0  0  0
  -27.8286  -18.3020   19.8600 C   0  0  0  0  0  0  0  0  0  0  0  0
  -30.7633  -25.3382   23.2862 C   0  0  0  0  0  0  0  0  0  0  0  0
  -24.7767  -28.8243   20.8594 C   0  0  0  0  0  0  0  0  0  0  0  0
  -29.3956  -25.4576   22.9737 C   0  0  0  0  0  0  0  0  0  0  0  0
  -23.9965  -29.3937   21.8758 C   0  0  0  0  0  0  0  0  0  0  0  0
  -20.4863  -24.3358   24.0298 C   0  0  0  0  0  0  0  0  0  0  0  0
  -20.4641  -23.0022   23.6216 C   0  0  0  0  0  0  0  0  0  0  0  0
  -21.6379  -22.2487   23.6363 C   0  0  0  0  0  0  0  0  0  0  0  0
  -22.8339  -22.8290   24.0591 C   0  0  0  0  0  0  0  0  0  0  0  0
  -26.3503  -13.3768   20.6543 C   0  0  0  0  0  0  0  0  0  0  0  0
  -22.0086  -28.4021   20.8884 C   0  0  0  0  0  0  0  0  0  0  0  0
  -26.9709  -11.2115   19.9843 C   0  0  0  0  0  0  0  0  0  0  0  0
  -28.8323   -9.5188   18.7791 C   0  0  0  0  0  0  0  0  0  0  0  0
  -27.5301  -10.1600   20.7105 C   0  0  0  0  0  0  0  0  0  0  0  0
  -27.2939  -17.4945   20.8817 C   0  0  0  0  0  0  0  0  0  0  0  0
  -27.9478  -19.5451   20.4319 C   0  0  0  0  0  0  0  0  0  0  0  0
  -17.9729  -26.7520   22.6873 C   0  0  0  0  0  0  0  0  0  0  0  0
  -16.6896  -26.6401   23.0478 C   0  0  0  0  0  0  0  0  0  0  0  0
  -28.1856  -17.9592   18.5144 C   0  0  0  0  0  0  0  0  0  0  0  0
  -26.9695  -28.2422   23.0857 C   0  0  0  0  0  0  0  0  0  0  0  0
  -26.7320  -31.4361   23.6004 C   0  0  0  0  0  0  0  0  0  0  0  0
  -24.8609  -34.2794   23.3524 C   0  0  0  0  0  0  0  0  0  0  0  0
  -25.1189  -22.2495   24.9473 C   0  0  0  0  0  0  0  0  0  0  0  0
  -31.3747  -26.0602   24.4607 C   0  0  0  0  0  0  0  0  0  0  0  0
  -26.2604  -29.0671   20.8114 C   0  0  0  0  0  0  0  0  0  0  0  0
  -24.6062  -30.2339   22.9670 C   0  0  0  0  0  0  0  0  0  0  0  0
  -18.6392  -28.0025   22.2076 C   0  0  0  0  0  0  0  0  0  0  0  0
  -30.5240  -27.2197   24.9729 C   0  0  0  0  0  0  0  0  0  0  0  0
  -28.6208  -21.6678   24.6717 C   0  0  0  0  0  0  0  0  0  0  0  0
  -29.0657  -26.7931   25.1076 C   0  0  0  0  0  0  0  0  0  0  0  0
  -28.7270  -20.6095   23.5712 C   0  0  0  0  0  0  0  0  0  0  0  0
  -27.3921  -21.4487   25.5526 C   0  0  0  0  0  0  0  0  0  0  0  0
  -26.2268  -20.2751   23.7267 C   0  0  0  0  0  0  0  0  0  0  0  0
  -19.9792  -26.0443   21.7786 C   0  0  0  0  0  0  0  0  0  0  0  0
  -28.4833  -26.3826   23.7497 C   0  0  1  0  0  0  0  0  0  0  0  0
  -26.8510  -29.4282   22.1708 C   0  0  1  0  0  0  0  0  0  0  0  0
  -27.4134  -20.4922   22.7736 C   0  0  2  0  0  0  0  0  0  0  0  0
  -20.0800  -27.5440   22.0226 C   0  0  1  0  0  0  0  0  0  1  0  0
  -19.1799  -22.3826   23.1688 C   0  0  0  0  0  0  0  0  0  0  0  0
  -21.6118  -20.8177   23.1979 C   0  0  0  0  0  0  0  0  0  0  0  0
  -16.0638  -25.3718   23.5213 C   0  0  0  0  0  0  0  0  0  0  0  0
  -24.9191  -36.7293   23.8928 C   0  0  0  0  0  0  0  0  0  0  0  0
  -26.2163  -30.7976   26.5392 C   0  0  0  0  0  0  0  0  0  0  0  0
  -25.3581  -33.1323   26.8238 C   0  0  0  0  0  0  0  0  0  0  0  0
  -27.7281  -32.7505   26.1456 C   0  0  0  0  0  0  0  0  0  0  0  0
  -24.5943  -35.0328   20.5027 C   0  0  0  0  0  0  0  0  0  0  0  0
  -19.2383  -25.1686   24.0238 C   0  0  0  0  0  0  0  0  0  0  0  0
  -25.8769  -32.3167   24.4793 C   0  0  1  0  0  0  0  0  0  0  0  0
  -25.2011  -35.6677   22.8410 C   0  0  2  0  0  0  0  0  0  0  0  0
  -26.2833  -32.2319   25.9776 C   0  0  0  0  0  0  0  0  0  0  0  0
  -27.0877  -18.1679   22.0166 N   0  0  0  0  0  0  0  0  0  0  0  0
  -27.4951  -19.4117   21.7115 N   0  0  0  0  0  0  0  0  0  0  0  0
  -26.0617  -30.4373   22.8800 N   0  0  0  0  0  0  0  0  0  0  0  0
  -26.1851  -21.3515   24.7289 N   0  0  0  0  0  0  0  0  0  0  0  0
  -28.3946  -20.7284   19.9599 N   0  0  0  0  0  0  0  0  0  0  0  0
  -27.9984  -16.6367   18.0898 N   0  0  0  0  0  0  0  0  0  0  0  0
  -24.0380  -22.0825   24.0823 N   0  0  0  0  0  0  0  0  0  0  0  0
  -28.1613  -27.5538   22.9630 N   0  0  0  0  0  0  0  0  0  0  0  0
  -25.9570  -33.6590   23.9134 N   0  0  0  0  0  0  0  0  0  0  0  0
  -18.8216  -25.5946   22.6450 N   0  3  1  0  0  0  0  0  0  0  0  0
  -24.3969  -35.9839   21.6268 N   0  3  0  0  0  0  0  0  0  0  0  0
  -28.6720  -18.7968   17.7174 O   0  0  0  0  0  0  0  0  0  0  0  0
  -26.0484  -27.9725   23.8477 O   0  0  0  0  0  0  0  0  0  0  0  0
  -27.9488  -31.6319   23.5493 O   0  0  0  0  0  0  0  0  0  0  0  0
  -23.7345  -33.7953   23.2663 O   0  0  0  0  0  0  0  0  0  0  0  0
  -25.1730  -23.1214   25.8184 O   0  0  0  0  0  0  0  0  0  0  0  0
  -26.0461  -12.0521   20.5809 O   0  0  0  0  0  0  0  0  0  0  0  0
  -20.6637  -28.1952   20.9082 O   0  0  0  0  0  0  0  0  0  1  0  0
  -29.7249   -8.7053   18.1999 F   0  0  0  0  0  0  0  0  0  0  0  0
  -27.1762   -9.9573   21.9870 F   0  0  0  0  0  0  0  0  0  0  0  0
  1  2  1  0  0  0  0
  1  5  2  0  0  0  0
  2  6  2  0  0  0  0
  3 10  2  0  0  0  0
  3 17  1  0  0  0  0
  4 11  1  0  0  0  0
  4 17  2  0  0  0  0
  5 19  1  0  0  0  0
  6 21  1  0  0  0  0
  7 12  2  0  0  0  0
  7 20  1  0  0  0  0
  8  9  2  0  0  0  0
  8 23  1  0  0  0  0
  9 26  1  0  0  0  0
 10 27  1  0  0  0  0
 11 27  2  0  0  0  0
 12 28  1  0  0  0  0
 13 14  2  0  0  0  0
 13 29  1  0  0  0  0
 14 30  1  0  0  0  0
 15 22  1  0  0  0  0
 15 28  2  0  0  0  0
 16 30  2  0  0  0  0
 16 31  1  0  0  0  0
 17 32  1  0  0  0  0
 18 32  1  0  0  0  0
 18 33  2  0  0  0  0
 18 36  1  0  0  0  0
 19 21  2  0  0  0  0
 19 41  1  0  0  0  0
 20 22  2  0  0  0  0
 20 42  1  0  0  0  0
 21 52  1  0  0  0  0
 22 43  1  0  0  0  0
 23 24  2  0  0  0  0
 23 64  1  0  0  0  0
 24 25  1  0  0  0  0
 24 56  1  0  0  0  0
 25 26  2  0  0  0  0
 25 57  1  0  0  0  0
 26 74  1  0  0  0  0
 27 84  1  0  0  0  0
 28 85  1  0  0  0  0
 29 31  2  0  0  0  0
 29 84  1  0  0  0  0
 30 86  1  0  0  0  0
 31 87  1  0  0  0  0
 32 68  2  0  0  0  0
 33 69  1  0  0  0  0
 33 72  1  0  0  0  0
 34 35  2  0  0  0  0
 34 44  1  0  0  0  0
 34 77  1  0  0  0  0
 35 58  1  0  0  0  0
 36 73  1  0  0  0  0
 36 79  2  0  0  0  0
 37 53  1  0  0  0  0
 37 75  1  0  0  0  0
 37 80  2  0  0  0  0
 38 65  1  0  0  0  0
 38 70  1  0  0  0  0
 38 81  2  0  0  0  0
 39 66  1  0  0  0  0
 39 76  1  0  0  0  0
 39 82  2  0  0  0  0
 40 71  1  0  0  0  0
 40 74  1  0  0  0  0
 40 83  2  0  0  0  0
 41 45  1  0  0  0  0
 42 53  1  0  0  0  0
 43 70  1  0  0  0  0
 44 55  1  0  0  0  0
 45 47  1  0  0  0  0
 46 48  1  0  0  0  0
 46 49  1  0  0  0  0
 47 52  1  0  0  0  0
 48 54  1  0  0  0  0
 49 71  1  0  0  0  0
 50 54  1  0  0  0  0
 50 71  1  0  0  0  0
 51 55  1  0  0  0  0
 51 77  1  0  0  0  0
 52 75  1  0  0  0  0
 53 70  1  0  0  0  0
 54 69  1  0  0  0  0
 55 85  1  0  0  0  0
 59 66  1  0  0  0  0
 60 67  1  0  0  0  0
 61 67  1  0  0  0  0
 62 67  1  0  0  0  0
 63 78  1  0  0  0  0
 64 77  1  0  0  0  0
 65 67  1  0  0  0  0
 65 76  1  0  0  0  0
 66 78  1  0  0  0  0
 68 69  1  0  0  0  0
M  CHG  2  77   1  78   1
M  ISO  4  40 100  55 101  74 100  85 101
M  END
> <Batch ID>
0030

> <Smiles>
CC=C1C[101CH:1]([101O:1]c2ccc3c(c2)CN(C(=O)C(NC(=O)C(C)NC)C(C)(C)C)C(C(=O)NC2CCCc4ccccc42)C3)CN1Cc1ccc([100NH:0][100C:0](=O)N2CCCC(n3nc(-c4ccc(Oc5ccc(F)cc5F)cc4)c(C(N)=O)c3N)C2)c(C)c1C

> <Shape>
0.240

> <Color>
0.051

> <Negative vol penalty>
0.000

$$$$

  -OEChem-04042321363D

 85 94  0     1  0  0  0  0  0999 V2000
  -27.7213  -23.8280   17.4186 C   0  0  0  0  0  0  0  0  0  0  0  0
  -26.5414  -24.1635   18.0749 C   0  0  0  0  0  0  0  0  0  0  0  0
  -26.9936  -16.2947   20.6233 C   0  0  0  0  0  0  0  0  0  0  0  0
  -24.5922  -16.1682   20.8574 C   0  0  0  0  0  0  0  0  0  0  0  0
  -28.9429  -24.2970   17.8999 C   0  0  0  0  0  0  0  0  0  0  0  0
  -26.5826  -24.9674   19.2135 C   0  0  0  0  0  0  0  0  0  0  0  0
  -23.0456  -28.5912   19.1622 C   0  0  0  0  0  0  0  0  0  0  0  0
  -27.0559  -14.9057   20.5123 C   0  0  0  0  0  0  0  0  0  0  0  0
  -24.6546  -14.7792   20.7463 C   0  0  0  0  0  0  0  0  0  0  0  0
  -21.7427  -28.2139   19.4844 C   0  0  0  0  0  0  0  0  0  0  0  0
  -26.4962  -12.5693   18.1330 C   0  0  0  0  0  0  0  0  0  0  0  0
  -27.3036  -12.0349   17.1290 C   0  0  0  0  0  0  0  0  0  0  0  0
  -22.0553  -29.0656   21.7196 C   0  0  0  0  0  0  0  0  0  0  0  0
  -20.0505  -23.4738   24.9239 C   0  0  0  0  0  0  0  0  0  0  0  0
  -18.7628  -21.1152   24.1749 C   0  0  0  0  0  0  0  0  0  0  0  0
  -28.6183  -10.8850   18.7983 C   0  0  0  0  0  0  0  0  0  0  0  0
  -25.7617  -16.9260   20.7960 C   0  0  0  0  0  0  0  0  0  0  0  0
  -25.5456  -19.2916   19.8661 C   0  0  0  0  0  0  0  0  0  0  0  0
  -28.9982  -25.1149   19.0395 C   0  0  0  0  0  0  0  0  0  0  0  0
  -23.8682  -29.1997   20.1210 C   0  0  0  0  0  0  0  0  0  0  0  0
  -27.8062  -25.4466   19.7113 C   0  0  0  0  0  0  0  0  0  0  0  0
  -23.3674  -29.4520   21.4062 C   0  0  0  0  0  0  0  0  0  0  0  0
  -20.4980  -22.2481   25.4169 C   0  0  0  0  0  0  0  0  0  0  0  0
  -18.9591  -23.5202   24.0564 C   0  0  0  0  0  0  0  0  0  0  0  0
  -19.8541  -21.0688   25.0424 C   0  0  0  0  0  0  0  0  0  0  0  0
  -25.8864  -14.1479   20.5738 C   0  0  0  0  0  0  0  0  0  0  0  0
  -21.2483  -28.4484   20.7642 C   0  0  0  0  0  0  0  0  0  0  0  0
  -26.7499  -12.2617   19.4697 C   0  0  0  0  0  0  0  0  0  0  0  0
  -28.3646  -11.1927   17.4616 C   0  0  0  0  0  0  0  0  0  0  0  0
  -27.8108  -11.4195   19.8023 C   0  0  0  0  0  0  0  0  0  0  0  0
  -18.3153  -22.3409   23.6819 C   0  0  0  0  0  0  0  0  0  0  0  0
  -25.6967  -18.3607   20.9113 C   0  0  0  0  0  0  0  0  0  0  0  0
  -25.5415  -20.5138   20.4928 C   0  0  0  0  0  0  0  0  0  0  0  0
  -25.4201  -19.0712   18.4549 C   0  0  0  0  0  0  0  0  0  0  0  0
  -26.6243  -28.4475   21.5144 C   0  0  0  0  0  0  0  0  0  0  0  0
  -26.3433  -31.4175   22.7880 C   0  0  0  0  0  0  0  0  0  0  0  0
  -24.3059  -34.0040   23.6858 C   0  0  0  0  0  0  0  0  0  0  0  0
  -24.1306  -22.2423   26.0491 C   0  0  0  0  0  0  0  0  0  0  0  0
  -30.3463  -25.5588   19.5497 C   0  0  0  0  0  0  0  0  0  0  0  0
  -25.2623  -29.6250   19.7497 C   0  0  0  0  0  0  0  0  0  0  0  0
  -24.2033  -30.1207   22.4658 C   0  0  0  0  0  0  0  0  0  0  0  0
  -30.2707  -26.7139   20.5449 C   0  0  0  0  0  0  0  0  0  0  0  0
  -27.2348  -22.7360   24.3767 C   0  0  0  0  0  0  0  0  0  0  0  0
  -29.1903  -26.4494   21.5886 C   0  0  0  0  0  0  0  0  0  0  0  0
  -27.1790  -21.7547   23.2046 C   0  0  0  0  0  0  0  0  0  0  0  0
  -26.5701  -22.1617   25.6258 C   0  0  0  0  0  0  0  0  0  0  0  0
  -25.1334  -20.7013   24.2557 C   0  0  0  0  0  0  0  0  0  0  0  0
  -18.2446  -26.3117   21.5980 C   0  0  0  0  0  0  0  0  0  0  0  0
  -20.2095  -25.7529   22.0332 C   0  0  0  0  0  0  0  0  0  0  0  0
  -27.8076  -26.3368   20.9351 C   0  0  1  0  0  0  0  0  0  0  0  0
  -26.1838  -29.7713   20.9566 C   0  0  1  0  0  0  0  0  0  0  0  0
  -25.7419  -21.2580   22.9572 C   0  0  2  0  0  0  0  0  0  0  0  0
  -19.6012  -26.6976   20.9819 C   0  0  0  0  0  0  0  0  0  1  0  0
  -20.3139  -19.7453   25.5598 C   0  0  0  0  0  0  0  0  0  0  0  0
  -24.3613  -36.2817   24.7377 C   0  0  0  0  0  0  0  0  0  0  0  0
  -26.7042  -30.1378   25.5343 C   0  0  0  0  0  0  0  0  0  0  0  0
  -25.8170  -32.2445   26.5555 C   0  0  0  0  0  0  0  0  0  0  0  0
  -27.9243  -32.2983   25.2217 C   0  0  0  0  0  0  0  0  0  0  0  0
  -23.2128  -35.2825   21.2508 C   0  0  0  0  0  0  0  0  0  0  0  0
  -21.6668  -22.2221   26.3462 C   0  0  0  0  0  0  0  0  0  0  0  0
  -18.5090  -24.8584   23.5487 C   0  0  0  0  0  0  0  0  0  0  0  0
  -25.7135  -31.9911   24.0344 C   0  0  1  0  0  0  0  0  0  0  0  0
  -24.4048  -35.4979   23.4352 C   0  0  2  0  0  0  0  0  0  0  0  0
  -26.5244  -31.6536   25.3173 C   0  0  0  0  0  0  0  0  0  0  0  0
  -25.7826  -18.9418   22.1109 N   0  0  0  0  0  0  0  0  0  0  0  0
  -25.6852  -20.2510   21.8233 N   0  0  0  0  0  0  0  0  0  0  0  0
  -25.5620  -30.5122   22.0560 N   0  0  0  0  0  0  0  0  0  0  0  0
  -25.2095  -21.7105   25.3237 N   0  0  0  0  0  0  0  0  0  0  0  0
  -25.4292  -21.7770   20.0299 N   0  0  0  0  0  0  0  0  0  0  0  0
  -25.4440  -17.7529   17.9799 N   0  0  0  0  0  0  0  0  0  0  0  0
  -27.2952  -27.6499   20.6071 N   0  0  0  0  0  0  0  0  0  0  0  0
  -25.5507  -33.4200   23.7890 N   0  0  0  0  0  0  0  0  0  0  0  0
  -22.8744  -21.7655   25.6951 N   0  0  0  0  0  0  0  0  0  0  0  0
  -18.8905  -25.1022   22.1404 N   0  3  0  0  0  0  0  0  0  0  0  0
  -23.2773  -35.9544   22.5742 N   0  3  0  0  0  0  0  0  0  0  0  0
  -25.3071  -20.0163   17.6379 O   0  0  0  0  0  0  0  0  0  0  0  0
  -26.3753  -28.1708   22.6819 O   0  0  0  0  0  0  0  0  0  0  0  0
  -27.4837  -31.7655   22.4717 O   0  0  0  0  0  0  0  0  0  0  0  0
  -23.2319  -33.4147   23.7843 O   0  0  0  0  0  0  0  0  0  0  0  0
  -24.2756  -23.0839   26.9422 O   0  0  0  0  0  0  0  0  0  0  0  0
  -25.9469  -12.7925   20.4652 O   0  0  0  0  0  0  0  0  0  0  0  0
  -19.9772  -28.0805   21.0816 O   0  0  0  0  0  0  0  0  0  1  0  0
  -29.1390  -10.6783   16.4973 F   0  0  0  0  0  0  0  0  0  0  0  0
  -28.0587  -11.1194   21.0846 F   0  0  0  0  0  0  0  0  0  0  0  0
  -16.9618  -22.3592   22.6109 Cl  0  0  0  0  0  0  0  0  0  0  0  0
  1  2  1  0  0  0  0
  1  5  2  0  0  0  0
  2  6  2  0  0  0  0
  3  8  2  0  0  0  0
  3 17  1  0  0  0  0
  4  9  1  0  0  0  0
  4 17  2  0  0  0  0
  5 19  1  0  0  0  0
  6 21  1  0  0  0  0
  7 10  2  0  0  0  0
  7 20  1  0  0  0  0
  8 26  1  0  0  0  0
  9 26  2  0  0  0  0
 10 27  1  0  0  0  0
 11 12  2  0  0  0  0
 11 28  1  0  0  0  0
 12 29  1  0  0  0  0
 13 22  1  0  0  0  0
 13 27  2  0  0  0  0
 14 23  2  0  0  0  0
 14 24  1  0  0  0  0
 15 25  2  0  0  0  0
 15 31  1  0  0  0  0
 16 29  2  0  0  0  0
 16 30  1  0  0  0  0
 17 32  1  0  0  0  0
 18 32  1  0  0  0  0
 18 33  2  0  0  0  0
 18 34  1  0  0  0  0
 19 21  2  0  0  0  0
 19 39  1  0  0  0  0
 20 22  2  0  0  0  0
 20 40  1  0  0  0  0
 21 50  1  0  0  0  0
 22 41  1  0  0  0  0
 23 25  1  0  0  0  0
 23 60  1  0  0  0  0
 24 31  2  0  0  0  0
 24 61  1  0  0  0  0
 25 54  1  0  0  0  0
 26 81  1  0  0  0  0
 27 82  1  0  0  0  0
 28 30  2  0  0  0  0
 28 81  1  0  0  0  0
 29 83  1  0  0  0  0
 30 84  1  0  0  0  0
 31 85  1  0  0  0  0
 32 65  2  0  0  0  0
 33 66  1  0  0  0  0
 33 69  1  0  0  0  0
 34 70  1  0  0  0  0
 34 76  2  0  0  0  0
 35 51  1  0  0  0  0
 35 71  1  0  0  0  0
 35 77  2  0  0  0  0
 36 62  1  0  0  0  0
 36 67  1  0  0  0  0
 36 78  2  0  0  0  0
 37 63  1  0  0  0  0
 37 72  1  0  0  0  0
 37 79  2  0  0  0  0
 38 68  1  0  0  0  0
 38 73  1  0  0  0  0
 38 80  2  0  0  0  0
 39 42  1  0  0  0  0
 40 51  1  0  0  0  0
 41 67  1  0  0  0  0
 42 44  1  0  0  0  0
 43 45  1  0  0  0  0
 43 46  1  0  0  0  0
 44 50  1  0  0  0  0
 45 52  1  0  0  0  0
 46 68  1  0  0  0  0
 47 52  1  0  0  0  0
 47 68  1  0  0  0  0
 48 53  1  0  0  0  0
 48 74  1  0  0  0  0
 49 53  1  0  0  0  0
 49 74  1  0  0  0  0
 50 71  1  0  0  0  0
 51 67  1  0  0  0  0
 52 66  1  0  0  0  0
 53 82  1  0  0  0  0
 55 63  1  0  0  0  0
 56 64  1  0  0  0  0
 57 64  1  0  0  0  0
 58 64  1  0  0  0  0
 59 75  1  0  0  0  0
 60 73  1  0  0  0  0
 61 74  1  0  0  0  0
 62 64  1  0  0  0  0
 62 72  1  0  0  0  0
 63 75  1  0  0  0  0
 65 66  1  0  0  0  0
M  CHG  2  74   1  75   1
M  ISO  4  38 100  53 101  73 100  82 101
M  END
> <Batch ID>
0030

> <Smiles>
CNC(C)C(=O)NC(C(=O)N1Cc2cc([101O:1][101CH:1]3CN(Cc4cc(C[100NH:0][100C:0](=O)N5CCCC(n6nc(-c7ccc(Oc8ccc(F)cc8F)cc7)c(C(N)=O)c6N)C5)c(C)cc4Cl)C3)ccc2CC1C(=O)NC1CCCc2ccccc21)C(C)(C)C

> <Shape>
0.251

> <Color>
0.054

> <Negative vol penalty>
0.000

$$$$

  -OEChem-04042321363D

 85 94  0     1  0  0  0  0  0999 V2000
  -31.0823  -35.5676   24.7288 C   0  0  0  0  0  0  0  0  0  0  0  0
  -31.2254  -34.3188   24.1326 C   0  0  0  0  0  0  0  0  0  0  0  0
  -24.7472   -9.8774   21.9808 C   0  0  0  0  0  0  0  0  0  0  0  0
  -24.6350  -11.1017   24.0607 C   0  0  0  0  0  0  0  0  0  0  0  0
  -29.9993  -35.8169   25.5707 C   0  0  0  0  0  0  0  0  0  0  0  0
  -30.2861  -33.3181   24.3790 C   0  0  0  0  0  0  0  0  0  0  0  0
  -28.3588  -29.0307   20.4535 C   0  0  0  0  0  0  0  0  0  0  0  0
  -31.1826  -19.4467   23.4988 C   0  0  0  0  0  0  0  0  0  0  0  0
  -30.7286  -20.7356   23.2190 C   0  0  0  0  0  0  0  0  0  0  0  0
  -24.3585   -8.7139   22.6447 C   0  0  0  0  0  0  0  0  0  0  0  0
  -24.2462   -9.9382   24.7246 C   0  0  0  0  0  0  0  0  0  0  0  0
  -28.7151  -27.6948   20.2743 C   0  0  0  0  0  0  0  0  0  0  0  0
  -21.4927   -7.3514   23.8126 C   0  0  0  0  0  0  0  0  0  0  0  0
  -20.5134   -6.5594   23.2132 C   0  0  0  0  0  0  0  0  0  0  0  0
  -26.8490  -27.0193   21.6456 C   0  0  0  0  0  0  0  0  0  0  0  0
  -29.0618  -18.9240   24.5315 C   0  0  0  0  0  0  0  0  0  0  0  0
  -22.0635   -4.7083   23.1265 C   0  0  0  0  0  0  0  0  0  0  0  0
  -24.8855  -11.0713   22.6888 C   0  0  0  0  0  0  0  0  0  0  0  0
  -24.4484  -13.2273   21.3972 C   0  0  0  0  0  0  0  0  0  0  0  0
  -29.0410  -34.8218   25.8199 C   0  0  0  0  0  0  0  0  0  0  0  0
  -27.2494  -29.3720   21.2404 C   0  0  0  0  0  0  0  0  0  0  0  0
  -29.1900  -33.5539   25.2262 C   0  0  0  0  0  0  0  0  0  0  0  0
  -26.4792  -28.3602   21.8312 C   0  0  0  0  0  0  0  0  0  0  0  0
  -30.3491  -18.5409   24.1550 C   0  0  0  0  0  0  0  0  0  0  0  0
  -29.4413  -21.1187   23.5954 C   0  0  0  0  0  0  0  0  0  0  0  0
  -28.6079  -20.2129   24.2517 C   0  0  0  0  0  0  0  0  0  0  0  0
  -24.1080   -8.7443   24.0166 C   0  0  0  0  0  0  0  0  0  0  0  0
  -27.9619  -26.6890   20.8728 C   0  0  0  0  0  0  0  0  0  0  0  0
  -22.7575   -6.8218   24.0688 C   0  0  0  0  0  0  0  0  0  0  0  0
  -20.7988   -5.2379   22.8702 C   0  0  0  0  0  0  0  0  0  0  0  0
  -23.0429   -5.5003   23.7258 C   0  0  0  0  0  0  0  0  0  0  0  0
  -25.2875  -12.2734   22.0037 C   0  0  0  0  0  0  0  0  0  0  0  0
  -25.3098  -14.1693   20.8901 C   0  0  0  0  0  0  0  0  0  0  0  0
  -23.0182  -13.2590   21.3008 C   0  0  0  0  0  0  0  0  0  0  0  0
  -26.8227  -31.0390   23.9130 C   0  0  0  0  0  0  0  0  0  0  0  0
  -23.6842  -30.5475   23.2566 C   0  0  0  0  0  0  0  0  0  0  0  0
  -21.3123  -28.6507   21.7000 C   0  0  0  0  0  0  0  0  0  0  0  0
  -30.8720  -15.8228   22.3661 C   0  0  0  0  0  0  0  0  0  0  0  0
  -27.9130  -35.1231   26.7746 C   0  0  0  0  0  0  0  0  0  0  0  0
  -26.8625  -30.8165   21.4020 C   0  0  0  0  0  0  0  0  0  0  0  0
  -25.2671  -28.6729   22.6687 C   0  0  0  0  0  0  0  0  0  0  0  0
  -26.7588  -34.1279   26.6873 C   0  0  0  0  0  0  0  0  0  0  0  0
  -29.7580  -14.6489   19.1948 C   0  0  0  0  0  0  0  0  0  0  0  0
  -27.2876  -32.6971   26.6728 C   0  0  0  0  0  0  0  0  0  0  0  0
  -28.4102  -13.9930   19.5003 C   0  0  0  0  0  0  0  0  0  0  0  0
  -27.7132  -23.1889   19.8729 C   0  0  0  0  0  0  0  0  0  0  0  0
  -30.7627  -14.4262   20.3231 C   0  0  0  0  0  0  0  0  0  0  0  0
  -28.9434  -14.1744   21.9664 C   0  0  0  0  0  0  0  0  0  0  0  0
  -28.6680  -22.4475   20.7866 C   0  0  0  0  0  0  0  0  0  0  0  0
  -27.1299  -23.8047   22.1253 C   0  0  0  0  0  0  0  0  0  0  0  0
  -28.1785  -32.4506   25.4493 C   0  0  1  0  0  0  0  0  0  0  0  0
  -26.0166  -31.0730   22.6454 C   0  0  1  0  0  0  0  0  0  0  0  0
  -27.8797  -14.4192   20.8824 C   0  0  2  0  0  0  0  0  0  0  0  0
  -27.2759  -24.3705   20.7213 C   0  0  1  0  0  0  0  0  0  1  0  0
  -27.2259  -20.6008   24.6645 C   0  0  0  0  0  0  0  0  0  0  0  0
  -18.8299  -28.4755   21.3773 C   0  0  0  0  0  0  0  0  0  0  0  0
  -23.3994  -29.4210   26.0779 C   0  0  0  0  0  0  0  0  0  0  0  0
  -21.2152  -28.4154   25.3808 C   0  0  0  0  0  0  0  0  0  0  0  0
  -21.5135  -30.8918   25.3466 C   0  0  0  0  0  0  0  0  0  0  0  0
  -21.5524  -28.9903   18.7698 C   0  0  0  0  0  0  0  0  0  0  0  0
  -30.8349  -17.1631   24.4545 C   0  0  0  0  0  0  0  0  0  0  0  0
  -28.9757  -22.5107   23.2847 C   0  0  0  0  0  0  0  0  0  0  0  0
  -22.6746  -29.4792   23.6006 C   0  0  1  0  0  0  0  0  0  0  0  0
  -20.1325  -29.0323   20.8243 C   0  0  2  0  0  0  0  0  0  0  0  0
  -22.2246  -29.5457   25.0873 C   0  0  0  0  0  0  0  0  0  0  0  0
  -26.5825  -12.5812   21.8930 N   0  0  0  0  0  0  0  0  0  0  0  0
  -26.5636  -13.7390   21.2109 N   0  0  0  0  0  0  0  0  0  0  0  0
  -24.9331  -30.1005   22.8023 N   0  0  0  0  0  0  0  0  0  0  0  0
  -30.1986  -14.8522   21.6061 N   0  0  0  0  0  0  0  0  0  0  0  0
  -25.1094  -15.3154   20.2055 N   0  0  0  0  0  0  0  0  0  0  0  0
  -22.2864  -12.2117   21.8769 N   0  0  0  0  0  0  0  0  0  0  0  0
  -27.3689  -32.2585   24.2651 N   0  0  0  0  0  0  0  0  0  0  0  0
  -21.5860  -29.6218   22.6398 N   0  0  0  0  0  0  0  0  0  0  0  0
  -30.2659  -16.1742   23.5661 N   0  0  0  0  0  0  0  0  0  0  0  0
  -28.0124  -22.5649   22.1428 N   0  3  2  0  0  0  0  0  0  0  0  0
  -20.3205  -28.5048   19.4432 N   0  3  0  0  0  0  0  0  0  0  0  0
  -22.4082  -14.1801   20.7067 O   0  0  0  0  0  0  0  0  0  0  0  0
  -26.9391  -29.9849   24.5269 O   0  0  0  0  0  0  0  0  0  0  0  0
  -23.3737  -31.7350   23.3795 O   0  0  0  0  0  0  0  0  0  0  0  0
  -21.9272  -27.5949   21.5662 O   0  0  0  0  0  0  0  0  0  0  0  0
  -31.9318  -16.3419   21.9997 O   0  0  0  0  0  0  0  0  0  0  0  0
  -23.7285   -7.6092   24.6647 O   0  0  0  0  0  0  0  0  0  0  0  0
  -28.3079  -25.3842   20.7000 O   0  0  0  0  0  0  0  0  0  1  0  0
  -19.8577   -4.4770   22.2960 F   0  0  0  0  0  0  0  0  0  0  0  0
  -24.2557   -4.9856   23.9706 F   0  0  0  0  0  0  0  0  0  0  0  0
  1  2  1  0  0  0  0
  1  5  2  0  0  0  0
  2  6  2  0  0  0  0
  3 10  2  0  0  0  0
  3 18  1  0  0  0  0
  4 11  1  0  0  0  0
  4 18  2  0  0  0  0
  5 20  1  0  0  0  0
  6 22  1  0  0  0  0
  7 12  2  0  0  0  0
  7 21  1  0  0  0  0
  8  9  2  0  0  0  0
  8 24  1  0  0  0  0
  9 25  1  0  0  0  0
 10 27  1  0  0  0  0
 11 27  2  0  0  0  0
 12 28  1  0  0  0  0
 13 14  2  0  0  0  0
 13 29  1  0  0  0  0
 14 30  1  0  0  0  0
 15 23  1  0  0  0  0
 15 28  2  0  0  0  0
 16 24  2  0  0  0  0
 16 26  1  0  0  0  0
 17 30  2  0  0  0  0
 17 31  1  0  0  0  0
 18 32  1  0  0  0  0
 19 32  1  0  0  0  0
 19 33  2  0  0  0  0
 19 34  1  0  0  0  0
 20 22  2  0  0  0  0
 20 39  1  0  0  0  0
 21 23  2  0  0  0  0
 21 40  1  0  0  0  0
 22 51  1  0  0  0  0
 23 41  1  0  0  0  0
 24 61  1  0  0  0  0
 25 26  2  0  0  0  0
 25 62  1  0  0  0  0
 26 55  1  0  0  0  0
 27 82  1  0  0  0  0
 28 83  1  0  0  0  0
 29 31  2  0  0  0  0
 29 82  1  0  0  0  0
 30 84  1  0  0  0  0
 31 85  1  0  0  0  0
 32 66  2  0  0  0  0
 33 67  1  0  0  0  0
 33 70  1  0  0  0  0
 34 71  1  0  0  0  0
 34 77  2  0  0  0  0
 35 52  1  0  0  0  0
 35 72  1  0  0  0  0
 35 78  2  0  0  0  0
 36 63  1  0  0  0  0
 36 68  1  0  0  0  0
 36 79  2  0  0  0  0
 37 64  1  0  0  0  0
 37 73  1  0  0  0  0
 37 80  2  0  0  0  0
 38 69  1  0  0  0  0
 38 74  1  0  0  0  0
 38 81  2  0  0  0  0
 39 42  1  0  0  0  0
 40 52  1  0  0  0  0
 41 68  1  0  0  0  0
 42 44  1  0  0  0  0
 43 45  1  0  0  0  0
 43 47  1  0  0  0  0
 44 51  1  0  0  0  0
 45 53  1  0  0  0  0
 46 49  1  0  0  0  0
 46 54  1  0  0  0  0
 47 69  1  0  0  0  0
 48 53  1  0  0  0  0
 48 69  1  0  0  0  0
 49 75  1  0  0  0  0
 50 54  1  0  0  0  0
 50 75  1  0  0  0  0
 51 72  1  0  0  0  0
 52 68  1  0  0  0  0
 53 67  1  0  0  0  0
 54 83  1  0  0  0  0
 56 64  1  0  0  0  0
 57 65  1  0  0  0  0
 58 65  1  0  0  0  0
 59 65  1  0  0  0  0
 60 76  1  0  0  0  0
 61 74  1  0  0  0  0
 62 75  1  0  0  0  0
 63 65  1  0  0  0  0
 63 73  1  0  0  0  0
 64 76  1  0  0  0  0
 66 67  1  0  0  0  0
M  CHG  2  75   1  76   1
M  ISO  4  38 100  54 101  74 100  83 101
M  END
> <Batch ID>
0030

> <Smiles>
CNC(C)C(=O)NC(C(=O)N1Cc2cc([101O:1][101CH:1]3CCN(Cc4ccc(C[100NH:0][100C:0](=O)N5CCCC(n6nc(-c7ccc(Oc8ccc(F)cc8F)cc7)c(C(N)=O)c6N)C5)cc4C)C3)ccc2CC1C(=O)NC1CCCc2ccccc21)C(C)(C)C

> <Shape>
0.266

> <Color>
0.114

> <Negative vol penalty>
0.000

$$$$
