
  -OEChem-04042321393D

 87 96  0     1  0  0  0  0  0999 V2000
  -24.2400  -27.3177   22.9992 C   0  0  0  0  0  0  0  0  0  0  0  0
  -24.5493  -26.0584   23.5032 C   0  0  0  0  0  0  0  0  0  0  0  0
  -19.5172  -22.7864   22.8934 C   0  0  0  0  0  0  0  0  0  0  0  0
  -20.8837  -22.5905   20.9106 C   0  0  0  0  0  0  0  0  0  0  0  0
  -24.4658  -27.6034   21.6534 C   0  0  0  0  0  0  0  0  0  0  0  0
  -25.0835  -25.0837   22.6612 C   0  0  0  0  0  0  0  0  0  0  0  0
  -29.6124  -19.5336   22.7142 C   0  0  0  0  0  0  0  0  0  0  0  0
  -26.7168  -11.1166   22.9195 C   0  0  0  0  0  0  0  0  0  0  0  0
  -25.3657  -11.4097   22.7346 C   0  0  0  0  0  0  0  0  0  0  0  0
  -19.8755  -24.1296   23.0077 C   0  0  0  0  0  0  0  0  0  0  0  0
  -21.2421  -23.9337   21.0249 C   0  0  0  0  0  0  0  0  0  0  0  0
  -29.6702  -18.1872   22.3570 C   0  0  0  0  0  0  0  0  0  0  0  0
  -19.0119  -27.0685   21.5761 C   0  0  0  0  0  0  0  0  0  0  0  0
  -17.9997  -27.9884   21.8500 C   0  0  0  0  0  0  0  0  0  0  0  0
  -30.0913  -18.8191   20.0673 C   0  0  0  0  0  0  0  0  0  0  0  0
  -19.1302  -28.6256   23.8879 C   0  0  0  0  0  0  0  0  0  0  0  0
  -20.0213  -22.0168   21.8449 C   0  0  0  0  0  0  0  0  0  0  0  0
  -18.5546  -20.0986   21.0224 C   0  0  0  0  0  0  0  0  0  0  0  0
  -25.0120  -26.6348   20.7967 C   0  0  0  0  0  0  0  0  0  0  0  0
  -29.7830  -20.5346   21.7471 C   0  0  0  0  0  0  0  0  0  0  0  0
  -25.3155  -25.3563   21.3023 C   0  0  0  0  0  0  0  0  0  0  0  0
  -30.0377  -20.1774   20.4153 C   0  0  0  0  0  0  0  0  0  0  0  0
  -27.6460  -11.4615   21.9380 C   0  0  0  0  0  0  0  0  0  0  0  0
  -24.9437  -12.0477   21.5682 C   0  0  0  0  0  0  0  0  0  0  0  0
  -27.2240  -12.0995   20.7716 C   0  0  0  0  0  0  0  0  0  0  0  0
  -20.7379  -24.7032   22.0734 C   0  0  0  0  0  0  0  0  0  0  0  0
  -29.9068  -17.8298   21.0329 C   0  0  0  0  0  0  0  0  0  0  0  0
  -20.0832  -26.9271   22.4582 C   0  0  0  0  0  0  0  0  0  0  0  0
  -18.0589  -28.7669   23.0058 C   0  0  0  0  0  0  0  0  0  0  0  0
  -20.1424  -27.7056   23.6140 C   0  0  0  0  0  0  0  0  0  0  0  0
  -25.8729  -12.3926   20.5867 C   0  0  0  0  0  0  0  0  0  0  0  0
  -19.6520  -20.6291   21.7266 C   0  0  0  0  0  0  0  0  0  0  0  0
  -18.6447  -18.7420   21.2176 C   0  0  0  0  0  0  0  0  0  0  0  0
  -29.9472  -14.0521   19.0197 C   0  0  0  0  0  0  0  0  0  0  0  0
  -30.9839  -13.2689   18.6992 C   0  0  0  0  0  0  0  0  0  0  0  0
  -17.5440  -20.7718   20.2600 C   0  0  0  0  0  0  0  0  0  0  0  0
  -27.9702  -22.8825   20.6049 C   0  0  0  0  0  0  0  0  0  0  0  0
  -30.6827  -23.6769   19.0132 C   0  0  0  0  0  0  0  0  0  0  0  0
  -33.6858  -22.6845   17.7313 C   0  0  0  0  0  0  0  0  0  0  0  0
  -22.5966  -14.6606   21.5883 C   0  0  0  0  0  0  0  0  0  0  0  0
  -25.1941  -26.9749   19.3387 C   0  0  0  0  0  0  0  0  0  0  0  0
  -29.7443  -21.9823   22.1534 C   0  0  0  0  0  0  0  0  0  0  0  0
  -30.2479  -21.2136   19.3427 C   0  0  0  0  0  0  0  0  0  0  0  0
  -29.7243  -15.4454   18.5199 C   0  0  0  0  0  0  0  0  0  0  0  0
  -26.1123  -26.0066   18.5973 C   0  0  0  0  0  0  0  0  0  0  0  0
  -20.8729  -15.8397   24.5440 C   0  0  0  0  0  0  0  0  0  0  0  0
  -25.7458  -24.5635   18.9291 C   0  0  0  0  0  0  0  0  0  0  0  0
  -20.2717  -17.1536   24.0417 C   0  0  0  0  0  0  0  0  0  0  0  0
  -22.2595  -15.6043   23.9523 C   0  0  0  0  0  0  0  0  0  0  0  0
  -21.7063  -16.9437   21.9590 C   0  0  0  0  0  0  0  0  0  0  0  0
  -28.1977  -14.9254   20.3088 C   0  0  0  0  0  0  0  0  0  0  0  0
  -25.9196  -24.2804   20.4262 C   0  0  1  0  0  0  0  0  0  0  0  0
  -29.4210  -22.9198   20.9942 C   0  0  1  0  0  0  0  0  0  0  0  0
  -20.2947  -17.2285   22.5035 C   0  0  2  0  0  0  0  0  0  0  0  0
  -29.0187  -16.0625   19.7174 C   0  0  1  0  0  0  0  0  0  1  0  0
  -29.0871  -11.1373   22.1592 C   0  0  0  0  0  0  0  0  0  0  0  0
  -35.6641  -23.5490   16.4521 C   0  0  0  0  0  0  0  0  0  0  0  0
  -29.0410  -23.6218   16.4419 C   0  0  0  0  0  0  0  0  0  0  0  0
  -31.1874  -23.5428   15.1555 C   0  0  0  0  0  0  0  0  0  0  0  0
  -30.6717  -25.5114   16.5981 C   0  0  0  0  0  0  0  0  0  0  0  0
  -35.5411  -22.0587   19.9506 C   0  0  0  0  0  0  0  0  0  0  0  0
  -23.4979  -12.3587   21.3741 C   0  0  0  0  0  0  0  0  0  0  0  0
  -28.2083  -12.4776   19.7042 C   0  0  0  0  0  0  0  0  0  0  0  0
  -31.2857  -23.3098   17.6788 C   0  0  1  0  0  0  0  0  0  0  0  0
  -35.0734  -23.2923   17.8297 C   0  0  2  0  0  0  0  0  0  0  0  0
  -30.5406  -23.9767   16.4882 C   0  0  0  0  0  0  0  0  0  0  0  0
  -20.3854  -19.6865   22.3246 N   0  0  0  0  0  0  0  0  0  0  0  0
  -19.7475  -18.5500   21.9967 N   0  0  0  0  0  0  0  0  0  0  0  0
  -30.1945  -22.6157   19.7886 N   0  0  0  0  0  0  0  0  0  0  0  0
  -22.2087  -15.6701   22.4850 N   0  0  0  0  0  0  0  0  0  0  0  0
  -17.8874  -17.7066   20.7970 N   0  0  0  0  0  0  0  0  0  0  0  0
  -17.6007  -22.1687   20.1619 N   0  0  0  0  0  0  0  0  0  0  0  0
  -27.3186  -24.0929   20.7459 N   0  0  0  0  0  0  0  0  0  0  0  0
  -32.7019  -23.6499   17.7634 N   0  0  0  0  0  0  0  0  0  0  0  0
  -23.0675  -13.4885   22.1673 N   0  0  0  0  0  0  0  0  0  0  0  0
  -29.0368  -13.6734   20.0661 N   0  3  1  0  0  0  0  0  0  0  0  0
  -35.9880  -22.3780   18.5703 N   0  3  0  0  0  0  0  0  0  0  0  0
  -16.6089  -20.1542   19.6964 O   0  0  0  0  0  0  0  0  0  0  0  0
  -27.4788  -21.8337   20.2047 O   0  0  0  0  0  0  0  0  0  0  0  0
  -30.6527  -24.8609   19.3581 O   0  0  0  0  0  0  0  0  0  0  0  0
  -33.4941  -21.4745   17.6319 O   0  0  0  0  0  0  0  0  0  0  0  0
  -22.5236  -14.7920   20.3617 O   0  0  0  0  0  0  0  0  0  0  0  0
  -21.0876  -26.0139   22.1845 O   0  0  0  0  0  0  0  0  0  0  0  0
  -29.9631  -16.5163   20.6814 O   0  0  0  0  0  0  0  0  0  1  0  0
  -17.0877  -29.6514   23.2679 F   0  0  0  0  0  0  0  0  0  0  0  0
  -21.1696  -27.5750   24.4646 F   0  0  0  0  0  0  0  0  0  0  0  0
  -25.4663  -13.0056   19.4650 F   0  0  0  0  0  0  0  0  0  0  0  0
  1  2  1  0  0  0  0
  1  5  2  0  0  0  0
  2  6  2  0  0  0  0
  3 10  2  0  0  0  0
  3 17  1  0  0  0  0
  4 11  1  0  0  0  0
  4 17  2  0  0  0  0
  5 19  1  0  0  0  0
  6 21  1  0  0  0  0
  7 12  2  0  0  0  0
  7 20  1  0  0  0  0
  8  9  1  0  0  0  0
  8 23  2  0  0  0  0
  9 24  2  0  0  0  0
 10 26  1  0  0  0  0
 11 26  2  0  0  0  0
 12 27  1  0  0  0  0
 13 14  2  0  0  0  0
 13 28  1  0  0  0  0
 14 29  1  0  0  0  0
 15 22  1  0  0  0  0
 15 27  2  0  0  0  0
 16 29  2  0  0  0  0
 16 30  1  0  0  0  0
 17 32  1  0  0  0  0
 18 32  1  0  0  0  0
 18 33  2  0  0  0  0
 18 36  1  0  0  0  0
 19 21  2  0  0  0  0
 19 41  1  0  0  0  0
 20 22  2  0  0  0  0
 20 42  1  0  0  0  0
 21 52  1  0  0  0  0
 22 43  1  0  0  0  0
 23 25  1  0  0  0  0
 23 56  1  0  0  0  0
 24 31  1  0  0  0  0
 24 62  1  0  0  0  0
 25 31  2  0  0  0  0
 25 63  1  0  0  0  0
 26 83  1  0  0  0  0
 27 84  1  0  0  0  0
 28 30  2  0  0  0  0
 28 83  1  0  0  0  0
 29 85  1  0  0  0  0
 30 86  1  0  0  0  0
 31 87  1  0  0  0  0
 32 67  2  0  0  0  0
 33 68  1  0  0  0  0
 33 71  1  0  0  0  0
 34 35  2  0  0  0  0
 34 44  1  0  0  0  0
 34 76  1  0  0  0  0
 36 72  1  0  0  0  0
 36 78  2  0  0  0  0
 37 53  1  0  0  0  0
 37 73  1  0  0  0  0
 37 79  2  0  0  0  0
 38 64  1  0  0  0  0
 38 69  1  0  0  0  0
 38 80  2  0  0  0  0
 39 65  1  0  0  0  0
 39 74  1  0  0  0  0
 39 81  2  0  0  0  0
 40 70  1  0  0  0  0
 40 75  1  0  0  0  0
 40 82  2  0  0  0  0
 41 45  1  0  0  0  0
 42 53  1  0  0  0  0
 43 69  1  0  0  0  0
 44 55  1  0  0  0  0
 45 47  1  0  0  0  0
 46 48  1  0  0  0  0
 46 49  1  0  0  0  0
 47 52  1  0  0  0  0
 48 54  1  0  0  0  0
 49 70  1  0  0  0  0
 50 54  1  0  0  0  0
 50 70  1  0  0  0  0
 51 55  1  0  0  0  0
 51 76  1  0  0  0  0
 52 73  1  0  0  0  0
 53 69  1  0  0  0  0
 54 68  1  0  0  0  0
 55 84  1  0  0  0  0
 57 65  1  0  0  0  0
 58 66  1  0  0  0  0
 59 66  1  0  0  0  0
 60 66  1  0  0  0  0
 61 77  1  0  0  0  0
 62 75  1  0  0  0  0
 63 76  1  0  0  0  0
 64 66  1  0  0  0  0
 64 74  1  0  0  0  0
 65 77  1  0  0  0  0
 67 68  1  0  0  0  0
M  CHG  2  76   1  77   1
M  ISO  4  40 100  55 101  75 100  84 101
M  END
> <Batch ID>
0031

> <Smiles>
C=C1C[101CH:1]([101O:1]c2ccc3c(c2)CN(C(=O)C(NC(=O)C(C)NC)C(C)(C)C)C(C(=O)NC2CCCc4ccccc42)C3)CN1Cc1c(C)ccc(C[100NH:0][100C:0](=O)N2CCCC(n3nc(-c4ccc(Oc5ccc(F)cc5F)cc4)c(C(N)=O)c3N)C2)c1F

> <Shape>
0.214

> <Color>
0.054

> <Negative vol penalty>
0.000

$$$$

  -OEChem-04042321393D

 86 95  0     1  0  0  0  0  0999 V2000
  -17.1838  -31.8039   22.5344 C   0  0  0  0  0  0  0  0  0  0  0  0
  -18.4555  -32.3186   22.7651 C   0  0  0  0  0  0  0  0  0  0  0  0
  -26.5823  -13.2413   19.5097 C   0  0  0  0  0  0  0  0  0  0  0  0
  -25.7973  -13.2124   21.7944 C   0  0  0  0  0  0  0  0  0  0  0  0
  -16.9713  -30.4267   22.5815 C   0  0  0  0  0  0  0  0  0  0  0  0
  -19.5153  -31.4564   23.0442 C   0  0  0  0  0  0  0  0  0  0  0  0
  -26.4007  -30.6641   19.4399 C   0  0  0  0  0  0  0  0  0  0  0  0
  -25.5067  -12.4387   19.1299 C   0  0  0  0  0  0  0  0  0  0  0  0
  -24.7215  -12.4097   21.4146 C   0  0  0  0  0  0  0  0  0  0  0  0
  -27.5862  -30.3223   18.7890 C   0  0  0  0  0  0  0  0  0  0  0  0
  -24.1726   -9.1485   20.7118 C   0  0  0  0  0  0  0  0  0  0  0  0
  -23.8682   -8.0499   21.5155 C   0  0  0  0  0  0  0  0  0  0  0  0
  -27.4319  -28.0739   19.6657 C   0  0  0  0  0  0  0  0  0  0  0  0
  -30.7978  -23.1598   19.3278 C   0  0  0  0  0  0  0  0  0  0  0  0
  -29.0403  -22.7828   17.7136 C   0  0  0  0  0  0  0  0  0  0  0  0
  -21.6643   -8.9546   21.9173 C   0  0  0  0  0  0  0  0  0  0  0  0
  -26.7277  -13.6282   20.8420 C   0  0  0  0  0  0  0  0  0  0  0  0
  -29.2088  -14.1576   21.1093 C   0  0  0  0  0  0  0  0  0  0  0  0
  -18.0310  -29.5466   22.8518 C   0  0  0  0  0  0  0  0  0  0  0  0
  -25.7172  -29.7066   20.1946 C   0  0  0  0  0  0  0  0  0  0  0  0
  -19.3165  -30.0663   23.0963 C   0  0  0  0  0  0  0  0  0  0  0  0
  -26.2373  -28.4070   20.3098 C   0  0  0  0  0  0  0  0  0  0  0  0
  -30.2498  -23.3825   18.0646 C   0  0  0  0  0  0  0  0  0  0  0  0
  -30.1365  -22.3374   20.2400 C   0  0  0  0  0  0  0  0  0  0  0  0
  -28.3789  -21.9604   18.6257 C   0  0  0  0  0  0  0  0  0  0  0  0
  -28.9270  -21.7377   19.8889 C   0  0  0  0  0  0  0  0  0  0  0  0
  -24.5763  -12.0229   20.0823 C   0  0  0  0  0  0  0  0  0  0  0  0
  -28.1007  -29.0305   18.9019 C   0  0  0  0  0  0  0  0  0  0  0  0
  -23.2229  -10.1502   20.5108 C   0  0  0  0  0  0  0  0  0  0  0  0
  -22.6141   -7.9529   22.1183 C   0  0  0  0  0  0  0  0  0  0  0  0
  -21.9687  -10.0532   21.1136 C   0  0  0  0  0  0  0  0  0  0  0  0
  -27.8389  -14.4568   21.2350 C   0  0  0  0  0  0  0  0  0  0  0  0
  -29.8493  -15.2584   21.6236 C   0  0  0  0  0  0  0  0  0  0  0  0
  -29.8453  -12.9892   20.5752 C   0  0  0  0  0  0  0  0  0  0  0  0
  -22.7420  -28.9082   22.3362 C   0  0  0  0  0  0  0  0  0  0  0  0
  -23.2127  -26.4787   20.5234 C   0  0  0  0  0  0  0  0  0  0  0  0
  -22.9021  -23.6886   18.5853 C   0  0  0  0  0  0  0  0  0  0  0  0
  -28.2780  -20.9939   22.2066 C   0  0  0  0  0  0  0  0  0  0  0  0
  -17.7431  -28.0687   22.9389 C   0  0  0  0  0  0  0  0  0  0  0  0
  -24.4693  -30.0473   20.9630 C   0  0  0  0  0  0  0  0  0  0  0  0
  -25.4864  -27.4194   21.1605 C   0  0  0  0  0  0  0  0  0  0  0  0
  -18.9958  -27.1990   22.8712 C   0  0  0  0  0  0  0  0  0  0  0  0
  -29.2637  -18.7803   24.8154 C   0  0  0  0  0  0  0  0  0  0  0  0
  -29.6587  -27.1146   14.8876 C   0  0  0  0  0  0  0  0  0  0  0  0
  -20.0771  -27.7475   23.7968 C   0  0  0  0  0  0  0  0  0  0  0  0
  -29.1407  -17.3935   24.1799 C   0  0  0  0  0  0  0  0  0  0  0  0
  -29.5736  -28.2133   15.9389 C   0  0  0  0  0  0  0  0  0  0  0  0
  -28.1599  -19.7226   24.3385 C   0  0  0  0  0  0  0  0  0  0  0  0
  -27.9045  -18.4494   22.2449 C   0  0  0  0  0  0  0  0  0  0  0  0
  -30.5901  -25.9918   15.3217 C   0  0  0  0  0  0  0  0  0  0  0  0
  -30.1194  -26.5214   17.7275 C   0  0  0  0  0  0  0  0  0  0  0  0
  -20.4966  -29.1617   23.3778 C   0  0  1  0  0  0  0  0  0  0  0  0
  -23.4592  -28.8872   21.0184 C   0  0  1  0  0  0  0  0  0  0  0  0
  -29.0326  -17.4845   22.6451 C   0  0  2  0  0  0  0  0  0  0  0  0
  -29.1886  -27.6498   17.3032 C   0  0  1  0  0  0  0  0  0  1  0  0
  -30.7489  -22.1176   21.5855 C   0  0  0  0  0  0  0  0  0  0  0  0
  -27.0845  -21.3322   18.2207 C   0  0  0  0  0  0  0  0  0  0  0  0
  -22.0132  -21.3425   18.6382 C   0  0  0  0  0  0  0  0  0  0  0  0
  -25.6067  -25.6136   22.2041 C   0  0  0  0  0  0  0  0  0  0  0  0
  -25.2087  -23.2649   21.4337 C   0  0  0  0  0  0  0  0  0  0  0  0
  -23.4640  -24.4518   22.7641 C   0  0  0  0  0  0  0  0  0  0  0  0
  -21.0080  -24.2328   16.3773 C   0  0  0  0  0  0  0  0  0  0  0  0
  -30.9613  -24.2668   17.0834 C   0  0  0  0  0  0  0  0  0  0  0  0
  -23.8645  -25.1287   20.3613 C   0  0  1  0  0  0  0  0  0  0  0  0
  -21.7122  -22.7925   18.2926 C   0  0  2  0  0  0  0  0  0  0  0  0
  -24.5401  -24.6357   21.6720 C   0  0  0  0  0  0  0  0  0  0  0  0
  -27.6211  -15.6538   21.7862 N   0  0  0  0  0  0  0  0  0  0  0  0
  -28.8626  -16.1164   22.0114 N   0  0  0  0  0  0  0  0  0  0  0  0
  -24.0413  -27.5386   20.9116 N   0  0  0  0  0  0  0  0  0  0  0  0
  -28.1198  -19.7614   22.8750 N   0  0  0  0  0  0  0  0  0  0  0  0
  -31.1546  -15.5663   21.7775 N   0  0  0  0  0  0  0  0  0  0  0  0
  -30.1317  -11.9279   21.4447 N   0  0  0  0  0  0  0  0  0  0  0  0
  -28.2549  -20.9024   20.8153 N   0  0  0  0  0  0  0  0  0  0  0  0
  -21.3788  -29.1085   22.2317 N   0  0  0  0  0  0  0  0  0  0  0  0
  -22.8310  -24.2354   19.8491 N   0  0  0  0  0  0  0  0  0  0  0  0
  -30.1434  -25.4560   16.6612 N   0  3  2  0  0  0  0  0  0  0  0  0
  -21.3509  -22.8663   16.8487 N   0  3  0  0  0  0  0  0  0  0  0  0
  -30.1659  -12.8958   19.3660 O   0  0  0  0  0  0  0  0  0  0  0  0
  -23.3774  -28.7527   23.3724 O   0  0  0  0  0  0  0  0  0  0  0  0
  -22.0011  -26.5921   20.3176 O   0  0  0  0  0  0  0  0  0  0  0  0
  -23.8061  -23.8811   17.7753 O   0  0  0  0  0  0  0  0  0  0  0  0
  -28.4504  -22.0488   22.8226 O   0  0  0  0  0  0  0  0  0  0  0  0
  -23.5264  -11.2399   19.7120 O   0  0  0  0  0  0  0  0  0  0  0  0
  -29.2562  -28.7023   18.2601 O   0  0  0  0  0  0  0  0  0  1  0  0
  -22.3213   -6.8971   22.8888 F   0  0  0  0  0  0  0  0  0  0  0  0
  -21.0518  -11.0118   20.9233 F   0  0  0  0  0  0  0  0  0  0  0  0
  1  2  1  0  0  0  0
  1  5  2  0  0  0  0
  2  6  2  0  0  0  0
  3  8  2  0  0  0  0
  3 17  1  0  0  0  0
  4  9  1  0  0  0  0
  4 17  2  0  0  0  0
  5 19  1  0  0  0  0
  6 21  1  0  0  0  0
  7 10  2  0  0  0  0
  7 20  1  0  0  0  0
  8 27  1  0  0  0  0
  9 27  2  0  0  0  0
 10 28  1  0  0  0  0
 11 12  2  0  0  0  0
 11 29  1  0  0  0  0
 12 30  1  0  0  0  0
 13 22  1  0  0  0  0
 13 28  2  0  0  0  0
 14 23  1  0  0  0  0
 14 24  2  0  0  0  0
 15 23  2  0  0  0  0
 15 25  1  0  0  0  0
 16 30  2  0  0  0  0
 16 31  1  0  0  0  0
 17 32  1  0  0  0  0
 18 32  1  0  0  0  0
 18 33  2  0  0  0  0
 18 34  1  0  0  0  0
 19 21  2  0  0  0  0
 19 39  1  0  0  0  0
 20 22  2  0  0  0  0
 20 40  1  0  0  0  0
 21 52  1  0  0  0  0
 22 41  1  0  0  0  0
 23 63  1  0  0  0  0
 24 26  1  0  0  0  0
 24 56  1  0  0  0  0
 25 26  2  0  0  0  0
 25 57  1  0  0  0  0
 26 73  1  0  0  0  0
 27 83  1  0  0  0  0
 28 84  1  0  0  0  0
 29 31  2  0  0  0  0
 29 83  1  0  0  0  0
 30 85  1  0  0  0  0
 31 86  1  0  0  0  0
 32 67  2  0  0  0  0
 33 68  1  0  0  0  0
 33 71  1  0  0  0  0
 34 72  1  0  0  0  0
 34 78  2  0  0  0  0
 35 53  1  0  0  0  0
 35 74  1  0  0  0  0
 35 79  2  0  0  0  0
 36 64  1  0  0  0  0
 36 69  1  0  0  0  0
 36 80  2  0  0  0  0
 37 65  1  0  0  0  0
 37 75  1  0  0  0  0
 37 81  2  0  0  0  0
 38 70  1  0  0  0  0
 38 73  1  0  0  0  0
 38 82  2  0  0  0  0
 39 42  1  0  0  0  0
 40 53  1  0  0  0  0
 41 69  1  0  0  0  0
 42 45  1  0  0  0  0
 43 46  1  0  0  0  0
 43 48  1  0  0  0  0
 44 47  1  0  0  0  0
 44 50  1  0  0  0  0
 45 52  1  0  0  0  0
 46 54  1  0  0  0  0
 47 55  1  0  0  0  0
 48 70  1  0  0  0  0
 49 54  1  0  0  0  0
 49 70  1  0  0  0  0
 50 76  1  0  0  0  0
 51 55  1  0  0  0  0
 51 76  1  0  0  0  0
 52 74  1  0  0  0  0
 53 69  1  0  0  0  0
 54 68  1  0  0  0  0
 55 84  1  0  0  0  0
 58 65  1  0  0  0  0
 59 66  1  0  0  0  0
 60 66  1  0  0  0  0
 61 66  1  0  0  0  0
 62 77  1  0  0  0  0
 63 76  1  0  0  0  0
 64 66  1  0  0  0  0
 64 75  1  0  0  0  0
 65 77  1  0  0  0  0
 67 68  1  0  0  0  0
M  CHG  2  76   1  77   1
M  ISO  4  38 100  55 101  73 100  84 101
M  END
> <Batch ID>
0031

> <Smiles>
CNC(C)C(=O)NC(C(=O)N1Cc2cc([101O:1][101CH:1]3CCCN(Cc4cc(C)c([100NH:0][100C:0](=O)N5CCCC(n6nc(-c7ccc(Oc8ccc(F)cc8F)cc7)c(C(N)=O)c6N)C5)c(C)c4)C3)ccc2CC1C(=O)NC1CCCc2ccccc21)C(C)(C)C

> <Shape>
0.273

> <Color>
0.083

> <Negative vol penalty>
0.000

$$$$

  -OEChem-04042321393D

 84 92  0     1  0  0  0  0  0999 V2000
  -25.3882  -10.2034   24.2957 C   0  0  0  0  0  0  0  0  0  0  0  0
  -26.3481  -11.1382   23.9216 C   0  0  0  0  0  0  0  0  0  0  0  0
  -19.3512  -28.3001   22.1236 C   0  0  0  0  0  0  0  0  0  0  0  0
  -20.6044  -27.0683   23.7816 C   0  0  0  0  0  0  0  0  0  0  0  0
  -24.1265  -10.2260   23.7028 C   0  0  0  0  0  0  0  0  0  0  0  0
  -26.0472  -12.0957   22.9535 C   0  0  0  0  0  0  0  0  0  0  0  0
  -28.0641  -17.8743   22.7390 C   0  0  0  0  0  0  0  0  0  0  0  0
  -30.8353  -27.6465   18.6954 C   0  0  0  0  0  0  0  0  0  0  0  0
  -30.5320  -26.6057   20.8545 C   0  0  0  0  0  0  0  0  0  0  0  0
  -31.1883  -26.4123   18.1499 C   0  0  0  0  0  0  0  0  0  0  0  0
  -30.8851  -25.3714   20.3090 C   0  0  0  0  0  0  0  0  0  0  0  0
  -18.3839  -27.2953   22.1081 C   0  0  0  0  0  0  0  0  0  0  0  0
  -19.6371  -26.0634   23.7662 C   0  0  0  0  0  0  0  0  0  0  0  0
  -29.0985  -18.4809   22.0279 C   0  0  0  0  0  0  0  0  0  0  0  0
  -15.7678  -26.3266   24.0188 C   0  0  0  0  0  0  0  0  0  0  0  0
  -14.4286  -26.7154   24.0496 C   0  0  0  0  0  0  0  0  0  0  0  0
  -27.5253  -19.1590   20.3296 C   0  0  0  0  0  0  0  0  0  0  0  0
  -14.0605  -25.6156   21.9301 C   0  0  0  0  0  0  0  0  0  0  0  0
  -20.4615  -28.1866   22.9602 C   0  0  0  0  0  0  0  0  0  0  0  0
  -21.4904  -30.3640   23.8016 C   0  0  0  0  0  0  0  0  0  0  0  0
  -23.8068  -11.1903   22.7340 C   0  0  0  0  0  0  0  0  0  0  0  0
  -26.7521  -17.8960   22.2445 C   0  0  0  0  0  0  0  0  0  0  0  0
  -24.7805  -12.1305   22.3462 C   0  0  0  0  0  0  0  0  0  0  0  0
  -26.4756  -18.5541   21.0376 C   0  0  0  0  0  0  0  0  0  0  0  0
  -30.5072  -27.7432   20.0477 C   0  0  0  0  0  0  0  0  0  0  0  0
  -31.2132  -25.2747   18.9567 C   0  0  0  0  0  0  0  0  0  0  0  0
  -18.5268  -26.1769   22.9295 C   0  0  0  0  0  0  0  0  0  0  0  0
  -28.8297  -19.1209   20.8216 C   0  0  0  0  0  0  0  0  0  0  0  0
  -16.2534  -25.5823   22.9436 C   0  0  0  0  0  0  0  0  0  0  0  0
  -13.5750  -26.3599   23.0052 C   0  0  0  0  0  0  0  0  0  0  0  0
  -15.3998  -25.2268   21.8993 C   0  0  0  0  0  0  0  0  0  0  0  0
  -21.4613  -29.2240   22.9762 C   0  0  0  0  0  0  0  0  0  0  0  0
  -22.6345  -31.0273   23.4307 C   0  0  0  0  0  0  0  0  0  0  0  0
  -20.5658  -30.7857   24.8130 C   0  0  0  0  0  0  0  0  0  0  0  0
  -24.6613  -15.6819   21.3334 C   0  0  0  0  0  0  0  0  0  0  0  0
  -22.6652  -18.2267   21.0845 C   0  0  0  0  0  0  0  0  0  0  0  0
  -30.6833  -21.7853   19.2463 C   0  0  0  0  0  0  0  0  0  0  0  0
  -22.3021  -21.5936   20.6614 C   0  0  0  0  0  0  0  0  0  0  0  0
  -27.6811  -29.1247   21.0293 C   0  0  0  0  0  0  0  0  0  0  0  0
  -22.4451  -11.1456   22.0870 C   0  0  0  0  0  0  0  0  0  0  0  0
  -25.6430  -17.2601   23.0369 C   0  0  0  0  0  0  0  0  0  0  0  0
  -25.0807  -18.6232   20.4736 C   0  0  0  0  0  0  0  0  0  0  0  0
  -22.0833  -12.4269   21.3403 C   0  0  0  0  0  0  0  0  0  0  0  0
  -25.5249  -31.6965   19.6750 C   0  0  0  0  0  0  0  0  0  0  0  0
  -23.2479  -12.8830   20.4672 C   0  0  0  0  0  0  0  0  0  0  0  0
  -24.2332  -31.4538   20.4580 C   0  0  0  0  0  0  0  0  0  0  0  0
  -26.2194  -30.3816   19.3333 C   0  0  0  0  0  0  0  0  0  0  0  0
  -25.2212  -29.2708   21.2937 C   0  0  0  0  0  0  0  0  0  0  0  0
  -24.4839  -13.2002   21.3177 C   0  0  1  0  0  0  0  0  0  0  0  0
  -24.4306  -16.8988   22.1842 C   0  0  1  0  0  0  0  0  0  0  0  0
  -24.4833  -30.5628   21.6891 C   0  0  2  0  0  0  0  0  0  0  0  0
  -20.5469  -23.3760   20.4621 C   0  0  0  0  0  0  0  0  0  0  0  0
  -22.0889  -17.3359   18.2237 C   0  0  0  0  0  0  0  0  0  0  0  0
  -21.1244  -19.6044   17.7856 C   0  0  0  0  0  0  0  0  0  0  0  0
  -20.0833  -18.1177   19.4969 C   0  0  0  0  0  0  0  0  0  0  0  0
  -29.2776  -23.2938   17.8319 C   0  0  0  0  0  0  0  0  0  0  0  0
  -23.2885  -22.9973   23.0729 C   0  0  0  0  0  0  0  0  0  0  0  0
  -30.1296  -29.0625   20.6316 C   0  0  0  0  0  0  0  0  0  0  0  0
  -31.5917  -23.9462   18.3684 C   0  0  0  0  0  0  0  0  0  0  0  0
  -29.4976  -20.8472   19.3283 C   0  0  0  0  0  0  0  0  0  1  0  0
  -22.3117  -19.2052   19.9906 C   0  0  1  0  0  0  0  0  0  0  0  0
  -21.4663  -22.6182   21.4071 C   0  0  2  0  0  0  0  0  0  0  0  0
  -21.4288  -18.5630   18.8836 C   0  0  0  0  0  0  0  0  0  0  0  0
  -22.5041  -29.1634   22.1437 N   0  0  0  0  0  0  0  0  0  0  0  0
  -23.1990  -30.2738   22.4440 N   0  0  0  0  0  0  0  0  0  0  0  0
  -24.0313  -17.9810   21.2821 N   0  0  0  0  0  0  0  0  0  0  0  0
  -26.4449  -29.5893   20.5505 N   0  0  0  0  0  0  0  0  0  0  0  0
  -23.2026  -32.1758   23.8557 N   0  0  0  0  0  0  0  0  0  0  0  0
  -19.4429  -29.9864   25.0669 N   0  0  0  0  0  0  0  0  0  0  0  0
  -24.3402  -14.4909   21.9562 N   0  0  0  0  0  0  0  0  0  0  0  0
  -21.7002  -20.3531   20.6516 N   0  0  0  0  0  0  0  0  0  0  0  0
  -28.7899  -29.4636   20.2636 N   0  0  0  0  0  0  0  0  0  0  0  0
  -30.5232  -22.9606   18.5118 N   0  0  0  0  0  0  0  0  0  0  0  0
  -22.3475  -23.6031   22.0959 N   0  3  0  0  0  0  0  0  0  0  0  0
  -20.7220  -31.8485   25.4608 O   0  0  0  0  0  0  0  0  0  0  0  0
  -25.0969  -15.8139   20.1956 O   0  0  0  0  0  0  0  0  0  0  0  0
  -21.7627  -17.7052   21.7442 O   0  0  0  0  0  0  0  0  0  0  0  0
  -31.7255  -21.4765   19.8323 O   0  0  0  0  0  0  0  0  0  0  0  0
  -23.3792  -21.8673   20.1365 O   0  0  0  0  0  0  0  0  0  0  0  0
  -27.7896  -28.4610   22.0660 O   0  0  0  0  0  0  0  0  0  0  0  0
  -17.5830  -25.1963   22.9149 O   0  0  0  0  0  0  0  0  0  0  0  0
  -29.8377  -19.7133   20.1251 O   0  0  0  0  0  0  0  0  0  1  0  0
  -12.2886  -26.7321   23.0357 F   0  0  0  0  0  0  0  0  0  0  0  0
  -15.8602  -24.5109   20.8643 F   0  0  0  0  0  0  0  0  0  0  0  0
  1  2  1  0  0  0  0
  1  5  2  0  0  0  0
  2  6  2  0  0  0  0
  3 12  2  0  0  0  0
  3 19  1  0  0  0  0
  4 13  1  0  0  0  0
  4 19  2  0  0  0  0
  5 21  1  0  0  0  0
  6 23  1  0  0  0  0
  7 14  2  0  0  0  0
  7 22  1  0  0  0  0
  8 10  2  0  0  0  0
  8 25  1  0  0  0  0
  9 11  1  0  0  0  0
  9 25  2  0  0  0  0
 10 26  1  0  0  0  0
 11 26  2  0  0  0  0
 12 27  1  0  0  0  0
 13 27  2  0  0  0  0
 14 28  1  0  0  0  0
 15 16  2  0  0  0  0
 15 29  1  0  0  0  0
 16 30  1  0  0  0  0
 17 24  1  0  0  0  0
 17 28  2  0  0  0  0
 18 30  2  0  0  0  0
 18 31  1  0  0  0  0
 19 32  1  0  0  0  0
 20 32  1  0  0  0  0
 20 33  2  0  0  0  0
 20 34  1  0  0  0  0
 21 23  2  0  0  0  0
 21 40  1  0  0  0  0
 22 24  2  0  0  0  0
 22 41  1  0  0  0  0
 23 49  1  0  0  0  0
 24 42  1  0  0  0  0
 25 58  1  0  0  0  0
 26 59  1  0  0  0  0
 27 81  1  0  0  0  0
 28 82  1  0  0  0  0
 29 31  2  0  0  0  0
 29 81  1  0  0  0  0
 30 83  1  0  0  0  0
 31 84  1  0  0  0  0
 32 64  2  0  0  0  0
 33 65  1  0  0  0  0
 33 68  1  0  0  0  0
 34 69  1  0  0  0  0
 34 75  2  0  0  0  0
 35 50  1  0  0  0  0
 35 70  1  0  0  0  0
 35 76  2  0  0  0  0
 36 61  1  0  0  0  0
 36 66  1  0  0  0  0
 36 77  2  0  0  0  0
 37 60  1  0  0  0  0
 37 73  1  0  0  0  0
 37 78  2  0  0  0  0
 38 62  1  0  0  0  0
 38 71  1  0  0  0  0
 38 79  2  0  0  0  0
 39 67  1  0  0  0  0
 39 72  1  0  0  0  0
 39 80  2  0  0  0  0
 40 43  1  0  0  0  0
 41 50  1  0  0  0  0
 42 66  1  0  0  0  0
 43 45  1  0  0  0  0
 44 46  1  0  0  0  0
 44 47  1  0  0  0  0
 45 49  1  0  0  0  0
 46 51  1  0  0  0  0
 47 67  1  0  0  0  0
 48 51  1  0  0  0  0
 48 67  1  0  0  0  0
 49 70  1  0  0  0  0
 50 66  1  0  0  0  0
 51 65  1  0  0  0  0
 52 62  1  0  0  0  0
 53 63  1  0  0  0  0
 54 63  1  0  0  0  0
 55 63  1  0  0  0  0
 56 73  1  0  0  0  0
 57 74  1  0  0  0  0
 58 72  1  0  0  0  0
 59 73  1  0  0  0  0
 60 82  1  0  0  0  0
 61 63  1  0  0  0  0
 61 71  1  0  0  0  0
 62 74  1  0  0  0  0
 64 65  1  0  0  0  0
M  CHG  1  74   1
M  ISO  4  39 100  60 101  72 100  82 101
M  END
> <Batch ID>
0031

> <Smiles>
CNC(C)C(=O)NC(C(=O)N1Cc2cc([101O:1][101CH2:1]C(=O)N(C)Cc3ccc(C[100NH:0][100C:0](=O)N4CCCC(n5nc(-c6ccc(Oc7ccc(F)cc7F)cc6)c(C(N)=O)c5N)C4)cc3)ccc2CC1C(=O)NC1CCCc2ccccc21)C(C)(C)C

> <Shape>
0.219

> <Color>
0.063

> <Negative vol penalty>
0.000

$$$$

  -OEChem-04042321393D

 86 95  0     1  0  0  0  0  0999 V2000
  -30.5990  -34.3686   23.0317 C   0  0  0  0  0  0  0  0  0  0  0  0
  -30.7608  -32.9871   23.0588 C   0  0  0  0  0  0  0  0  0  0  0  0
  -23.2314   -9.7184   20.0141 C   0  0  0  0  0  0  0  0  0  0  0  0
  -23.8748   -9.9401   22.3323 C   0  0  0  0  0  0  0  0  0  0  0  0
  -29.3182  -34.9195   23.0354 C   0  0  0  0  0  0  0  0  0  0  0  0
  -29.6419  -32.1557   23.0906 C   0  0  0  0  0  0  0  0  0  0  0  0
  -29.0582  -26.6654   20.4407 C   0  0  0  0  0  0  0  0  0  0  0  0
  -22.5473   -8.5411   20.3166 C   0  0  0  0  0  0  0  0  0  0  0  0
  -23.1907   -8.7628   22.6348 C   0  0  0  0  0  0  0  0  0  0  0  0
  -29.1805  -25.3676   20.9350 C   0  0  0  0  0  0  0  0  0  0  0  0
  -19.9909   -7.8055   23.1499 C   0  0  0  0  0  0  0  0  0  0  0  0
  -19.1806   -7.8020   24.2853 C   0  0  0  0  0  0  0  0  0  0  0  0
  -26.7908  -25.2682   21.2486 C   0  0  0  0  0  0  0  0  0  0  0  0
  -31.2967  -19.0281   24.0040 C   0  0  0  0  0  0  0  0  0  0  0  0
  -31.6567  -17.1761   22.4948 C   0  0  0  0  0  0  0  0  0  0  0  0
  -20.4991   -6.0066   25.2207 C   0  0  0  0  0  0  0  0  0  0  0  0
  -23.8952  -10.4179   21.0220 C   0  0  0  0  0  0  0  0  0  0  0  0
  -24.0890  -12.9445   20.7275 C   0  0  0  0  0  0  0  0  0  0  0  0
  -28.1828  -34.0942   23.0576 C   0  0  0  0  0  0  0  0  0  0  0  0
  -27.8002  -27.2794   20.3567 C   0  0  0  0  0  0  0  0  0  0  0  0
  -28.3447  -32.6960   23.0960 C   0  0  0  0  0  0  0  0  0  0  0  0
  -26.6549  -26.5730   20.7505 C   0  0  0  0  0  0  0  0  0  0  0  0
  -29.9206  -18.9271   23.7996 C   0  0  0  0  0  0  0  0  0  0  0  0
  -29.4125  -17.9506   22.9429 C   0  0  0  0  0  0  0  0  0  0  0  0
  -30.2806  -17.0751   22.2905 C   0  0  0  0  0  0  0  0  0  0  0  0
  -22.5269   -8.0633   21.6269 C   0  0  0  0  0  0  0  0  0  0  0  0
  -28.0471  -24.6698   21.3418 C   0  0  0  0  0  0  0  0  0  0  0  0
  -21.0552   -6.9094   23.0499 C   0  0  0  0  0  0  0  0  0  0  0  0
  -19.4347   -6.9026   25.3207 C   0  0  0  0  0  0  0  0  0  0  0  0
  -21.3093   -6.0100   24.0853 C   0  0  0  0  0  0  0  0  0  0  0  0
  -32.1648  -18.1526   23.3515 C   0  0  0  0  0  0  0  0  0  0  0  0
  -24.6026  -11.6339   20.7101 C   0  0  0  0  0  0  0  0  0  0  0  0
  -25.1504  -13.7341   20.3582 C   0  0  0  0  0  0  0  0  0  0  0  0
  -27.6198  -21.8823   24.3201 C   0  0  0  0  0  0  0  0  0  0  0  0
  -26.4340  -21.5007   24.8094 C   0  0  0  0  0  0  0  0  0  0  0  0
  -22.7704  -13.4068   21.0488 C   0  0  0  0  0  0  0  0  0  0  0  0
  -26.4689  -29.8534   21.6628 C   0  0  0  0  0  0  0  0  0  0  0  0
  -24.0233  -29.1253   19.6601 C   0  0  0  0  0  0  0  0  0  0  0  0
  -22.3863  -26.7569   17.8277 C   0  0  0  0  0  0  0  0  0  0  0  0
  -30.5278  -15.1378   20.6993 C   0  0  0  0  0  0  0  0  0  0  0  0
  -26.8192  -34.7366   23.1084 C   0  0  0  0  0  0  0  0  0  0  0  0
  -27.6822  -28.6703   19.7963 C   0  0  0  0  0  0  0  0  0  0  0  0
  -25.2792  -27.1798   20.6616 C   0  0  0  0  0  0  0  0  0  0  0  0
  -28.1155  -23.2927   24.2462 C   0  0  0  0  0  0  0  0  0  0  0  0
  -25.6815  -33.7787   22.7645 C   0  0  0  0  0  0  0  0  0  0  0  0
  -29.6805  -12.4923   18.4719 C   0  0  0  0  0  0  0  0  0  0  0  0
  -25.8511  -32.4588   23.5100 C   0  0  0  0  0  0  0  0  0  0  0  0
  -28.2416  -12.1410   18.8571 C   0  0  0  0  0  0  0  0  0  0  0  0
  -30.5193  -12.8657   19.6929 C   0  0  0  0  0  0  0  0  0  0  0  0
  -28.5059  -13.5646   20.9284 C   0  0  0  0  0  0  0  0  0  0  0  0
  -29.5470  -21.8175   22.9910 C   0  0  0  0  0  0  0  0  0  0  0  0
  -27.1552  -31.7606   23.1060 C   0  0  1  0  0  0  0  0  0  0  0  0
  -26.4086  -29.3856   20.2362 C   0  0  1  0  0  0  0  0  0  0  0  0
  -27.6049  -13.2445   19.7245 C   0  0  2  0  0  0  0  0  0  0  0  0
  -28.9662  -23.2245   22.9876 C   0  0  1  0  0  0  0  0  0  1  0  0
  -27.9353  -17.8460   22.7268 C   0  0  0  0  0  0  0  0  0  0  0  0
  -20.3989  -26.4541   16.3257 C   0  0  0  0  0  0  0  0  0  0  0  0
  -22.1801  -29.1855   22.0909 C   0  0  0  0  0  0  0  0  0  0  0  0
  -20.4621  -27.9740   20.7311 C   0  0  0  0  0  0  0  0  0  0  0  0
  -21.2288  -30.2430   20.0339 C   0  0  0  0  0  0  0  0  0  0  0  0
  -24.0868  -25.9292   15.5512 C   0  0  0  0  0  0  0  0  0  0  0  0
  -29.0089  -19.8811   24.5135 C   0  0  0  0  0  0  0  0  0  0  0  0
  -22.7835  -28.2691   19.7538 C   0  0  1  0  0  0  0  0  0  0  0  0
  -21.8871  -26.7596   16.3941 C   0  0  2  0  0  0  0  0  0  0  0  0
  -21.6896  -28.9069   20.6560 C   0  0  0  0  0  0  0  0  0  0  0  0
  -25.8901  -11.5892   20.3575 N   0  0  0  0  0  0  0  0  0  0  0  0
  -26.1945  -12.8817   20.1499 N   0  0  0  0  0  0  0  0  0  0  0  0
  -25.2164  -28.5444   20.1127 N   0  0  0  0  0  0  0  0  0  0  0  0
  -29.8561  -13.9194   20.4640 N   0  0  0  0  0  0  0  0  0  0  0  0
  -25.2831  -15.0675   20.1946 N   0  0  0  0  0  0  0  0  0  0  0  0
  -21.7999  -12.4614   21.4077 N   0  0  0  0  0  0  0  0  0  0  0  0
  -29.7858  -16.0763   21.4157 N   0  0  0  0  0  0  0  0  0  0  0  0
  -27.0059  -31.1171   21.8183 N   0  0  0  0  0  0  0  0  0  0  0  0
  -22.3553  -28.0191   18.3817 N   0  0  0  0  0  0  0  0  0  0  0  0
  -28.4586  -20.9496   23.6174 N   0  3  1  0  0  0  0  0  0  0  0  0
  -22.6142  -25.7368   15.5904 N   0  3  0  0  0  0  0  0  0  0  0  0
  -22.4575  -14.6206   21.0025 O   0  0  0  0  0  0  0  0  0  0  0  0
  -26.0573  -29.1226   22.5562 O   0  0  0  0  0  0  0  0  0  0  0  0
  -23.9376  -30.2648   19.1955 O   0  0  0  0  0  0  0  0  0  0  0  0
  -22.7623  -25.7363   18.4001 O   0  0  0  0  0  0  0  0  0  0  0  0
  -31.6664  -15.3442   20.2715 O   0  0  0  0  0  0  0  0  0  0  0  0
  -21.8592   -6.9147   21.9224 O   0  0  0  0  0  0  0  0  0  0  0  0
  -28.1638  -23.4031   21.8252 O   0  0  0  0  0  0  0  0  0  1  0  0
  -18.6574   -6.9004   26.4116 F   0  0  0  0  0  0  0  0  0  0  0  0
  -22.3311   -5.1476   23.9955 F   0  0  0  0  0  0  0  0  0  0  0  0
  -33.8626  -18.2782   23.6029 Cl  0  0  0  0  0  0  0  0  0  0  0  0
  1  2  1  0  0  0  0
  1  5  2  0  0  0  0
  2  6  2  0  0  0  0
  3  8  2  0  0  0  0
  3 17  1  0  0  0  0
  4  9  1  0  0  0  0
  4 17  2  0  0  0  0
  5 19  1  0  0  0  0
  6 21  1  0  0  0  0
  7 10  2  0  0  0  0
  7 20  1  0  0  0  0
  8 26  1  0  0  0  0
  9 26  2  0  0  0  0
 10 27  1  0  0  0  0
 11 12  2  0  0  0  0
 11 28  1  0  0  0  0
 12 29  1  0  0  0  0
 13 22  1  0  0  0  0
 13 27  2  0  0  0  0
 14 23  1  0  0  0  0
 14 31  2  0  0  0  0
 15 25  2  0  0  0  0
 15 31  1  0  0  0  0
 16 29  2  0  0  0  0
 16 30  1  0  0  0  0
 17 32  1  0  0  0  0
 18 32  1  0  0  0  0
 18 33  2  0  0  0  0
 18 36  1  0  0  0  0
 19 21  2  0  0  0  0
 19 41  1  0  0  0  0
 20 22  2  0  0  0  0
 20 42  1  0  0  0  0
 21 52  1  0  0  0  0
 22 43  1  0  0  0  0
 23 24  2  0  0  0  0
 23 62  1  0  0  0  0
 24 25  1  0  0  0  0
 24 56  1  0  0  0  0
 25 72  1  0  0  0  0
 26 82  1  0  0  0  0
 27 83  1  0  0  0  0
 28 30  2  0  0  0  0
 28 82  1  0  0  0  0
 29 84  1  0  0  0  0
 30 85  1  0  0  0  0
 31 86  1  0  0  0  0
 32 66  2  0  0  0  0
 33 67  1  0  0  0  0
 33 70  1  0  0  0  0
 34 35  2  0  0  0  0
 34 44  1  0  0  0  0
 34 75  1  0  0  0  0
 36 71  1  0  0  0  0
 36 77  2  0  0  0  0
 37 53  1  0  0  0  0
 37 73  1  0  0  0  0
 37 78  2  0  0  0  0
 38 63  1  0  0  0  0
 38 68  1  0  0  0  0
 38 79  2  0  0  0  0
 39 64  1  0  0  0  0
 39 74  1  0  0  0  0
 39 80  2  0  0  0  0
 40 69  1  0  0  0  0
 40 72  1  0  0  0  0
 40 81  2  0  0  0  0
 41 45  1  0  0  0  0
 42 53  1  0  0  0  0
 43 68  1  0  0  0  0
 44 55  1  0  0  0  0
 45 47  1  0  0  0  0
 46 48  1  0  0  0  0
 46 49  1  0  0  0  0
 47 52  1  0  0  0  0
 48 54  1  0  0  0  0
 49 69  1  0  0  0  0
 50 54  1  0  0  0  0
 50 69  1  0  0  0  0
 51 55  1  0  0  0  0
 51 75  1  0  0  0  0
 52 73  1  0  0  0  0
 53 68  1  0  0  0  0
 54 67  1  0  0  0  0
 55 83  1  0  0  0  0
 57 64  1  0  0  0  0
 58 65  1  0  0  0  0
 59 65  1  0  0  0  0
 60 65  1  0  0  0  0
 61 76  1  0  0  0  0
 62 75  1  0  0  0  0
 63 65  1  0  0  0  0
 63 74  1  0  0  0  0
 64 76  1  0  0  0  0
 66 67  1  0  0  0  0
M  CHG  2  75   1  76   1
M  ISO  4  40 100  55 101  72 100  83 101
M  END
> <Batch ID>
0031

> <Smiles>
C=C1C[101CH:1]([101O:1]c2ccc3c(c2)CN(C(=O)C(NC(=O)C(C)NC)C(C)(C)C)C(C(=O)NC2CCCc4ccccc42)C3)CN1Cc1cc(Cl)cc([100NH:0][100C:0](=O)N2CCCC(n3nc(-c4ccc(Oc5ccc(F)cc5F)cc4)c(C(N)=O)c3N)C2)c1C

> <Shape>
0.301

> <Color>
0.192

> <Negative vol penalty>
0.000

$$$$

  -OEChem-04042321393D

 89 98  0     1  0  0  0  0  0999 V2000
  -37.6494  -29.7896   24.3003 C   0  0  0  0  0  0  0  0  0  0  0  0
  -37.1511  -28.6091   24.8421 C   0  0  0  0  0  0  0  0  0  0  0  0
  -23.2670   -9.7645   20.1242 C   0  0  0  0  0  0  0  0  0  0  0  0
  -23.9683  -10.0302   22.4209 C   0  0  0  0  0  0  0  0  0  0  0  0
  -36.8549  -30.5530   23.4460 C   0  0  0  0  0  0  0  0  0  0  0  0
  -35.8575  -28.1919   24.5307 C   0  0  0  0  0  0  0  0  0  0  0  0
  -35.6197  -23.2532   23.4362 C   0  0  0  0  0  0  0  0  0  0  0  0
  -33.2991  -15.5485   24.1938 C   0  0  0  0  0  0  0  0  0  0  0  0
  -32.5370  -15.1316   23.1024 C   0  0  0  0  0  0  0  0  0  0  0  0
  -22.6064   -8.5836   20.4625 C   0  0  0  0  0  0  0  0  0  0  0  0
  -23.3076   -8.8492   22.7592 C   0  0  0  0  0  0  0  0  0  0  0  0
  -35.6414  -22.3618   24.5080 C   0  0  0  0  0  0  0  0  0  0  0  0
  -20.1352   -7.8599   23.3735 C   0  0  0  0  0  0  0  0  0  0  0  0
  -19.3552   -7.8639   24.5298 C   0  0  0  0  0  0  0  0  0  0  0  0
  -33.2447  -22.1326   24.3582 C   0  0  0  0  0  0  0  0  0  0  0  0
  -20.7209   -6.0998   25.4571 C   0  0  0  0  0  0  0  0  0  0  0  0
  -23.9480  -10.4878   21.1034 C   0  0  0  0  0  0  0  0  0  0  0  0
  -24.1012  -13.0117   20.7656 C   0  0  0  0  0  0  0  0  0  0  0  0
  -35.5544  -30.1400   23.1163 C   0  0  0  0  0  0  0  0  0  0  0  0
  -34.4070  -23.6000   22.8234 C   0  0  0  0  0  0  0  0  0  0  0  0
  -35.0444  -28.9512   23.6722 C   0  0  0  0  0  0  0  0  0  0  0  0
  -33.2106  -23.0267   23.2772 C   0  0  0  0  0  0  0  0  0  0  0  0
  -32.6738  -16.1085   25.3078 C   0  0  0  0  0  0  0  0  0  0  0  0
  -31.2865  -16.2517   25.3304 C   0  0  0  0  0  0  0  0  0  0  0  0
  -30.5244  -15.8349   24.2390 C   0  0  0  0  0  0  0  0  0  0  0  0
  -31.1497  -15.2748   23.1249 C   0  0  0  0  0  0  0  0  0  0  0  0
  -22.6267   -8.1259   21.7800 C   0  0  0  0  0  0  0  0  0  0  0  0
  -34.4535  -21.8035   24.9710 C   0  0  0  0  0  0  0  0  0  0  0  0
  -21.2080   -6.9758   23.2589 C   0  0  0  0  0  0  0  0  0  0  0  0
  -19.6481   -6.9839   25.5717 C   0  0  0  0  0  0  0  0  0  0  0  0
  -21.5009   -6.0958   24.3007 C   0  0  0  0  0  0  0  0  0  0  0  0
  -24.6311  -11.7076   20.7544 C   0  0  0  0  0  0  0  0  0  0  0  0
  -25.1423  -13.8088   20.3564 C   0  0  0  0  0  0  0  0  0  0  0  0
  -34.5129  -18.4458   27.6429 C   0  0  0  0  0  0  0  0  0  0  0  0
  -34.1166  -18.2846   28.9109 C   0  0  0  0  0  0  0  0  0  0  0  0
  -22.7857  -13.4624   21.1147 C   0  0  0  0  0  0  0  0  0  0  0  0
  -32.7808  -26.3040   22.4387 C   0  0  0  0  0  0  0  0  0  0  0  0
  -30.8676  -24.4357   20.6025 C   0  0  0  0  0  0  0  0  0  0  0  0
  -29.4906  -21.1053   20.7740 C   0  0  0  0  0  0  0  0  0  0  0  0
  -30.8801  -14.2704   20.8305 C   0  0  0  0  0  0  0  0  0  0  0  0
  -34.7162  -31.0227   22.2258 C   0  0  0  0  0  0  0  0  0  0  0  0
  -34.4035  -24.5425   21.6512 C   0  0  0  0  0  0  0  0  0  0  0  0
  -31.8845  -23.3506   22.6407 C   0  0  0  0  0  0  0  0  0  0  0  0
  -35.7143  -19.2212   27.2004 C   0  0  0  0  0  0  0  0  0  0  0  0
  -33.4909  -30.3182   21.6492 C   0  0  0  0  0  0  0  0  0  0  0  0
  -29.3459  -13.0428   17.8612 C   0  0  0  0  0  0  0  0  0  0  0  0
  -32.7583  -29.5429   22.7397 C   0  0  0  0  0  0  0  0  0  0  0  0
  -27.9215  -12.7004   18.3040 C   0  0  0  0  0  0  0  0  0  0  0  0
  -30.3696  -12.7277   18.9504 C   0  0  0  0  0  0  0  0  0  0  0  0
  -28.6588  -12.9797   20.7051 C   0  0  0  0  0  0  0  0  0  0  0  0
  -34.3334  -18.6370   25.3156 C   0  0  0  0  0  0  0  0  0  0  0  0
  -33.6550  -28.4526   23.3386 C   0  0  1  0  0  0  0  0  0  0  0  0
  -33.0544  -25.2208   21.4339 C   0  0  1  0  0  0  0  0  0  0  0  0
  -27.5854  -13.3403   19.6653 C   0  0  2  0  0  0  0  0  0  0  0  0
  -35.2319  -19.7408   25.8551 C   0  0  1  0  0  0  0  0  0  1  0  0
  -30.6187  -16.8527   26.5267 C   0  0  0  0  0  0  0  0  0  0  0  0
  -28.7827  -19.5365   18.9477 C   0  0  0  0  0  0  0  0  0  0  0  0
  -28.0962  -25.6329   21.0450 C   0  0  0  0  0  0  0  0  0  0  0  0
  -27.1297  -23.3514   20.6861 C   0  0  0  0  0  0  0  0  0  0  0  0
  -28.3927  -24.4719   18.8498 C   0  0  0  0  0  0  0  0  0  0  0  0
  -31.2584  -18.9543   21.7775 C   0  0  0  0  0  0  0  0  0  0  0  0
  -33.5169  -16.5484   26.4682 C   0  0  0  0  0  0  0  0  0  0  0  0
  -29.6498  -23.5797   20.8538 C   0  0  1  0  0  0  0  0  0  0  0  0
  -29.8876  -19.9128   19.9226 C   0  0  2  0  0  0  0  0  0  0  0  0
  -29.0358  -15.9895   24.2654 C   0  0  0  0  0  0  0  0  0  0  0  0
  -28.3366  -24.2634   20.3789 C   0  0  0  0  0  0  0  0  0  0  0  0
  -25.9094  -11.6736   20.3686 N   0  0  0  0  0  0  0  0  0  0  0  0
  -26.1914  -12.9664   20.1334 N   0  0  0  0  0  0  0  0  0  0  0  0
  -31.9324  -24.2823   21.5017 N   0  0  0  0  0  0  0  0  0  0  0  0
  -29.9880  -13.3704   20.2099 N   0  0  0  0  0  0  0  0  0  0  0  0
  -25.2533  -15.1411   20.1691 N   0  0  0  0  0  0  0  0  0  0  0  0
  -21.8373  -12.5106   21.5136 N   0  0  0  0  0  0  0  0  0  0  0  0
  -30.3955  -14.8444   22.0053 N   0  0  0  0  0  0  0  0  0  0  0  0
  -33.7257  -27.3121   22.4505 N   0  0  0  0  0  0  0  0  0  0  0  0
  -29.9170  -22.2934   20.2193 N   0  0  0  0  0  0  0  0  0  0  0  0
  -33.6694  -18.0374   26.5524 N   0  3  1  0  0  0  0  0  0  0  0  0
  -30.1746  -18.7325   20.7860 N   0  3  0  0  0  0  0  0  0  0  0  0
  -22.4560  -14.6714   21.0584 O   0  0  0  0  0  0  0  0  0  0  0  0
  -31.7853  -26.2312   23.1496 O   0  0  0  0  0  0  0  0  0  0  0  0
  -30.8767  -25.2067   19.6397 O   0  0  0  0  0  0  0  0  0  0  0  0
  -28.8616  -20.9941   21.8240 O   0  0  0  0  0  0  0  0  0  0  0  0
  -31.9810  -14.5345   20.3404 O   0  0  0  0  0  0  0  0  0  0  0  0
  -21.9819   -6.9737   22.1105 O   0  0  0  0  0  0  0  0  0  0  0  0
  -34.4719  -20.9337   26.0173 O   0  0  0  0  0  0  0  0  0  1  0  0
  -18.8999   -6.9889   26.6827 F   0  0  0  0  0  0  0  0  0  0  0  0
  -22.5310   -5.2450   24.1969 F   0  0  0  0  0  0  0  0  0  0  0  0
  -28.5695  -16.5513   25.4173 F   0  0  0  0  0  0  0  0  0  0  0  0
  -28.5554  -16.7760   23.2602 F   0  0  0  0  0  0  0  0  0  0  0  0
  -28.3873  -14.7969   24.1455 F   0  0  0  0  0  0  0  0  0  0  0  0
  1  2  1  0  0  0  0
  1  5  2  0  0  0  0
  2  6  2  0  0  0  0
  3 10  2  0  0  0  0
  3 17  1  0  0  0  0
  4 11  1  0  0  0  0
  4 17  2  0  0  0  0
  5 19  1  0  0  0  0
  6 21  1  0  0  0  0
  7 12  2  0  0  0  0
  7 20  1  0  0  0  0
  8  9  2  0  0  0  0
  8 23  1  0  0  0  0
  9 26  1  0  0  0  0
 10 27  1  0  0  0  0
 11 27  2  0  0  0  0
 12 28  1  0  0  0  0
 13 14  2  0  0  0  0
 13 29  1  0  0  0  0
 14 30  1  0  0  0  0
 15 22  1  0  0  0  0
 15 28  2  0  0  0  0
 16 30  2  0  0  0  0
 16 31  1  0  0  0  0
 17 32  1  0  0  0  0
 18 32  1  0  0  0  0
 18 33  2  0  0  0  0
 18 36  1  0  0  0  0
 19 21  2  0  0  0  0
 19 41  1  0  0  0  0
 20 22  2  0  0  0  0
 20 42  1  0  0  0  0
 21 52  1  0  0  0  0
 22 43  1  0  0  0  0
 23 24  2  0  0  0  0
 23 62  1  0  0  0  0
 24 25  1  0  0  0  0
 24 56  1  0  0  0  0
 25 26  2  0  0  0  0
 25 65  1  0  0  0  0
 26 73  1  0  0  0  0
 27 83  1  0  0  0  0
 28 84  1  0  0  0  0
 29 31  2  0  0  0  0
 29 83  1  0  0  0  0
 30 85  1  0  0  0  0
 31 86  1  0  0  0  0
 32 67  2  0  0  0  0
 33 68  1  0  0  0  0
 33 71  1  0  0  0  0
 34 35  2  0  0  0  0
 34 44  1  0  0  0  0
 34 76  1  0  0  0  0
 36 72  1  0  0  0  0
 36 78  2  0  0  0  0
 37 53  1  0  0  0  0
 37 74  1  0  0  0  0
 37 79  2  0  0  0  0
 38 63  1  0  0  0  0
 38 69  1  0  0  0  0
 38 80  2  0  0  0  0
 39 64  1  0  0  0  0
 39 75  1  0  0  0  0
 39 81  2  0  0  0  0
 40 70  1  0  0  0  0
 40 73  1  0  0  0  0
 40 82  2  0  0  0  0
 41 45  1  0  0  0  0
 42 53  1  0  0  0  0
 43 69  1  0  0  0  0
 44 55  1  0  0  0  0
 45 47  1  0  0  0  0
 46 48  1  0  0  0  0
 46 49  1  0  0  0  0
 47 52  1  0  0  0  0
 48 54  1  0  0  0  0
 49 70  1  0  0  0  0
 50 54  1  0  0  0  0
 50 70  1  0  0  0  0
 51 55  1  0  0  0  0
 51 76  1  0  0  0  0
 52 74  1  0  0  0  0
 53 69  1  0  0  0  0
 54 68  1  0  0  0  0
 55 84  1  0  0  0  0
 57 64  1  0  0  0  0
 58 66  1  0  0  0  0
 59 66  1  0  0  0  0
 60 66  1  0  0  0  0
 61 77  1  0  0  0  0
 62 76  1  0  0  0  0
 63 66  1  0  0  0  0
 63 75  1  0  0  0  0
 64 77  1  0  0  0  0
 65 87  1  0  0  0  0
 65 88  1  0  0  0  0
 65 89  1  0  0  0  0
 67 68  1  0  0  0  0
M  CHG  2  76   1  77   1
M  ISO  4  40 100  55 101  73 100  84 101
M  END
> <Batch ID>
0031

> <Smiles>
C=C1C[101CH:1]([101O:1]c2ccc3c(c2)CN(C(=O)C(NC(=O)C(C)NC)C(C)(C)C)C(C(=O)NC2CCCc4ccccc42)C3)CN1Cc1ccc([100NH:0][100C:0](=O)N2CCCC(n3nc(-c4ccc(Oc5ccc(F)cc5F)cc4)c(C(N)=O)c3N)C2)c(C(F)(F)F)c1C

> <Shape>
0.216

> <Color>
0.199

> <Negative vol penalty>
0.000

$$$$

  -OEChem-04042321393D

 88 97  0     1  0  0  0  0  0999 V2000
  -24.6608  -24.8868   21.2704 C   0  0  0  0  0  0  0  0  0  0  0  0
  -25.3539  -24.2318   22.2834 C   0  0  0  0  0  0  0  0  0  0  0  0
  -23.0760   -9.8606   19.9472 C   0  0  0  0  0  0  0  0  0  0  0  0
  -23.8375   -9.8781   22.2399 C   0  0  0  0  0  0  0  0  0  0  0  0
  -25.0845  -24.7673   19.9475 C   0  0  0  0  0  0  0  0  0  0  0  0
  -26.4704  -23.4560   21.9738 C   0  0  0  0  0  0  0  0  0  0  0  0
  -31.5071  -22.7282   25.3809 C   0  0  0  0  0  0  0  0  0  0  0  0
  -22.3346   -8.7070   20.2022 C   0  0  0  0  0  0  0  0  0  0  0  0
  -23.0960   -8.7245   22.4950 C   0  0  0  0  0  0  0  0  0  0  0  0
  -31.9088  -21.7216   26.2580 C   0  0  0  0  0  0  0  0  0  0  0  0
  -19.8699   -7.9227   23.1029 C   0  0  0  0  0  0  0  0  0  0  0  0
  -19.1138   -7.8859   24.2745 C   0  0  0  0  0  0  0  0  0  0  0  0
  -33.1798  -20.6921   24.4848 C   0  0  0  0  0  0  0  0  0  0  0  0
  -29.4571  -18.5040   23.2191 C   0  0  0  0  0  0  0  0  0  0  0  0
  -20.3596   -5.9538   25.0177 C   0  0  0  0  0  0  0  0  0  0  0  0
  -23.8275  -10.4462   20.9660 C   0  0  0  0  0  0  0  0  0  0  0  0
  -24.1642  -12.9715   20.8358 C   0  0  0  0  0  0  0  0  0  0  0  0
  -26.2125  -23.9974   19.6227 C   0  0  0  0  0  0  0  0  0  0  0  0
  -31.9305  -22.7182   24.0441 C   0  0  0  0  0  0  0  0  0  0  0  0
  -26.9087  -23.3250   20.6451 C   0  0  0  0  0  0  0  0  0  0  0  0
  -32.7840  -21.7011   23.5934 C   0  0  0  0  0  0  0  0  0  0  0  0
  -28.9895  -19.0054   24.4338 C   0  0  0  0  0  0  0  0  0  0  0  0
  -30.3234  -17.4109   23.2030 C   0  0  0  0  0  0  0  0  0  0  0  0
  -29.3882  -18.4138   25.6324 C   0  0  0  0  0  0  0  0  0  0  0  0
  -30.2546  -17.3207   25.6163 C   0  0  0  0  0  0  0  0  0  0  0  0
  -22.3445   -8.1389   21.4761 C   0  0  0  0  0  0  0  0  0  0  0  0
  -32.7430  -20.7018   25.8092 C   0  0  0  0  0  0  0  0  0  0  0  0
  -20.8707   -6.9750   22.8887 C   0  0  0  0  0  0  0  0  0  0  0  0
  -19.3587   -6.9014   25.2319 C   0  0  0  0  0  0  0  0  0  0  0  0
  -21.1156   -5.9906   23.8461 C   0  0  0  0  0  0  0  0  0  0  0  0
  -30.7222  -16.8192   24.4016 C   0  0  0  0  0  0  0  0  0  0  0  0
  -24.5940  -11.6375   20.7031 C   0  0  0  0  0  0  0  0  0  0  0  0
  -25.2547  -13.7217   20.4689 C   0  0  0  0  0  0  0  0  0  0  0  0
  -22.8930  -13.4864   21.2536 C   0  0  0  0  0  0  0  0  0  0  0  0
  -30.4675  -22.5208   21.2291 C   0  0  0  0  0  0  0  0  0  0  0  0
  -33.4536  -23.0518   20.0784 C   0  0  0  0  0  0  0  0  0  0  0  0
  -36.8248  -22.8795   20.5799 C   0  0  0  0  0  0  0  0  0  0  0  0
  -30.7365  -14.7523   20.6493 C   0  0  0  0  0  0  0  0  0  0  0  0
  -26.6044  -23.8597   18.1728 C   0  0  0  0  0  0  0  0  0  0  0  0
  -31.5099  -23.8259   23.1175 C   0  0  0  0  0  0  0  0  0  0  0  0
  -33.2831  -21.6559   22.1731 C   0  0  0  0  0  0  0  0  0  0  0  0
  -28.0190  -23.3220   17.9726 C   0  0  0  0  0  0  0  0  0  0  0  0
  -29.6019  -12.3562   18.2727 C   0  0  0  0  0  0  0  0  0  0  0  0
  -33.1259  -16.7615   29.4334 C   0  0  0  0  0  0  0  0  0  0  0  0
  -28.2631  -22.1141   18.8717 C   0  0  0  0  0  0  0  0  0  0  0  0
  -28.1654  -12.0613   18.7078 C   0  0  0  0  0  0  0  0  0  0  0  0
  -33.9538  -17.4897   28.3933 C   0  0  0  0  0  0  0  0  0  0  0  0
  -30.5195  -12.5835   19.4721 C   0  0  0  0  0  0  0  0  0  0  0  0
  -28.6173  -13.3163   20.8572 C   0  0  0  0  0  0  0  0  0  0  0  0
  -31.7100  -17.2284   29.1554 C   0  0  0  0  0  0  0  0  0  0  0  0
  -28.1392  -22.4942   20.3521 C   0  0  1  0  0  0  0  0  0  0  0  0
  -31.5857  -23.4342   21.6450 C   0  0  1  0  0  0  0  0  0  0  0  0
  -27.6426  -13.1351   19.6809 C   0  0  2  0  0  0  0  0  0  0  0  0
  -33.1001  -17.3680   27.1398 C   0  0  2  0  0  0  0  0  0  0  0  0
  -28.0630  -20.1767   24.4234 C   0  0  0  0  0  0  0  0  0  0  0  0
  -28.8826  -18.9546   26.9327 C   0  0  0  0  0  0  0  0  0  0  0  0
  -39.0121  -23.3514   19.4439 C   0  0  0  0  0  0  0  0  0  0  0  0
  -33.1096  -20.5413   18.3786 C   0  0  0  0  0  0  0  0  0  0  0  0
  -35.5871  -20.5304   18.0180 C   0  0  0  0  0  0  0  0  0  0  0  0
  -34.2187  -22.4514   17.2057 C   0  0  0  0  0  0  0  0  0  0  0  0
  -37.6100  -24.8420   22.6514 C   0  0  0  0  0  0  0  0  0  0  0  0
  -30.7990  -16.9078   21.8777 C   0  0  0  0  0  0  0  0  0  0  0  0
  -30.6711  -16.6975   26.9160 C   0  0  0  0  0  0  0  0  0  0  0  0
  -33.3932  -18.4326   26.0987 C   0  0  0  0  0  0  0  0  0  1  0  0
  -34.6197  -22.1767   19.6868 C   0  0  1  0  0  0  0  0  0  0  0  0
  -37.9291  -23.8978   20.3611 C   0  0  2  0  0  0  0  0  0  0  0  0
  -34.3730  -21.4244   18.3486 C   0  0  0  0  0  0  0  0  0  0  0  0
  -25.8588  -11.5425   20.2843 N   0  0  0  0  0  0  0  0  0  0  0  0
  -26.2331  -12.8263   20.1506 N   0  0  0  0  0  0  0  0  0  0  0  0
  -32.8389  -22.7580   21.3038 N   0  0  0  0  0  0  0  0  0  0  0  0
  -29.9675  -13.6144   20.3544 N   0  0  0  0  0  0  0  0  0  0  0  0
  -25.4624  -15.0533   20.3905 N   0  0  0  0  0  0  0  0  0  0  0  0
  -21.8832  -12.5766   21.5952 N   0  0  0  0  0  0  0  0  0  0  0  0
  -29.3322  -23.1808   20.7992 N   0  0  0  0  0  0  0  0  0  0  0  0
  -35.7944  -23.0417   19.6782 N   0  0  0  0  0  0  0  0  0  0  0  0
  -30.1361  -15.6832   21.4881 N   0  0  0  0  0  0  0  0  0  0  0  0
  -31.6782  -17.5169   27.6639 N   0  3  1  0  0  0  0  0  0  0  0  0
  -38.5570  -24.2684   21.6609 N   0  3  0  0  0  0  0  0  0  0  0  0
  -22.6544  -14.7168   21.3063 O   0  0  0  0  0  0  0  0  0  0  0  0
  -30.6238  -21.3070   21.2920 O   0  0  0  0  0  0  0  0  0  0  0  0
  -33.1055  -23.9670   19.3281 O   0  0  0  0  0  0  0  0  0  0  0  0
  -36.8733  -22.0231   21.4602 O   0  0  0  0  0  0  0  0  0  0  0  0
  -31.8718  -14.9282   20.1942 O   0  0  0  0  0  0  0  0  0  0  0  0
  -21.6210   -7.0134   21.7253 O   0  0  0  0  0  0  0  0  0  0  0  0
  -33.1361  -19.7178   26.6631 O   0  0  0  0  0  0  0  0  0  1  0  0
  -18.6336   -6.8671   26.3576 F   0  0  0  0  0  0  0  0  0  0  0  0
  -22.0766   -5.0782   23.6463 F   0  0  0  0  0  0  0  0  0  0  0  0
  -31.7990  -15.4624   24.3777 Cl  0  0  0  0  0  0  0  0  0  0  0  0
  1  2  1  0  0  0  0
  1  5  2  0  0  0  0
  2  6  2  0  0  0  0
  3  8  2  0  0  0  0
  3 16  1  0  0  0  0
  4  9  1  0  0  0  0
  4 16  2  0  0  0  0
  5 18  1  0  0  0  0
  6 20  1  0  0  0  0
  7 10  2  0  0  0  0
  7 19  1  0  0  0  0
  8 26  1  0  0  0  0
  9 26  2  0  0  0  0
 10 27  1  0  0  0  0
 11 12  2  0  0  0  0
 11 28  1  0  0  0  0
 12 29  1  0  0  0  0
 13 21  1  0  0  0  0
 13 27  2  0  0  0  0
 14 22  1  0  0  0  0
 14 23  2  0  0  0  0
 15 29  2  0  0  0  0
 15 30  1  0  0  0  0
 16 32  1  0  0  0  0
 17 32  1  0  0  0  0
 17 33  2  0  0  0  0
 17 34  1  0  0  0  0
 18 20  2  0  0  0  0
 18 39  1  0  0  0  0
 19 21  2  0  0  0  0
 19 40  1  0  0  0  0
 20 51  1  0  0  0  0
 21 41  1  0  0  0  0
 22 24  2  0  0  0  0
 22 55  1  0  0  0  0
 23 31  1  0  0  0  0
 23 62  1  0  0  0  0
 24 25  1  0  0  0  0
 24 56  1  0  0  0  0
 25 31  2  0  0  0  0
 25 63  1  0  0  0  0
 26 84  1  0  0  0  0
 27 85  1  0  0  0  0
 28 30  2  0  0  0  0
 28 84  1  0  0  0  0
 29 86  1  0  0  0  0
 30 87  1  0  0  0  0
 31 88  1  0  0  0  0
 32 68  2  0  0  0  0
 33 69  1  0  0  0  0
 33 72  1  0  0  0  0
 34 73  1  0  0  0  0
 34 79  2  0  0  0  0
 35 52  1  0  0  0  0
 35 74  1  0  0  0  0
 35 80  2  0  0  0  0
 36 65  1  0  0  0  0
 36 70  1  0  0  0  0
 36 81  2  0  0  0  0
 37 66  1  0  0  0  0
 37 75  1  0  0  0  0
 37 82  2  0  0  0  0
 38 71  1  0  0  0  0
 38 76  1  0  0  0  0
 38 83  2  0  0  0  0
 39 42  1  0  0  0  0
 40 52  1  0  0  0  0
 41 70  1  0  0  0  0
 42 45  1  0  0  0  0
 43 46  1  0  0  0  0
 43 48  1  0  0  0  0
 44 47  1  0  0  0  0
 44 50  1  0  0  0  0
 45 51  1  0  0  0  0
 46 53  1  0  0  0  0
 47 54  1  0  0  0  0
 48 71  1  0  0  0  0
 49 53  1  0  0  0  0
 49 71  1  0  0  0  0
 50 77  1  0  0  0  0
 51 74  1  0  0  0  0
 52 70  1  0  0  0  0
 53 69  1  0  0  0  0
 54 64  1  0  0  0  0
 54 77  1  0  0  0  0
 57 66  1  0  0  0  0
 58 67  1  0  0  0  0
 59 67  1  0  0  0  0
 60 67  1  0  0  0  0
 61 78  1  0  0  0  0
 62 76  1  0  0  0  0
 63 77  1  0  0  0  0
 64 85  1  0  0  0  0
 65 67  1  0  0  0  0
 65 75  1  0  0  0  0
 66 78  1  0  0  0  0
 68 69  1  0  0  0  0
M  CHG  2  77   1  78   1
M  ISO  4  38 100  64 101  76 100  85 101
M  END
> <Batch ID>
0031

> <Smiles>
CNC(C)C(=O)NC(C(=O)N1Cc2cc([101O:1][101CH2:1]C3CCCN3Cc3c(C)c(C)cc(C[100NH:0][100C:0](=O)N4CCCC(n5nc(-c6ccc(Oc7ccc(F)cc7F)cc6)c(C(N)=O)c5N)C4)c3Cl)ccc2CC1C(=O)NC1CCCc2ccccc21)C(C)(C)C

> <Shape>
0.192

> <Color>
0.188

> <Negative vol penalty>
0.000

$$$$

  -OEChem-04042321393D

 85 94  0     1  0  0  0  0  0999 V2000
  -29.2239  -33.4754   29.0151 C   0  0  0  0  0  0  0  0  0  0  0  0
  -29.5755  -32.4686   28.1217 C   0  0  0  0  0  0  0  0  0  0  0  0
  -23.9203   -9.6113   20.5168 C   0  0  0  0  0  0  0  0  0  0  0  0
  -24.4592  -10.2190   22.7922 C   0  0  0  0  0  0  0  0  0  0  0  0
  -27.8981  -33.8981   29.1006 C   0  0  0  0  0  0  0  0  0  0  0  0
  -28.6011  -31.8832   27.3140 C   0  0  0  0  0  0  0  0  0  0  0  0
  -29.3072  -29.8488   21.5809 C   0  0  0  0  0  0  0  0  0  0  0  0
  -23.4720   -8.3655   20.9557 C   0  0  0  0  0  0  0  0  0  0  0  0
  -24.0108   -8.9732   23.2311 C   0  0  0  0  0  0  0  0  0  0  0  0
  -29.5232  -28.5747   21.0576 C   0  0  0  0  0  0  0  0  0  0  0  0
  -21.0481   -7.4739   23.8599 C   0  0  0  0  0  0  0  0  0  0  0  0
  -20.2302   -7.4423   24.9893 C   0  0  0  0  0  0  0  0  0  0  0  0
  -27.1560  -28.3457   20.6539 C   0  0  0  0  0  0  0  0  0  0  0  0
  -29.9906  -19.3972   20.5066 C   0  0  0  0  0  0  0  0  0  0  0  0
  -21.8526   -6.0587   26.1255 C   0  0  0  0  0  0  0  0  0  0  0  0
  -24.4140  -10.5380   21.4351 C   0  0  0  0  0  0  0  0  0  0  0  0
  -24.1188  -13.0029   20.8477 C   0  0  0  0  0  0  0  0  0  0  0  0
  -26.9087  -33.3243   28.2867 C   0  0  0  0  0  0  0  0  0  0  0  0
  -28.0104  -30.3775   21.6547 C   0  0  0  0  0  0  0  0  0  0  0  0
  -27.2606  -32.2977   27.3897 C   0  0  0  0  0  0  0  0  0  0  0  0
  -26.9264  -29.6277   21.1761 C   0  0  0  0  0  0  0  0  0  0  0  0
  -30.1383  -20.7686   20.7141 C   0  0  0  0  0  0  0  0  0  0  0  0
  -28.7407  -20.6217   22.6794 C   0  0  0  0  0  0  0  0  0  0  0  0
  -29.5134  -21.3808   21.8005 C   0  0  0  0  0  0  0  0  0  0  0  0
  -28.5929  -19.2503   22.4718 C   0  0  0  0  0  0  0  0  0  0  0  0
  -29.2178  -18.6381   21.3854 C   0  0  0  0  0  0  0  0  0  0  0  0
  -23.5172   -8.0464   22.3128 C   0  0  0  0  0  0  0  0  0  0  0  0
  -28.4472  -27.8218   20.5967 C   0  0  0  0  0  0  0  0  0  0  0  0
  -22.2683   -6.7979   23.8632 C   0  0  0  0  0  0  0  0  0  0  0  0
  -20.6324   -6.7347   26.1221 C   0  0  0  0  0  0  0  0  0  0  0  0
  -22.6705   -6.0904   24.9960 C   0  0  0  0  0  0  0  0  0  0  0  0
  -24.8778  -11.8249   20.9823 C   0  0  0  0  0  0  0  0  0  0  0  0
  -25.0140  -13.9372   20.3870 C   0  0  0  0  0  0  0  0  0  0  0  0
  -22.7290  -13.2320   21.1151 C   0  0  0  0  0  0  0  0  0  0  0  0
  -26.1067  -31.3281   24.0161 C   0  0  0  0  0  0  0  0  0  0  0  0
  -24.1976  -32.2782   21.5718 C   0  0  0  0  0  0  0  0  0  0  0  0
  -23.2803  -31.9201   18.3042 C   0  0  0  0  0  0  0  0  0  0  0  0
  -30.0073  -16.3953   20.5528 C   0  0  0  0  0  0  0  0  0  0  0  0
  -25.4805  -33.7814   28.4485 C   0  0  0  0  0  0  0  0  0  0  0  0
  -27.7972  -31.7640   22.1973 C   0  0  0  0  0  0  0  0  0  0  0  0
  -25.5172  -30.1578   21.2144 C   0  0  0  0  0  0  0  0  0  0  0  0
  -24.5745  -33.3702   27.2908 C   0  0  0  0  0  0  0  0  0  0  0  0
  -29.7379  -13.3976   18.6506 C   0  0  0  0  0  0  0  0  0  0  0  0
  -24.7939  -31.9028   26.9364 C   0  0  0  0  0  0  0  0  0  0  0  0
  -28.3870  -12.8181   19.0766 C   0  0  0  0  0  0  0  0  0  0  0  0
  -30.4621  -14.0654   19.8182 C   0  0  0  0  0  0  0  0  0  0  0  0
  -28.3255  -14.4939   20.9673 C   0  0  0  0  0  0  0  0  0  0  0  0
  -28.5640  -25.0363   22.0893 C   0  0  0  0  0  0  0  0  0  0  0  0
  -28.4998  -24.0620   20.2430 C   0  0  0  0  0  0  0  0  0  0  0  0
  -26.2366  -31.6555   26.4791 C   0  0  1  0  0  0  0  0  0  0  0  0
  -26.3752  -31.9976   22.6980 C   0  0  1  0  0  0  0  0  0  0  0  0
  -27.5297  -13.8679   19.8105 C   0  0  2  0  0  0  0  0  0  0  0  0
  -28.0222  -25.4484   20.7090 C   0  0  0  0  0  0  0  0  0  1  0  0
  -30.9681  -21.5593   19.7562 C   0  0  0  0  0  0  0  0  0  0  0  0
  -28.0704  -21.2793   23.8445 C   0  0  0  0  0  0  0  0  0  0  0  0
  -27.7618  -18.4381   23.4153 C   0  0  0  0  0  0  0  0  0  0  0  0
  -21.6643  -32.8099   16.6029 C   0  0  0  0  0  0  0  0  0  0  0  0
  -21.9534  -30.6631   22.8621 C   0  0  0  0  0  0  0  0  0  0  0  0
  -20.7046  -30.7991   20.6965 C   0  0  0  0  0  0  0  0  0  0  0  0
  -21.2503  -32.8840   21.9526 C   0  0  0  0  0  0  0  0  0  0  0  0
  -25.4681  -32.8843   16.5598 C   0  0  0  0  0  0  0  0  0  0  0  0
  -29.6734  -22.8564   22.0200 C   0  0  0  0  0  0  0  0  0  0  0  0
  -23.0980  -31.6349   20.7618 C   0  0  1  0  0  0  0  0  0  0  0  0
  -23.0554  -32.9410   17.2034 C   0  0  2  0  0  0  0  0  0  0  0  0
  -21.7778  -31.4842   21.5692 C   0  0  0  0  0  0  0  0  0  0  0  0
  -26.1565  -11.9928   20.6351 N   0  0  0  0  0  0  0  0  0  0  0  0
  -26.2080  -13.2873   20.2777 N   0  0  0  0  0  0  0  0  0  0  0  0
  -25.3594  -31.5162   21.7597 N   0  0  0  0  0  0  0  0  0  0  0  0
  -29.5905  -15.0504   20.4624 N   0  0  0  0  0  0  0  0  0  0  0  0
  -24.8883  -15.2431   20.0688 N   0  0  0  0  0  0  0  0  0  0  0  0
  -21.9536  -12.1627   21.5836 N   0  0  0  0  0  0  0  0  0  0  0  0
  -29.0820  -17.2464   21.1562 N   0  0  0  0  0  0  0  0  0  0  0  0
  -26.4186  -32.1048   25.1155 N   0  0  0  0  0  0  0  0  0  0  0  0
  -22.9674  -32.4309   19.5461 N   0  0  0  0  0  0  0  0  0  0  0  0
  -28.4678  -23.6311   21.6529 N   0  3  0  0  0  0  0  0  0  0  0  0
  -24.0564  -32.7579   16.1147 N   0  3  0  0  0  0  0  0  0  0  0  0
  -22.1870  -14.3478   20.9282 O   0  0  0  0  0  0  0  0  0  0  0  0
  -25.6490  -30.1915   24.0342 O   0  0  0  0  0  0  0  0  0  0  0  0
  -24.0346  -33.4177   22.0151 O   0  0  0  0  0  0  0  0  0  0  0  0
  -23.6888  -30.7821   18.0839 O   0  0  0  0  0  0  0  0  0  0  0  0
  -31.0928  -16.7700   20.1019 O   0  0  0  0  0  0  0  0  0  0  0  0
  -23.0795   -6.8310   22.7414 O   0  0  0  0  0  0  0  0  0  0  0  0
  -28.6552  -26.5777   20.0861 O   0  0  0  0  0  0  0  0  0  1  0  0
  -19.8476   -6.7057   27.2071 F   0  0  0  0  0  0  0  0  0  0  0  0
  -23.8421   -5.4400   25.0056 F   0  0  0  0  0  0  0  0  0  0  0  0
  1  2  1  0  0  0  0
  1  5  2  0  0  0  0
  2  6  2  0  0  0  0
  3  8  2  0  0  0  0
  3 16  1  0  0  0  0
  4  9  1  0  0  0  0
  4 16  2  0  0  0  0
  5 18  1  0  0  0  0
  6 20  1  0  0  0  0
  7 10  2  0  0  0  0
  7 19  1  0  0  0  0
  8 27  1  0  0  0  0
  9 27  2  0  0  0  0
 10 28  1  0  0  0  0
 11 12  2  0  0  0  0
 11 29  1  0  0  0  0
 12 30  1  0  0  0  0
 13 21  1  0  0  0  0
 13 28  2  0  0  0  0
 14 22  2  0  0  0  0
 14 26  1  0  0  0  0
 15 30  2  0  0  0  0
 15 31  1  0  0  0  0
 16 32  1  0  0  0  0
 17 32  1  0  0  0  0
 17 33  2  0  0  0  0
 17 34  1  0  0  0  0
 18 20  2  0  0  0  0
 18 39  1  0  0  0  0
 19 21  2  0  0  0  0
 19 40  1  0  0  0  0
 20 50  1  0  0  0  0
 21 41  1  0  0  0  0
 22 24  1  0  0  0  0
 22 54  1  0  0  0  0
 23 24  2  0  0  0  0
 23 25  1  0  0  0  0
 23 55  1  0  0  0  0
 24 62  1  0  0  0  0
 25 26  2  0  0  0  0
 25 56  1  0  0  0  0
 26 72  1  0  0  0  0
 27 82  1  0  0  0  0
 28 83  1  0  0  0  0
 29 31  2  0  0  0  0
 29 82  1  0  0  0  0
 30 84  1  0  0  0  0
 31 85  1  0  0  0  0
 32 66  2  0  0  0  0
 33 67  1  0  0  0  0
 33 70  1  0  0  0  0
 34 71  1  0  0  0  0
 34 77  2  0  0  0  0
 35 51  1  0  0  0  0
 35 73  1  0  0  0  0
 35 78  2  0  0  0  0
 36 63  1  0  0  0  0
 36 68  1  0  0  0  0
 36 79  2  0  0  0  0
 37 64  1  0  0  0  0
 37 74  1  0  0  0  0
 37 80  2  0  0  0  0
 38 69  1  0  0  0  0
 38 72  1  0  0  0  0
 38 81  2  0  0  0  0
 39 42  1  0  0  0  0
 40 51  1  0  0  0  0
 41 68  1  0  0  0  0
 42 44  1  0  0  0  0
 43 45  1  0  0  0  0
 43 46  1  0  0  0  0
 44 50  1  0  0  0  0
 45 52  1  0  0  0  0
 46 69  1  0  0  0  0
 47 52  1  0  0  0  0
 47 69  1  0  0  0  0
 48 53  1  0  0  0  0
 48 75  1  0  0  0  0
 49 53  1  0  0  0  0
 49 75  1  0  0  0  0
 50 73  1  0  0  0  0
 51 68  1  0  0  0  0
 52 67  1  0  0  0  0
 53 83  1  0  0  0  0
 57 64  1  0  0  0  0
 58 65  1  0  0  0  0
 59 65  1  0  0  0  0
 60 65  1  0  0  0  0
 61 76  1  0  0  0  0
 62 75  1  0  0  0  0
 63 65  1  0  0  0  0
 63 74  1  0  0  0  0
 64 76  1  0  0  0  0
 66 67  1  0  0  0  0
M  CHG  2  75   1  76   1
M  ISO  4  38 100  53 101  72 100  83 101
M  END
> <Batch ID>
0031

> <Smiles>
CNC(C)C(=O)NC(C(=O)N1Cc2cc([101O:1][101CH:1]3CN(Cc4c(C)cc([100NH:0][100C:0](=O)N5CCCC(n6nc(-c7ccc(Oc8ccc(F)cc8F)cc7)c(C(N)=O)c6N)C5)c(C)c4C)C3)ccc2CC1C(=O)NC1CCCc2ccccc21)C(C)(C)C

> <Shape>
0.308

> <Color>
0.126

> <Negative vol penalty>
0.000

$$$$

  -OEChem-04042321393D

 89 98  0     1  0  0  0  0  0999 V2000
  -27.9658  -31.7743   24.2962 C   0  0  0  0  0  0  0  0  0  0  0  0
  -27.2671  -30.5807   24.4461 C   0  0  0  0  0  0  0  0  0  0  0  0
  -27.0110  -10.4608   19.5303 C   0  0  0  0  0  0  0  0  0  0  0  0
  -26.7733  -10.2798   21.9277 C   0  0  0  0  0  0  0  0  0  0  0  0
  -27.2736  -32.9607   24.0567 C   0  0  0  0  0  0  0  0  0  0  0  0
  -25.8755  -30.5730   24.3578 C   0  0  0  0  0  0  0  0  0  0  0  0
  -26.1128  -29.5076   19.5293 C   0  0  0  0  0  0  0  0  0  0  0  0
  -27.8634   -9.3567   19.5314 C   0  0  0  0  0  0  0  0  0  0  0  0
  -27.6257   -9.1757   21.9289 C   0  0  0  0  0  0  0  0  0  0  0  0
  -27.2946  -28.7702   19.4720 C   0  0  0  0  0  0  0  0  0  0  0  0
  -27.5806   -5.9916   19.7008 C   0  0  0  0  0  0  0  0  0  0  0  0
  -27.3755   -5.0132   18.7281 C   0  0  0  0  0  0  0  0  0  0  0  0
  -26.1884  -26.9240   20.5615 C   0  0  0  0  0  0  0  0  0  0  0  0
  -27.9929  -22.4414   16.0859 C   0  0  0  0  0  0  0  0  0  0  0  0
  -26.2274  -20.8563   16.5414 C   0  0  0  0  0  0  0  0  0  0  0  0
  -29.6089   -5.3837   17.8844 C   0  0  0  0  0  0  0  0  0  0  0  0
  -26.4660  -10.9224   20.7285 C   0  0  0  0  0  0  0  0  0  0  0  0
  -24.1850  -12.0560   20.5888 C   0  0  0  0  0  0  0  0  0  0  0  0
  -25.8734  -32.9659   23.9558 C   0  0  0  0  0  0  0  0  0  0  0  0
  -24.9609  -28.9618   20.1139 C   0  0  0  0  0  0  0  0  0  0  0  0
  -25.1637  -31.7607   24.1181 C   0  0  0  0  0  0  0  0  0  0  0  0
  -24.9925  -27.6555   20.6226 C   0  0  0  0  0  0  0  0  0  0  0  0
  -26.8540  -21.7500   15.6728 C   0  0  0  0  0  0  0  0  0  0  0  0
  -28.5051  -22.2391   17.3674 C   0  0  0  0  0  0  0  0  0  0  0  0
  -27.8785  -21.3454   18.2360 C   0  0  0  0  0  0  0  0  0  0  0  0
  -26.7396  -20.6541   17.8230 C   0  0  0  0  0  0  0  0  0  0  0  0
  -28.1708   -8.7142   20.7307 C   0  0  0  0  0  0  0  0  0  0  0  0
  -27.3333  -27.4793   19.9908 C   0  0  0  0  0  0  0  0  0  0  0  0
  -28.7999   -6.6661   19.7653 C   0  0  0  0  0  0  0  0  0  0  0  0
  -28.3896   -4.7092   17.8198 C   0  0  0  0  0  0  0  0  0  0  0  0
  -29.8140   -6.3621   18.8571 C   0  0  0  0  0  0  0  0  0  0  0  0
  -25.5858  -12.0632   20.7280 C   0  0  0  0  0  0  0  0  0  0  0  0
  -23.8267  -13.3804   20.6541 C   0  0  0  0  0  0  0  0  0  0  0  0
  -30.6132  -24.8613   19.0930 C   0  0  0  0  0  0  0  0  0  0  0  0
  -31.5667  -24.3046   19.8493 C   0  0  0  0  0  0  0  0  0  0  0  0
  -23.2878  -10.9511   20.4159 C   0  0  0  0  0  0  0  0  0  0  0  0
  -23.1352  -29.7182   22.6035 C   0  0  0  0  0  0  0  0  0  0  0  0
  -21.2826  -27.3026   21.4832 C   0  0  0  0  0  0  0  0  0  0  0  0
  -21.7994  -24.0019   20.1209 C   0  0  0  0  0  0  0  0  0  0  0  0
  -26.4292  -18.3598   18.7366 C   0  0  0  0  0  0  0  0  0  0  0  0
  -25.1658  -34.2807   23.7431 C   0  0  0  0  0  0  0  0  0  0  0  0
  -23.6866  -29.7603   20.1438 C   0  0  0  0  0  0  0  0  0  0  0  0
  -23.7777  -27.0163   21.2423 C   0  0  0  0  0  0  0  0  0  0  0  0
  -30.5345  -26.3091   18.7212 C   0  0  0  0  0  0  0  0  0  0  0  0
  -23.7161  -34.1260   23.2907 C   0  0  0  0  0  0  0  0  0  0  0  0
  -26.4514  -17.3104   22.3144 C   0  0  0  0  0  0  0  0  0  0  0  0
  -22.9983  -33.0859   24.1450 C   0  0  0  0  0  0  0  0  0  0  0  0
  -25.7183  -15.9680   22.3294 C   0  0  0  0  0  0  0  0  0  0  0  0
  -25.9287  -18.2451   21.2299 C   0  0  0  0  0  0  0  0  0  0  0  0
  -25.9808  -16.1818   19.8112 C   0  0  0  0  0  0  0  0  0  0  0  0
  -28.4981  -25.1648   18.1342 C   0  0  0  0  0  0  0  0  0  0  0  0
  -23.6556  -31.7076   24.0043 C   0  0  1  0  0  0  0  0  0  0  0  0
  -22.7152  -29.2951   21.2243 C   0  0  1  0  0  0  0  0  0  0  0  0
  -25.1517  -15.5764   20.9519 C   0  0  1  0  0  0  0  0  0  0  0  0
  -29.0273  -26.4970   18.6461 C   0  0  1  0  0  0  0  0  0  1  0  0
  -26.3072  -21.9652   14.3021 C   0  0  0  0  0  0  0  0  0  0  0  0
  -28.8907  -19.6800   19.8345 C   0  0  0  0  0  0  0  0  0  0  0  0
  -27.4417  -21.5477   20.7103 C   0  0  0  0  0  0  0  0  0  0  0  0
  -20.3937  -22.6503   18.5415 C   0  0  0  0  0  0  0  0  0  0  0  0
  -20.1009  -26.0973   24.0250 C   0  0  0  0  0  0  0  0  0  0  0  0
  -20.0394  -23.8810   22.8621 C   0  0  0  0  0  0  0  0  0  0  0  0
  -18.7004  -25.7900   21.9759 C   0  0  0  0  0  0  0  0  0  0  0  0
  -24.8750  -20.1720   19.4200 C   0  0  0  0  0  0  0  0  0  0  0  0
  -24.0524  -23.6483   18.2347 C   0  0  0  0  0  0  0  0  0  0  0  0
  -29.7324  -22.9940   17.7858 C   0  0  0  0  0  0  0  0  0  0  0  0
  -28.4327  -21.1313   19.6097 C   0  0  0  0  0  0  0  0  0  0  0  0
  -21.2149  -25.8122   21.7133 C   0  0  1  0  0  0  0  0  0  0  0  0
  -21.5958  -23.5716   18.6795 C   0  0  2  0  0  0  0  0  0  0  0  0
  -20.0383  -25.4095   22.6466 C   0  0  0  0  0  0  0  0  0  0  0  0
  -26.0835  -13.2944   20.8708 N   0  0  0  0  0  0  0  0  0  0  0  0
  -24.9894  -14.0733   20.8216 N   0  0  0  0  0  0  0  0  0  0  0  0
  -22.5572  -27.8397   21.2537 N   0  0  0  0  0  0  0  0  0  0  0  0
  -26.0463  -17.6450   19.8909 N   0  0  0  0  0  0  0  0  0  0  0  0
  -22.6336  -14.0081   20.5839 N   0  0  0  0  0  0  0  0  0  0  0  0
  -23.8231   -9.6566   20.3705 N   0  0  0  0  0  0  0  0  0  0  0  0
  -23.2633  -31.0854   22.7580 N   0  0  0  0  0  0  0  0  0  0  0  0
  -21.1666  -25.1968   20.3915 N   0  0  0  0  0  0  0  0  0  0  0  0
  -26.0741  -19.7251   18.7062 N   0  0  0  0  0  0  0  0  0  0  0  0
  -29.4361  -24.1190   18.7313 N   0  3  1  0  0  0  0  0  0  0  0  0
  -22.8003  -22.8507   18.1790 N   0  3  0  0  0  0  0  0  0  0  0  0
  -22.0499  -11.1083   20.2886 O   0  0  0  0  0  0  0  0  0  0  0  0
  -23.3272  -28.8674   23.4642 O   0  0  0  0  0  0  0  0  0  0  0  0
  -20.2420  -27.9649   21.4991 O   0  0  0  0  0  0  0  0  0  0  0  0
  -22.4512  -23.3421   20.9273 O   0  0  0  0  0  0  0  0  0  0  0  0
  -27.0309  -17.8126   17.8047 O   0  0  0  0  0  0  0  0  0  0  0  0
  -29.0023   -7.6366   20.7322 O   0  0  0  0  0  0  0  0  0  0  0  0
  -28.4858  -26.7576   19.9368 O   0  0  0  0  0  0  0  0  0  1  0  0
  -28.1930   -3.7686   16.8867 F   0  0  0  0  0  0  0  0  0  0  0  0
  -30.9879   -7.0059   18.9149 F   0  0  0  0  0  0  0  0  0  0  0  0
  1  2  1  0  0  0  0
  1  5  2  0  0  0  0
  2  6  2  0  0  0  0
  3  8  2  0  0  0  0
  3 17  1  0  0  0  0
  4  9  1  0  0  0  0
  4 17  2  0  0  0  0
  5 19  1  0  0  0  0
  6 21  1  0  0  0  0
  7 10  2  0  0  0  0
  7 20  1  0  0  0  0
  8 27  1  0  0  0  0
  9 27  2  0  0  0  0
 10 28  1  0  0  0  0
 11 12  2  0  0  0  0
 11 29  1  0  0  0  0
 12 30  1  0  0  0  0
 13 22  1  0  0  0  0
 13 28  2  0  0  0  0
 14 23  2  0  0  0  0
 14 24  1  0  0  0  0
 15 23  1  0  0  0  0
 15 26  2  0  0  0  0
 16 30  2  0  0  0  0
 16 31  1  0  0  0  0
 17 32  1  0  0  0  0
 18 32  1  0  0  0  0
 18 33  2  0  0  0  0
 18 36  1  0  0  0  0
 19 21  2  0  0  0  0
 19 41  1  0  0  0  0
 20 22  2  0  0  0  0
 20 42  1  0  0  0  0
 21 52  1  0  0  0  0
 22 43  1  0  0  0  0
 23 56  1  0  0  0  0
 24 25  2  0  0  0  0
 24 65  1  0  0  0  0
 25 26  1  0  0  0  0
 25 66  1  0  0  0  0
 26 78  1  0  0  0  0
 27 86  1  0  0  0  0
 28 87  1  0  0  0  0
 29 31  2  0  0  0  0
 29 86  1  0  0  0  0
 30 88  1  0  0  0  0
 31 89  1  0  0  0  0
 32 70  2  0  0  0  0
 33 71  1  0  0  0  0
 33 74  1  0  0  0  0
 34 35  2  0  0  0  0
 34 44  1  0  0  0  0
 34 79  1  0  0  0  0
 36 75  1  0  0  0  0
 36 81  2  0  0  0  0
 37 53  1  0  0  0  0
 37 76  1  0  0  0  0
 37 82  2  0  0  0  0
 38 67  1  0  0  0  0
 38 72  1  0  0  0  0
 38 83  2  0  0  0  0
 39 68  1  0  0  0  0
 39 77  1  0  0  0  0
 39 84  2  0  0  0  0
 40 73  1  0  0  0  0
 40 78  1  0  0  0  0
 40 85  2  0  0  0  0
 41 45  1  0  0  0  0
 42 53  1  0  0  0  0
 43 72  1  0  0  0  0
 44 55  1  0  0  0  0
 45 47  1  0  0  0  0
 46 48  1  0  0  0  0
 46 49  1  0  0  0  0
 47 52  1  0  0  0  0
 48 54  1  0  0  0  0
 49 73  1  0  0  0  0
 50 54  1  0  0  0  0
 50 73  1  0  0  0  0
 51 55  1  0  0  0  0
 51 79  1  0  0  0  0
 52 76  1  0  0  0  0
 53 72  1  0  0  0  0
 54 71  1  0  0  0  0
 55 87  1  0  0  0  0
 57 66  1  0  0  0  0
 58 66  1  0  0  0  0
 59 68  1  0  0  0  0
 60 69  1  0  0  0  0
 61 69  1  0  0  0  0
 62 69  1  0  0  0  0
 63 78  1  0  0  0  0
 64 80  1  0  0  0  0
 65 79  1  0  0  0  0
 67 69  1  0  0  0  0
 67 77  1  0  0  0  0
 68 80  1  0  0  0  0
 70 71  1  0  0  0  0
M  CHG  2  79   1  80   1
M  ISO  4  40 100  55 101  78 100  87 101
M  END
> <Batch ID>
0031

> <Smiles>
C=C1C[101CH:1]([101O:1]c2ccc3c(c2)CN(C(=O)C(NC(=O)C(C)NC)C(C)(C)C)C(C(=O)NC2CCCc4ccccc42)C3)CN1Cc1cc(C)cc([100N:0](C)[100C:0](=O)N2CCCC(n3nc(-c4ccc(Oc5ccc(F)cc5F)cc4)c(C(N)=O)c3N)C2)c1C(C)C

> <Shape>
0.264

> <Color>
0.087

> <Negative vol penalty>
0.000

$$$$

  -OEChem-04042321393D

 86 95  0     1  0  0  0  0  0999 V2000
  -45.5159  -18.3827   26.9166 C   0  0  0  0  0  0  0  0  0  0  0  0
  -44.9453  -19.3088   26.0494 C   0  0  0  0  0  0  0  0  0  0  0  0
  -23.0743   -9.8684   19.9410 C   0  0  0  0  0  0  0  0  0  0  0  0
  -23.8383   -9.8738   22.2330 C   0  0  0  0  0  0  0  0  0  0  0  0
  -45.0451  -17.0706   26.9416 C   0  0  0  0  0  0  0  0  0  0  0  0
  -43.9041  -18.9231   25.2059 C   0  0  0  0  0  0  0  0  0  0  0  0
  -37.9511  -21.4847   22.1536 C   0  0  0  0  0  0  0  0  0  0  0  0
  -22.3318   -8.7144   20.1912 C   0  0  0  0  0  0  0  0  0  0  0  0
  -23.0958   -8.7198   22.4832 C   0  0  0  0  0  0  0  0  0  0  0  0
  -37.3436  -21.5956   20.9036 C   0  0  0  0  0  0  0  0  0  0  0  0
  -19.8694   -7.9187   23.0908 C   0  0  0  0  0  0  0  0  0  0  0  0
  -19.1146   -7.8770   24.2630 C   0  0  0  0  0  0  0  0  0  0  0  0
  -36.5589  -19.3221   21.0900 C   0  0  0  0  0  0  0  0  0  0  0  0
  -29.1742  -19.7117   19.9518 C   0  0  0  0  0  0  0  0  0  0  0  0
  -31.6136  -18.3619   20.0526 C   0  0  0  0  0  0  0  0  0  0  0  0
  -20.3590   -5.9399   24.9953 C   0  0  0  0  0  0  0  0  0  0  0  0
  -23.8276  -10.4481   20.9619 C   0  0  0  0  0  0  0  0  0  0  0  0
  -24.1671  -12.9737   20.8438 C   0  0  0  0  0  0  0  0  0  0  0  0
  -43.9911  -16.6710   26.1049 C   0  0  0  0  0  0  0  0  0  0  0  0
  -37.8761  -20.2861   22.8776 C   0  0  0  0  0  0  0  0  0  0  0  0
  -43.4196  -17.6040   25.2188 C   0  0  0  0  0  0  0  0  0  0  0  0
  -37.1641  -19.1994   22.3500 C   0  0  0  0  0  0  0  0  0  0  0  0
  -29.3628  -18.6797   20.8710 C   0  0  0  0  0  0  0  0  0  0  0  0
  -30.2053  -20.0688   19.0829 C   0  0  0  0  0  0  0  0  0  0  0  0
  -30.5824  -18.0048   20.9215 C   0  0  0  0  0  0  0  0  0  0  0  0
  -31.4250  -19.3939   19.1333 C   0  0  0  0  0  0  0  0  0  0  0  0
  -22.3425   -8.1401   21.4623 C   0  0  0  0  0  0  0  0  0  0  0  0
  -36.6499  -20.5133   20.3703 C   0  0  0  0  0  0  0  0  0  0  0  0
  -20.8689   -6.9710   22.8708 C   0  0  0  0  0  0  0  0  0  0  0  0
  -19.3594   -6.8876   25.2153 C   0  0  0  0  0  0  0  0  0  0  0  0
  -21.1137   -5.9816   23.8230 C   0  0  0  0  0  0  0  0  0  0  0  0
  -24.5952  -11.6399   20.7040 C   0  0  0  0  0  0  0  0  0  0  0  0
  -25.2580  -13.7244   20.4793 C   0  0  0  0  0  0  0  0  0  0  0  0
  -34.2395  -21.4598   17.6666 C   0  0  0  0  0  0  0  0  0  0  0  0
  -34.5841  -21.5777   16.3812 C   0  0  0  0  0  0  0  0  0  0  0  0
  -22.8970  -13.4880   21.2655 C   0  0  0  0  0  0  0  0  0  0  0  0
  -39.9981  -18.1740   23.9454 C   0  0  0  0  0  0  0  0  0  0  0  0
  -37.3950  -16.8630   25.3693 C   0  0  0  0  0  0  0  0  0  0  0  0
  -34.0059  -16.4644   25.4067 C   0  0  0  0  0  0  0  0  0  0  0  0
  -30.7412  -14.7478   20.6587 C   0  0  0  0  0  0  0  0  0  0  0  0
  -43.5477  -15.2297   26.1338 C   0  0  0  0  0  0  0  0  0  0  0  0
  -38.5141  -20.1912   24.2364 C   0  0  0  0  0  0  0  0  0  0  0  0
  -37.0369  -17.8972   23.0961 C   0  0  0  0  0  0  0  0  0  0  0  0
  -42.1904  -14.9967   25.4753 C   0  0  0  0  0  0  0  0  0  0  0  0
  -29.6013  -12.3647   18.2717 C   0  0  0  0  0  0  0  0  0  0  0  0
  -42.1188  -15.7144   24.1312 C   0  0  0  0  0  0  0  0  0  0  0  0
  -28.1649  -12.0693   18.7069 C   0  0  0  0  0  0  0  0  0  0  0  0
  -30.5204  -12.5851   19.4711 C   0  0  0  0  0  0  0  0  0  0  0  0
  -28.6206  -13.3132   20.8619 C   0  0  0  0  0  0  0  0  0  0  0  0
  -33.6805  -21.3689   19.6510 C   0  0  0  0  0  0  0  0  0  0  0  0
  -42.2718  -17.2301   24.3062 C   0  0  1  0  0  0  0  0  0  0  0  0
  -35.0347  -21.6222   18.9454 C   0  0  1  0  0  0  0  0  0  1  0  0
  -38.8102  -18.7555   24.6586 C   0  0  1  0  0  0  0  0  0  0  0  0
  -27.6444  -13.1390   19.6858 C   0  0  2  0  0  0  0  0  0  0  0  0
  -28.2447  -18.3155   21.7917 C   0  0  0  0  0  0  0  0  0  0  0  0
  -29.9800  -21.1763   18.1066 C   0  0  0  0  0  0  0  0  0  0  0  0
  -32.1725  -15.3056   26.6689 C   0  0  0  0  0  0  0  0  0  0  0  0
  -38.1572  -14.2213   24.0463 C   0  0  0  0  0  0  0  0  0  0  0  0
  -35.8491  -13.3873   24.5419 C   0  0  0  0  0  0  0  0  0  0  0  0
  -37.3749  -14.0153   26.4127 C   0  0  0  0  0  0  0  0  0  0  0  0
  -32.7242  -19.0316   26.1317 C   0  0  0  0  0  0  0  0  0  0  0  0
  -30.8076  -16.8972   21.8976 C   0  0  0  0  0  0  0  0  0  0  0  0
  -32.5482  -19.7597   18.2083 C   0  0  0  0  0  0  0  0  0  0  0  0
  -36.3654  -15.8324   24.9736 C   0  0  1  0  0  0  0  0  0  0  0  0
  -32.9903  -16.5801   26.5291 C   0  0  2  0  0  0  0  0  0  0  0  0
  -36.9405  -14.3878   24.9784 C   0  0  0  0  0  0  0  0  0  0  0  0
  -25.8594  -11.5455   20.2833 N   0  0  0  0  0  0  0  0  0  0  0  0
  -26.2350  -12.8295   20.1556 N   0  0  0  0  0  0  0  0  0  0  0  0
  -37.6834  -17.8518   24.4181 N   0  0  0  0  0  0  0  0  0  0  0  0
  -29.9706  -13.6123   20.3591 N   0  0  0  0  0  0  0  0  0  0  0  0
  -25.4672  -15.0561   20.4072 N   0  0  0  0  0  0  0  0  0  0  0  0
  -21.8864  -12.5777   21.6037 N   0  0  0  0  0  0  0  0  0  0  0  0
  -41.0352  -17.8111   24.7834 N   0  0  0  0  0  0  0  0  0  0  0  0
  -35.2292  -16.0262   25.8679 N   0  0  0  0  0  0  0  0  0  0  0  0
  -30.1429  -15.6753   21.5028 N   0  0  0  0  0  0  0  0  0  0  0  0
  -32.9938  -21.1666   18.3627 N   0  3  2  0  0  0  0  0  0  0  0  0
  -32.0563  -17.7116   26.2680 N   0  3  0  0  0  0  0  0  0  0  0  0
  -22.6598  -14.7184   21.3245 O   0  0  0  0  0  0  0  0  0  0  0  0
  -39.9748  -18.0616   22.7254 O   0  0  0  0  0  0  0  0  0  0  0  0
  -37.9188  -16.7974   26.4842 O   0  0  0  0  0  0  0  0  0  0  0  0
  -33.7394  -16.7322   24.2371 O   0  0  0  0  0  0  0  0  0  0  0  0
  -31.8762  -14.9246   20.2032 O   0  0  0  0  0  0  0  0  0  0  0  0
  -21.6180   -7.0142   21.7068 O   0  0  0  0  0  0  0  0  0  0  0  0
  -36.0566  -20.6187   19.1502 O   0  0  0  0  0  0  0  0  0  1  0  0
  -18.6355   -6.8486   26.3416 F   0  0  0  0  0  0  0  0  0  0  0  0
  -22.0734   -5.0691   23.6178 F   0  0  0  0  0  0  0  0  0  0  0  0
  1  2  1  0  0  0  0
  1  5  2  0  0  0  0
  2  6  2  0  0  0  0
  3  8  2  0  0  0  0
  3 17  1  0  0  0  0
  4  9  1  0  0  0  0
  4 17  2  0  0  0  0
  5 19  1  0  0  0  0
  6 21  1  0  0  0  0
  7 10  2  0  0  0  0
  7 20  1  0  0  0  0
  8 27  1  0  0  0  0
  9 27  2  0  0  0  0
 10 28  1  0  0  0  0
 11 12  2  0  0  0  0
 11 29  1  0  0  0  0
 12 30  1  0  0  0  0
 13 22  1  0  0  0  0
 13 28  2  0  0  0  0
 14 23  2  0  0  0  0
 14 24  1  0  0  0  0
 15 25  2  0  0  0  0
 15 26  1  0  0  0  0
 16 30  2  0  0  0  0
 16 31  1  0  0  0  0
 17 32  1  0  0  0  0
 18 32  1  0  0  0  0
 18 33  2  0  0  0  0
 18 36  1  0  0  0  0
 19 21  2  0  0  0  0
 19 41  1  0  0  0  0
 20 22  2  0  0  0  0
 20 42  1  0  0  0  0
 21 51  1  0  0  0  0
 22 43  1  0  0  0  0
 23 25  1  0  0  0  0
 23 55  1  0  0  0  0
 24 26  2  0  0  0  0
 24 56  1  0  0  0  0
 25 62  1  0  0  0  0
 26 63  1  0  0  0  0
 27 83  1  0  0  0  0
 28 84  1  0  0  0  0
 29 31  2  0  0  0  0
 29 83  1  0  0  0  0
 30 85  1  0  0  0  0
 31 86  1  0  0  0  0
 32 67  2  0  0  0  0
 33 68  1  0  0  0  0
 33 71  1  0  0  0  0
 34 35  2  0  0  0  0
 34 52  1  0  0  0  0
 34 76  1  0  0  0  0
 36 72  1  0  0  0  0
 36 78  2  0  0  0  0
 37 53  1  0  0  0  0
 37 73  1  0  0  0  0
 37 79  2  0  0  0  0
 38 64  1  0  0  0  0
 38 69  1  0  0  0  0
 38 80  2  0  0  0  0
 39 65  1  0  0  0  0
 39 74  1  0  0  0  0
 39 81  2  0  0  0  0
 40 70  1  0  0  0  0
 40 75  1  0  0  0  0
 40 82  2  0  0  0  0
 41 44  1  0  0  0  0
 42 53  1  0  0  0  0
 43 69  1  0  0  0  0
 44 46  1  0  0  0  0
 45 47  1  0  0  0  0
 45 48  1  0  0  0  0
 46 51  1  0  0  0  0
 47 54  1  0  0  0  0
 48 70  1  0  0  0  0
 49 54  1  0  0  0  0
 49 70  1  0  0  0  0
 50 52  1  0  0  0  0
 50 76  1  0  0  0  0
 51 73  1  0  0  0  0
 52 84  1  0  0  0  0
 53 69  1  0  0  0  0
 54 68  1  0  0  0  0
 57 65  1  0  0  0  0
 58 66  1  0  0  0  0
 59 66  1  0  0  0  0
 60 66  1  0  0  0  0
 61 77  1  0  0  0  0
 62 75  1  0  0  0  0
 63 76  1  0  0  0  0
 64 66  1  0  0  0  0
 64 74  1  0  0  0  0
 65 77  1  0  0  0  0
 67 68  1  0  0  0  0
M  CHG  2  76   1  77   1
M  ISO  4  40 100  52 101  75 100  84 101
M  END
> <Batch ID>
0031

> <Smiles>
C=C1N(Cc2cc(C[100NH:0][100C:0](=O)N3CCCC(n4nc(-c5ccc(Oc6ccc(F)cc6F)cc5)c(C(N)=O)c4N)C3)c(C)cc2C)C[101CH:1]1[101O:1]c1ccc2c(c1)CN(C(=O)C(NC(=O)C(C)NC)C(C)(C)C)C(C(=O)NC1CCCc3ccccc31)C2

> <Shape>
0.187

> <Color>
0.187

> <Negative vol penalty>
0.000

$$$$

  -OEChem-04042321393D

 84 92  0     1  0  0  0  0  0999 V2000
  -28.5036  -18.6203   17.9843 C   0  0  0  0  0  0  0  0  0  0  0  0
  -27.4638  -19.5244   17.7919 C   0  0  0  0  0  0  0  0  0  0  0  0
  -25.7127  -16.3372   19.9722 C   0  0  0  0  0  0  0  0  0  0  0  0
  -25.9113  -16.6376   22.3612 C   0  0  0  0  0  0  0  0  0  0  0  0
  -29.4379  -18.8392   18.9957 C   0  0  0  0  0  0  0  0  0  0  0  0
  -27.3571  -20.6473   18.6116 C   0  0  0  0  0  0  0  0  0  0  0  0
  -25.2391  -27.4889   18.4603 C   0  0  0  0  0  0  0  0  0  0  0  0
  -18.3388  -29.0555   22.2544 C   0  0  0  0  0  0  0  0  0  0  0  0
  -26.9500  -15.6936   19.9503 C   0  0  0  0  0  0  0  0  0  0  0  0
  -27.1486  -15.9940   22.3393 C   0  0  0  0  0  0  0  0  0  0  0  0
  -24.4076  -28.3744   19.1447 C   0  0  0  0  0  0  0  0  0  0  0  0
  -28.1778  -12.6304   20.6866 C   0  0  0  0  0  0  0  0  0  0  0  0
  -28.2838  -11.4544   19.9440 C   0  0  0  0  0  0  0  0  0  0  0  0
  -17.3421  -28.1562   21.8757 C   0  0  0  0  0  0  0  0  0  0  0  0
  -26.1250  -28.6913   20.8088 C   0  0  0  0  0  0  0  0  0  0  0  0
  -29.9962  -12.4721   18.5768 C   0  0  0  0  0  0  0  0  0  0  0  0
  -25.1933  -16.8093   21.1777 C   0  0  0  0  0  0  0  0  0  0  0  0
  -22.6515  -16.8818   21.3807 C   0  0  0  0  0  0  0  0  0  0  0  0
  -29.3482  -19.9705   19.8221 C   0  0  0  0  0  0  0  0  0  0  0  0
  -26.5178  -27.1891   18.9517 C   0  0  0  0  0  0  0  0  0  0  0  0
  -28.2903  -20.8809   19.6360 C   0  0  0  0  0  0  0  0  0  0  0  0
  -26.9717  -27.8037   20.1274 C   0  0  0  0  0  0  0  0  0  0  0  0
  -19.4664  -28.6000   22.9376 C   0  0  0  0  0  0  0  0  0  0  0  0
  -18.6005  -26.3457   22.8636 C   0  0  0  0  0  0  0  0  0  0  0  0
  -27.6679  -15.5220   21.1338 C   0  0  0  0  0  0  0  0  0  0  0  0
  -24.8494  -28.9735   20.3207 C   0  0  0  0  0  0  0  0  0  0  0  0
  -28.9810  -13.7273   20.3742 C   0  0  0  0  0  0  0  0  0  0  0  0
  -29.1929  -11.3752   18.8891 C   0  0  0  0  0  0  0  0  0  0  0  0
  -29.8902  -13.6481   19.3193 C   0  0  0  0  0  0  0  0  0  0  0  0
  -17.4729  -26.8013   22.1804 C   0  0  0  0  0  0  0  0  0  0  0  0
  -19.5972  -27.2451   23.2422 C   0  0  0  0  0  0  0  0  0  0  0  0
  -23.9155  -17.4747   21.2009 C   0  0  0  0  0  0  0  0  0  0  0  0
  -21.7682  -17.9320   21.3229 C   0  0  0  0  0  0  0  0  0  0  0  0
  -22.3065  -15.5047   21.5821 C   0  0  0  0  0  0  0  0  0  0  0  0
  -27.9714  -24.5479   19.9589 C   0  0  0  0  0  0  0  0  0  0  0  0
  -30.5644  -26.4924   20.0906 C   0  0  0  0  0  0  0  0  0  0  0  0
  -31.7973  -29.6631   20.3613 C   0  0  0  0  0  0  0  0  0  0  0  0
  -20.2802  -22.9832   22.8120 C   0  0  0  0  0  0  0  0  0  0  0  0
  -30.3544  -20.1399   20.9327 C   0  0  0  0  0  0  0  0  0  0  0  0
  -27.4127  -26.2524   18.1874 C   0  0  0  0  0  0  0  0  0  0  0  0
  -28.3436  -27.5310   20.6861 C   0  0  0  0  0  0  0  0  0  0  0  0
  -30.3861  -21.5501   21.5161 C   0  0  0  0  0  0  0  0  0  0  0  0
  -22.4609  -22.7467   19.9335 C   0  0  0  0  0  0  0  0  0  0  0  0
  -28.9697  -22.0482   21.7857 C   0  0  0  0  0  0  0  0  0  0  0  0
  -22.9301  -21.2936   20.0260 C   0  0  0  0  0  0  0  0  0  0  0  0
  -22.3313  -23.3749   21.3179 C   0  0  0  0  0  0  0  0  0  0  0  0
  -21.9104  -21.1754   22.3468 C   0  0  0  0  0  0  0  0  0  0  0  0
  -28.1552  -22.1237   20.4887 C   0  0  1  0  0  0  0  0  0  0  0  0
  -28.5000  -25.6246   19.0540 C   0  0  1  0  0  0  0  0  0  0  0  0
  -22.0395  -20.4769   20.9809 C   0  0  2  0  0  0  0  0  0  0  0  0
  -33.9585  -30.9330   20.4780 C   0  0  0  0  0  0  0  0  0  0  0  0
  -30.9258  -25.6063   22.9879 C   0  0  0  0  0  0  0  0  0  0  0  0
  -32.4533  -27.5616   23.3222 C   0  0  0  0  0  0  0  0  0  0  0  0
  -33.0491  -25.7825   21.6783 C   0  0  0  0  0  0  0  0  0  0  0  0
  -31.1794  -31.1701   17.8903 C   0  0  0  0  0  0  0  0  0  0  0  0
  -18.7362  -24.8889   23.1883 C   0  0  0  0  0  0  0  0  0  0  0  0
  -20.5119  -29.6041   23.3243 C   0  0  0  0  0  0  0  0  0  0  0  0
  -22.8861  -30.3274   23.0434 C   0  0  0  0  0  0  0  0  0  0  0  0
  -24.1972  -29.9094   22.4075 C   0  0  0  0  0  0  0  0  0  1  0  0
  -31.1746  -27.3911   21.1389 C   0  0  1  0  0  0  0  0  0  0  0  0
  -32.8613  -30.4012   19.5692 C   0  0  2  0  0  0  0  0  0  0  0  0
  -31.8741  -26.5892   22.2726 C   0  0  0  0  0  0  0  0  0  0  0  0
  -23.8459  -18.7989   21.0406 N   0  0  0  0  0  0  0  0  0  0  0  0
  -22.5273  -19.0467   21.1195 N   0  0  0  0  0  0  0  0  0  0  0  0
  -29.1790  -26.6031   19.9059 N   0  0  0  0  0  0  0  0  0  0  0  0
  -21.4561  -22.5589   22.1713 N   0  0  0  0  0  0  0  0  0  0  0  0
  -20.4240  -18.0015   21.4265 N   0  0  0  0  0  0  0  0  0  0  0  0
  -23.3373  -14.5557   21.6150 N   0  0  0  0  0  0  0  0  0  0  0  0
  -28.5207  -23.3007   19.7301 N   0  0  0  0  0  0  0  0  0  0  0  0
  -32.0553  -28.3101   20.4261 N   0  0  0  0  0  0  0  0  0  0  0  0
  -19.9234  -24.3094   22.6002 N   0  0  0  0  0  0  0  0  0  0  0  0
  -32.2582  -31.5512   18.8379 N   0  3  0  0  0  0  0  0  0  0  0  0
  -21.8444  -29.3178   22.7273 N   0  3  0  0  0  0  0  0  0  0  0  0
  -21.1180  -15.1251   21.7121 O   0  0  0  0  0  0  0  0  0  0  0  0
  -27.1286  -24.8281   20.8033 O   0  0  0  0  0  0  0  0  0  0  0  0
  -31.2913  -25.7256   19.4539 O   0  0  0  0  0  0  0  0  0  0  0  0
  -30.8355  -30.2305   20.8747 O   0  0  0  0  0  0  0  0  0  0  0  0
  -19.5953  -22.2339   23.5167 O   0  0  0  0  0  0  0  0  0  0  0  0
  -28.8752  -14.8938   21.1129 O   0  0  0  0  0  0  0  0  0  0  0  0
  -24.0396  -29.8377   20.9910 O   0  0  0  0  0  0  0  0  0  1  0  0
  -29.2957  -10.2453   18.1771 F   0  0  0  0  0  0  0  0  0  0  0  0
  -30.6653  -14.6981   19.0153 F   0  0  0  0  0  0  0  0  0  0  0  0
  -16.2146  -25.7237   21.6925 Cl  0  0  0  0  0  0  0  0  0  0  0  0
  -21.0003  -26.6858   24.0912 Cl  0  0  0  0  0  0  0  0  0  0  0  0
  1  2  1  0  0  0  0
  1  5  2  0  0  0  0
  2  6  2  0  0  0  0
  3  9  2  0  0  0  0
  3 17  1  0  0  0  0
  4 10  1  0  0  0  0
  4 17  2  0  0  0  0
  5 19  1  0  0  0  0
  6 21  1  0  0  0  0
  7 11  2  0  0  0  0
  7 20  1  0  0  0  0
  8 14  2  0  0  0  0
  8 23  1  0  0  0  0
  9 25  1  0  0  0  0
 10 25  2  0  0  0  0
 11 26  1  0  0  0  0
 12 13  2  0  0  0  0
 12 27  1  0  0  0  0
 13 28  1  0  0  0  0
 14 30  1  0  0  0  0
 15 22  1  0  0  0  0
 15 26  2  0  0  0  0
 16 28  2  0  0  0  0
 16 29  1  0  0  0  0
 17 32  1  0  0  0  0
 18 32  1  0  0  0  0
 18 33  2  0  0  0  0
 18 34  1  0  0  0  0
 19 21  2  0  0  0  0
 19 39  1  0  0  0  0
 20 22  2  0  0  0  0
 20 40  1  0  0  0  0
 21 48  1  0  0  0  0
 22 41  1  0  0  0  0
 23 31  2  0  0  0  0
 23 57  1  0  0  0  0
 24 30  2  0  0  0  0
 24 31  1  0  0  0  0
 24 56  1  0  0  0  0
 25 79  1  0  0  0  0
 26 80  1  0  0  0  0
 27 29  2  0  0  0  0
 27 79  1  0  0  0  0
 28 81  1  0  0  0  0
 29 82  1  0  0  0  0
 30 83  1  0  0  0  0
 31 84  1  0  0  0  0
 32 63  2  0  0  0  0
 33 64  1  0  0  0  0
 33 67  1  0  0  0  0
 34 68  1  0  0  0  0
 34 74  2  0  0  0  0
 35 49  1  0  0  0  0
 35 69  1  0  0  0  0
 35 75  2  0  0  0  0
 36 60  1  0  0  0  0
 36 65  1  0  0  0  0
 36 76  2  0  0  0  0
 37 61  1  0  0  0  0
 37 70  1  0  0  0  0
 37 77  2  0  0  0  0
 38 66  1  0  0  0  0
 38 71  1  0  0  0  0
 38 78  2  0  0  0  0
 39 42  1  0  0  0  0
 40 49  1  0  0  0  0
 41 65  1  0  0  0  0
 42 44  1  0  0  0  0
 43 45  1  0  0  0  0
 43 46  1  0  0  0  0
 44 48  1  0  0  0  0
 45 50  1  0  0  0  0
 46 66  1  0  0  0  0
 47 50  1  0  0  0  0
 47 66  1  0  0  0  0
 48 69  1  0  0  0  0
 49 65  1  0  0  0  0
 50 64  1  0  0  0  0
 51 61  1  0  0  0  0
 52 62  1  0  0  0  0
 53 62  1  0  0  0  0
 54 62  1  0  0  0  0
 55 72  1  0  0  0  0
 56 71  1  0  0  0  0
 57 73  1  0  0  0  0
 58 59  1  0  0  0  0
 58 73  1  0  0  0  0
 59 80  1  0  0  0  0
 60 62  1  0  0  0  0
 60 70  1  0  0  0  0
 61 72  1  0  0  0  0
 63 64  1  0  0  0  0
M  CHG  2  72   1  73   1
M  ISO  4  38 100  59 101  71 100  80 101
M  END
> <Batch ID>
0031

> <Smiles>
CNC(C)C(=O)NC(C(=O)N1Cc2cc([101O:1][101CH2:1]CNCc3ccc(Cl)c(C[100NH:0][100C:0](=O)N4CCCC(n5nc(-c6ccc(Oc7ccc(F)cc7F)cc6)c(C(N)=O)c5N)C4)c3Cl)ccc2CC1C(=O)NC1CCCc2ccccc21)C(C)(C)C

> <Shape>
0.251

> <Color>
0.068

> <Negative vol penalty>
0.000

$$$$

  -OEChem-04042321393D

 83 91  0     1  0  0  0  0  0999 V2000
  -15.9344  -28.2316   24.6647 C   0  0  0  0  0  0  0  0  0  0  0  0
  -15.8531  -26.8531   24.4966 C   0  0  0  0  0  0  0  0  0  0  0  0
  -29.9017  -22.9653   20.9667 C   0  0  0  0  0  0  0  0  0  0  0  0
  -30.0594  -22.2415   18.6671 C   0  0  0  0  0  0  0  0  0  0  0  0
  -17.0099  -28.9363   24.1255 C   0  0  0  0  0  0  0  0  0  0  0  0
  -16.8467  -26.1784   23.7880 C   0  0  0  0  0  0  0  0  0  0  0  0
  -20.2795  -19.8938   23.5987 C   0  0  0  0  0  0  0  0  0  0  0  0
  -26.0908  -11.9365   21.2384 C   0  0  0  0  0  0  0  0  0  0  0  0
  -24.7981  -11.9584   21.7618 C   0  0  0  0  0  0  0  0  0  0  0  0
  -30.4670  -24.1922   20.6194 C   0  0  0  0  0  0  0  0  0  0  0  0
  -30.6247  -23.4685   18.3197 C   0  0  0  0  0  0  0  0  0  0  0  0
  -20.6052  -18.8708   22.7092 C   0  0  0  0  0  0  0  0  0  0  0  0
  -31.5360  -27.6494   20.2730 C   0  0  0  0  0  0  0  0  0  0  0  0
  -30.9465  -28.8040   20.7878 C   0  0  0  0  0  0  0  0  0  0  0  0
  -22.4576  -20.1811   21.8901 C   0  0  0  0  0  0  0  0  0  0  0  0
  -25.3997  -13.4290   19.4688 C   0  0  0  0  0  0  0  0  0  0  0  0
  -28.8715  -28.2345   19.6890 C   0  0  0  0  0  0  0  0  0  0  0  0
  -29.6980  -21.9899   19.9906 C   0  0  0  0  0  0  0  0  0  0  0  0
  -27.7471  -20.3883   20.3600 C   0  0  0  0  0  0  0  0  0  0  0  0
  -18.0222  -28.2686   23.4182 C   0  0  0  0  0  0  0  0  0  0  0  0
  -21.0350  -21.0746   23.6330 C   0  0  0  0  0  0  0  0  0  0  0  0
  -17.9360  -26.8750   23.2376 C   0  0  0  0  0  0  0  0  0  0  0  0
  -22.1409  -21.2165   22.7827 C   0  0  0  0  0  0  0  0  0  0  0  0
  -26.3917  -12.6719   20.0919 C   0  0  0  0  0  0  0  0  0  0  0  0
  -23.8061  -12.7156   21.1387 C   0  0  0  0  0  0  0  0  0  0  0  0
  -24.1069  -13.4509   19.9922 C   0  0  0  0  0  0  0  0  0  0  0  0
  -30.8284  -24.4439   19.2959 C   0  0  0  0  0  0  0  0  0  0  0  0
  -21.6927  -19.0156   21.8527 C   0  0  0  0  0  0  0  0  0  0  0  0
  -30.7933  -26.7874   19.4661 C   0  0  0  0  0  0  0  0  0  0  0  0
  -29.6143  -29.0965   20.4958 C   0  0  0  0  0  0  0  0  0  0  0  0
  -29.4611  -27.0799   19.1742 C   0  0  0  0  0  0  0  0  0  0  0  0
  -29.1146  -20.7221   20.3489 C   0  0  0  0  0  0  0  0  0  0  0  0
  -27.7168  -19.0777   20.7695 C   0  0  0  0  0  0  0  0  0  0  0  0
  -26.6061  -21.1912   20.0295 C   0  0  0  0  0  0  0  0  0  0  0  0
  -20.4227  -24.1460   23.0896 C   0  0  0  0  0  0  0  0  0  0  0  0
  -23.4663  -24.5371   24.1414 C   0  0  0  0  0  0  0  0  0  0  0  0
  -26.5629  -23.1844   24.6188 C   0  0  0  0  0  0  0  0  0  0  0  0
  -29.6879  -13.8614   20.5434 C   0  0  0  0  0  0  0  0  0  0  0  0
  -19.1407  -29.0793   22.8130 C   0  0  0  0  0  0  0  0  0  0  0  0
  -20.6868  -22.1577   24.6170 C   0  0  0  0  0  0  0  0  0  0  0  0
  -22.9963  -22.4561   22.7944 C   0  0  0  0  0  0  0  0  0  0  0  0
  -20.3456  -28.2394   22.3970 C   0  0  0  0  0  0  0  0  0  0  0  0
  -31.3589  -16.1473   22.7020 C   0  0  0  0  0  0  0  0  0  0  0  0
  -19.8939  -27.0029   21.6265 C   0  0  0  0  0  0  0  0  0  0  0  0
  -30.8160  -17.5134   22.2789 C   0  0  0  0  0  0  0  0  0  0  0  0
  -31.5276  -15.2122   21.5065 C   0  0  0  0  0  0  0  0  0  0  0  0
  -29.7777  -16.4117   20.2524 C   0  0  0  0  0  0  0  0  0  0  0  0
  -19.0069  -26.1042   22.4965 C   0  0  1  0  0  0  0  0  0  0  0  0
  -21.2148  -23.5292   24.2076 C   0  0  1  0  0  0  0  0  0  0  0  0
  -29.5378  -17.3707   21.4309 C   0  0  2  0  0  0  0  0  0  0  0  0
  -22.4290  -12.7226   21.7168 C   0  0  0  0  0  0  0  0  0  0  0  0
  -28.8551  -23.7597   25.4628 C   0  0  0  0  0  0  0  0  0  0  0  0
  -24.0254  -26.0761   21.5668 C   0  0  0  0  0  0  0  0  0  0  0  0
  -26.4729  -25.7939   22.0119 C   0  0  0  0  0  0  0  0  0  0  0  0
  -25.0535  -27.0682   23.6194 C   0  0  0  0  0  0  0  0  0  0  0  0
  -26.4201  -21.1339   26.7481 C   0  0  0  0  0  0  0  0  0  0  0  0
  -27.7737  -12.6479   19.5323 C   0  0  0  0  0  0  0  0  0  0  0  0
  -23.0563  -14.2723   19.3047 C   0  0  0  0  0  0  0  0  0  0  0  0
  -21.4768  -16.1965   19.5085 C   0  0  0  0  0  0  0  0  0  0  0  0
  -20.9418  -17.2052   20.5057 C   0  0  0  0  0  0  0  0  0  1  0  0
  -24.8284  -24.5532   23.4908 C   0  0  1  0  0  0  0  0  0  0  0  0
  -27.4907  -23.1910   25.8203 C   0  0  2  0  0  0  0  0  0  0  0  0
  -25.0780  -25.8502   22.6704 C   0  0  0  0  0  0  0  0  0  0  0  0
  -29.8965  -19.7054   20.7220 N   0  0  0  0  0  0  0  0  0  0  0  0
  -29.0174  -18.7201   20.9713 N   0  0  0  0  0  0  0  0  0  0  0  0
  -22.6116  -23.4895   23.7700 N   0  0  0  0  0  0  0  0  0  0  0  0
  -30.2794  -15.1194   20.7454 N   0  0  0  0  0  0  0  0  0  0  0  0
  -26.7048  -18.2077   20.9731 N   0  0  0  0  0  0  0  0  0  0  0  0
  -26.8162  -22.5173   19.6273 N   0  0  0  0  0  0  0  0  0  0  0  0
  -19.8152  -25.3414   23.4235 N   0  0  0  0  0  0  0  0  0  0  0  0
  -25.7944  -24.3278   24.5606 N   0  0  0  0  0  0  0  0  0  0  0  0
  -28.5034  -13.8633   19.8170 N   0  0  0  0  0  0  0  0  0  0  0  0
  -27.6795  -21.8058   26.3366 N   0  3  0  0  0  0  0  0  0  0  0  0
  -22.4771  -15.3279   20.1788 N   0  3  0  0  0  0  0  0  0  0  0  0
  -25.4339  -20.7509   20.1048 O   0  0  0  0  0  0  0  0  0  0  0  0
  -20.3681  -23.5801   22.0040 O   0  0  0  0  0  0  0  0  0  0  0  0
  -23.1740  -25.4173   24.9547 O   0  0  0  0  0  0  0  0  0  0  0  0
  -26.5265  -22.2593   23.8105 O   0  0  0  0  0  0  0  0  0  0  0  0
  -30.1763  -12.8148   20.9828 O   0  0  0  0  0  0  0  0  0  0  0  0
  -31.3798  -25.6411   18.9565 O   0  0  0  0  0  0  0  0  0  0  0  0
  -22.0124  -18.0189   20.9831 O   0  0  0  0  0  0  0  0  0  1  0  0
  -29.0478  -30.2045   20.9914 F   0  0  0  0  0  0  0  0  0  0  0  0
  -28.7422  -26.2549   18.4006 F   0  0  0  0  0  0  0  0  0  0  0  0
  1  2  1  0  0  0  0
  1  5  2  0  0  0  0
  2  6  2  0  0  0  0
  3 10  2  0  0  0  0
  3 18  1  0  0  0  0
  4 11  1  0  0  0  0
  4 18  2  0  0  0  0
  5 20  1  0  0  0  0
  6 22  1  0  0  0  0
  7 12  2  0  0  0  0
  7 21  1  0  0  0  0
  8  9  2  0  0  0  0
  8 24  1  0  0  0  0
  9 25  1  0  0  0  0
 10 27  1  0  0  0  0
 11 27  2  0  0  0  0
 12 28  1  0  0  0  0
 13 14  2  0  0  0  0
 13 29  1  0  0  0  0
 14 30  1  0  0  0  0
 15 23  1  0  0  0  0
 15 28  2  0  0  0  0
 16 24  2  0  0  0  0
 16 26  1  0  0  0  0
 17 30  2  0  0  0  0
 17 31  1  0  0  0  0
 18 32  1  0  0  0  0
 19 32  1  0  0  0  0
 19 33  2  0  0  0  0
 19 34  1  0  0  0  0
 20 22  2  0  0  0  0
 20 39  1  0  0  0  0
 21 23  2  0  0  0  0
 21 40  1  0  0  0  0
 22 48  1  0  0  0  0
 23 41  1  0  0  0  0
 24 57  1  0  0  0  0
 25 26  2  0  0  0  0
 25 51  1  0  0  0  0
 26 58  1  0  0  0  0
 27 80  1  0  0  0  0
 28 81  1  0  0  0  0
 29 31  2  0  0  0  0
 29 80  1  0  0  0  0
 30 82  1  0  0  0  0
 31 83  1  0  0  0  0
 32 64  2  0  0  0  0
 33 65  1  0  0  0  0
 33 68  1  0  0  0  0
 34 69  1  0  0  0  0
 34 75  2  0  0  0  0
 35 49  1  0  0  0  0
 35 70  1  0  0  0  0
 35 76  2  0  0  0  0
 36 61  1  0  0  0  0
 36 66  1  0  0  0  0
 36 77  2  0  0  0  0
 37 62  1  0  0  0  0
 37 71  1  0  0  0  0
 37 78  2  0  0  0  0
 38 67  1  0  0  0  0
 38 72  1  0  0  0  0
 38 79  2  0  0  0  0
 39 42  1  0  0  0  0
 40 49  1  0  0  0  0
 41 66  1  0  0  0  0
 42 44  1  0  0  0  0
 43 45  1  0  0  0  0
 43 46  1  0  0  0  0
 44 48  1  0  0  0  0
 45 50  1  0  0  0  0
 46 67  1  0  0  0  0
 47 50  1  0  0  0  0
 47 67  1  0  0  0  0
 48 70  1  0  0  0  0
 49 66  1  0  0  0  0
 50 65  1  0  0  0  0
 52 62  1  0  0  0  0
 53 63  1  0  0  0  0
 54 63  1  0  0  0  0
 55 63  1  0  0  0  0
 56 73  1  0  0  0  0
 57 72  1  0  0  0  0
 58 74  1  0  0  0  0
 59 60  1  0  0  0  0
 59 74  1  0  0  0  0
 60 81  1  0  0  0  0
 61 63  1  0  0  0  0
 61 71  1  0  0  0  0
 62 73  1  0  0  0  0
 64 65  1  0  0  0  0
M  CHG  2  73   1  74   1
M  ISO  4  38 100  60 101  72 100  81 101
M  END
> <Batch ID>
0031

> <Smiles>
CNC(C)C(=O)NC(C(=O)N1Cc2cc([101O:1][101CH2:1]CNCc3cc(C[100NH:0][100C:0](=O)N4CCCC(n5nc(-c6ccc(Oc7ccc(F)cc7F)cc6)c(C(N)=O)c5N)C4)ccc3C)ccc2CC1C(=O)NC1CCCc2ccccc21)C(C)(C)C

> <Shape>
0.238

> <Color>
0.049

> <Negative vol penalty>
0.000

$$$$

  -OEChem-04042321393D

 86 95  0     1  0  0  0  0  0999 V2000
  -32.5494  -31.7751   21.9128 C   0  0  0  0  0  0  0  0  0  0  0  0
  -31.7962  -30.6132   21.7782 C   0  0  0  0  0  0  0  0  0  0  0  0
  -23.5705   -9.0770   21.0257 C   0  0  0  0  0  0  0  0  0  0  0  0
  -23.4571  -11.3106   21.9396 C   0  0  0  0  0  0  0  0  0  0  0  0
  -32.0940  -32.8090   22.7298 C   0  0  0  0  0  0  0  0  0  0  0  0
  -30.5875  -30.4842   22.4615 C   0  0  0  0  0  0  0  0  0  0  0  0
  -26.8987  -28.6040   19.5456 C   0  0  0  0  0  0  0  0  0  0  0  0
  -29.4797  -19.3555   21.7285 C   0  0  0  0  0  0  0  0  0  0  0  0
  -29.5865  -18.0703   21.1970 C   0  0  0  0  0  0  0  0  0  0  0  0
  -22.7216   -8.6213   22.0342 C   0  0  0  0  0  0  0  0  0  0  0  0
  -22.6081  -10.8549   22.9481 C   0  0  0  0  0  0  0  0  0  0  0  0
  -26.9072  -27.2289   19.3156 C   0  0  0  0  0  0  0  0  0  0  0  0
  -19.4085   -8.6616   22.7086 C   0  0  0  0  0  0  0  0  0  0  0  0
  -18.3620   -7.8156   22.3417 C   0  0  0  0  0  0  0  0  0  0  0  0
  -25.2110  -26.9417   21.0067 C   0  0  0  0  0  0  0  0  0  0  0  0
  -27.2547  -18.1364   20.5684 C   0  0  0  0  0  0  0  0  0  0  0  0
  -19.2457   -6.0949   23.7893 C   0  0  0  0  0  0  0  0  0  0  0  0
  -23.9384  -10.4217   20.9784 C   0  0  0  0  0  0  0  0  0  0  0  0
  -24.5906  -10.8432   18.5485 C   0  0  0  0  0  0  0  0  0  0  0  0
  -30.8744  -32.6965   23.4158 C   0  0  0  0  0  0  0  0  0  0  0  0
  -26.0527  -29.1580   20.5171 C   0  0  0  0  0  0  0  0  0  0  0  0
  -30.1159  -31.5171   23.2895 C   0  0  0  0  0  0  0  0  0  0  0  0
  -25.1918  -28.3244   21.2453 C   0  0  0  0  0  0  0  0  0  0  0  0
  -28.2603  -20.0311   21.6801 C   0  0  0  0  0  0  0  0  0  0  0  0
  -28.4741  -17.4608   20.6169 C   0  0  0  0  0  0  0  0  0  0  0  0
  -22.2403   -9.5101   22.9954 C   0  0  0  0  0  0  0  0  0  0  0  0
  -26.0654  -26.3972   20.0483 C   0  0  0  0  0  0  0  0  0  0  0  0
  -20.3737   -8.2243   23.6157 C   0  0  0  0  0  0  0  0  0  0  0  0
  -18.2806   -6.5322   22.8821 C   0  0  0  0  0  0  0  0  0  0  0  0
  -20.2923   -6.9410   24.1560 C   0  0  0  0  0  0  0  0  0  0  0  0
  -27.1478  -19.4216   21.1000 C   0  0  0  0  0  0  0  0  0  0  0  0
  -24.8158  -10.8931   19.9372 C   0  0  0  0  0  0  0  0  0  0  0  0
  -25.7128  -11.4126   17.9980 C   0  0  0  0  0  0  0  0  0  0  0  0
  -27.1051  -23.3504   21.1469 C   0  0  0  0  0  0  0  0  0  0  0  0
  -23.4675  -10.3284   17.8211 C   0  0  0  0  0  0  0  0  0  0  0  0
  -26.4943  -30.7890   23.2094 C   0  0  0  0  0  0  0  0  0  0  0  0
  -23.2604  -31.0317   23.1344 C   0  0  0  0  0  0  0  0  0  0  0  0
  -20.4749  -28.8727   22.3616 C   0  0  0  0  0  0  0  0  0  0  0  0
  -29.7180  -15.3458   20.0459 C   0  0  0  0  0  0  0  0  0  0  0  0
  -30.4462  -33.8215   24.3246 C   0  0  0  0  0  0  0  0  0  0  0  0
  -26.0361  -30.6462   20.7344 C   0  0  0  0  0  0  0  0  0  0  0  0
  -24.2500  -28.8718   22.2854 C   0  0  0  0  0  0  0  0  0  0  0  0
  -28.9730  -33.7584   24.7194 C   0  0  0  0  0  0  0  0  0  0  0  0
  -28.9969  -22.8495   18.9353 C   0  0  0  0  0  0  0  0  0  0  0  0
  -30.3818  -12.0610   18.8432 C   0  0  0  0  0  0  0  0  0  0  0  0
  -28.5948  -32.3437   25.1465 C   0  0  0  0  0  0  0  0  0  0  0  0
  -27.7186  -23.6658   18.7535 C   0  0  0  0  0  0  0  0  0  0  0  0
  -29.0083  -11.3861   18.8551 C   0  0  0  0  0  0  0  0  0  0  0  0
  -29.3457  -22.5981   20.3996 C   0  0  0  0  0  0  0  0  0  0  0  0
  -30.5589  -13.0075   20.0292 C   0  0  0  0  0  0  0  0  0  0  0  0
  -28.1231  -13.3339   20.2004 C   0  0  0  0  0  0  0  0  0  0  0  0
  -28.7876  -31.3497   23.9949 C   0  0  1  0  0  0  0  0  0  0  0  0
  -27.2962  -24.3729   20.0349 C   0  0  1  0  0  0  0  0  0  1  0  0
  -25.5045  -31.0437   22.1079 C   0  0  1  0  0  0  0  0  0  0  0  0
  -27.8734  -12.4203   18.9893 C   0  0  2  0  0  0  0  0  0  0  0  0
  -18.1731  -29.4163   21.5228 C   0  0  0  0  0  0  0  0  0  0  0  0
  -22.4934  -31.0083   26.0875 C   0  0  0  0  0  0  0  0  0  0  0  0
  -20.3328  -29.9181   25.4460 C   0  0  0  0  0  0  0  0  0  0  0  0
  -20.8758  -32.2007   24.5990 C   0  0  0  0  0  0  0  0  0  0  0  0
  -20.7655  -27.0578   20.0420 C   0  0  0  0  0  0  0  0  0  0  0  0
  -28.1872  -21.4128   22.2630 C   0  0  0  0  0  0  0  0  0  0  0  0
  -22.1137  -30.2046   23.6635 C   0  0  1  0  0  0  0  0  0  0  0  0
  -19.5718  -28.9550   21.1442 C   0  0  2  0  0  0  0  0  0  0  0  0
  -21.4788  -30.8211   24.9419 C   0  0  0  0  0  0  0  0  0  0  0  0
  -25.9889  -11.4500   20.2497 N   0  0  0  0  0  0  0  0  0  0  0  0
  -26.5110  -11.7553   19.0496 N   0  0  0  0  0  0  0  0  0  0  0  0
  -28.1594  -22.4371   21.2325 N   0  0  0  0  0  0  0  0  0  0  0  0
  -24.2753  -30.3327   22.4657 N   0  0  0  0  0  0  0  0  0  0  0  0
  -29.4493  -13.9614   20.0901 N   0  0  0  0  0  0  0  0  0  0  0  0
  -26.0848  -11.6486   16.7220 N   0  0  0  0  0  0  0  0  0  0  0  0
  -22.3994   -9.7780   18.5428 N   0  0  0  0  0  0  0  0  0  0  0  0
  -28.5826  -16.1548   20.0780 N   0  0  0  0  0  0  0  0  0  0  0  0
  -27.6959  -31.4525   23.0504 N   0  0  0  0  0  0  0  0  0  0  0  0
  -21.1819  -30.0410   22.5529 N   0  0  0  0  0  0  0  0  0  0  0  0
  -19.4652  -27.6215   20.4874 N   0  3  0  0  0  0  0  0  0  0  0  0
  -26.1198  -23.3629   21.8826 O   0  0  0  0  0  0  0  0  0  0  0  0
  -23.4198  -10.3406   16.5676 O   0  0  0  0  0  0  0  0  0  0  0  0
  -26.1898  -30.0467   24.1356 O   0  0  0  0  0  0  0  0  0  0  0  0
  -23.2524  -32.2538   23.3018 O   0  0  0  0  0  0  0  0  0  0  0  0
  -20.5433  -27.8736   23.0740 O   0  0  0  0  0  0  0  0  0  0  0  0
  -30.8689  -15.7810   19.9567 O   0  0  0  0  0  0  0  0  0  0  0  0
  -21.4116   -9.0658   23.9794 O   0  0  0  0  0  0  0  0  0  0  0  0
  -26.0722  -25.0546   19.8263 O   0  0  0  0  0  0  0  0  0  1  0  0
  -17.2747   -5.7204   22.5310 F   0  0  0  0  0  0  0  0  0  0  0  0
  -21.2159   -6.5157   25.0289 F   0  0  0  0  0  0  0  0  0  0  0  0
  -25.6228  -20.2266   21.0226 Cl  0  0  0  0  0  0  0  0  0  0  0  0
  1  2  1  0  0  0  0
  1  5  2  0  0  0  0
  2  6  2  0  0  0  0
  3 10  2  0  0  0  0
  3 18  1  0  0  0  0
  4 11  1  0  0  0  0
  4 18  2  0  0  0  0
  5 20  1  0  0  0  0
  6 22  1  0  0  0  0
  7 12  2  0  0  0  0
  7 21  1  0  0  0  0
  8  9  2  0  0  0  0
  8 24  1  0  0  0  0
  9 25  1  0  0  0  0
 10 26  1  0  0  0  0
 11 26  2  0  0  0  0
 12 27  1  0  0  0  0
 13 14  2  0  0  0  0
 13 28  1  0  0  0  0
 14 29  1  0  0  0  0
 15 23  1  0  0  0  0
 15 27  2  0  0  0  0
 16 25  2  0  0  0  0
 16 31  1  0  0  0  0
 17 29  2  0  0  0  0
 17 30  1  0  0  0  0
 18 32  1  0  0  0  0
 19 32  1  0  0  0  0
 19 33  2  0  0  0  0
 19 35  1  0  0  0  0
 20 22  2  0  0  0  0
 20 40  1  0  0  0  0
 21 23  2  0  0  0  0
 21 41  1  0  0  0  0
 22 52  1  0  0  0  0
 23 42  1  0  0  0  0
 24 31  2  0  0  0  0
 24 61  1  0  0  0  0
 25 72  1  0  0  0  0
 26 82  1  0  0  0  0
 27 83  1  0  0  0  0
 28 30  2  0  0  0  0
 28 82  1  0  0  0  0
 29 84  1  0  0  0  0
 30 85  1  0  0  0  0
 31 86  1  0  0  0  0
 32 65  2  0  0  0  0
 33 66  1  0  0  0  0
 33 70  1  0  0  0  0
 34 53  1  0  0  0  0
 34 67  1  0  0  0  0
 34 76  2  0  0  0  0
 35 71  1  0  0  0  0
 35 77  2  0  0  0  0
 36 54  1  0  0  0  0
 36 73  1  0  0  0  0
 36 78  2  0  0  0  0
 37 62  1  0  0  0  0
 37 68  1  0  0  0  0
 37 79  2  0  0  0  0
 38 63  1  0  0  0  0
 38 74  1  0  0  0  0
 38 80  2  0  0  0  0
 39 69  1  0  0  0  0
 39 72  1  0  0  0  0
 39 81  2  0  0  0  0
 40 43  1  0  0  0  0
 41 54  1  0  0  0  0
 42 68  1  0  0  0  0
 43 46  1  0  0  0  0
 44 47  1  0  0  0  0
 44 49  1  0  0  0  0
 45 48  1  0  0  0  0
 45 50  1  0  0  0  0
 46 52  1  0  0  0  0
 47 53  1  0  0  0  0
 48 55  1  0  0  0  0
 49 67  1  0  0  0  0
 50 69  1  0  0  0  0
 51 55  1  0  0  0  0
 51 69  1  0  0  0  0
 52 73  1  0  0  0  0
 53 83  1  0  0  0  0
 54 68  1  0  0  0  0
 55 66  1  0  0  0  0
 56 63  1  0  0  0  0
 57 64  1  0  0  0  0
 58 64  1  0  0  0  0
 59 64  1  0  0  0  0
 60 75  1  0  0  0  0
 61 67  1  0  0  0  0
 62 64  1  0  0  0  0
 62 74  1  0  0  0  0
 63 75  1  0  0  0  0
 65 66  1  0  0  0  0
M  CHG  1  75   1
M  ISO  4  39 100  53 101  72 100  83 101
M  END
> <Batch ID>
0031

> <Smiles>
CNC(C)C(=O)NC(C(=O)N1Cc2cc([101O:1][101CH:1]3CCCN(Cc4ccc([100NH:0][100C:0](=O)N5CCCC(n6nc(-c7ccc(Oc8ccc(F)cc8F)cc7)c(C(N)=O)c6N)C5)cc4Cl)C3=O)ccc2CC1C(=O)NC1CCCc2ccccc21)C(C)(C)C

> <Shape>
0.270

> <Color>
0.095

> <Negative vol penalty>
0.000

$$$$

  -OEChem-04042321393D

 86 95  0     1  0  0  0  0  0999 V2000
  -20.7693  -34.6126   22.6887 C   0  0  0  0  0  0  0  0  0  0  0  0
  -21.9714  -34.0476   22.2748 C   0  0  0  0  0  0  0  0  0  0  0  0
  -22.8112  -10.3206   20.0560 C   0  0  0  0  0  0  0  0  0  0  0  0
  -24.2887   -9.7081   21.8668 C   0  0  0  0  0  0  0  0  0  0  0  0
  -19.8749  -33.8639   23.4525 C   0  0  0  0  0  0  0  0  0  0  0  0
  -22.2801  -32.7338   22.6255 C   0  0  0  0  0  0  0  0  0  0  0  0
  -25.3790  -28.6579   19.2655 C   0  0  0  0  0  0  0  0  0  0  0  0
  -21.7077  -10.0291   20.8578 C   0  0  0  0  0  0  0  0  0  0  0  0
  -23.1851   -9.4167   22.6687 C   0  0  0  0  0  0  0  0  0  0  0  0
  -26.7111  -28.2465   19.2833 C   0  0  0  0  0  0  0  0  0  0  0  0
  -20.7629   -8.1680   25.0735 C   0  0  0  0  0  0  0  0  0  0  0  0
  -20.7943   -6.9873   25.8155 C   0  0  0  0  0  0  0  0  0  0  0  0
  -26.1065  -26.3694   20.6726 C   0  0  0  0  0  0  0  0  0  0  0  0
  -31.2556  -20.1514   20.3237 C   0  0  0  0  0  0  0  0  0  0  0  0
  -28.7959  -18.8355   20.3543 C   0  0  0  0  0  0  0  0  0  0  0  0
  -20.9974   -5.7102   23.7747 C   0  0  0  0  0  0  0  0  0  0  0  0
  -24.1017  -10.1600   20.5605 C   0  0  0  0  0  0  0  0  0  0  0  0
  -25.5823   -9.8618   18.5047 C   0  0  0  0  0  0  0  0  0  0  0  0
  -20.1686  -32.5371   23.8045 C   0  0  0  0  0  0  0  0  0  0  0  0
  -24.4009  -27.9330   19.9613 C   0  0  0  0  0  0  0  0  0  0  0  0
  -21.3894  -31.9671   23.3959 C   0  0  0  0  0  0  0  0  0  0  0  0
  -24.7624  -26.7722   20.6599 C   0  0  0  0  0  0  0  0  0  0  0  0
  -30.1010  -20.8398   20.6959 C   0  0  0  0  0  0  0  0  0  0  0  0
  -31.1804  -18.8050   19.9667 C   0  0  0  0  0  0  0  0  0  0  0  0
  -28.8712  -20.1819   20.7112 C   0  0  0  0  0  0  0  0  0  0  0  0
  -29.9506  -18.1471   19.9821 C   0  0  0  0  0  0  0  0  0  0  0  0
  -21.8946   -9.5772   22.1641 C   0  0  0  0  0  0  0  0  0  0  0  0
  -27.0754  -27.1038   19.9893 C   0  0  0  0  0  0  0  0  0  0  0  0
  -20.8486   -8.1198   23.6821 C   0  0  0  0  0  0  0  0  0  0  0  0
  -20.9116   -5.7584   25.1661 C   0  0  0  0  0  0  0  0  0  0  0  0
  -20.9659   -6.8909   23.0327 C   0  0  0  0  0  0  0  0  0  0  0  0
  -25.2421  -10.4604   19.7326 C   0  0  0  0  0  0  0  0  0  0  0  0
  -26.7422  -10.4921   18.1252 C   0  0  0  0  0  0  0  0  0  0  0  0
  -24.9101   -8.8285   17.7725 C   0  0  0  0  0  0  0  0  0  0  0  0
  -22.4205  -28.5722   22.3640 C   0  0  0  0  0  0  0  0  0  0  0  0
  -21.2601  -25.6215   21.6790 C   0  0  0  0  0  0  0  0  0  0  0  0
  -22.6190  -22.3929   20.8146 C   0  0  0  0  0  0  0  0  0  0  0  0
  -28.7052  -15.9842   19.5879 C   0  0  0  0  0  0  0  0  0  0  0  0
  -19.1917  -31.7829   24.6714 C   0  0  0  0  0  0  0  0  0  0  0  0
  -22.9640  -28.3749   19.9101 C   0  0  0  0  0  0  0  0  0  0  0  0
  -23.7471  -25.9474   21.4064 C   0  0  0  0  0  0  0  0  0  0  0  0
  -19.4269  -30.2746   24.6839 C   0  0  0  0  0  0  0  0  0  0  0  0
  -30.2131  -12.6428   20.7217 C   0  0  0  0  0  0  0  0  0  0  0  0
  -30.0598  -24.2084   17.7712 C   0  0  0  0  0  0  0  0  0  0  0  0
  -20.9075  -29.9669   24.8835 C   0  0  0  0  0  0  0  0  0  0  0  0
  -29.4286  -11.6919   19.8207 C   0  0  0  0  0  0  0  0  0  0  0  0
  -29.5993  -25.5617   18.2965 C   0  0  0  0  0  0  0  0  0  0  0  0
  -30.2737  -14.0561   20.1561 C   0  0  0  0  0  0  0  0  0  0  0  0
  -27.8190  -13.6764   19.8620 C   0  0  0  0  0  0  0  0  0  0  0  0
  -30.6759  -23.3576   18.8726 C   0  0  0  0  0  0  0  0  0  0  0  0
  -29.2791  -24.5468   20.5828 C   0  0  0  0  0  0  0  0  0  0  0  0
  -21.7491  -30.5368   23.7352 C   0  0  1  0  0  0  0  0  0  0  0  0
  -22.1353  -27.8492   21.0781 C   0  0  1  0  0  0  0  0  0  0  0  0
  -28.1918  -12.3514   19.1789 C   0  0  2  0  0  0  0  0  0  0  0  0
  -28.6598  -25.4059   19.4883 C   0  0  1  0  0  0  0  0  0  1  0  0
  -32.4333  -18.0925   19.5724 C   0  0  0  0  0  0  0  0  0  0  0  0
  -27.6217  -20.8984   21.1060 C   0  0  0  0  0  0  0  0  0  0  0  0
  -21.6213  -20.5013   19.5016 C   0  0  0  0  0  0  0  0  0  0  0  0
  -20.4054  -24.5603   24.4090 C   0  0  0  0  0  0  0  0  0  0  0  0
  -20.9252  -22.2500   23.5961 C   0  0  0  0  0  0  0  0  0  0  0  0
  -19.1487  -23.5948   22.4743 C   0  0  0  0  0  0  0  0  0  0  0  0
  -24.9036  -22.3399   18.9341 C   0  0  0  0  0  0  0  0  0  0  0  0
  -30.2065  -22.2875   21.0753 C   0  0  0  0  0  0  0  0  0  0  0  0
  -21.5754  -24.2168   22.1333 C   0  0  1  0  0  0  0  0  0  0  0  0
  -22.5453  -21.7086   19.4616 C   0  0  2  0  0  0  0  0  0  0  0  0
  -20.5336  -23.6758   23.1527 C   0  0  0  0  0  0  0  0  0  0  0  0
  -26.1152  -11.3987   20.1083 N   0  0  0  0  0  0  0  0  0  0  0  0
  -27.0156  -11.3945   19.1106 N   0  0  0  0  0  0  0  0  0  0  0  0
  -22.3561  -26.4240   21.3315 N   0  0  0  0  0  0  0  0  0  0  0  0
  -28.9477  -14.6142   19.8534 N   0  0  0  0  0  0  0  0  0  0  0  0
  -27.5446  -10.3569   17.0481 N   0  0  0  0  0  0  0  0  0  0  0  0
  -25.2555   -7.4947   18.0294 N   0  0  0  0  0  0  0  0  0  0  0  0
  -29.8537  -16.7794   19.6230 N   0  0  0  0  0  0  0  0  0  0  0  0
  -21.6403  -29.6953   22.5629 N   0  0  0  0  0  0  0  0  0  0  0  0
  -21.6983  -23.4138   20.9214 N   0  0  0  0  0  0  0  0  0  0  0  0
  -29.6918  -23.2151   20.0093 N   0  3  2  0  0  0  0  0  0  0  0  0
  -23.8988  -21.2507   19.0383 N   0  3  0  0  0  0  0  0  0  0  0  0
  -24.0408   -9.0813   16.9042 O   0  0  0  0  0  0  0  0  0  0  0  0
  -23.2833  -28.1421   23.1204 O   0  0  0  0  0  0  0  0  0  0  0  0
  -20.0843  -25.9908   21.6273 O   0  0  0  0  0  0  0  0  0  0  0  0
  -23.4113  -22.0532   21.6906 O   0  0  0  0  0  0  0  0  0  0  0  0
  -27.5736  -16.4054   19.3388 O   0  0  0  0  0  0  0  0  0  0  0  0
  -20.8180   -9.2929   22.9469 O   0  0  0  0  0  0  0  0  0  0  0  0
  -28.3750  -26.7005   20.0089 O   0  0  0  0  0  0  0  0  0  1  0  0
  -20.9434   -4.6248   25.8789 F   0  0  0  0  0  0  0  0  0  0  0  0
  -21.0499   -6.8384   21.6963 F   0  0  0  0  0  0  0  0  0  0  0  0
  1  2  1  0  0  0  0
  1  5  2  0  0  0  0
  2  6  2  0  0  0  0
  3  8  2  0  0  0  0
  3 17  1  0  0  0  0
  4  9  1  0  0  0  0
  4 17  2  0  0  0  0
  5 19  1  0  0  0  0
  6 21  1  0  0  0  0
  7 10  2  0  0  0  0
  7 20  1  0  0  0  0
  8 27  1  0  0  0  0
  9 27  2  0  0  0  0
 10 28  1  0  0  0  0
 11 12  2  0  0  0  0
 11 29  1  0  0  0  0
 12 30  1  0  0  0  0
 13 22  1  0  0  0  0
 13 28  2  0  0  0  0
 14 23  1  0  0  0  0
 14 24  2  0  0  0  0
 15 25  1  0  0  0  0
 15 26  2  0  0  0  0
 16 30  2  0  0  0  0
 16 31  1  0  0  0  0
 17 32  1  0  0  0  0
 18 32  1  0  0  0  0
 18 33  2  0  0  0  0
 18 34  1  0  0  0  0
 19 21  2  0  0  0  0
 19 39  1  0  0  0  0
 20 22  2  0  0  0  0
 20 40  1  0  0  0  0
 21 52  1  0  0  0  0
 22 41  1  0  0  0  0
 23 25  2  0  0  0  0
 23 63  1  0  0  0  0
 24 26  1  0  0  0  0
 24 56  1  0  0  0  0
 25 57  1  0  0  0  0
 26 73  1  0  0  0  0
 27 83  1  0  0  0  0
 28 84  1  0  0  0  0
 29 31  2  0  0  0  0
 29 83  1  0  0  0  0
 30 85  1  0  0  0  0
 31 86  1  0  0  0  0
 32 67  2  0  0  0  0
 33 68  1  0  0  0  0
 33 71  1  0  0  0  0
 34 72  1  0  0  0  0
 34 78  2  0  0  0  0
 35 53  1  0  0  0  0
 35 74  1  0  0  0  0
 35 79  2  0  0  0  0
 36 64  1  0  0  0  0
 36 69  1  0  0  0  0
 36 80  2  0  0  0  0
 37 65  1  0  0  0  0
 37 75  1  0  0  0  0
 37 81  2  0  0  0  0
 38 70  1  0  0  0  0
 38 73  1  0  0  0  0
 38 82  2  0  0  0  0
 39 42  1  0  0  0  0
 40 53  1  0  0  0  0
 41 69  1  0  0  0  0
 42 45  1  0  0  0  0
 43 46  1  0  0  0  0
 43 48  1  0  0  0  0
 44 47  1  0  0  0  0
 44 50  1  0  0  0  0
 45 52  1  0  0  0  0
 46 54  1  0  0  0  0
 47 55  1  0  0  0  0
 48 70  1  0  0  0  0
 49 54  1  0  0  0  0
 49 70  1  0  0  0  0
 50 76  1  0  0  0  0
 51 55  1  0  0  0  0
 51 76  1  0  0  0  0
 52 74  1  0  0  0  0
 53 69  1  0  0  0  0
 54 68  1  0  0  0  0
 55 84  1  0  0  0  0
 58 65  1  0  0  0  0
 59 66  1  0  0  0  0
 60 66  1  0  0  0  0
 61 66  1  0  0  0  0
 62 77  1  0  0  0  0
 63 76  1  0  0  0  0
 64 66  1  0  0  0  0
 64 75  1  0  0  0  0
 65 77  1  0  0  0  0
 67 68  1  0  0  0  0
M  CHG  2  76   1  77   1
M  ISO  4  38 100  55 101  73 100  84 101
M  END
> <Batch ID>
0031

> <Smiles>
CNC(C)C(=O)NC(C(=O)N1Cc2cc([101O:1][101CH:1]3CCCN(Cc4cc(C)c([100NH:0][100C:0](=O)N5CCCC(n6nc(-c7ccc(Oc8ccc(F)cc8F)cc7)c(C(N)=O)c6N)C5)cc4C)C3)ccc2CC1C(=O)NC1CCCc2ccccc21)C(C)(C)C

> <Shape>
0.260

> <Color>
0.097

> <Negative vol penalty>
0.000

$$$$

  -OEChem-04042321393D

 85 94  0     1  0  0  0  0  0999 V2000
  -31.8848  -34.4161   21.8161 C   0  0  0  0  0  0  0  0  0  0  0  0
  -31.6816  -33.1011   21.4100 C   0  0  0  0  0  0  0  0  0  0  0  0
  -23.2744   -9.7396   19.9189 C   0  0  0  0  0  0  0  0  0  0  0  0
  -23.9070   -9.8888   22.2458 C   0  0  0  0  0  0  0  0  0  0  0  0
  -31.1218  -34.9498   22.8538 C   0  0  0  0  0  0  0  0  0  0  0  0
  -30.7159  -32.3187   22.0422 C   0  0  0  0  0  0  0  0  0  0  0  0
  -27.2006  -28.0157   19.4668 C   0  0  0  0  0  0  0  0  0  0  0  0
  -22.6088   -8.5412   20.1767 C   0  0  0  0  0  0  0  0  0  0  0  0
  -23.2413   -8.6904   22.5036 C   0  0  0  0  0  0  0  0  0  0  0  0
  -27.3028  -26.6261   19.4184 C   0  0  0  0  0  0  0  0  0  0  0  0
  -20.0562   -7.6632   22.9727 C   0  0  0  0  0  0  0  0  0  0  0  0
  -19.2426   -7.6059   24.1042 C   0  0  0  0  0  0  0  0  0  0  0  0
  -25.8113  -26.4566   21.3068 C   0  0  0  0  0  0  0  0  0  0  0  0
  -29.5732  -19.6315   20.2967 C   0  0  0  0  0  0  0  0  0  0  0  0
  -20.5876   -5.7999   24.9798 C   0  0  0  0  0  0  0  0  0  0  0  0
  -23.9235  -10.4134   20.9535 C   0  0  0  0  0  0  0  0  0  0  0  0
  -24.0766  -12.9517   20.7500 C   0  0  0  0  0  0  0  0  0  0  0  0
  -30.1396  -34.1765   23.4926 C   0  0  0  0  0  0  0  0  0  0  0  0
  -26.4102  -28.6376   20.4440 C   0  0  0  0  0  0  0  0  0  0  0  0
  -29.9400  -32.8421   23.0903 C   0  0  0  0  0  0  0  0  0  0  0  0
  -25.6987  -27.8542   21.3638 C   0  0  0  0  0  0  0  0  0  0  0  0
  -29.8935  -20.3508   21.4480 C   0  0  0  0  0  0  0  0  0  0  0  0
  -29.5166  -18.2384   20.3378 C   0  0  0  0  0  0  0  0  0  0  0  0
  -30.1574  -19.6769   22.6405 C   0  0  0  0  0  0  0  0  0  0  0  0
  -30.1008  -18.2838   22.6816 C   0  0  0  0  0  0  0  0  0  0  0  0
  -29.7805  -17.5645   21.5302 C   0  0  0  0  0  0  0  0  0  0  0  0
  -22.5922   -8.0166   21.4690 C   0  0  0  0  0  0  0  0  0  0  0  0
  -26.6105  -25.8465   20.3403 C   0  0  0  0  0  0  0  0  0  0  0  0
  -21.1354   -6.7888   22.8446 C   0  0  0  0  0  0  0  0  0  0  0  0
  -19.5083   -6.6743   25.1078 C   0  0  0  0  0  0  0  0  0  0  0  0
  -21.4011   -5.8572   23.8482 C   0  0  0  0  0  0  0  0  0  0  0  0
  -24.6117  -11.6511   20.6877 C   0  0  0  0  0  0  0  0  0  0  0  0
  -25.1260  -13.7712   20.4130 C   0  0  0  0  0  0  0  0  0  0  0  0
  -22.7496  -13.3806   21.0828 C   0  0  0  0  0  0  0  0  0  0  0  0
  -26.9744  -30.6526   22.8367 C   0  0  0  0  0  0  0  0  0  0  0  0
  -23.7399  -30.6536   23.0827 C   0  0  0  0  0  0  0  0  0  0  0  0
  -20.7895  -29.0407   22.4996 C   0  0  0  0  0  0  0  0  0  0  0  0
  -30.4785  -15.2494   20.8235 C   0  0  0  0  0  0  0  0  0  0  0  0
  -29.3722  -34.7821   24.6411 C   0  0  0  0  0  0  0  0  0  0  0  0
  -26.2892  -30.1367   20.4660 C   0  0  0  0  0  0  0  0  0  0  0  0
  -24.8206  -28.4723   22.4199 C   0  0  0  0  0  0  0  0  0  0  0  0
  -28.1110  -34.0044   25.0083 C   0  0  0  0  0  0  0  0  0  0  0  0
  -29.6816  -12.6718   18.5001 C   0  0  0  0  0  0  0  0  0  0  0  0
  -28.4094  -32.5106   25.0886 C   0  0  0  0  0  0  0  0  0  0  0  0
  -28.2475  -12.2834   18.8673 C   0  0  0  0  0  0  0  0  0  0  0  0
  -30.5105  -13.0150   19.7366 C   0  0  0  0  0  0  0  0  0  0  0  0
  -28.4820  -13.6363   20.9890 C   0  0  0  0  0  0  0  0  0  0  0  0
  -28.7297  -23.9444   21.7158 C   0  0  0  0  0  0  0  0  0  0  0  0
  -27.5449  -22.2957   21.2255 C   0  0  0  0  0  0  0  0  0  0  0  0
  -28.8849  -31.9695   23.7349 C   0  0  1  0  0  0  0  0  0  0  0  0
  -25.8632  -30.6819   21.8257 C   0  0  1  0  0  0  0  0  0  0  0  0
  -27.5901  -13.3448   19.7712 C   0  0  2  0  0  0  0  0  0  0  0  0
  -27.2245  -23.7858   21.4370 C   0  0  0  0  0  0  0  0  0  1  0  0
  -29.1694  -17.4959   19.0880 C   0  0  0  0  0  0  0  0  0  0  0  0
  -30.5008  -20.4514   23.8735 C   0  0  0  0  0  0  0  0  0  0  0  0
  -30.3851  -17.5654   23.9639 C   0  0  0  0  0  0  0  0  0  0  0  0
  -18.3151  -29.2729   22.8476 C   0  0  0  0  0  0  0  0  0  0  0  0
  -24.0886  -29.9307   26.0265 C   0  0  0  0  0  0  0  0  0  0  0  0
  -21.6783  -29.2551   26.0741 C   0  0  0  0  0  0  0  0  0  0  0  0
  -22.2997  -31.6181   25.5715 C   0  0  0  0  0  0  0  0  0  0  0  0
  -20.2580  -28.9899   19.5886 C   0  0  0  0  0  0  0  0  0  0  0  0
  -29.9461  -21.8485   21.3770 C   0  0  0  0  0  0  0  0  0  0  0  0
  -22.7248  -29.8288   23.8366 C   0  0  1  0  0  0  0  0  0  0  0  0
  -19.4796  -29.5215   21.9016 C   0  0  2  0  0  0  0  0  0  0  0  0
  -22.7158  -30.1463   25.3586 C   0  0  0  0  0  0  0  0  0  0  0  0
  -25.9009  -11.6401   20.3385 N   0  0  0  0  0  0  0  0  0  0  0  0
  -26.1845  -12.9439   20.1782 N   0  0  0  0  0  0  0  0  0  0  0  0
  -24.7397  -29.9423   22.4045 N   0  0  0  0  0  0  0  0  0  0  0  0
  -29.8277  -14.0295   20.5425 N   0  0  0  0  0  0  0  0  0  0  0  0
  -25.2372  -15.1116   20.2976 N   0  0  0  0  0  0  0  0  0  0  0  0
  -21.7937  -12.4073   21.4043 N   0  0  0  0  0  0  0  0  0  0  0  0
  -29.7190  -16.1495   21.5702 N   0  0  0  0  0  0  0  0  0  0  0  0
  -27.7618  -31.7882   22.8403 N   0  0  0  0  0  0  0  0  0  0  0  0
  -21.4448  -30.0501   23.1725 N   0  0  0  0  0  0  0  0  0  0  0  0
  -28.7777  -22.5001   22.0085 N   0  3  0  0  0  0  0  0  0  0  0  0
  -19.2039  -28.8123   20.6202 N   0  3  0  0  0  0  0  0  0  0  0  0
  -22.4169  -14.5901   21.0788 O   0  0  0  0  0  0  0  0  0  0  0  0
  -27.1065  -29.6731   23.5610 O   0  0  0  0  0  0  0  0  0  0  0  0
  -23.6449  -31.8835   23.0894 O   0  0  0  0  0  0  0  0  0  0  0  0
  -21.1894  -27.8842   22.3846 O   0  0  0  0  0  0  0  0  0  0  0  0
  -31.6148  -15.4896   20.4075 O   0  0  0  0  0  0  0  0  0  0  0  0
  -21.9426   -6.8474   21.7210 O   0  0  0  0  0  0  0  0  0  0  0  0
  -26.7091  -24.4899   20.2957 O   0  0  0  0  0  0  0  0  0  1  0  0
  -18.7279   -6.6205   26.1951 F   0  0  0  0  0  0  0  0  0  0  0  0
  -22.4372   -5.0153   23.7313 F   0  0  0  0  0  0  0  0  0  0  0  0
  1  2  1  0  0  0  0
  1  5  2  0  0  0  0
  2  6  2  0  0  0  0
  3  8  2  0  0  0  0
  3 16  1  0  0  0  0
  4  9  1  0  0  0  0
  4 16  2  0  0  0  0
  5 18  1  0  0  0  0
  6 20  1  0  0  0  0
  7 10  2  0  0  0  0
  7 19  1  0  0  0  0
  8 27  1  0  0  0  0
  9 27  2  0  0  0  0
 10 28  1  0  0  0  0
 11 12  2  0  0  0  0
 11 29  1  0  0  0  0
 12 30  1  0  0  0  0
 13 21  1  0  0  0  0
 13 28  2  0  0  0  0
 14 22  1  0  0  0  0
 14 23  2  0  0  0  0
 15 30  2  0  0  0  0
 15 31  1  0  0  0  0
 16 32  1  0  0  0  0
 17 32  1  0  0  0  0
 17 33  2  0  0  0  0
 17 34  1  0  0  0  0
 18 20  2  0  0  0  0
 18 39  1  0  0  0  0
 19 21  2  0  0  0  0
 19 40  1  0  0  0  0
 20 50  1  0  0  0  0
 21 41  1  0  0  0  0
 22 24  2  0  0  0  0
 22 62  1  0  0  0  0
 23 26  1  0  0  0  0
 23 54  1  0  0  0  0
 24 25  1  0  0  0  0
 24 55  1  0  0  0  0
 25 26  2  0  0  0  0
 25 56  1  0  0  0  0
 26 72  1  0  0  0  0
 27 82  1  0  0  0  0
 28 83  1  0  0  0  0
 29 31  2  0  0  0  0
 29 82  1  0  0  0  0
 30 84  1  0  0  0  0
 31 85  1  0  0  0  0
 32 66  2  0  0  0  0
 33 67  1  0  0  0  0
 33 70  1  0  0  0  0
 34 71  1  0  0  0  0
 34 77  2  0  0  0  0
 35 51  1  0  0  0  0
 35 73  1  0  0  0  0
 35 78  2  0  0  0  0
 36 63  1  0  0  0  0
 36 68  1  0  0  0  0
 36 79  2  0  0  0  0
 37 64  1  0  0  0  0
 37 74  1  0  0  0  0
 37 80  2  0  0  0  0
 38 69  1  0  0  0  0
 38 72  1  0  0  0  0
 38 81  2  0  0  0  0
 39 42  1  0  0  0  0
 40 51  1  0  0  0  0
 41 68  1  0  0  0  0
 42 44  1  0  0  0  0
 43 45  1  0  0  0  0
 43 46  1  0  0  0  0
 44 50  1  0  0  0  0
 45 52  1  0  0  0  0
 46 69  1  0  0  0  0
 47 52  1  0  0  0  0
 47 69  1  0  0  0  0
 48 53  1  0  0  0  0
 48 75  1  0  0  0  0
 49 53  1  0  0  0  0
 49 75  1  0  0  0  0
 50 73  1  0  0  0  0
 51 68  1  0  0  0  0
 52 67  1  0  0  0  0
 53 83  1  0  0  0  0
 57 64  1  0  0  0  0
 58 65  1  0  0  0  0
 59 65  1  0  0  0  0
 60 65  1  0  0  0  0
 61 76  1  0  0  0  0
 62 75  1  0  0  0  0
 63 65  1  0  0  0  0
 63 74  1  0  0  0  0
 64 76  1  0  0  0  0
 66 67  1  0  0  0  0
M  CHG  2  75   1  76   1
M  ISO  4  38 100  53 101  72 100  83 101
M  END
> <Batch ID>
0031

> <Smiles>
CNC(C)C(=O)NC(C(=O)N1Cc2cc([101O:1][101CH:1]3CN(Cc4cc(C)c([100NH:0][100C:0](=O)N5CCCC(n6nc(-c7ccc(Oc8ccc(F)cc8F)cc7)c(C(N)=O)c6N)C5)c(C)c4C)C3)ccc2CC1C(=O)NC1CCCc2ccccc21)C(C)(C)C

> <Shape>
0.347

> <Color>
0.206

> <Negative vol penalty>
0.000

$$$$

  -OEChem-04042321393D

 79 87  0     1  0  0  0  0  0999 V2000
  -26.2557  -33.1308   18.4077 C   0  0  0  0  0  0  0  0  0  0  0  0
  -26.8579  -31.9800   18.9060 C   0  0  0  0  0  0  0  0  0  0  0  0
  -23.1007   -9.8373   19.9341 C   0  0  0  0  0  0  0  0  0  0  0  0
  -23.8695   -9.8462   22.2244 C   0  0  0  0  0  0  0  0  0  0  0  0
  -25.3740  -33.0446   17.3311 C   0  0  0  0  0  0  0  0  0  0  0  0
  -26.5779  -30.7420   18.3287 C   0  0  0  0  0  0  0  0  0  0  0  0
  -30.4333  -26.0292   17.6725 C   0  0  0  0  0  0  0  0  0  0  0  0
  -29.1411  -18.7571   21.0185 C   0  0  0  0  0  0  0  0  0  0  0  0
  -31.3554  -18.5679   20.0707 C   0  0  0  0  0  0  0  0  0  0  0  0
  -28.8580  -19.8089   20.1472 C   0  0  0  0  0  0  0  0  0  0  0  0
  -31.0723  -19.6197   19.1994 C   0  0  0  0  0  0  0  0  0  0  0  0
  -22.3825   -8.6671   20.1797 C   0  0  0  0  0  0  0  0  0  0  0  0
  -23.1512   -8.6760   22.4701 C   0  0  0  0  0  0  0  0  0  0  0  0
  -30.6269  -24.8652   18.4152 C   0  0  0  0  0  0  0  0  0  0  0  0
  -19.9432   -7.8061   23.0802 C   0  0  0  0  0  0  0  0  0  0  0  0
  -19.1920   -7.7429   24.2538 C   0  0  0  0  0  0  0  0  0  0  0  0
  -29.1880  -23.6642   16.8965 C   0  0  0  0  0  0  0  0  0  0  0  0
  -20.4772   -5.8277   24.9732 C   0  0  0  0  0  0  0  0  0  0  0  0
  -23.8443  -10.4268   20.9564 C   0  0  0  0  0  0  0  0  0  0  0  0
  -24.1320  -12.9594   20.8509 C   0  0  0  0  0  0  0  0  0  0  0  0
  -25.0904  -31.8062   16.7341 C   0  0  0  0  0  0  0  0  0  0  0  0
  -29.6055  -26.0219   16.5406 C   0  0  0  0  0  0  0  0  0  0  0  0
  -25.6905  -30.6389   17.2439 C   0  0  0  0  0  0  0  0  0  0  0  0
  -28.9876  -24.8287   16.1397 C   0  0  0  0  0  0  0  0  0  0  0  0
  -30.3898  -18.1366   20.9803 C   0  0  0  0  0  0  0  0  0  0  0  0
  -29.8236  -20.2402   19.2377 C   0  0  0  0  0  0  0  0  0  0  0  0
  -22.4077   -8.0864   21.4477 C   0  0  0  0  0  0  0  0  0  0  0  0
  -30.0019  -23.6832   18.0289 C   0  0  0  0  0  0  0  0  0  0  0  0
  -20.9613   -6.8801   22.8531 C   0  0  0  0  0  0  0  0  0  0  0  0
  -19.4590   -6.7537   25.2003 C   0  0  0  0  0  0  0  0  0  0  0  0
  -21.2283   -5.8909   23.7996 C   0  0  0  0  0  0  0  0  0  0  0  0
  -24.5869  -11.6354   20.7032 C   0  0  0  0  0  0  0  0  0  0  0  0
  -25.2065  -13.7341   20.4881 C   0  0  0  0  0  0  0  0  0  0  0  0
  -22.8525  -13.4455   21.2780 C   0  0  0  0  0  0  0  0  0  0  0  0
  -26.9174  -27.5054   15.7179 C   0  0  0  0  0  0  0  0  0  0  0  0
  -27.4575  -26.0678   12.8607 C   0  0  0  0  0  0  0  0  0  0  0  0
  -28.9270  -23.5185   11.1320 C   0  0  0  0  0  0  0  0  0  0  0  0
  -30.6681  -14.8682   20.6614 C   0  0  0  0  0  0  0  0  0  0  0  0
  -24.0943  -31.7568   15.6028 C   0  0  0  0  0  0  0  0  0  0  0  0
  -29.4283  -27.2796   15.7349 C   0  0  0  0  0  0  0  0  0  0  0  0
  -28.1054  -24.7632   14.9207 C   0  0  0  0  0  0  0  0  0  0  0  0
  -24.1397  -30.4546   14.8075 C   0  0  0  0  0  0  0  0  0  0  0  0
  -29.5717  -12.4749   18.2642 C   0  0  0  0  0  0  0  0  0  0  0  0
  -24.1751  -29.2550   15.7492 C   0  0  0  0  0  0  0  0  0  0  0  0
  -28.1426  -12.1480   18.7009 C   0  0  0  0  0  0  0  0  0  0  0  0
  -30.4888  -12.7077   19.4629 C   0  0  0  0  0  0  0  0  0  0  0  0
  -28.5776  -13.3896   20.8614 C   0  0  0  0  0  0  0  0  0  0  0  0
  -25.4311  -29.2809   16.6286 C   0  0  1  0  0  0  0  0  0  0  0  0
  -28.1542  -27.2771   14.8958 C   0  0  1  0  0  0  0  0  0  0  0  0
  -27.6026  -13.2017   19.6865 C   0  0  2  0  0  0  0  0  0  0  0  0
  -29.1577  -22.5866    8.8134 C   0  0  0  0  0  0  0  0  0  0  0  0
  -24.6287  -24.9379   13.0360 C   0  0  0  0  0  0  0  0  0  0  0  0
  -25.2453  -23.3033   11.2426 C   0  0  0  0  0  0  0  0  0  0  0  0
  -25.2883  -25.7512   10.7649 C   0  0  0  0  0  0  0  0  0  0  0  0
  -31.8638  -23.8847   11.1519 C   0  0  0  0  0  0  0  0  0  0  0  0
  -30.6933  -17.0120   21.9115 C   0  0  0  0  0  0  0  0  0  0  0  0
  -29.5177  -21.3705   18.2996 C   0  0  0  0  0  0  0  0  0  1  0  0
  -27.0774  -24.7449   12.2408 C   0  0  1  0  0  0  0  0  0  0  0  0
  -29.7581  -23.5105    9.8616 C   0  0  2  0  0  0  0  0  0  0  0  0
  -25.5749  -24.6857   11.8452 C   0  0  0  0  0  0  0  0  0  0  0  0
  -25.8518  -11.5690   20.2794 N   0  0  0  0  0  0  0  0  0  0  0  0
  -26.2008  -12.8611   20.1576 N   0  0  0  0  0  0  0  0  0  0  0  0
  -27.9582  -26.0208   14.1695 N   0  0  0  0  0  0  0  0  0  0  0  0
  -29.9201  -13.7188   20.3574 N   0  0  0  0  0  0  0  0  0  0  0  0
  -25.3883  -15.0702   20.4226 N   0  0  0  0  0  0  0  0  0  0  0  0
  -21.8615  -12.5130   21.6135 N   0  0  0  0  0  0  0  0  0  0  0  0
  -26.5846  -28.8373   15.8756 N   0  0  0  0  0  0  0  0  0  0  0  0
  -27.9970  -24.5365   11.1275 N   0  0  0  0  0  0  0  0  0  0  0  0
  -30.0528  -15.7789   21.5116 N   0  0  0  0  0  0  0  0  0  0  0  0
  -31.1456  -23.0516   10.1533 N   0  3  0  0  0  0  0  0  0  0  0  0
  -22.5905  -14.6704   21.3440 O   0  0  0  0  0  0  0  0  0  0  0  0
  -26.3092  -26.5444   16.1741 O   0  0  0  0  0  0  0  0  0  0  0  0
  -27.3221  -27.1040   12.2052 O   0  0  0  0  0  0  0  0  0  0  0  0
  -29.0845  -22.7010   12.0361 O   0  0  0  0  0  0  0  0  0  0  0  0
  -31.7982  -15.0706   20.2045 O   0  0  0  0  0  0  0  0  0  0  0  0
  -21.7068   -6.9447   21.6878 O   0  0  0  0  0  0  0  0  0  0  0  0
  -30.1886  -22.5458   18.7524 O   0  0  0  0  0  0  0  0  0  1  0  0
  -18.7385   -6.6940   26.3279 F   0  0  0  0  0  0  0  0  0  0  0  0
  -22.2060   -4.9993   23.5875 F   0  0  0  0  0  0  0  0  0  0  0  0
  1  2  1  0  0  0  0
  1  5  2  0  0  0  0
  2  6  2  0  0  0  0
  3 12  2  0  0  0  0
  3 19  1  0  0  0  0
  4 13  1  0  0  0  0
  4 19  2  0  0  0  0
  5 21  1  0  0  0  0
  6 23  1  0  0  0  0
  7 14  2  0  0  0  0
  7 22  1  0  0  0  0
  8 10  2  0  0  0  0
  8 25  1  0  0  0  0
  9 11  1  0  0  0  0
  9 25  2  0  0  0  0
 10 26  1  0  0  0  0
 11 26  2  0  0  0  0
 12 27  1  0  0  0  0
 13 27  2  0  0  0  0
 14 28  1  0  0  0  0
 15 16  2  0  0  0  0
 15 29  1  0  0  0  0
 16 30  1  0  0  0  0
 17 24  1  0  0  0  0
 17 28  2  0  0  0  0
 18 30  2  0  0  0  0
 18 31  1  0  0  0  0
 19 32  1  0  0  0  0
 20 32  1  0  0  0  0
 20 33  2  0  0  0  0
 20 34  1  0  0  0  0
 21 23  2  0  0  0  0
 21 39  1  0  0  0  0
 22 24  2  0  0  0  0
 22 40  1  0  0  0  0
 23 48  1  0  0  0  0
 24 41  1  0  0  0  0
 25 56  1  0  0  0  0
 26 57  1  0  0  0  0
 27 76  1  0  0  0  0
 28 77  1  0  0  0  0
 29 31  2  0  0  0  0
 29 76  1  0  0  0  0
 30 78  1  0  0  0  0
 31 79  1  0  0  0  0
 32 61  2  0  0  0  0
 33 62  1  0  0  0  0
 33 65  1  0  0  0  0
 34 66  1  0  0  0  0
 34 71  2  0  0  0  0
 35 49  1  0  0  0  0
 35 67  1  0  0  0  0
 35 72  2  0  0  0  0
 36 58  1  0  0  0  0
 36 63  1  0  0  0  0
 36 73  2  0  0  0  0
 37 59  1  0  0  0  0
 37 68  1  0  0  0  0
 37 74  2  0  0  0  0
 38 64  1  0  0  0  0
 38 69  1  0  0  0  0
 38 75  2  0  0  0  0
 39 42  1  0  0  0  0
 40 49  1  0  0  0  0
 41 63  1  0  0  0  0
 42 44  1  0  0  0  0
 43 45  1  0  0  0  0
 43 46  1  0  0  0  0
 44 48  1  0  0  0  0
 45 50  1  0  0  0  0
 46 64  1  0  0  0  0
 47 50  1  0  0  0  0
 47 64  1  0  0  0  0
 48 67  1  0  0  0  0
 49 63  1  0  0  0  0
 50 62  1  0  0  0  0
 51 59  1  0  0  0  0
 52 60  1  0  0  0  0
 53 60  1  0  0  0  0
 54 60  1  0  0  0  0
 55 70  1  0  0  0  0
 56 69  1  0  0  0  0
 57 77  1  0  0  0  0
 58 60  1  0  0  0  0
 58 68  1  0  0  0  0
 59 70  1  0  0  0  0
 61 62  1  0  0  0  0
M  CHG  1  70   1
M  ISO  4  38 100  57 101  69 100  77 101
M  END
> <Batch ID>
0031

> <Smiles>
CNC(C)C(=O)NC(C(=O)N1Cc2cc([101O:1][101CH2:1]c3ccc(C[100NH:0][100C:0](=O)N4CCCC(n5nc(-c6ccc(Oc7ccc(F)cc7F)cc6)c(C(N)=O)c5N)C4)cc3)ccc2CC1C(=O)NC1CCCc2ccccc21)C(C)(C)C

> <Shape>
0.232

> <Color>
0.203

> <Negative vol penalty>
0.000

$$$$

  -OEChem-04042321393D

 86 95  0     1  0  0  0  0  0999 V2000
  -24.9877  -35.5062   22.4312 C   0  0  0  0  0  0  0  0  0  0  0  0
  -25.7186  -34.3394   22.2319 C   0  0  0  0  0  0  0  0  0  0  0  0
  -24.3438  -13.5752   20.1106 C   0  0  0  0  0  0  0  0  0  0  0  0
  -26.1691  -13.6274   21.6927 C   0  0  0  0  0  0  0  0  0  0  0  0
  -23.7556  -35.4531   23.0815 C   0  0  0  0  0  0  0  0  0  0  0  0
  -25.2183  -33.1189   22.6840 C   0  0  0  0  0  0  0  0  0  0  0  0
  -25.7152  -29.4257   19.2549 C   0  0  0  0  0  0  0  0  0  0  0  0
  -24.4272  -12.1838   20.0602 C   0  0  0  0  0  0  0  0  0  0  0  0
  -26.2525  -12.2359   21.6423 C   0  0  0  0  0  0  0  0  0  0  0  0
  -26.9773  -28.8495   19.1181 C   0  0  0  0  0  0  0  0  0  0  0  0
  -23.4518   -9.5596   21.9563 C   0  0  0  0  0  0  0  0  0  0  0  0
  -22.2612   -8.8361   22.0224 C   0  0  0  0  0  0  0  0  0  0  0  0
  -26.2676  -26.9870   20.4770 C   0  0  0  0  0  0  0  0  0  0  0  0
  -27.8724  -23.0107   23.6653 C   0  0  0  0  0  0  0  0  0  0  0  0
  -29.4621  -23.7375   21.9974 C   0  0  0  0  0  0  0  0  0  0  0  0
  -22.7287   -7.8689   19.8583 C   0  0  0  0  0  0  0  0  0  0  0  0
  -25.2148  -14.2971   20.9268 C   0  0  0  0  0  0  0  0  0  0  0  0
  -24.3469  -16.5084   21.8566 C   0  0  0  0  0  0  0  0  0  0  0  0
  -23.2354  -34.2300   23.5332 C   0  0  0  0  0  0  0  0  0  0  0  0
  -24.7215  -28.7912   20.0141 C   0  0  0  0  0  0  0  0  0  0  0  0
  -23.9787  -33.0495   23.3422 C   0  0  0  0  0  0  0  0  0  0  0  0
  -24.9929  -27.5560   20.6198 C   0  0  0  0  0  0  0  0  0  0  0  0
  -28.4333  -23.8961   24.5857 C   0  0  0  0  0  0  0  0  0  0  0  0
  -30.0229  -24.6230   22.9177 C   0  0  0  0  0  0  0  0  0  0  0  0
  -29.5085  -24.7023   24.2119 C   0  0  0  0  0  0  0  0  0  0  0  0
  -28.3868  -22.9314   22.3711 C   0  0  0  0  0  0  0  0  0  0  0  0
  -25.3815  -11.5141   20.8261 C   0  0  0  0  0  0  0  0  0  0  0  0
  -27.2546  -27.6313   19.7316 C   0  0  0  0  0  0  0  0  0  0  0  0
  -24.2809   -9.4379   20.8411 C   0  0  0  0  0  0  0  0  0  0  0  0
  -21.8996   -7.9907   20.9735 C   0  0  0  0  0  0  0  0  0  0  0  0
  -23.9194   -8.5925   19.7922 C   0  0  0  0  0  0  0  0  0  0  0  0
  -25.1295  -15.7345   20.9789 C   0  0  0  0  0  0  0  0  0  0  0  0
  -24.6175  -17.8077   21.5028 C   0  0  0  0  0  0  0  0  0  0  0  0
  -31.4352  -26.2922   20.1173 C   0  0  0  0  0  0  0  0  0  0  0  0
  -23.4552  -16.0902   22.8985 C   0  0  0  0  0  0  0  0  0  0  0  0
  -23.0810  -29.5362   22.6328 C   0  0  0  0  0  0  0  0  0  0  0  0
  -21.4837  -26.7993   21.9394 C   0  0  0  0  0  0  0  0  0  0  0  0
  -22.3186  -23.4801   20.7978 C   0  0  0  0  0  0  0  0  0  0  0  0
  -28.2071  -21.8306   20.1123 C   0  0  0  0  0  0  0  0  0  0  0  0
  -21.9211  -34.2289   24.2729 C   0  0  0  0  0  0  0  0  0  0  0  0
  -23.3568  -29.4128   20.1298 C   0  0  0  0  0  0  0  0  0  0  0  0
  -23.9543  -26.8243   21.4288 C   0  0  0  0  0  0  0  0  0  0  0  0
  -30.8566  -27.4303   19.3083 C   0  0  0  0  0  0  0  0  0  0  0  0
  -21.2883  -32.8445   24.3885 C   0  0  0  0  0  0  0  0  0  0  0  0
  -27.0826  -19.6870   17.5012 C   0  0  0  0  0  0  0  0  0  0  0  0
  -22.3277  -31.8174   24.8261 C   0  0  0  0  0  0  0  0  0  0  0  0
  -26.4099  -18.5313   18.2454 C   0  0  0  0  0  0  0  0  0  0  0  0
  -28.3169  -20.1971   18.2429 C   0  0  0  0  0  0  0  0  0  0  0  0
  -27.4198  -19.3982   20.3938 C   0  0  0  0  0  0  0  0  0  0  0  0
  -29.8873  -27.4143   21.5132 C   0  0  0  0  0  0  0  0  0  0  0  0
  -23.4580  -31.7031   23.7961 C   0  0  1  0  0  0  0  0  0  0  0  0
  -22.5818  -28.9297   21.3519 C   0  0  1  0  0  0  0  0  0  0  0  0
  -26.1344  -18.8936   19.7180 C   0  0  2  0  0  0  0  0  0  0  0  0
  -29.5973  -27.8175   20.0792 C   0  0  2  0  0  0  0  0  0  1  0  0
  -27.8645  -23.9615   25.9653 C   0  0  0  0  0  0  0  0  0  0  0  0
  -30.1095  -25.6521   25.1988 C   0  0  0  0  0  0  0  0  0  0  0  0
  -20.9606  -21.8077   19.5109 C   0  0  0  0  0  0  0  0  0  0  0  0
  -20.7623  -25.6996   24.6926 C   0  0  0  0  0  0  0  0  0  0  0  0
  -20.8946  -23.3926   23.7288 C   0  0  0  0  0  0  0  0  0  0  0  0
  -19.2106  -25.0126   22.8555 C   0  0  0  0  0  0  0  0  0  0  0  0
  -24.3861  -23.2475   18.6930 C   0  0  0  0  0  0  0  0  0  0  0  0
  -31.1795  -25.4795   22.4900 C   0  0  0  0  0  0  0  0  0  0  0  0
  -21.6541  -25.3424   22.2961 C   0  0  1  0  0  0  0  0  0  0  0  0
  -22.0267  -22.8892   19.4303 C   0  0  2  0  0  0  0  0  0  0  0  0
  -20.6527  -24.8794   23.3917 C   0  0  0  0  0  0  0  0  0  0  0  0
  -25.8436  -16.4799   20.1312 N   0  0  0  0  0  0  0  0  0  0  0  0
  -25.5106  -17.7358   20.4746 N   0  0  0  0  0  0  0  0  0  0  0  0
  -30.8371  -26.3331   21.3727 N   0  0  0  0  0  0  0  0  0  0  0  0
  -22.6371  -27.4759   21.5178 N   0  0  0  0  0  0  0  0  0  0  0  0
  -27.9790  -20.5245   19.6298 N   0  0  0  0  0  0  0  0  0  0  0  0
  -24.1761  -18.9932   21.9741 N   0  0  0  0  0  0  0  0  0  0  0  0
  -23.2938  -14.7172   23.1287 N   0  0  0  0  0  0  0  0  0  0  0  0
  -27.8166  -22.0328   21.4356 N   0  0  0  0  0  0  0  0  0  0  0  0
  -23.0284  -30.9167   22.6596 N   0  0  0  0  0  0  0  0  0  0  0  0
  -21.5542  -24.6011   21.0436 N   0  0  0  0  0  0  0  0  0  0  0  0
  -23.2618  -22.2894   18.8509 N   0  3  0  0  0  0  0  0  0  0  0  0
  -32.3017  -25.5284   19.7176 O   0  0  0  0  0  0  0  0  0  0  0  0
  -22.8077  -16.9095   23.5935 O   0  0  0  0  0  0  0  0  0  0  0  0
  -23.4827  -28.8056   23.5309 O   0  0  0  0  0  0  0  0  0  0  0  0
  -20.3669  -27.3162   22.0247 O   0  0  0  0  0  0  0  0  0  0  0  0
  -23.1397  -22.9937   21.5722 O   0  0  0  0  0  0  0  0  0  0  0  0
  -28.6864  -22.7128   19.3954 O   0  0  0  0  0  0  0  0  0  0  0  0
  -25.4630  -10.1564   20.7773 O   0  0  0  0  0  0  0  0  0  0  0  0
  -28.4859  -27.0670   19.6002 O   0  0  0  0  0  0  0  0  0  1  0  0
  -20.7570   -7.2947   21.0378 F   0  0  0  0  0  0  0  0  0  0  0  0
  -24.7124   -8.4706   18.7189 F   0  0  0  0  0  0  0  0  0  0  0  0
  1  2  1  0  0  0  0
  1  5  2  0  0  0  0
  2  6  2  0  0  0  0
  3  8  2  0  0  0  0
  3 17  1  0  0  0  0
  4  9  1  0  0  0  0
  4 17  2  0  0  0  0
  5 19  1  0  0  0  0
  6 21  1  0  0  0  0
  7 10  2  0  0  0  0
  7 20  1  0  0  0  0
  8 27  1  0  0  0  0
  9 27  2  0  0  0  0
 10 28  1  0  0  0  0
 11 12  2  0  0  0  0
 11 29  1  0  0  0  0
 12 30  1  0  0  0  0
 13 22  1  0  0  0  0
 13 28  2  0  0  0  0
 14 23  2  0  0  0  0
 14 26  1  0  0  0  0
 15 24  1  0  0  0  0
 15 26  2  0  0  0  0
 16 30  2  0  0  0  0
 16 31  1  0  0  0  0
 17 32  1  0  0  0  0
 18 32  1  0  0  0  0
 18 33  2  0  0  0  0
 18 35  1  0  0  0  0
 19 21  2  0  0  0  0
 19 40  1  0  0  0  0
 20 22  2  0  0  0  0
 20 41  1  0  0  0  0
 21 51  1  0  0  0  0
 22 42  1  0  0  0  0
 23 25  1  0  0  0  0
 23 55  1  0  0  0  0
 24 25  2  0  0  0  0
 24 62  1  0  0  0  0
 25 56  1  0  0  0  0
 26 73  1  0  0  0  0
 27 83  1  0  0  0  0
 28 84  1  0  0  0  0
 29 31  2  0  0  0  0
 29 83  1  0  0  0  0
 30 85  1  0  0  0  0
 31 86  1  0  0  0  0
 32 66  2  0  0  0  0
 33 67  1  0  0  0  0
 33 71  1  0  0  0  0
 34 43  1  0  0  0  0
 34 68  1  0  0  0  0
 34 77  2  0  0  0  0
 35 72  1  0  0  0  0
 35 78  2  0  0  0  0
 36 52  1  0  0  0  0
 36 74  1  0  0  0  0
 36 79  2  0  0  0  0
 37 63  1  0  0  0  0
 37 69  1  0  0  0  0
 37 80  2  0  0  0  0
 38 64  1  0  0  0  0
 38 75  1  0  0  0  0
 38 81  2  0  0  0  0
 39 70  1  0  0  0  0
 39 73  1  0  0  0  0
 39 82  2  0  0  0  0
 40 44  1  0  0  0  0
 41 52  1  0  0  0  0
 42 69  1  0  0  0  0
 43 54  1  0  0  0  0
 44 46  1  0  0  0  0
 45 47  1  0  0  0  0
 45 48  1  0  0  0  0
 46 51  1  0  0  0  0
 47 53  1  0  0  0  0
 48 70  1  0  0  0  0
 49 53  1  0  0  0  0
 49 70  1  0  0  0  0
 50 54  1  0  0  0  0
 50 68  1  0  0  0  0
 51 74  1  0  0  0  0
 52 69  1  0  0  0  0
 53 67  1  0  0  0  0
 54 84  1  0  0  0  0
 57 64  1  0  0  0  0
 58 65  1  0  0  0  0
 59 65  1  0  0  0  0
 60 65  1  0  0  0  0
 61 76  1  0  0  0  0
 62 68  1  0  0  0  0
 63 65  1  0  0  0  0
 63 75  1  0  0  0  0
 64 76  1  0  0  0  0
 66 67  1  0  0  0  0
M  CHG  1  76   1
M  ISO  4  39 100  54 101  73 100  84 101
M  END
> <Batch ID>
0031

> <Smiles>
CNC(C)C(=O)NC(C(=O)N1Cc2cc([101O:1][101CH:1]3CC(=O)N(Cc4cc([100NH:0][100C:0](=O)N5CCCC(n6nc(-c7ccc(Oc8ccc(F)cc8F)cc7)c(C(N)=O)c6N)C5)cc(C)c4C)C3)ccc2CC1C(=O)NC1CCCc2ccccc21)C(C)(C)C

> <Shape>
0.235

> <Color>
0.102

> <Negative vol penalty>
0.000

$$$$

  -OEChem-04042321393D

 92102  0     1  0  0  0  0  0999 V2000
  -16.5222  -29.7688   23.4432 C   0  0  0  0  0  0  0  0  0  0  0  0
  -17.5761  -30.6314   23.7225 C   0  0  0  0  0  0  0  0  0  0  0  0
  -20.1976  -26.9016   10.6520 C   0  0  0  0  0  0  0  0  0  0  0  0
  -21.5351  -27.1937   12.6427 C   0  0  0  0  0  0  0  0  0  0  0  0
  -16.7849  -28.4711   23.0093 C   0  0  0  0  0  0  0  0  0  0  0  0
  -18.8929  -30.2006   23.5565 C   0  0  0  0  0  0  0  0  0  0  0  0
  -27.0589  -29.4419   22.0930 C   0  0  0  0  0  0  0  0  0  0  0  0
  -19.5271  -28.0932   10.9276 C   0  0  0  0  0  0  0  0  0  0  0  0
  -20.8646  -28.3854   12.9183 C   0  0  0  0  0  0  0  0  0  0  0  0
  -27.8634  -28.4669   21.5049 C   0  0  0  0  0  0  0  0  0  0  0  0
  -17.0530  -29.1420   12.9778 C   0  0  0  0  0  0  0  0  0  0  0  0
  -15.6640  -29.1475   12.8507 C   0  0  0  0  0  0  0  0  0  0  0  0
  -26.4536  -20.1722   16.9198 C   0  0  0  0  0  0  0  0  0  0  0  0
  -26.1803  -28.1062   19.8148 C   0  0  0  0  0  0  0  0  0  0  0  0
  -15.8243  -30.8797   11.1741 C   0  0  0  0  0  0  0  0  0  0  0  0
  -21.2016  -26.4518   11.5096 C   0  0  0  0  0  0  0  0  0  0  0  0
  -22.6533  -24.9169   10.0797 C   0  0  0  0  0  0  0  0  0  0  0  0
  -18.1059  -28.0210   22.8501 C   0  0  0  0  0  0  0  0  0  0  0  0
  -25.8023  -29.7492   21.5518 C   0  0  0  0  0  0  0  0  0  0  0  0
  -19.1783  -28.9023   23.0965 C   0  0  0  0  0  0  0  0  0  0  0  0
  -27.5904  -20.0711   17.7217 C   0  0  0  0  0  0  0  0  0  0  0  0
  -25.3629  -29.0873   20.3964 C   0  0  0  0  0  0  0  0  0  0  0  0
  -28.4549  -21.1586   17.8464 C   0  0  0  0  0  0  0  0  0  0  0  0
  -28.1826  -22.3473   17.1693 C   0  0  0  0  0  0  0  0  0  0  0  0
  -26.1813  -21.3609   16.2426 C   0  0  0  0  0  0  0  0  0  0  0  0
  -19.8606  -28.8352   12.0607 C   0  0  0  0  0  0  0  0  0  0  0  0
  -27.4230  -27.7968   20.3673 C   0  0  0  0  0  0  0  0  0  0  0  0
  -17.8277  -30.0054   12.2031 C   0  0  0  0  0  0  0  0  0  0  0  0
  -15.0496  -30.0163   11.9489 C   0  0  0  0  0  0  0  0  0  0  0  0
  -17.2133  -30.8742   11.3012 C   0  0  0  0  0  0  0  0  0  0  0  0
  -27.0458  -22.4485   16.3673 C   0  0  0  0  0  0  0  0  0  0  0  0
  -21.8942  -25.2206   11.2258 C   0  0  0  0  0  0  0  0  0  0  0  0
  -23.0973  -23.6346   10.2918 C   0  0  0  0  0  0  0  0  0  0  0  0
  -29.9942  -24.3340   19.5329 C   0  0  0  0  0  0  0  0  0  0  0  0
  -22.9321  -25.7220    8.9266 C   0  0  0  0  0  0  0  0  0  0  0  0
  -22.8060  -29.5767   22.5990 C   0  0  0  0  0  0  0  0  0  0  0  0
  -22.1530  -31.0793   19.7994 C   0  0  0  0  0  0  0  0  0  0  0  0
  -23.2476  -30.8489   16.3692 C   0  0  0  0  0  0  0  0  0  0  0  0
  -24.0754  -20.4179   15.2315 C   0  0  0  0  0  0  0  0  0  0  0  0
  -18.3330  -26.6092   22.3702 C   0  0  0  0  0  0  0  0  0  0  0  0
  -24.9579  -30.8224   22.1825 C   0  0  0  0  0  0  0  0  0  0  0  0
  -24.0307  -29.3946   19.7646 C   0  0  0  0  0  0  0  0  0  0  0  0
  -29.3705  -24.9611   20.7586 C   0  0  0  0  0  0  0  0  0  0  0  0
  -19.7455  -26.1062   22.6496 C   0  0  0  0  0  0  0  0  0  0  0  0
  -27.4263  -16.3995   18.2416 C   0  0  0  0  0  0  0  0  0  0  0  0
  -26.2320  -17.0222   18.9421 C   0  0  0  0  0  0  0  0  0  0  0  0
  -21.8983  -19.5805   12.5416 C   0  0  0  0  0  0  0  0  0  0  0  0
  -28.0378  -17.5749   17.4944 C   0  0  0  0  0  0  0  0  0  0  0  0
  -26.7615  -18.3620   19.4404 C   0  0  0  0  0  0  0  0  0  0  0  0
  -20.7653  -27.1312   22.1762 C   0  0  0  0  0  0  0  0  0  0  0  0
  -21.7241  -20.9029   11.7911 C   0  0  0  0  0  0  0  0  0  0  0  0
  -21.9795  -19.7923   14.0523 C   0  0  0  0  0  0  0  0  0  0  0  0
  -22.8130  -22.0893   13.7388 C   0  0  0  0  0  0  0  0  0  0  0  0
  -27.6908  -24.6187   19.0666 C   0  0  0  0  0  0  0  0  0  0  0  0
  -27.8618  -18.7752   18.4418 C   0  0  0  0  0  0  0  0  0  0  0  0
  -20.6189  -28.4460   22.9526 C   0  0  1  0  0  0  0  0  0  0  0  0
  -23.4757  -30.6913   21.8462 C   0  0  1  0  0  0  0  0  0  0  0  0
  -22.7913  -21.9332   12.2095 C   0  0  2  0  0  0  0  0  0  0  0  0
  -28.0391  -25.5055   20.2478 C   0  0  2  0  0  0  0  0  0  1  0  0
  -29.3447  -21.1498   20.1905 C   0  0  0  0  0  0  0  0  0  0  0  0
  -23.3114  -32.5835   14.5570 C   0  0  0  0  0  0  0  0  0  0  0  0
  -19.4210  -29.9590   19.0305 C   0  0  0  0  0  0  0  0  0  0  0  0
  -20.0518  -30.2597   16.6264 C   0  0  0  0  0  0  0  0  0  0  0  0
  -19.9023  -32.2428   18.1323 C   0  0  0  0  0  0  0  0  0  0  0  0
  -26.1352  -30.4106   15.8913 C   0  0  0  0  0  0  0  0  0  0  0  0
  -29.6747  -21.0447   18.7058 C   0  0  0  0  0  0  0  0  0  0  0  0
  -29.1267  -23.5056   17.3155 C   0  0  0  0  0  0  0  0  0  0  0  0
  -21.8316  -30.6300   18.3945 C   0  0  1  0  0  0  0  0  0  0  0  0
  -24.1110  -31.8489   15.6217 C   0  0  2  0  0  0  0  0  0  0  0  0
  -20.3178  -30.7571   18.0633 C   0  0  0  0  0  0  0  0  0  0  0  0
  -21.8559  -24.2123   12.1009 N   0  0  0  0  0  0  0  0  0  0  0  0
  -22.5964  -23.2625   11.5046 N   0  0  0  0  0  0  0  0  0  0  0  0
  -28.9805  -24.1653   18.5951 N   0  0  0  0  0  0  0  0  0  0  0  0
  -23.2387  -30.4473   20.4219 N   0  0  0  0  0  0  0  0  0  0  0  0
  -23.0143  -20.7775   14.3740 N   0  0  0  0  0  0  0  0  0  0  0  0
  -23.8633  -22.8003    9.5573 N   0  0  0  0  0  0  0  0  0  0  0  0
  -24.0716  -26.5379    8.9411 N   0  0  0  0  0  0  0  0  0  0  0  0
  -25.0164  -21.4260   15.4386 N   0  0  0  0  0  0  0  0  0  0  0  0
  -21.4549  -29.4532   22.3372 N   0  0  0  0  0  0  0  0  0  0  0  0
  -22.7030  -31.3973   17.5111 N   0  0  0  0  0  0  0  0  0  0  0  0
  -25.2509  -31.1551   14.9582 N   0  3  0  0  0  0  0  0  0  0  0  0
  -31.1688  -24.0086   19.4426 O   0  0  0  0  0  0  0  0  0  0  0  0
  -22.1839  -25.7304    7.9199 O   0  0  0  0  0  0  0  0  0  0  0  0
  -23.4666  -28.8793   23.3599 O   0  0  0  0  0  0  0  0  0  0  0  0
  -21.4703  -31.9636   20.3225 O   0  0  0  0  0  0  0  0  0  0  0  0
  -23.0706  -29.6975   15.9772 O   0  0  0  0  0  0  0  0  0  0  0  0
  -24.1589  -19.2893   15.7228 O   0  0  0  0  0  0  0  0  0  0  0  0
  -19.2067  -29.9981   12.3298 O   0  0  0  0  0  0  0  0  0  0  0  0
  -28.2059  -26.8442   19.7917 O   0  0  0  0  0  0  0  0  0  1  0  0
  -13.7158  -30.0204   11.8259 F   0  0  0  0  0  0  0  0  0  0  0  0
  -17.9523  -31.7051   10.5534 F   0  0  0  0  0  0  0  0  0  0  0  0
  -26.7080  -23.9277   15.5271 Cl  0  0  0  0  0  0  0  0  0  0  0  0
  1  2  1  0  0  0  0
  1  5  2  0  0  0  0
  2  6  2  0  0  0  0
  3  8  2  0  0  0  0
  3 16  1  0  0  0  0
  4  9  1  0  0  0  0
  4 16  2  0  0  0  0
  5 18  1  0  0  0  0
  6 20  1  0  0  0  0
  7 10  2  0  0  0  0
  7 19  1  0  0  0  0
  8 26  1  0  0  0  0
  9 26  2  0  0  0  0
 10 27  1  0  0  0  0
 11 12  2  0  0  0  0
 11 28  1  0  0  0  0
 12 29  1  0  0  0  0
 13 21  2  0  0  0  0
 13 25  1  0  0  0  0
 14 22  1  0  0  0  0
 14 27  2  0  0  0  0
 15 29  2  0  0  0  0
 15 30  1  0  0  0  0
 16 32  1  0  0  0  0
 17 32  1  0  0  0  0
 17 33  2  0  0  0  0
 17 35  1  0  0  0  0
 18 20  2  0  0  0  0
 18 40  1  0  0  0  0
 19 22  2  0  0  0  0
 19 41  1  0  0  0  0
 20 56  1  0  0  0  0
 21 23  1  0  0  0  0
 21 55  1  0  0  0  0
 22 42  1  0  0  0  0
 23 24  2  0  0  0  0
 23 66  1  0  0  0  0
 24 31  1  0  0  0  0
 24 67  1  0  0  0  0
 25 31  2  0  0  0  0
 25 78  1  0  0  0  0
 26 88  1  0  0  0  0
 27 89  1  0  0  0  0
 28 30  2  0  0  0  0
 28 88  1  0  0  0  0
 29 90  1  0  0  0  0
 30 91  1  0  0  0  0
 31 92  1  0  0  0  0
 32 71  2  0  0  0  0
 33 72  1  0  0  0  0
 33 76  1  0  0  0  0
 34 43  1  0  0  0  0
 34 73  1  0  0  0  0
 34 82  2  0  0  0  0
 35 77  1  0  0  0  0
 35 83  2  0  0  0  0
 36 57  1  0  0  0  0
 36 79  1  0  0  0  0
 36 84  2  0  0  0  0
 37 68  1  0  0  0  0
 37 74  1  0  0  0  0
 37 85  2  0  0  0  0
 38 69  1  0  0  0  0
 38 80  1  0  0  0  0
 38 86  2  0  0  0  0
 39 75  1  0  0  0  0
 39 78  1  0  0  0  0
 39 87  2  0  0  0  0
 40 44  1  0  0  0  0
 41 57  1  0  0  0  0
 42 74  1  0  0  0  0
 43 59  1  0  0  0  0
 44 50  1  0  0  0  0
 45 46  1  0  0  0  0
 45 48  1  0  0  0  0
 46 49  1  0  0  0  0
 47 51  1  0  0  0  0
 47 52  1  0  0  0  0
 48 55  1  0  0  0  0
 49 55  1  0  0  0  0
 50 56  1  0  0  0  0
 51 58  1  0  0  0  0
 52 75  1  0  0  0  0
 53 58  1  0  0  0  0
 53 75  1  0  0  0  0
 54 59  1  0  0  0  0
 54 73  1  0  0  0  0
 56 79  1  0  0  0  0
 57 74  1  0  0  0  0
 58 72  1  0  0  0  0
 59 89  1  0  0  0  0
 60 66  1  0  0  0  0
 61 69  1  0  0  0  0
 62 70  1  0  0  0  0
 63 70  1  0  0  0  0
 64 70  1  0  0  0  0
 65 81  1  0  0  0  0
 67 73  1  0  0  0  0
 68 70  1  0  0  0  0
 68 80  1  0  0  0  0
 69 81  1  0  0  0  0
 71 72  1  0  0  0  0
M  CHG  1  81   1
M  ISO  4  39 100  59 101  78 100  89 101
M  END
> <Batch ID>
0031

> <Smiles>
CCc1c(C2CCCC2)cc([100NH:0][100C:0](=O)N2CCCC(n3nc(-c4ccc(Oc5ccc(F)cc5F)cc4)c(C(N)=O)c3N)C2)c(Cl)c1CN1C[101CH:1]([101O:1]c2ccc3c(c2)CN(C(=O)C(NC(=O)C(C)NC)C(C)(C)C)C(C(=O)NC2CCCc4ccccc42)C3)CC1=O

> <Shape>
0.179

> <Color>
0.119

> <Negative vol penalty>
0.000

$$$$

  -OEChem-04042321393D

 84 92  0     1  0  0  0  0  0999 V2000
  -28.5036  -18.6203   17.9843 C   0  0  0  0  0  0  0  0  0  0  0  0
  -27.4638  -19.5244   17.7919 C   0  0  0  0  0  0  0  0  0  0  0  0
  -25.7127  -16.3372   19.9722 C   0  0  0  0  0  0  0  0  0  0  0  0
  -25.9113  -16.6376   22.3612 C   0  0  0  0  0  0  0  0  0  0  0  0
  -29.4379  -18.8392   18.9957 C   0  0  0  0  0  0  0  0  0  0  0  0
  -27.3571  -20.6473   18.6116 C   0  0  0  0  0  0  0  0  0  0  0  0
  -25.2391  -27.4889   18.4603 C   0  0  0  0  0  0  0  0  0  0  0  0
  -18.3388  -29.0555   22.2544 C   0  0  0  0  0  0  0  0  0  0  0  0
  -26.9500  -15.6936   19.9503 C   0  0  0  0  0  0  0  0  0  0  0  0
  -27.1486  -15.9940   22.3393 C   0  0  0  0  0  0  0  0  0  0  0  0
  -24.4076  -28.3744   19.1447 C   0  0  0  0  0  0  0  0  0  0  0  0
  -28.1778  -12.6304   20.6866 C   0  0  0  0  0  0  0  0  0  0  0  0
  -28.2838  -11.4544   19.9440 C   0  0  0  0  0  0  0  0  0  0  0  0
  -17.3421  -28.1562   21.8757 C   0  0  0  0  0  0  0  0  0  0  0  0
  -26.1250  -28.6913   20.8088 C   0  0  0  0  0  0  0  0  0  0  0  0
  -29.9962  -12.4721   18.5768 C   0  0  0  0  0  0  0  0  0  0  0  0
  -25.1933  -16.8093   21.1777 C   0  0  0  0  0  0  0  0  0  0  0  0
  -22.6515  -16.8818   21.3807 C   0  0  0  0  0  0  0  0  0  0  0  0
  -29.3482  -19.9705   19.8221 C   0  0  0  0  0  0  0  0  0  0  0  0
  -26.5178  -27.1891   18.9517 C   0  0  0  0  0  0  0  0  0  0  0  0
  -28.2903  -20.8809   19.6360 C   0  0  0  0  0  0  0  0  0  0  0  0
  -26.9717  -27.8037   20.1274 C   0  0  0  0  0  0  0  0  0  0  0  0
  -19.4664  -28.6000   22.9376 C   0  0  0  0  0  0  0  0  0  0  0  0
  -18.6005  -26.3457   22.8636 C   0  0  0  0  0  0  0  0  0  0  0  0
  -27.6679  -15.5220   21.1338 C   0  0  0  0  0  0  0  0  0  0  0  0
  -24.8494  -28.9735   20.3207 C   0  0  0  0  0  0  0  0  0  0  0  0
  -28.9810  -13.7273   20.3742 C   0  0  0  0  0  0  0  0  0  0  0  0
  -29.1929  -11.3752   18.8891 C   0  0  0  0  0  0  0  0  0  0  0  0
  -29.8902  -13.6481   19.3193 C   0  0  0  0  0  0  0  0  0  0  0  0
  -17.4729  -26.8013   22.1804 C   0  0  0  0  0  0  0  0  0  0  0  0
  -19.5972  -27.2451   23.2422 C   0  0  0  0  0  0  0  0  0  0  0  0
  -23.9155  -17.4747   21.2009 C   0  0  0  0  0  0  0  0  0  0  0  0
  -21.7682  -17.9320   21.3229 C   0  0  0  0  0  0  0  0  0  0  0  0
  -22.3065  -15.5047   21.5821 C   0  0  0  0  0  0  0  0  0  0  0  0
  -27.9714  -24.5479   19.9589 C   0  0  0  0  0  0  0  0  0  0  0  0
  -30.5644  -26.4924   20.0906 C   0  0  0  0  0  0  0  0  0  0  0  0
  -31.7973  -29.6631   20.3613 C   0  0  0  0  0  0  0  0  0  0  0  0
  -20.2802  -22.9832   22.8120 C   0  0  0  0  0  0  0  0  0  0  0  0
  -30.3544  -20.1399   20.9327 C   0  0  0  0  0  0  0  0  0  0  0  0
  -27.4127  -26.2524   18.1874 C   0  0  0  0  0  0  0  0  0  0  0  0
  -28.3436  -27.5310   20.6861 C   0  0  0  0  0  0  0  0  0  0  0  0
  -30.3861  -21.5501   21.5161 C   0  0  0  0  0  0  0  0  0  0  0  0
  -22.4609  -22.7467   19.9335 C   0  0  0  0  0  0  0  0  0  0  0  0
  -28.9697  -22.0482   21.7857 C   0  0  0  0  0  0  0  0  0  0  0  0
  -22.9301  -21.2936   20.0260 C   0  0  0  0  0  0  0  0  0  0  0  0
  -22.3313  -23.3749   21.3179 C   0  0  0  0  0  0  0  0  0  0  0  0
  -21.9104  -21.1754   22.3468 C   0  0  0  0  0  0  0  0  0  0  0  0
  -28.1552  -22.1237   20.4887 C   0  0  1  0  0  0  0  0  0  0  0  0
  -28.5000  -25.6246   19.0540 C   0  0  1  0  0  0  0  0  0  0  0  0
  -22.0395  -20.4769   20.9809 C   0  0  2  0  0  0  0  0  0  0  0  0
  -33.9585  -30.9330   20.4780 C   0  0  0  0  0  0  0  0  0  0  0  0
  -30.9258  -25.6063   22.9879 C   0  0  0  0  0  0  0  0  0  0  0  0
  -32.4533  -27.5616   23.3222 C   0  0  0  0  0  0  0  0  0  0  0  0
  -33.0491  -25.7825   21.6783 C   0  0  0  0  0  0  0  0  0  0  0  0
  -31.1794  -31.1701   17.8903 C   0  0  0  0  0  0  0  0  0  0  0  0
  -18.7362  -24.8889   23.1883 C   0  0  0  0  0  0  0  0  0  0  0  0
  -20.5119  -29.6041   23.3243 C   0  0  0  0  0  0  0  0  0  0  0  0
  -22.8861  -30.3274   23.0434 C   0  0  0  0  0  0  0  0  0  0  0  0
  -24.1972  -29.9094   22.4075 C   0  0  0  0  0  0  0  0  0  1  0  0
  -31.1746  -27.3911   21.1389 C   0  0  1  0  0  0  0  0  0  0  0  0
  -32.8613  -30.4012   19.5692 C   0  0  2  0  0  0  0  0  0  0  0  0
  -31.8741  -26.5892   22.2726 C   0  0  0  0  0  0  0  0  0  0  0  0
  -23.8459  -18.7989   21.0406 N   0  0  0  0  0  0  0  0  0  0  0  0
  -22.5273  -19.0467   21.1195 N   0  0  0  0  0  0  0  0  0  0  0  0
  -29.1790  -26.6031   19.9059 N   0  0  0  0  0  0  0  0  0  0  0  0
  -21.4561  -22.5589   22.1713 N   0  0  0  0  0  0  0  0  0  0  0  0
  -20.4240  -18.0015   21.4265 N   0  0  0  0  0  0  0  0  0  0  0  0
  -23.3373  -14.5557   21.6150 N   0  0  0  0  0  0  0  0  0  0  0  0
  -28.5207  -23.3007   19.7301 N   0  0  0  0  0  0  0  0  0  0  0  0
  -32.0553  -28.3101   20.4261 N   0  0  0  0  0  0  0  0  0  0  0  0
  -19.9234  -24.3094   22.6002 N   0  0  0  0  0  0  0  0  0  0  0  0
  -32.2582  -31.5512   18.8379 N   0  3  0  0  0  0  0  0  0  0  0  0
  -21.8444  -29.3178   22.7273 N   0  3  0  0  0  0  0  0  0  0  0  0
  -21.1180  -15.1251   21.7121 O   0  0  0  0  0  0  0  0  0  0  0  0
  -27.1286  -24.8281   20.8033 O   0  0  0  0  0  0  0  0  0  0  0  0
  -31.2913  -25.7256   19.4539 O   0  0  0  0  0  0  0  0  0  0  0  0
  -30.8355  -30.2305   20.8747 O   0  0  0  0  0  0  0  0  0  0  0  0
  -19.5953  -22.2339   23.5167 O   0  0  0  0  0  0  0  0  0  0  0  0
  -28.8752  -14.8938   21.1129 O   0  0  0  0  0  0  0  0  0  0  0  0
  -24.0396  -29.8377   20.9910 O   0  0  0  0  0  0  0  0  0  1  0  0
  -29.2957  -10.2453   18.1771 F   0  0  0  0  0  0  0  0  0  0  0  0
  -30.6653  -14.6981   19.0153 F   0  0  0  0  0  0  0  0  0  0  0  0
  -16.2146  -25.7237   21.6925 Cl  0  0  0  0  0  0  0  0  0  0  0  0
  -21.0003  -26.6858   24.0912 Cl  0  0  0  0  0  0  0  0  0  0  0  0
  1  2  1  0  0  0  0
  1  5  2  0  0  0  0
  2  6  2  0  0  0  0
  3  9  2  0  0  0  0
  3 17  1  0  0  0  0
  4 10  1  0  0  0  0
  4 17  2  0  0  0  0
  5 19  1  0  0  0  0
  6 21  1  0  0  0  0
  7 11  2  0  0  0  0
  7 20  1  0  0  0  0
  8 14  2  0  0  0  0
  8 23  1  0  0  0  0
  9 25  1  0  0  0  0
 10 25  2  0  0  0  0
 11 26  1  0  0  0  0
 12 13  2  0  0  0  0
 12 27  1  0  0  0  0
 13 28  1  0  0  0  0
 14 30  1  0  0  0  0
 15 22  1  0  0  0  0
 15 26  2  0  0  0  0
 16 28  2  0  0  0  0
 16 29  1  0  0  0  0
 17 32  1  0  0  0  0
 18 32  1  0  0  0  0
 18 33  2  0  0  0  0
 18 34  1  0  0  0  0
 19 21  2  0  0  0  0
 19 39  1  0  0  0  0
 20 22  2  0  0  0  0
 20 40  1  0  0  0  0
 21 48  1  0  0  0  0
 22 41  1  0  0  0  0
 23 31  2  0  0  0  0
 23 57  1  0  0  0  0
 24 30  2  0  0  0  0
 24 31  1  0  0  0  0
 24 56  1  0  0  0  0
 25 79  1  0  0  0  0
 26 80  1  0  0  0  0
 27 29  2  0  0  0  0
 27 79  1  0  0  0  0
 28 81  1  0  0  0  0
 29 82  1  0  0  0  0
 30 83  1  0  0  0  0
 31 84  1  0  0  0  0
 32 63  2  0  0  0  0
 33 64  1  0  0  0  0
 33 67  1  0  0  0  0
 34 68  1  0  0  0  0
 34 74  2  0  0  0  0
 35 49  1  0  0  0  0
 35 69  1  0  0  0  0
 35 75  2  0  0  0  0
 36 60  1  0  0  0  0
 36 65  1  0  0  0  0
 36 76  2  0  0  0  0
 37 61  1  0  0  0  0
 37 70  1  0  0  0  0
 37 77  2  0  0  0  0
 38 66  1  0  0  0  0
 38 71  1  0  0  0  0
 38 78  2  0  0  0  0
 39 42  1  0  0  0  0
 40 49  1  0  0  0  0
 41 65  1  0  0  0  0
 42 44  1  0  0  0  0
 43 45  1  0  0  0  0
 43 46  1  0  0  0  0
 44 48  1  0  0  0  0
 45 50  1  0  0  0  0
 46 66  1  0  0  0  0
 47 50  1  0  0  0  0
 47 66  1  0  0  0  0
 48 69  1  0  0  0  0
 49 65  1  0  0  0  0
 50 64  1  0  0  0  0
 51 61  1  0  0  0  0
 52 62  1  0  0  0  0
 53 62  1  0  0  0  0
 54 62  1  0  0  0  0
 55 72  1  0  0  0  0
 56 71  1  0  0  0  0
 57 73  1  0  0  0  0
 58 59  1  0  0  0  0
 58 73  1  0  0  0  0
 59 80  1  0  0  0  0
 60 62  1  0  0  0  0
 60 70  1  0  0  0  0
 61 72  1  0  0  0  0
 63 64  1  0  0  0  0
M  CHG  2  72   1  73   1
M  ISO  4  38 100  59 101  71 100  80 101
M  END
> <Batch ID>
0031

> <Smiles>
CNC(C)C(=O)NC(C(=O)N1Cc2cc([101O:1][101CH2:1]CNCc3ccc(Cl)c(C[100NH:0][100C:0](=O)N4CCCC(n5nc(-c6ccc(Oc7ccc(F)cc7F)cc6)c(C(N)=O)c5N)C4)c3Cl)ccc2CC1C(=O)NC1CCCc2ccccc21)C(C)(C)C

> <Shape>
0.251

> <Color>
0.068

> <Negative vol penalty>
0.000

$$$$

  -OEChem-04042321393D

 87 96  0     1  0  0  0  0  0999 V2000
  -16.6638  -27.9478   20.2668 C   0  0  0  0  0  0  0  0  0  0  0  0
  -17.9133  -28.2264   19.7223 C   0  0  0  0  0  0  0  0  0  0  0  0
  -26.5365  -12.8016   21.5696 C   0  0  0  0  0  0  0  0  0  0  0  0
  -26.1777  -13.6906   19.3519 C   0  0  0  0  0  0  0  0  0  0  0  0
  -16.4570  -28.0820   21.6391 C   0  0  0  0  0  0  0  0  0  0  0  0
  -18.9566  -28.6404   20.5497 C   0  0  0  0  0  0  0  0  0  0  0  0
  -23.3149  -26.2811   19.5086 C   0  0  0  0  0  0  0  0  0  0  0  0
  -28.9929  -23.5901   18.0718 C   0  0  0  0  0  0  0  0  0  0  0  0
  -29.4415  -22.5703   18.9110 C   0  0  0  0  0  0  0  0  0  0  0  0
  -25.2534  -12.2545   21.5579 C   0  0  0  0  0  0  0  0  0  0  0  0
  -24.8946  -13.1434   19.3401 C   0  0  0  0  0  0  0  0  0  0  0  0
  -24.0297  -26.7254   18.3971 C   0  0  0  0  0  0  0  0  0  0  0  0
  -23.7098   -9.5520   20.2362 C   0  0  0  0  0  0  0  0  0  0  0  0
  -23.5607   -8.2395   20.6839 C   0  0  0  0  0  0  0  0  0  0  0  0
  -25.4874  -27.9877   19.8465 C   0  0  0  0  0  0  0  0  0  0  0  0
  -22.0560   -9.0006   22.4142 C   0  0  0  0  0  0  0  0  0  0  0  0
  -26.9986  -13.5197   20.4666 C   0  0  0  0  0  0  0  0  0  0  0  0
  -29.5133  -13.4735   20.0403 C   0  0  0  0  0  0  0  0  0  0  0  0
  -17.5010  -28.4886   22.4850 C   0  0  0  0  0  0  0  0  0  0  0  0
  -23.6749  -26.6962   20.7987 C   0  0  0  0  0  0  0  0  0  0  0  0
  -18.7633  -28.7814   21.9344 C   0  0  0  0  0  0  0  0  0  0  0  0
  -24.7771  -27.5453   20.9730 C   0  0  0  0  0  0  0  0  0  0  0  0
  -28.6059  -23.2976   16.7640 C   0  0  0  0  0  0  0  0  0  0  0  0
  -28.6675  -21.9853   16.2954 C   0  0  0  0  0  0  0  0  0  0  0  0
  -29.1162  -20.9654   17.1346 C   0  0  0  0  0  0  0  0  0  0  0  0
  -29.5032  -21.2580   18.4425 C   0  0  0  0  0  0  0  0  0  0  0  0
  -24.4325  -12.4254   20.4432 C   0  0  0  0  0  0  0  0  0  0  0  0
  -25.1143  -27.5811   18.5657 C   0  0  0  0  0  0  0  0  0  0  0  0
  -23.0321  -10.5890   20.8775 C   0  0  0  0  0  0  0  0  0  0  0  0
  -22.7338   -7.9637   21.7729 C   0  0  0  0  0  0  0  0  0  0  0  0
  -22.2052  -10.3132   21.9664 C   0  0  0  0  0  0  0  0  0  0  0  0
  -28.3236  -14.0855   20.4783 C   0  0  0  0  0  0  0  0  0  0  0  0
  -30.4863  -14.4175   20.2604 C   0  0  0  0  0  0  0  0  0  0  0  0
  -28.3841  -26.7783   15.3977 C   0  0  0  0  0  0  0  0  0  0  0  0
  -29.3541  -26.8937   14.4838 C   0  0  0  0  0  0  0  0  0  0  0  0
  -29.7203  -12.1683   19.4841 C   0  0  0  0  0  0  0  0  0  0  0  0
  -22.2402  -28.3453   23.1065 C   0  0  0  0  0  0  0  0  0  0  0  0
  -24.8886  -27.5367   24.7960 C   0  0  0  0  0  0  0  0  0  0  0  0
  -28.1726  -26.6086   24.7666 C   0  0  0  0  0  0  0  0  0  0  0  0
  -30.3787  -20.3801   20.6354 C   0  0  0  0  0  0  0  0  0  0  0  0
  -17.2168  -28.6649   23.9557 C   0  0  0  0  0  0  0  0  0  0  0  0
  -22.9101  -26.1867   21.9895 C   0  0  0  0  0  0  0  0  0  0  0  0
  -25.2167  -28.0040   22.3385 C   0  0  0  0  0  0  0  0  0  0  0  0
  -27.2041  -27.6871   15.5378 C   0  0  0  0  0  0  0  0  0  0  0  0
  -18.4765  -28.7476   24.8139 C   0  0  0  0  0  0  0  0  0  0  0  0
  -31.5420  -18.1109   23.1203 C   0  0  0  0  0  0  0  0  0  0  0  0
  -19.4879  -29.7019   24.1868 C   0  0  0  0  0  0  0  0  0  0  0  0
  -30.9620  -16.7643   22.6815 C   0  0  0  0  0  0  0  0  0  0  0  0
  -30.5752  -19.2614   22.8456 C   0  0  0  0  0  0  0  0  0  0  0  0
  -29.5010  -17.9943   21.0263 C   0  0  0  0  0  0  0  0  0  0  0  0
  -27.4832  -26.2664   17.4660 C   0  0  0  0  0  0  0  0  0  0  0  0
  -19.9267  -29.2091   22.8025 C   0  0  1  0  0  0  0  0  0  0  0  0
  -23.0479  -27.0831   23.2163 C   0  0  1  0  0  0  0  0  0  0  0  0
  -30.4651  -16.8130   21.2234 C   0  0  2  0  0  0  0  0  0  0  0  0
  -26.4307  -27.0306   16.6743 C   0  0  1  0  0  0  0  0  0  1  0  0
  -28.2517  -21.6746   14.8923 C   0  0  0  0  0  0  0  0  0  0  0  0
  -29.1815  -19.5577   16.6297 C   0  0  0  0  0  0  0  0  0  0  0  0
  -30.5156  -25.9640   14.3785 C   0  0  0  0  0  0  0  0  0  0  0  0
  -30.0775  -26.0566   26.3041 C   0  0  0  0  0  0  0  0  0  0  0  0
  -25.2516  -30.5039   25.4077 C   0  0  0  0  0  0  0  0  0  0  0  0
  -27.6048  -30.0019   26.0996 C   0  0  0  0  0  0  0  0  0  0  0  0
  -25.6971  -28.9785   27.3388 C   0  0  0  0  0  0  0  0  0  0  0  0
  -28.4071  -23.8658   23.6799 C   0  0  0  0  0  0  0  0  0  0  0  0
  -28.1272  -24.4132   15.8824 C   0  0  0  0  0  0  0  0  0  0  0  0
  -26.2485  -28.1552   25.0129 C   0  0  1  0  0  0  0  0  0  0  0  0
  -28.9135  -25.5031   25.4969 C   0  0  2  0  0  0  0  0  0  0  0  0
  -26.1913  -29.4030   25.9387 C   0  0  0  0  0  0  0  0  0  0  0  0
  -28.5206  -15.3226   20.9418 N   0  0  0  0  0  0  0  0  0  0  0  0
  -29.8454  -15.4955   20.7963 N   0  0  0  0  0  0  0  0  0  0  0  0
  -24.4332  -27.4834   23.4710 N   0  0  0  0  0  0  0  0  0  0  0  0
  -30.1505  -19.2466   21.4441 N   0  0  0  0  0  0  0  0  0  0  0  0
  -31.8191  -14.4223   20.0459 N   0  0  0  0  0  0  0  0  0  0  0  0
  -28.6115  -11.3256   19.3265 N   0  0  0  0  0  0  0  0  0  0  0  0
  -29.9619  -20.2379   19.3123 N   0  0  0  0  0  0  0  0  0  0  0  0
  -20.8862  -28.1332   22.9298 N   0  0  0  0  0  0  0  0  0  0  0  0
  -27.1098  -27.0853   25.5046 N   0  0  0  0  0  0  0  0  0  0  0  0
  -28.4627  -25.7745   16.4213 N   0  3  1  0  0  0  0  0  0  0  0  0
  -29.4469  -24.5073   24.5249 N   0  3  0  0  0  0  0  0  0  0  0  0
  -30.8573  -11.7553   19.1524 O   0  0  0  0  0  0  0  0  0  0  0  0
  -22.8034  -29.4312   23.1784 O   0  0  0  0  0  0  0  0  0  0  0  0
  -24.2568  -27.1099   25.7657 O   0  0  0  0  0  0  0  0  0  0  0  0
  -28.5057  -27.0118   23.6544 O   0  0  0  0  0  0  0  0  0  0  0  0
  -30.9298  -21.3918   21.0768 O   0  0  0  0  0  0  0  0  0  0  0  0
  -23.1806  -11.8915   20.4313 O   0  0  0  0  0  0  0  0  0  0  0  0
  -25.8133  -28.0168   17.4824 O   0  0  0  0  0  0  0  0  0  1  0  0
  -22.5895   -6.7030   22.2018 F   0  0  0  0  0  0  0  0  0  0  0  0
  -21.5507  -11.3051   22.5858 F   0  0  0  0  0  0  0  0  0  0  0  0
  1  2  1  0  0  0  0
  1  5  2  0  0  0  0
  2  6  2  0  0  0  0
  3 10  2  0  0  0  0
  3 17  1  0  0  0  0
  4 11  1  0  0  0  0
  4 17  2  0  0  0  0
  5 19  1  0  0  0  0
  6 21  1  0  0  0  0
  7 12  2  0  0  0  0
  7 20  1  0  0  0  0
  8  9  2  0  0  0  0
  8 23  1  0  0  0  0
  9 26  1  0  0  0  0
 10 27  1  0  0  0  0
 11 27  2  0  0  0  0
 12 28  1  0  0  0  0
 13 14  2  0  0  0  0
 13 29  1  0  0  0  0
 14 30  1  0  0  0  0
 15 22  1  0  0  0  0
 15 28  2  0  0  0  0
 16 30  2  0  0  0  0
 16 31  1  0  0  0  0
 17 32  1  0  0  0  0
 18 32  1  0  0  0  0
 18 33  2  0  0  0  0
 18 36  1  0  0  0  0
 19 21  2  0  0  0  0
 19 41  1  0  0  0  0
 20 22  2  0  0  0  0
 20 42  1  0  0  0  0
 21 52  1  0  0  0  0
 22 43  1  0  0  0  0
 23 24  2  0  0  0  0
 23 64  1  0  0  0  0
 24 25  1  0  0  0  0
 24 56  1  0  0  0  0
 25 26  2  0  0  0  0
 25 57  1  0  0  0  0
 26 74  1  0  0  0  0
 27 84  1  0  0  0  0
 28 85  1  0  0  0  0
 29 31  2  0  0  0  0
 29 84  1  0  0  0  0
 30 86  1  0  0  0  0
 31 87  1  0  0  0  0
 32 68  2  0  0  0  0
 33 69  1  0  0  0  0
 33 72  1  0  0  0  0
 34 35  2  0  0  0  0
 34 44  1  0  0  0  0
 34 77  1  0  0  0  0
 35 58  1  0  0  0  0
 36 73  1  0  0  0  0
 36 79  2  0  0  0  0
 37 53  1  0  0  0  0
 37 75  1  0  0  0  0
 37 80  2  0  0  0  0
 38 65  1  0  0  0  0
 38 70  1  0  0  0  0
 38 81  2  0  0  0  0
 39 66  1  0  0  0  0
 39 76  1  0  0  0  0
 39 82  2  0  0  0  0
 40 71  1  0  0  0  0
 40 74  1  0  0  0  0
 40 83  2  0  0  0  0
 41 45  1  0  0  0  0
 42 53  1  0  0  0  0
 43 70  1  0  0  0  0
 44 55  1  0  0  0  0
 45 47  1  0  0  0  0
 46 48  1  0  0  0  0
 46 49  1  0  0  0  0
 47 52  1  0  0  0  0
 48 54  1  0  0  0  0
 49 71  1  0  0  0  0
 50 54  1  0  0  0  0
 50 71  1  0  0  0  0
 51 55  1  0  0  0  0
 51 77  1  0  0  0  0
 52 75  1  0  0  0  0
 53 70  1  0  0  0  0
 54 69  1  0  0  0  0
 55 85  1  0  0  0  0
 59 66  1  0  0  0  0
 60 67  1  0  0  0  0
 61 67  1  0  0  0  0
 62 67  1  0  0  0  0
 63 78  1  0  0  0  0
 64 77  1  0  0  0  0
 65 67  1  0  0  0  0
 65 76  1  0  0  0  0
 66 78  1  0  0  0  0
 68 69  1  0  0  0  0
M  CHG  2  77   1  78   1
M  ISO  4  40 100  55 101  74 100  85 101
M  END
> <Batch ID>
0031

> <Smiles>
CC=C1C[101CH:1]([101O:1]c2ccc3c(c2)CN(C(=O)C(NC(=O)C(C)NC)C(C)(C)C)C(C(=O)NC2CCCc4ccccc42)C3)CN1Cc1ccc([100NH:0][100C:0](=O)N2CCCC(n3nc(-c4ccc(Oc5ccc(F)cc5F)cc4)c(C(N)=O)c3N)C2)c(C)c1C

> <Shape>
0.256

> <Color>
0.068

> <Negative vol penalty>
0.000

$$$$

  -OEChem-04042321393D

 84 93  0     1  0  0  0  0  0999 V2000
  -25.7347  -36.3187   16.1645 C   0  0  0  0  0  0  0  0  0  0  0  0
  -26.2402  -35.0242   16.2274 C   0  0  0  0  0  0  0  0  0  0  0  0
  -24.2439   -9.6656   21.0613 C   0  0  0  0  0  0  0  0  0  0  0  0
  -25.0402  -10.4579   23.2003 C   0  0  0  0  0  0  0  0  0  0  0  0
  -25.4598  -37.0163   17.3400 C   0  0  0  0  0  0  0  0  0  0  0  0
  -26.4723  -34.4268   17.4658 C   0  0  0  0  0  0  0  0  0  0  0  0
  -25.8074  -28.5052   18.8794 C   0  0  0  0  0  0  0  0  0  0  0  0
  -29.9964  -21.1818   22.3816 C   0  0  0  0  0  0  0  0  0  0  0  0
  -23.9204   -8.4369   21.6369 C   0  0  0  0  0  0  0  0  0  0  0  0
  -24.7166   -9.2292   23.7759 C   0  0  0  0  0  0  0  0  0  0  0  0
  -26.7200  -27.4557   18.9757 C   0  0  0  0  0  0  0  0  0  0  0  0
  -21.4382   -7.1550   23.5417 C   0  0  0  0  0  0  0  0  0  0  0  0
  -30.9439  -20.1607   22.3086 C   0  0  0  0  0  0  0  0  0  0  0  0
  -20.1999   -6.5967   23.2248 C   0  0  0  0  0  0  0  0  0  0  0  0
  -26.8773  -27.8187   21.3553 C   0  0  0  0  0  0  0  0  0  0  0  0
  -21.3095   -4.6578   22.3047 C   0  0  0  0  0  0  0  0  0  0  0  0
  -24.8039  -10.6761   21.8431 C   0  0  0  0  0  0  0  0  0  0  0  0
  -24.3095  -13.0775   21.1385 C   0  0  0  0  0  0  0  0  0  0  0  0
  -25.6795  -36.4237   18.5935 C   0  0  0  0  0  0  0  0  0  0  0  0
  -25.4305  -29.2277   20.0207 C   0  0  0  0  0  0  0  0  0  0  0  0
  -26.2014  -35.1177   18.6592 C   0  0  0  0  0  0  0  0  0  0  0  0
  -25.9578  -28.8754   21.2713 C   0  0  0  0  0  0  0  0  0  0  0  0
  -28.7277  -20.9965   21.8323 C   0  0  0  0  0  0  0  0  0  0  0  0
  -28.4065  -19.7902   21.2100 C   0  0  0  0  0  0  0  0  0  0  0  0
  -29.3540  -18.7691   21.1370 C   0  0  0  0  0  0  0  0  0  0  0  0
  -24.1567   -8.2187   22.9941 C   0  0  0  0  0  0  0  0  0  0  0  0
  -27.2573  -27.1141   20.2133 C   0  0  0  0  0  0  0  0  0  0  0  0
  -22.6123   -6.4647   23.2401 C   0  0  0  0  0  0  0  0  0  0  0  0
  -20.1356   -5.3481   22.6063 C   0  0  0  0  0  0  0  0  0  0  0  0
  -30.6227  -18.9544   21.6863 C   0  0  0  0  0  0  0  0  0  0  0  0
  -22.5479   -5.2161   22.6217 C   0  0  0  0  0  0  0  0  0  0  0  0
  -25.1388  -11.9453   21.2490 C   0  0  0  0  0  0  0  0  0  0  0  0
  -25.0887  -14.0131   20.5029 C   0  0  0  0  0  0  0  0  0  0  0  0
  -22.9560  -13.2666   21.5719 C   0  0  0  0  0  0  0  0  0  0  0  0
  -25.6874  -32.2587   20.9429 C   0  0  0  0  0  0  0  0  0  0  0  0
  -23.8812  -31.2451   23.4394 C   0  0  0  0  0  0  0  0  0  0  0  0
  -22.8490  -28.6529   25.4045 C   0  0  0  0  0  0  0  0  0  0  0  0
  -29.9291  -16.6850   19.8440 C   0  0  0  0  0  0  0  0  0  0  0  0
  -25.4119  -37.2345   19.8367 C   0  0  0  0  0  0  0  0  0  0  0  0
  -24.4246  -30.3399   19.9040 C   0  0  0  0  0  0  0  0  0  0  0  0
  -25.5703  -29.6065   22.5297 C   0  0  0  0  0  0  0  0  0  0  0  0
  -25.3330  -36.3926   21.1076 C   0  0  0  0  0  0  0  0  0  0  0  0
  -29.5703  -13.5493   18.1960 C   0  0  0  0  0  0  0  0  0  0  0  0
  -26.4922  -35.4028   21.1651 C   0  0  0  0  0  0  0  0  0  0  0  0
  -28.3172  -12.9456   18.8343 C   0  0  0  0  0  0  0  0  0  0  0  0
  -30.4041  -14.3294   19.2109 C   0  0  0  0  0  0  0  0  0  0  0  0
  -28.4145  -14.7493   20.6019 C   0  0  0  0  0  0  0  0  0  0  0  0
  -26.7374  -24.0532   20.8144 C   0  0  0  0  0  0  0  0  0  0  0  0
  -28.7104  -23.6286   20.2766 C   0  0  0  0  0  0  0  0  0  0  0  0
  -26.4431  -34.4266   19.9836 C   0  0  1  0  0  0  0  0  0  0  0  0
  -24.5036  -31.3400   21.0534 C   0  0  1  0  0  0  0  0  0  0  0  0
  -27.5091  -14.0084   19.6043 C   0  0  2  0  0  0  0  0  0  0  0  0
  -27.7496  -24.7714   19.9044 C   0  0  0  0  0  0  0  0  0  1  0  0
  -27.0433  -19.5959   20.6236 C   0  0  0  0  0  0  0  0  0  0  0  0
  -21.4009  -28.1404   27.3889 C   0  0  0  0  0  0  0  0  0  0  0  0
  -26.0093  -32.4099   25.2900 C   0  0  0  0  0  0  0  0  0  0  0  0
  -25.0222  -31.0653   27.1570 C   0  0  0  0  0  0  0  0  0  0  0  0
  -23.6532  -32.8159   26.0238 C   0  0  0  0  0  0  0  0  0  0  0  0
  -21.1158  -26.8510   23.8207 C   0  0  0  0  0  0  0  0  0  0  0  0
  -27.7275  -22.1109   21.9255 C   0  0  0  0  0  0  0  0  0  0  0  0
  -24.1710  -30.6638   24.8021 C   0  0  1  0  0  0  0  0  0  0  0  0
  -21.4677  -28.2315   25.8724 C   0  0  2  0  0  0  0  0  0  0  0  0
  -24.7229  -31.7260   25.7944 C   0  0  0  0  0  0  0  0  0  0  0  0
  -26.3518  -12.1416   20.7253 N   0  0  0  0  0  0  0  0  0  0  0  0
  -26.2904  -13.4079   20.2796 N   0  0  0  0  0  0  0  0  0  0  0  0
  -24.5880  -30.6904   22.3630 N   0  0  0  0  0  0  0  0  0  0  0  0
  -29.5736  -15.3207   19.8984 N   0  0  0  0  0  0  0  0  0  0  0  0
  -24.8562  -15.2862   20.1187 N   0  0  0  0  0  0  0  0  0  0  0  0
  -22.3033  -12.2021   22.2083 N   0  0  0  0  0  0  0  0  0  0  0  0
  -29.0471  -17.5376   20.5070 N   0  0  0  0  0  0  0  0  0  0  0  0
  -25.4429  -33.4060   20.2124 N   0  0  0  0  0  0  0  0  0  0  0  0
  -22.9382  -30.0192   25.2415 N   0  0  0  0  0  0  0  0  0  0  0  0
  -27.5314  -22.8225   20.6435 N   0  3  0  0  0  0  0  0  0  0  0  0
  -21.1127  -26.8997   25.3055 N   0  3  0  0  0  0  0  0  0  0  0  0
  -22.3380  -14.3421   21.3851 O   0  0  0  0  0  0  0  0  0  0  0  0
  -26.7439  -31.9504   21.4817 O   0  0  0  0  0  0  0  0  0  0  0  0
  -23.0528  -32.1528   23.3329 O   0  0  0  0  0  0  0  0  0  0  0  0
  -23.7589  -27.8506   25.2072 O   0  0  0  0  0  0  0  0  0  0  0  0
  -30.9267  -17.0717   19.2297 O   0  0  0  0  0  0  0  0  0  0  0  0
  -23.8409   -7.0199   23.5561 O   0  0  0  0  0  0  0  0  0  0  0  0
  -28.1488  -26.0905   20.3100 O   0  0  0  0  0  0  0  0  0  1  0  0
  -18.9463   -4.8114   22.3034 F   0  0  0  0  0  0  0  0  0  0  0  0
  -31.5429  -17.9815   21.6206 F   0  0  0  0  0  0  0  0  0  0  0  0
  -23.6723   -4.5477   22.3305 F   0  0  0  0  0  0  0  0  0  0  0  0
  1  2  1  0  0  0  0
  1  5  2  0  0  0  0
  2  6  2  0  0  0  0
  3  9  2  0  0  0  0
  3 17  1  0  0  0  0
  4 10  1  0  0  0  0
  4 17  2  0  0  0  0
  5 19  1  0  0  0  0
  6 21  1  0  0  0  0
  7 11  2  0  0  0  0
  7 20  1  0  0  0  0
  8 13  2  0  0  0  0
  8 23  1  0  0  0  0
  9 26  1  0  0  0  0
 10 26  2  0  0  0  0
 11 27  1  0  0  0  0
 12 14  2  0  0  0  0
 12 28  1  0  0  0  0
 13 30  1  0  0  0  0
 14 29  1  0  0  0  0
 15 22  1  0  0  0  0
 15 27  2  0  0  0  0
 16 29  2  0  0  0  0
 16 31  1  0  0  0  0
 17 32  1  0  0  0  0
 18 32  1  0  0  0  0
 18 33  2  0  0  0  0
 18 34  1  0  0  0  0
 19 21  2  0  0  0  0
 19 39  1  0  0  0  0
 20 22  2  0  0  0  0
 20 40  1  0  0  0  0
 21 50  1  0  0  0  0
 22 41  1  0  0  0  0
 23 24  2  0  0  0  0
 23 60  1  0  0  0  0
 24 25  1  0  0  0  0
 24 54  1  0  0  0  0
 25 30  2  0  0  0  0
 25 70  1  0  0  0  0
 26 80  1  0  0  0  0
 27 81  1  0  0  0  0
 28 31  2  0  0  0  0
 28 80  1  0  0  0  0
 29 82  1  0  0  0  0
 30 83  1  0  0  0  0
 31 84  1  0  0  0  0
 32 64  2  0  0  0  0
 33 65  1  0  0  0  0
 33 68  1  0  0  0  0
 34 69  1  0  0  0  0
 34 75  2  0  0  0  0
 35 51  1  0  0  0  0
 35 71  1  0  0  0  0
 35 76  2  0  0  0  0
 36 61  1  0  0  0  0
 36 66  1  0  0  0  0
 36 77  2  0  0  0  0
 37 62  1  0  0  0  0
 37 72  1  0  0  0  0
 37 78  2  0  0  0  0
 38 67  1  0  0  0  0
 38 70  1  0  0  0  0
 38 79  2  0  0  0  0
 39 42  1  0  0  0  0
 40 51  1  0  0  0  0
 41 66  1  0  0  0  0
 42 44  1  0  0  0  0
 43 45  1  0  0  0  0
 43 46  1  0  0  0  0
 44 50  1  0  0  0  0
 45 52  1  0  0  0  0
 46 67  1  0  0  0  0
 47 52  1  0  0  0  0
 47 67  1  0  0  0  0
 48 53  1  0  0  0  0
 48 73  1  0  0  0  0
 49 53  1  0  0  0  0
 49 73  1  0  0  0  0
 50 71  1  0  0  0  0
 51 66  1  0  0  0  0
 52 65  1  0  0  0  0
 53 81  1  0  0  0  0
 55 62  1  0  0  0  0
 56 63  1  0  0  0  0
 57 63  1  0  0  0  0
 58 63  1  0  0  0  0
 59 74  1  0  0  0  0
 60 73  1  0  0  0  0
 61 63  1  0  0  0  0
 61 72  1  0  0  0  0
 62 74  1  0  0  0  0
 64 65  1  0  0  0  0
M  CHG  2  73   1  74   1
M  ISO  4  38 100  53 101  70 100  81 101
M  END
> <Batch ID>
0031

> <Smiles>
CNC(C)C(=O)NC(C(=O)N1Cc2cc([101O:1][101CH:1]3CN(Cc4ccc(F)c([100NH:0][100C:0](=O)N5CCCC(n6nc(-c7ccc(Oc8ccc(F)cc8F)cc7)c(C(N)=O)c6N)C5)c4C)C3)ccc2CC1C(=O)NC1CCCc2ccccc21)C(C)(C)C

> <Shape>
0.295

> <Color>
0.161

> <Negative vol penalty>
0.000

$$$$

  -OEChem-04042321393D

 85 94  0     1  0  0  0  0  0999 V2000
  -16.8956  -29.7778   20.6596 C   0  0  0  0  0  0  0  0  0  0  0  0
  -17.9890  -30.6378   20.6670 C   0  0  0  0  0  0  0  0  0  0  0  0
  -32.5283  -22.7799   15.5009 C   0  0  0  0  0  0  0  0  0  0  0  0
  -23.4393  -13.3805   22.0679 C   0  0  0  0  0  0  0  0  0  0  0  0
  -22.6351  -14.8707   20.3446 C   0  0  0  0  0  0  0  0  0  0  0  0
  -16.9497  -28.5772   21.3664 C   0  0  0  0  0  0  0  0  0  0  0  0
  -19.1370  -30.2982   21.3821 C   0  0  0  0  0  0  0  0  0  0  0  0
  -26.5342  -29.6536   18.9547 C   0  0  0  0  0  0  0  0  0  0  0  0
  -31.4972  -21.8435   15.4261 C   0  0  0  0  0  0  0  0  0  0  0  0
  -32.4944  -23.7785   16.4742 C   0  0  0  0  0  0  0  0  0  0  0  0
  -22.1597  -13.3292   22.6207 C   0  0  0  0  0  0  0  0  0  0  0  0
  -21.3555  -14.8193   20.8973 C   0  0  0  0  0  0  0  0  0  0  0  0
  -27.8527  -29.3541   18.6111 C   0  0  0  0  0  0  0  0  0  0  0  0
  -17.7973  -14.7945   21.6437 C   0  0  0  0  0  0  0  0  0  0  0  0
  -16.7206  -14.6238   20.7736 C   0  0  0  0  0  0  0  0  0  0  0  0
  -27.9985  -27.8141   20.4700 C   0  0  0  0  0  0  0  0  0  0  0  0
  -17.6511  -12.5201   20.0349 C   0  0  0  0  0  0  0  0  0  0  0  0
  -23.6770  -14.1513   20.9299 C   0  0  0  0  0  0  0  0  0  0  0  0
  -25.7540  -13.1268   19.8602 C   0  0  0  0  0  0  0  0  0  0  0  0
  -18.1024  -28.2182   22.0827 C   0  0  0  0  0  0  0  0  0  0  0  0
  -25.9371  -29.0223   20.0494 C   0  0  0  0  0  0  0  0  0  0  0  0
  -19.2060  -29.0923   22.1002 C   0  0  0  0  0  0  0  0  0  0  0  0
  -26.6741  -28.1009   20.8115 C   0  0  0  0  0  0  0  0  0  0  0  0
  -30.4321  -21.9057   16.3245 C   0  0  0  0  0  0  0  0  0  0  0  0
  -30.3980  -22.9044   17.2978 C   0  0  0  0  0  0  0  0  0  0  0  0
  -31.4292  -23.8407   17.3726 C   0  0  0  0  0  0  0  0  0  0  0  0
  -21.1178  -14.0486   22.0354 C   0  0  0  0  0  0  0  0  0  0  0  0
  -28.5830  -28.4368   19.3671 C   0  0  0  0  0  0  0  0  0  0  0  0
  -18.8010  -13.8280   21.7094 C   0  0  0  0  0  0  0  0  0  0  0  0
  -16.6475  -13.4866   19.9692 C   0  0  0  0  0  0  0  0  0  0  0  0
  -18.7279  -12.6908   20.9050 C   0  0  0  0  0  0  0  0  0  0  0  0
  -24.9988  -14.2052   20.3588 C   0  0  0  0  0  0  0  0  0  0  0  0
  -26.9282  -13.6980   19.4340 C   0  0  0  0  0  0  0  0  0  0  0  0
  -25.4237  -11.7335   19.7887 C   0  0  0  0  0  0  0  0  0  0  0  0
  -22.8680  -28.6038   22.1663 C   0  0  0  0  0  0  0  0  0  0  0  0
  -24.0871  -25.8124   21.8028 C   0  0  0  0  0  0  0  0  0  0  0  0
  -25.5057  -22.8714   20.8154 C   0  0  0  0  0  0  0  0  0  0  0  0
  -28.2023  -19.1585   17.5861 C   0  0  0  0  0  0  0  0  0  0  0  0
  -18.0965  -26.9320   22.8702 C   0  0  0  0  0  0  0  0  0  0  0  0
  -24.5396  -29.3601   20.4928 C   0  0  0  0  0  0  0  0  0  0  0  0
  -26.0021  -27.4720   22.0013 C   0  0  0  0  0  0  0  0  0  0  0  0
  -19.4884  -26.4723   23.2962 C   0  0  0  0  0  0  0  0  0  0  0  0
  -29.8213  -17.4089   20.3092 C   0  0  0  0  0  0  0  0  0  0  0  0
  -32.1209  -25.6015   20.5833 C   0  0  0  0  0  0  0  0  0  0  0  0
  -20.2792  -27.6374   23.8827 C   0  0  0  0  0  0  0  0  0  0  0  0
  -28.8260  -16.2790   20.5793 C   0  0  0  0  0  0  0  0  0  0  0  0
  -31.5108  -26.9662   20.3014 C   0  0  0  0  0  0  0  0  0  0  0  0
  -32.5326  -24.8936   19.2946 C   0  0  0  0  0  0  0  0  0  0  0  0
  -29.1017  -18.7049   19.9479 C   0  0  0  0  0  0  0  0  0  0  0  0
  -27.1674  -17.4595   19.0642 C   0  0  0  0  0  0  0  0  0  0  0  0
  -30.7502  -26.1232   18.0453 C   0  0  0  0  0  0  0  0  0  0  0  0
  -20.4782  -28.7476   22.8438 C   0  0  1  0  0  0  0  0  0  0  0  0
  -23.7784  -28.1500   21.0633 C   0  0  1  0  0  0  0  0  0  0  0  0
  -27.8334  -16.1160   19.4129 C   0  0  2  0  0  0  0  0  0  0  0  0
  -30.3410  -26.8384   19.3337 C   0  0  2  0  0  0  0  0  0  1  0  0
  -29.2533  -22.9676   18.2597 C   0  0  0  0  0  0  0  0  0  0  0  0
  -25.2813  -20.3869   21.0879 C   0  0  0  0  0  0  0  0  0  0  0  0
  -25.3170  -26.0105   24.5871 C   0  0  0  0  0  0  0  0  0  0  0  0
  -25.9357  -23.5911   24.4085 C   0  0  0  0  0  0  0  0  0  0  0  0
  -23.5361  -24.2703   24.3543 C   0  0  0  0  0  0  0  0  0  0  0  0
  -25.0379  -22.4791   17.9194 C   0  0  0  0  0  0  0  0  0  0  0  0
  -29.3410  -20.8907   16.2223 C   0  0  0  0  0  0  0  0  0  0  0  0
  -25.0059  -24.7518   22.3544 C   0  0  1  0  0  0  0  0  0  0  0  0
  -24.8986  -21.5988   20.2528 C   0  0  2  0  0  0  0  0  0  0  0  0
  -24.9576  -24.6746   23.9065 C   0  0  0  0  0  0  0  0  0  0  0  0
  -25.6394  -15.3730   20.2593 N   0  0  0  0  0  0  0  0  0  0  0  0
  -26.8096  -15.0317   19.6934 N   0  0  0  0  0  0  0  0  0  0  0  0
  -31.4138  -24.8506   18.3428 N   0  0  1  0  0  0  0  0  0  0  0  0
  -24.6206  -27.0990   21.6591 N   0  0  0  0  0  0  0  0  0  0  0  0
  -28.1863  -18.4856   18.8192 N   0  0  0  0  0  0  0  0  0  0  0  0
  -28.0402  -13.1844   18.8664 N   0  0  0  0  0  0  0  0  0  0  0  0
  -24.7800  -11.2576   18.6382 N   0  0  0  0  0  0  0  0  0  0  0  0
  -21.5268  -28.3873   21.9137 N   0  0  0  0  0  0  0  0  0  0  0  0
  -24.6437  -23.5084   21.6827 N   0  0  0  0  0  0  0  0  0  0  0  0
  -29.1943  -20.1200   17.4370 N   0  0  0  0  0  0  0  0  0  0  0  0
  -25.3680  -21.3744   18.8562 N   0  3  0  0  0  0  0  0  0  0  0  0
  -25.6767  -10.9372   20.7243 O   0  0  0  0  0  0  0  0  0  0  0  0
  -23.3461  -29.1119   23.1738 O   0  0  0  0  0  0  0  0  0  0  0  0
  -22.9258  -25.5125   21.5118 O   0  0  0  0  0  0  0  0  0  0  0  0
  -26.6334  -23.2594   20.5182 O   0  0  0  0  0  0  0  0  0  0  0  0
  -27.3953  -18.9164   16.6822 O   0  0  0  0  0  0  0  0  0  0  0  0
  -19.8689  -13.9985   22.5743 O   0  0  0  0  0  0  0  0  0  0  0  0
  -29.8683  -28.1456   19.0234 O   0  0  0  0  0  0  0  0  0  1  0  0
  -15.6126  -13.3221   19.1348 F   0  0  0  0  0  0  0  0  0  0  0  0
  -19.6884  -11.7583   20.9645 F   0  0  0  0  0  0  0  0  0  0  0  0
  1  2  1  0  0  0  0
  1  6  2  0  0  0  0
  2  7  2  0  0  0  0
  3  9  1  0  0  0  0
  3 10  2  0  0  0  0
  4 11  2  0  0  0  0
  4 18  1  0  0  0  0
  5 12  1  0  0  0  0
  5 18  2  0  0  0  0
  6 20  1  0  0  0  0
  7 22  1  0  0  0  0
  8 13  2  0  0  0  0
  8 21  1  0  0  0  0
  9 24  2  0  0  0  0
 10 26  1  0  0  0  0
 11 27  1  0  0  0  0
 12 27  2  0  0  0  0
 13 28  1  0  0  0  0
 14 15  2  0  0  0  0
 14 29  1  0  0  0  0
 15 30  1  0  0  0  0
 16 23  1  0  0  0  0
 16 28  2  0  0  0  0
 17 30  2  0  0  0  0
 17 31  1  0  0  0  0
 18 32  1  0  0  0  0
 19 32  1  0  0  0  0
 19 33  2  0  0  0  0
 19 34  1  0  0  0  0
 20 22  2  0  0  0  0
 20 39  1  0  0  0  0
 21 23  2  0  0  0  0
 21 40  1  0  0  0  0
 22 52  1  0  0  0  0
 23 41  1  0  0  0  0
 24 25  1  0  0  0  0
 24 62  1  0  0  0  0
 25 26  2  0  0  0  0
 25 56  1  0  0  0  0
 26 68  1  0  0  0  0
 27 82  1  0  0  0  0
 28 83  1  0  0  0  0
 29 31  2  0  0  0  0
 29 82  1  0  0  0  0
 30 84  1  0  0  0  0
 31 85  1  0  0  0  0
 32 66  2  0  0  0  0
 33 67  1  0  0  0  0
 33 71  1  0  0  0  0
 34 72  1  0  0  0  0
 34 77  2  0  0  0  0
 35 53  1  0  0  0  0
 35 73  1  0  0  0  0
 35 78  2  0  0  0  0
 36 63  1  0  0  0  0
 36 69  1  0  0  0  0
 36 79  2  0  0  0  0
 37 64  1  0  0  0  0
 37 74  1  0  0  0  0
 37 80  2  0  0  0  0
 38 70  1  0  0  0  0
 38 75  1  0  0  0  0
 38 81  2  0  0  0  0
 39 42  1  0  0  0  0
 40 53  1  0  0  0  0
 41 69  1  0  0  0  0
 42 45  1  0  0  0  0
 43 46  1  0  0  0  0
 43 49  1  0  0  0  0
 44 47  1  0  0  0  0
 44 48  1  0  0  0  0
 45 52  1  0  0  0  0
 46 54  1  0  0  0  0
 47 55  1  0  0  0  0
 48 68  1  0  0  0  0
 49 70  1  0  0  0  0
 50 54  1  0  0  0  0
 50 70  1  0  0  0  0
 51 55  1  0  0  0  0
 51 68  1  0  0  0  0
 52 73  1  0  0  0  0
 53 69  1  0  0  0  0
 54 67  1  0  0  0  0
 55 83  1  0  0  0  0
 57 64  1  0  0  0  0
 58 65  1  0  0  0  0
 59 65  1  0  0  0  0
 60 65  1  0  0  0  0
 61 76  1  0  0  0  0
 62 75  1  0  0  0  0
 63 65  1  0  0  0  0
 63 74  1  0  0  0  0
 64 76  1  0  0  0  0
 66 67  1  0  0  0  0
M  CHG  1  76   1
M  ISO  4  38 100  55 101  75 100  83 101
M  END
> <Batch ID>
0031

> <Smiles>
CNC(C)C(=O)NC(C(=O)N1Cc2cc([101O:1][101CH:1]3CCCN(c4cccc(C[100NH:0][100C:0](=O)N5CCCC(n6nc(-c7ccc(Oc8ccc(F)cc8F)cc7)c(C(N)=O)c6N)C5)c4C)C3)ccc2CC1C(=O)NC1CCCc2ccccc21)C(C)(C)C

> <Shape>
0.220

> <Color>
0.078

> <Negative vol penalty>
0.000

$$$$

  -OEChem-04042321393D

 85 94  0     1  0  0  0  0  0999 V2000
  -29.9323  -34.1590   25.7318 C   0  0  0  0  0  0  0  0  0  0  0  0
  -29.9020  -32.9239   25.0922 C   0  0  0  0  0  0  0  0  0  0  0  0
  -24.7696   -8.6538   21.4738 C   0  0  0  0  0  0  0  0  0  0  0  0
  -23.1288  -10.3432   20.9346 C   0  0  0  0  0  0  0  0  0  0  0  0
  -28.7444  -34.7511   26.1587 C   0  0  0  0  0  0  0  0  0  0  0  0
  -28.6836  -32.2796   24.8802 C   0  0  0  0  0  0  0  0  0  0  0  0
  -27.1481  -28.7942   20.0844 C   0  0  0  0  0  0  0  0  0  0  0  0
  -26.7544  -20.0552   20.6182 C   0  0  0  0  0  0  0  0  0  0  0  0
  -27.3360  -18.8101   20.3790 C   0  0  0  0  0  0  0  0  0  0  0  0
  -23.8841   -8.0862   22.3899 C   0  0  0  0  0  0  0  0  0  0  0  0
  -22.2433   -9.7756   21.8507 C   0  0  0  0  0  0  0  0  0  0  0  0
  -27.1248  -27.4127   19.8980 C   0  0  0  0  0  0  0  0  0  0  0  0
  -21.9215   -5.9782   24.6079 C   0  0  0  0  0  0  0  0  0  0  0  0
  -21.7823   -4.5903   24.6008 C   0  0  0  0  0  0  0  0  0  0  0  0
  -24.7742  -27.3854   20.4392 C   0  0  0  0  0  0  0  0  0  0  0  0
  -21.0343   -4.6771   22.3052 C   0  0  0  0  0  0  0  0  0  0  0  0
  -24.3920   -9.7824   20.7461 C   0  0  0  0  0  0  0  0  0  0  0  0
  -25.4330  -10.0565   18.4334 C   0  0  0  0  0  0  0  0  0  0  0  0
  -27.5100  -34.1182   25.9431 C   0  0  0  0  0  0  0  0  0  0  0  0
  -25.9851  -29.4813   20.4608 C   0  0  0  0  0  0  0  0  0  0  0  0
  -27.4782  -32.8631   25.3058 C   0  0  0  0  0  0  0  0  0  0  0  0
  -24.7847  -28.7759   20.6272 C   0  0  0  0  0  0  0  0  0  0  0  0
  -25.4371  -20.2962   20.2278 C   0  0  0  0  0  0  0  0  0  0  0  0
  -24.7015  -19.2922   19.5981 C   0  0  0  0  0  0  0  0  0  0  0  0
  -25.2831  -18.0472   19.3588 C   0  0  0  0  0  0  0  0  0  0  0  0
  -26.6004  -17.8062   19.7493 C   0  0  0  0  0  0  0  0  0  0  0  0
  -22.6210   -8.6471   22.5784 C   0  0  0  0  0  0  0  0  0  0  0  0
  -25.9384  -26.7077   20.0783 C   0  0  0  0  0  0  0  0  0  0  0  0
  -21.6171   -6.7156   23.4637 C   0  0  0  0  0  0  0  0  0  0  0  0
  -21.3387   -3.9398   23.4495 C   0  0  0  0  0  0  0  0  0  0  0  0
  -21.1735   -6.0650   22.3123 C   0  0  0  0  0  0  0  0  0  0  0  0
  -25.3065  -10.3696   19.8001 C   0  0  0  0  0  0  0  0  0  0  0  0
  -26.4321  -10.8842   17.9826 C   0  0  0  0  0  0  0  0  0  0  0  0
  -24.7118   -9.1029   17.6421 C   0  0  0  0  0  0  0  0  0  0  0  0
  -25.1247  -31.2255   22.9750 C   0  0  0  0  0  0  0  0  0  0  0  0
  -22.4606  -31.7585   21.2028 C   0  0  0  0  0  0  0  0  0  0  0  0
  -20.3794  -30.7051   18.7117 C   0  0  0  0  0  0  0  0  0  0  0  0
  -28.5102  -16.1664   19.8493 C   0  0  0  0  0  0  0  0  0  0  0  0
  -26.2565  -34.7751   26.4646 C   0  0  0  0  0  0  0  0  0  0  0  0
  -26.0206  -30.9753   20.6318 C   0  0  0  0  0  0  0  0  0  0  0  0
  -23.5041  -29.4694   21.0113 C   0  0  0  0  0  0  0  0  0  0  0  0
  -24.9744  -34.2013   25.8671 C   0  0  0  0  0  0  0  0  0  0  0  0
  -30.3738  -13.1552   19.4791 C   0  0  0  0  0  0  0  0  0  0  0  0
  -25.0132  -32.6765   25.8844 C   0  0  0  0  0  0  0  0  0  0  0  0
  -29.2972  -12.0713   19.3889 C   0  0  0  0  0  0  0  0  0  0  0  0
  -25.8339  -24.0590   17.8768 C   0  0  0  0  0  0  0  0  0  0  0  0
  -29.9846  -14.2611   20.4585 C   0  0  0  0  0  0  0  0  0  0  0  0
  -27.5905  -13.7810   20.1314 C   0  0  0  0  0  0  0  0  0  0  0  0
  -26.0429  -22.7290   18.5724 C   0  0  0  0  0  0  0  0  0  0  0  0
  -24.0714  -23.8465   19.5019 C   0  0  0  0  0  0  0  0  0  0  0  0
  -26.1741  -32.1445   25.0354 C   0  0  1  0  0  0  0  0  0  0  0  0
  -24.8949  -31.5024   21.5162 C   0  0  1  0  0  0  0  0  0  0  0  0
  -27.9085  -12.6783   19.1083 C   0  0  2  0  0  0  0  0  0  0  0  0
  -25.0336  -24.8547   18.8934 C   0  0  1  0  0  0  0  0  0  1  0  0
  -23.2889  -19.5537   19.1805 C   0  0  0  0  0  0  0  0  0  0  0  0
  -24.4919  -16.9712   18.6829 C   0  0  0  0  0  0  0  0  0  0  0  0
  -18.2639  -31.3310   17.5157 C   0  0  0  0  0  0  0  0  0  0  0  0
  -20.8280  -30.8126   23.6007 C   0  0  0  0  0  0  0  0  0  0  0  0
  -18.8627  -30.5524   22.0717 C   0  0  0  0  0  0  0  0  0  0  0  0
  -19.8840  -32.8022   22.4154 C   0  0  0  0  0  0  0  0  0  0  0  0
  -21.7757  -30.9187   16.1110 C   0  0  0  0  0  0  0  0  0  0  0  0
  -24.8357  -21.6441   20.4971 C   0  0  0  0  0  0  0  0  0  0  0  0
  -21.1241  -31.0736   21.0492 C   0  0  1  0  0  0  0  0  0  0  0  0
  -19.7811  -31.4353   17.5228 C   0  0  2  0  0  0  0  0  0  0  0  0
  -20.1991  -31.2966   22.2789 C   0  0  0  0  0  0  0  0  0  0  0  0
  -26.1573  -11.3217   20.1919 N   0  0  0  0  0  0  0  0  0  0  0  0
  -26.8281  -11.6140   19.0646 N   0  0  0  0  0  0  0  0  0  0  0  0
  -23.5914  -30.9301   21.1731 N   0  0  0  0  0  0  0  0  0  0  0  0
  -28.6600  -14.7914   20.1283 N   0  0  0  0  0  0  0  0  0  0  0  0
  -27.0018  -11.0515   16.7703 N   0  0  0  0  0  0  0  0  0  0  0  0
  -23.7177   -8.3346   18.2633 N   0  0  0  0  0  0  0  0  0  0  0  0
  -27.2113  -16.5490   19.5164 N   0  0  0  0  0  0  0  0  0  0  0  0
  -25.8423  -32.2093   23.6282 N   0  0  0  0  0  0  0  0  0  0  0  0
  -20.5653  -31.5473   19.7875 N   0  0  0  0  0  0  0  0  0  0  0  0
  -24.7242  -22.4914   19.2706 N   0  3  2  0  0  0  0  0  0  0  0  0
  -20.2977  -30.8607   16.2485 N   0  3  0  0  0  0  0  0  0  0  0  0
  -24.9534   -8.9253   16.4240 O   0  0  0  0  0  0  0  0  0  0  0  0
  -24.6824  -30.1962   23.4716 O   0  0  0  0  0  0  0  0  0  0  0  0
  -22.5002  -32.9841   21.3368 O   0  0  0  0  0  0  0  0  0  0  0  0
  -20.6510  -29.5066   18.6895 O   0  0  0  0  0  0  0  0  0  0  0  0
  -29.4692  -16.9421   19.8753 O   0  0  0  0  0  0  0  0  0  0  0  0
  -21.7565   -8.0933   23.4720 O   0  0  0  0  0  0  0  0  0  0  0  0
  -25.9131  -25.3591   19.8977 O   0  0  0  0  0  0  0  0  0  1  0  0
  -21.2065   -2.6069   23.4423 F   0  0  0  0  0  0  0  0  0  0  0  0
  -20.8806   -6.7679   21.2096 F   0  0  0  0  0  0  0  0  0  0  0  0
  1  2  1  0  0  0  0
  1  5  2  0  0  0  0
  2  6  2  0  0  0  0
  3 10  2  0  0  0  0
  3 17  1  0  0  0  0
  4 11  1  0  0  0  0
  4 17  2  0  0  0  0
  5 19  1  0  0  0  0
  6 21  1  0  0  0  0
  7 12  2  0  0  0  0
  7 20  1  0  0  0  0
  8  9  2  0  0  0  0
  8 23  1  0  0  0  0
  9 26  1  0  0  0  0
 10 27  1  0  0  0  0
 11 27  2  0  0  0  0
 12 28  1  0  0  0  0
 13 14  2  0  0  0  0
 13 29  1  0  0  0  0
 14 30  1  0  0  0  0
 15 22  1  0  0  0  0
 15 28  2  0  0  0  0
 16 30  2  0  0  0  0
 16 31  1  0  0  0  0
 17 32  1  0  0  0  0
 18 32  1  0  0  0  0
 18 33  2  0  0  0  0
 18 34  1  0  0  0  0
 19 21  2  0  0  0  0
 19 39  1  0  0  0  0
 20 22  2  0  0  0  0
 20 40  1  0  0  0  0
 21 51  1  0  0  0  0
 22 41  1  0  0  0  0
 23 24  2  0  0  0  0
 23 62  1  0  0  0  0
 24 25  1  0  0  0  0
 24 55  1  0  0  0  0
 25 26  2  0  0  0  0
 25 56  1  0  0  0  0
 26 72  1  0  0  0  0
 27 82  1  0  0  0  0
 28 83  1  0  0  0  0
 29 31  2  0  0  0  0
 29 82  1  0  0  0  0
 30 84  1  0  0  0  0
 31 85  1  0  0  0  0
 32 66  2  0  0  0  0
 33 67  1  0  0  0  0
 33 70  1  0  0  0  0
 34 71  1  0  0  0  0
 34 77  2  0  0  0  0
 35 52  1  0  0  0  0
 35 73  1  0  0  0  0
 35 78  2  0  0  0  0
 36 63  1  0  0  0  0
 36 68  1  0  0  0  0
 36 79  2  0  0  0  0
 37 64  1  0  0  0  0
 37 74  1  0  0  0  0
 37 80  2  0  0  0  0
 38 69  1  0  0  0  0
 38 72  1  0  0  0  0
 38 81  2  0  0  0  0
 39 42  1  0  0  0  0
 40 52  1  0  0  0  0
 41 68  1  0  0  0  0
 42 44  1  0  0  0  0
 43 45  1  0  0  0  0
 43 47  1  0  0  0  0
 44 51  1  0  0  0  0
 45 53  1  0  0  0  0
 46 49  1  0  0  0  0
 46 54  1  0  0  0  0
 47 69  1  0  0  0  0
 48 53  1  0  0  0  0
 48 69  1  0  0  0  0
 49 75  1  0  0  0  0
 50 54  1  0  0  0  0
 50 75  1  0  0  0  0
 51 73  1  0  0  0  0
 52 68  1  0  0  0  0
 53 67  1  0  0  0  0
 54 83  1  0  0  0  0
 57 64  1  0  0  0  0
 58 65  1  0  0  0  0
 59 65  1  0  0  0  0
 60 65  1  0  0  0  0
 61 76  1  0  0  0  0
 62 75  1  0  0  0  0
 63 65  1  0  0  0  0
 63 74  1  0  0  0  0
 64 76  1  0  0  0  0
 66 67  1  0  0  0  0
M  CHG  2  75   1  76   1
M  ISO  4  38 100  54 101  72 100  83 101
M  END
> <Batch ID>
0031

> <Smiles>
CNC(C)C(=O)NC(C(=O)N1Cc2cc([101O:1][101CH:1]3CCN(Cc4ccc([100NH:0][100C:0](=O)N5CCCC(n6nc(-c7ccc(Oc8ccc(F)cc8F)cc7)c(C(N)=O)c6N)C5)c(C)c4C)C3)ccc2CC1C(=O)NC1CCCc2ccccc21)C(C)(C)C

> <Shape>
0.260

> <Color>
0.101

> <Negative vol penalty>
0.000

$$$$

  -OEChem-04042321393D

 85 94  0     1  0  0  0  0  0999 V2000
  -30.5759  -34.4232   19.8561 C   0  0  0  0  0  0  0  0  0  0  0  0
  -30.7900  -33.0506   19.9295 C   0  0  0  0  0  0  0  0  0  0  0  0
  -23.1807   -9.7876   21.6121 C   0  0  0  0  0  0  0  0  0  0  0  0
  -24.5741  -10.5207   23.4446 C   0  0  0  0  0  0  0  0  0  0  0  0
  -29.6417  -35.0277   20.6961 C   0  0  0  0  0  0  0  0  0  0  0  0
  -30.0707  -32.2818   20.8438 C   0  0  0  0  0  0  0  0  0  0  0  0
  -28.3005  -27.9953   18.8097 C   0  0  0  0  0  0  0  0  0  0  0  0
  -31.9338  -17.7257   21.5644 C   0  0  0  0  0  0  0  0  0  0  0  0
  -31.7574  -19.0453   21.1484 C   0  0  0  0  0  0  0  0  0  0  0  0
  -22.6713   -8.7627   22.4094 C   0  0  0  0  0  0  0  0  0  0  0  0
  -24.0647   -9.4958   24.2420 C   0  0  0  0  0  0  0  0  0  0  0  0
  -29.2043  -26.9459   18.6493 C   0  0  0  0  0  0  0  0  0  0  0  0
  -23.6574   -5.7087   23.4703 C   0  0  0  0  0  0  0  0  0  0  0  0
  -23.5566   -4.4377   22.9045 C   0  0  0  0  0  0  0  0  0  0  0  0
  -28.3503  -25.9119   20.6545 C   0  0  0  0  0  0  0  0  0  0  0  0
  -29.6528  -19.1368   22.3312 C   0  0  0  0  0  0  0  0  0  0  0  0
  -21.1703   -4.4590   23.2822 C   0  0  0  0  0  0  0  0  0  0  0  0
  -24.1321  -10.6666   22.1297 C   0  0  0  0  0  0  0  0  0  0  0  0
  -23.9364  -12.7694   20.6987 C   0  0  0  0  0  0  0  0  0  0  0  0
  -28.9036  -34.2645   21.6145 C   0  0  0  0  0  0  0  0  0  0  0  0
  -27.4208  -28.0163   19.9015 C   0  0  0  0  0  0  0  0  0  0  0  0
  -29.1267  -32.8768   21.6978 C   0  0  0  0  0  0  0  0  0  0  0  0
  -27.4345  -26.9613   20.8250 C   0  0  0  0  0  0  0  0  0  0  0  0
  -30.9697  -17.1116   22.3638 C   0  0  0  0  0  0  0  0  0  0  0  0
  -30.6169  -19.7509   21.5318 C   0  0  0  0  0  0  0  0  0  0  0  0
  -23.1133   -8.6168   23.7244 C   0  0  0  0  0  0  0  0  0  0  0  0
  -29.2313  -25.9055   19.5733 C   0  0  0  0  0  0  0  0  0  0  0  0
  -22.5147   -6.3548   23.9420 C   0  0  0  0  0  0  0  0  0  0  0  0
  -22.3130   -3.8129   22.8105 C   0  0  0  0  0  0  0  0  0  0  0  0
  -21.2712   -5.7300   23.8480 C   0  0  0  0  0  0  0  0  0  0  0  0
  -29.8291  -17.8172   22.7472 C   0  0  0  0  0  0  0  0  0  0  0  0
  -24.6590  -11.7252   21.3064 C   0  0  0  0  0  0  0  0  0  0  0  0
  -24.8875  -13.5026   20.0322 C   0  0  0  0  0  0  0  0  0  0  0  0
  -22.5310  -13.0513   20.7337 C   0  0  0  0  0  0  0  0  0  0  0  0
  -26.9568  -29.9629   22.3712 C   0  0  0  0  0  0  0  0  0  0  0  0
  -24.4190  -28.0202   22.9259 C   0  0  0  0  0  0  0  0  0  0  0  0
  -22.1417  -25.4867   23.1306 C   0  0  0  0  0  0  0  0  0  0  0  0
  -30.7771  -14.2270   20.8311 C   0  0  0  0  0  0  0  0  0  0  0  0
  -27.9388  -34.9696   22.5346 C   0  0  0  0  0  0  0  0  0  0  0  0
  -26.4336  -29.1420   20.0456 C   0  0  0  0  0  0  0  0  0  0  0  0
  -26.4970  -26.9265   22.0033 C   0  0  0  0  0  0  0  0  0  0  0  0
  -26.9485  -34.0284   23.2157 C   0  0  0  0  0  0  0  0  0  0  0  0
  -29.1436  -13.0520   17.8938 C   0  0  0  0  0  0  0  0  0  0  0  0
  -27.6714  -32.8081   23.7770 C   0  0  0  0  0  0  0  0  0  0  0  0
  -27.7439  -12.6730   18.3805 C   0  0  0  0  0  0  0  0  0  0  0  0
  -29.0867  -22.7856   19.9675 C   0  0  0  0  0  0  0  0  0  0  0  0
  -31.4752  -23.2401   20.5469 C   0  0  0  0  0  0  0  0  0  0  0  0
  -30.2103  -12.7323   18.9388 C   0  0  0  0  0  0  0  0  0  0  0  0
  -29.0805  -21.5919   20.9185 C   0  0  0  0  0  0  0  0  0  0  0  0
  -31.4702  -22.0504   21.5018 C   0  0  0  0  0  0  0  0  0  0  0  0
  -28.5620  -12.9290   20.7604 C   0  0  0  0  0  0  0  0  0  0  0  0
  -28.3482  -32.0054   22.6594 C   0  0  1  0  0  0  0  0  0  0  0  0
  -25.9351  -29.3201   21.4764 C   0  0  1  0  0  0  0  0  0  0  0  0
  -27.4462  -13.2843   19.7629 C   0  0  2  0  0  0  0  0  0  0  0  0
  -30.0861  -23.8506   20.4006 C   0  0  0  0  0  0  0  0  0  1  0  0
  -20.2381  -24.6582   24.5402 C   0  0  0  0  0  0  0  0  0  0  0  0
  -26.4044  -27.0283   25.0198 C   0  0  0  0  0  0  0  0  0  0  0  0
  -24.6412  -25.4536   25.8445 C   0  0  0  0  0  0  0  0  0  0  0  0
  -24.2608  -27.9166   25.9529 C   0  0  0  0  0  0  0  0  0  0  0  0
  -20.2302  -25.7018   20.8814 C   0  0  0  0  0  0  0  0  0  0  0  0
  -31.1957  -15.6961   22.7871 C   0  0  0  0  0  0  0  0  0  0  0  0
  -24.1964  -26.7500   23.7108 C   0  0  1  0  0  0  0  0  0  0  0  0
  -20.6378  -25.4983   23.3372 C   0  0  2  0  0  0  0  0  0  0  0  0
  -24.8841  -26.7865   25.1048 C   0  0  0  0  0  0  0  0  0  0  0  0
  -25.9682  -11.7860   21.0486 N   0  0  0  0  0  0  0  0  0  0  0  0
  -26.0756  -12.8772   20.2716 N   0  0  0  0  0  0  0  0  0  0  0  0
  -30.4401  -21.0763   21.1145 N   0  0  0  0  0  0  0  0  0  0  0  0
  -25.5545  -28.0531   22.1042 N   0  0  0  0  0  0  0  0  0  0  0  0
  -29.8691  -13.3424   20.2261 N   0  0  0  0  0  0  0  0  0  0  0  0
  -24.8150  -14.6148   19.2705 N   0  0  0  0  0  0  0  0  0  0  0  0
  -22.0410  -13.8801   21.7522 N   0  0  0  0  0  0  0  0  0  0  0  0
  -27.3720  -31.2103   21.9458 N   0  0  0  0  0  0  0  0  0  0  0  0
  -22.7522  -26.5496   23.7620 N   0  0  0  0  0  0  0  0  0  0  0  0
  -30.3730  -14.7657   22.0465 N   0  0  0  0  0  0  0  0  0  0  0  0
  -19.9455  -24.9558   22.1342 N   0  3  0  0  0  0  0  0  0  0  0  0
  -21.7311  -12.5690   19.8965 O   0  0  0  0  0  0  0  0  0  0  0  0
  -27.3390  -29.3716   23.3742 O   0  0  0  0  0  0  0  0  0  0  0  0
  -23.6111  -28.9463   23.0324 O   0  0  0  0  0  0  0  0  0  0  0  0
  -22.7177  -24.6192   22.4777 O   0  0  0  0  0  0  0  0  0  0  0  0
  -31.8649  -14.5194   20.3230 O   0  0  0  0  0  0  0  0  0  0  0  0
  -22.6164   -7.6169   24.5027 O   0  0  0  0  0  0  0  0  0  0  0  0
  -30.1129  -24.8803   19.4195 O   0  0  0  0  0  0  0  0  0  1  0  0
  -22.2161   -2.5930   22.2657 F   0  0  0  0  0  0  0  0  0  0  0  0
  -20.1697   -6.3462   24.2984 F   0  0  0  0  0  0  0  0  0  0  0  0
  -28.6148  -17.0891   23.7343 Cl  0  0  0  0  0  0  0  0  0  0  0  0
  1  2  1  0  0  0  0
  1  5  2  0  0  0  0
  2  6  2  0  0  0  0
  3 10  2  0  0  0  0
  3 18  1  0  0  0  0
  4 11  1  0  0  0  0
  4 18  2  0  0  0  0
  5 20  1  0  0  0  0
  6 22  1  0  0  0  0
  7 12  2  0  0  0  0
  7 21  1  0  0  0  0
  8  9  2  0  0  0  0
  8 24  1  0  0  0  0
  9 25  1  0  0  0  0
 10 26  1  0  0  0  0
 11 26  2  0  0  0  0
 12 27  1  0  0  0  0
 13 14  2  0  0  0  0
 13 28  1  0  0  0  0
 14 29  1  0  0  0  0
 15 23  1  0  0  0  0
 15 27  2  0  0  0  0
 16 25  2  0  0  0  0
 16 31  1  0  0  0  0
 17 29  2  0  0  0  0
 17 30  1  0  0  0  0
 18 32  1  0  0  0  0
 19 32  1  0  0  0  0
 19 33  2  0  0  0  0
 19 34  1  0  0  0  0
 20 22  2  0  0  0  0
 20 39  1  0  0  0  0
 21 23  2  0  0  0  0
 21 40  1  0  0  0  0
 22 52  1  0  0  0  0
 23 41  1  0  0  0  0
 24 31  2  0  0  0  0
 24 61  1  0  0  0  0
 25 67  1  0  0  0  0
 26 81  1  0  0  0  0
 27 82  1  0  0  0  0
 28 30  2  0  0  0  0
 28 81  1  0  0  0  0
 29 83  1  0  0  0  0
 30 84  1  0  0  0  0
 31 85  1  0  0  0  0
 32 65  2  0  0  0  0
 33 66  1  0  0  0  0
 33 70  1  0  0  0  0
 34 71  1  0  0  0  0
 34 76  2  0  0  0  0
 35 53  1  0  0  0  0
 35 72  1  0  0  0  0
 35 77  2  0  0  0  0
 36 62  1  0  0  0  0
 36 68  1  0  0  0  0
 36 78  2  0  0  0  0
 37 63  1  0  0  0  0
 37 73  1  0  0  0  0
 37 79  2  0  0  0  0
 38 69  1  0  0  0  0
 38 74  1  0  0  0  0
 38 80  2  0  0  0  0
 39 42  1  0  0  0  0
 40 53  1  0  0  0  0
 41 68  1  0  0  0  0
 42 44  1  0  0  0  0
 43 45  1  0  0  0  0
 43 48  1  0  0  0  0
 44 52  1  0  0  0  0
 45 54  1  0  0  0  0
 46 49  1  0  0  0  0
 46 55  1  0  0  0  0
 47 50  1  0  0  0  0
 47 55  1  0  0  0  0
 48 69  1  0  0  0  0
 49 67  1  0  0  0  0
 50 67  1  0  0  0  0
 51 54  1  0  0  0  0
 51 69  1  0  0  0  0
 52 72  1  0  0  0  0
 53 68  1  0  0  0  0
 54 66  1  0  0  0  0
 55 82  1  0  0  0  0
 56 63  1  0  0  0  0
 57 64  1  0  0  0  0
 58 64  1  0  0  0  0
 59 64  1  0  0  0  0
 60 75  1  0  0  0  0
 61 74  1  0  0  0  0
 62 64  1  0  0  0  0
 62 73  1  0  0  0  0
 63 75  1  0  0  0  0
 65 66  1  0  0  0  0
M  CHG  1  75   1
M  ISO  4  38 100  55 101  74 100  82 101
M  END
> <Batch ID>
0031

> <Smiles>
CNC(C)C(=O)NC(C(=O)N1Cc2cc([101O:1][101CH:1]3CCN(c4ccc(C[100NH:0][100C:0](=O)N5CCCC(n6nc(-c7ccc(Oc8ccc(F)cc8F)cc7)c(C(N)=O)c6N)C5)c(Cl)c4)CC3)ccc2CC1C(=O)NC1CCCc2ccccc21)C(C)(C)C

> <Shape>
0.288

> <Color>
0.131

> <Negative vol penalty>
0.000

$$$$

  -OEChem-04042321393D

 88 97  0     1  0  0  0  0  0999 V2000
  -29.0800  -25.4128   16.6001 C   0  0  0  0  0  0  0  0  0  0  0  0
  -27.7150  -25.6189   16.7726 C   0  0  0  0  0  0  0  0  0  0  0  0
  -26.2904  -14.4732   18.7366 C   0  0  0  0  0  0  0  0  0  0  0  0
  -24.2827  -14.7646   20.0486 C   0  0  0  0  0  0  0  0  0  0  0  0
  -29.9599  -25.6611   17.6528 C   0  0  0  0  0  0  0  0  0  0  0  0
  -27.2290  -26.0725   17.9983 C   0  0  0  0  0  0  0  0  0  0  0  0
  -22.4763  -29.8251   18.9129 C   0  0  0  0  0  0  0  0  0  0  0  0
  -26.4974  -13.2279   19.3298 C   0  0  0  0  0  0  0  0  0  0  0  0
  -24.4897  -13.5192   20.6418 C   0  0  0  0  0  0  0  0  0  0  0  0
  -21.1458  -29.5874   19.2547 C   0  0  0  0  0  0  0  0  0  0  0  0
  -24.0274  -10.2702   19.8352 C   0  0  0  0  0  0  0  0  0  0  0  0
  -22.9287   -9.4187   19.9511 C   0  0  0  0  0  0  0  0  0  0  0  0
  -21.6760  -29.9894   21.5734 C   0  0  0  0  0  0  0  0  0  0  0  0
  -22.3178  -24.4246   21.7034 C   0  0  0  0  0  0  0  0  0  0  0  0
  -23.1920   -9.4061   22.3527 C   0  0  0  0  0  0  0  0  0  0  0  0
  -25.1831  -15.2416   19.0960 C   0  0  0  0  0  0  0  0  0  0  0  0
  -24.2413  -16.8010   17.3102 C   0  0  0  0  0  0  0  0  0  0  0  0
  -29.4853  -26.1273   18.8890 C   0  0  0  0  0  0  0  0  0  0  0  0
  -23.4206  -30.1366   19.9017 C   0  0  0  0  0  0  0  0  0  0  0  0
  -28.1031  -26.3261   19.0689 C   0  0  0  0  0  0  0  0  0  0  0  0
  -23.0174  -30.2331   21.2412 C   0  0  0  0  0  0  0  0  0  0  0  0
  -21.2770  -25.0713   22.3698 C   0  0  0  0  0  0  0  0  0  0  0  0
  -19.6833  -23.5933   21.3147 C   0  0  0  0  0  0  0  0  0  0  0  0
  -19.9598  -24.6557   22.1755 C   0  0  0  0  0  0  0  0  0  0  0  0
  -20.7242  -22.9467   20.6483 C   0  0  0  0  0  0  0  0  0  0  0  0
  -22.0415  -23.3624   20.8426 C   0  0  0  0  0  0  0  0  0  0  0  0
  -25.5970  -12.7509   20.2824 C   0  0  0  0  0  0  0  0  0  0  0  0
  -20.7460  -29.6667   20.5855 C   0  0  0  0  0  0  0  0  0  0  0  0
  -24.7084  -10.6896   20.9780 C   0  0  0  0  0  0  0  0  0  0  0  0
  -22.5110   -8.9867   21.2099 C   0  0  0  0  0  0  0  0  0  0  0  0
  -24.2907  -10.2576   22.2368 C   0  0  0  0  0  0  0  0  0  0  0  0
  -24.9691  -16.5284   18.4840 C   0  0  0  0  0  0  0  0  0  0  0  0
  -24.3367  -18.1624   17.1554 C   0  0  0  0  0  0  0  0  0  0  0  0
  -17.3491  -27.2637   22.7579 C   0  0  0  0  0  0  0  0  0  0  0  0
  -16.2396  -26.9493   23.4360 C   0  0  0  0  0  0  0  0  0  0  0  0
  -23.5416  -15.9038   16.4378 C   0  0  0  0  0  0  0  0  0  0  0  0
  -26.0862  -28.7717   20.9673 C   0  0  0  0  0  0  0  0  0  0  0  0
  -26.3112  -31.4882   22.7257 C   0  0  0  0  0  0  0  0  0  0  0  0
  -24.7281  -34.1455   24.1678 C   0  0  0  0  0  0  0  0  0  0  0  0
  -24.4718  -23.0226   20.2731 C   0  0  0  0  0  0  0  0  0  0  0  0
  -30.4697  -26.3366   20.0123 C   0  0  0  0  0  0  0  0  0  0  0  0
  -24.8465  -30.4164   19.5134 C   0  0  0  0  0  0  0  0  0  0  0  0
  -23.9880  -30.5840   22.3382 C   0  0  0  0  0  0  0  0  0  0  0  0
  -17.9264  -28.6365   22.6168 C   0  0  0  0  0  0  0  0  0  0  0  0
  -29.9136  -27.1733   21.1615 C   0  0  0  0  0  0  0  0  0  0  0  0
  -27.4218  -21.6519   18.8254 C   0  0  0  0  0  0  0  0  0  0  0  0
  -28.5187  -26.6910   21.5468 C   0  0  0  0  0  0  0  0  0  0  0  0
  -27.0205  -20.2174   18.4743 C   0  0  0  0  0  0  0  0  0  0  0  0
  -26.7813  -22.1163   20.1322 C   0  0  0  0  0  0  0  0  0  0  0  0
  -24.9213  -20.5262   19.8472 C   0  0  0  0  0  0  0  0  0  0  0  0
  -18.9058  -27.0807   21.0565 C   0  0  0  0  0  0  0  0  0  0  0  0
  -27.5401  -26.8411   20.3757 C   0  0  1  0  0  0  0  0  0  0  0  0
  -25.8286  -30.2206   20.6642 C   0  0  1  0  0  0  0  0  0  0  0  0
  -25.4902  -20.0366   18.5054 C   0  0  2  0  0  0  0  0  0  0  0  0
  -19.1954  -28.3670   21.8183 C   0  0  1  0  0  0  0  0  0  1  0  0
  -21.5995  -26.2085   23.2831 C   0  0  0  0  0  0  0  0  0  0  0  0
  -18.2700  -23.1481   21.1066 C   0  0  0  0  0  0  0  0  0  0  0  0
  -20.4249  -21.8081   19.7238 C   0  0  0  0  0  0  0  0  0  0  0  0
  -15.6973  -25.5648   23.5519 C   0  0  0  0  0  0  0  0  0  0  0  0
  -25.1714  -36.1773   25.5723 C   0  0  0  0  0  0  0  0  0  0  0  0
  -26.5873  -29.7179   25.1954 C   0  0  0  0  0  0  0  0  0  0  0  0
  -26.0725  -31.7225   26.6042 C   0  0  0  0  0  0  0  0  0  0  0  0
  -28.1067  -31.7040   25.1604 C   0  0  0  0  0  0  0  0  0  0  0  0
  -23.7416  -35.9654   22.0528 C   0  0  0  0  0  0  0  0  0  0  0  0
  -18.8425  -25.3543   22.8929 C   0  0  0  0  0  0  0  0  0  0  0  0
  -25.8276  -31.9231   24.0881 C   0  0  1  0  0  0  0  0  0  0  0  0
  -25.0417  -35.6307   24.1590 C   0  0  2  0  0  0  0  0  0  0  0  0
  -26.6304  -31.2583   25.2418 C   0  0  0  0  0  0  0  0  0  0  0  0
  -25.4886  -17.6283   19.0357 N   0  0  0  0  0  0  0  0  0  0  0  0
  -25.0869  -18.6052   18.2048 N   0  0  0  0  0  0  0  0  0  0  0  0
  -25.3722  -30.8427   21.9088 N   0  0  0  0  0  0  0  0  0  0  0  0
  -25.3308  -21.9188   20.0873 N   0  0  0  0  0  0  0  0  0  0  0  0
  -23.8513  -19.0119   16.2253 N   0  0  0  0  0  0  0  0  0  0  0  0
  -23.5442  -14.5361   16.7442 N   0  0  0  0  0  0  0  0  0  0  0  0
  -23.1141  -22.7192   20.1766 N   0  0  0  0  0  0  0  0  0  0  0  0
  -27.1231  -28.2202   20.2392 N   0  0  0  0  0  0  0  0  0  0  0  0
  -25.8733  -33.3812   24.0912 N   0  0  0  0  0  0  0  0  0  0  0  0
  -18.0480  -26.2643   22.0002 N   0  3  1  0  0  0  0  0  0  0  0  0
  -23.9618  -36.3840   23.4611 N   0  3  0  0  0  0  0  0  0  0  0  0
  -22.9458  -16.3010   15.4079 O   0  0  0  0  0  0  0  0  0  0  0  0
  -25.3962  -28.1970   21.8011 O   0  0  0  0  0  0  0  0  0  0  0  0
  -27.4771  -31.7195   22.3956 O   0  0  0  0  0  0  0  0  0  0  0  0
  -23.5822  -33.7070   24.2395 O   0  0  0  0  0  0  0  0  0  0  0  0
  -24.9090  -24.1586   20.4739 O   0  0  0  0  0  0  0  0  0  0  0  0
  -25.7985  -11.5356   20.8613 O   0  0  0  0  0  0  0  0  0  0  0  0
  -19.4480  -29.4345   20.9220 O   0  0  0  0  0  0  0  0  0  1  0  0
  -21.4550   -8.1702   21.3212 F   0  0  0  0  0  0  0  0  0  0  0  0
  -24.9402  -10.6581   23.3383 F   0  0  0  0  0  0  0  0  0  0  0  0
  1  2  1  0  0  0  0
  1  5  2  0  0  0  0
  2  6  2  0  0  0  0
  3  8  2  0  0  0  0
  3 16  1  0  0  0  0
  4  9  1  0  0  0  0
  4 16  2  0  0  0  0
  5 18  1  0  0  0  0
  6 20  1  0  0  0  0
  7 10  2  0  0  0  0
  7 19  1  0  0  0  0
  8 27  1  0  0  0  0
  9 27  2  0  0  0  0
 10 28  1  0  0  0  0
 11 12  2  0  0  0  0
 11 29  1  0  0  0  0
 12 30  1  0  0  0  0
 13 21  1  0  0  0  0
 13 28  2  0  0  0  0
 14 22  2  0  0  0  0
 14 26  1  0  0  0  0
 15 30  2  0  0  0  0
 15 31  1  0  0  0  0
 16 32  1  0  0  0  0
 17 32  1  0  0  0  0
 17 33  2  0  0  0  0
 17 36  1  0  0  0  0
 18 20  2  0  0  0  0
 18 41  1  0  0  0  0
 19 21  2  0  0  0  0
 19 42  1  0  0  0  0
 20 52  1  0  0  0  0
 21 43  1  0  0  0  0
 22 24  1  0  0  0  0
 22 56  1  0  0  0  0
 23 24  2  0  0  0  0
 23 25  1  0  0  0  0
 23 57  1  0  0  0  0
 24 65  1  0  0  0  0
 25 26  2  0  0  0  0
 25 58  1  0  0  0  0
 26 75  1  0  0  0  0
 27 85  1  0  0  0  0
 28 86  1  0  0  0  0
 29 31  2  0  0  0  0
 29 85  1  0  0  0  0
 30 87  1  0  0  0  0
 31 88  1  0  0  0  0
 32 69  2  0  0  0  0
 33 70  1  0  0  0  0
 33 73  1  0  0  0  0
 34 35  2  0  0  0  0
 34 44  1  0  0  0  0
 34 78  1  0  0  0  0
 35 59  1  0  0  0  0
 36 74  1  0  0  0  0
 36 80  2  0  0  0  0
 37 53  1  0  0  0  0
 37 76  1  0  0  0  0
 37 81  2  0  0  0  0
 38 66  1  0  0  0  0
 38 71  1  0  0  0  0
 38 82  2  0  0  0  0
 39 67  1  0  0  0  0
 39 77  1  0  0  0  0
 39 83  2  0  0  0  0
 40 72  1  0  0  0  0
 40 75  1  0  0  0  0
 40 84  2  0  0  0  0
 41 45  1  0  0  0  0
 42 53  1  0  0  0  0
 43 71  1  0  0  0  0
 44 55  1  0  0  0  0
 45 47  1  0  0  0  0
 46 48  1  0  0  0  0
 46 49  1  0  0  0  0
 47 52  1  0  0  0  0
 48 54  1  0  0  0  0
 49 72  1  0  0  0  0
 50 54  1  0  0  0  0
 50 72  1  0  0  0  0
 51 55  1  0  0  0  0
 51 78  1  0  0  0  0
 52 76  1  0  0  0  0
 53 71  1  0  0  0  0
 54 70  1  0  0  0  0
 55 86  1  0  0  0  0
 60 67  1  0  0  0  0
 61 68  1  0  0  0  0
 62 68  1  0  0  0  0
 63 68  1  0  0  0  0
 64 79  1  0  0  0  0
 65 78  1  0  0  0  0
 66 68  1  0  0  0  0
 66 77  1  0  0  0  0
 67 79  1  0  0  0  0
 69 70  1  0  0  0  0
M  CHG  2  78   1  79   1
M  ISO  4  40 100  55 101  75 100  86 101
M  END
> <Batch ID>
0031

> <Smiles>
CC=C1C[101CH:1]([101O:1]c2ccc3c(c2)CN(C(=O)C(NC(=O)C(C)NC)C(C)(C)C)C(C(=O)NC2CCCc4ccccc42)C3)CN1Cc1c(C)cc([100NH:0][100C:0](=O)N2CCCC(n3nc(-c4ccc(Oc5ccc(F)cc5F)cc4)c(C(N)=O)c3N)C2)c(C)c1C

> <Shape>
0.305

> <Color>
0.078

> <Negative vol penalty>
0.000

$$$$

  -OEChem-04042321393D

 86 95  0     1  0  0  0  0  0999 V2000
  -26.6687  -37.8345   21.4213 C   0  0  0  0  0  0  0  0  0  0  0  0
  -27.2396  -36.7948   20.6942 C   0  0  0  0  0  0  0  0  0  0  0  0
  -23.1310  -10.3337   23.5448 C   0  0  0  0  0  0  0  0  0  0  0  0
  -24.0257  -10.4718   21.3048 C   0  0  0  0  0  0  0  0  0  0  0  0
  -26.0191  -37.5668   22.6255 C   0  0  0  0  0  0  0  0  0  0  0  0
  -27.1620  -35.4869   21.1715 C   0  0  0  0  0  0  0  0  0  0  0  0
  -26.6519  -28.7237   18.8662 C   0  0  0  0  0  0  0  0  0  0  0  0
  -22.3865   -9.2126   23.1783 C   0  0  0  0  0  0  0  0  0  0  0  0
  -23.2811   -9.3506   20.9383 C   0  0  0  0  0  0  0  0  0  0  0  0
  -27.2733  -27.4847   19.0167 C   0  0  0  0  0  0  0  0  0  0  0  0
  -20.5274   -6.0985   22.9300 C   0  0  0  0  0  0  0  0  0  0  0  0
  -20.5205   -5.0108   23.8032 C   0  0  0  0  0  0  0  0  0  0  0  0
  -26.0572  -27.1310   21.0698 C   0  0  0  0  0  0  0  0  0  0  0  0
  -28.3946  -20.1282   20.5258 C   0  0  0  0  0  0  0  0  0  0  0  0
  -22.9188   -4.8190   23.5833 C   0  0  0  0  0  0  0  0  0  0  0  0
  -23.9506  -10.9634   22.6080 C   0  0  0  0  0  0  0  0  0  0  0  0
  -26.0264  -12.1412   23.5087 C   0  0  0  0  0  0  0  0  0  0  0  0
  -25.9251  -36.2537   23.1130 C   0  0  0  0  0  0  0  0  0  0  0  0
  -25.7352  -29.1812   19.8236 C   0  0  0  0  0  0  0  0  0  0  0  0
  -26.5116  -35.2016   22.3841 C   0  0  0  0  0  0  0  0  0  0  0  0
  -25.4237  -28.3750   20.9278 C   0  0  0  0  0  0  0  0  0  0  0  0
  -29.4443  -20.7541   19.8535 C   0  0  0  0  0  0  0  0  0  0  0  0
  -30.7001  -20.1490   19.8040 C   0  0  0  0  0  0  0  0  0  0  0  0
  -30.9063  -18.9180   20.4268 C   0  0  0  0  0  0  0  0  0  0  0  0
  -29.8566  -18.2922   21.0992 C   0  0  0  0  0  0  0  0  0  0  0  0
  -28.6008  -18.8972   21.1487 C   0  0  0  0  0  0  0  0  0  0  0  0
  -22.4615   -8.7210   21.8751 C   0  0  0  0  0  0  0  0  0  0  0  0
  -26.9782  -26.6894   20.1201 C   0  0  0  0  0  0  0  0  0  0  0  0
  -21.7300   -6.5464   22.3833 C   0  0  0  0  0  0  0  0  0  0  0  0
  -21.7162   -4.3711   24.1299 C   0  0  0  0  0  0  0  0  0  0  0  0
  -22.9257   -5.9067   22.7100 C   0  0  0  0  0  0  0  0  0  0  0  0
  -24.7195  -12.1219   22.9858 C   0  0  0  0  0  0  0  0  0  0  0  0
  -26.3003  -13.4735   23.6994 C   0  0  0  0  0  0  0  0  0  0  0  0
  -26.9136  -11.0522   23.7964 C   0  0  0  0  0  0  0  0  0  0  0  0
  -25.6104  -31.6658   21.8022 C   0  0  0  0  0  0  0  0  0  0  0  0
  -22.6366  -30.5272   22.4207 C   0  0  0  0  0  0  0  0  0  0  0  0
  -20.4976  -27.8681   22.4359 C   0  0  0  0  0  0  0  0  0  0  0  0
  -26.2184  -18.7611   21.9563 C   0  0  0  0  0  0  0  0  0  0  0  0
  -25.2540  -36.0196   24.4433 C   0  0  0  0  0  0  0  0  0  0  0  0
  -25.0535  -30.5083   19.6329 C   0  0  0  0  0  0  0  0  0  0  0  0
  -24.4315  -28.8114   21.9735 C   0  0  0  0  0  0  0  0  0  0  0  0
  -24.8898  -34.5583   24.6929 C   0  0  0  0  0  0  0  0  0  0  0  0
  -23.2652  -17.5201   23.5105 C   0  0  0  0  0  0  0  0  0  0  0  0
  -26.0625  -33.6483   24.3414 C   0  0  0  0  0  0  0  0  0  0  0  0
  -23.4878  -16.0066   23.5556 C   0  0  0  0  0  0  0  0  0  0  0  0
  -29.4242  -24.8216   21.6697 C   0  0  0  0  0  0  0  0  0  0  0  0
  -23.8286  -18.1384   22.2322 C   0  0  0  0  0  0  0  0  0  0  0  0
  -25.4573  -16.3046   22.0001 C   0  0  0  0  0  0  0  0  0  0  0  0
  -29.2885  -23.3420   21.3715 C   0  0  0  0  0  0  0  0  0  0  0  0
  -29.5964  -24.5811   19.2811 C   0  0  0  0  0  0  0  0  0  0  0  0
  -26.4268  -33.7665   22.8565 C   0  0  1  0  0  0  0  0  0  0  0  0
  -24.5219  -31.0996   20.9349 C   0  0  1  0  0  0  0  0  0  0  0  0
  -24.9643  -15.6463   23.2991 C   0  0  2  0  0  0  0  0  0  0  0  0
  -29.0077  -25.4736   20.3625 C   0  0  1  0  0  0  0  0  0  1  0  0
  -31.8241  -20.8238   19.0830 C   0  0  0  0  0  0  0  0  0  0  0  0
  -32.2538  -18.2696   20.3734 C   0  0  0  0  0  0  0  0  0  0  0  0
  -30.0808  -16.9720   21.7682 C   0  0  0  0  0  0  0  0  0  0  0  0
  -18.1426  -27.2376   23.0309 C   0  0  0  0  0  0  0  0  0  0  0  0
  -23.3841  -30.5368   25.3789 C   0  0  0  0  0  0  0  0  0  0  0  0
  -21.4189  -29.0465   25.8088 C   0  0  0  0  0  0  0  0  0  0  0  0
  -21.0666  -31.3371   24.8859 C   0  0  0  0  0  0  0  0  0  0  0  0
  -19.8778  -27.0918   19.6480 C   0  0  0  0  0  0  0  0  0  0  0  0
  -29.1971  -22.0794   19.1951 C   0  0  0  0  0  0  0  0  0  0  0  0
  -22.0522  -29.5417   23.4036 C   0  0  1  0  0  0  0  0  0  0  0  0
  -19.0747  -27.7170   21.9290 C   0  0  2  0  0  0  0  0  0  0  0  0
  -22.0006  -30.1078   24.8508 C   0  0  0  0  0  0  0  0  0  0  0  0
  -24.1992  -13.3448   22.8529 N   0  0  0  0  0  0  0  0  0  0  0  0
  -25.1841  -14.1451   23.2951 N   0  0  0  0  0  0  0  0  0  0  0  0
  -23.7961  -30.1198   21.7458 N   0  0  0  0  0  0  0  0  0  0  0  0
  -25.2319  -17.7574   22.0573 N   0  0  0  0  0  0  0  0  0  0  0  0
  -27.3845  -14.1245   24.1718 N   0  0  0  0  0  0  0  0  0  0  0  0
  -26.4733   -9.7464   23.5408 N   0  0  0  0  0  0  0  0  0  0  0  0
  -27.5203  -18.2788   21.8253 N   0  0  0  0  0  0  0  0  0  0  0  0
  -25.4888  -33.0206   22.0451 N   0  0  0  0  0  0  0  0  0  0  0  0
  -20.7523  -29.1526   22.8676 N   0  0  0  0  0  0  0  0  0  0  0  0
  -29.7868  -23.2273   19.9497 N   0  3  2  0  0  0  0  0  0  0  0  0
  -19.0249  -26.7335   20.8105 N   0  3  0  0  0  0  0  0  0  0  0  0
  -28.0565  -11.2308   24.2815 O   0  0  0  0  0  0  0  0  0  0  0  0
  -26.4944  -30.9277   22.2214 O   0  0  0  0  0  0  0  0  0  0  0  0
  -22.0807  -31.6155   22.2525 O   0  0  0  0  0  0  0  0  0  0  0  0
  -21.3015  -26.9385   22.4511 O   0  0  0  0  0  0  0  0  0  0  0  0
  -25.9325  -19.9599   22.0112 O   0  0  0  0  0  0  0  0  0  0  0  0
  -21.7353   -7.6269   21.5172 O   0  0  0  0  0  0  0  0  0  0  0  0
  -27.5837  -25.4800   20.2698 O   0  0  0  0  0  0  0  0  0  1  0  0
  -21.7096   -3.3276   24.9696 F   0  0  0  0  0  0  0  0  0  0  0  0
  -24.0843   -6.3332   22.1889 F   0  0  0  0  0  0  0  0  0  0  0  0
  1  2  1  0  0  0  0
  1  5  2  0  0  0  0
  2  6  2  0  0  0  0
  3  8  2  0  0  0  0
  3 16  1  0  0  0  0
  4  9  1  0  0  0  0
  4 16  2  0  0  0  0
  5 18  1  0  0  0  0
  6 20  1  0  0  0  0
  7 10  2  0  0  0  0
  7 19  1  0  0  0  0
  8 27  1  0  0  0  0
  9 27  2  0  0  0  0
 10 28  1  0  0  0  0
 11 12  2  0  0  0  0
 11 29  1  0  0  0  0
 12 30  1  0  0  0  0
 13 21  1  0  0  0  0
 13 28  2  0  0  0  0
 14 22  1  0  0  0  0
 14 26  2  0  0  0  0
 15 30  2  0  0  0  0
 15 31  1  0  0  0  0
 16 32  1  0  0  0  0
 17 32  1  0  0  0  0
 17 33  2  0  0  0  0
 17 34  1  0  0  0  0
 18 20  2  0  0  0  0
 18 39  1  0  0  0  0
 19 21  2  0  0  0  0
 19 40  1  0  0  0  0
 20 51  1  0  0  0  0
 21 41  1  0  0  0  0
 22 23  2  0  0  0  0
 22 63  1  0  0  0  0
 23 24  1  0  0  0  0
 23 55  1  0  0  0  0
 24 25  2  0  0  0  0
 24 56  1  0  0  0  0
 25 26  1  0  0  0  0
 25 57  1  0  0  0  0
 26 73  1  0  0  0  0
 27 83  1  0  0  0  0
 28 84  1  0  0  0  0
 29 31  2  0  0  0  0
 29 83  1  0  0  0  0
 30 85  1  0  0  0  0
 31 86  1  0  0  0  0
 32 67  2  0  0  0  0
 33 68  1  0  0  0  0
 33 71  1  0  0  0  0
 34 72  1  0  0  0  0
 34 78  2  0  0  0  0
 35 52  1  0  0  0  0
 35 74  1  0  0  0  0
 35 79  2  0  0  0  0
 36 64  1  0  0  0  0
 36 69  1  0  0  0  0
 36 80  2  0  0  0  0
 37 65  1  0  0  0  0
 37 75  1  0  0  0  0
 37 81  2  0  0  0  0
 38 70  1  0  0  0  0
 38 73  1  0  0  0  0
 38 82  2  0  0  0  0
 39 42  1  0  0  0  0
 40 52  1  0  0  0  0
 41 69  1  0  0  0  0
 42 44  1  0  0  0  0
 43 45  1  0  0  0  0
 43 47  1  0  0  0  0
 44 51  1  0  0  0  0
 45 53  1  0  0  0  0
 46 49  1  0  0  0  0
 46 54  1  0  0  0  0
 47 70  1  0  0  0  0
 48 53  1  0  0  0  0
 48 70  1  0  0  0  0
 49 76  1  0  0  0  0
 50 54  1  0  0  0  0
 50 76  1  0  0  0  0
 51 74  1  0  0  0  0
 52 69  1  0  0  0  0
 53 68  1  0  0  0  0
 54 84  1  0  0  0  0
 58 65  1  0  0  0  0
 59 66  1  0  0  0  0
 60 66  1  0  0  0  0
 61 66  1  0  0  0  0
 62 77  1  0  0  0  0
 63 76  1  0  0  0  0
 64 66  1  0  0  0  0
 64 75  1  0  0  0  0
 65 77  1  0  0  0  0
 67 68  1  0  0  0  0
M  CHG  2  76   1  77   1
M  ISO  4  38 100  54 101  73 100  84 101
M  END
> <Batch ID>
0031

> <Smiles>
CNC(C)C(=O)NC(C(=O)N1Cc2cc([101O:1][101CH:1]3CCN(Cc4cc([100NH:0][100C:0](=O)N5CCCC(n6nc(-c7ccc(Oc8ccc(F)cc8F)cc7)c(C(N)=O)c6N)C5)c(C)c(C)c4C)C3)ccc2CC1C(=O)NC1CCCc2ccccc21)C(C)(C)C

> <Shape>
0.299

> <Color>
0.072

> <Negative vol penalty>
0.000

$$$$

  -OEChem-04042321393D

 87 96  0     1  0  0  0  0  0999 V2000
  -21.1907  -20.0088   31.3628 C   0  0  0  0  0  0  0  0  0  0  0  0
  -21.0975  -21.3658   31.0711 C   0  0  0  0  0  0  0  0  0  0  0  0
  -28.8707  -17.5241   21.2030 C   0  0  0  0  0  0  0  0  0  0  0  0
  -31.2343  -17.9719   20.9804 C   0  0  0  0  0  0  0  0  0  0  0  0
  -21.9855  -19.1799   30.5720 C   0  0  0  0  0  0  0  0  0  0  0  0
  -21.7999  -21.8951   29.9890 C   0  0  0  0  0  0  0  0  0  0  0  0
  -21.3184  -26.9854   24.9717 C   0  0  0  0  0  0  0  0  0  0  0  0
  -29.1304  -16.1537   21.2045 C   0  0  0  0  0  0  0  0  0  0  0  0
  -31.4941  -16.6015   20.9819 C   0  0  0  0  0  0  0  0  0  0  0  0
  -22.0461  -28.0524   24.4466 C   0  0  0  0  0  0  0  0  0  0  0  0
  -29.8287  -13.7488   18.9344 C   0  0  0  0  0  0  0  0  0  0  0  0
  -29.0163  -12.9351   18.1448 C   0  0  0  0  0  0  0  0  0  0  0  0
  -23.3253  -26.5108   23.1028 C   0  0  0  0  0  0  0  0  0  0  0  0
  -29.3118  -29.3624   19.0310 C   0  0  0  0  0  0  0  0  0  0  0  0
  -28.3253  -11.7156   20.1127 C   0  0  0  0  0  0  0  0  0  0  0  0
  -29.9226  -18.4333   21.0909 C   0  0  0  0  0  0  0  0  0  0  0  0
  -29.5980  -20.7052   22.2047 C   0  0  0  0  0  0  0  0  0  0  0  0
  -22.6904  -19.6975   29.4739 C   0  0  0  0  0  0  0  0  0  0  0  0
  -21.5965  -25.6699   24.5738 C   0  0  0  0  0  0  0  0  0  0  0  0
  -22.6060  -21.0726   29.1836 C   0  0  0  0  0  0  0  0  0  0  0  0
  -22.5980  -25.4291   23.6224 C   0  0  0  0  0  0  0  0  0  0  0  0
  -28.2741  -30.1011   19.5994 C   0  0  0  0  0  0  0  0  0  0  0  0
  -30.0590  -28.4879   19.8200 C   0  0  0  0  0  0  0  0  0  0  0  0
  -29.7686  -28.3522   21.1776 C   0  0  0  0  0  0  0  0  0  0  0  0
  -28.7309  -29.0910   21.7460 C   0  0  0  0  0  0  0  0  0  0  0  0
  -27.9837  -29.9654   20.9569 C   0  0  0  0  0  0  0  0  0  0  0  0
  -30.4421  -15.6923   21.0940 C   0  0  0  0  0  0  0  0  0  0  0  0
  -23.0517  -27.8150   23.5142 C   0  0  0  0  0  0  0  0  0  0  0  0
  -29.8895  -13.5459   20.3131 C   0  0  0  0  0  0  0  0  0  0  0  0
  -28.2645  -11.9185   18.7340 C   0  0  0  0  0  0  0  0  0  0  0  0
  -29.1378  -12.5294   20.9022 C   0  0  0  0  0  0  0  0  0  0  0  0
  -29.6549  -19.8490   21.0887 C   0  0  0  0  0  0  0  0  0  0  0  0
  -29.3150  -21.9407   21.6756 C   0  0  0  0  0  0  0  0  0  0  0  0
  -29.7844  -20.4100   23.5954 C   0  0  0  0  0  0  0  0  0  0  0  0
  -22.5936  -23.0411   26.0566 C   0  0  0  0  0  0  0  0  0  0  0  0
  -22.0433  -21.6722   23.1677 C   0  0  0  0  0  0  0  0  0  0  0  0
  -21.7484  -22.0550   19.7894 C   0  0  0  0  0  0  0  0  0  0  0  0
  -30.1522  -25.8948   17.8274 C   0  0  0  0  0  0  0  0  0  0  0  0
  -23.5742  -18.7712   28.6767 C   0  0  0  0  0  0  0  0  0  0  0  0
  -20.7845  -24.5323   25.1296 C   0  0  0  0  0  0  0  0  0  0  0  0
  -22.9220  -24.0371   23.1469 C   0  0  0  0  0  0  0  0  0  0  0  0
  -23.9900  -19.3413   27.3230 C   0  0  0  0  0  0  0  0  0  0  0  0
  -27.8831  -23.2752   17.0114 C   0  0  0  0  0  0  0  0  0  0  0  0
  -24.4601  -20.7847   27.4734 C   0  0  0  0  0  0  0  0  0  0  0  0
  -28.1415  -22.2191   18.0873 C   0  0  0  0  0  0  0  0  0  0  0  0
  -23.1909  -30.4395   21.2858 C   0  0  0  0  0  0  0  0  0  0  0  0
  -29.1704  -23.9834   16.5949 C   0  0  0  0  0  0  0  0  0  0  0  0
  -30.2020  -23.5113   18.7828 C   0  0  0  0  0  0  0  0  0  0  0  0
  -24.4108  -31.3114   21.5051 C   0  0  0  0  0  0  0  0  0  0  0  0
  -25.1133  -29.0191   21.0034 C   0  0  0  0  0  0  0  0  0  0  0  0
  -23.3332  -21.6795   28.0034 C   0  0  1  0  0  0  0  0  0  0  0  0
  -21.4990  -23.1875   25.0378 C   0  0  1  0  0  0  0  0  0  0  0  0
  -28.9251  -22.8089   19.2753 C   0  0  2  0  0  0  0  0  0  0  0  0
  -23.7093  -29.0439   21.5872 C   0  0  1  0  0  0  0  0  0  1  0  0
  -27.4898  -31.0309   18.7324 C   0  0  0  0  0  0  0  0  0  0  0  0
  -30.5721  -27.4142   22.0216 C   0  0  0  0  0  0  0  0  0  0  0  0
  -28.4189  -28.9450   23.2021 C   0  0  0  0  0  0  0  0  0  0  0  0
  -21.3335  -20.7482   17.6876 C   0  0  0  0  0  0  0  0  0  0  0  0
  -24.9026  -20.6117   23.2655 C   0  0  0  0  0  0  0  0  0  0  0  0
  -24.7441  -20.1575   20.8086 C   0  0  0  0  0  0  0  0  0  0  0  0
  -23.2158  -18.9845   22.3932 C   0  0  0  0  0  0  0  0  0  0  0  0
  -19.2872  -23.5840   19.1865 C   0  0  0  0  0  0  0  0  0  0  0  0
  -31.1643  -27.7079   19.1866 C   0  0  0  0  0  0  0  0  0  0  0  0
  -26.8669  -30.7611   21.5657 C   0  0  0  0  0  0  0  0  0  0  0  0
  -22.8617  -21.4428   21.9201 C   0  0  1  0  0  0  0  0  0  0  0  0
  -20.7018  -21.5607   18.8072 C   0  0  2  0  0  0  0  0  0  0  0  0
  -23.9265  -20.3253   22.1071 C   0  0  0  0  0  0  0  0  0  0  0  0
  -29.4262  -20.4866   19.9375 N   0  0  0  0  0  0  0  0  0  0  0  0
  -29.2228  -21.7566   20.3274 N   0  0  0  0  0  0  0  0  0  0  0  0
  -22.1044  -22.9575   23.7245 N   0  0  0  0  0  0  0  0  0  0  0  0
  -29.8645  -24.5212   17.7674 N   0  0  0  0  0  0  0  0  0  0  0  0
  -29.1383  -23.1557   22.2368 N   0  0  0  0  0  0  0  0  0  0  0  0
  -30.0689  -19.0886   23.9656 N   0  0  0  0  0  0  0  0  0  0  0  0
  -22.4009  -21.9993   26.9437 N   0  0  0  0  0  0  0  0  0  0  0  0
  -21.9072  -21.1851   20.8474 N   0  0  0  0  0  0  0  0  0  0  0  0
  -30.8064  -26.3228   18.9761 N   0  0  0  0  0  0  0  0  0  0  0  0
  -25.5384  -30.4791   20.9408 N   0  3  2  0  0  0  0  0  0  0  0  0
  -19.9761  -22.7123   18.2004 N   0  3  0  0  0  0  0  0  0  0  0  0
  -29.6850  -21.2890   24.4848 O   0  0  0  0  0  0  0  0  0  0  0  0
  -23.5435  -23.8150   26.0383 O   0  0  0  0  0  0  0  0  0  0  0  0
  -21.3688  -20.7472   23.6272 O   0  0  0  0  0  0  0  0  0  0  0  0
  -22.3663  -23.1057   19.6318 O   0  0  0  0  0  0  0  0  0  0  0  0
  -29.8437  -26.6823   16.9265 O   0  0  0  0  0  0  0  0  0  0  0  0
  -30.6960  -14.3551   21.0957 O   0  0  0  0  0  0  0  0  0  0  0  0
  -23.7639  -28.8546   23.0005 O   0  0  0  0  0  0  0  0  0  1  0  0
  -27.4832  -11.1382   17.9759 F   0  0  0  0  0  0  0  0  0  0  0  0
  -29.1912  -12.3304   22.2264 F   0  0  0  0  0  0  0  0  0  0  0  0
  1  2  1  0  0  0  0
  1  5  2  0  0  0  0
  2  6  2  0  0  0  0
  3  8  2  0  0  0  0
  3 16  1  0  0  0  0
  4  9  1  0  0  0  0
  4 16  2  0  0  0  0
  5 18  1  0  0  0  0
  6 20  1  0  0  0  0
  7 10  2  0  0  0  0
  7 19  1  0  0  0  0
  8 27  1  0  0  0  0
  9 27  2  0  0  0  0
 10 28  1  0  0  0  0
 11 12  2  0  0  0  0
 11 29  1  0  0  0  0
 12 30  1  0  0  0  0
 13 21  1  0  0  0  0
 13 28  2  0  0  0  0
 14 22  2  0  0  0  0
 14 23  1  0  0  0  0
 15 30  2  0  0  0  0
 15 31  1  0  0  0  0
 16 32  1  0  0  0  0
 17 32  1  0  0  0  0
 17 33  2  0  0  0  0
 17 34  1  0  0  0  0
 18 20  2  0  0  0  0
 18 39  1  0  0  0  0
 19 21  2  0  0  0  0
 19 40  1  0  0  0  0
 20 51  1  0  0  0  0
 21 41  1  0  0  0  0
 22 26  1  0  0  0  0
 22 55  1  0  0  0  0
 23 24  2  0  0  0  0
 23 63  1  0  0  0  0
 24 25  1  0  0  0  0
 24 56  1  0  0  0  0
 25 26  2  0  0  0  0
 25 57  1  0  0  0  0
 26 64  1  0  0  0  0
 27 84  1  0  0  0  0
 28 85  1  0  0  0  0
 29 31  2  0  0  0  0
 29 84  1  0  0  0  0
 30 86  1  0  0  0  0
 31 87  1  0  0  0  0
 32 68  2  0  0  0  0
 33 69  1  0  0  0  0
 33 72  1  0  0  0  0
 34 73  1  0  0  0  0
 34 79  2  0  0  0  0
 35 52  1  0  0  0  0
 35 74  1  0  0  0  0
 35 80  2  0  0  0  0
 36 65  1  0  0  0  0
 36 70  1  0  0  0  0
 36 81  2  0  0  0  0
 37 66  1  0  0  0  0
 37 75  1  0  0  0  0
 37 82  2  0  0  0  0
 38 71  1  0  0  0  0
 38 76  1  0  0  0  0
 38 83  2  0  0  0  0
 39 42  1  0  0  0  0
 40 52  1  0  0  0  0
 41 70  1  0  0  0  0
 42 44  1  0  0  0  0
 43 45  1  0  0  0  0
 43 47  1  0  0  0  0
 44 51  1  0  0  0  0
 45 53  1  0  0  0  0
 46 49  1  0  0  0  0
 46 54  1  0  0  0  0
 47 71  1  0  0  0  0
 48 53  1  0  0  0  0
 48 71  1  0  0  0  0
 49 77  1  0  0  0  0
 50 54  1  0  0  0  0
 50 77  1  0  0  0  0
 51 74  1  0  0  0  0
 52 70  1  0  0  0  0
 53 69  1  0  0  0  0
 54 85  1  0  0  0  0
 58 66  1  0  0  0  0
 59 67  1  0  0  0  0
 60 67  1  0  0  0  0
 61 67  1  0  0  0  0
 62 78  1  0  0  0  0
 63 76  1  0  0  0  0
 64 77  1  0  0  0  0
 65 67  1  0  0  0  0
 65 75  1  0  0  0  0
 66 78  1  0  0  0  0
 68 69  1  0  0  0  0
M  CHG  2  77   1  78   1
M  ISO  4  38 100  54 101  76 100  85 101
M  END
> <Batch ID>
0031

> <Smiles>
CNC(C)C(=O)NC(C(=O)N1Cc2cc([101O:1][101CH:1]3CCN(Cc4c(C)cc(C[100NH:0][100C:0](=O)N5CCCC(n6nc(-c7ccc(Oc8ccc(F)cc8F)cc7)c(C(N)=O)c6N)C5)c(C)c4C)C3)ccc2CC1C(=O)NC1CCCc2ccccc21)C(C)(C)C

> <Shape>
0.208

> <Color>
0.070

> <Negative vol penalty>
0.000

$$$$

  -OEChem-04042321393D

 79 87  0     1  0  0  0  0  0999 V2000
  -17.4802  -23.1131   24.9873 C   0  0  0  0  0  0  0  0  0  0  0  0
  -18.8266  -22.9147   24.6988 C   0  0  0  0  0  0  0  0  0  0  0  0
  -31.2477  -19.4820   19.1739 C   0  0  0  0  0  0  0  0  0  0  0  0
  -23.0743   -9.8691   19.9414 C   0  0  0  0  0  0  0  0  0  0  0  0
  -23.8387   -9.8740   22.2333 C   0  0  0  0  0  0  0  0  0  0  0  0
  -16.5195  -22.2592   24.4472 C   0  0  0  0  0  0  0  0  0  0  0  0
  -19.2132  -21.8614   23.8707 C   0  0  0  0  0  0  0  0  0  0  0  0
  -23.8641  -21.8265   19.8866 C   0  0  0  0  0  0  0  0  0  0  0  0
  -31.5069  -18.4283   20.0502 C   0  0  0  0  0  0  0  0  0  0  0  0
  -30.0125  -20.1292   19.2073 C   0  0  0  0  0  0  0  0  0  0  0  0
  -22.3316   -8.7152   20.1915 C   0  0  0  0  0  0  0  0  0  0  0  0
  -23.0959   -8.7201   22.4834 C   0  0  0  0  0  0  0  0  0  0  0  0
  -25.1647  -21.3308   19.9673 C   0  0  0  0  0  0  0  0  0  0  0  0
  -21.1153   -5.9803   23.8209 C   0  0  0  0  0  0  0  0  0  0  0  0
  -20.3613   -5.9350   24.9935 C   0  0  0  0  0  0  0  0  0  0  0  0
  -24.4524  -19.3012   18.8753 C   0  0  0  0  0  0  0  0  0  0  0  0
  -29.2957  -18.6688   20.9934 C   0  0  0  0  0  0  0  0  0  0  0  0
  -19.1141   -7.8723   24.2665 C   0  0  0  0  0  0  0  0  0  0  0  0
  -23.8279  -10.4484   20.9622 C   0  0  0  0  0  0  0  0  0  0  0  0
  -24.1680  -12.9739   20.8443 C   0  0  0  0  0  0  0  0  0  0  0  0
  -16.8936  -21.2008   23.6043 C   0  0  0  0  0  0  0  0  0  0  0  0
  -22.8439  -21.0575   19.3084 C   0  0  0  0  0  0  0  0  0  0  0  0
  -18.2566  -20.9917   23.3199 C   0  0  0  0  0  0  0  0  0  0  0  0
  -23.1403  -19.7905   18.7861 C   0  0  0  0  0  0  0  0  0  0  0  0
  -30.5309  -18.0216   20.9600 C   0  0  0  0  0  0  0  0  0  0  0  0
  -29.0365  -19.7226   20.1171 C   0  0  0  0  0  0  0  0  0  0  0  0
  -22.3424   -8.1407   21.4625 C   0  0  0  0  0  0  0  0  0  0  0  0
  -25.4584  -20.0668   19.4643 C   0  0  0  0  0  0  0  0  0  0  0  0
  -20.8687   -6.9717   22.8711 C   0  0  0  0  0  0  0  0  0  0  0  0
  -19.3607   -6.8809   25.2163 C   0  0  0  0  0  0  0  0  0  0  0  0
  -19.8682   -7.9177   23.0939 C   0  0  0  0  0  0  0  0  0  0  0  0
  -24.5957  -11.6401   20.7043 C   0  0  0  0  0  0  0  0  0  0  0  0
  -25.2589  -13.7245   20.4798 C   0  0  0  0  0  0  0  0  0  0  0  0
  -22.8980  -13.4885   21.2663 C   0  0  0  0  0  0  0  0  0  0  0  0
  -20.1084  -19.8154   20.3467 C   0  0  0  0  0  0  0  0  0  0  0  0
  -19.7350  -19.0210   17.2239 C   0  0  0  0  0  0  0  0  0  0  0  0
  -21.1893  -18.3748   14.2049 C   0  0  0  0  0  0  0  0  0  0  0  0
  -30.7424  -14.7466   20.6586 C   0  0  0  0  0  0  0  0  0  0  0  0
  -15.8233  -20.2754   23.0822 C   0  0  0  0  0  0  0  0  0  0  0  0
  -21.4518  -21.6175   19.2048 C   0  0  0  0  0  0  0  0  0  0  0  0
  -22.0852  -18.9335   18.1373 C   0  0  0  0  0  0  0  0  0  0  0  0
  -16.2841  -19.4098   21.9123 C   0  0  0  0  0  0  0  0  0  0  0  0
  -29.6016  -12.3640   18.2714 C   0  0  0  0  0  0  0  0  0  0  0  0
  -17.6464  -18.7914   22.2099 C   0  0  0  0  0  0  0  0  0  0  0  0
  -28.1652  -12.0690   18.7068 C   0  0  0  0  0  0  0  0  0  0  0  0
  -30.5210  -12.5841   19.4707 C   0  0  0  0  0  0  0  0  0  0  0  0
  -28.6215  -13.3125   20.8618 C   0  0  0  0  0  0  0  0  0  0  0  0
  -18.7133  -19.8753   22.4060 C   0  0  1  0  0  0  0  0  0  0  0  0
  -20.3831  -20.5387   19.0586 C   0  0  1  0  0  0  0  0  0  0  0  0
  -27.6451  -13.1386   19.6859 C   0  0  2  0  0  0  0  0  0  0  0  0
  -20.6289  -17.7163   11.8491 C   0  0  0  0  0  0  0  0  0  0  0  0
  -19.2731  -16.1473   18.1396 C   0  0  0  0  0  0  0  0  0  0  0  0
  -19.6676  -15.4060   15.7810 C   0  0  0  0  0  0  0  0  0  0  0  0
  -17.7531  -16.9157   16.3083 C   0  0  0  0  0  0  0  0  0  0  0  0
  -22.3314  -20.8763   13.1108 C   0  0  0  0  0  0  0  0  0  0  0  0
  -30.8094  -16.8958   21.8977 C   0  0  0  0  0  0  0  0  0  0  0  0
  -27.7076  -20.4183   20.1525 C   0  0  0  0  0  0  0  0  0  1  0  0
  -20.1084  -17.8326   16.3710 C   0  0  1  0  0  0  0  0  0  0  0  0
  -20.8713  -18.8727   12.8065 C   0  0  2  0  0  0  0  0  0  0  0  0
  -19.2203  -16.5905   16.6639 C   0  0  0  0  0  0  0  0  0  0  0  0
  -25.8598  -11.5454   20.2835 N   0  0  0  0  0  0  0  0  0  0  0  0
  -26.2357  -12.8294   20.1558 N   0  0  0  0  0  0  0  0  0  0  0  0
  -20.7379  -19.5226   18.0656 N   0  0  0  0  0  0  0  0  0  0  0  0
  -29.9715  -13.6113   20.3589 N   0  0  0  0  0  0  0  0  0  0  0  0
  -25.4684  -15.0561   20.4078 N   0  0  0  0  0  0  0  0  0  0  0  0
  -21.8873  -12.5783   21.6046 N   0  0  0  0  0  0  0  0  0  0  0  0
  -19.1341  -20.4073   21.1276 N   0  0  0  0  0  0  0  0  0  0  0  0
  -20.0568  -18.2912   14.9870 N   0  0  0  0  0  0  0  0  0  0  0  0
  -30.1444  -15.6741   21.5028 N   0  0  0  0  0  0  0  0  0  0  0  0
  -21.9997  -19.6910   12.2790 N   0  3  0  0  0  0  0  0  0  0  0  0
  -22.6611  -14.7189   21.3255 O   0  0  0  0  0  0  0  0  0  0  0  0
  -20.7332  -18.7950   20.6117 O   0  0  0  0  0  0  0  0  0  0  0  0
  -18.5977  -19.4914   17.1409 O   0  0  0  0  0  0  0  0  0  0  0  0
  -22.3278  -18.0853   14.5660 O   0  0  0  0  0  0  0  0  0  0  0  0
  -31.8774  -14.9233   20.2029 O   0  0  0  0  0  0  0  0  0  0  0  0
  -21.6176   -7.0149   21.7070 O   0  0  0  0  0  0  0  0  0  0  0  0
  -26.7269  -19.5802   19.5424 O   0  0  0  0  0  0  0  0  0  1  0  0
  -18.6357   -6.8363   26.3417 F   0  0  0  0  0  0  0  0  0  0  0  0
  -19.6259   -8.8717   22.1845 F   0  0  0  0  0  0  0  0  0  0  0  0
  1  2  1  0  0  0  0
  1  6  2  0  0  0  0
  2  7  2  0  0  0  0
  3  9  1  0  0  0  0
  3 10  2  0  0  0  0
  4 11  2  0  0  0  0
  4 19  1  0  0  0  0
  5 12  1  0  0  0  0
  5 19  2  0  0  0  0
  6 21  1  0  0  0  0
  7 23  1  0  0  0  0
  8 13  2  0  0  0  0
  8 22  1  0  0  0  0
  9 25  2  0  0  0  0
 10 26  1  0  0  0  0
 11 27  1  0  0  0  0
 12 27  2  0  0  0  0
 13 28  1  0  0  0  0
 14 15  2  0  0  0  0
 14 29  1  0  0  0  0
 15 30  1  0  0  0  0
 16 24  1  0  0  0  0
 16 28  2  0  0  0  0
 17 25  1  0  0  0  0
 17 26  2  0  0  0  0
 18 30  2  0  0  0  0
 18 31  1  0  0  0  0
 19 32  1  0  0  0  0
 20 32  1  0  0  0  0
 20 33  2  0  0  0  0
 20 34  1  0  0  0  0
 21 23  2  0  0  0  0
 21 39  1  0  0  0  0
 22 24  2  0  0  0  0
 22 40  1  0  0  0  0
 23 48  1  0  0  0  0
 24 41  1  0  0  0  0
 25 56  1  0  0  0  0
 26 57  1  0  0  0  0
 27 76  1  0  0  0  0
 28 77  1  0  0  0  0
 29 31  2  0  0  0  0
 29 76  1  0  0  0  0
 30 78  1  0  0  0  0
 31 79  1  0  0  0  0
 32 61  2  0  0  0  0
 33 62  1  0  0  0  0
 33 65  1  0  0  0  0
 34 66  1  0  0  0  0
 34 71  2  0  0  0  0
 35 49  1  0  0  0  0
 35 67  1  0  0  0  0
 35 72  2  0  0  0  0
 36 58  1  0  0  0  0
 36 63  1  0  0  0  0
 36 73  2  0  0  0  0
 37 59  1  0  0  0  0
 37 68  1  0  0  0  0
 37 74  2  0  0  0  0
 38 64  1  0  0  0  0
 38 69  1  0  0  0  0
 38 75  2  0  0  0  0
 39 42  1  0  0  0  0
 40 49  1  0  0  0  0
 41 63  1  0  0  0  0
 42 44  1  0  0  0  0
 43 45  1  0  0  0  0
 43 46  1  0  0  0  0
 44 48  1  0  0  0  0
 45 50  1  0  0  0  0
 46 64  1  0  0  0  0
 47 50  1  0  0  0  0
 47 64  1  0  0  0  0
 48 67  1  0  0  0  0
 49 63  1  0  0  0  0
 50 62  1  0  0  0  0
 51 59  1  0  0  0  0
 52 60  1  0  0  0  0
 53 60  1  0  0  0  0
 54 60  1  0  0  0  0
 55 70  1  0  0  0  0
 56 69  1  0  0  0  0
 57 77  1  0  0  0  0
 58 60  1  0  0  0  0
 58 68  1  0  0  0  0
 59 70  1  0  0  0  0
 61 62  1  0  0  0  0
M  CHG  1  70   1
M  ISO  4  38 100  57 101  69 100  77 101
M  END
> <Batch ID>
0031

> <Smiles>
CNC(C)C(=O)NC(C(=O)N1Cc2cc([101O:1][101CH2:1]c3cccc(C[100NH:0][100C:0](=O)N4CCCC(n5nc(-c6ccc(Oc7ccc(F)cc7F)cc6)c(C(N)=O)c5N)C4)c3)ccc2CC1C(=O)NC1CCCc2ccccc21)C(C)(C)C

> <Shape>
0.192

> <Color>
0.200

> <Negative vol penalty>
0.000

$$$$

  -OEChem-04042321393D

 87 96  0     1  0  0  0  0  0999 V2000
  -22.1971  -23.4878   19.5215 C   0  0  0  0  0  0  0  0  0  0  0  0
  -23.4164  -22.8745   19.7910 C   0  0  0  0  0  0  0  0  0  0  0  0
  -22.2709  -29.2533   21.5623 C   0  0  0  0  0  0  0  0  0  0  0  0
  -23.2339  -28.4493   23.6270 C   0  0  0  0  0  0  0  0  0  0  0  0
  -21.0094  -22.8891   19.9396 C   0  0  0  0  0  0  0  0  0  0  0  0
  -23.4487  -21.6625   20.4798 C   0  0  0  0  0  0  0  0  0  0  0  0
  -26.6234  -18.3204   18.3832 C   0  0  0  0  0  0  0  0  0  0  0  0
  -20.9974  -28.9290   22.0299 C   0  0  0  0  0  0  0  0  0  0  0  0
  -21.9604  -28.1250   24.0947 C   0  0  0  0  0  0  0  0  0  0  0  0
  -27.9843  -18.4909   18.6339 C   0  0  0  0  0  0  0  0  0  0  0  0
  -18.7065  -30.2498   24.1370 C   0  0  0  0  0  0  0  0  0  0  0  0
  -17.6910  -31.1888   23.9562 C   0  0  0  0  0  0  0  0  0  0  0  0
  -27.8816  -16.7740   20.3254 C   0  0  0  0  0  0  0  0  0  0  0  0
  -30.8825  -23.4536   24.5356 C   0  0  0  0  0  0  0  0  0  0  0  0
  -30.9559  -23.2956   21.7513 C   0  0  0  0  0  0  0  0  0  0  0  0
  -16.4441  -29.5877   22.6450 C   0  0  0  0  0  0  0  0  0  0  0  0
  -23.3891  -29.0134   22.3608 C   0  0  0  0  0  0  0  0  0  0  0  0
  -25.3838  -30.5705   22.0379 C   0  0  0  0  0  0  0  0  0  0  0  0
  -21.0267  -21.6643   20.6255 C   0  0  0  0  0  0  0  0  0  0  0  0
  -25.8779  -17.3814   19.1104 C   0  0  0  0  0  0  0  0  0  0  0  0
  -22.2602  -21.0475   20.9087 C   0  0  0  0  0  0  0  0  0  0  0  0
  -26.5120  -16.5917   20.0801 C   0  0  0  0  0  0  0  0  0  0  0  0
  -31.4440  -22.3377   23.9150 C   0  0  0  0  0  0  0  0  0  0  0  0
  -30.3576  -24.4904   23.7641 C   0  0  0  0  0  0  0  0  0  0  0  0
  -31.4807  -22.2587   22.5229 C   0  0  0  0  0  0  0  0  0  0  0  0
  -30.3944  -24.4114   22.3720 C   0  0  0  0  0  0  0  0  0  0  0  0
  -20.8421  -28.3649   23.2961 C   0  0  0  0  0  0  0  0  0  0  0  0
  -28.6129  -17.7198   19.6071 C   0  0  0  0  0  0  0  0  0  0  0  0
  -18.5909  -28.9798   23.5718 C   0  0  0  0  0  0  0  0  0  0  0  0
  -16.5598  -30.8577   23.2102 C   0  0  0  0  0  0  0  0  0  0  0  0
  -17.4597  -28.6488   22.8258 C   0  0  0  0  0  0  0  0  0  0  0  0
  -24.7049  -29.3476   21.8781 C   0  0  0  0  0  0  0  0  0  0  0  0
  -26.5872  -30.3806   21.4036 C   0  0  0  0  0  0  0  0  0  0  0  0
  -24.9642  -31.7707   22.7005 C   0  0  0  0  0  0  0  0  0  0  0  0
  -23.3939  -17.5353   21.0878 C   0  0  0  0  0  0  0  0  0  0  0  0
  -23.5736  -14.2998   20.9412 C   0  0  0  0  0  0  0  0  0  0  0  0
  -25.4753  -11.5273   20.3547 C   0  0  0  0  0  0  0  0  0  0  0  0
  -29.8328  -25.5154   20.1783 C   0  0  0  0  0  0  0  0  0  0  0  0
  -19.7198  -21.0791   21.0990 C   0  0  0  0  0  0  0  0  0  0  0  0
  -24.4166  -17.1908   18.8093 C   0  0  0  0  0  0  0  0  0  0  0  0
  -25.7608  -15.5557   20.8744 C   0  0  0  0  0  0  0  0  0  0  0  0
  -19.8190  -19.6080   21.4946 C   0  0  0  0  0  0  0  0  0  0  0  0
  -28.5878  -27.8902   17.8358 C   0  0  0  0  0  0  0  0  0  0  0  0
  -21.0407  -19.3739   22.3776 C   0  0  0  0  0  0  0  0  0  0  0  0
  -27.5168  -28.6488   18.6229 C   0  0  0  0  0  0  0  0  0  0  0  0
  -28.6178  -26.4076   18.2027 C   0  0  0  0  0  0  0  0  0  0  0  0
  -27.6694  -26.8844   20.4259 C   0  0  0  0  0  0  0  0  0  0  0  0
  -30.0495  -19.7244   21.5867 C   0  0  0  0  0  0  0  0  0  0  0  0
  -31.8425  -18.6900   21.3080 C   0  0  0  0  0  0  0  0  0  0  0  0
  -22.3350  -19.7202   21.6317 C   0  0  1  0  0  0  0  0  0  0  0  0
  -23.6445  -16.5661   19.9673 C   0  0  1  0  0  0  0  0  0  0  0  0
  -27.6447  -28.3943   20.1377 C   0  0  2  0  0  0  0  0  0  0  0  0
  -30.3666  -18.2775   21.1691 C   0  0  0  0  0  0  0  0  0  1  0  0
  -31.9994  -21.2398   24.7616 C   0  0  0  0  0  0  0  0  0  0  0  0
  -25.3548   -9.0208   20.3502 C   0  0  0  0  0  0  0  0  0  0  0  0
  -23.6724  -14.2921   23.9908 C   0  0  0  0  0  0  0  0  0  0  0  0
  -24.4944  -11.9294   23.8888 C   0  0  0  0  0  0  0  0  0  0  0  0
  -22.2398  -12.5037   22.9889 C   0  0  0  0  0  0  0  0  0  0  0  0
  -26.1394  -11.3848   17.4741 C   0  0  0  0  0  0  0  0  0  0  0  0
  -32.0794  -21.0684   21.8332 C   0  0  0  0  0  0  0  0  0  0  0  0
  -24.3026  -13.2331   21.7220 C   0  0  1  0  0  0  0  0  0  0  0  0
  -25.2165  -10.2867   19.5190 C   0  0  2  0  0  0  0  0  0  0  0  0
  -29.7623  -25.6738   24.4557 C   0  0  0  0  0  0  0  0  0  0  0  0
  -23.6913  -13.0104   23.1342 C   0  0  0  0  0  0  0  0  0  0  0  0
  -25.4177  -28.4475   21.1957 N   0  0  0  0  0  0  0  0  0  0  0  0
  -26.5570  -29.1053   20.9210 N   0  0  0  0  0  0  0  0  0  0  0  0
  -24.3325  -15.4111   20.5477 N   0  0  0  0  0  0  0  0  0  0  0  0
  -28.7448  -26.2438   19.6525 N   0  0  0  0  0  0  0  0  0  0  0  0
  -27.6576  -31.1817   21.2172 N   0  0  0  0  0  0  0  0  0  0  0  0
  -23.6975  -31.7951   23.2999 N   0  0  0  0  0  0  0  0  0  0  0  0
  -29.8666  -25.4543   21.5711 N   0  0  0  0  0  0  0  0  0  0  0  0
  -22.6863  -18.6607   20.7106 N   0  0  0  0  0  0  0  0  0  0  0  0
  -24.3087  -12.0424   20.8790 N   0  0  0  0  0  0  0  0  0  0  0  0
  -31.4002  -19.7990   22.1735 N   0  3  0  0  0  0  0  0  0  0  0  0
  -26.1833  -10.2137   18.3872 N   0  3  0  0  0  0  0  0  0  0  0  0
  -25.6844  -32.7969   22.7451 O   0  0  0  0  0  0  0  0  0  0  0  0
  -23.8104  -17.2803   22.2117 O   0  0  0  0  0  0  0  0  0  0  0  0
  -22.3767  -14.1491   20.6836 O   0  0  0  0  0  0  0  0  0  0  0  0
  -26.6003  -11.9908   20.5283 O   0  0  0  0  0  0  0  0  0  0  0  0
  -30.6876  -25.0079   19.4478 O   0  0  0  0  0  0  0  0  0  0  0  0
  -19.5996  -28.0485   23.7529 O   0  0  0  0  0  0  0  0  0  0  0  0
  -29.9409  -17.8847   19.8544 O   0  0  0  0  0  0  0  0  0  1  0  0
  -15.5839  -31.7589   23.0380 F   0  0  0  0  0  0  0  0  0  0  0  0
  -17.3425  -27.4299   22.2813 F   0  0  0  0  0  0  0  0  0  0  0  0
  -29.8084  -25.5890   25.8171 F   0  0  0  0  0  0  0  0  0  0  0  0
  -30.3807  -26.8510   24.1486 F   0  0  0  0  0  0  0  0  0  0  0  0
  -28.4476  -25.8551   24.1420 F   0  0  0  0  0  0  0  0  0  0  0  0
  1  2  1  0  0  0  0
  1  5  2  0  0  0  0
  2  6  2  0  0  0  0
  3  8  2  0  0  0  0
  3 17  1  0  0  0  0
  4  9  1  0  0  0  0
  4 17  2  0  0  0  0
  5 19  1  0  0  0  0
  6 21  1  0  0  0  0
  7 10  2  0  0  0  0
  7 20  1  0  0  0  0
  8 27  1  0  0  0  0
  9 27  2  0  0  0  0
 10 28  1  0  0  0  0
 11 12  2  0  0  0  0
 11 29  1  0  0  0  0
 12 30  1  0  0  0  0
 13 22  1  0  0  0  0
 13 28  2  0  0  0  0
 14 23  1  0  0  0  0
 14 24  2  0  0  0  0
 15 25  1  0  0  0  0
 15 26  2  0  0  0  0
 16 30  2  0  0  0  0
 16 31  1  0  0  0  0
 17 32  1  0  0  0  0
 18 32  1  0  0  0  0
 18 33  2  0  0  0  0
 18 34  1  0  0  0  0
 19 21  2  0  0  0  0
 19 39  1  0  0  0  0
 20 22  2  0  0  0  0
 20 40  1  0  0  0  0
 21 50  1  0  0  0  0
 22 41  1  0  0  0  0
 23 25  2  0  0  0  0
 23 54  1  0  0  0  0
 24 26  1  0  0  0  0
 24 63  1  0  0  0  0
 25 60  1  0  0  0  0
 26 71  1  0  0  0  0
 27 81  1  0  0  0  0
 28 82  1  0  0  0  0
 29 31  2  0  0  0  0
 29 81  1  0  0  0  0
 30 83  1  0  0  0  0
 31 84  1  0  0  0  0
 32 65  2  0  0  0  0
 33 66  1  0  0  0  0
 33 69  1  0  0  0  0
 34 70  1  0  0  0  0
 34 76  2  0  0  0  0
 35 51  1  0  0  0  0
 35 72  1  0  0  0  0
 35 77  2  0  0  0  0
 36 61  1  0  0  0  0
 36 67  1  0  0  0  0
 36 78  2  0  0  0  0
 37 62  1  0  0  0  0
 37 73  1  0  0  0  0
 37 79  2  0  0  0  0
 38 68  1  0  0  0  0
 38 71  1  0  0  0  0
 38 80  2  0  0  0  0
 39 42  1  0  0  0  0
 40 51  1  0  0  0  0
 41 67  1  0  0  0  0
 42 44  1  0  0  0  0
 43 45  1  0  0  0  0
 43 46  1  0  0  0  0
 44 50  1  0  0  0  0
 45 52  1  0  0  0  0
 46 68  1  0  0  0  0
 47 52  1  0  0  0  0
 47 68  1  0  0  0  0
 48 53  1  0  0  0  0
 48 74  1  0  0  0  0
 49 53  1  0  0  0  0
 49 74  1  0  0  0  0
 50 72  1  0  0  0  0
 51 67  1  0  0  0  0
 52 66  1  0  0  0  0
 53 82  1  0  0  0  0
 55 62  1  0  0  0  0
 56 64  1  0  0  0  0
 57 64  1  0  0  0  0
 58 64  1  0  0  0  0
 59 75  1  0  0  0  0
 60 74  1  0  0  0  0
 61 64  1  0  0  0  0
 61 73  1  0  0  0  0
 62 75  1  0  0  0  0
 63 85  1  0  0  0  0
 63 86  1  0  0  0  0
 63 87  1  0  0  0  0
 65 66  1  0  0  0  0
M  CHG  2  74   1  75   1
M  ISO  4  38 100  53 101  71 100  82 101
M  END
> <Batch ID>
0031

> <Smiles>
CNC(C)C(=O)NC(C(=O)N1Cc2cc([101O:1][101CH:1]3CN(Cc4cc([100NH:0][100C:0](=O)N5CCCC(n6nc(-c7ccc(Oc8ccc(F)cc8F)cc7)c(C(N)=O)c6N)C5)c(C(F)(F)F)cc4C)C3)ccc2CC1C(=O)NC1CCCc2ccccc21)C(C)(C)C

> <Shape>
0.236

> <Color>
0.077

> <Negative vol penalty>
0.000

$$$$

  -OEChem-04042321393D

 87 96  0     1  0  0  0  0  0999 V2000
  -27.9786  -25.2431   16.1371 C   0  0  0  0  0  0  0  0  0  0  0  0
  -26.7955  -25.4021   16.8515 C   0  0  0  0  0  0  0  0  0  0  0  0
  -24.2019  -13.7168   21.1832 C   0  0  0  0  0  0  0  0  0  0  0  0
  -25.9908  -13.5730   19.5658 C   0  0  0  0  0  0  0  0  0  0  0  0
  -29.1851  -25.6792   16.6830 C   0  0  0  0  0  0  0  0  0  0  0  0
  -26.8184  -25.9962   18.1129 C   0  0  0  0  0  0  0  0  0  0  0  0
  -23.1184  -29.3992   18.7249 C   0  0  0  0  0  0  0  0  0  0  0  0
  -24.3879  -12.3732   21.5085 C   0  0  0  0  0  0  0  0  0  0  0  0
  -26.1769  -12.2294   19.8911 C   0  0  0  0  0  0  0  0  0  0  0  0
  -21.8397  -28.9093   18.9869 C   0  0  0  0  0  0  0  0  0  0  0  0
  -23.5745   -9.3607   20.2095 C   0  0  0  0  0  0  0  0  0  0  0  0
  -22.4385   -8.5601   20.3281 C   0  0  0  0  0  0  0  0  0  0  0  0
  -22.1497  -29.3725   21.3340 C   0  0  0  0  0  0  0  0  0  0  0  0
  -22.8733  -25.4285   23.3422 C   0  0  0  0  0  0  0  0  0  0  0  0
  -24.9464  -24.4350   22.5989 C   0  0  0  0  0  0  0  0  0  0  0  0
  -23.0143   -8.0835   22.6256 C   0  0  0  0  0  0  0  0  0  0  0  0
  -25.0033  -14.3167   20.2118 C   0  0  0  0  0  0  0  0  0  0  0  0
  -23.6424  -16.3018   19.3662 C   0  0  0  0  0  0  0  0  0  0  0  0
  -29.2216  -26.2878   17.9475 C   0  0  0  0  0  0  0  0  0  0  0  0
  -23.9279  -29.8701   19.7687 C   0  0  0  0  0  0  0  0  0  0  0  0
  -28.0268  -26.4396   18.6767 C   0  0  0  0  0  0  0  0  0  0  0  0
  -23.4373  -29.8702   21.0822 C   0  0  0  0  0  0  0  0  0  0  0  0
  -22.1580  -24.4264   22.6866 C   0  0  0  0  0  0  0  0  0  0  0  0
  -22.8369  -23.4286   21.9872 C   0  0  0  0  0  0  0  0  0  0  0  0
  -24.2311  -23.4329   21.9433 C   0  0  0  0  0  0  0  0  0  0  0  0
  -25.3754  -11.6295   20.8625 C   0  0  0  0  0  0  0  0  0  0  0  0
  -21.3563  -28.8932   20.2920 C   0  0  0  0  0  0  0  0  0  0  0  0
  -24.4304   -9.5227   21.2989 C   0  0  0  0  0  0  0  0  0  0  0  0
  -22.1584   -7.9215   21.5362 C   0  0  0  0  0  0  0  0  0  0  0  0
  -24.1503   -8.8842   22.5070 C   0  0  0  0  0  0  0  0  0  0  0  0
  -24.2675  -25.4328   23.2983 C   0  0  0  0  0  0  0  0  0  0  0  0
  -24.8112  -15.7044   19.8749 C   0  0  0  0  0  0  0  0  0  0  0  0
  -23.9713  -17.6268   19.2163 C   0  0  0  0  0  0  0  0  0  0  0  0
  -18.6878  -25.3868   21.6907 C   0  0  0  0  0  0  0  0  0  0  0  0
  -17.6807  -24.5296   21.8917 C   0  0  0  0  0  0  0  0  0  0  0  0
  -22.3728  -15.7117   19.0569 C   0  0  0  0  0  0  0  0  0  0  0  0
  -26.7383  -29.0199   20.9864 C   0  0  0  0  0  0  0  0  0  0  0  0
  -26.3422  -31.7056   22.7620 C   0  0  0  0  0  0  0  0  0  0  0  0
  -24.2033  -33.9950   24.1149 C   0  0  0  0  0  0  0  0  0  0  0  0
  -26.3234  -22.3058   21.1078 C   0  0  0  0  0  0  0  0  0  0  0  0
  -30.5561  -26.7002   18.5164 C   0  0  0  0  0  0  0  0  0  0  0  0
  -25.2947  -30.4202   19.4660 C   0  0  0  0  0  0  0  0  0  0  0  0
  -24.2589  -30.3834   22.2355 C   0  0  0  0  0  0  0  0  0  0  0  0
  -18.5591  -26.8725   21.5724 C   0  0  0  0  0  0  0  0  0  0  0  0
  -30.4440  -27.6592   19.6988 C   0  0  0  0  0  0  0  0  0  0  0  0
  -28.4558  -19.9587   19.4887 C   0  0  0  0  0  0  0  0  0  0  0  0
  -29.3941  -27.1652   20.6891 C   0  0  0  0  0  0  0  0  0  0  0  0
  -27.6015  -18.6918   19.4030 C   0  0  0  0  0  0  0  0  0  0  0  0
  -28.2108  -20.7210   20.7897 C   0  0  0  0  0  0  0  0  0  0  0  0
  -25.9492  -19.7640   20.9864 C   0  0  0  0  0  0  0  0  0  0  0  0
  -20.7209  -26.0927   20.8422 C   0  0  0  0  0  0  0  0  0  0  0  0
  -28.0075  -27.1019   20.0373 C   0  0  1  0  0  0  0  0  0  0  0  0
  -26.2283  -30.3980   20.6723 C   0  0  1  0  0  0  0  0  0  0  0  0
  -26.1135  -18.9967   19.6643 C   0  0  2  0  0  0  0  0  0  0  0  0
  -20.0121  -27.3067   21.4276 C   0  0  1  0  0  0  0  0  0  1  0  0
  -22.0653  -22.3553   21.2855 C   0  0  0  0  0  0  0  0  0  0  0  0
  -17.8527  -23.0523   22.0039 C   0  0  0  0  0  0  0  0  0  0  0  0
  -23.4731  -36.0685   25.3252 C   0  0  0  0  0  0  0  0  0  0  0  0
  -26.8066  -29.9857   25.2392 C   0  0  0  0  0  0  0  0  0  0  0  0
  -25.8405  -31.8371   26.6202 C   0  0  0  0  0  0  0  0  0  0  0  0
  -27.9209  -32.2238   25.2992 C   0  0  0  0  0  0  0  0  0  0  0  0
  -24.2654  -35.6056   21.6328 C   0  0  0  0  0  0  0  0  0  0  0  0
  -20.6591  -24.4449   22.7495 C   0  0  0  0  0  0  0  0  0  0  0  0
  -25.7073  -32.0222   24.0945 C   0  0  1  0  0  0  0  0  0  0  0  0
  -24.2293  -35.5128   24.1285 C   0  0  2  0  0  0  0  0  0  0  0  0
  -26.5538  -31.5057   25.2920 C   0  0  0  0  0  0  0  0  0  0  0  0
  -25.8083  -16.5782   20.0372 N   0  0  0  0  0  0  0  0  0  0  0  0
  -25.2668  -17.7382   19.6280 N   0  0  0  0  0  0  0  0  0  0  0  0
  -25.5914  -30.9052   21.8894 N   0  0  0  0  0  0  0  0  0  0  0  0
  -26.7801  -20.9781   20.9682 N   0  0  0  0  0  0  0  0  0  0  0  0
  -23.2760  -18.6959   18.7737 N   0  0  0  0  0  0  0  0  0  0  0  0
  -22.1658  -15.2112   17.7643 N   0  0  0  0  0  0  0  0  0  0  0  0
  -24.9406  -22.4292   21.2384 N   0  0  0  0  0  0  0  0  0  0  0  0
  -27.4300  -28.4259   19.9481 N   0  0  0  0  0  0  0  0  0  0  0  0
  -25.4751  -33.4625   24.1041 N   0  0  0  0  0  0  0  0  0  0  0  0
  -20.0220  -24.9048   21.4694 N   0  3  1  0  0  0  0  0  0  0  0  0
  -23.6065  -36.0527   22.8869 N   0  3  0  0  0  0  0  0  0  0  0  0
  -21.4436  -15.6455   19.8970 O   0  0  0  0  0  0  0  0  0  0  0  0
  -26.5215  -28.5324   22.0895 O   0  0  0  0  0  0  0  0  0  0  0  0
  -27.4600  -32.1578   22.5020 O   0  0  0  0  0  0  0  0  0  0  0  0
  -23.1592  -33.3467   24.1176 O   0  0  0  0  0  0  0  0  0  0  0  0
  -27.0992  -23.2648   21.0839 O   0  0  0  0  0  0  0  0  0  0  0  0
  -25.5574  -10.3185   21.1798 O   0  0  0  0  0  0  0  0  0  0  0  0
  -20.1088  -28.4149   20.5506 O   0  0  0  0  0  0  0  0  0  1  0  0
  -21.0666   -7.1539   21.6504 F   0  0  0  0  0  0  0  0  0  0  0  0
  -24.9682   -9.0370   23.5574 F   0  0  0  0  0  0  0  0  0  0  0  0
  -25.1497  -26.6700   24.1061 Cl  0  0  0  0  0  0  0  0  0  0  0  0
  1  2  1  0  0  0  0
  1  5  2  0  0  0  0
  2  6  2  0  0  0  0
  3  8  2  0  0  0  0
  3 17  1  0  0  0  0
  4  9  1  0  0  0  0
  4 17  2  0  0  0  0
  5 19  1  0  0  0  0
  6 21  1  0  0  0  0
  7 10  2  0  0  0  0
  7 20  1  0  0  0  0
  8 26  1  0  0  0  0
  9 26  2  0  0  0  0
 10 27  1  0  0  0  0
 11 12  2  0  0  0  0
 11 28  1  0  0  0  0
 12 29  1  0  0  0  0
 13 22  1  0  0  0  0
 13 27  2  0  0  0  0
 14 23  1  0  0  0  0
 14 31  2  0  0  0  0
 15 25  2  0  0  0  0
 15 31  1  0  0  0  0
 16 29  2  0  0  0  0
 16 30  1  0  0  0  0
 17 32  1  0  0  0  0
 18 32  1  0  0  0  0
 18 33  2  0  0  0  0
 18 36  1  0  0  0  0
 19 21  2  0  0  0  0
 19 41  1  0  0  0  0
 20 22  2  0  0  0  0
 20 42  1  0  0  0  0
 21 52  1  0  0  0  0
 22 43  1  0  0  0  0
 23 24  2  0  0  0  0
 23 63  1  0  0  0  0
 24 25  1  0  0  0  0
 24 56  1  0  0  0  0
 25 73  1  0  0  0  0
 26 83  1  0  0  0  0
 27 84  1  0  0  0  0
 28 30  2  0  0  0  0
 28 83  1  0  0  0  0
 29 85  1  0  0  0  0
 30 86  1  0  0  0  0
 31 87  1  0  0  0  0
 32 67  2  0  0  0  0
 33 68  1  0  0  0  0
 33 71  1  0  0  0  0
 34 35  2  0  0  0  0
 34 44  1  0  0  0  0
 34 76  1  0  0  0  0
 35 57  1  0  0  0  0
 36 72  1  0  0  0  0
 36 78  2  0  0  0  0
 37 53  1  0  0  0  0
 37 74  1  0  0  0  0
 37 79  2  0  0  0  0
 38 64  1  0  0  0  0
 38 69  1  0  0  0  0
 38 80  2  0  0  0  0
 39 65  1  0  0  0  0
 39 75  1  0  0  0  0
 39 81  2  0  0  0  0
 40 70  1  0  0  0  0
 40 73  1  0  0  0  0
 40 82  2  0  0  0  0
 41 45  1  0  0  0  0
 42 53  1  0  0  0  0
 43 69  1  0  0  0  0
 44 55  1  0  0  0  0
 45 47  1  0  0  0  0
 46 48  1  0  0  0  0
 46 49  1  0  0  0  0
 47 52  1  0  0  0  0
 48 54  1  0  0  0  0
 49 70  1  0  0  0  0
 50 54  1  0  0  0  0
 50 70  1  0  0  0  0
 51 55  1  0  0  0  0
 51 76  1  0  0  0  0
 52 74  1  0  0  0  0
 53 69  1  0  0  0  0
 54 68  1  0  0  0  0
 55 84  1  0  0  0  0
 58 65  1  0  0  0  0
 59 66  1  0  0  0  0
 60 66  1  0  0  0  0
 61 66  1  0  0  0  0
 62 77  1  0  0  0  0
 63 76  1  0  0  0  0
 64 66  1  0  0  0  0
 64 75  1  0  0  0  0
 65 77  1  0  0  0  0
 67 68  1  0  0  0  0
M  CHG  2  76   1  77   1
M  ISO  4  40 100  55 101  73 100  84 101
M  END
> <Batch ID>
0031

> <Smiles>
CC=C1C[101CH:1]([101O:1]c2ccc3c(c2)CN(C(=O)C(NC(=O)C(C)NC)C(C)(C)C)C(C(=O)NC2CCCc4ccccc42)C3)CN1Cc1cc(Cl)cc([100NH:0][100C:0](=O)N2CCCC(n3nc(-c4ccc(Oc5ccc(F)cc5F)cc4)c(C(N)=O)c3N)C2)c1C

> <Shape>
0.314

> <Color>
0.090

> <Negative vol penalty>
0.000

$$$$

  -OEChem-04042321393D

 85 94  0     1  0  0  0  0  0999 V2000
  -26.9913  -24.6910   16.2086 C   0  0  0  0  0  0  0  0  0  0  0  0
  -25.8517  -25.0083   16.9408 C   0  0  0  0  0  0  0  0  0  0  0  0
  -26.3232  -15.6714   19.8734 C   0  0  0  0  0  0  0  0  0  0  0  0
  -24.0569  -15.2795   20.6134 C   0  0  0  0  0  0  0  0  0  0  0  0
  -28.2533  -24.9862   16.7225 C   0  0  0  0  0  0  0  0  0  0  0  0
  -25.9735  -25.6201   18.1879 C   0  0  0  0  0  0  0  0  0  0  0  0
  -22.7319  -29.4636   18.7913 C   0  0  0  0  0  0  0  0  0  0  0  0
  -26.6278  -14.3284   20.0951 C   0  0  0  0  0  0  0  0  0  0  0  0
  -24.3616  -13.9365   20.8350 C   0  0  0  0  0  0  0  0  0  0  0  0
  -21.4085  -29.1399   19.0875 C   0  0  0  0  0  0  0  0  0  0  0  0
  -24.7199  -11.1280   18.9899 C   0  0  0  0  0  0  0  0  0  0  0  0
  -23.8066  -10.1750   18.5393 C   0  0  0  0  0  0  0  0  0  0  0  0
  -21.8218  -29.6080   21.4176 C   0  0  0  0  0  0  0  0  0  0  0  0
  -17.9310  -21.6488   22.6926 C   0  0  0  0  0  0  0  0  0  0  0  0
  -19.4309  -23.7366   23.7764 C   0  0  0  0  0  0  0  0  0  0  0  0
  -23.5283   -9.3721   20.8009 C   0  0  0  0  0  0  0  0  0  0  0  0
  -25.0378  -16.1470   20.1326 C   0  0  0  0  0  0  0  0  0  0  0  0
  -24.2348  -18.1110   18.7164 C   0  0  0  0  0  0  0  0  0  0  0  0
  -28.3904  -25.6107   17.9722 C   0  0  0  0  0  0  0  0  0  0  0  0
  -23.6145  -29.8521   19.8094 C   0  0  0  0  0  0  0  0  0  0  0  0
  -27.2386  -25.9227   18.7196 C   0  0  0  0  0  0  0  0  0  0  0  0
  -23.1552  -29.9386   21.1314 C   0  0  0  0  0  0  0  0  0  0  0  0
  -19.0259  -21.3696   23.5104 C   0  0  0  0  0  0  0  0  0  0  0  0
  -17.5861  -22.9719   22.4166 C   0  0  0  0  0  0  0  0  0  0  0  0
  -19.7758  -22.4134   24.0523 C   0  0  0  0  0  0  0  0  0  0  0  0
  -18.3360  -24.0158   22.9585 C   0  0  0  0  0  0  0  0  0  0  0  0
  -25.6470  -13.4609   20.5759 C   0  0  0  0  0  0  0  0  0  0  0  0
  -20.9541  -29.2093   20.4012 C   0  0  0  0  0  0  0  0  0  0  0  0
  -25.0375  -11.2031   20.3461 C   0  0  0  0  0  0  0  0  0  0  0  0
  -23.2107   -9.2970   19.4447 C   0  0  0  0  0  0  0  0  0  0  0  0
  -24.4417  -10.3252   21.2516 C   0  0  0  0  0  0  0  0  0  0  0  0
  -24.7226  -17.5343   19.9044 C   0  0  0  0  0  0  0  0  0  0  0  0
  -24.0999  -19.4453   19.0126 C   0  0  0  0  0  0  0  0  0  0  0  0
  -23.9307  -17.4954   17.4576 C   0  0  0  0  0  0  0  0  0  0  0  0
  -26.3243  -28.6873   20.9943 C   0  0  0  0  0  0  0  0  0  0  0  0
  -26.2974  -31.4360   22.7165 C   0  0  0  0  0  0  0  0  0  0  0  0
  -24.4837  -33.9974   24.0569 C   0  0  0  0  0  0  0  0  0  0  0  0
  -23.2886  -22.4210   24.1446 C   0  0  0  0  0  0  0  0  0  0  0  0
  -29.7769  -25.8672   18.5073 C   0  0  0  0  0  0  0  0  0  0  0  0
  -25.0319  -30.2238   19.4696 C   0  0  0  0  0  0  0  0  0  0  0  0
  -24.0573  -30.3697   22.2578 C   0  0  0  0  0  0  0  0  0  0  0  0
  -29.8078  -26.8560   19.6699 C   0  0  0  0  0  0  0  0  0  0  0  0
  -25.9386  -22.8648   21.8085 C   0  0  0  0  0  0  0  0  0  0  0  0
  -28.7262  -26.5146   20.6900 C   0  0  0  0  0  0  0  0  0  0  0  0
  -25.8834  -21.6010   20.9484 C   0  0  0  0  0  0  0  0  0  0  0  0
  -25.6008  -22.5692   23.2682 C   0  0  0  0  0  0  0  0  0  0  0  0
  -24.2663  -20.6021   22.6175 C   0  0  0  0  0  0  0  0  0  0  0  0
  -17.8050  -27.2011   20.9789 C   0  0  0  0  0  0  0  0  0  0  0  0
  -19.7264  -26.4352   21.2689 C   0  0  0  0  0  0  0  0  0  0  0  0
  -27.3290  -26.6092   20.0652 C   0  0  1  0  0  0  0  0  0  0  0  0
  -25.9806  -30.1110   20.6589 C   0  0  1  0  0  0  0  0  0  0  0  0
  -24.5450  -20.8594   21.1267 C   0  0  2  0  0  0  0  0  0  0  0  0
  -19.1780  -27.5748   20.3924 C   0  0  0  0  0  0  0  0  0  1  0  0
  -19.3757  -19.9454   23.7925 C   0  0  0  0  0  0  0  0  0  0  0  0
  -16.4103  -23.2465   21.5376 C   0  0  0  0  0  0  0  0  0  0  0  0
  -24.7343  -36.0734   25.4444 C   0  0  0  0  0  0  0  0  0  0  0  0
  -26.5991  -29.7217   25.2225 C   0  0  0  0  0  0  0  0  0  0  0  0
  -25.8961  -31.7049   26.5793 C   0  0  0  0  0  0  0  0  0  0  0  0
  -27.9803  -31.8065   25.2123 C   0  0  0  0  0  0  0  0  0  0  0  0
  -23.4568  -35.7173   21.8782 C   0  0  0  0  0  0  0  0  0  0  0  0
  -20.9518  -22.1388   24.9311 C   0  0  0  0  0  0  0  0  0  0  0  0
  -17.9846  -25.4466   22.6750 C   0  0  0  0  0  0  0  0  0  0  0  0
  -25.7340  -31.8547   24.0530 C   0  0  1  0  0  0  0  0  0  0  0  0
  -24.6958  -35.5005   24.0362 C   0  0  2  0  0  0  0  0  0  0  0  0
  -26.5356  -31.2619   25.2461 C   0  0  0  0  0  0  0  0  0  0  0  0
  -24.8867  -18.4291   20.8823 N   0  0  0  0  0  0  0  0  0  0  0  0
  -24.4998  -19.5816   20.3093 N   0  0  0  0  0  0  0  0  0  0  0  0
  -25.4361  -30.7168   21.8758 N   0  0  0  0  0  0  0  0  0  0  0  0
  -24.3193  -21.8666   23.3679 N   0  0  0  0  0  0  0  0  0  0  0  0
  -23.6794  -20.5037   18.2876 N   0  0  0  0  0  0  0  0  0  0  0  0
  -24.1270  -16.1141   17.3247 N   0  0  0  0  0  0  0  0  0  0  0  0
  -26.9163  -27.9922   19.9571 N   0  0  0  0  0  0  0  0  0  0  0  0
  -25.6802  -33.3125   24.0347 N   0  0  0  0  0  0  0  0  0  0  0  0
  -22.1049  -21.6943   24.1804 N   0  0  0  0  0  0  0  0  0  0  0  0
  -18.3622  -25.8769   21.3110 N   0  3  0  0  0  0  0  0  0  0  0  0
  -23.5944  -36.1687   23.2869 N   0  3  0  0  0  0  0  0  0  0  0  0
  -23.5134  -18.1536   16.4747 O   0  0  0  0  0  0  0  0  0  0  0  0
  -26.0725  -28.2521   22.1118 O   0  0  0  0  0  0  0  0  0  0  0  0
  -27.4565  -31.7421   22.4262 O   0  0  0  0  0  0  0  0  0  0  0  0
  -23.3684  -33.4825   24.0931 O   0  0  0  0  0  0  0  0  0  0  0  0
  -23.4123  -23.4876   24.7563 O   0  0  0  0  0  0  0  0  0  0  0  0
  -25.9439  -12.1503   20.7921 O   0  0  0  0  0  0  0  0  0  0  0  0
  -19.6630  -28.8932   20.6931 O   0  0  0  0  0  0  0  0  0  1  0  0
  -22.3325   -8.3829   19.0120 F   0  0  0  0  0  0  0  0  0  0  0  0
  -24.7420  -10.3933   22.5558 F   0  0  0  0  0  0  0  0  0  0  0  0
  1  2  1  0  0  0  0
  1  5  2  0  0  0  0
  2  6  2  0  0  0  0
  3  8  2  0  0  0  0
  3 17  1  0  0  0  0
  4  9  1  0  0  0  0
  4 17  2  0  0  0  0
  5 19  1  0  0  0  0
  6 21  1  0  0  0  0
  7 10  2  0  0  0  0
  7 20  1  0  0  0  0
  8 27  1  0  0  0  0
  9 27  2  0  0  0  0
 10 28  1  0  0  0  0
 11 12  2  0  0  0  0
 11 29  1  0  0  0  0
 12 30  1  0  0  0  0
 13 22  1  0  0  0  0
 13 28  2  0  0  0  0
 14 23  2  0  0  0  0
 14 24  1  0  0  0  0
 15 25  2  0  0  0  0
 15 26  1  0  0  0  0
 16 30  2  0  0  0  0
 16 31  1  0  0  0  0
 17 32  1  0  0  0  0
 18 32  1  0  0  0  0
 18 33  2  0  0  0  0
 18 34  1  0  0  0  0
 19 21  2  0  0  0  0
 19 39  1  0  0  0  0
 20 22  2  0  0  0  0
 20 40  1  0  0  0  0
 21 50  1  0  0  0  0
 22 41  1  0  0  0  0
 23 25  1  0  0  0  0
 23 54  1  0  0  0  0
 24 26  2  0  0  0  0
 24 55  1  0  0  0  0
 25 61  1  0  0  0  0
 26 62  1  0  0  0  0
 27 82  1  0  0  0  0
 28 83  1  0  0  0  0
 29 31  2  0  0  0  0
 29 82  1  0  0  0  0
 30 84  1  0  0  0  0
 31 85  1  0  0  0  0
 32 66  2  0  0  0  0
 33 67  1  0  0  0  0
 33 70  1  0  0  0  0
 34 71  1  0  0  0  0
 34 77  2  0  0  0  0
 35 51  1  0  0  0  0
 35 72  1  0  0  0  0
 35 78  2  0  0  0  0
 36 63  1  0  0  0  0
 36 68  1  0  0  0  0
 36 79  2  0  0  0  0
 37 64  1  0  0  0  0
 37 73  1  0  0  0  0
 37 80  2  0  0  0  0
 38 69  1  0  0  0  0
 38 74  1  0  0  0  0
 38 81  2  0  0  0  0
 39 42  1  0  0  0  0
 40 51  1  0  0  0  0
 41 68  1  0  0  0  0
 42 44  1  0  0  0  0
 43 45  1  0  0  0  0
 43 46  1  0  0  0  0
 44 50  1  0  0  0  0
 45 52  1  0  0  0  0
 46 69  1  0  0  0  0
 47 52  1  0  0  0  0
 47 69  1  0  0  0  0
 48 53  1  0  0  0  0
 48 75  1  0  0  0  0
 49 53  1  0  0  0  0
 49 75  1  0  0  0  0
 50 72  1  0  0  0  0
 51 68  1  0  0  0  0
 52 67  1  0  0  0  0
 53 83  1  0  0  0  0
 56 64  1  0  0  0  0
 57 65  1  0  0  0  0
 58 65  1  0  0  0  0
 59 65  1  0  0  0  0
 60 76  1  0  0  0  0
 61 74  1  0  0  0  0
 62 75  1  0  0  0  0
 63 65  1  0  0  0  0
 63 73  1  0  0  0  0
 64 76  1  0  0  0  0
 66 67  1  0  0  0  0
M  CHG  2  75   1  76   1
M  ISO  4  38 100  53 101  74 100  83 101
M  END
> <Batch ID>
0031

> <Smiles>
CNC(C)C(=O)NC(C(=O)N1Cc2cc([101O:1][101CH:1]3CN(Cc4cc(C[100NH:0][100C:0](=O)N5CCCC(n6nc(-c7ccc(Oc8ccc(F)cc8F)cc7)c(C(N)=O)c6N)C5)c(C)cc4C)C3)ccc2CC1C(=O)NC1CCCc2ccccc21)C(C)(C)C

> <Shape>
0.255

> <Color>
0.065

> <Negative vol penalty>
0.000

$$$$

  -OEChem-04042321393D

 87 96  0     1  0  0  0  0  0999 V2000
  -22.1657  -21.9343   23.7670 C   0  0  0  0  0  0  0  0  0  0  0  0
  -23.3489  -22.1145   23.0577 C   0  0  0  0  0  0  0  0  0  0  0  0
  -23.9621   -9.5181   21.1504 C   0  0  0  0  0  0  0  0  0  0  0  0
  -25.4438  -10.0622   22.9795 C   0  0  0  0  0  0  0  0  0  0  0  0
  -21.0187  -22.6352   23.3969 C   0  0  0  0  0  0  0  0  0  0  0  0
  -23.3854  -22.9950   21.9771 C   0  0  0  0  0  0  0  0  0  0  0  0
  -27.4894  -25.9614   22.0259 C   0  0  0  0  0  0  0  0  0  0  0  0
  -27.5963  -21.3998   19.2172 C   0  0  0  0  0  0  0  0  0  0  0  0
  -26.8469  -20.8082   20.2341 C   0  0  0  0  0  0  0  0  0  0  0  0
  -23.6615   -8.2984   21.7567 C   0  0  0  0  0  0  0  0  0  0  0  0
  -25.1431   -8.8425   23.5859 C   0  0  0  0  0  0  0  0  0  0  0  0
  -28.6891  -25.3957   21.5963 C   0  0  0  0  0  0  0  0  0  0  0  0
  -21.6955   -7.1848   24.2722 C   0  0  0  0  0  0  0  0  0  0  0  0
  -20.3564   -6.7976   24.3206 C   0  0  0  0  0  0  0  0  0  0  0  0
  -28.4081  -26.4489   19.4443 C   0  0  0  0  0  0  0  0  0  0  0  0
  -29.0170  -19.4476   19.1286 C   0  0  0  0  0  0  0  0  0  0  0  0
  -20.8848   -4.8113   23.0506 C   0  0  0  0  0  0  0  0  0  0  0  0
  -24.8533  -10.4000   21.7618 C   0  0  0  0  0  0  0  0  0  0  0  0
  -24.2660  -12.6948   20.8150 C   0  0  0  0  0  0  0  0  0  0  0  0
  -21.0437  -23.5320   22.3171 C   0  0  0  0  0  0  0  0  0  0  0  0
  -26.7333  -26.7676   21.1629 C   0  0  0  0  0  0  0  0  0  0  0  0
  -22.2373  -23.7075   21.5913 C   0  0  0  0  0  0  0  0  0  0  0  0
  -27.2004  -27.0257   19.8663 C   0  0  0  0  0  0  0  0  0  0  0  0
  -28.6814  -20.7195   18.6645 C   0  0  0  0  0  0  0  0  0  0  0  0
  -27.1825  -19.5364   20.6982 C   0  0  0  0  0  0  0  0  0  0  0  0
  -28.2676  -18.8561   20.1455 C   0  0  0  0  0  0  0  0  0  0  0  0
  -24.2519   -7.9606   22.9744 C   0  0  0  0  0  0  0  0  0  0  0  0
  -29.1471  -25.6370   20.3044 C   0  0  0  0  0  0  0  0  0  0  0  0
  -22.6293   -6.3853   23.6129 C   0  0  0  0  0  0  0  0  0  0  0  0
  -19.9510   -5.6109   23.7098 C   0  0  0  0  0  0  0  0  0  0  0  0
  -22.2239   -5.1986   23.0022 C   0  0  0  0  0  0  0  0  0  0  0  0
  -25.1647  -11.6598   21.1357 C   0  0  0  0  0  0  0  0  0  0  0  0
  -25.0506  -13.6654   20.2415 C   0  0  0  0  0  0  0  0  0  0  0  0
  -31.5654  -22.4354   16.9446 C   0  0  0  0  0  0  0  0  0  0  0  0
  -32.5707  -21.7134   16.4271 C   0  0  0  0  0  0  0  0  0  0  0  0
  -22.8487  -12.7721   21.0176 C   0  0  0  0  0  0  0  0  0  0  0  0
  -23.8184  -26.5917   19.9076 C   0  0  0  0  0  0  0  0  0  0  0  0
  -24.5364  -29.5577   18.8079 C   0  0  0  0  0  0  0  0  0  0  0  0
  -27.4016  -31.2093   17.3656 C   0  0  0  0  0  0  0  0  0  0  0  0
  -29.6744  -16.7663   20.1494 C   0  0  0  0  0  0  0  0  0  0  0  0
  -19.7665  -24.2316   21.9248 C   0  0  0  0  0  0  0  0  0  0  0  0
  -25.4548  -27.3921   21.6504 C   0  0  0  0  0  0  0  0  0  0  0  0
  -26.4363  -27.9006   18.9076 C   0  0  0  0  0  0  0  0  0  0  0  0
  -31.2104  -23.8141   16.4578 C   0  0  0  0  0  0  0  0  0  0  0  0
  -19.9858  -25.4273   21.0016 C   0  0  0  0  0  0  0  0  0  0  0  0
  -31.1191  -24.7832   17.6303 C   0  0  0  0  0  0  0  0  0  0  0  0
  -29.8697  -13.5201   18.6999 C   0  0  0  0  0  0  0  0  0  0  0  0
  -20.9473  -25.0626   19.8750 C   0  0  0  0  0  0  0  0  0  0  0  0
  -28.5892  -12.8319   19.1780 C   0  0  0  0  0  0  0  0  0  0  0  0
  -30.4549  -14.4374   19.7722 C   0  0  0  0  0  0  0  0  0  0  0  0
  -28.2370  -14.7357   20.8023 C   0  0  0  0  0  0  0  0  0  0  0  0
  -30.7471  -22.8371   19.1920 C   0  0  0  0  0  0  0  0  0  0  0  0
  -22.3231  -24.6724   20.4286 C   0  0  1  0  0  0  0  0  0  0  0  0
  -24.5088  -27.7786   20.5177 C   0  0  1  0  0  0  0  0  0  0  0  0
  -27.5751  -13.8512   19.7330 C   0  0  2  0  0  0  0  0  0  0  0  0
  -30.2551  -24.2148   18.7560 C   0  0  1  0  0  0  0  0  0  1  0  0
  -26.3625  -18.9276   21.7891 C   0  0  0  0  0  0  0  0  0  0  0  0
  -32.9387  -20.3476   16.8940 C   0  0  0  0  0  0  0  0  0  0  0  0
  -28.0688  -33.6284   17.3799 C   0  0  0  0  0  0  0  0  0  0  0  0
  -23.0861  -29.6741   16.1259 C   0  0  0  0  0  0  0  0  0  0  0  0
  -24.8770  -31.2183   15.3035 C   0  0  0  0  0  0  0  0  0  0  0  0
  -23.4329  -31.8953   17.2216 C   0  0  0  0  0  0  0  0  0  0  0  0
  -30.0529  -30.5912   18.5265 C   0  0  0  0  0  0  0  0  0  0  0  0
  -29.4869  -21.3565   17.5706 C   0  0  0  0  0  0  0  0  0  0  0  0
  -25.1877  -30.1073   17.5618 C   0  0  1  0  0  0  0  0  0  0  0  0
  -28.2689  -32.2661   18.0255 C   0  0  2  0  0  0  0  0  0  0  0  0
  -24.1525  -30.6980   16.5633 C   0  0  0  0  0  0  0  0  0  0  0  0
  -26.4239  -11.9459   20.7941 N   0  0  0  0  0  0  0  0  0  0  0  0
  -26.3220  -13.1718   20.2527 N   0  0  0  0  0  0  0  0  0  0  0  0
  -25.1888  -28.4833   19.4290 N   0  0  0  0  0  0  0  0  0  0  0  0
  -29.4386  -15.3786   20.2477 N   0  0  0  0  0  0  0  0  0  0  0  0
  -24.7701  -14.8843   19.7336 N   0  0  0  0  0  0  0  0  0  0  0  0
  -22.3742  -13.3130   22.2203 N   0  0  0  0  0  0  0  0  0  0  0  0
  -28.6237  -17.5632   20.6030 N   0  0  0  0  0  0  0  0  0  0  0  0
  -23.0701  -25.8536   20.8046 N   0  0  0  0  0  0  0  0  0  0  0  0
  -26.1937  -31.0621   18.0142 N   0  0  0  0  0  0  0  0  0  0  0  0
  -30.8219  -21.8638   18.0411 N   0  3  1  0  0  0  0  0  0  0  0  0
  -29.7089  -31.8993   17.9120 N   0  3  0  0  0  0  0  0  0  0  0  0
  -22.0276  -12.3583   20.1643 O   0  0  0  0  0  0  0  0  0  0  0  0
  -23.9534  -26.3633   18.7112 O   0  0  0  0  0  0  0  0  0  0  0  0
  -23.4913  -30.0678   19.2192 O   0  0  0  0  0  0  0  0  0  0  0  0
  -27.7583  -30.5802   16.3719 O   0  0  0  0  0  0  0  0  0  0  0  0
  -30.7194  -17.2147   19.6711 O   0  0  0  0  0  0  0  0  0  0  0  0
  -23.9586   -6.7707   23.5664 O   0  0  0  0  0  0  0  0  0  0  0  0
  -30.3174  -25.0856   19.8823 O   0  0  0  0  0  0  0  0  0  1  0  0
  -18.6652   -5.2384   23.7577 F   0  0  0  0  0  0  0  0  0  0  0  0
  -23.1166   -4.4258   22.3684 F   0  0  0  0  0  0  0  0  0  0  0  0
  1  2  1  0  0  0  0
  1  5  2  0  0  0  0
  2  6  2  0  0  0  0
  3 10  2  0  0  0  0
  3 18  1  0  0  0  0
  4 11  1  0  0  0  0
  4 18  2  0  0  0  0
  5 20  1  0  0  0  0
  6 22  1  0  0  0  0
  7 12  2  0  0  0  0
  7 21  1  0  0  0  0
  8  9  2  0  0  0  0
  8 24  1  0  0  0  0
  9 25  1  0  0  0  0
 10 27  1  0  0  0  0
 11 27  2  0  0  0  0
 12 28  1  0  0  0  0
 13 14  2  0  0  0  0
 13 29  1  0  0  0  0
 14 30  1  0  0  0  0
 15 23  1  0  0  0  0
 15 28  2  0  0  0  0
 16 24  2  0  0  0  0
 16 26  1  0  0  0  0
 17 30  2  0  0  0  0
 17 31  1  0  0  0  0
 18 32  1  0  0  0  0
 19 32  1  0  0  0  0
 19 33  2  0  0  0  0
 19 36  1  0  0  0  0
 20 22  2  0  0  0  0
 20 41  1  0  0  0  0
 21 23  2  0  0  0  0
 21 42  1  0  0  0  0
 22 53  1  0  0  0  0
 23 43  1  0  0  0  0
 24 64  1  0  0  0  0
 25 26  2  0  0  0  0
 25 57  1  0  0  0  0
 26 74  1  0  0  0  0
 27 84  1  0  0  0  0
 28 85  1  0  0  0  0
 29 31  2  0  0  0  0
 29 84  1  0  0  0  0
 30 86  1  0  0  0  0
 31 87  1  0  0  0  0
 32 68  2  0  0  0  0
 33 69  1  0  0  0  0
 33 72  1  0  0  0  0
 34 35  2  0  0  0  0
 34 44  1  0  0  0  0
 34 77  1  0  0  0  0
 35 58  1  0  0  0  0
 36 73  1  0  0  0  0
 36 79  2  0  0  0  0
 37 54  1  0  0  0  0
 37 75  1  0  0  0  0
 37 80  2  0  0  0  0
 38 65  1  0  0  0  0
 38 70  1  0  0  0  0
 38 81  2  0  0  0  0
 39 66  1  0  0  0  0
 39 76  1  0  0  0  0
 39 82  2  0  0  0  0
 40 71  1  0  0  0  0
 40 74  1  0  0  0  0
 40 83  2  0  0  0  0
 41 45  1  0  0  0  0
 42 54  1  0  0  0  0
 43 70  1  0  0  0  0
 44 46  1  0  0  0  0
 45 48  1  0  0  0  0
 46 56  1  0  0  0  0
 47 49  1  0  0  0  0
 47 50  1  0  0  0  0
 48 53  1  0  0  0  0
 49 55  1  0  0  0  0
 50 71  1  0  0  0  0
 51 55  1  0  0  0  0
 51 71  1  0  0  0  0
 52 56  1  0  0  0  0
 52 77  1  0  0  0  0
 53 75  1  0  0  0  0
 54 70  1  0  0  0  0
 55 69  1  0  0  0  0
 56 85  1  0  0  0  0
 59 66  1  0  0  0  0
 60 67  1  0  0  0  0
 61 67  1  0  0  0  0
 62 67  1  0  0  0  0
 63 78  1  0  0  0  0
 64 77  1  0  0  0  0
 65 67  1  0  0  0  0
 65 76  1  0  0  0  0
 66 78  1  0  0  0  0
 68 69  1  0  0  0  0
M  CHG  2  77   1  78   1
M  ISO  4  40 100  56 101  74 100  85 101
M  END
> <Batch ID>
0031

> <Smiles>
CC=C1CC[101CH:1]([101O:1]c2ccc3c(c2)CN(C(=O)C(NC(=O)C(C)NC)C(C)(C)C)C(C(=O)NC2CCCc4ccccc42)C3)CN1Cc1ccc(C)c([100NH:0][100C:0](=O)N2CCCC(n3nc(-c4ccc(Oc5ccc(F)cc5F)cc4)c(C(N)=O)c3N)C2)c1

> <Shape>
0.253

> <Color>
0.108

> <Negative vol penalty>
0.000

$$$$

  -OEChem-04042321393D

 85 94  0     1  0  0  0  0  0999 V2000
  -30.2948  -32.6175   25.1420 C   0  0  0  0  0  0  0  0  0  0  0  0
  -29.8318  -31.3922   24.6732 C   0  0  0  0  0  0  0  0  0  0  0  0
  -23.8568  -10.3727   22.7163 C   0  0  0  0  0  0  0  0  0  0  0  0
  -22.8363  -12.4364   21.9836 C   0  0  0  0  0  0  0  0  0  0  0  0
  -29.3874  -33.6152   25.4957 C   0  0  0  0  0  0  0  0  0  0  0  0
  -28.4610  -31.1635   24.5589 C   0  0  0  0  0  0  0  0  0  0  0  0
  -27.2215  -28.9349   20.1837 C   0  0  0  0  0  0  0  0  0  0  0  0
  -23.0065  -10.3446   23.8216 C   0  0  0  0  0  0  0  0  0  0  0  0
  -21.9859  -12.4082   23.0889 C   0  0  0  0  0  0  0  0  0  0  0  0
  -27.4516  -27.5637   20.0800 C   0  0  0  0  0  0  0  0  0  0  0  0
  -19.7947   -9.5121   24.4729 C   0  0  0  0  0  0  0  0  0  0  0  0
  -19.1809   -8.2998   24.7879 C   0  0  0  0  0  0  0  0  0  0  0  0
  -25.1186  -27.1445   20.5281 C   0  0  0  0  0  0  0  0  0  0  0  0
  -29.5565  -18.4629   19.1249 C   0  0  0  0  0  0  0  0  0  0  0  0
  -27.1714  -19.7797   18.5250 C   0  0  0  0  0  0  0  0  0  0  0  0
  -20.2435   -8.3257   26.9576 C   0  0  0  0  0  0  0  0  0  0  0  0
  -23.7718  -11.4186   21.7973 C   0  0  0  0  0  0  0  0  0  0  0  0
  -24.4164  -10.8829   19.3879 C   0  0  0  0  0  0  0  0  0  0  0  0
  -28.0050  -33.4021   25.3765 C   0  0  0  0  0  0  0  0  0  0  0  0
  -25.9383  -29.4215   20.4717 C   0  0  0  0  0  0  0  0  0  0  0  0
  -27.5342  -32.1588   24.9125 C   0  0  0  0  0  0  0  0  0  0  0  0
  -24.8744  -28.5224   20.6324 C   0  0  0  0  0  0  0  0  0  0  0  0
  -29.5073  -19.8568   19.1372 C   0  0  0  0  0  0  0  0  0  0  0  0
  -28.3147  -20.5152   18.8373 C   0  0  0  0  0  0  0  0  0  0  0  0
  -28.4132  -17.7273   18.8125 C   0  0  0  0  0  0  0  0  0  0  0  0
  -22.0710  -11.3623   24.0079 C   0  0  0  0  0  0  0  0  0  0  0  0
  -26.4006  -26.6682   20.2551 C   0  0  0  0  0  0  0  0  0  0  0  0
  -20.6329  -10.1312   25.4001 C   0  0  0  0  0  0  0  0  0  0  0  0
  -19.4053   -7.7066   26.0303 C   0  0  0  0  0  0  0  0  0  0  0  0
  -20.8573   -9.5380   26.6425 C   0  0  0  0  0  0  0  0  0  0  0  0
  -27.2207  -18.3857   18.5126 C   0  0  0  0  0  0  0  0  0  0  0  0
  -24.6503  -11.4485   20.6557 C   0  0  0  0  0  0  0  0  0  0  0  0
  -25.5440  -11.1845   18.6640 C   0  0  0  0  0  0  0  0  0  0  0  0
  -23.2813  -10.1505   18.9076 C   0  0  0  0  0  0  0  0  0  0  0  0
  -24.6597  -31.1122   22.8403 C   0  0  0  0  0  0  0  0  0  0  0  0
  -22.0349  -31.0669   20.9347 C   0  0  0  0  0  0  0  0  0  0  0  0
  -20.2988  -29.5299   18.4307 C   0  0  0  0  0  0  0  0  0  0  0  0
  -29.6211  -15.5329   19.0810 C   0  0  0  0  0  0  0  0  0  0  0  0
  -27.0616  -34.4937   25.8158 C   0  0  0  0  0  0  0  0  0  0  0  0
  -25.7012  -30.9046   20.5538 C   0  0  0  0  0  0  0  0  0  0  0  0
  -23.4740  -28.9946   20.9229 C   0  0  0  0  0  0  0  0  0  0  0  0
  -25.6336  -34.3045   25.3106 C   0  0  0  0  0  0  0  0  0  0  0  0
  -30.2273  -12.0266   19.2047 C   0  0  0  0  0  0  0  0  0  0  0  0
  -25.1756  -32.8662   25.5309 C   0  0  0  0  0  0  0  0  0  0  0  0
  -28.8436  -11.4286   19.4694 C   0  0  0  0  0  0  0  0  0  0  0  0
  -26.8787  -23.6602   21.8666 C   0  0  0  0  0  0  0  0  0  0  0  0
  -30.4258  -13.3471   19.9468 C   0  0  0  0  0  0  0  0  0  0  0  0
  -27.9963  -13.7539   19.9813 C   0  0  0  0  0  0  0  0  0  0  0  0
  -26.8718  -22.4891   20.9048 C   0  0  0  0  0  0  0  0  0  0  0  0
  -28.6638  -24.0451   20.2988 C   0  0  0  0  0  0  0  0  0  0  0  0
  -26.0553  -31.8816   24.7510 C   0  0  1  0  0  0  0  0  0  0  0  0
  -24.4575  -31.2672   21.3594 C   0  0  1  0  0  0  0  0  0  0  0  0
  -27.7255  -12.4556   19.2036 C   0  0  2  0  0  0  0  0  0  0  0  0
  -27.5600  -24.7565   21.0658 C   0  0  1  0  0  0  0  0  0  1  0  0
  -30.7452  -20.6228   19.4711 C   0  0  0  0  0  0  0  0  0  0  0  0
  -18.1683  -29.7040   17.1161 C   0  0  0  0  0  0  0  0  0  0  0  0
  -20.4774  -29.9705   23.3184 C   0  0  0  0  0  0  0  0  0  0  0  0
  -18.6673  -29.2836   21.7309 C   0  0  0  0  0  0  0  0  0  0  0  0
  -19.2576  -31.6946   21.9790 C   0  0  0  0  0  0  0  0  0  0  0  0
  -21.7634  -29.8540   15.8794 C   0  0  0  0  0  0  0  0  0  0  0  0
  -28.2377  -22.0135   18.8440 C   0  0  0  0  0  0  0  0  0  0  0  0
  -20.8495  -30.1469   20.7696 C   0  0  1  0  0  0  0  0  0  0  0  0
  -19.6411  -30.0783   17.1772 C   0  0  2  0  0  0  0  0  0  0  0  0
  -19.8396  -30.2646   21.9459 C   0  0  0  0  0  0  0  0  0  0  0  0
  -25.8337  -12.0627   20.7358 N   0  0  0  0  0  0  0  0  0  0  0  0
  -26.3534  -11.8848   19.5093 N   0  0  0  0  0  0  0  0  0  0  0  0
  -23.2942  -30.4538   20.9999 N   0  0  0  0  0  0  0  0  0  0  0  0
  -29.3313  -14.2718   19.6434 N   0  0  0  0  0  0  0  0  0  0  0  0
  -25.9122  -10.9162   17.3932 N   0  0  0  0  0  0  0  0  0  0  0  0
  -22.2091   -9.9302   19.7829 N   0  0  0  0  0  0  0  0  0  0  0  0
  -28.4985  -16.3130   18.8054 N   0  0  0  0  0  0  0  0  0  0  0  0
  -25.6906  -31.8779   23.3505 N   0  0  0  0  0  0  0  0  0  0  0  0
  -20.2795  -30.4466   19.4605 N   0  0  0  0  0  0  0  0  0  0  0  0
  -28.2156  -22.5928   20.2219 N   0  3  2  0  0  0  0  0  0  0  0  0
  -20.3137  -29.5397   15.9613 N   0  3  0  0  0  0  0  0  0  0  0  0
  -23.2266   -9.6904   17.7419 O   0  0  0  0  0  0  0  0  0  0  0  0
  -23.9331  -30.3553   23.4733 O   0  0  0  0  0  0  0  0  0  0  0  0
  -21.8511  -32.2851   20.9962 O   0  0  0  0  0  0  0  0  0  0  0  0
  -20.7783  -28.3998   18.4914 O   0  0  0  0  0  0  0  0  0  0  0  0
  -30.7780  -15.8834   18.8349 O   0  0  0  0  0  0  0  0  0  0  0  0
  -21.2408  -11.3351   25.0862 O   0  0  0  0  0  0  0  0  0  0  0  0
  -26.6225  -25.3293   20.1550 O   0  0  0  0  0  0  0  0  0  1  0  0
  -18.8147   -6.5432   26.3332 F   0  0  0  0  0  0  0  0  0  0  0  0
  -21.6606  -10.1286   27.5379 F   0  0  0  0  0  0  0  0  0  0  0  0
  -25.7813  -17.5137   18.1210 Cl  0  0  0  0  0  0  0  0  0  0  0  0
  1  2  1  0  0  0  0
  1  5  2  0  0  0  0
  2  6  2  0  0  0  0
  3  8  2  0  0  0  0
  3 17  1  0  0  0  0
  4  9  1  0  0  0  0
  4 17  2  0  0  0  0
  5 19  1  0  0  0  0
  6 21  1  0  0  0  0
  7 10  2  0  0  0  0
  7 20  1  0  0  0  0
  8 26  1  0  0  0  0
  9 26  2  0  0  0  0
 10 27  1  0  0  0  0
 11 12  2  0  0  0  0
 11 28  1  0  0  0  0
 12 29  1  0  0  0  0
 13 22  1  0  0  0  0
 13 27  2  0  0  0  0
 14 23  1  0  0  0  0
 14 25  2  0  0  0  0
 15 24  1  0  0  0  0
 15 31  2  0  0  0  0
 16 29  2  0  0  0  0
 16 30  1  0  0  0  0
 17 32  1  0  0  0  0
 18 32  1  0  0  0  0
 18 33  2  0  0  0  0
 18 34  1  0  0  0  0
 19 21  2  0  0  0  0
 19 39  1  0  0  0  0
 20 22  2  0  0  0  0
 20 40  1  0  0  0  0
 21 51  1  0  0  0  0
 22 41  1  0  0  0  0
 23 24  2  0  0  0  0
 23 55  1  0  0  0  0
 24 61  1  0  0  0  0
 25 31  1  0  0  0  0
 25 71  1  0  0  0  0
 26 81  1  0  0  0  0
 27 82  1  0  0  0  0
 28 30  2  0  0  0  0
 28 81  1  0  0  0  0
 29 83  1  0  0  0  0
 30 84  1  0  0  0  0
 31 85  1  0  0  0  0
 32 65  2  0  0  0  0
 33 66  1  0  0  0  0
 33 69  1  0  0  0  0
 34 70  1  0  0  0  0
 34 76  2  0  0  0  0
 35 52  1  0  0  0  0
 35 72  1  0  0  0  0
 35 77  2  0  0  0  0
 36 62  1  0  0  0  0
 36 67  1  0  0  0  0
 36 78  2  0  0  0  0
 37 63  1  0  0  0  0
 37 73  1  0  0  0  0
 37 79  2  0  0  0  0
 38 68  1  0  0  0  0
 38 71  1  0  0  0  0
 38 80  2  0  0  0  0
 39 42  1  0  0  0  0
 40 52  1  0  0  0  0
 41 67  1  0  0  0  0
 42 44  1  0  0  0  0
 43 45  1  0  0  0  0
 43 47  1  0  0  0  0
 44 51  1  0  0  0  0
 45 53  1  0  0  0  0
 46 49  1  0  0  0  0
 46 54  1  0  0  0  0
 47 68  1  0  0  0  0
 48 53  1  0  0  0  0
 48 68  1  0  0  0  0
 49 74  1  0  0  0  0
 50 54  1  0  0  0  0
 50 74  1  0  0  0  0
 51 72  1  0  0  0  0
 52 67  1  0  0  0  0
 53 66  1  0  0  0  0
 54 82  1  0  0  0  0
 56 63  1  0  0  0  0
 57 64  1  0  0  0  0
 58 64  1  0  0  0  0
 59 64  1  0  0  0  0
 60 75  1  0  0  0  0
 61 74  1  0  0  0  0
 62 64  1  0  0  0  0
 62 73  1  0  0  0  0
 63 75  1  0  0  0  0
 65 66  1  0  0  0  0
M  CHG  2  74   1  75   1
M  ISO  4  38 100  54 101  71 100  82 101
M  END
> <Batch ID>
0031

> <Smiles>
CNC(C)C(=O)NC(C(=O)N1Cc2cc([101O:1][101CH:1]3CCN(Cc4cc(Cl)c([100NH:0][100C:0](=O)N5CCCC(n6nc(-c7ccc(Oc8ccc(F)cc8F)cc7)c(C(N)=O)c6N)C5)cc4C)C3)ccc2CC1C(=O)NC1CCCc2ccccc21)C(C)(C)C

> <Shape>
0.268

> <Color>
0.074

> <Negative vol penalty>
0.000

$$$$

  -OEChem-04042321393D

 86 95  0     1  0  0  0  0  0999 V2000
  -20.9607  -27.5871   21.1639 C   0  0  0  0  0  0  0  0  0  0  0  0
  -21.7726  -26.4837   21.4064 C   0  0  0  0  0  0  0  0  0  0  0  0
  -23.0763   -9.8660   19.9411 C   0  0  0  0  0  0  0  0  0  0  0  0
  -23.8319   -9.8770   22.2359 C   0  0  0  0  0  0  0  0  0  0  0  0
  -20.9925  -28.6785   22.0309 C   0  0  0  0  0  0  0  0  0  0  0  0
  -22.6175  -26.4716   22.5155 C   0  0  0  0  0  0  0  0  0  0  0  0
  -24.1431  -21.6208   25.9285 C   0  0  0  0  0  0  0  0  0  0  0  0
  -31.5600  -19.3850   22.8534 C   0  0  0  0  0  0  0  0  0  0  0  0
  -22.3327   -8.7128   20.1915 C   0  0  0  0  0  0  0  0  0  0  0  0
  -23.0882   -8.7238   22.4863 C   0  0  0  0  0  0  0  0  0  0  0  0
  -25.2626  -20.7899   25.9302 C   0  0  0  0  0  0  0  0  0  0  0  0
  -19.3822   -7.9167   21.6385 C   0  0  0  0  0  0  0  0  0  0  0  0
  -18.0762   -7.8689   21.1509 C   0  0  0  0  0  0  0  0  0  0  0  0
  -31.4395  -19.1535   21.4832 C   0  0  0  0  0  0  0  0  0  0  0  0
  -26.2333  -22.1114   27.6996 C   0  0  0  0  0  0  0  0  0  0  0  0
  -18.6396   -5.9241   19.8328 C   0  0  0  0  0  0  0  0  0  0  0  0
  -23.8260  -10.4481   20.9633 C   0  0  0  0  0  0  0  0  0  0  0  0
  -24.1665  -12.9733   20.8400 C   0  0  0  0  0  0  0  0  0  0  0  0
  -21.8312  -28.6757   23.1566 C   0  0  0  0  0  0  0  0  0  0  0  0
  -24.0650  -22.7116   26.8063 C   0  0  0  0  0  0  0  0  0  0  0  0
  -22.6616  -27.5645   23.3977 C   0  0  0  0  0  0  0  0  0  0  0  0
  -25.1105  -22.9531   27.7088 C   0  0  0  0  0  0  0  0  0  0  0  0
  -31.1894  -18.3948   23.7633 C   0  0  0  0  0  0  0  0  0  0  0  0
  -30.6981  -17.1732   23.3029 C   0  0  0  0  0  0  0  0  0  0  0  0
  -30.5776  -16.9417   21.9327 C   0  0  0  0  0  0  0  0  0  0  0  0
  -22.3386   -8.1417   21.4641 C   0  0  0  0  0  0  0  0  0  0  0  0
  -26.3092  -21.0368   26.8138 C   0  0  0  0  0  0  0  0  0  0  0  0
  -20.3169   -6.9682   21.2232 C   0  0  0  0  0  0  0  0  0  0  0  0
  -17.7049   -6.8726   20.2481 C   0  0  0  0  0  0  0  0  0  0  0  0
  -19.9456   -5.9719   20.3204 C   0  0  0  0  0  0  0  0  0  0  0  0
  -30.9483  -17.9319   21.0228 C   0  0  0  0  0  0  0  0  0  0  0  0
  -24.5948  -11.6390   20.7052 C   0  0  0  0  0  0  0  0  0  0  0  0
  -25.2589  -13.7228   20.4776 C   0  0  0  0  0  0  0  0  0  0  0  0
  -30.1657  -19.2443   27.3028 C   0  0  0  0  0  0  0  0  0  0  0  0
  -30.5645  -18.3042   28.1679 C   0  0  0  0  0  0  0  0  0  0  0  0
  -22.8949  -13.4890   21.2557 C   0  0  0  0  0  0  0  0  0  0  0  0
  -23.8520  -25.8634   26.4542 C   0  0  0  0  0  0  0  0  0  0  0  0
  -23.4987  -25.8082   29.6782 C   0  0  0  0  0  0  0  0  0  0  0  0
  -24.0373  -24.1717   32.6242 C   0  0  0  0  0  0  0  0  0  0  0  0
  -30.7241  -14.7720   20.6608 C   0  0  0  0  0  0  0  0  0  0  0  0
  -21.8658  -29.8983   24.0391 C   0  0  0  0  0  0  0  0  0  0  0  0
  -22.8387  -23.5826   26.8104 C   0  0  0  0  0  0  0  0  0  0  0  0
  -25.0664  -24.0989   28.6853 C   0  0  0  0  0  0  0  0  0  0  0  0
  -29.6417  -20.5972   27.6711 C   0  0  0  0  0  0  0  0  0  0  0  0
  -22.5136  -29.6498   25.3988 C   0  0  0  0  0  0  0  0  0  0  0  0
  -29.6156  -12.3538   18.2943 C   0  0  0  0  0  0  0  0  0  0  0  0
  -23.8198  -28.8792   25.2351 C   0  0  0  0  0  0  0  0  0  0  0  0
  -28.1753  -12.0620   18.7216 C   0  0  0  0  0  0  0  0  0  0  0  0
  -30.5283  -12.5851   19.4973 C   0  0  0  0  0  0  0  0  0  0  0  0
  -28.6183  -13.3105   20.8738 C   0  0  0  0  0  0  0  0  0  0  0  0
  -29.2923  -20.1543   25.3295 C   0  0  0  0  0  0  0  0  0  0  0  0
  -23.5733  -27.5035   24.6040 C   0  0  1  0  0  0  0  0  0  0  0  0
  -23.0928  -24.9693   27.3933 C   0  0  1  0  0  0  0  0  0  0  0  0
  -27.6478  -13.1348   19.6945 C   0  0  2  0  0  0  0  0  0  0  0  0
  -28.6595  -20.8354   26.5348 C   0  0  1  0  0  0  0  0  0  1  0  0
  -30.3045  -16.1153   24.2864 C   0  0  0  0  0  0  0  0  0  0  0  0
  -23.6682  -24.3928   35.0965 C   0  0  0  0  0  0  0  0  0  0  0  0
  -25.7906  -27.8160   29.8384 C   0  0  0  0  0  0  0  0  0  0  0  0
  -26.0019  -27.2751   32.2738 C   0  0  0  0  0  0  0  0  0  0  0  0
  -23.8907  -28.2750   31.3985 C   0  0  0  0  0  0  0  0  0  0  0  0
  -22.3658  -21.7309   32.7103 C   0  0  0  0  0  0  0  0  0  0  0  0
  -31.3285  -18.6706   25.2315 C   0  0  0  0  0  0  0  0  0  0  0  0
  -24.4388  -25.8668   30.8579 C   0  0  1  0  0  0  0  0  0  0  0  0
  -23.1120  -23.8580   33.7860 C   0  0  2  0  0  0  0  0  0  0  0  0
  -25.0325  -27.2877   31.0725 C   0  0  0  0  0  0  0  0  0  0  0  0
  -25.8605  -11.5433   20.2894 N   0  0  0  0  0  0  0  0  0  0  0  0
  -26.2369  -12.8269   20.1597 N   0  0  0  0  0  0  0  0  0  0  0  0
  -23.8490  -24.9259   28.6464 N   0  0  0  0  0  0  0  0  0  0  0  0
  -29.9671  -13.6169   20.3720 N   0  0  0  0  0  0  0  0  0  0  0  0
  -25.4686  -15.0543   20.4028 N   0  0  0  0  0  0  0  0  0  0  0  0
  -21.8829  -12.5797   21.5925 N   0  0  0  0  0  0  0  0  0  0  0  0
  -30.0746  -15.6980   21.4766 N   0  0  0  0  0  0  0  0  0  0  0  0
  -23.0490  -26.5821   25.5892 N   0  0  0  0  0  0  0  0  0  0  0  0
  -23.6923  -25.3522   32.0008 N   0  0  0  0  0  0  0  0  0  0  0  0
  -30.0168  -18.9404   25.9054 N   0  3  1  0  0  0  0  0  0  0  0  0
  -22.9289  -22.3850   33.9194 N   0  3  0  0  0  0  0  0  0  0  0  0
  -22.6578  -14.7195   21.3106 O   0  0  0  0  0  0  0  0  0  0  0  0
  -25.0755  -25.8998   26.5112 O   0  0  0  0  0  0  0  0  0  0  0  0
  -22.4869  -26.5138   29.6757 O   0  0  0  0  0  0  0  0  0  0  0  0
  -24.9748  -23.4443   32.3041 O   0  0  0  0  0  0  0  0  0  0  0  0
  -31.8540  -14.9407   20.1951 O   0  0  0  0  0  0  0  0  0  0  0  0
  -21.6129   -7.0166   21.7089 O   0  0  0  0  0  0  0  0  0  0  0  0
  -27.4034  -20.2277   26.8171 O   0  0  0  0  0  0  0  0  0  1  0  0
  -16.4504   -6.8259   19.7811 F   0  0  0  0  0  0  0  0  0  0  0  0
  -20.8388   -5.0573   19.9187 F   0  0  0  0  0  0  0  0  0  0  0  0
  -30.8215  -17.6896   19.3164 Cl  0  0  0  0  0  0  0  0  0  0  0  0
  1  2  1  0  0  0  0
  1  5  2  0  0  0  0
  2  6  2  0  0  0  0
  3  9  2  0  0  0  0
  3 17  1  0  0  0  0
  4 10  1  0  0  0  0
  4 17  2  0  0  0  0
  5 19  1  0  0  0  0
  6 21  1  0  0  0  0
  7 11  2  0  0  0  0
  7 20  1  0  0  0  0
  8 14  2  0  0  0  0
  8 23  1  0  0  0  0
  9 26  1  0  0  0  0
 10 26  2  0  0  0  0
 11 27  1  0  0  0  0
 12 13  2  0  0  0  0
 12 28  1  0  0  0  0
 13 29  1  0  0  0  0
 14 31  1  0  0  0  0
 15 22  1  0  0  0  0
 15 27  2  0  0  0  0
 16 29  2  0  0  0  0
 16 30  1  0  0  0  0
 17 32  1  0  0  0  0
 18 32  1  0  0  0  0
 18 33  2  0  0  0  0
 18 36  1  0  0  0  0
 19 21  2  0  0  0  0
 19 41  1  0  0  0  0
 20 22  2  0  0  0  0
 20 42  1  0  0  0  0
 21 52  1  0  0  0  0
 22 43  1  0  0  0  0
 23 24  2  0  0  0  0
 23 62  1  0  0  0  0
 24 25  1  0  0  0  0
 24 56  1  0  0  0  0
 25 31  2  0  0  0  0
 25 72  1  0  0  0  0
 26 82  1  0  0  0  0
 27 83  1  0  0  0  0
 28 30  2  0  0  0  0
 28 82  1  0  0  0  0
 29 84  1  0  0  0  0
 30 85  1  0  0  0  0
 31 86  1  0  0  0  0
 32 66  2  0  0  0  0
 33 67  1  0  0  0  0
 33 70  1  0  0  0  0
 34 35  2  0  0  0  0
 34 44  1  0  0  0  0
 34 75  1  0  0  0  0
 36 71  1  0  0  0  0
 36 77  2  0  0  0  0
 37 53  1  0  0  0  0
 37 73  1  0  0  0  0
 37 78  2  0  0  0  0
 38 63  1  0  0  0  0
 38 68  1  0  0  0  0
 38 79  2  0  0  0  0
 39 64  1  0  0  0  0
 39 74  1  0  0  0  0
 39 80  2  0  0  0  0
 40 69  1  0  0  0  0
 40 72  1  0  0  0  0
 40 81  2  0  0  0  0
 41 45  1  0  0  0  0
 42 53  1  0  0  0  0
 43 68  1  0  0  0  0
 44 55  1  0  0  0  0
 45 47  1  0  0  0  0
 46 48  1  0  0  0  0
 46 49  1  0  0  0  0
 47 52  1  0  0  0  0
 48 54  1  0  0  0  0
 49 69  1  0  0  0  0
 50 54  1  0  0  0  0
 50 69  1  0  0  0  0
 51 55  1  0  0  0  0
 51 75  1  0  0  0  0
 52 73  1  0  0  0  0
 53 68  1  0  0  0  0
 54 67  1  0  0  0  0
 55 83  1  0  0  0  0
 57 64  1  0  0  0  0
 58 65  1  0  0  0  0
 59 65  1  0  0  0  0
 60 65  1  0  0  0  0
 61 76  1  0  0  0  0
 62 75  1  0  0  0  0
 63 65  1  0  0  0  0
 63 74  1  0  0  0  0
 64 76  1  0  0  0  0
 66 67  1  0  0  0  0
M  CHG  2  75   1  76   1
M  ISO  4  40 100  55 101  72 100  83 101
M  END
> <Batch ID>
0031

> <Smiles>
C=C1C[101CH:1]([101O:1]c2ccc3c(c2)CN(C(=O)C(NC(=O)C(C)NC)C(C)(C)C)C(C(=O)NC2CCCc4ccccc42)C3)CN1Cc1ccc(Cl)c([100NH:0][100C:0](=O)N2CCCC(n3nc(-c4ccc(Oc5ccc(F)cc5F)cc4)c(C(N)=O)c3N)C2)c1C

> <Shape>
0.186

> <Color>
0.187

> <Negative vol penalty>
0.000

$$$$

  -OEChem-04042321393D

 85 94  0     1  0  0  0  0  0999 V2000
  -36.5003  -29.3228   17.6659 C   0  0  0  0  0  0  0  0  0  0  0  0
  -36.0452  -28.6499   18.7952 C   0  0  0  0  0  0  0  0  0  0  0  0
  -23.0318  -10.0183   19.8423 C   0  0  0  0  0  0  0  0  0  0  0  0
  -23.8753   -9.7817   22.0939 C   0  0  0  0  0  0  0  0  0  0  0  0
  -35.6824  -29.4281   16.5417 C   0  0  0  0  0  0  0  0  0  0  0  0
  -34.7713  -28.0827   18.8014 C   0  0  0  0  0  0  0  0  0  0  0  0
  -34.7366  -23.4056   20.7427 C   0  0  0  0  0  0  0  0  0  0  0  0
  -32.8487  -17.1305   23.7450 C   0  0  0  0  0  0  0  0  0  0  0  0
  -32.2149  -16.3489   22.7791 C   0  0  0  0  0  0  0  0  0  0  0  0
  -22.2793   -8.8548   20.0019 C   0  0  0  0  0  0  0  0  0  0  0  0
  -23.1227   -8.6181   22.2535 C   0  0  0  0  0  0  0  0  0  0  0  0
  -34.7859  -23.2922   22.1314 C   0  0  0  0  0  0  0  0  0  0  0  0
  -19.3739   -7.9499   21.4759 C   0  0  0  0  0  0  0  0  0  0  0  0
  -18.0496   -7.9693   21.0386 C   0  0  0  0  0  0  0  0  0  0  0  0
  -32.4013  -22.9314   22.1806 C   0  0  0  0  0  0  0  0  0  0  0  0
  -30.0672  -17.1599   23.5320 C   0  0  0  0  0  0  0  0  0  0  0  0
  -18.5294   -6.1649   19.5053 C   0  0  0  0  0  0  0  0  0  0  0  0
  -23.8299  -10.4818   20.8883 C   0  0  0  0  0  0  0  0  0  0  0  0
  -24.2073  -13.0016   21.0127 C   0  0  0  0  0  0  0  0  0  0  0  0
  -34.4016  -28.8536   16.5306 C   0  0  0  0  0  0  0  0  0  0  0  0
  -33.5155  -23.2934   20.0623 C   0  0  0  0  0  0  0  0  0  0  0  0
  -33.9350  -28.1815   17.6765 C   0  0  0  0  0  0  0  0  0  0  0  0
  -32.3395  -23.0412   20.7830 C   0  0  0  0  0  0  0  0  0  0  0  0
  -32.0918  -17.9268   24.6045 C   0  0  0  0  0  0  0  0  0  0  0  0
  -30.7010  -17.9415   24.4980 C   0  0  0  0  0  0  0  0  0  0  0  0
  -30.8242  -16.3636   22.6726 C   0  0  0  0  0  0  0  0  0  0  0  0
  -22.3248   -8.1547   21.2075 C   0  0  0  0  0  0  0  0  0  0  0  0
  -33.6177  -23.0580   22.8508 C   0  0  0  0  0  0  0  0  0  0  0  0
  -20.2761   -7.0380   20.9278 C   0  0  0  0  0  0  0  0  0  0  0  0
  -17.6273   -7.0769   20.0533 C   0  0  0  0  0  0  0  0  0  0  0  0
  -19.8538   -6.1455   19.9426 C   0  0  0  0  0  0  0  0  0  0  0  0
  -24.6079  -11.6833   20.7239 C   0  0  0  0  0  0  0  0  0  0  0  0
  -25.2972  -13.7710   20.6862 C   0  0  0  0  0  0  0  0  0  0  0  0
  -33.1194  -21.0478   26.4265 C   0  0  0  0  0  0  0  0  0  0  0  0
  -32.2313  -21.1749   27.4196 C   0  0  0  0  0  0  0  0  0  0  0  0
  -22.9614  -13.4873   21.5300 C   0  0  0  0  0  0  0  0  0  0  0  0
  -31.7866  -25.2255   18.2234 C   0  0  0  0  0  0  0  0  0  0  0  0
  -29.9618  -22.5735   17.8239 C   0  0  0  0  0  0  0  0  0  0  0  0
  -28.9464  -19.5467   19.0299 C   0  0  0  0  0  0  0  0  0  0  0  0
  -30.7821  -14.7269   20.7579 C   0  0  0  0  0  0  0  0  0  0  0  0
  -33.5355  -29.0341   15.3091 C   0  0  0  0  0  0  0  0  0  0  0  0
  -33.4831  -23.3915   18.5617 C   0  0  0  0  0  0  0  0  0  0  0  0
  -31.0063  -22.8926   20.0983 C   0  0  0  0  0  0  0  0  0  0  0  0
  -34.3607  -21.8677   26.2613 C   0  0  0  0  0  0  0  0  0  0  0  0
  -32.3431  -28.0822   15.2618 C   0  0  0  0  0  0  0  0  0  0  0  0
  -29.5433  -12.5814   18.2007 C   0  0  0  0  0  0  0  0  0  0  0  0
  -31.6340  -28.0471   16.6119 C   0  0  0  0  0  0  0  0  0  0  0  0
  -28.1159  -12.2650   18.6529 C   0  0  0  0  0  0  0  0  0  0  0  0
  -30.5054  -12.6751   19.3836 C   0  0  0  0  0  0  0  0  0  0  0  0
  -28.6621  -13.2777   20.9030 C   0  0  0  0  0  0  0  0  0  0  0  0
  -33.9329  -20.5586   24.2855 C   0  0  0  0  0  0  0  0  0  0  0  0
  -32.5688  -27.5316   17.7127 C   0  0  1  0  0  0  0  0  0  0  0  0
  -32.1099  -23.7726   18.0174 C   0  0  1  0  0  0  0  0  0  0  0  0
  -27.6442  -13.2375   19.7516 C   0  0  2  0  0  0  0  0  0  0  0  0
  -34.4707  -21.9063   24.7451 C   0  0  1  0  0  0  0  0  0  1  0  0
  -29.8703  -18.7878   25.4059 C   0  0  0  0  0  0  0  0  0  0  0  0
  -27.7845  -17.3227   19.0588 C   0  0  0  0  0  0  0  0  0  0  0  0
  -27.5623  -24.2463   18.6923 C   0  0  0  0  0  0  0  0  0  0  0  0
  -26.2988  -22.1164   19.0602 C   0  0  0  0  0  0  0  0  0  0  0  0
  -27.1180  -22.7001   16.7775 C   0  0  0  0  0  0  0  0  0  0  0  0
  -31.2459  -18.1982   17.7444 C   0  0  0  0  0  0  0  0  0  0  0  0
  -32.7959  -18.7583   25.6359 C   0  0  0  0  0  0  0  0  0  0  0  0
  -28.7770  -21.9730   18.5413 C   0  0  1  0  0  0  0  0  0  0  0  0
  -28.8269  -18.1867   18.3663 C   0  0  2  0  0  0  0  0  0  0  0  0
  -27.4637  -22.7636   18.2812 C   0  0  0  0  0  0  0  0  0  0  0  0
  -25.8549  -11.6154   20.2501 N   0  0  0  0  0  0  0  0  0  0  0  0
  -26.2473  -12.9007   20.2387 N   0  0  0  0  0  0  0  0  0  0  0  0
  -31.0254  -23.0028   18.6303 N   0  0  0  0  0  0  0  0  0  0  0  0
  -29.9955  -13.6176   20.3819 N   0  0  0  0  0  0  0  0  0  0  0  0
  -25.5260  -15.1003   20.7409 N   0  0  0  0  0  0  0  0  0  0  0  0
  -21.9482  -12.5608   21.8114 N   0  0  0  0  0  0  0  0  0  0  0  0
  -30.1800  -15.5712   21.6902 N   0  0  0  0  0  0  0  0  0  0  0  0
  -32.6908  -26.0914   17.6387 N   0  0  0  0  0  0  0  0  0  0  0  0
  -28.7215  -20.5725   18.1364 N   0  0  0  0  0  0  0  0  0  0  0  0
  -32.8345  -20.2162   25.2887 N   0  3  1  0  0  0  0  0  0  0  0  0
  -30.1340  -17.4722   18.4103 N   0  3  0  0  0  0  0  0  0  0  0  0
  -22.7471  -14.7084   21.7211 O   0  0  0  0  0  0  0  0  0  0  0  0
  -30.7897  -25.5377   18.8641 O   0  0  0  0  0  0  0  0  0  0  0  0
  -29.9472  -22.6520   16.5930 O   0  0  0  0  0  0  0  0  0  0  0  0
  -29.2091  -19.6852   20.2226 O   0  0  0  0  0  0  0  0  0  0  0  0
  -31.8959  -14.9288   20.2672 O   0  0  0  0  0  0  0  0  0  0  0  0
  -21.5904   -7.0194   21.3636 O   0  0  0  0  0  0  0  0  0  0  0  0
  -33.6630  -22.9476   24.2064 O   0  0  0  0  0  0  0  0  0  1  0  0
  -16.3551   -7.0946   19.6346 F   0  0  0  0  0  0  0  0  0  0  0  0
  -20.7156   -5.2664   19.4132 F   0  0  0  0  0  0  0  0  0  0  0  0
  1  2  1  0  0  0  0
  1  5  2  0  0  0  0
  2  6  2  0  0  0  0
  3 10  2  0  0  0  0
  3 18  1  0  0  0  0
  4 11  1  0  0  0  0
  4 18  2  0  0  0  0
  5 20  1  0  0  0  0
  6 22  1  0  0  0  0
  7 12  2  0  0  0  0
  7 21  1  0  0  0  0
  8  9  2  0  0  0  0
  8 24  1  0  0  0  0
  9 26  1  0  0  0  0
 10 27  1  0  0  0  0
 11 27  2  0  0  0  0
 12 28  1  0  0  0  0
 13 14  2  0  0  0  0
 13 29  1  0  0  0  0
 14 30  1  0  0  0  0
 15 23  1  0  0  0  0
 15 28  2  0  0  0  0
 16 25  1  0  0  0  0
 16 26  2  0  0  0  0
 17 30  2  0  0  0  0
 17 31  1  0  0  0  0
 18 32  1  0  0  0  0
 19 32  1  0  0  0  0
 19 33  2  0  0  0  0
 19 36  1  0  0  0  0
 20 22  2  0  0  0  0
 20 41  1  0  0  0  0
 21 23  2  0  0  0  0
 21 42  1  0  0  0  0
 22 52  1  0  0  0  0
 23 43  1  0  0  0  0
 24 25  2  0  0  0  0
 24 62  1  0  0  0  0
 25 56  1  0  0  0  0
 26 72  1  0  0  0  0
 27 82  1  0  0  0  0
 28 83  1  0  0  0  0
 29 31  2  0  0  0  0
 29 82  1  0  0  0  0
 30 84  1  0  0  0  0
 31 85  1  0  0  0  0
 32 66  2  0  0  0  0
 33 67  1  0  0  0  0
 33 70  1  0  0  0  0
 34 35  2  0  0  0  0
 34 44  1  0  0  0  0
 34 75  1  0  0  0  0
 36 71  1  0  0  0  0
 36 77  2  0  0  0  0
 37 53  1  0  0  0  0
 37 73  1  0  0  0  0
 37 78  2  0  0  0  0
 38 63  1  0  0  0  0
 38 68  1  0  0  0  0
 38 79  2  0  0  0  0
 39 64  1  0  0  0  0
 39 74  1  0  0  0  0
 39 80  2  0  0  0  0
 40 69  1  0  0  0  0
 40 72  1  0  0  0  0
 40 81  2  0  0  0  0
 41 45  1  0  0  0  0
 42 53  1  0  0  0  0
 43 68  1  0  0  0  0
 44 55  1  0  0  0  0
 45 47  1  0  0  0  0
 46 48  1  0  0  0  0
 46 49  1  0  0  0  0
 47 52  1  0  0  0  0
 48 54  1  0  0  0  0
 49 69  1  0  0  0  0
 50 54  1  0  0  0  0
 50 69  1  0  0  0  0
 51 55  1  0  0  0  0
 51 75  1  0  0  0  0
 52 73  1  0  0  0  0
 53 68  1  0  0  0  0
 54 67  1  0  0  0  0
 55 83  1  0  0  0  0
 57 64  1  0  0  0  0
 58 65  1  0  0  0  0
 59 65  1  0  0  0  0
 60 65  1  0  0  0  0
 61 76  1  0  0  0  0
 62 75  1  0  0  0  0
 63 65  1  0  0  0  0
 63 74  1  0  0  0  0
 64 76  1  0  0  0  0
 66 67  1  0  0  0  0
M  CHG  2  75   1  76   1
M  ISO  4  40 100  55 101  72 100  83 101
M  END
> <Batch ID>
0031

> <Smiles>
C=C1C[101CH:1]([101O:1]c2ccc3c(c2)CN(C(=O)C(NC(=O)C(C)NC)C(C)(C)C)C(C(=O)NC2CCCc4ccccc42)C3)CN1Cc1ccc([100NH:0][100C:0](=O)N2CCCC(n3nc(-c4ccc(Oc5ccc(F)cc5F)cc4)c(C(N)=O)c3N)C2)cc1C

> <Shape>
0.215

> <Color>
0.208

> <Negative vol penalty>
0.000

$$$$

  -OEChem-04042321393D

 85 94  0     1  0  0  0  0  0999 V2000
  -30.2070  -35.7312   23.2293 C   0  0  0  0  0  0  0  0  0  0  0  0
  -30.2358  -34.4089   22.7980 C   0  0  0  0  0  0  0  0  0  0  0  0
  -24.6156   -8.7253   21.3650 C   0  0  0  0  0  0  0  0  0  0  0  0
  -23.2477  -10.6025   22.0299 C   0  0  0  0  0  0  0  0  0  0  0  0
  -29.1110  -36.2048   23.9493 C   0  0  0  0  0  0  0  0  0  0  0  0
  -29.1689  -33.5590   23.0874 C   0  0  0  0  0  0  0  0  0  0  0  0
  -26.9903  -29.0524   19.5589 C   0  0  0  0  0  0  0  0  0  0  0  0
  -27.8697  -20.3359   20.7693 C   0  0  0  0  0  0  0  0  0  0  0  0
  -28.1306  -18.9877   20.5246 C   0  0  0  0  0  0  0  0  0  0  0  0
  -24.0270   -7.9441   22.3594 C   0  0  0  0  0  0  0  0  0  0  0  0
  -22.6590   -9.8213   23.0243 C   0  0  0  0  0  0  0  0  0  0  0  0
  -27.1935  -27.6731   19.5671 C   0  0  0  0  0  0  0  0  0  0  0  0
  -21.1346   -6.2525   22.8125 C   0  0  0  0  0  0  0  0  0  0  0  0
  -20.7352   -4.9606   22.4704 C   0  0  0  0  0  0  0  0  0  0  0  0
  -25.1765  -27.3898   20.8598 C   0  0  0  0  0  0  0  0  0  0  0  0
  -22.2247   -4.0570   24.1443 C   0  0  0  0  0  0  0  0  0  0  0  0
  -24.2260  -10.0545   21.2002 C   0  0  0  0  0  0  0  0  0  0  0  0
  -24.3985  -11.0161   18.8437 C   0  0  0  0  0  0  0  0  0  0  0  0
  -28.0258  -35.3628   24.2393 C   0  0  0  0  0  0  0  0  0  0  0  0
  -25.8828  -29.6126   20.2115 C   0  0  0  0  0  0  0  0  0  0  0  0
  -28.0579  -34.0213   23.8131 C   0  0  0  0  0  0  0  0  0  0  0  0
  -24.9603  -28.7763   20.8562 C   0  0  0  0  0  0  0  0  0  0  0  0
  -26.8536  -20.7004   21.6528 C   0  0  0  0  0  0  0  0  0  0  0  0
  -26.0985  -19.7168   22.2914 C   0  0  0  0  0  0  0  0  0  0  0  0
  -26.3594  -18.3685   22.0466 C   0  0  0  0  0  0  0  0  0  0  0  0
  -27.3755  -18.0040   21.1632 C   0  0  0  0  0  0  0  0  0  0  0  0
  -23.0487   -8.4921   23.1891 C   0  0  0  0  0  0  0  0  0  0  0  0
  -26.2881  -26.8418   20.2201 C   0  0  0  0  0  0  0  0  0  0  0  0
  -22.0791   -6.4467   23.8204 C   0  0  0  0  0  0  0  0  0  0  0  0
  -21.2802   -3.8628   23.1364 C   0  0  0  0  0  0  0  0  0  0  0  0
  -22.6241   -5.3489   24.4863 C   0  0  0  0  0  0  0  0  0  0  0  0
  -24.8340  -10.8622   20.1736 C   0  0  0  0  0  0  0  0  0  0  0  0
  -25.3080  -11.8788   18.2823 C   0  0  0  0  0  0  0  0  0  0  0  0
  -25.6217  -23.1827   19.8861 C   0  0  0  0  0  0  0  0  0  0  0  0
  -25.9531  -22.6370   18.7125 C   0  0  0  0  0  0  0  0  0  0  0  0
  -23.2726  -10.4317   18.1757 C   0  0  0  0  0  0  0  0  0  0  0  0
  -25.4922  -31.6416   22.6269 C   0  0  0  0  0  0  0  0  0  0  0  0
  -22.3652  -31.4256   21.7918 C   0  0  0  0  0  0  0  0  0  0  0  0
  -19.8849  -29.6246   20.2911 C   0  0  0  0  0  0  0  0  0  0  0  0
  -28.8905  -16.0838   20.5602 C   0  0  0  0  0  0  0  0  0  0  0  0
  -26.8843  -35.9069   25.0614 C   0  0  0  0  0  0  0  0  0  0  0  0
  -25.6635  -31.1001   20.1706 C   0  0  0  0  0  0  0  0  0  0  0  0
  -23.7443  -29.3263   21.5543 C   0  0  0  0  0  0  0  0  0  0  0  0
  -25.6263  -35.0442   25.0031 C   0  0  0  0  0  0  0  0  0  0  0  0
  -29.8815  -13.2531   18.6413 C   0  0  0  0  0  0  0  0  0  0  0  0
  -25.9784  -33.5730   25.1990 C   0  0  0  0  0  0  0  0  0  0  0  0
  -28.6577  -12.3354   18.6903 C   0  0  0  0  0  0  0  0  0  0  0  0
  -30.0901  -13.9913   19.9624 C   0  0  0  0  0  0  0  0  0  0  0  0
  -27.6940  -13.8077   20.5043 C   0  0  0  0  0  0  0  0  0  0  0  0
  -25.0186  -24.0078   21.6789 C   0  0  0  0  0  0  0  0  0  0  0  0
  -26.9086  -33.0754   24.0860 C   0  0  1  0  0  0  0  0  0  0  0  0
  -25.3382  -24.6143   20.2911 C   0  0  1  0  0  0  0  0  0  1  0  0
  -24.7778  -31.6049   21.3055 C   0  0  1  0  0  0  0  0  0  0  0  0
  -27.4052  -13.0918   19.1748 C   0  0  2  0  0  0  0  0  0  0  0  0
  -25.0094  -20.1108   23.2384 C   0  0  0  0  0  0  0  0  0  0  0  0
  -25.5478  -17.3146   22.7331 C   0  0  0  0  0  0  0  0  0  0  0  0
  -17.4249  -29.6891   19.7998 C   0  0  0  0  0  0  0  0  0  0  0  0
  -21.7687  -30.7041   24.6959 C   0  0  0  0  0  0  0  0  0  0  0  0
  -19.5276  -29.8693   23.9553 C   0  0  0  0  0  0  0  0  0  0  0  0
  -20.1242  -32.2723   23.6517 C   0  0  0  0  0  0  0  0  0  0  0  0
  -20.3490  -29.5617   17.3689 C   0  0  0  0  0  0  0  0  0  0  0  0
  -26.5938  -22.1576   21.8981 C   0  0  0  0  0  0  0  0  0  0  0  0
  -21.2143  -30.5291   22.1803 C   0  0  1  0  0  0  0  0  0  0  0  0
  -18.8175  -30.0221   19.2876 C   0  0  2  0  0  0  0  0  0  0  0  0
  -20.6825  -30.8332   23.6094 C   0  0  0  0  0  0  0  0  0  0  0  0
  -25.9346  -11.5701   20.4410 N   0  0  0  0  0  0  0  0  0  0  0  0
  -26.1984  -12.1772   19.2714 N   0  0  0  0  0  0  0  0  0  0  0  0
  -23.5772  -30.7877   21.4918 N   0  0  0  0  0  0  0  0  0  0  0  0
  -28.8636  -14.6879   20.3562 N   0  0  0  0  0  0  0  0  0  0  0  0
  -25.4249  -12.4036   17.0440 N   0  0  0  0  0  0  0  0  0  0  0  0
  -22.4404   -9.5676   18.9003 N   0  0  0  0  0  0  0  0  0  0  0  0
  -27.6581  -16.6407   20.8998 N   0  0  0  0  0  0  0  0  0  0  0  0
  -26.1583  -32.8269   22.8737 N   0  0  0  0  0  0  0  0  0  0  0  0
  -20.2138  -30.6700   21.1279 N   0  0  0  0  0  0  0  0  0  0  0  0
  -25.3706  -22.6524   21.2195 N   0  3  2  0  0  0  0  0  0  0  0  0
  -19.0273  -29.3063   17.9974 N   0  3  0  0  0  0  0  0  0  0  0  0
  -23.0215  -10.6558   16.9673 O   0  0  0  0  0  0  0  0  0  0  0  0
  -25.4415  -30.6672   23.3684 O   0  0  0  0  0  0  0  0  0  0  0  0
  -22.1931  -32.6463   21.7489 O   0  0  0  0  0  0  0  0  0  0  0  0
  -20.3751  -28.4983   20.3313 O   0  0  0  0  0  0  0  0  0  0  0  0
  -29.9246  -16.7409   20.4157 O   0  0  0  0  0  0  0  0  0  0  0  0
  -22.4740   -7.7300   24.1594 O   0  0  0  0  0  0  0  0  0  0  0  0
  -26.4843  -25.4952   20.2302 O   0  0  0  0  0  0  0  0  0  1  0  0
  -20.8954   -2.6223   22.8088 F   0  0  0  0  0  0  0  0  0  0  0  0
  -23.5310   -5.5293   25.4563 F   0  0  0  0  0  0  0  0  0  0  0  0
  1  2  1  0  0  0  0
  1  5  2  0  0  0  0
  2  6  2  0  0  0  0
  3 10  2  0  0  0  0
  3 17  1  0  0  0  0
  4 11  1  0  0  0  0
  4 17  2  0  0  0  0
  5 19  1  0  0  0  0
  6 21  1  0  0  0  0
  7 12  2  0  0  0  0
  7 20  1  0  0  0  0
  8  9  2  0  0  0  0
  8 23  1  0  0  0  0
  9 26  1  0  0  0  0
 10 27  1  0  0  0  0
 11 27  2  0  0  0  0
 12 28  1  0  0  0  0
 13 14  2  0  0  0  0
 13 29  1  0  0  0  0
 14 30  1  0  0  0  0
 15 22  1  0  0  0  0
 15 28  2  0  0  0  0
 16 30  2  0  0  0  0
 16 31  1  0  0  0  0
 17 32  1  0  0  0  0
 18 32  1  0  0  0  0
 18 33  2  0  0  0  0
 18 36  1  0  0  0  0
 19 21  2  0  0  0  0
 19 41  1  0  0  0  0
 20 22  2  0  0  0  0
 20 42  1  0  0  0  0
 21 51  1  0  0  0  0
 22 43  1  0  0  0  0
 23 24  2  0  0  0  0
 23 62  1  0  0  0  0
 24 25  1  0  0  0  0
 24 55  1  0  0  0  0
 25 26  2  0  0  0  0
 25 56  1  0  0  0  0
 26 72  1  0  0  0  0
 27 82  1  0  0  0  0
 28 83  1  0  0  0  0
 29 31  2  0  0  0  0
 29 82  1  0  0  0  0
 30 84  1  0  0  0  0
 31 85  1  0  0  0  0
 32 66  2  0  0  0  0
 33 67  1  0  0  0  0
 33 70  1  0  0  0  0
 34 35  2  0  0  0  0
 34 52  1  0  0  0  0
 34 75  1  0  0  0  0
 36 71  1  0  0  0  0
 36 77  2  0  0  0  0
 37 53  1  0  0  0  0
 37 73  1  0  0  0  0
 37 78  2  0  0  0  0
 38 63  1  0  0  0  0
 38 68  1  0  0  0  0
 38 79  2  0  0  0  0
 39 64  1  0  0  0  0
 39 74  1  0  0  0  0
 39 80  2  0  0  0  0
 40 69  1  0  0  0  0
 40 72  1  0  0  0  0
 40 81  2  0  0  0  0
 41 44  1  0  0  0  0
 42 53  1  0  0  0  0
 43 68  1  0  0  0  0
 44 46  1  0  0  0  0
 45 47  1  0  0  0  0
 45 48  1  0  0  0  0
 46 51  1  0  0  0  0
 47 54  1  0  0  0  0
 48 69  1  0  0  0  0
 49 54  1  0  0  0  0
 49 69  1  0  0  0  0
 50 52  1  0  0  0  0
 50 75  1  0  0  0  0
 51 73  1  0  0  0  0
 52 83  1  0  0  0  0
 53 68  1  0  0  0  0
 54 67  1  0  0  0  0
 57 64  1  0  0  0  0
 58 65  1  0  0  0  0
 59 65  1  0  0  0  0
 60 65  1  0  0  0  0
 61 76  1  0  0  0  0
 62 75  1  0  0  0  0
 63 65  1  0  0  0  0
 63 74  1  0  0  0  0
 64 76  1  0  0  0  0
 66 67  1  0  0  0  0
M  CHG  2  75   1  76   1
M  ISO  4  40 100  52 101  72 100  83 101
M  END
> <Batch ID>
0031

> <Smiles>
C=C1N(Cc2ccc([100NH:0][100C:0](=O)N3CCCC(n4nc(-c5ccc(Oc6ccc(F)cc6F)cc5)c(C(N)=O)c4N)C3)c(C)c2C)C[101CH:1]1[101O:1]c1ccc2c(c1)CN(C(=O)C(NC(=O)C(C)NC)C(C)(C)C)C(C(=O)NC1CCCc3ccccc31)C2

> <Shape>
0.265

> <Color>
0.099

> <Negative vol penalty>
0.000

$$$$

  -OEChem-04042321393D

 84 92  0     1  0  0  0  0  0999 V2000
  -30.5064  -32.0593   18.9666 C   0  0  0  0  0  0  0  0  0  0  0  0
  -30.6922  -30.7105   19.2521 C   0  0  0  0  0  0  0  0  0  0  0  0
  -22.9992   -9.8974   19.9796 C   0  0  0  0  0  0  0  0  0  0  0  0
  -23.7283   -9.9417   22.2826 C   0  0  0  0  0  0  0  0  0  0  0  0
  -29.3087  -32.6849   19.3104 C   0  0  0  0  0  0  0  0  0  0  0  0
  -29.6807  -29.9867   19.8826 C   0  0  0  0  0  0  0  0  0  0  0  0
  -28.2557  -24.0994   18.9798 C   0  0  0  0  0  0  0  0  0  0  0  0
  -31.2021  -17.5824   20.5705 C   0  0  0  0  0  0  0  0  0  0  0  0
  -22.2325   -8.7626   20.2442 C   0  0  0  0  0  0  0  0  0  0  0  0
  -22.9615   -8.8069   22.5472 C   0  0  0  0  0  0  0  0  0  0  0  0
  -28.5769  -22.9383   19.6815 C   0  0  0  0  0  0  0  0  0  0  0  0
  -23.2031   -5.4691   22.0658 C   0  0  0  0  0  0  0  0  0  0  0  0
  -31.4093  -18.9612   20.5337 C   0  0  0  0  0  0  0  0  0  0  0  0
  -23.7913   -4.4496   22.8141 C   0  0  0  0  0  0  0  0  0  0  0  0
  -26.4770  -23.0773   20.8607 C   0  0  0  0  0  0  0  0  0  0  0  0
  -22.0703   -4.6889   24.4928 C   0  0  0  0  0  0  0  0  0  0  0  0
  -23.7472  -10.4869   20.9989 C   0  0  0  0  0  0  0  0  0  0  0  0
  -24.1337  -13.0028   20.8290 C   0  0  0  0  0  0  0  0  0  0  0  0
  -28.2783  -31.9661   19.9367 C   0  0  0  0  0  0  0  0  0  0  0  0
  -27.0455  -24.7654   19.2215 C   0  0  0  0  0  0  0  0  0  0  0  0
  -28.4686  -30.6036   20.2362 C   0  0  0  0  0  0  0  0  0  0  0  0
  -26.1417  -24.2453   20.1589 C   0  0  0  0  0  0  0  0  0  0  0  0
  -29.5566  -17.8761   22.3149 C   0  0  0  0  0  0  0  0  0  0  0  0
  -29.7638  -19.2550   22.2782 C   0  0  0  0  0  0  0  0  0  0  0  0
  -30.2757  -17.0398   21.4611 C   0  0  0  0  0  0  0  0  0  0  0  0
  -22.2136   -8.2174   21.5279 C   0  0  0  0  0  0  0  0  0  0  0  0
  -27.6888  -22.4287   20.6242 C   0  0  0  0  0  0  0  0  0  0  0  0
  -22.0485   -6.0987   22.5310 C   0  0  0  0  0  0  0  0  0  0  0  0
  -23.2249   -4.0594   24.0276 C   0  0  0  0  0  0  0  0  0  0  0  0
  -30.6902  -19.7976   21.3876 C   0  0  0  0  0  0  0  0  0  0  0  0
  -21.4821   -5.7086   23.7445 C   0  0  0  0  0  0  0  0  0  0  0  0
  -24.5399  -11.6588   20.7261 C   0  0  0  0  0  0  0  0  0  0  0  0
  -25.2433  -13.7257   20.4648 C   0  0  0  0  0  0  0  0  0  0  0  0
  -22.8667  -13.5489   21.2192 C   0  0  0  0  0  0  0  0  0  0  0  0
  -26.2475  -27.6512   20.2887 C   0  0  0  0  0  0  0  0  0  0  0  0
  -23.2467  -26.6684   19.5459 C   0  0  0  0  0  0  0  0  0  0  0  0
  -21.0900  -24.0721   19.0413 C   0  0  0  0  0  0  0  0  0  0  0  0
  -28.6955  -21.5194   22.5169 C   0  0  0  0  0  0  0  0  0  1  0  0
  -30.7237  -14.6829   20.6923 C   0  0  0  0  0  0  0  0  0  0  0  0
  -27.0196  -32.6969   20.3318 C   0  0  0  0  0  0  0  0  0  0  0  0
  -26.7020  -26.0019   18.4369 C   0  0  0  0  0  0  0  0  0  0  0  0
  -24.8205  -24.9113   20.4408 C   0  0  0  0  0  0  0  0  0  0  0  0
  -25.8534  -31.7681   20.6597 C   0  0  0  0  0  0  0  0  0  0  0  0
  -29.6001  -12.2371   18.3615 C   0  0  0  0  0  0  0  0  0  0  0  0
  -26.3122  -30.6380   21.5758 C   0  0  0  0  0  0  0  0  0  0  0  0
  -28.1501  -11.9791   18.7774 C   0  0  0  0  0  0  0  0  0  0  0  0
  -30.5028  -12.4766   19.5705 C   0  0  0  0  0  0  0  0  0  0  0  0
  -28.5901  -13.2630   20.9093 C   0  0  0  0  0  0  0  0  0  0  0  0
  -27.3855  -29.7786   20.8968 C   0  0  1  0  0  0  0  0  0  0  0  0
  -25.6701  -26.8838   19.1331 C   0  0  1  0  0  0  0  0  0  0  0  0
  -27.6304  -13.0804   19.7222 C   0  0  2  0  0  0  0  0  0  0  0  0
  -28.5635  -17.2981   23.2740 C   0  0  0  0  0  0  0  0  0  0  0  0
  -18.6928  -23.5824   18.4839 C   0  0  0  0  0  0  0  0  0  0  0  0
  -22.4379  -27.3946   22.3969 C   0  0  0  0  0  0  0  0  0  0  0  0
  -20.3603  -26.0339   22.0799 C   0  0  0  0  0  0  0  0  0  0  0  0
  -20.7711  -28.0327   20.6451 C   0  0  0  0  0  0  0  0  0  0  0  0
  -21.8380  -22.6437   16.5595 C   0  0  0  0  0  0  0  0  0  0  0  0
  -29.6801  -20.4433   24.5471 C   0  0  0  0  0  0  0  0  0  0  0  0
  -28.9912  -20.1870   23.1999 C   0  0  2  0  0  0  0  0  0  0  0  0
  -22.1465  -25.9427   20.2820 C   0  0  1  0  0  0  0  0  0  0  0  0
  -20.0939  -23.7913   17.9308 C   0  0  2  0  0  0  0  0  0  0  0  0
  -21.4546  -26.8392   21.3473 C   0  0  0  0  0  0  0  0  0  0  0  0
  -25.8084  -11.5327   20.3275 N   0  0  0  0  0  0  0  0  0  0  0  0
  -26.2089  -12.8066   20.1767 N   0  0  0  0  0  0  0  0  0  0  0  0
  -24.5331  -26.1211   19.6526 N   0  0  0  0  0  0  0  0  0  0  0  0
  -29.9498  -13.5356   20.4176 N   0  0  0  0  0  0  0  0  0  0  0  0
  -25.4773  -15.0515   20.3659 N   0  0  0  0  0  0  0  0  0  0  0  0
  -21.8350  -12.6644   21.5620 N   0  0  0  0  0  0  0  0  0  0  0  0
  -30.0813  -15.6364   21.4815 N   0  0  0  0  0  0  0  0  0  0  0  0
  -26.7804  -28.8774   19.9397 N   0  0  0  0  0  0  0  0  0  0  0  0
  -21.2439  -25.4248   19.2595 N   0  0  0  0  0  0  0  0  0  0  0  0
  -28.6931  -20.9332   25.5428 N   0  3  0  0  0  0  0  0  0  0  0  0
  -20.4892  -22.5675   17.1776 N   0  3  0  0  0  0  0  0  0  0  0  0
  -22.6507  -14.7842   21.2466 O   0  0  0  0  0  0  0  0  0  0  0  0
  -26.2108  -27.1673   21.4140 O   0  0  0  0  0  0  0  0  0  0  0  0
  -22.9735  -27.6795   18.8943 O   0  0  0  0  0  0  0  0  0  0  0  0
  -21.6706  -23.1804   19.6565 O   0  0  0  0  0  0  0  0  0  0  0  0
  -29.0166  -22.6220   22.9413 O   0  0  0  0  0  0  0  0  0  0  0  0
  -31.8617  -14.8224   20.2367 O   0  0  0  0  0  0  0  0  0  0  0  0
  -21.4653   -7.1103   21.7864 O   0  0  0  0  0  0  0  0  0  0  0  0
  -28.0001  -21.2959   21.3111 O   0  0  0  0  0  0  0  0  0  1  0  0
  -23.7890   -3.0792   24.7454 F   0  0  0  0  0  0  0  0  0  0  0  0
  -30.8965  -21.1213   21.3437 F   0  0  0  0  0  0  0  0  0  0  0  0
  -20.3723   -6.3088   24.1960 F   0  0  0  0  0  0  0  0  0  0  0  0
  1  2  1  0  0  0  0
  1  5  2  0  0  0  0
  2  6  2  0  0  0  0
  3  9  2  0  0  0  0
  3 17  1  0  0  0  0
  4 10  1  0  0  0  0
  4 17  2  0  0  0  0
  5 19  1  0  0  0  0
  6 21  1  0  0  0  0
  7 11  2  0  0  0  0
  7 20  1  0  0  0  0
  8 13  1  0  0  0  0
  8 25  2  0  0  0  0
  9 26  1  0  0  0  0
 10 26  2  0  0  0  0
 11 27  1  0  0  0  0
 12 14  2  0  0  0  0
 12 28  1  0  0  0  0
 13 30  2  0  0  0  0
 14 29  1  0  0  0  0
 15 22  1  0  0  0  0
 15 27  2  0  0  0  0
 16 29  2  0  0  0  0
 16 31  1  0  0  0  0
 17 32  1  0  0  0  0
 18 32  1  0  0  0  0
 18 33  2  0  0  0  0
 18 34  1  0  0  0  0
 19 21  2  0  0  0  0
 19 40  1  0  0  0  0
 20 22  2  0  0  0  0
 20 41  1  0  0  0  0
 21 49  1  0  0  0  0
 22 42  1  0  0  0  0
 23 24  2  0  0  0  0
 23 25  1  0  0  0  0
 23 52  1  0  0  0  0
 24 30  1  0  0  0  0
 24 59  1  0  0  0  0
 25 69  1  0  0  0  0
 26 80  1  0  0  0  0
 27 81  1  0  0  0  0
 28 31  2  0  0  0  0
 28 80  1  0  0  0  0
 29 82  1  0  0  0  0
 30 83  1  0  0  0  0
 31 84  1  0  0  0  0
 32 63  2  0  0  0  0
 33 64  1  0  0  0  0
 33 67  1  0  0  0  0
 34 68  1  0  0  0  0
 34 74  2  0  0  0  0
 35 50  1  0  0  0  0
 35 70  1  0  0  0  0
 35 75  2  0  0  0  0
 36 60  1  0  0  0  0
 36 65  1  0  0  0  0
 36 76  2  0  0  0  0
 37 61  1  0  0  0  0
 37 71  1  0  0  0  0
 37 77  2  0  0  0  0
 38 59  1  0  0  0  0
 38 78  2  0  0  0  0
 38 81  1  0  0  0  0
 39 66  1  0  0  0  0
 39 69  1  0  0  0  0
 39 79  2  0  0  0  0
 40 43  1  0  0  0  0
 41 50  1  0  0  0  0
 42 65  1  0  0  0  0
 43 45  1  0  0  0  0
 44 46  1  0  0  0  0
 44 47  1  0  0  0  0
 45 49  1  0  0  0  0
 46 51  1  0  0  0  0
 47 66  1  0  0  0  0
 48 51  1  0  0  0  0
 48 66  1  0  0  0  0
 49 70  1  0  0  0  0
 50 65  1  0  0  0  0
 51 64  1  0  0  0  0
 53 61  1  0  0  0  0
 54 62  1  0  0  0  0
 55 62  1  0  0  0  0
 56 62  1  0  0  0  0
 57 73  1  0  0  0  0
 58 59  1  0  0  0  0
 58 72  1  0  0  0  0
 60 62  1  0  0  0  0
 60 71  1  0  0  0  0
 61 73  1  0  0  0  0
 63 64  1  0  0  0  0
M  CHG  2  72   1  73   1
M  ISO  4  38 101  39 100  69 100  81 101
M  END
> <Batch ID>
0031

> <Smiles>
CNC(C)C(=O)NC(C(=O)N1Cc2cc([101O:1][101C:1](=O)C(CN)c3c(F)ccc([100NH:0][100C:0](=O)N4CCCC(n5nc(-c6ccc(Oc7ccc(F)cc7F)cc6)c(C(N)=O)c5N)C4)c3C)ccc2CC1C(=O)NC1CCCc2ccccc21)C(C)(C)C

> <Shape>
0.294

> <Color>
0.198

> <Negative vol penalty>
0.000

$$$$

  -OEChem-04042321393D

 86 95  0     1  0  0  0  0  0999 V2000
  -16.8694  -18.6071   26.0738 C   0  0  0  0  0  0  0  0  0  0  0  0
  -17.0170  -19.9728   26.2945 C   0  0  0  0  0  0  0  0  0  0  0  0
  -29.0566  -17.5196   19.4268 C   0  0  0  0  0  0  0  0  0  0  0  0
  -30.6686  -18.0069   21.1592 C   0  0  0  0  0  0  0  0  0  0  0  0
  -17.8474  -17.9063   25.3694 C   0  0  0  0  0  0  0  0  0  0  0  0
  -18.1434  -20.6381   25.8117 C   0  0  0  0  0  0  0  0  0  0  0  0
  -20.1900  -26.9977   23.2265 C   0  0  0  0  0  0  0  0  0  0  0  0
  -29.5879  -16.2369   19.2931 C   0  0  0  0  0  0  0  0  0  0  0  0
  -31.2000  -16.7241   21.0255 C   0  0  0  0  0  0  0  0  0  0  0  0
  -21.1548  -27.9833   23.4303 C   0  0  0  0  0  0  0  0  0  0  0  0
  -29.4007  -13.2807   20.9236 C   0  0  0  0  0  0  0  0  0  0  0  0
  -28.5060  -12.2139   20.8404 C   0  0  0  0  0  0  0  0  0  0  0  0
  -22.7410  -26.6851   22.1583 C   0  0  0  0  0  0  0  0  0  0  0  0
  -30.0914  -29.1956   21.8631 C   0  0  0  0  0  0  0  0  0  0  0  0
  -28.3992  -28.2827   23.8845 C   0  0  0  0  0  0  0  0  0  0  0  0
  -29.3900  -11.6422   18.6658 C   0  0  0  0  0  0  0  0  0  0  0  0
  -29.5970  -18.4047   20.3598 C   0  0  0  0  0  0  0  0  0  0  0  0
  -28.0070  -20.1341   21.3542 C   0  0  0  0  0  0  0  0  0  0  0  0
  -18.9816  -18.5652   24.8694 C   0  0  0  0  0  0  0  0  0  0  0  0
  -20.4972  -25.8414   22.4950 C   0  0  0  0  0  0  0  0  0  0  0  0
  -19.1381  -19.9452   25.1011 C   0  0  0  0  0  0  0  0  0  0  0  0
  -21.7776  -25.6875   21.9444 C   0  0  0  0  0  0  0  0  0  0  0  0
  -28.9842  -29.9548   22.2416 C   0  0  0  0  0  0  0  0  0  0  0  0
  -30.3525  -27.9799   22.4953 C   0  0  0  0  0  0  0  0  0  0  0  0
  -28.1381  -29.4984   23.2523 C   0  0  0  0  0  0  0  0  0  0  0  0
  -30.6596  -15.8391   20.0924 C   0  0  0  0  0  0  0  0  0  0  0  0
  -22.4314  -27.8258   22.8986 C   0  0  0  0  0  0  0  0  0  0  0  0
  -30.2900  -13.5284   19.8779 C   0  0  0  0  0  0  0  0  0  0  0  0
  -28.5006  -11.3946   19.7115 C   0  0  0  0  0  0  0  0  0  0  0  0
  -30.2847  -12.7091   18.7490 C   0  0  0  0  0  0  0  0  0  0  0  0
  -29.5065  -27.5235   23.5060 C   0  0  0  0  0  0  0  0  0  0  0  0
  -29.0489  -19.7300   20.4981 C   0  0  0  0  0  0  0  0  0  0  0  0
  -27.8640  -21.4782   21.1105 C   0  0  0  0  0  0  0  0  0  0  0  0
  -27.2374  -19.3634   22.2866 C   0  0  0  0  0  0  0  0  0  0  0  0
  -20.5752  -22.7308   23.1447 C   0  0  0  0  0  0  0  0  0  0  0  0
  -21.1499  -22.4774   19.9622 C   0  0  0  0  0  0  0  0  0  0  0  0
  -22.3026  -23.9373   17.1010 C   0  0  0  0  0  0  0  0  0  0  0  0
  -31.0376  -26.1572   19.8656 C   0  0  0  0  0  0  0  0  0  0  0  0
  -20.0350  -17.7564   24.1547 C   0  0  0  0  0  0  0  0  0  0  0  0
  -19.4374  -24.7999   22.2614 C   0  0  0  0  0  0  0  0  0  0  0  0
  -22.1519  -24.4742   21.1344 C   0  0  0  0  0  0  0  0  0  0  0  0
  -21.0161  -18.6072   23.3524 C   0  0  0  0  0  0  0  0  0  0  0  0
  -29.0917  -24.4945   17.3907 C   0  0  0  0  0  0  0  0  0  0  0  0
  -21.5006  -19.7906   24.1842 C   0  0  0  0  0  0  0  0  0  0  0  0
  -28.7854  -23.1340   18.0192 C   0  0  0  0  0  0  0  0  0  0  0  0
  -23.6910  -30.9077   22.0107 C   0  0  0  0  0  0  0  0  0  0  0  0
  -30.4925  -24.9817   17.7543 C   0  0  0  0  0  0  0  0  0  0  0  0
  -30.4755  -23.6513   19.8288 C   0  0  0  0  0  0  0  0  0  0  0  0
  -24.7805  -31.3736   22.9554 C   0  0  0  0  0  0  0  0  0  0  0  0
  -25.4348  -29.2510   21.9227 C   0  0  0  0  0  0  0  0  0  0  0  0
  -20.3337  -20.7070   24.5717 C   0  0  1  0  0  0  0  0  0  0  0  0
  -20.0124  -23.4247   21.9366 C   0  0  1  0  0  0  0  0  0  0  0  0
  -29.0530  -23.1442   19.5363 C   0  0  2  0  0  0  0  0  0  0  0  0
  -23.9222  -29.4083   21.9349 C   0  0  1  0  0  0  0  0  0  1  0  0
  -28.7223  -31.2522   21.5497 C   0  0  0  0  0  0  0  0  0  0  0  0
  -22.6818  -23.4686   14.6650 C   0  0  0  0  0  0  0  0  0  0  0  0
  -23.6177  -20.8269   20.6664 C   0  0  0  0  0  0  0  0  0  0  0  0
  -24.4462  -21.1986   18.3332 C   0  0  0  0  0  0  0  0  0  0  0  0
  -22.3102  -19.9680   18.7152 C   0  0  0  0  0  0  0  0  0  0  0  0
  -20.4426  -26.0874   16.2787 C   0  0  0  0  0  0  0  0  0  0  0  0
  -31.5488  -27.1964   22.0606 C   0  0  0  0  0  0  0  0  0  0  0  0
  -26.9398  -30.2965   23.6741 C   0  0  0  0  0  0  0  0  0  0  0  0
  -22.3868  -22.4661   19.0968 C   0  0  1  0  0  0  0  0  0  0  0  0
  -21.7153  -24.0167   15.7034 C   0  0  2  0  0  0  0  0  0  0  0  0
  -23.1841  -21.1370   19.2197 C   0  0  0  0  0  0  0  0  0  0  0  0
  -29.5333  -20.7360   19.7650 N   0  0  0  0  0  0  0  0  0  0  0  0
  -28.7925  -21.7855   20.1598 N   0  0  0  0  0  0  0  0  0  0  0  0
  -21.0829  -23.4809   20.9391 N   0  0  0  0  0  0  0  0  0  0  0  0
  -30.6811  -24.9689   19.2070 N   0  0  0  0  0  0  0  0  0  0  0  0
  -27.0358  -22.4153   21.6186 N   0  0  0  0  0  0  0  0  0  0  0  0
  -27.5148  -17.9953   22.4122 N   0  0  0  0  0  0  0  0  0  0  0  0
  -19.9494  -21.5374   23.4505 N   0  0  0  0  0  0  0  0  0  0  0  0
  -21.9398  -22.7717   17.7420 N   0  0  0  0  0  0  0  0  0  0  0  0
  -31.1902  -26.0588   21.2432 N   0  0  0  0  0  0  0  0  0  0  0  0
  -25.9673  -30.5253   22.5620 N   0  3  2  0  0  0  0  0  0  0  0  0
  -21.4013  -25.4307   15.3531 N   0  3  0  0  0  0  0  0  0  0  0  0
  -26.3195  -19.8694   22.9757 O   0  0  0  0  0  0  0  0  0  0  0  0
  -21.5092  -23.2397   23.7533 O   0  0  0  0  0  0  0  0  0  0  0  0
  -20.2722  -21.6314   19.7736 O   0  0  0  0  0  0  0  0  0  0  0  0
  -23.0153  -24.8192   17.5751 O   0  0  0  0  0  0  0  0  0  0  0  0
  -31.2022  -27.2277   19.2708 O   0  0  0  0  0  0  0  0  0  0  0  0
  -31.1782  -14.5875   19.9624 O   0  0  0  0  0  0  0  0  0  0  0  0
  -23.3752  -28.7859   23.0966 O   0  0  0  0  0  0  0  0  0  1  0  0
  -27.6425  -10.3692   19.6324 F   0  0  0  0  0  0  0  0  0  0  0  0
  -31.1374  -12.9413   17.7417 F   0  0  0  0  0  0  0  0  0  0  0  0
  -29.7976  -26.0243   24.3105 Cl  0  0  0  0  0  0  0  0  0  0  0  0
  1  2  1  0  0  0  0
  1  5  2  0  0  0  0
  2  6  2  0  0  0  0
  3  8  2  0  0  0  0
  3 17  1  0  0  0  0
  4  9  1  0  0  0  0
  4 17  2  0  0  0  0
  5 19  1  0  0  0  0
  6 21  1  0  0  0  0
  7 10  2  0  0  0  0
  7 20  1  0  0  0  0
  8 26  1  0  0  0  0
  9 26  2  0  0  0  0
 10 27  1  0  0  0  0
 11 12  2  0  0  0  0
 11 28  1  0  0  0  0
 12 29  1  0  0  0  0
 13 22  1  0  0  0  0
 13 27  2  0  0  0  0
 14 23  1  0  0  0  0
 14 24  2  0  0  0  0
 15 25  1  0  0  0  0
 15 31  2  0  0  0  0
 16 29  2  0  0  0  0
 16 30  1  0  0  0  0
 17 32  1  0  0  0  0
 18 32  1  0  0  0  0
 18 33  2  0  0  0  0
 18 34  1  0  0  0  0
 19 21  2  0  0  0  0
 19 39  1  0  0  0  0
 20 22  2  0  0  0  0
 20 40  1  0  0  0  0
 21 51  1  0  0  0  0
 22 41  1  0  0  0  0
 23 25  2  0  0  0  0
 23 55  1  0  0  0  0
 24 31  1  0  0  0  0
 24 61  1  0  0  0  0
 25 62  1  0  0  0  0
 26 82  1  0  0  0  0
 27 83  1  0  0  0  0
 28 30  2  0  0  0  0
 28 82  1  0  0  0  0
 29 84  1  0  0  0  0
 30 85  1  0  0  0  0
 31 86  1  0  0  0  0
 32 66  2  0  0  0  0
 33 67  1  0  0  0  0
 33 70  1  0  0  0  0
 34 71  1  0  0  0  0
 34 77  2  0  0  0  0
 35 52  1  0  0  0  0
 35 72  1  0  0  0  0
 35 78  2  0  0  0  0
 36 63  1  0  0  0  0
 36 68  1  0  0  0  0
 36 79  2  0  0  0  0
 37 64  1  0  0  0  0
 37 73  1  0  0  0  0
 37 80  2  0  0  0  0
 38 69  1  0  0  0  0
 38 74  1  0  0  0  0
 38 81  2  0  0  0  0
 39 42  1  0  0  0  0
 40 52  1  0  0  0  0
 41 68  1  0  0  0  0
 42 44  1  0  0  0  0
 43 45  1  0  0  0  0
 43 47  1  0  0  0  0
 44 51  1  0  0  0  0
 45 53  1  0  0  0  0
 46 49  1  0  0  0  0
 46 54  1  0  0  0  0
 47 69  1  0  0  0  0
 48 53  1  0  0  0  0
 48 69  1  0  0  0  0
 49 75  1  0  0  0  0
 50 54  1  0  0  0  0
 50 75  1  0  0  0  0
 51 72  1  0  0  0  0
 52 68  1  0  0  0  0
 53 67  1  0  0  0  0
 54 83  1  0  0  0  0
 56 64  1  0  0  0  0
 57 65  1  0  0  0  0
 58 65  1  0  0  0  0
 59 65  1  0  0  0  0
 60 76  1  0  0  0  0
 61 74  1  0  0  0  0
 62 75  1  0  0  0  0
 63 65  1  0  0  0  0
 63 73  1  0  0  0  0
 64 76  1  0  0  0  0
 66 67  1  0  0  0  0
M  CHG  2  75   1  76   1
M  ISO  4  38 100  54 101  74 100  83 101
M  END
> <Batch ID>
0031

> <Smiles>
CNC(C)C(=O)NC(C(=O)N1Cc2cc([101O:1][101CH:1]3CCN(Cc4cc(Cl)c(C[100NH:0][100C:0](=O)N5CCCC(n6nc(-c7ccc(Oc8ccc(F)cc8F)cc7)c(C(N)=O)c6N)C5)cc4C)C3)ccc2CC1C(=O)NC1CCCc2ccccc21)C(C)(C)C

> <Shape>
0.226

> <Color>
0.065

> <Negative vol penalty>
0.000

$$$$

  -OEChem-04042321393D

 86 95  0     1  0  0  0  0  0999 V2000
  -30.2380  -24.1455   19.6289 C   0  0  0  0  0  0  0  0  0  0  0  0
  -28.8763  -24.3479   19.4281 C   0  0  0  0  0  0  0  0  0  0  0  0
  -26.4773  -20.9491   21.9741 C   0  0  0  0  0  0  0  0  0  0  0  0
  -25.7652  -21.1541   19.6746 C   0  0  0  0  0  0  0  0  0  0  0  0
  -30.8656  -24.6931   20.7470 C   0  0  0  0  0  0  0  0  0  0  0  0
  -28.1413  -25.0973   20.3461 C   0  0  0  0  0  0  0  0  0  0  0  0
  -23.4241  -28.8091   19.1309 C   0  0  0  0  0  0  0  0  0  0  0  0
  -27.7796  -20.6889   21.5476 C   0  0  0  0  0  0  0  0  0  0  0  0
  -27.0675  -20.8940   19.2481 C   0  0  0  0  0  0  0  0  0  0  0  0
  -22.0440  -28.6304   19.2152 C   0  0  0  0  0  0  0  0  0  0  0  0
  -30.1292  -19.9286   17.5439 C   0  0  0  0  0  0  0  0  0  0  0  0
  -30.2993  -19.0285   16.4920 C   0  0  0  0  0  0  0  0  0  0  0  0
  -22.0510  -29.6534   21.3999 C   0  0  0  0  0  0  0  0  0  0  0  0
  -15.5428  -21.8424   17.6507 C   0  0  0  0  0  0  0  0  0  0  0  0
  -15.2349  -24.1968   18.0961 C   0  0  0  0  0  0  0  0  0  0  0  0
  -17.4114  -23.3621   17.4612 C   0  0  0  0  0  0  0  0  0  0  0  0
  -29.2398  -17.2970   17.8021 C   0  0  0  0  0  0  0  0  0  0  0  0
  -25.4701  -21.1816   21.0376 C   0  0  0  0  0  0  0  0  0  0  0  0
  -23.6931  -22.5115   22.2950 C   0  0  0  0  0  0  0  0  0  0  0  0
  -30.1398  -25.4576   21.6740 C   0  0  0  0  0  0  0  0  0  0  0  0
  -24.1308  -29.4024   20.1869 C   0  0  0  0  0  0  0  0  0  0  0  0
  -28.7595  -25.6545   21.4783 C   0  0  0  0  0  0  0  0  0  0  0  0
  -23.4397  -29.8408   21.3254 C   0  0  0  0  0  0  0  0  0  0  0  0
  -14.7147  -22.9054   18.0108 C   0  0  0  0  0  0  0  0  0  0  0  0
  -16.8912  -22.0707   17.3759 C   0  0  0  0  0  0  0  0  0  0  0  0
  -16.5833  -24.4252   17.8213 C   0  0  0  0  0  0  0  0  0  0  0  0
  -28.0748  -20.6614   20.1846 C   0  0  0  0  0  0  0  0  0  0  0  0
  -21.3577  -29.0499   20.3510 C   0  0  0  0  0  0  0  0  0  0  0  0
  -29.5144  -19.5129   18.7250 C   0  0  0  0  0  0  0  0  0  0  0  0
  -29.8546  -17.7128   16.6211 C   0  0  0  0  0  0  0  0  0  0  0  0
  -29.0697  -18.1971   18.8541 C   0  0  0  0  0  0  0  0  0  0  0  0
  -24.1245  -21.4498   21.4775 C   0  0  0  0  0  0  0  0  0  0  0  0
  -22.3384  -22.3213   22.4186 C   0  0  0  0  0  0  0  0  0  0  0  0
  -24.4492  -23.5748   22.8894 C   0  0  0  0  0  0  0  0  0  0  0  0
  -26.4443  -28.4548   22.1499 C   0  0  0  0  0  0  0  0  0  0  0  0
  -26.3525  -31.5480   23.1226 C   0  0  0  0  0  0  0  0  0  0  0  0
  -24.5691  -34.4436   23.4078 C   0  0  0  0  0  0  0  0  0  0  0  0
  -18.2800  -19.5568   18.9925 C   0  0  0  0  0  0  0  0  0  0  0  0
  -30.8522  -25.9897   22.8922 C   0  0  0  0  0  0  0  0  0  0  0  0
  -25.6156  -29.6123   20.0692 C   0  0  0  0  0  0  0  0  0  0  0  0
  -24.1490  -30.5018   22.4781 C   0  0  0  0  0  0  0  0  0  0  0  0
  -30.0781  -27.0854   23.6204 C   0  0  0  0  0  0  0  0  0  0  0  0
  -19.0256  -18.8694   22.4055 C   0  0  0  0  0  0  0  0  0  0  0  0
  -18.1363  -25.8473   21.6064 C   0  0  0  0  0  0  0  0  0  0  0  0
  -28.6179  -26.6807   23.7962 C   0  0  0  0  0  0  0  0  0  0  0  0
  -20.3780  -19.5485   22.6284 C   0  0  0  0  0  0  0  0  0  0  0  0
  -18.8057  -27.2140   21.6663 C   0  0  0  0  0  0  0  0  0  0  0  0
  -18.9211  -18.2653   21.0068 C   0  0  0  0  0  0  0  0  0  0  0  0
  -20.5610  -19.8813   20.1275 C   0  0  0  0  0  0  0  0  0  0  0  0
  -17.2107  -25.7265   20.4042 C   0  0  0  0  0  0  0  0  0  0  0  0
  -18.5939  -27.4092   19.1610 C   0  0  0  0  0  0  0  0  0  0  0  0
  -27.9331  -26.4823   22.4385 C   0  0  1  0  0  0  0  0  0  0  0  0
  -26.3069  -29.7615   21.4209 C   0  0  1  0  0  0  0  0  0  0  0  0
  -20.6924  -20.5542   21.5046 C   0  0  2  0  0  0  0  0  0  0  0  0
  -19.5235  -27.5401   20.3603 C   0  0  1  0  0  0  0  0  0  1  0  0
  -13.2730  -22.6607   18.3041 C   0  0  0  0  0  0  0  0  0  0  0  0
  -24.7480  -36.7895   24.2809 C   0  0  0  0  0  0  0  0  0  0  0  0
  -26.0102  -30.5111   25.9718 C   0  0  0  0  0  0  0  0  0  0  0  0
  -25.2544  -32.8023   26.6405 C   0  0  0  0  0  0  0  0  0  0  0  0
  -27.5597  -32.4616   25.7506 C   0  0  0  0  0  0  0  0  0  0  0  0
  -24.1411  -35.6011   20.7179 C   0  0  0  0  0  0  0  0  0  0  0  0
  -17.7771  -20.9344   16.9904 C   0  0  0  0  0  0  0  0  0  0  0  0
  -17.1424  -25.8144   17.9132 C   0  0  0  0  0  0  0  0  0  0  0  0
  -25.5885  -32.3157   24.1742 C   0  0  1  0  0  0  0  0  0  0  0  0
  -24.9228  -35.8815   23.0735 C   0  0  2  0  0  0  0  0  0  0  0  0
  -26.0898  -32.0085   25.6135 C   0  0  0  0  0  0  0  0  0  0  0  0
  -23.1249  -20.6445   21.1080 N   0  0  0  0  0  0  0  0  0  0  0  0
  -22.0520  -21.2005   21.6960 N   0  0  0  0  0  0  0  0  0  0  0  0
  -25.6018  -30.6789   22.3182 N   0  0  0  0  0  0  0  0  0  0  0  0
  -19.2295  -19.2710   19.9873 N   0  0  0  0  0  0  0  0  0  0  0  0
  -21.3763  -23.0049   23.0738 N   0  0  0  0  0  0  0  0  0  0  0  0
  -24.9904  -23.3767   24.1670 N   0  0  0  0  0  0  0  0  0  0  0  0
  -27.6008  -27.7612   21.8484 N   0  0  0  0  0  0  0  0  0  0  0  0
  -25.6777  -33.7225   23.7979 N   0  0  0  0  0  0  0  0  0  0  0  0
  -18.6496  -20.5271   18.0691 N   0  0  0  0  0  0  0  0  0  0  0  0
  -17.9818  -26.0316   19.1420 N   0  3  2  0  0  0  0  0  0  0  0  0
  -24.0517  -36.3873   21.9752 N   0  3  0  0  0  0  0  0  0  0  0  0
  -24.6255  -24.6743   22.3118 O   0  0  0  0  0  0  0  0  0  0  0  0
  -25.5668  -28.1027   22.9294 O   0  0  0  0  0  0  0  0  0  0  0  0
  -27.5693  -31.7185   23.0141 O   0  0  0  0  0  0  0  0  0  0  0  0
  -23.4233  -34.0051   23.3342 O   0  0  0  0  0  0  0  0  0  0  0  0
  -17.1819  -18.9931   18.9349 O   0  0  0  0  0  0  0  0  0  0  0  0
  -29.3455  -20.4079   19.7681 O   0  0  0  0  0  0  0  0  0  0  0  0
  -20.0107  -28.8761   20.4362 O   0  0  0  0  0  0  0  0  0  1  0  0
  -30.0167  -16.8490   15.6103 F   0  0  0  0  0  0  0  0  0  0  0  0
  -28.4773  -17.7923   19.9859 F   0  0  0  0  0  0  0  0  0  0  0  0
  1  2  1  0  0  0  0
  1  5  2  0  0  0  0
  2  6  2  0  0  0  0
  3  8  2  0  0  0  0
  3 18  1  0  0  0  0
  4  9  1  0  0  0  0
  4 18  2  0  0  0  0
  5 20  1  0  0  0  0
  6 22  1  0  0  0  0
  7 10  2  0  0  0  0
  7 21  1  0  0  0  0
  8 27  1  0  0  0  0
  9 27  2  0  0  0  0
 10 28  1  0  0  0  0
 11 12  2  0  0  0  0
 11 29  1  0  0  0  0
 12 30  1  0  0  0  0
 13 23  1  0  0  0  0
 13 28  2  0  0  0  0
 14 24  1  0  0  0  0
 14 25  2  0  0  0  0
 15 24  2  0  0  0  0
 15 26  1  0  0  0  0
 16 25  1  0  0  0  0
 16 26  2  0  0  0  0
 17 30  2  0  0  0  0
 17 31  1  0  0  0  0
 18 32  1  0  0  0  0
 19 32  1  0  0  0  0
 19 33  2  0  0  0  0
 19 34  1  0  0  0  0
 20 22  2  0  0  0  0
 20 39  1  0  0  0  0
 21 23  2  0  0  0  0
 21 40  1  0  0  0  0
 22 52  1  0  0  0  0
 23 41  1  0  0  0  0
 24 56  1  0  0  0  0
 25 62  1  0  0  0  0
 26 63  1  0  0  0  0
 27 83  1  0  0  0  0
 28 84  1  0  0  0  0
 29 31  2  0  0  0  0
 29 83  1  0  0  0  0
 30 85  1  0  0  0  0
 31 86  1  0  0  0  0
 32 67  2  0  0  0  0
 33 68  1  0  0  0  0
 33 71  1  0  0  0  0
 34 72  1  0  0  0  0
 34 78  2  0  0  0  0
 35 53  1  0  0  0  0
 35 73  1  0  0  0  0
 35 79  2  0  0  0  0
 36 64  1  0  0  0  0
 36 69  1  0  0  0  0
 36 80  2  0  0  0  0
 37 65  1  0  0  0  0
 37 74  1  0  0  0  0
 37 81  2  0  0  0  0
 38 70  1  0  0  0  0
 38 75  1  0  0  0  0
 38 82  2  0  0  0  0
 39 42  1  0  0  0  0
 40 53  1  0  0  0  0
 41 69  1  0  0  0  0
 42 45  1  0  0  0  0
 43 46  1  0  0  0  0
 43 48  1  0  0  0  0
 44 47  1  0  0  0  0
 44 50  1  0  0  0  0
 45 52  1  0  0  0  0
 46 54  1  0  0  0  0
 47 55  1  0  0  0  0
 48 70  1  0  0  0  0
 49 54  1  0  0  0  0
 49 70  1  0  0  0  0
 50 76  1  0  0  0  0
 51 55  1  0  0  0  0
 51 76  1  0  0  0  0
 52 73  1  0  0  0  0
 53 69  1  0  0  0  0
 54 68  1  0  0  0  0
 55 84  1  0  0  0  0
 57 65  1  0  0  0  0
 58 66  1  0  0  0  0
 59 66  1  0  0  0  0
 60 66  1  0  0  0  0
 61 77  1  0  0  0  0
 62 75  1  0  0  0  0
 63 76  1  0  0  0  0
 64 66  1  0  0  0  0
 64 74  1  0  0  0  0
 65 77  1  0  0  0  0
 67 68  1  0  0  0  0
M  CHG  2  76   1  77   1
M  ISO  4  38 100  55 101  75 100  84 101
M  END
> <Batch ID>
0031

> <Smiles>
CNC(C)C(=O)NC(C(=O)N1Cc2cc([101O:1][101CH:1]3CCCN(Cc4cc(C)cc(C[100NH:0][100C:0](=O)N5CCCC(n6nc(-c7ccc(Oc8ccc(F)cc8F)cc7)c(C(N)=O)c6N)C5)c4)C3)ccc2CC1C(=O)NC1CCCc2ccccc21)C(C)(C)C

> <Shape>
0.204

> <Color>
0.058

> <Negative vol penalty>
0.000

$$$$

  -OEChem-04042321393D

 86 95  0     1  0  0  0  0  0999 V2000
  -22.2501  -10.9182   18.8098 C   0  0  0  0  0  0  0  0  0  0  0  0
  -21.8380  -12.2369   18.9727 C   0  0  0  0  0  0  0  0  0  0  0  0
  -29.1704  -27.0986   24.7853 C   0  0  0  0  0  0  0  0  0  0  0  0
  -27.1893  -25.8282   25.3316 C   0  0  0  0  0  0  0  0  0  0  0  0
  -23.4628  -10.4959   19.3529 C   0  0  0  0  0  0  0  0  0  0  0  0
  -22.6379  -13.1339   19.6798 C   0  0  0  0  0  0  0  0  0  0  0  0
  -23.3348  -19.1151   18.5639 C   0  0  0  0  0  0  0  0  0  0  0  0
  -18.3176  -26.9761   24.1206 C   0  0  0  0  0  0  0  0  0  0  0  0
  -18.7682  -28.1872   23.5956 C   0  0  0  0  0  0  0  0  0  0  0  0
  -29.7124  -26.7898   26.0329 C   0  0  0  0  0  0  0  0  0  0  0  0
  -27.7313  -25.5194   26.5791 C   0  0  0  0  0  0  0  0  0  0  0  0
  -22.7573  -20.2490   19.1335 C   0  0  0  0  0  0  0  0  0  0  0  0
  -29.3721  -27.8442   29.2261 C   0  0  0  0  0  0  0  0  0  0  0  0
  -29.9720  -28.8780   29.9451 C   0  0  0  0  0  0  0  0  0  0  0  0
  -24.6671  -20.4834   20.5884 C   0  0  0  0  0  0  0  0  0  0  0  0
  -32.0647  -27.6706   29.9351 C   0  0  0  0  0  0  0  0  0  0  0  0
  -27.9088  -26.6179   24.4347 C   0  0  0  0  0  0  0  0  0  0  0  0
  -27.4888  -26.2040   21.9527 C   0  0  0  0  0  0  0  0  0  0  0  0
  -24.2826  -11.3906   20.0587 C   0  0  0  0  0  0  0  0  0  0  0  0
  -24.5799  -18.6497   19.0106 C   0  0  0  0  0  0  0  0  0  0  0  0
  -23.8621  -12.7228   20.2340 C   0  0  0  0  0  0  0  0  0  0  0  0
  -25.2594  -19.3448   20.0211 C   0  0  0  0  0  0  0  0  0  0  0  0
  -18.7237  -25.7722   23.5450 C   0  0  0  0  0  0  0  0  0  0  0  0
  -19.6249  -28.1945   22.4948 C   0  0  0  0  0  0  0  0  0  0  0  0
  -20.0309  -26.9906   21.9191 C   0  0  0  0  0  0  0  0  0  0  0  0
  -19.5803  -25.7794   22.4442 C   0  0  0  0  0  0  0  0  0  0  0  0
  -28.9929  -26.0002   26.9298 C   0  0  0  0  0  0  0  0  0  0  0  0
  -23.4221  -20.9317   20.1479 C   0  0  0  0  0  0  0  0  0  0  0  0
  -30.1185  -26.7235   28.8616 C   0  0  0  0  0  0  0  0  0  0  0  0
  -31.3183  -28.7912   30.2996 C   0  0  0  0  0  0  0  0  0  0  0  0
  -31.4647  -26.6368   29.2161 C   0  0  0  0  0  0  0  0  0  0  0  0
  -27.3481  -26.9370   23.1463 C   0  0  0  0  0  0  0  0  0  0  0  0
  -26.7730  -26.9193   21.0240 C   0  0  0  0  0  0  0  0  0  0  0  0
  -28.2027  -24.9854   21.7056 C   0  0  0  0  0  0  0  0  0  0  0  0
  -25.6161  -15.9720   20.3743 C   0  0  0  0  0  0  0  0  0  0  0  0
  -28.5236  -17.3522   19.9704 C   0  0  0  0  0  0  0  0  0  0  0  0
  -30.3435  -20.2122   19.5764 C   0  0  0  0  0  0  0  0  0  0  0  0
  -22.1881  -30.7439   21.4734 C   0  0  0  0  0  0  0  0  0  0  0  0
  -25.5626  -10.8760   20.6682 C   0  0  0  0  0  0  0  0  0  0  0  0
  -25.2016  -17.4405   18.3674 C   0  0  0  0  0  0  0  0  0  0  0  0
  -26.6076  -18.8979   20.5224 C   0  0  0  0  0  0  0  0  0  0  0  0
  -26.5282  -11.9834   21.0823 C   0  0  0  0  0  0  0  0  0  0  0  0
  -25.3682  -31.3773   20.0027 C   0  0  0  0  0  0  0  0  0  0  0  0
  -25.7898  -13.0769   21.8477 C   0  0  0  0  0  0  0  0  0  0  0  0
  -26.2489  -30.2450   20.5339 C   0  0  0  0  0  0  0  0  0  0  0  0
  -23.3269  -23.1391   22.7921 C   0  0  0  0  0  0  0  0  0  0  0  0
  -24.3638  -31.8505   21.0513 C   0  0  0  0  0  0  0  0  0  0  0  0
  -24.4078  -29.6520   22.1641 C   0  0  0  0  0  0  0  0  0  0  0  0
  -22.4355  -24.3315   22.5094 C   0  0  0  0  0  0  0  0  0  0  0  0
  -21.1235  -22.2679   22.3695 C   0  0  0  0  0  0  0  0  0  0  0  0
  -24.7137  -13.7319   20.9733 C   0  0  1  0  0  0  0  0  0  0  0  0
  -26.2379  -16.7580   19.2549 C   0  0  1  0  0  0  0  0  0  0  0  0
  -25.3992  -29.1033   21.1237 C   0  0  2  0  0  0  0  0  0  0  0  0
  -22.5968  -21.9963   22.1078 C   0  0  1  0  0  0  0  0  0  1  0  0
  -18.2268  -24.4893   24.1270 C   0  0  0  0  0  0  0  0  0  0  0  0
  -20.9485  -27.0003   20.7375 C   0  0  0  0  0  0  0  0  0  0  0  0
  -32.7027  -21.0249   19.3099 C   0  0  0  0  0  0  0  0  0  0  0  0
  -29.0138  -16.8981   22.9476 C   0  0  0  0  0  0  0  0  0  0  0  0
  -30.9032  -18.5355   22.8151 C   0  0  0  0  0  0  0  0  0  0  0  0
  -30.9852  -16.4285   21.4822 C   0  0  0  0  0  0  0  0  0  0  0  0
  -29.7620  -21.3873   16.9231 C   0  0  0  0  0  0  0  0  0  0  0  0
  -20.0911  -29.5054   21.9508 C   0  0  0  0  0  0  0  0  0  0  0  0
  -20.0165  -24.4830   21.8279 C   0  0  0  0  0  0  0  0  0  0  0  0
  -29.3952  -18.2696   20.7936 C   0  0  1  0  0  0  0  0  0  0  0  0
  -31.4376  -20.5823   18.5913 C   0  0  2  0  0  0  0  0  0  0  0  0
  -30.0481  -17.5405   22.0017 C   0  0  0  0  0  0  0  0  0  0  0  0
  -26.6017  -28.0340   22.9927 N   0  0  0  0  0  0  0  0  0  0  0  0
  -26.2671  -27.9956   21.6917 N   0  0  0  0  0  0  0  0  0  0  0  0
  -27.1711  -17.7065   19.8662 N   0  0  0  0  0  0  0  0  0  0  0  0
  -23.5893  -30.7201   21.5692 N   0  0  0  0  0  0  0  0  0  0  0  0
  -26.5334  -26.7264   19.7096 N   0  0  0  0  0  0  0  0  0  0  0  0
  -28.8842  -24.3823   22.7716 N   0  0  0  0  0  0  0  0  0  0  0  0
  -25.3158  -14.6641   20.0444 N   0  0  0  0  0  0  0  0  0  0  0  0
  -30.3520  -18.8643   19.8665 N   0  0  0  0  0  0  0  0  0  0  0  0
  -21.5313  -29.6304   21.9827 N   0  0  0  0  0  0  0  0  0  0  0  0
  -21.0422  -23.7627   22.6428 N   0  3  2  0  0  0  0  0  0  0  0  0
  -30.9852  -21.6943   17.7083 N   0  3  0  0  0  0  0  0  0  0  0  0
  -28.2488  -24.4559   20.5694 O   0  0  0  0  0  0  0  0  0  0  0  0
  -25.4243  -16.5116   21.4577 O   0  0  0  0  0  0  0  0  0  0  0  0
  -29.0259  -16.3617   19.4334 O   0  0  0  0  0  0  0  0  0  0  0  0
  -29.5620  -21.0371   20.0448 O   0  0  0  0  0  0  0  0  0  0  0  0
  -21.5686  -31.6852   20.9663 O   0  0  0  0  0  0  0  0  0  0  0  0
  -29.5217  -25.6984   28.1471 O   0  0  0  0  0  0  0  0  0  0  0  0
  -22.8604  -22.0385   20.7060 O   0  0  0  0  0  0  0  0  0  1  0  0
  -31.8946  -29.7847   30.9887 F   0  0  0  0  0  0  0  0  0  0  0  0
  -32.1872  -25.5632   28.8678 F   0  0  0  0  0  0  0  0  0  0  0  0
  1  2  1  0  0  0  0
  1  5  2  0  0  0  0
  2  6  2  0  0  0  0
  3 10  2  0  0  0  0
  3 17  1  0  0  0  0
  4 11  1  0  0  0  0
  4 17  2  0  0  0  0
  5 19  1  0  0  0  0
  6 21  1  0  0  0  0
  7 12  2  0  0  0  0
  7 20  1  0  0  0  0
  8  9  1  0  0  0  0
  8 23  2  0  0  0  0
  9 24  2  0  0  0  0
 10 27  1  0  0  0  0
 11 27  2  0  0  0  0
 12 28  1  0  0  0  0
 13 14  2  0  0  0  0
 13 29  1  0  0  0  0
 14 30  1  0  0  0  0
 15 22  1  0  0  0  0
 15 28  2  0  0  0  0
 16 30  2  0  0  0  0
 16 31  1  0  0  0  0
 17 32  1  0  0  0  0
 18 32  1  0  0  0  0
 18 33  2  0  0  0  0
 18 34  1  0  0  0  0
 19 21  2  0  0  0  0
 19 39  1  0  0  0  0
 20 22  2  0  0  0  0
 20 40  1  0  0  0  0
 21 51  1  0  0  0  0
 22 41  1  0  0  0  0
 23 26  1  0  0  0  0
 23 55  1  0  0  0  0
 24 25  1  0  0  0  0
 24 62  1  0  0  0  0
 25 26  2  0  0  0  0
 25 56  1  0  0  0  0
 26 63  1  0  0  0  0
 27 83  1  0  0  0  0
 28 84  1  0  0  0  0
 29 31  2  0  0  0  0
 29 83  1  0  0  0  0
 30 85  1  0  0  0  0
 31 86  1  0  0  0  0
 32 67  2  0  0  0  0
 33 68  1  0  0  0  0
 33 71  1  0  0  0  0
 34 72  1  0  0  0  0
 34 78  2  0  0  0  0
 35 52  1  0  0  0  0
 35 73  1  0  0  0  0
 35 79  2  0  0  0  0
 36 64  1  0  0  0  0
 36 69  1  0  0  0  0
 36 80  2  0  0  0  0
 37 65  1  0  0  0  0
 37 74  1  0  0  0  0
 37 81  2  0  0  0  0
 38 70  1  0  0  0  0
 38 75  1  0  0  0  0
 38 82  2  0  0  0  0
 39 42  1  0  0  0  0
 40 52  1  0  0  0  0
 41 69  1  0  0  0  0
 42 44  1  0  0  0  0
 43 45  1  0  0  0  0
 43 47  1  0  0  0  0
 44 51  1  0  0  0  0
 45 53  1  0  0  0  0
 46 49  1  0  0  0  0
 46 54  1  0  0  0  0
 47 70  1  0  0  0  0
 48 53  1  0  0  0  0
 48 70  1  0  0  0  0
 49 76  1  0  0  0  0
 50 54  1  0  0  0  0
 50 76  1  0  0  0  0
 51 73  1  0  0  0  0
 52 69  1  0  0  0  0
 53 68  1  0  0  0  0
 54 84  1  0  0  0  0
 57 65  1  0  0  0  0
 58 66  1  0  0  0  0
 59 66  1  0  0  0  0
 60 66  1  0  0  0  0
 61 77  1  0  0  0  0
 62 75  1  0  0  0  0
 63 76  1  0  0  0  0
 64 66  1  0  0  0  0
 64 74  1  0  0  0  0
 65 77  1  0  0  0  0
 67 68  1  0  0  0  0
M  CHG  2  76   1  77   1
M  ISO  4  38 100  54 101  75 100  84 101
M  END
> <Batch ID>
0031

> <Smiles>
CNC(C)C(=O)NC(C(=O)N1Cc2cc([101O:1][101CH:1]3CCN(Cc4c(C)ccc(C[100NH:0][100C:0](=O)N5CCCC(n6nc(-c7ccc(Oc8ccc(F)cc8F)cc7)c(C(N)=O)c6N)C5)c4C)C3)ccc2CC1C(=O)NC1CCCc2ccccc21)C(C)(C)C

> <Shape>
0.194

> <Color>
0.085

> <Negative vol penalty>
0.000

$$$$

  -OEChem-04042321393D

 86 95  0     1  0  0  0  0  0999 V2000
  -29.3939  -36.4797   18.5283 C   0  0  0  0  0  0  0  0  0  0  0  0
  -29.5789  -35.1010   18.5500 C   0  0  0  0  0  0  0  0  0  0  0  0
  -23.1139   -9.8372   19.9872 C   0  0  0  0  0  0  0  0  0  0  0  0
  -24.3592   -9.3193   21.9917 C   0  0  0  0  0  0  0  0  0  0  0  0
  -28.5715  -37.0865   19.4766 C   0  0  0  0  0  0  0  0  0  0  0  0
  -28.9424  -34.3284   19.5208 C   0  0  0  0  0  0  0  0  0  0  0  0
  -26.7617  -28.6444   18.8558 C   0  0  0  0  0  0  0  0  0  0  0  0
  -22.5091   -8.5813   20.0384 C   0  0  0  0  0  0  0  0  0  0  0  0
  -23.7544   -8.0634   22.0430 C   0  0  0  0  0  0  0  0  0  0  0  0
  -27.2824  -27.3950   19.1896 C   0  0  0  0  0  0  0  0  0  0  0  0
  -20.7884   -6.7668   23.0135 C   0  0  0  0  0  0  0  0  0  0  0  0
  -20.3118   -6.3287   24.2490 C   0  0  0  0  0  0  0  0  0  0  0  0
  -26.0384  -27.4353   21.2560 C   0  0  0  0  0  0  0  0  0  0  0  0
  -30.9798  -18.9236   20.8449 C   0  0  0  0  0  0  0  0  0  0  0  0
  -28.5001  -19.9346   21.6270 C   0  0  0  0  0  0  0  0  0  0  0  0
  -21.7913   -4.4216   24.1436 C   0  0  0  0  0  0  0  0  0  0  0  0
  -24.0390  -10.2062   20.9638 C   0  0  0  0  0  0  0  0  0  0  0  0
  -24.2043  -12.6937   21.5048 C   0  0  0  0  0  0  0  0  0  0  0  0
  -27.9170  -36.3199   20.4536 C   0  0  0  0  0  0  0  0  0  0  0  0
  -25.8824  -29.3047   19.7260 C   0  0  0  0  0  0  0  0  0  0  0  0
  -28.1116  -34.9258   20.4839 C   0  0  0  0  0  0  0  0  0  0  0  0
  -25.5059  -28.6919   20.9297 C   0  0  0  0  0  0  0  0  0  0  0  0
  -30.5231  -20.1330   20.3211 C   0  0  0  0  0  0  0  0  0  0  0  0
  -30.1967  -18.2196   21.7597 C   0  0  0  0  0  0  0  0  0  0  0  0
  -29.2833  -20.6386   20.7122 C   0  0  0  0  0  0  0  0  0  0  0  0
  -22.8294   -7.6944   21.0663 C   0  0  0  0  0  0  0  0  0  0  0  0
  -26.9231  -26.7915   20.3912 C   0  0  0  0  0  0  0  0  0  0  0  0
  -21.7665   -6.0323   22.3430 C   0  0  0  0  0  0  0  0  0  0  0  0
  -20.8132   -5.1562   24.8141 C   0  0  0  0  0  0  0  0  0  0  0  0
  -28.9568  -18.7252   22.1508 C   0  0  0  0  0  0  0  0  0  0  0  0
  -22.2679   -4.8597   22.9080 C   0  0  0  0  0  0  0  0  0  0  0  0
  -24.6645  -11.5031   20.9110 C   0  0  0  0  0  0  0  0  0  0  0  0
  -25.1458  -13.6337   21.1637 C   0  0  0  0  0  0  0  0  0  0  0  0
  -23.0307  -12.9288   22.2941 C   0  0  0  0  0  0  0  0  0  0  0  0
  -25.9517  -32.0491   21.3282 C   0  0  0  0  0  0  0  0  0  0  0  0
  -22.8957  -31.2474   22.0634 C   0  0  0  0  0  0  0  0  0  0  0  0
  -20.5523  -28.7936   22.4295 C   0  0  0  0  0  0  0  0  0  0  0  0
  -30.4703  -15.1911   20.5560 C   0  0  0  0  0  0  0  0  0  0  0  0
  -27.0754  -37.0260   21.4870 C   0  0  0  0  0  0  0  0  0  0  0  0
  -25.3086  -30.6401   19.3390 C   0  0  0  0  0  0  0  0  0  0  0  0
  -24.5495  -29.3500   21.8893 C   0  0  0  0  0  0  0  0  0  0  0  0
  -26.1400  -36.0931   22.2517 C   0  0  0  0  0  0  0  0  0  0  0  0
  -28.9695  -13.4156   17.8594 C   0  0  0  0  0  0  0  0  0  0  0  0
  -26.8871  -34.8433   22.7065 C   0  0  0  0  0  0  0  0  0  0  0  0
  -27.6816  -12.8531   18.4636 C   0  0  0  0  0  0  0  0  0  0  0  0
  -29.2102  -24.9791   22.2235 C   0  0  0  0  0  0  0  0  0  0  0  0
  -30.1150  -13.4121   18.8692 C   0  0  0  0  0  0  0  0  0  0  0  0
  -28.5281  -13.5220   20.7516 C   0  0  0  0  0  0  0  0  0  0  0  0
  -28.9580  -23.4873   22.1376 C   0  0  0  0  0  0  0  0  0  0  0  0
  -29.3672  -24.3863   19.8962 C   0  0  0  0  0  0  0  0  0  0  0  0
  -27.4187  -34.0509   21.5060 C   0  0  1  0  0  0  0  0  0  0  0  0
  -24.8233  -31.4516   20.5362 C   0  0  1  0  0  0  0  0  0  0  0  0
  -27.3295  -13.5569   19.7880 C   0  0  2  0  0  0  0  0  0  0  0  0
  -28.8492  -25.4678   20.8313 C   0  0  1  0  0  0  0  0  0  1  0  0
  -31.3798  -20.8692   19.3441 C   0  0  0  0  0  0  0  0  0  0  0  0
  -18.1536  -28.4413   23.0772 C   0  0  0  0  0  0  0  0  0  0  0  0
  -23.6362  -31.6219   24.9997 C   0  0  0  0  0  0  0  0  0  0  0  0
  -21.5580  -30.3671   25.6117 C   0  0  0  0  0  0  0  0  0  0  0  0
  -21.3904  -32.5224   24.3670 C   0  0  0  0  0  0  0  0  0  0  0  0
  -19.8779  -27.6770   19.7729 C   0  0  0  0  0  0  0  0  0  0  0  0
  -30.6870  -16.9262   22.3172 C   0  0  0  0  0  0  0  0  0  0  0  0
  -28.7707  -21.9370   20.1626 C   0  0  0  0  0  0  0  0  0  0  0  0
  -22.2331  -30.4616   23.1691 C   0  0  1  0  0  0  0  0  0  0  0  0
  -19.1228  -28.6834   21.9306 C   0  0  2  0  0  0  0  0  0  0  0  0
  -22.2240  -31.2314   24.5199 C   0  0  0  0  0  0  0  0  0  0  0  0
  -25.8093  -11.6690   20.2433 N   0  0  0  0  0  0  0  0  0  0  0  0
  -26.0763  -12.9748   20.4153 N   0  0  0  0  0  0  0  0  0  0  0  0
  -24.0204  -30.6580   21.4689 N   0  0  0  0  0  0  0  0  0  0  0  0
  -29.7168  -14.0961   20.1019 N   0  0  0  0  0  0  0  0  0  0  0  0
  -25.2601  -14.9514   21.4340 N   0  0  0  0  0  0  0  0  0  0  0  0
  -22.1705  -11.8521   22.5495 N   0  0  0  0  0  0  0  0  0  0  0  0
  -26.3510  -33.2959   20.8860 N   0  0  0  0  0  0  0  0  0  0  0  0
  -20.9074  -30.1027   22.6769 N   0  0  0  0  0  0  0  0  0  0  0  0
  -30.0206  -15.7859   21.7285 N   0  0  0  0  0  0  0  0  0  0  0  0
  -29.4482  -23.1315   20.7534 N   0  3  2  0  0  0  0  0  0  0  0  0
  -18.9972  -27.5568   20.9632 N   0  3  0  0  0  0  0  0  0  0  0  0
  -22.7445  -14.0636   22.7455 O   0  0  0  0  0  0  0  0  0  0  0  0
  -26.4241  -31.4259   22.2717 O   0  0  0  0  0  0  0  0  0  0  0  0
  -22.4283  -32.3405   21.7344 O   0  0  0  0  0  0  0  0  0  0  0  0
  -21.2798  -27.8157   22.5877 O   0  0  0  0  0  0  0  0  0  0  0  0
  -31.4666  -15.6112   19.9578 O   0  0  0  0  0  0  0  0  0  0  0  0
  -22.2392   -6.4690   21.1168 O   0  0  0  0  0  0  0  0  0  0  0  0
  -27.4304  -25.5723   20.7198 O   0  0  0  0  0  0  0  0  0  1  0  0
  -20.3565   -4.7364   26.0012 F   0  0  0  0  0  0  0  0  0  0  0  0
  -28.1971  -18.0558   23.0292 F   0  0  0  0  0  0  0  0  0  0  0  0
  -23.2085   -4.1505   22.2691 F   0  0  0  0  0  0  0  0  0  0  0  0
  1  2  1  0  0  0  0
  1  5  2  0  0  0  0
  2  6  2  0  0  0  0
  3  8  2  0  0  0  0
  3 17  1  0  0  0  0
  4  9  1  0  0  0  0
  4 17  2  0  0  0  0
  5 19  1  0  0  0  0
  6 21  1  0  0  0  0
  7 10  2  0  0  0  0
  7 20  1  0  0  0  0
  8 26  1  0  0  0  0
  9 26  2  0  0  0  0
 10 27  1  0  0  0  0
 11 12  2  0  0  0  0
 11 28  1  0  0  0  0
 12 29  1  0  0  0  0
 13 22  1  0  0  0  0
 13 27  2  0  0  0  0
 14 23  1  0  0  0  0
 14 24  2  0  0  0  0
 15 25  1  0  0  0  0
 15 30  2  0  0  0  0
 16 29  2  0  0  0  0
 16 31  1  0  0  0  0
 17 32  1  0  0  0  0
 18 32  1  0  0  0  0
 18 33  2  0  0  0  0
 18 34  1  0  0  0  0
 19 21  2  0  0  0  0
 19 39  1  0  0  0  0
 20 22  2  0  0  0  0
 20 40  1  0  0  0  0
 21 51  1  0  0  0  0
 22 41  1  0  0  0  0
 23 25  2  0  0  0  0
 23 55  1  0  0  0  0
 24 30  1  0  0  0  0
 24 61  1  0  0  0  0
 25 62  1  0  0  0  0
 26 82  1  0  0  0  0
 27 83  1  0  0  0  0
 28 31  2  0  0  0  0
 28 82  1  0  0  0  0
 29 84  1  0  0  0  0
 30 85  1  0  0  0  0
 31 86  1  0  0  0  0
 32 66  2  0  0  0  0
 33 67  1  0  0  0  0
 33 70  1  0  0  0  0
 34 71  1  0  0  0  0
 34 77  2  0  0  0  0
 35 52  1  0  0  0  0
 35 72  1  0  0  0  0
 35 78  2  0  0  0  0
 36 63  1  0  0  0  0
 36 68  1  0  0  0  0
 36 79  2  0  0  0  0
 37 64  1  0  0  0  0
 37 73  1  0  0  0  0
 37 80  2  0  0  0  0
 38 69  1  0  0  0  0
 38 74  1  0  0  0  0
 38 81  2  0  0  0  0
 39 42  1  0  0  0  0
 40 52  1  0  0  0  0
 41 68  1  0  0  0  0
 42 44  1  0  0  0  0
 43 45  1  0  0  0  0
 43 47  1  0  0  0  0
 44 51  1  0  0  0  0
 45 53  1  0  0  0  0
 46 49  1  0  0  0  0
 46 54  1  0  0  0  0
 47 69  1  0  0  0  0
 48 53  1  0  0  0  0
 48 69  1  0  0  0  0
 49 75  1  0  0  0  0
 50 54  1  0  0  0  0
 50 75  1  0  0  0  0
 51 72  1  0  0  0  0
 52 68  1  0  0  0  0
 53 67  1  0  0  0  0
 54 83  1  0  0  0  0
 56 64  1  0  0  0  0
 57 65  1  0  0  0  0
 58 65  1  0  0  0  0
 59 65  1  0  0  0  0
 60 76  1  0  0  0  0
 61 74  1  0  0  0  0
 62 75  1  0  0  0  0
 63 65  1  0  0  0  0
 63 73  1  0  0  0  0
 64 76  1  0  0  0  0
 66 67  1  0  0  0  0
M  CHG  2  75   1  76   1
M  ISO  4  38 100  54 101  74 100  83 101
M  END
> <Batch ID>
0031

> <Smiles>
CNC(C)C(=O)NC(C(=O)N1Cc2cc([101O:1][101CH:1]3CCN(Cc4cc(F)c(C[100NH:0][100C:0](=O)N5CCCC(n6nc(-c7ccc(Oc8ccc(F)cc8F)cc7)c(C(N)=O)c6N)C5)cc4C)C3)ccc2CC1C(=O)NC1CCCc2ccccc21)C(C)(C)C

> <Shape>
0.364

> <Color>
0.161

> <Negative vol penalty>
0.000

$$$$

  -OEChem-04042321393D

 90 99  0     1  0  0  0  0  0999 V2000
  -26.3261  -35.2470   22.6052 C   0  0  0  0  0  0  0  0  0  0  0  0
  -26.8137  -33.9486   22.4964 C   0  0  0  0  0  0  0  0  0  0  0  0
  -24.0716   -9.4293   21.0257 C   0  0  0  0  0  0  0  0  0  0  0  0
  -25.5562   -9.9401   22.8620 C   0  0  0  0  0  0  0  0  0  0  0  0
  -25.0282  -35.4668   23.0645 C   0  0  0  0  0  0  0  0  0  0  0  0
  -26.0040  -32.8692   22.8481 C   0  0  0  0  0  0  0  0  0  0  0  0
  -26.2087  -29.1045   19.4672 C   0  0  0  0  0  0  0  0  0  0  0  0
  -23.8418   -8.1631   21.5636 C   0  0  0  0  0  0  0  0  0  0  0  0
  -25.3263   -8.6739   23.4001 C   0  0  0  0  0  0  0  0  0  0  0  0
  -27.3256  -28.2711   19.5092 C   0  0  0  0  0  0  0  0  0  0  0  0
  -21.9767   -6.8088   24.0376 C   0  0  0  0  0  0  0  0  0  0  0  0
  -20.6592   -6.3530   24.0824 C   0  0  0  0  0  0  0  0  0  0  0  0
  -26.0424  -26.6225   20.7154 C   0  0  0  0  0  0  0  0  0  0  0  0
  -27.9019  -21.0946   22.3585 C   0  0  0  0  0  0  0  0  0  0  0  0
  -21.2624   -4.4724   22.6908 C   0  0  0  0  0  0  0  0  0  0  0  0
  -24.9289  -10.3178   21.6748 C   0  0  0  0  0  0  0  0  0  0  0  0
  -24.2133  -12.6314   20.8728 C   0  0  0  0  0  0  0  0  0  0  0  0
  -24.1988  -34.3891   23.4128 C   0  0  0  0  0  0  0  0  0  0  0  0
  -25.0014  -28.7071   20.0595 C   0  0  0  0  0  0  0  0  0  0  0  0
  -24.6942  -33.0749   23.3138 C   0  0  0  0  0  0  0  0  0  0  0  0
  -24.9110  -27.4516   20.6773 C   0  0  0  0  0  0  0  0  0  0  0  0
  -27.9633  -21.8938   21.2170 C   0  0  0  0  0  0  0  0  0  0  0  0
  -28.0200  -19.7092   22.2471 C   0  0  0  0  0  0  0  0  0  0  0  0
  -28.1427  -21.3077   19.9640 C   0  0  0  0  0  0  0  0  0  0  0  0
  -28.2607  -19.9222   19.8526 C   0  0  0  0  0  0  0  0  0  0  0  0
  -28.1993  -19.1230   20.9941 C   0  0  0  0  0  0  0  0  0  0  0  0
  -24.4691   -7.7854   22.7509 C   0  0  0  0  0  0  0  0  0  0  0  0
  -27.2434  -27.0311   20.1359 C   0  0  0  0  0  0  0  0  0  0  0  0
  -22.9371   -6.0965   23.3192 C   0  0  0  0  0  0  0  0  0  0  0  0
  -20.3021   -5.1848   23.4091 C   0  0  0  0  0  0  0  0  0  0  0  0
  -22.5799   -4.9283   22.6458 C   0  0  0  0  0  0  0  0  0  0  0  0
  -25.1672  -11.6258   21.1193 C   0  0  0  0  0  0  0  0  0  0  0  0
  -24.9393  -13.6715   20.3460 C   0  0  0  0  0  0  0  0  0  0  0  0
  -28.7207  -25.4127   22.3932 C   0  0  0  0  0  0  0  0  0  0  0  0
  -28.1540  -25.7995   23.5501 C   0  0  0  0  0  0  0  0  0  0  0  0
  -22.7977  -12.6258   21.1000 C   0  0  0  0  0  0  0  0  0  0  0  0
  -23.1861  -29.8227   22.4183 C   0  0  0  0  0  0  0  0  0  0  0  0
  -21.1649  -27.4782   21.4484 C   0  0  0  0  0  0  0  0  0  0  0  0
  -21.4356  -24.0409   20.3860 C   0  0  0  0  0  0  0  0  0  0  0  0
  -29.4029  -17.0000   20.3693 C   0  0  0  0  0  0  0  0  0  0  0  0
  -22.8192  -34.6785   23.9492 C   0  0  0  0  0  0  0  0  0  0  0  0
  -23.7982  -29.6065   19.9822 C   0  0  0  0  0  0  0  0  0  0  0  0
  -23.6322  -26.9696   21.3105 C   0  0  0  0  0  0  0  0  0  0  0  0
  -21.8968  -33.4623   23.9457 C   0  0  0  0  0  0  0  0  0  0  0  0
  -29.7323  -13.8569   18.7292 C   0  0  0  0  0  0  0  0  0  0  0  0
  -30.7510  -24.4630   20.5971 C   0  0  0  0  0  0  0  0  0  0  0  0
  -22.6173  -32.2441   24.5148 C   0  0  0  0  0  0  0  0  0  0  0  0
  -28.4955  -13.0790   19.1845 C   0  0  0  0  0  0  0  0  0  0  0  0
  -30.6328  -25.9609   20.8689 C   0  0  0  0  0  0  0  0  0  0  0  0
  -30.2902  -14.7388   19.8449 C   0  0  0  0  0  0  0  0  0  0  0  0
  -28.0784  -14.8656   20.9226 C   0  0  0  0  0  0  0  0  0  0  0  0
  -30.3140  -23.6528   21.8085 C   0  0  0  0  0  0  0  0  0  0  0  0
  -23.8377  -31.8768   23.6620 C   0  0  1  0  0  0  0  0  0  0  0  0
  -22.7655  -29.3174   21.0672 C   0  0  1  0  0  0  0  0  0  0  0  0
  -27.4424  -14.0125   19.8130 C   0  0  2  0  0  0  0  0  0  0  0  0
  -29.2101  -26.3589   21.3025 C   0  0  2  0  0  0  0  0  0  1  0  0
  -27.9514  -18.8798   23.4885 C   0  0  0  0  0  0  0  0  0  0  0  0
  -28.2080  -22.1678   18.7417 C   0  0  0  0  0  0  0  0  0  0  0  0
  -28.4528  -19.2982   18.5055 C   0  0  0  0  0  0  0  0  0  0  0  0
  -27.6849  -24.8537   24.5982 C   0  0  0  0  0  0  0  0  0  0  0  0
  -29.2037  -27.8493   21.6757 C   0  0  0  0  0  0  0  0  0  0  0  0
  -19.9600  -22.6767   18.8831 C   0  0  0  0  0  0  0  0  0  0  0  0
  -19.8253  -26.5979   24.0447 C   0  0  0  0  0  0  0  0  0  0  0  0
  -19.6061  -24.3016   23.0714 C   0  0  0  0  0  0  0  0  0  0  0  0
  -18.4538  -26.2296   21.9861 C   0  0  0  0  0  0  0  0  0  0  0  0
  -23.6958  -23.3427   18.6076 C   0  0  0  0  0  0  0  0  0  0  0  0
  -27.8352  -23.3813   21.3648 C   0  0  0  0  0  0  0  0  0  0  0  0
  -20.9669  -26.0238   21.8012 C   0  0  1  0  0  0  0  0  0  0  0  0
  -21.2314  -23.5054   18.9803 C   0  0  2  0  0  0  0  0  0  0  0  0
  -19.7385  -25.8007   22.7279 C   0  0  0  0  0  0  0  0  0  0  0  0
  -26.4046  -11.9938   20.7769 N   0  0  0  0  0  0  0  0  0  0  0  0
  -26.2333  -13.2423   20.3099 N   0  0  0  0  0  0  0  0  0  0  0  0
  -22.4853  -27.8877   21.2143 N   0  0  0  0  0  0  0  0  0  0  0  0
  -29.2372  -15.5989   20.3894 N   0  0  0  0  0  0  0  0  0  0  0  0
  -24.5905  -14.9022   19.9145 N   0  0  0  0  0  0  0  0  0  0  0  0
  -22.3180  -13.0717   22.3391 N   0  0  0  0  0  0  0  0  0  0  0  0
  -28.3224  -17.7157   20.8839 N   0  0  0  0  0  0  0  0  0  0  0  0
  -23.4247  -31.1831   22.4609 N   0  0  0  0  0  0  0  0  0  0  0  0
  -20.8990  -25.3023   20.5350 N   0  0  0  0  0  0  0  0  0  0  0  0
  -28.9054  -23.9814   22.2337 N   0  3  2  0  0  0  0  0  0  0  0  0
  -22.3829  -22.6481   18.5803 N   0  3  0  0  0  0  0  0  0  0  0  0
  -21.9832  -12.2215   20.2358 O   0  0  0  0  0  0  0  0  0  0  0  0
  -23.2853  -29.0368   23.3533 O   0  0  0  0  0  0  0  0  0  0  0  0
  -20.1835  -28.2220   21.3760 O   0  0  0  0  0  0  0  0  0  0  0  0
  -22.0102  -23.4024   21.2651 O   0  0  0  0  0  0  0  0  0  0  0  0
  -30.4162  -17.5270   19.9031 O   0  0  0  0  0  0  0  0  0  0  0  0
  -24.2448   -6.5500   23.2762 O   0  0  0  0  0  0  0  0  0  0  0  0
  -28.3322  -26.2159   20.1789 O   0  0  0  0  0  0  0  0  0  1  0  0
  -19.0372   -4.7463   23.4536 F   0  0  0  0  0  0  0  0  0  0  0  0
  -23.4984   -4.2391   21.9550 F   0  0  0  0  0  0  0  0  0  0  0  0
  1  2  1  0  0  0  0
  1  5  2  0  0  0  0
  2  6  2  0  0  0  0
  3  8  2  0  0  0  0
  3 16  1  0  0  0  0
  4  9  1  0  0  0  0
  4 16  2  0  0  0  0
  5 18  1  0  0  0  0
  6 20  1  0  0  0  0
  7 10  2  0  0  0  0
  7 19  1  0  0  0  0
  8 27  1  0  0  0  0
  9 27  2  0  0  0  0
 10 28  1  0  0  0  0
 11 12  2  0  0  0  0
 11 29  1  0  0  0  0
 12 30  1  0  0  0  0
 13 21  1  0  0  0  0
 13 28  2  0  0  0  0
 14 22  1  0  0  0  0
 14 23  2  0  0  0  0
 15 30  2  0  0  0  0
 15 31  1  0  0  0  0
 16 32  1  0  0  0  0
 17 32  1  0  0  0  0
 17 33  2  0  0  0  0
 17 36  1  0  0  0  0
 18 20  2  0  0  0  0
 18 41  1  0  0  0  0
 19 21  2  0  0  0  0
 19 42  1  0  0  0  0
 20 53  1  0  0  0  0
 21 43  1  0  0  0  0
 22 24  2  0  0  0  0
 22 67  1  0  0  0  0
 23 26  1  0  0  0  0
 23 57  1  0  0  0  0
 24 25  1  0  0  0  0
 24 58  1  0  0  0  0
 25 26  2  0  0  0  0
 25 59  1  0  0  0  0
 26 77  1  0  0  0  0
 27 87  1  0  0  0  0
 28 88  1  0  0  0  0
 29 31  2  0  0  0  0
 29 87  1  0  0  0  0
 30 89  1  0  0  0  0
 31 90  1  0  0  0  0
 32 71  2  0  0  0  0
 33 72  1  0  0  0  0
 33 75  1  0  0  0  0
 34 35  2  0  0  0  0
 34 56  1  0  0  0  0
 34 80  1  0  0  0  0
 35 60  1  0  0  0  0
 36 76  1  0  0  0  0
 36 82  2  0  0  0  0
 37 54  1  0  0  0  0
 37 78  1  0  0  0  0
 37 83  2  0  0  0  0
 38 68  1  0  0  0  0
 38 73  1  0  0  0  0
 38 84  2  0  0  0  0
 39 69  1  0  0  0  0
 39 79  1  0  0  0  0
 39 85  2  0  0  0  0
 40 74  1  0  0  0  0
 40 77  1  0  0  0  0
 40 86  2  0  0  0  0
 41 44  1  0  0  0  0
 42 54  1  0  0  0  0
 43 73  1  0  0  0  0
 44 47  1  0  0  0  0
 45 48  1  0  0  0  0
 45 50  1  0  0  0  0
 46 49  1  0  0  0  0
 46 52  1  0  0  0  0
 47 53  1  0  0  0  0
 48 55  1  0  0  0  0
 49 56  1  0  0  0  0
 50 74  1  0  0  0  0
 51 55  1  0  0  0  0
 51 74  1  0  0  0  0
 52 80  1  0  0  0  0
 53 78  1  0  0  0  0
 54 73  1  0  0  0  0
 55 72  1  0  0  0  0
 56 61  1  0  0  0  0
 56 88  1  0  0  0  0
 62 69  1  0  0  0  0
 63 70  1  0  0  0  0
 64 70  1  0  0  0  0
 65 70  1  0  0  0  0
 66 81  1  0  0  0  0
 67 80  1  0  0  0  0
 68 70  1  0  0  0  0
 68 79  1  0  0  0  0
 69 81  1  0  0  0  0
 71 72  1  0  0  0  0
M  CHG  2  80   1  81   1
M  ISO  4  40 100  56 101  77 100  88 101
M  END
> <Batch ID>
0031

> <Smiles>
CC=C1N(Cc2cc(C)c([100NH:0][100C:0](=O)N3CCCC(n4nc(-c5ccc(Oc6ccc(F)cc6F)cc5)c(C(N)=O)c4N)C3)c(C)c2C)CCC[101C:1]1(C)[101O:1]c1ccc2c(c1)CN(C(=O)C(NC(=O)C(C)NC)C(C)(C)C)C(C(=O)NC1CCCc3ccccc31)C2

> <Shape>
0.350

> <Color>
0.150

> <Negative vol penalty>
0.000

$$$$

  -OEChem-04042321393D

 88 97  0     1  0  0  0  0  0999 V2000
  -25.2022  -18.1844   22.9243 C   0  0  0  0  0  0  0  0  0  0  0  0
  -25.4698  -19.2324   23.7977 C   0  0  0  0  0  0  0  0  0  0  0  0
  -26.2908  -12.9766   21.5420 C   0  0  0  0  0  0  0  0  0  0  0  0
  -26.1441  -13.5552   19.2009 C   0  0  0  0  0  0  0  0  0  0  0  0
  -24.8999  -18.4532   21.5911 C   0  0  0  0  0  0  0  0  0  0  0  0
  -25.4237  -20.5501   23.3411 C   0  0  0  0  0  0  0  0  0  0  0  0
  -26.7294  -25.7769   26.1876 C   0  0  0  0  0  0  0  0  0  0  0  0
  -25.0634  -12.3195   21.4565 C   0  0  0  0  0  0  0  0  0  0  0  0
  -24.9167  -12.8980   19.1154 C   0  0  0  0  0  0  0  0  0  0  0  0
  -27.8373  -26.6054   26.3611 C   0  0  0  0  0  0  0  0  0  0  0  0
  -23.9009   -9.3498   20.3331 C   0  0  0  0  0  0  0  0  0  0  0  0
  -23.7957   -8.0929   20.9287 C   0  0  0  0  0  0  0  0  0  0  0  0
  -27.0748  -27.9956   24.5431 C   0  0  0  0  0  0  0  0  0  0  0  0
  -30.1123  -26.4291   20.9354 C   0  0  0  0  0  0  0  0  0  0  0  0
  -22.0359   -8.9199   22.3628 C   0  0  0  0  0  0  0  0  0  0  0  0
  -26.8311  -13.5946   20.4142 C   0  0  0  0  0  0  0  0  0  0  0  0
  -29.3756  -13.7225   20.2855 C   0  0  0  0  0  0  0  0  0  0  0  0
  -24.8625  -19.7744   21.1158 C   0  0  0  0  0  0  0  0  0  0  0  0
  -25.7901  -26.0459   25.1818 C   0  0  0  0  0  0  0  0  0  0  0  0
  -25.0970  -20.8431   22.0047 C   0  0  0  0  0  0  0  0  0  0  0  0
  -25.9545  -27.1705   24.3606 C   0  0  0  0  0  0  0  0  0  0  0  0
  -31.4158  -26.5513   21.4166 C   0  0  0  0  0  0  0  0  0  0  0  0
  -32.3196  -25.5010   21.2565 C   0  0  0  0  0  0  0  0  0  0  0  0
  -31.9200  -24.3285   20.6152 C   0  0  0  0  0  0  0  0  0  0  0  0
  -30.6165  -24.2063   20.1340 C   0  0  0  0  0  0  0  0  0  0  0  0
  -24.3764  -12.2801   20.2432 C   0  0  0  0  0  0  0  0  0  0  0  0
  -28.0117  -27.7132   25.5369 C   0  0  0  0  0  0  0  0  0  0  0  0
  -23.0737  -10.3917   20.7523 C   0  0  0  0  0  0  0  0  0  0  0  0
  -22.8632   -7.8780   21.9436 C   0  0  0  0  0  0  0  0  0  0  0  0
  -22.1412  -10.1768   21.7671 C   0  0  0  0  0  0  0  0  0  0  0  0
  -29.7126  -25.2566   20.2941 C   0  0  0  0  0  0  0  0  0  0  0  0
  -28.0986  -14.2741   20.5020 C   0  0  0  0  0  0  0  0  0  0  0  0
  -30.2409  -14.7696   20.4892 C   0  0  0  0  0  0  0  0  0  0  0  0
  -32.2738  -28.9244   24.2181 C   0  0  0  0  0  0  0  0  0  0  0  0
  -33.5312  -29.3783   24.1684 C   0  0  0  0  0  0  0  0  0  0  0  0
  -29.7465  -12.3835   19.9318 C   0  0  0  0  0  0  0  0  0  0  0  0
  -24.7678  -24.5042   22.5969 C   0  0  0  0  0  0  0  0  0  0  0  0
  -22.6476  -26.9549   22.4511 C   0  0  0  0  0  0  0  0  0  0  0  0
  -21.8849  -30.1787   23.2711 C   0  0  0  0  0  0  0  0  0  0  0  0
  -29.5396  -20.6090   19.9743 C   0  0  0  0  0  0  0  0  0  0  0  0
  -24.5223  -20.0086   19.6650 C   0  0  0  0  0  0  0  0  0  0  0  0
  -24.5863  -25.1577   25.0250 C   0  0  0  0  0  0  0  0  0  0  0  0
  -24.9641  -27.5146   23.2793 C   0  0  0  0  0  0  0  0  0  0  0  0
  -31.1464  -29.5570   24.9708 C   0  0  0  0  0  0  0  0  0  0  0  0
  -24.9311  -21.3938   19.1747 C   0  0  0  0  0  0  0  0  0  0  0  0
  -30.6586  -18.8602   22.9386 C   0  0  0  0  0  0  0  0  0  0  0  0
  -24.4342  -22.4559   20.1440 C   0  0  0  0  0  0  0  0  0  0  0  0
  -30.2437  -17.4230   22.6187 C   0  0  0  0  0  0  0  0  0  0  0  0
  -29.6252  -19.8604   22.4289 C   0  0  0  0  0  0  0  0  0  0  0  0
  -28.9074  -18.3105   20.6524 C   0  0  0  0  0  0  0  0  0  0  0  0
  -30.6101  -27.3175   24.2559 C   0  0  0  0  0  0  0  0  0  0  0  0
  -25.0826  -22.2827   21.5233 C   0  0  1  0  0  0  0  0  0  0  0  0
  -23.9637  -25.2352   23.6345 C   0  0  1  0  0  0  0  0  0  0  0  0
  -29.9223  -17.2525   21.1221 C   0  0  2  0  0  0  0  0  0  0  0  0
  -29.9739  -28.6568   24.6028 C   0  0  1  0  0  0  0  0  0  1  0  0
  -33.7170  -25.6351   21.7740 C   0  0  0  0  0  0  0  0  0  0  0  0
  -32.8912  -23.2029   20.4439 C   0  0  0  0  0  0  0  0  0  0  0  0
  -20.0971  -31.9153   22.9792 C   0  0  0  0  0  0  0  0  0  0  0  0
  -23.5654  -27.4130   19.5775 C   0  0  0  0  0  0  0  0  0  0  0  0
  -22.4863  -29.6705   19.6665 C   0  0  0  0  0  0  0  0  0  0  0  0
  -21.0976  -27.6150   19.9292 C   0  0  0  0  0  0  0  0  0  0  0  0
  -21.4289  -30.3670   26.1893 C   0  0  0  0  0  0  0  0  0  0  0  0
  -30.2010  -22.9418   19.4475 C   0  0  0  0  0  0  0  0  0  0  0  0
  -31.8204  -27.8227   22.1026 C   0  0  0  0  0  0  0  0  0  0  0  0
  -22.6349  -28.3207   21.8083 C   0  0  1  0  0  0  0  0  0  0  0  0
  -20.6312  -30.7981   23.8620 C   0  0  2  0  0  0  0  0  0  0  0  0
  -22.4659  -28.2475   20.2644 C   0  0  0  0  0  0  0  0  0  0  0  0
  -28.1440  -15.5708   20.8191 N   0  0  0  0  0  0  0  0  0  0  0  0
  -29.4600  -15.8427   20.8034 N   0  0  0  0  0  0  0  0  0  0  0  0
  -23.8069  -26.6121   23.1613 N   0  0  0  0  0  0  0  0  0  0  0  0
  -29.3785  -19.6567   20.9944 N   0  0  0  0  0  0  0  0  0  0  0  0
  -31.5859  -14.8677   20.4284 N   0  0  0  0  0  0  0  0  0  0  0  0
  -28.7317  -11.4321   19.7610 N   0  0  0  0  0  0  0  0  0  0  0  0
  -24.4348  -23.1697   22.4642 N   0  0  0  0  0  0  0  0  0  0  0  0
  -21.5925  -29.0821   22.4880 N   0  0  0  0  0  0  0  0  0  0  0  0
  -29.9825  -21.8610   20.3830 N   0  0  0  0  0  0  0  0  0  0  0  0
  -31.9231  -27.6797   23.5943 N   0  3  1  0  0  0  0  0  0  0  0  0
  -20.9185  -31.3619   25.2113 N   0  3  0  0  0  0  0  0  0  0  0  0
  -30.9435  -12.0369   19.7880 O   0  0  0  0  0  0  0  0  0  0  0  0
  -25.6259  -25.1067   21.9625 O   0  0  0  0  0  0  0  0  0  0  0  0
  -21.6623  -26.2220   22.3338 O   0  0  0  0  0  0  0  0  0  0  0  0
  -23.0107  -30.6253   23.4802 O   0  0  0  0  0  0  0  0  0  0  0  0
  -29.3107  -20.3603   18.7857 O   0  0  0  0  0  0  0  0  0  0  0  0
  -23.1788  -11.6388   20.1594 O   0  0  0  0  0  0  0  0  0  0  0  0
  -29.0925  -28.5231   25.7036 O   0  0  0  0  0  0  0  0  0  1  0  0
  -22.7611   -6.6705   22.5144 F   0  0  0  0  0  0  0  0  0  0  0  0
  -21.3429  -11.1736   22.1732 F   0  0  0  0  0  0  0  0  0  0  0  0
  -28.0907  -25.1456   19.7122 Cl  0  0  0  0  0  0  0  0  0  0  0  0
  1  2  1  0  0  0  0
  1  5  2  0  0  0  0
  2  6  2  0  0  0  0
  3  8  2  0  0  0  0
  3 16  1  0  0  0  0
  4  9  1  0  0  0  0
  4 16  2  0  0  0  0
  5 18  1  0  0  0  0
  6 20  1  0  0  0  0
  7 10  2  0  0  0  0
  7 19  1  0  0  0  0
  8 26  1  0  0  0  0
  9 26  2  0  0  0  0
 10 27  1  0  0  0  0
 11 12  2  0  0  0  0
 11 28  1  0  0  0  0
 12 29  1  0  0  0  0
 13 21  1  0  0  0  0
 13 27  2  0  0  0  0
 14 22  1  0  0  0  0
 14 31  2  0  0  0  0
 15 29  2  0  0  0  0
 15 30  1  0  0  0  0
 16 32  1  0  0  0  0
 17 32  1  0  0  0  0
 17 33  2  0  0  0  0
 17 36  1  0  0  0  0
 18 20  2  0  0  0  0
 18 41  1  0  0  0  0
 19 21  2  0  0  0  0
 19 42  1  0  0  0  0
 20 52  1  0  0  0  0
 21 43  1  0  0  0  0
 22 23  2  0  0  0  0
 22 64  1  0  0  0  0
 23 24  1  0  0  0  0
 23 56  1  0  0  0  0
 24 25  2  0  0  0  0
 24 57  1  0  0  0  0
 25 31  1  0  0  0  0
 25 63  1  0  0  0  0
 26 84  1  0  0  0  0
 27 85  1  0  0  0  0
 28 30  2  0  0  0  0
 28 84  1  0  0  0  0
 29 86  1  0  0  0  0
 30 87  1  0  0  0  0
 31 88  1  0  0  0  0
 32 68  2  0  0  0  0
 33 69  1  0  0  0  0
 33 72  1  0  0  0  0
 34 35  2  0  0  0  0
 34 44  1  0  0  0  0
 34 77  1  0  0  0  0
 36 73  1  0  0  0  0
 36 79  2  0  0  0  0
 37 53  1  0  0  0  0
 37 74  1  0  0  0  0
 37 80  2  0  0  0  0
 38 65  1  0  0  0  0
 38 70  1  0  0  0  0
 38 81  2  0  0  0  0
 39 66  1  0  0  0  0
 39 75  1  0  0  0  0
 39 82  2  0  0  0  0
 40 71  1  0  0  0  0
 40 76  1  0  0  0  0
 40 83  2  0  0  0  0
 41 45  1  0  0  0  0
 42 53  1  0  0  0  0
 43 70  1  0  0  0  0
 44 55  1  0  0  0  0
 45 47  1  0  0  0  0
 46 48  1  0  0  0  0
 46 49  1  0  0  0  0
 47 52  1  0  0  0  0
 48 54  1  0  0  0  0
 49 71  1  0  0  0  0
 50 54  1  0  0  0  0
 50 71  1  0  0  0  0
 51 55  1  0  0  0  0
 51 77  1  0  0  0  0
 52 74  1  0  0  0  0
 53 70  1  0  0  0  0
 54 69  1  0  0  0  0
 55 85  1  0  0  0  0
 58 66  1  0  0  0  0
 59 67  1  0  0  0  0
 60 67  1  0  0  0  0
 61 67  1  0  0  0  0
 62 78  1  0  0  0  0
 63 76  1  0  0  0  0
 64 77  1  0  0  0  0
 65 67  1  0  0  0  0
 65 75  1  0  0  0  0
 66 78  1  0  0  0  0
 68 69  1  0  0  0  0
M  CHG  2  77   1  78   1
M  ISO  4  40 100  55 101  76 100  85 101
M  END
> <Batch ID>
0031

> <Smiles>
C=C1C[101CH:1]([101O:1]c2ccc3c(c2)CN(C(=O)C(NC(=O)C(C)NC)C(C)(C)C)C(C(=O)NC2CCCc4ccccc42)C3)CN1Cc1cc(Cl)c(C[100NH:0][100C:0](=O)N2CCCC(n3nc(-c4ccc(Oc5ccc(F)cc5F)cc4)c(C(N)=O)c3N)C2)c(C)c1C

> <Shape>
0.217

> <Color>
0.070

> <Negative vol penalty>
0.000

$$$$

  -OEChem-04042321393D

 83 91  0     1  0  0  0  0  0999 V2000
  -20.0849  -21.7040   16.0985 C   0  0  0  0  0  0  0  0  0  0  0  0
  -21.3047  -21.0649   15.9006 C   0  0  0  0  0  0  0  0  0  0  0  0
  -25.7883  -25.1931   21.5451 C   0  0  0  0  0  0  0  0  0  0  0  0
  -27.7640  -25.4680   22.9083 C   0  0  0  0  0  0  0  0  0  0  0  0
  -19.4357  -21.5993   17.3279 C   0  0  0  0  0  0  0  0  0  0  0  0
  -21.8766  -20.3216   16.9326 C   0  0  0  0  0  0  0  0  0  0  0  0
  -25.1843  -15.1969   16.3829 C   0  0  0  0  0  0  0  0  0  0  0  0
  -25.3826  -26.4869   21.8722 C   0  0  0  0  0  0  0  0  0  0  0  0
  -27.3582  -26.7619   23.2354 C   0  0  0  0  0  0  0  0  0  0  0  0
  -26.5588  -14.9634   16.3813 C   0  0  0  0  0  0  0  0  0  0  0  0
  -26.1380  -29.6464   20.9343 C   0  0  0  0  0  0  0  0  0  0  0  0
  -25.6711  -30.4598   19.9019 C   0  0  0  0  0  0  0  0  0  0  0  0
  -26.4656  -14.4345   18.7331 C   0  0  0  0  0  0  0  0  0  0  0  0
  -30.5123  -14.1206   21.9388 C   0  0  0  0  0  0  0  0  0  0  0  0
  -31.0708  -15.1172   19.3936 C   0  0  0  0  0  0  0  0  0  0  0  0
  -23.5415  -30.6627   21.0248 C   0  0  0  0  0  0  0  0  0  0  0  0
  -26.9790  -24.6836   22.0632 C   0  0  0  0  0  0  0  0  0  0  0  0
  -28.2032  -22.9573   20.6388 C   0  0  0  0  0  0  0  0  0  0  0  0
  -19.9952  -20.8464   18.3723 C   0  0  0  0  0  0  0  0  0  0  0  0
  -24.4407  -15.0614   17.5641 C   0  0  0  0  0  0  0  0  0  0  0  0
  -21.2349  -20.2079   18.1776 C   0  0  0  0  0  0  0  0  0  0  0  0
  -25.0814  -14.6644   18.7465 C   0  0  0  0  0  0  0  0  0  0  0  0
  -30.2607  -13.3373   20.8124 C   0  0  0  0  0  0  0  0  0  0  0  0
  -31.3224  -15.9005   20.5200 C   0  0  0  0  0  0  0  0  0  0  0  0
  -31.0431  -15.4023   21.7926 C   0  0  0  0  0  0  0  0  0  0  0  0
  -30.5400  -13.8355   19.5399 C   0  0  0  0  0  0  0  0  0  0  0  0
  -26.1675  -27.2713   22.7174 C   0  0  0  0  0  0  0  0  0  0  0  0
  -27.2002  -14.5849   17.5571 C   0  0  0  0  0  0  0  0  0  0  0  0
  -25.3067  -29.3410   22.0120 C   0  0  0  0  0  0  0  0  0  0  0  0
  -24.3728  -30.9680   19.9471 C   0  0  0  0  0  0  0  0  0  0  0  0
  -24.0085  -29.8492   22.0572 C   0  0  0  0  0  0  0  0  0  0  0  0
  -27.3984  -23.3470   21.7262 C   0  0  0  0  0  0  0  0  0  0  0  0
  -28.3093  -21.5935   20.7616 C   0  0  0  0  0  0  0  0  0  0  0  0
  -28.8014  -23.7567   19.6099 C   0  0  0  0  0  0  0  0  0  0  0  0
  -22.6972  -17.0253   19.3549 C   0  0  0  0  0  0  0  0  0  0  0  0
  -21.9855  -14.2992   20.9624 C   0  0  0  0  0  0  0  0  0  0  0  0
  -22.8768  -11.1133   21.8005 C   0  0  0  0  0  0  0  0  0  0  0  0
  -29.1243  -17.0364   23.8784 C   0  0  0  0  0  0  0  0  0  0  0  0
  -19.2794  -20.8012   19.6990 C   0  0  0  0  0  0  0  0  0  0  0  0
  -22.9544  -15.2910   17.5432 C   0  0  0  0  0  0  0  0  0  0  0  0
  -24.3251  -14.4853   20.0366 C   0  0  0  0  0  0  0  0  0  0  0  0
  -19.7704  -19.6860   20.6184 C   0  0  0  0  0  0  0  0  0  0  0  0
  -25.8189  -18.3525   23.7417 C   0  0  0  0  0  0  0  0  0  0  0  0
  -21.2951  -19.6569   20.6552 C   0  0  0  0  0  0  0  0  0  0  0  0
  -26.0025  -19.7388   23.1215 C   0  0  0  0  0  0  0  0  0  0  0  0
  -26.9784  -17.9901   24.6670 C   0  0  0  0  0  0  0  0  0  0  0  0
  -28.4999  -19.4881   23.4362 C   0  0  0  0  0  0  0  0  0  0  0  0
  -21.8752  -19.3720   19.2646 C   0  0  1  0  0  0  0  0  0  0  0  0
  -22.3817  -15.6228   18.9178 C   0  0  1  0  0  0  0  0  0  0  0  0
  -27.3831  -19.8750   22.4516 C   0  0  2  0  0  0  0  0  0  0  0  0
  -29.6928  -11.9679   20.9936 C   0  0  0  0  0  0  0  0  0  0  0  0
  -31.8902  -17.2699   20.3388 C   0  0  0  0  0  0  0  0  0  0  0  0
  -22.1131   -9.1472   23.1600 C   0  0  0  0  0  0  0  0  0  0  0  0
  -22.8826  -15.7164   23.5113 C   0  0  0  0  0  0  0  0  0  0  0  0
  -23.0058  -13.4793   24.6287 C   0  0  0  0  0  0  0  0  0  0  0  0
  -20.8227  -14.3208   23.7634 C   0  0  0  0  0  0  0  0  0  0  0  0
  -28.6327  -12.1751   16.7671 C   0  0  0  0  0  0  0  0  0  0  0  0
  -22.6939   -9.3819   19.4072 C   0  0  0  0  0  0  0  0  0  0  0  0
  -31.3034  -16.2229   23.0129 C   0  0  0  0  0  0  0  0  0  0  0  0
  -30.2773  -13.0083   18.3096 C   0  0  0  0  0  0  0  0  0  0  0  0
  -22.5924  -13.5559   22.1278 C   0  0  1  0  0  0  0  0  0  0  0  0
  -22.0932   -9.8131   21.7930 C   0  0  2  0  0  0  0  0  0  0  0  0
  -22.3407  -14.2733   23.4841 C   0  0  0  0  0  0  0  0  0  0  0  0
  -27.0200  -22.3142   22.4838 N   0  0  0  0  0  0  0  0  0  0  0  0
  -27.5894  -21.2620   21.8716 N   0  0  0  0  0  0  0  0  0  0  0  0
  -22.8746  -14.7276   19.9665 N   0  0  0  0  0  0  0  0  0  0  0  0
  -28.2586  -18.1387   23.9706 N   0  0  0  0  0  0  0  0  0  0  0  0
  -28.9471  -20.6574   20.0272 N   0  0  0  0  0  0  0  0  0  0  0  0
  -28.5915  -25.1423   19.6333 N   0  0  0  0  0  0  0  0  0  0  0  0
  -21.7666  -17.9634   18.9506 N   0  0  0  0  0  0  0  0  0  0  0  0
  -22.0658  -12.1969   22.0640 N   0  0  0  0  0  0  0  0  0  0  0  0
  -30.3139  -17.2612   23.1964 N   0  0  0  0  0  0  0  0  0  0  0  0
  -28.8578  -12.9840   17.9631 N   0  0  1  0  0  0  0  0  0  1  0  0
  -22.6725   -8.8650   20.7998 N   0  3  0  0  0  0  0  0  0  0  0  0
  -29.4877  -23.2553   18.6874 O   0  0  0  0  0  0  0  0  0  0  0  0
  -23.7092  -17.2402   20.0116 O   0  0  0  0  0  0  0  0  0  0  0  0
  -20.7666  -14.4864   20.9332 O   0  0  0  0  0  0  0  0  0  0  0  0
  -24.0878  -11.1624   21.5969 O   0  0  0  0  0  0  0  0  0  0  0  0
  -28.8545  -15.9321   24.3630 O   0  0  0  0  0  0  0  0  0  0  0  0
  -25.7720  -28.5340   23.0365 O   0  0  0  0  0  0  0  0  0  0  0  0
  -28.5418  -14.3569   17.5585 O   0  0  0  0  0  0  0  0  0  1  0  0
  -23.9251  -31.7504   18.9564 F   0  0  0  0  0  0  0  0  0  0  0  0
  -23.2056  -29.5602   23.0905 F   0  0  0  0  0  0  0  0  0  0  0  0
  1  2  1  0  0  0  0
  1  5  2  0  0  0  0
  2  6  2  0  0  0  0
  3  8  2  0  0  0  0
  3 17  1  0  0  0  0
  4  9  1  0  0  0  0
  4 17  2  0  0  0  0
  5 19  1  0  0  0  0
  6 21  1  0  0  0  0
  7 10  2  0  0  0  0
  7 20  1  0  0  0  0
  8 27  1  0  0  0  0
  9 27  2  0  0  0  0
 10 28  1  0  0  0  0
 11 12  2  0  0  0  0
 11 29  1  0  0  0  0
 12 30  1  0  0  0  0
 13 22  1  0  0  0  0
 13 28  2  0  0  0  0
 14 23  1  0  0  0  0
 14 25  2  0  0  0  0
 15 24  2  0  0  0  0
 15 26  1  0  0  0  0
 16 30  2  0  0  0  0
 16 31  1  0  0  0  0
 17 32  1  0  0  0  0
 18 32  1  0  0  0  0
 18 33  2  0  0  0  0
 18 34  1  0  0  0  0
 19 21  2  0  0  0  0
 19 39  1  0  0  0  0
 20 22  2  0  0  0  0
 20 40  1  0  0  0  0
 21 48  1  0  0  0  0
 22 41  1  0  0  0  0
 23 26  2  0  0  0  0
 23 51  1  0  0  0  0
 24 25  1  0  0  0  0
 24 52  1  0  0  0  0
 25 59  1  0  0  0  0
 26 60  1  0  0  0  0
 27 80  1  0  0  0  0
 28 81  1  0  0  0  0
 29 31  2  0  0  0  0
 29 80  1  0  0  0  0
 30 82  1  0  0  0  0
 31 83  1  0  0  0  0
 32 64  2  0  0  0  0
 33 65  1  0  0  0  0
 33 68  1  0  0  0  0
 34 69  1  0  0  0  0
 34 75  2  0  0  0  0
 35 49  1  0  0  0  0
 35 70  1  0  0  0  0
 35 76  2  0  0  0  0
 36 61  1  0  0  0  0
 36 66  1  0  0  0  0
 36 77  2  0  0  0  0
 37 62  1  0  0  0  0
 37 71  1  0  0  0  0
 37 78  2  0  0  0  0
 38 67  1  0  0  0  0
 38 72  1  0  0  0  0
 38 79  2  0  0  0  0
 39 42  1  0  0  0  0
 40 49  1  0  0  0  0
 41 66  1  0  0  0  0
 42 44  1  0  0  0  0
 43 45  1  0  0  0  0
 43 46  1  0  0  0  0
 44 48  1  0  0  0  0
 45 50  1  0  0  0  0
 46 67  1  0  0  0  0
 47 50  1  0  0  0  0
 47 67  1  0  0  0  0
 48 70  1  0  0  0  0
 49 66  1  0  0  0  0
 50 65  1  0  0  0  0
 53 62  1  0  0  0  0
 54 63  1  0  0  0  0
 55 63  1  0  0  0  0
 56 63  1  0  0  0  0
 57 73  1  0  0  0  0
 58 74  1  0  0  0  0
 59 72  1  0  0  0  0
 60 73  1  0  0  0  0
 61 63  1  0  0  0  0
 61 71  1  0  0  0  0
 62 74  1  0  0  0  0
 64 65  1  0  0  0  0
 73 81  1  0  0  0  0
M  CHG  1  74   1
M  ISO  4  38 100  72 100  73 101  81 101
M  END
> <Batch ID>
0031

> <Smiles>
CNC(C)C(=O)NC(C(=O)N1Cc2cc([101O:1][101N:1](C)Cc3cc(C)c(C[100NH:0][100C:0](=O)N4CCCC(n5nc(-c6ccc(Oc7ccc(F)cc7F)cc6)c(C(N)=O)c5N)C4)cc3C)ccc2CC1C(=O)NC1CCCc2ccccc21)C(C)(C)C

> <Shape>
0.190

> <Color>
0.066

> <Negative vol penalty>
0.000

$$$$

  -OEChem-04042321393D

 84 93  0     1  0  0  0  0  0999 V2000
  -31.6024  -34.2550   19.3596 C   0  0  0  0  0  0  0  0  0  0  0  0
  -32.5512  -33.2928   19.6899 C   0  0  0  0  0  0  0  0  0  0  0  0
  -23.0088   -9.9255   19.9436 C   0  0  0  0  0  0  0  0  0  0  0  0
  -23.7934   -9.8738   22.2281 C   0  0  0  0  0  0  0  0  0  0  0  0
  -30.3151  -34.1736   19.8889 C   0  0  0  0  0  0  0  0  0  0  0  0
  -32.2136  -32.2490   20.5508 C   0  0  0  0  0  0  0  0  0  0  0  0
  -33.6485  -25.3388   21.7782 C   0  0  0  0  0  0  0  0  0  0  0  0
  -22.2283   -8.7952   20.1860 C   0  0  0  0  0  0  0  0  0  0  0  0
  -23.0128   -8.7435   22.4705 C   0  0  0  0  0  0  0  0  0  0  0  0
  -34.0417  -24.4871   22.8096 C   0  0  0  0  0  0  0  0  0  0  0  0
  -19.7657   -8.0487   23.0986 C   0  0  0  0  0  0  0  0  0  0  0  0
  -19.0206   -8.0183   24.2773 C   0  0  0  0  0  0  0  0  0  0  0  0
  -31.7643  -24.4038   23.6008 C   0  0  0  0  0  0  0  0  0  0  0  0
  -30.7669  -18.0806   24.0816 C   0  0  0  0  0  0  0  0  0  0  0  0
  -32.2523  -16.3016   22.5287 C   0  0  0  0  0  0  0  0  0  0  0  0
  -20.2023   -6.0290   24.9728 C   0  0  0  0  0  0  0  0  0  0  0  0
  -23.7914  -10.4648   20.9646 C   0  0  0  0  0  0  0  0  0  0  0  0
  -24.2190  -12.9781   20.8755 C   0  0  0  0  0  0  0  0  0  0  0  0
  -29.9587  -33.1229   20.7490 C   0  0  0  0  0  0  0  0  0  0  0  0
  -32.3100  -25.7388   21.6566 C   0  0  0  0  0  0  0  0  0  0  0  0
  -30.9207  -32.1541   21.0931 C   0  0  0  0  0  0  0  0  0  0  0  0
  -31.3563  -25.2586   22.5655 C   0  0  0  0  0  0  0  0  0  0  0  0
  -32.1550  -18.0340   24.2100 C   0  0  0  0  0  0  0  0  0  0  0  0
  -30.1214  -17.2376   23.1769 C   0  0  0  0  0  0  0  0  0  0  0  0
  -32.8977  -17.1446   23.4335 C   0  0  0  0  0  0  0  0  0  0  0  0
  -30.8642  -16.3482   22.4004 C   0  0  0  0  0  0  0  0  0  0  0  0
  -22.2303   -8.2042   21.4495 C   0  0  0  0  0  0  0  0  0  0  0  0
  -33.1001  -24.0218   23.7229 C   0  0  0  0  0  0  0  0  0  0  0  0
  -20.7291   -7.0693   22.8569 C   0  0  0  0  0  0  0  0  0  0  0  0
  -19.2389   -7.0084   25.2145 C   0  0  0  0  0  0  0  0  0  0  0  0
  -20.9474   -6.0595   23.7940 C   0  0  0  0  0  0  0  0  0  0  0  0
  -24.5983  -11.6320   20.7146 C   0  0  0  0  0  0  0  0  0  0  0  0
  -25.3324  -13.6947   20.5103 C   0  0  0  0  0  0  0  0  0  0  0  0
  -22.9717  -13.5313   21.3159 C   0  0  0  0  0  0  0  0  0  0  0  0
  -30.7822  -28.5239   21.7679 C   0  0  0  0  0  0  0  0  0  0  0  0
  -28.2291  -26.7145   20.9133 C   0  0  0  0  0  0  0  0  0  0  0  0
  -26.7495  -23.6399   20.8464 C   0  0  0  0  0  0  0  0  0  0  0  0
  -30.8330  -14.5490   20.6374 C   0  0  0  0  0  0  0  0  0  0  0  0
  -28.5686  -33.1032   21.3337 C   0  0  0  0  0  0  0  0  0  0  0  0
  -31.8972  -26.6366   20.5226 C   0  0  0  0  0  0  0  0  0  0  0  0
  -29.9031  -25.6420   22.4667 C   0  0  0  0  0  0  0  0  0  0  0  0
  -28.1827  -31.7572   21.9418 C   0  0  0  0  0  0  0  0  0  0  0  0
  -29.6102  -12.2088   18.2488 C   0  0  0  0  0  0  0  0  0  0  0  0
  -29.3096  -31.2263   22.8220 C   0  0  0  0  0  0  0  0  0  0  0  0
  -28.1661  -11.9608   18.6906 C   0  0  0  0  0  0  0  0  0  0  0  0
  -30.5457  -12.3889   19.4430 C   0  0  0  0  0  0  0  0  0  0  0  0
  -28.6800  -13.1589   20.8557 C   0  0  0  0  0  0  0  0  0  0  0  0
  -33.1263  -20.8936   23.7340 C   0  0  0  0  0  0  0  0  0  0  0  0
  -34.2602  -20.9110   25.4880 C   0  0  0  0  0  0  0  0  0  0  0  0
  -30.5855  -30.9930   22.0039 C   0  0  1  0  0  0  0  0  0  0  0  0
  -30.5998  -27.3901   20.7990 C   0  0  1  0  0  0  0  0  0  0  0  0
  -27.6890  -13.0359   19.6867 C   0  0  2  0  0  0  0  0  0  0  0  0
  -34.0722  -21.9362   24.3560 C   0  0  0  0  0  0  0  0  0  1  0  0
  -28.6334  -17.3090   23.0601 C   0  0  0  0  0  0  0  0  0  0  0  0
  -34.3848  -17.0769   23.5539 C   0  0  0  0  0  0  0  0  0  0  0  0
  -24.6465  -22.4813   20.1167 C   0  0  0  0  0  0  0  0  0  0  0  0
  -26.7538  -27.8859   23.3135 C   0  0  0  0  0  0  0  0  0  0  0  0
  -25.0776  -26.0390   23.0964 C   0  0  0  0  0  0  0  0  0  0  0  0
  -25.3720  -27.6783   21.2394 C   0  0  0  0  0  0  0  0  0  0  0  0
  -28.2280  -21.8802   18.9819 C   0  0  0  0  0  0  0  0  0  0  0  0
  -32.8271  -18.9499   25.1899 C   0  0  0  0  0  0  0  0  0  0  0  0
  -27.1653  -25.9464   21.6598 C   0  0  1  0  0  0  0  0  0  0  0  0
  -26.0627  -22.8767   19.7282 C   0  0  2  0  0  0  0  0  0  0  0  0
  -26.1198  -26.8815   22.3306 C   0  0  0  0  0  0  0  0  0  0  0  0
  -25.8545  -11.4987   20.2807 N   0  0  0  0  0  0  0  0  0  0  0  0
  -26.2741  -12.7702   20.1658 N   0  0  0  0  0  0  0  0  0  0  0  0
  -29.5501  -26.5270   21.3444 N   0  0  0  0  0  0  0  0  0  0  0  0
  -30.0322  -13.4258   20.3408 N   0  0  0  0  0  0  0  0  0  0  0  0
  -25.5879  -15.0190   20.4532 N   0  0  0  0  0  0  0  0  0  0  0  0
  -21.9327  -12.6528   21.6521 N   0  0  0  0  0  0  0  0  0  0  0  0
  -30.2269  -15.4841   21.4757 N   0  0  0  0  0  0  0  0  0  0  0  0
  -30.4809  -29.7663   21.2432 N   0  0  0  0  0  0  0  0  0  0  0  0
  -26.5964  -25.0028   20.7036 N   0  0  0  0  0  0  0  0  0  0  0  0
  -33.7971  -19.8680   24.5540 N   0  3  0  0  0  0  0  0  0  0  0  0
  -26.8242  -21.6376   19.4030 N   0  3  0  0  0  0  0  0  0  0  0  0
  -22.7788  -14.7684   21.3929 O   0  0  0  0  0  0  0  0  0  0  0  0
  -31.1662  -28.2889   22.9076 O   0  0  0  0  0  0  0  0  0  0  0  0
  -27.9010  -27.4481   19.9775 O   0  0  0  0  0  0  0  0  0  0  0  0
  -27.3577  -23.0827   21.7575 O   0  0  0  0  0  0  0  0  0  0  0  0
  -31.9621  -14.6854   20.1593 O   0  0  0  0  0  0  0  0  0  0  0  0
  -21.4686   -7.1014   21.6865 O   0  0  0  0  0  0  0  0  0  0  0  0
  -33.4813  -23.1909   24.7309 O   0  0  0  0  0  0  0  0  0  1  0  0
  -18.5244   -6.9802   26.3471 F   0  0  0  0  0  0  0  0  0  0  0  0
  -21.8723   -5.1165   23.5680 F   0  0  0  0  0  0  0  0  0  0  0  0
  1  2  1  0  0  0  0
  1  5  2  0  0  0  0
  2  6  2  0  0  0  0
  3  8  2  0  0  0  0
  3 17  1  0  0  0  0
  4  9  1  0  0  0  0
  4 17  2  0  0  0  0
  5 19  1  0  0  0  0
  6 21  1  0  0  0  0
  7 10  2  0  0  0  0
  7 20  1  0  0  0  0
  8 27  1  0  0  0  0
  9 27  2  0  0  0  0
 10 28  1  0  0  0  0
 11 12  2  0  0  0  0
 11 29  1  0  0  0  0
 12 30  1  0  0  0  0
 13 22  1  0  0  0  0
 13 28  2  0  0  0  0
 14 23  1  0  0  0  0
 14 24  2  0  0  0  0
 15 25  1  0  0  0  0
 15 26  2  0  0  0  0
 16 30  2  0  0  0  0
 16 31  1  0  0  0  0
 17 32  1  0  0  0  0
 18 32  1  0  0  0  0
 18 33  2  0  0  0  0
 18 34  1  0  0  0  0
 19 21  2  0  0  0  0
 19 39  1  0  0  0  0
 20 22  2  0  0  0  0
 20 40  1  0  0  0  0
 21 50  1  0  0  0  0
 22 41  1  0  0  0  0
 23 25  2  0  0  0  0
 23 61  1  0  0  0  0
 24 26  1  0  0  0  0
 24 54  1  0  0  0  0
 25 55  1  0  0  0  0
 26 71  1  0  0  0  0
 27 81  1  0  0  0  0
 28 82  1  0  0  0  0
 29 31  2  0  0  0  0
 29 81  1  0  0  0  0
 30 83  1  0  0  0  0
 31 84  1  0  0  0  0
 32 65  2  0  0  0  0
 33 66  1  0  0  0  0
 33 69  1  0  0  0  0
 34 70  1  0  0  0  0
 34 76  2  0  0  0  0
 35 51  1  0  0  0  0
 35 72  1  0  0  0  0
 35 77  2  0  0  0  0
 36 62  1  0  0  0  0
 36 67  1  0  0  0  0
 36 78  2  0  0  0  0
 37 63  1  0  0  0  0
 37 73  1  0  0  0  0
 37 79  2  0  0  0  0
 38 68  1  0  0  0  0
 38 71  1  0  0  0  0
 38 80  2  0  0  0  0
 39 42  1  0  0  0  0
 40 51  1  0  0  0  0
 41 67  1  0  0  0  0
 42 44  1  0  0  0  0
 43 45  1  0  0  0  0
 43 46  1  0  0  0  0
 44 50  1  0  0  0  0
 45 52  1  0  0  0  0
 46 68  1  0  0  0  0
 47 52  1  0  0  0  0
 47 68  1  0  0  0  0
 48 53  1  0  0  0  0
 48 74  1  0  0  0  0
 49 53  1  0  0  0  0
 49 74  1  0  0  0  0
 50 72  1  0  0  0  0
 51 67  1  0  0  0  0
 52 66  1  0  0  0  0
 53 82  1  0  0  0  0
 56 63  1  0  0  0  0
 57 64  1  0  0  0  0
 58 64  1  0  0  0  0
 59 64  1  0  0  0  0
 60 75  1  0  0  0  0
 61 74  1  0  0  0  0
 62 64  1  0  0  0  0
 62 73  1  0  0  0  0
 63 75  1  0  0  0  0
 65 66  1  0  0  0  0
M  CHG  2  74   1  75   1
M  ISO  4  38 100  53 101  71 100  82 101
M  END
> <Batch ID>
0031

> <Smiles>
CNC(C)C(=O)NC(C(=O)N1Cc2cc([101O:1][101CH:1]3CN(Cc4cc(C)c([100NH:0][100C:0](=O)N5CCCC(n6nc(-c7ccc(Oc8ccc(F)cc8F)cc7)c(C(N)=O)c6N)C5)cc4C)C3)ccc2CC1C(=O)NC1CCCc2ccccc21)C(C)(C)C

> <Shape>
0.220

> <Color>
0.195

> <Negative vol penalty>
0.000

$$$$

  -OEChem-04042321393D

 84 93  0     1  0  0  0  0  0999 V2000
  -37.1381  -32.8657   27.3678 C   0  0  0  0  0  0  0  0  0  0  0  0
  -37.1786  -31.5406   26.9460 C   0  0  0  0  0  0  0  0  0  0  0  0
  -23.0861   -9.7756   19.9503 C   0  0  0  0  0  0  0  0  0  0  0  0
  -23.7905   -9.8550   22.2599 C   0  0  0  0  0  0  0  0  0  0  0  0
  -35.9115  -33.5112   27.5178 C   0  0  0  0  0  0  0  0  0  0  0  0
  -35.9922  -30.8599   26.6750 C   0  0  0  0  0  0  0  0  0  0  0  0
  -35.0910  -26.6069   22.3615 C   0  0  0  0  0  0  0  0  0  0  0  0
  -22.3642   -8.6108   20.2105 C   0  0  0  0  0  0  0  0  0  0  0  0
  -23.0686   -8.6902   22.5202 C   0  0  0  0  0  0  0  0  0  0  0  0
  -35.0725  -25.2136   22.4074 C   0  0  0  0  0  0  0  0  0  0  0  0
  -23.4521   -5.3642   22.0498 C   0  0  0  0  0  0  0  0  0  0  0  0
  -24.0745   -4.3714   22.8064 C   0  0  0  0  0  0  0  0  0  0  0  0
  -32.6690  -25.2581   22.6085 C   0  0  0  0  0  0  0  0  0  0  0  0
  -31.1969  -19.2846   21.4375 C   0  0  0  0  0  0  0  0  0  0  0  0
  -22.3291   -4.5434   24.4681 C   0  0  0  0  0  0  0  0  0  0  0  0
  -23.7993  -10.3977   20.9750 C   0  0  0  0  0  0  0  0  0  0  0  0
  -24.0835  -12.9270   20.8022 C   0  0  0  0  0  0  0  0  0  0  0  0
  -34.7099  -32.8410   27.2391 C   0  0  0  0  0  0  0  0  0  0  0  0
  -33.8975  -27.3379   22.4499 C   0  0  0  0  0  0  0  0  0  0  0  0
  -34.7482  -31.4966   26.8226 C   0  0  0  0  0  0  0  0  0  0  0  0
  -32.6748  -26.6605   22.5609 C   0  0  0  0  0  0  0  0  0  0  0  0
  -30.7415  -18.0381   21.0083 C   0  0  0  0  0  0  0  0  0  0  0  0
  -30.9189  -18.5948   23.7362 C   0  0  0  0  0  0  0  0  0  0  0  0
  -30.4634  -17.3482   23.3070 C   0  0  0  0  0  0  0  0  0  0  0  0
  -31.2858  -19.5630   22.8015 C   0  0  0  0  0  0  0  0  0  0  0  0
  -30.3747  -17.0699   21.9430 C   0  0  0  0  0  0  0  0  0  0  0  0
  -22.3555   -8.0681   21.4954 C   0  0  0  0  0  0  0  0  0  0  0  0
  -33.8616  -24.5391   22.5338 C   0  0  0  0  0  0  0  0  0  0  0  0
  -22.2682   -5.9467   22.5024 C   0  0  0  0  0  0  0  0  0  0  0  0
  -23.5131   -3.9609   24.0155 C   0  0  0  0  0  0  0  0  0  0  0  0
  -21.7067   -5.5362   23.7115 C   0  0  0  0  0  0  0  0  0  0  0  0
  -24.5457  -11.6007   20.7067 C   0  0  0  0  0  0  0  0  0  0  0  0
  -25.1658  -13.6942   20.4466 C   0  0  0  0  0  0  0  0  0  0  0  0
  -22.7914  -13.4212   21.1789 C   0  0  0  0  0  0  0  0  0  0  0  0
  -32.7200  -29.4719   24.4902 C   0  0  0  0  0  0  0  0  0  0  0  0
  -30.3399  -29.6782   22.2960 C   0  0  0  0  0  0  0  0  0  0  0  0
  -28.6129  -28.2048   19.7477 C   0  0  0  0  0  0  0  0  0  0  0  0
  -30.5997  -14.8770   20.7237 C   0  0  0  0  0  0  0  0  0  0  0  0
  -33.4060  -33.5658   27.4613 C   0  0  0  0  0  0  0  0  0  0  0  0
  -33.9321  -28.8396   22.3720 C   0  0  0  0  0  0  0  0  0  0  0  0
  -31.3639  -27.3981   22.6391 C   0  0  0  0  0  0  0  0  0  0  0  0
  -32.2116  -32.8893   26.7934 C   0  0  0  0  0  0  0  0  0  0  0  0
  -29.6002  -12.3816   18.3888 C   0  0  0  0  0  0  0  0  0  0  0  0
  -32.2238  -31.3894   27.0708 C   0  0  0  0  0  0  0  0  0  0  0  0
  -28.1581  -12.0651   18.7915 C   0  0  0  0  0  0  0  0  0  0  0  0
  -30.4806  -12.6609   19.6056 C   0  0  0  0  0  0  0  0  0  0  0  0
  -28.5244  -13.3708   20.9242 C   0  0  0  0  0  0  0  0  0  0  0  0
  -31.5995  -22.0428   22.5140 C   0  0  0  0  0  0  0  0  0  0  0  0
  -33.0163  -21.1155   23.7633 C   0  0  0  0  0  0  0  0  0  0  0  0
  -33.4839  -30.7321   26.4950 C   0  0  1  0  0  0  0  0  0  0  0  0
  -32.7017  -29.4983   22.9880 C   0  0  1  0  0  0  0  0  0  0  0  0
  -27.5844  -13.1462   19.7285 C   0  0  2  0  0  0  0  0  0  0  0  0
  -32.7894  -22.5705   23.3280 C   0  0  0  0  0  0  0  0  0  1  0  0
  -30.6555  -17.7705   19.5404 C   0  0  0  0  0  0  0  0  0  0  0  0
  -31.0145  -18.8923   25.2001 C   0  0  0  0  0  0  0  0  0  0  0  0
  -30.0677  -16.3123   24.3130 C   0  0  0  0  0  0  0  0  0  0  0  0
  -26.6964  -28.6039   18.1777 C   0  0  0  0  0  0  0  0  0  0  0  0
  -28.3721  -29.1346   24.5637 C   0  0  0  0  0  0  0  0  0  0  0  0
  -26.6371  -28.6055   22.8379 C   0  0  0  0  0  0  0  0  0  0  0  0
  -27.6352  -30.8893   22.9412 C   0  0  0  0  0  0  0  0  0  0  0  0
  -30.3638  -27.9907   17.3713 C   0  0  0  0  0  0  0  0  0  0  0  0
  -29.0276  -28.9663   22.0721 C   0  0  1  0  0  0  0  0  0  0  0  0
  -28.1990  -28.7203   18.3812 C   0  0  2  0  0  0  0  0  0  0  0  0
  -27.9427  -29.3848   23.1042 C   0  0  0  0  0  0  0  0  0  0  0  0
  -25.8221  -11.5260   20.3205 N   0  0  0  0  0  0  0  0  0  0  0  0
  -26.1712  -12.8150   20.1701 N   0  0  0  0  0  0  0  0  0  0  0  0
  -31.7429  -20.8112   23.2095 N   0  0  0  0  0  0  0  0  0  0  0  0
  -31.4505  -28.8659   22.5651 N   0  0  0  0  0  0  0  0  0  0  0  0
  -29.8763  -13.6981   20.4447 N   0  0  0  0  0  0  0  0  0  0  0  0
  -25.3460  -15.0283   20.3465 N   0  0  0  0  0  0  0  0  0  0  0  0
  -21.7937  -12.4958   21.5142 N   0  0  0  0  0  0  0  0  0  0  0  0
  -29.9110  -15.8049   21.5043 N   0  0  0  0  0  0  0  0  0  0  0  0
  -33.3541  -30.5572   25.0643 N   0  0  0  0  0  0  0  0  0  0  0  0
  -28.6590  -29.2170   20.6829 N   0  0  0  0  0  0  0  0  0  0  0  0
  -28.8803  -27.9443   17.3067 N   0  3  0  0  0  0  0  0  0  0  0  0
  -22.5245  -14.6467   21.2010 O   0  0  0  0  0  0  0  0  0  0  0  0
  -32.1963  -28.5369   25.0845 O   0  0  0  0  0  0  0  0  0  0  0  0
  -30.3795  -30.9092   22.2274 O   0  0  0  0  0  0  0  0  0  0  0  0
  -28.8661  -27.0219   19.9648 O   0  0  0  0  0  0  0  0  0  0  0  0
  -31.7353  -15.0622   20.2786 O   0  0  0  0  0  0  0  0  0  0  0  0
  -21.6510   -6.9316   21.7497 O   0  0  0  0  0  0  0  0  0  0  0  0
  -33.8408  -23.1792   22.5795 O   0  0  0  0  0  0  0  0  0  1  0  0
  -24.1101   -3.0064   24.7412 F   0  0  0  0  0  0  0  0  0  0  0  0
  -20.5688   -6.0913   24.1508 F   0  0  0  0  0  0  0  0  0  0  0  0
  1  2  1  0  0  0  0
  1  5  2  0  0  0  0
  2  6  2  0  0  0  0
  3  8  2  0  0  0  0
  3 16  1  0  0  0  0
  4  9  1  0  0  0  0
  4 16  2  0  0  0  0
  5 18  1  0  0  0  0
  6 20  1  0  0  0  0
  7 10  2  0  0  0  0
  7 19  1  0  0  0  0
  8 27  1  0  0  0  0
  9 27  2  0  0  0  0
 10 28  1  0  0  0  0
 11 12  2  0  0  0  0
 11 29  1  0  0  0  0
 12 30  1  0  0  0  0
 13 21  1  0  0  0  0
 13 28  2  0  0  0  0
 14 22  2  0  0  0  0
 14 25  1  0  0  0  0
 15 30  2  0  0  0  0
 15 31  1  0  0  0  0
 16 32  1  0  0  0  0
 17 32  1  0  0  0  0
 17 33  2  0  0  0  0
 17 34  1  0  0  0  0
 18 20  2  0  0  0  0
 18 39  1  0  0  0  0
 19 21  2  0  0  0  0
 19 40  1  0  0  0  0
 20 50  1  0  0  0  0
 21 41  1  0  0  0  0
 22 26  1  0  0  0  0
 22 54  1  0  0  0  0
 23 24  1  0  0  0  0
 23 25  2  0  0  0  0
 23 55  1  0  0  0  0
 24 26  2  0  0  0  0
 24 56  1  0  0  0  0
 25 67  1  0  0  0  0
 26 72  1  0  0  0  0
 27 81  1  0  0  0  0
 28 82  1  0  0  0  0
 29 31  2  0  0  0  0
 29 81  1  0  0  0  0
 30 83  1  0  0  0  0
 31 84  1  0  0  0  0
 32 65  2  0  0  0  0
 33 66  1  0  0  0  0
 33 70  1  0  0  0  0
 34 71  1  0  0  0  0
 34 76  2  0  0  0  0
 35 51  1  0  0  0  0
 35 73  1  0  0  0  0
 35 77  2  0  0  0  0
 36 62  1  0  0  0  0
 36 68  1  0  0  0  0
 36 78  2  0  0  0  0
 37 63  1  0  0  0  0
 37 74  1  0  0  0  0
 37 79  2  0  0  0  0
 38 69  1  0  0  0  0
 38 72  1  0  0  0  0
 38 80  2  0  0  0  0
 39 42  1  0  0  0  0
 40 51  1  0  0  0  0
 41 68  1  0  0  0  0
 42 44  1  0  0  0  0
 43 45  1  0  0  0  0
 43 46  1  0  0  0  0
 44 50  1  0  0  0  0
 45 52  1  0  0  0  0
 46 69  1  0  0  0  0
 47 52  1  0  0  0  0
 47 69  1  0  0  0  0
 48 53  1  0  0  0  0
 48 67  1  0  0  0  0
 49 53  1  0  0  0  0
 49 67  1  0  0  0  0
 50 73  1  0  0  0  0
 51 68  1  0  0  0  0
 52 66  1  0  0  0  0
 53 82  1  0  0  0  0
 57 63  1  0  0  0  0
 58 64  1  0  0  0  0
 59 64  1  0  0  0  0
 60 64  1  0  0  0  0
 61 75  1  0  0  0  0
 62 64  1  0  0  0  0
 62 74  1  0  0  0  0
 63 75  1  0  0  0  0
 65 66  1  0  0  0  0
M  CHG  1  75   1
M  ISO  4  38 100  53 101  72 100  82 101
M  END
> <Batch ID>
0031

> <Smiles>
CNC(C)C(=O)NC(C(=O)N1Cc2cc([101O:1][101CH:1]3CN(c4cc(C)c([100NH:0][100C:0](=O)N5CCCC(n6nc(-c7ccc(Oc8ccc(F)cc8F)cc7)c(C(N)=O)c6N)C5)c(C)c4C)C3)ccc2CC1C(=O)NC1CCCc2ccccc21)C(C)(C)C

> <Shape>
0.218

> <Color>
0.216

> <Negative vol penalty>
0.000

$$$$

  -OEChem-04042321393D

 88 97  0     1  0  0  0  0  0999 V2000
  -31.2608  -31.6879   27.2165 C   0  0  0  0  0  0  0  0  0  0  0  0
  -31.5220  -30.8179   26.1628 C   0  0  0  0  0  0  0  0  0  0  0  0
  -22.6612  -10.1139   20.3642 C   0  0  0  0  0  0  0  0  0  0  0  0
  -24.3635   -9.5384   21.9791 C   0  0  0  0  0  0  0  0  0  0  0  0
  -30.7666  -31.1919   28.4223 C   0  0  0  0  0  0  0  0  0  0  0  0
  -31.2902  -29.4513   26.3145 C   0  0  0  0  0  0  0  0  0  0  0  0
  -28.9286  -27.4260   22.3188 C   0  0  0  0  0  0  0  0  0  0  0  0
  -29.0985  -20.0645   19.6697 C   0  0  0  0  0  0  0  0  0  0  0  0
  -28.9234  -18.8488   20.3308 C   0  0  0  0  0  0  0  0  0  0  0  0
  -21.9574   -8.9555   20.6933 C   0  0  0  0  0  0  0  0  0  0  0  0
  -23.6597   -8.3800   22.3083 C   0  0  0  0  0  0  0  0  0  0  0  0
  -29.7014  -27.1621   21.1888 C   0  0  0  0  0  0  0  0  0  0  0  0
  -20.9711   -7.5479   24.1790 C   0  0  0  0  0  0  0  0  0  0  0  0
  -20.8238   -7.2433   25.5322 C   0  0  0  0  0  0  0  0  0  0  0  0
  -29.8274  -24.8386   21.8251 C   0  0  0  0  0  0  0  0  0  0  0  0
  -29.9801  -18.8932   17.7493 C   0  0  0  0  0  0  0  0  0  0  0  0
  -21.9820   -5.1512   25.1874 C   0  0  0  0  0  0  0  0  0  0  0  0
  -23.8644  -10.4053   21.0071 C   0  0  0  0  0  0  0  0  0  0  0  0
  -24.1417  -12.9307   20.7766 C   0  0  0  0  0  0  0  0  0  0  0  0
  -30.5195  -29.8198   28.5856 C   0  0  0  0  0  0  0  0  0  0  0  0
  -28.6079  -26.3986   23.2177 C   0  0  0  0  0  0  0  0  0  0  0  0
  -30.7935  -28.9364   27.5240 C   0  0  0  0  0  0  0  0  0  0  0  0
  -29.0482  -25.0916   22.9644 C   0  0  0  0  0  0  0  0  0  0  0  0
  -29.6269  -20.0867   18.3789 C   0  0  0  0  0  0  0  0  0  0  0  0
  -29.2766  -17.6553   19.7012 C   0  0  0  0  0  0  0  0  0  0  0  0
  -22.4566   -8.0886   21.6653 C   0  0  0  0  0  0  0  0  0  0  0  0
  -30.1534  -25.8688   20.9434 C   0  0  0  0  0  0  0  0  0  0  0  0
  -21.6238   -6.6541   23.3300 C   0  0  0  0  0  0  0  0  0  0  0  0
  -21.3293   -6.0450   26.0364 C   0  0  0  0  0  0  0  0  0  0  0  0
  -22.1292   -5.4558   23.8342 C   0  0  0  0  0  0  0  0  0  0  0  0
  -29.8050  -17.6775   18.4104 C   0  0  0  0  0  0  0  0  0  0  0  0
  -24.5922  -11.6015   20.6671 C   0  0  0  0  0  0  0  0  0  0  0  0
  -25.1971  -13.6887   20.3315 C   0  0  0  0  0  0  0  0  0  0  0  0
  -30.2630  -23.5194   18.8750 C   0  0  0  0  0  0  0  0  0  0  0  0
  -22.8820  -13.4352   21.2395 C   0  0  0  0  0  0  0  0  0  0  0  0
  -29.2073  -25.8364   26.2883 C   0  0  0  0  0  0  0  0  0  0  0  0
  -27.2124  -23.3226   25.8155 C   0  0  0  0  0  0  0  0  0  0  0  0
  -25.8073  -21.1102   23.6297 C   0  0  0  0  0  0  0  0  0  0  0  0
  -30.8089  -14.5427   20.6403 C   0  0  0  0  0  0  0  0  0  0  0  0
  -30.0297  -29.3246   29.9234 C   0  0  0  0  0  0  0  0  0  0  0  0
  -27.7509  -26.6945   24.4178 C   0  0  0  0  0  0  0  0  0  0  0  0
  -28.7144  -23.9494   23.8877 C   0  0  0  0  0  0  0  0  0  0  0  0
  -29.4572  -27.9102   29.8770 C   0  0  0  0  0  0  0  0  0  0  0  0
  -33.1188  -22.8299   18.5750 C   0  0  0  0  0  0  0  0  0  0  0  0
  -29.4586  -12.3655   17.9686 C   0  0  0  0  0  0  0  0  0  0  0  0
  -30.3840  -26.9846   29.0952 C   0  0  0  0  0  0  0  0  0  0  0  0
  -32.6441  -24.2504   18.8754 C   0  0  0  0  0  0  0  0  0  0  0  0
  -28.0610  -12.0303   18.4866 C   0  0  0  0  0  0  0  0  0  0  0  0
  -32.0256  -21.7805   18.7565 C   0  0  0  0  0  0  0  0  0  0  0  0
  -30.4340  -12.6445   19.1081 C   0  0  0  0  0  0  0  0  0  0  0  0
  -28.5740  -13.3623   20.5706 C   0  0  0  0  0  0  0  0  0  0  0  0
  -30.5314  -27.4506   27.6417 C   0  0  1  0  0  0  0  0  0  0  0  0
  -31.3346  -24.2709   19.6532 C   0  0  1  0  0  0  0  0  0  1  0  0
  -27.9164  -25.6713   25.5372 C   0  0  1  0  0  0  0  0  0  0  0  0
  -27.5554  -13.1214   19.4463 C   0  0  2  0  0  0  0  0  0  0  0  0
  -24.2455  -19.1478   23.5443 C   0  0  0  0  0  0  0  0  0  0  0  0
  -29.4086  -21.5288   26.9420 C   0  0  0  0  0  0  0  0  0  0  0  0
  -28.2051  -19.5614   25.9677 C   0  0  0  0  0  0  0  0  0  0  0  0
  -27.0986  -20.9591   27.7127 C   0  0  0  0  0  0  0  0  0  0  0  0
  -31.2277  -16.7857   21.5747 C   0  0  0  0  0  0  0  0  0  0  0  0
  -23.9160  -22.5445   21.8622 C   0  0  0  0  0  0  0  0  0  0  0  0
  -29.8156  -21.3952   17.6673 C   0  0  0  0  0  0  0  0  0  0  0  0
  -29.0742  -16.3743   20.4438 C   0  0  0  0  0  0  0  0  0  0  0  0
  -27.3854  -21.8879   25.3788 C   0  0  1  0  0  0  0  0  0  0  0  0
  -24.3706  -20.6596   23.4367 C   0  0  2  0  0  0  0  0  0  0  0  0
  -28.0325  -21.0060   26.4837 C   0  0  0  0  0  0  0  0  0  0  0  0
  -25.8367  -11.5165   20.1897 N   0  0  0  0  0  0  0  0  0  0  0  0
  -26.1772  -12.8019   19.9951 N   0  0  0  0  0  0  0  0  0  0  0  0
  -30.7066  -22.2851   18.3926 N   0  0  0  0  0  0  0  0  0  0  0  0
  -27.8790  -24.2906   25.0510 N   0  0  0  0  0  0  0  0  0  0  0  0
  -29.9097  -13.6537   20.0288 N   0  0  0  0  0  0  0  0  0  0  0  0
  -25.3730  -15.0205   20.1988 N   0  0  0  0  0  0  0  0  0  0  0  0
  -22.7390  -13.7262   22.6030 N   0  0  0  0  0  0  0  0  0  0  0  0
  -29.3640  -27.0794   26.8711 N   0  0  0  0  0  0  0  0  0  0  0  0
  -26.0694  -21.4318   24.9447 N   0  0  0  0  0  0  0  0  0  0  0  0
  -30.3298  -15.8245   20.9503 N   0  0  0  0  0  0  0  0  0  0  0  0
  -23.8722  -21.0781   22.0960 N   0  3  0  0  0  0  0  0  0  0  0  0
  -29.1316  -23.9745   18.7168 O   0  0  0  0  0  0  0  0  0  0  0  0
  -21.9066  -13.6068   20.4696 O   0  0  0  0  0  0  0  0  0  0  0  0
  -30.0016  -24.9045   26.3367 O   0  0  0  0  0  0  0  0  0  0  0  0
  -26.5059  -23.5757   26.7945 O   0  0  0  0  0  0  0  0  0  0  0  0
  -26.6172  -21.1672   22.7071 O   0  0  0  0  0  0  0  0  0  0  0  0
  -31.9762  -14.2128   20.8860 O   0  0  0  0  0  0  0  0  0  0  0  0
  -21.7699   -6.9582   21.9869 O   0  0  0  0  0  0  0  0  0  0  0  0
  -30.9084  -25.6086   19.8415 O   0  0  0  0  0  0  0  0  0  1  0  0
  -21.1891   -5.7534   27.3362 F   0  0  0  0  0  0  0  0  0  0  0  0
  -22.7582   -4.5937   23.0236 F   0  0  0  0  0  0  0  0  0  0  0  0
  -30.2543  -16.2208   17.6008 Cl  0  0  0  0  0  0  0  0  0  0  0  0
  1  2  1  0  0  0  0
  1  5  2  0  0  0  0
  2  6  2  0  0  0  0
  3 10  2  0  0  0  0
  3 18  1  0  0  0  0
  4 11  1  0  0  0  0
  4 18  2  0  0  0  0
  5 20  1  0  0  0  0
  6 22  1  0  0  0  0
  7 12  2  0  0  0  0
  7 21  1  0  0  0  0
  8  9  2  0  0  0  0
  8 24  1  0  0  0  0
  9 25  1  0  0  0  0
 10 26  1  0  0  0  0
 11 26  2  0  0  0  0
 12 27  1  0  0  0  0
 13 14  2  0  0  0  0
 13 28  1  0  0  0  0
 14 29  1  0  0  0  0
 15 23  1  0  0  0  0
 15 27  2  0  0  0  0
 16 24  2  0  0  0  0
 16 31  1  0  0  0  0
 17 29  2  0  0  0  0
 17 30  1  0  0  0  0
 18 32  1  0  0  0  0
 19 32  1  0  0  0  0
 19 33  2  0  0  0  0
 19 35  1  0  0  0  0
 20 22  2  0  0  0  0
 20 40  1  0  0  0  0
 21 23  2  0  0  0  0
 21 41  1  0  0  0  0
 22 52  1  0  0  0  0
 23 42  1  0  0  0  0
 24 62  1  0  0  0  0
 25 31  2  0  0  0  0
 25 63  1  0  0  0  0
 26 84  1  0  0  0  0
 27 85  1  0  0  0  0
 28 30  2  0  0  0  0
 28 84  1  0  0  0  0
 29 86  1  0  0  0  0
 30 87  1  0  0  0  0
 31 88  1  0  0  0  0
 32 67  2  0  0  0  0
 33 68  1  0  0  0  0
 33 72  1  0  0  0  0
 34 53  1  0  0  0  0
 34 69  1  0  0  0  0
 34 78  2  0  0  0  0
 35 73  1  0  0  0  0
 35 79  2  0  0  0  0
 36 54  1  0  0  0  0
 36 74  1  0  0  0  0
 36 80  2  0  0  0  0
 37 64  1  0  0  0  0
 37 70  1  0  0  0  0
 37 81  2  0  0  0  0
 38 65  1  0  0  0  0
 38 75  1  0  0  0  0
 38 82  2  0  0  0  0
 39 71  1  0  0  0  0
 39 76  1  0  0  0  0
 39 83  2  0  0  0  0
 40 43  1  0  0  0  0
 41 54  1  0  0  0  0
 42 70  1  0  0  0  0
 43 46  1  0  0  0  0
 44 47  1  0  0  0  0
 44 49  1  0  0  0  0
 45 48  1  0  0  0  0
 45 50  1  0  0  0  0
 46 52  1  0  0  0  0
 47 53  1  0  0  0  0
 48 55  1  0  0  0  0
 49 69  1  0  0  0  0
 50 71  1  0  0  0  0
 51 55  1  0  0  0  0
 51 71  1  0  0  0  0
 52 74  1  0  0  0  0
 53 85  1  0  0  0  0
 54 70  1  0  0  0  0
 55 68  1  0  0  0  0
 56 65  1  0  0  0  0
 57 66  1  0  0  0  0
 58 66  1  0  0  0  0
 59 66  1  0  0  0  0
 60 76  1  0  0  0  0
 61 77  1  0  0  0  0
 62 69  1  0  0  0  0
 63 76  1  0  0  0  0
 64 66  1  0  0  0  0
 64 75  1  0  0  0  0
 65 77  1  0  0  0  0
 67 68  1  0  0  0  0
M  CHG  1  77   1
M  ISO  4  39 100  53 101  76 100  85 101
M  END
> <Batch ID>
0031

> <Smiles>
CNC(C)C(=O)NC(C(=O)N1Cc2cc([101O:1][101CH:1]3CCCN(Cc4ccc(C[100N:0](C)[100C:0](=O)N5CCCC(n6nc(-c7ccc(Oc8ccc(F)cc8F)cc7)c(C(N)=O)c6N)C5)c(Cl)c4)C3=O)ccc2CC1C(=O)NC1CCCc2ccccc21)C(C)(C)C

> <Shape>
0.254

> <Color>
0.178

> <Negative vol penalty>
0.000

$$$$

  -OEChem-04042321393D

 84 93  0     1  0  0  0  0  0999 V2000
  -26.7712  -32.1067   27.5852 C   0  0  0  0  0  0  0  0  0  0  0  0
  -27.3677  -31.2601   26.6563 C   0  0  0  0  0  0  0  0  0  0  0  0
  -23.1761   -9.8585   19.9518 C   0  0  0  0  0  0  0  0  0  0  0  0
  -23.8658   -9.9242   22.2663 C   0  0  0  0  0  0  0  0  0  0  0  0
  -26.2008  -31.5786   28.7426 C   0  0  0  0  0  0  0  0  0  0  0  0
  -27.3950  -29.8848   26.8848 C   0  0  0  0  0  0  0  0  0  0  0  0
  -27.1872  -23.6385   23.3838 C   0  0  0  0  0  0  0  0  0  0  0  0
  -22.4497   -8.6941   20.2013 C   0  0  0  0  0  0  0  0  0  0  0  0
  -23.1394   -8.7599   22.5158 C   0  0  0  0  0  0  0  0  0  0  0  0
  -27.8905  -22.4394   23.2776 C   0  0  0  0  0  0  0  0  0  0  0  0
  -20.1206   -5.9051   20.3105 C   0  0  0  0  0  0  0  0  0  0  0  0
  -18.8317   -5.8196   19.7843 C   0  0  0  0  0  0  0  0  0  0  0  0
  -29.7449  -16.3667   23.0094 C   0  0  0  0  0  0  0  0  0  0  0  0
  -26.8036  -21.6320   25.2741 C   0  0  0  0  0  0  0  0  0  0  0  0
  -31.3015  -18.6773   23.1549 C   0  0  0  0  0  0  0  0  0  0  0  0
  -18.1855   -7.7737   21.0498 C   0  0  0  0  0  0  0  0  0  0  0  0
  -23.8842  -10.4735   20.9842 C   0  0  0  0  0  0  0  0  0  0  0  0
  -24.1757  -13.0029   20.8264 C   0  0  0  0  0  0  0  0  0  0  0  0
  -26.2126  -30.1952   28.9808 C   0  0  0  0  0  0  0  0  0  0  0  0
  -26.2934  -23.8479   24.4439 C   0  0  0  0  0  0  0  0  0  0  0  0
  -26.8254  -29.3377   28.0471 C   0  0  0  0  0  0  0  0  0  0  0  0
  -31.1325  -16.2676   23.1109 C   0  0  0  0  0  0  0  0  0  0  0  0
  -26.0882  -22.8337   25.3901 C   0  0  0  0  0  0  0  0  0  0  0  0
  -29.1356  -17.6212   22.9806 C   0  0  0  0  0  0  0  0  0  0  0  0
  -31.9108  -17.4228   23.1836 C   0  0  0  0  0  0  0  0  0  0  0  0
  -29.9139  -18.7764   23.0534 C   0  0  0  0  0  0  0  0  0  0  0  0
  -22.4313   -8.1449   21.4833 C   0  0  0  0  0  0  0  0  0  0  0  0
  -27.7009  -21.4370   24.2245 C   0  0  0  0  0  0  0  0  0  0  0  0
  -20.4421   -6.9249   21.2063 C   0  0  0  0  0  0  0  0  0  0  0  0
  -17.8641   -6.7539   20.1540 C   0  0  0  0  0  0  0  0  0  0  0  0
  -19.4745   -7.8591   21.5760 C   0  0  0  0  0  0  0  0  0  0  0  0
  -24.6353  -11.6760   20.7270 C   0  0  0  0  0  0  0  0  0  0  0  0
  -25.2622  -13.7692   20.4817 C   0  0  0  0  0  0  0  0  0  0  0  0
  -22.8824  -13.4984   21.1973 C   0  0  0  0  0  0  0  0  0  0  0  0
  -26.1156  -25.9138   26.8531 C   0  0  0  0  0  0  0  0  0  0  0  0
  -23.2526  -24.4764   27.3622 C   0  0  0  0  0  0  0  0  0  0  0  0
  -21.2850  -21.7165   26.9644 C   0  0  0  0  0  0  0  0  0  0  0  0
  -30.9637  -13.9166   20.9873 C   0  0  0  0  0  0  0  0  0  0  0  0
  -25.6251  -29.6753   30.2689 C   0  0  0  0  0  0  0  0  0  0  0  0
  -25.5224  -25.1366   24.5293 C   0  0  0  0  0  0  0  0  0  0  0  0
  -25.1249  -23.0010   26.5358 C   0  0  0  0  0  0  0  0  0  0  0  0
  -25.3647  -28.1712   30.2563 C   0  0  0  0  0  0  0  0  0  0  0  0
  -31.7788  -12.8245   24.3478 C   0  0  0  0  0  0  0  0  0  0  0  0
  -29.4391  -12.9997   17.9767 C   0  0  0  0  0  0  0  0  0  0  0  0
  -31.8743  -14.3297   24.5628 C   0  0  0  0  0  0  0  0  0  0  0  0
  -26.5720  -27.4251   29.6974 C   0  0  0  0  0  0  0  0  0  0  0  0
  -28.0012  -12.6723   18.3743 C   0  0  0  0  0  0  0  0  0  0  0  0
  -30.4202  -12.5036   19.0314 C   0  0  0  0  0  0  0  0  0  0  0  0
  -30.7648  -12.7084   23.2203 C   0  0  0  0  0  0  0  0  0  0  0  0
  -28.7198  -12.7433   20.8159 C   0  0  0  0  0  0  0  0  0  0  0  0
  -31.7703  -14.8971   23.1410 C   0  0  1  0  0  0  0  0  0  0  0  0
  -26.8530  -27.8380   28.2475 C   0  0  1  0  0  0  0  0  0  0  0  0
  -25.0218  -25.4412   25.9378 C   0  0  1  0  0  0  0  0  0  0  0  0
  -27.6845  -13.2190   19.7762 C   0  0  2  0  0  0  0  0  0  0  0  0
  -27.6484  -17.7026   22.8707 C   0  0  0  0  0  0  0  0  0  0  0  0
  -33.3980  -17.3413   23.2933 C   0  0  0  0  0  0  0  0  0  0  0  0
  -19.0063  -20.8249   27.5213 C   0  0  0  0  0  0  0  0  0  0  0  0
  -24.1462  -23.9969   30.2399 C   0  0  0  0  0  0  0  0  0  0  0  0
  -22.3006  -22.3195   30.4599 C   0  0  0  0  0  0  0  0  0  0  0  0
  -21.7618  -24.7099   29.9930 C   0  0  0  0  0  0  0  0  0  0  0  0
  -20.5745  -21.4219   24.1066 C   0  0  0  0  0  0  0  0  0  0  0  0
  -29.2839  -20.1302   23.0236 C   0  0  0  0  0  0  0  0  0  1  0  0
  -22.7803  -23.2893   28.1664 C   0  0  1  0  0  0  0  0  0  0  0  0
  -19.8503  -21.5616   26.4930 C   0  0  2  0  0  0  0  0  0  0  0  0
  -22.7669  -23.5762   29.6944 C   0  0  0  0  0  0  0  0  0  0  0  0
  -25.9140  -11.6001   20.3486 N   0  0  0  0  0  0  0  0  0  0  0  0
  -26.2672  -12.8890   20.2072 N   0  0  0  0  0  0  0  0  0  0  0  0
  -24.3994  -24.2814   26.5795 N   0  0  0  0  0  0  0  0  0  0  0  0
  -30.0877  -13.0227   20.3586 N   0  0  0  0  0  0  0  0  0  0  0  0
  -31.0215  -13.8822   22.3836 N   0  0  0  0  0  0  0  0  0  0  0  0
  -25.4463  -15.1034   20.3897 N   0  0  0  0  0  0  0  0  0  0  0  0
  -21.8803  -12.5737   21.5214 N   0  0  0  0  0  0  0  0  0  0  0  0
  -25.9231  -27.1895   27.3480 N   0  0  0  0  0  0  0  0  0  0  0  0
  -21.4815  -22.9150   27.6173 N   0  0  0  0  0  0  0  0  0  0  0  0
  -19.8050  -20.7983   25.2138 N   0  3  0  0  0  0  0  0  0  0  0  0
  -22.6184  -14.7244   21.2240 O   0  0  0  0  0  0  0  0  0  0  0  0
  -27.0634  -25.1752   27.0937 O   0  0  0  0  0  0  0  0  0  0  0  0
  -22.6229  -25.5355   27.4205 O   0  0  0  0  0  0  0  0  0  0  0  0
  -22.1444  -20.8583   26.7759 O   0  0  0  0  0  0  0  0  0  0  0  0
  -31.6750  -14.6915   20.3350 O   0  0  0  0  0  0  0  0  0  0  0  0
  -21.7224   -7.0089   21.7272 O   0  0  0  0  0  0  0  0  0  0  0  0
  -28.3915  -20.2576   24.1228 O   0  0  0  0  0  0  0  0  0  1  0  0
  -16.6268   -6.6726   19.6475 F   0  0  0  0  0  0  0  0  0  0  0  0
  -19.7777   -8.8417   22.4353 F   0  0  0  0  0  0  0  0  0  0  0  0
  1  2  1  0  0  0  0
  1  5  2  0  0  0  0
  2  6  2  0  0  0  0
  3  8  2  0  0  0  0
  3 17  1  0  0  0  0
  4  9  1  0  0  0  0
  4 17  2  0  0  0  0
  5 19  1  0  0  0  0
  6 21  1  0  0  0  0
  7 10  2  0  0  0  0
  7 20  1  0  0  0  0
  8 27  1  0  0  0  0
  9 27  2  0  0  0  0
 10 28  1  0  0  0  0
 11 12  2  0  0  0  0
 11 29  1  0  0  0  0
 12 30  1  0  0  0  0
 13 22  2  0  0  0  0
 13 24  1  0  0  0  0
 14 23  1  0  0  0  0
 14 28  2  0  0  0  0
 15 25  2  0  0  0  0
 15 26  1  0  0  0  0
 16 30  2  0  0  0  0
 16 31  1  0  0  0  0
 17 32  1  0  0  0  0
 18 32  1  0  0  0  0
 18 33  2  0  0  0  0
 18 34  1  0  0  0  0
 19 21  2  0  0  0  0
 19 39  1  0  0  0  0
 20 23  2  0  0  0  0
 20 40  1  0  0  0  0
 21 52  1  0  0  0  0
 22 25  1  0  0  0  0
 22 51  1  0  0  0  0
 23 41  1  0  0  0  0
 24 26  2  0  0  0  0
 24 55  1  0  0  0  0
 25 56  1  0  0  0  0
 26 62  1  0  0  0  0
 27 81  1  0  0  0  0
 28 82  1  0  0  0  0
 29 31  2  0  0  0  0
 29 81  1  0  0  0  0
 30 83  1  0  0  0  0
 31 84  1  0  0  0  0
 32 66  2  0  0  0  0
 33 67  1  0  0  0  0
 33 71  1  0  0  0  0
 34 72  1  0  0  0  0
 34 76  2  0  0  0  0
 35 53  1  0  0  0  0
 35 73  1  0  0  0  0
 35 77  2  0  0  0  0
 36 63  1  0  0  0  0
 36 68  1  0  0  0  0
 36 78  2  0  0  0  0
 37 64  1  0  0  0  0
 37 74  1  0  0  0  0
 37 79  2  0  0  0  0
 38 69  1  0  0  0  0
 38 70  1  0  0  0  0
 38 80  2  0  0  0  0
 39 42  1  0  0  0  0
 40 53  1  0  0  0  0
 41 68  1  0  0  0  0
 42 46  1  0  0  0  0
 43 45  1  0  0  0  0
 43 49  1  0  0  0  0
 44 47  1  0  0  0  0
 44 48  1  0  0  0  0
 45 51  1  0  0  0  0
 46 52  1  0  0  0  0
 47 54  1  0  0  0  0
 48 69  1  0  0  0  0
 49 70  1  0  0  0  0
 50 54  1  0  0  0  0
 50 69  1  0  0  0  0
 51 70  1  0  0  0  0
 52 73  1  0  0  0  0
 53 68  1  0  0  0  0
 54 67  1  0  0  0  0
 57 64  1  0  0  0  0
 58 65  1  0  0  0  0
 59 65  1  0  0  0  0
 60 65  1  0  0  0  0
 61 75  1  0  0  0  0
 62 82  1  0  0  0  0
 63 65  1  0  0  0  0
 63 74  1  0  0  0  0
 64 75  1  0  0  0  0
 66 67  1  0  0  0  0
M  CHG  1  75   1
M  ISO  4  38 100  62 101  70 100  82 101
M  END
> <Batch ID>
0031

> <Smiles>
CNC(C)C(=O)NC(C(=O)N1Cc2cc([101O:1][101CH2:1]c3cc(C)c(C4CCC[100N:0]4[100C:0](=O)N4CCCC(n5nc(-c6ccc(Oc7ccc(F)cc7F)cc6)c(C(N)=O)c5N)C4)cc3C)ccc2CC1C(=O)NC1CCCc2ccccc21)C(C)(C)C

> <Shape>
0.160

> <Color>
0.202

> <Negative vol penalty>
0.000

$$$$

  -OEChem-04042321393D

 85 94  0     1  0  0  0  0  0999 V2000
  -17.1286  -31.0509   23.7355 C   0  0  0  0  0  0  0  0  0  0  0  0
  -18.3984  -31.5906   23.9133 C   0  0  0  0  0  0  0  0  0  0  0  0
  -24.4677  -14.0340   20.1814 C   0  0  0  0  0  0  0  0  0  0  0  0
  -26.4318  -14.0460   21.5882 C   0  0  0  0  0  0  0  0  0  0  0  0
  -16.9843  -29.7004   23.4205 C   0  0  0  0  0  0  0  0  0  0  0  0
  -19.5247  -30.7798   23.7774 C   0  0  0  0  0  0  0  0  0  0  0  0
  -26.3514  -31.0231   21.6201 C   0  0  0  0  0  0  0  0  0  0  0  0
  -30.4127  -25.0057   22.7236 C   0  0  0  0  0  0  0  0  0  0  0  0
  -29.7676  -24.1434   21.8372 C   0  0  0  0  0  0  0  0  0  0  0  0
  -24.5422  -12.6442   20.0891 C   0  0  0  0  0  0  0  0  0  0  0  0
  -26.5064  -12.6561   21.4960 C   0  0  0  0  0  0  0  0  0  0  0  0
  -27.6333  -30.7017   22.0641 C   0  0  0  0  0  0  0  0  0  0  0  0
  -23.7395   -9.9741   22.0020 C   0  0  0  0  0  0  0  0  0  0  0  0
  -22.5581   -9.2497   22.1603 C   0  0  0  0  0  0  0  0  0  0  0  0
  -27.2661  -28.4007   21.4400 C   0  0  0  0  0  0  0  0  0  0  0  0
  -28.3347  -23.3774   23.6253 C   0  0  0  0  0  0  0  0  0  0  0  0
  -22.8204   -8.3364   19.9390 C   0  0  0  0  0  0  0  0  0  0  0  0
  -25.4125  -14.7349   20.9310 C   0  0  0  0  0  0  0  0  0  0  0  0
  -24.6406  -16.9228   21.9916 C   0  0  0  0  0  0  0  0  0  0  0  0
  -18.1097  -28.8748   23.2712 C   0  0  0  0  0  0  0  0  0  0  0  0
  -25.5117  -30.0319   21.0920 C   0  0  0  0  0  0  0  0  0  0  0  0
  -19.3953  -29.4167   23.4615 C   0  0  0  0  0  0  0  0  0  0  0  0
  -25.9748  -28.7125   20.9877 C   0  0  0  0  0  0  0  0  0  0  0  0
  -30.0189  -25.0539   24.0609 C   0  0  0  0  0  0  0  0  0  0  0  0
  -28.9799  -24.2397   24.5117 C   0  0  0  0  0  0  0  0  0  0  0  0
  -28.7286  -23.3292   22.2880 C   0  0  0  0  0  0  0  0  0  0  0  0
  -25.5615  -11.9553   20.7464 C   0  0  0  0  0  0  0  0  0  0  0  0
  -28.0898  -29.3898   21.9768 C   0  0  0  0  0  0  0  0  0  0  0  0
  -24.4613   -9.8798   20.8121 C   0  0  0  0  0  0  0  0  0  0  0  0
  -22.0986   -8.4308   21.1288 C   0  0  0  0  0  0  0  0  0  0  0  0
  -24.0018   -9.0610   19.7806 C   0  0  0  0  0  0  0  0  0  0  0  0
  -25.3364  -16.1706   21.0262 C   0  0  0  0  0  0  0  0  0  0  0  0
  -24.8809  -18.2304   21.6465 C   0  0  0  0  0  0  0  0  0  0  0  0
  -31.6894  -28.1858   24.2156 C   0  0  0  0  0  0  0  0  0  0  0  0
  -23.8482  -16.4793   23.1010 C   0  0  0  0  0  0  0  0  0  0  0  0
  -22.6931  -28.8107   21.9091 C   0  0  0  0  0  0  0  0  0  0  0  0
  -23.0018  -27.2261   19.0956 C   0  0  0  0  0  0  0  0  0  0  0  0
  -25.0689  -26.0008   16.6722 C   0  0  0  0  0  0  0  0  0  0  0  0
  -28.3372  -22.2851   20.0290 C   0  0  0  0  0  0  0  0  0  0  0  0
  -17.9018  -27.4103   22.9767 C   0  0  0  0  0  0  0  0  0  0  0  0
  -24.1414  -30.3999   20.5928 C   0  0  0  0  0  0  0  0  0  0  0  0
  -25.1200  -27.6154   20.4098 C   0  0  0  0  0  0  0  0  0  0  0  0
  -31.1302  -29.5659   23.9563 C   0  0  0  0  0  0  0  0  0  0  0  0
  -19.1612  -26.7038   22.4817 C   0  0  0  0  0  0  0  0  0  0  0  0
  -26.9696  -20.2076   17.4813 C   0  0  0  0  0  0  0  0  0  0  0  0
  -20.3569  -27.0694   23.3554 C   0  0  0  0  0  0  0  0  0  0  0  0
  -26.3656  -19.0340   18.2558 C   0  0  0  0  0  0  0  0  0  0  0  0
  -28.2688  -20.6985   18.1177 C   0  0  0  0  0  0  0  0  0  0  0  0
  -27.5727  -19.8468   20.3221 C   0  0  0  0  0  0  0  0  0  0  0  0
  -29.3542  -28.0650   24.5842 C   0  0  0  0  0  0  0  0  0  0  0  0
  -20.6422  -28.5750   23.2980 C   0  0  1  0  0  0  0  0  0  0  0  0
  -23.1835  -29.2134   20.5472 C   0  0  1  0  0  0  0  0  0  0  0  0
  -26.2288  -19.3597   19.7561 C   0  0  2  0  0  0  0  0  0  0  0  0
  -29.6337  -29.3220   23.7811 C   0  0  2  0  0  0  0  0  0  1  0  0
  -28.5399  -24.2759   25.9385 C   0  0  0  0  0  0  0  0  0  0  0  0
  -25.0324  -24.7193   14.5149 C   0  0  0  0  0  0  0  0  0  0  0  0
  -22.5184  -24.6408   20.6423 C   0  0  0  0  0  0  0  0  0  0  0  0
  -23.4207  -23.3785   18.6774 C   0  0  0  0  0  0  0  0  0  0  0  0
  -21.3613  -24.7640   18.4286 C   0  0  0  0  0  0  0  0  0  0  0  0
  -26.2735  -28.2542   15.1789 C   0  0  0  0  0  0  0  0  0  0  0  0
  -30.7289  -25.9895   24.9962 C   0  0  0  0  0  0  0  0  0  0  0  0
  -23.6029  -25.9079   18.6714 C   0  0  1  0  0  0  0  0  0  0  0  0
  -25.0142  -26.0972   15.1582 C   0  0  2  0  0  0  0  0  0  0  0  0
  -22.7415  -24.6929   19.1176 C   0  0  0  0  0  0  0  0  0  0  0  0
  -25.9709  -16.9366   20.1347 N   0  0  0  0  0  0  0  0  0  0  0  0
  -25.6747  -18.1837   20.5385 N   0  0  0  0  0  0  0  0  0  0  0  0
  -30.6209  -27.3678   24.5687 N   0  0  0  0  0  0  0  0  0  0  0  0
  -23.7855  -28.0240   19.9412 N   0  0  0  0  0  0  0  0  0  0  0  0
  -28.0618  -20.9914   19.5376 N   0  0  0  0  0  0  0  0  0  0  0  0
  -24.4883  -19.4040   22.1859 N   0  0  0  0  0  0  0  0  0  0  0  0
  -23.7051  -15.1010   23.3112 N   0  0  0  0  0  0  0  0  0  0  0  0
  -28.0716  -22.4544   21.3875 N   0  0  0  0  0  0  0  0  0  0  0  0
  -21.3242  -28.9135   22.0673 N   0  0  0  0  0  0  0  0  0  0  0  0
  -23.8078  -25.9977   17.2297 N   0  0  0  0  0  0  0  0  0  0  0  0
  -26.1805  -26.8705   14.6460 N   0  3  0  0  0  0  0  0  0  0  0  0
  -32.8757  -27.8969   24.1590 O   0  0  0  0  0  0  0  0  0  0  0  0
  -23.2702  -17.2813   23.8732 O   0  0  0  0  0  0  0  0  0  0  0  0
  -23.4970  -28.4331   22.7535 O   0  0  0  0  0  0  0  0  0  0  0  0
  -21.8814  -27.5396   18.6858 O   0  0  0  0  0  0  0  0  0  0  0  0
  -26.1247  -25.9311   17.2975 O   0  0  0  0  0  0  0  0  0  0  0  0
  -28.7505  -23.1846   19.2928 O   0  0  0  0  0  0  0  0  0  0  0  0
  -25.6344  -10.5991   20.6567 O   0  0  0  0  0  0  0  0  0  0  0  0
  -29.3404  -29.0733   22.4100 O   0  0  0  0  0  0  0  0  0  1  0  0
  -20.9649   -7.7339   21.2816 F   0  0  0  0  0  0  0  0  0  0  0  0
  -24.6916   -8.9654   18.6357 F   0  0  0  0  0  0  0  0  0  0  0  0
  1  2  1  0  0  0  0
  1  5  2  0  0  0  0
  2  6  2  0  0  0  0
  3 10  2  0  0  0  0
  3 18  1  0  0  0  0
  4 11  1  0  0  0  0
  4 18  2  0  0  0  0
  5 20  1  0  0  0  0
  6 22  1  0  0  0  0
  7 12  2  0  0  0  0
  7 21  1  0  0  0  0
  8  9  2  0  0  0  0
  8 24  1  0  0  0  0
  9 26  1  0  0  0  0
 10 27  1  0  0  0  0
 11 27  2  0  0  0  0
 12 28  1  0  0  0  0
 13 14  2  0  0  0  0
 13 29  1  0  0  0  0
 14 30  1  0  0  0  0
 15 23  1  0  0  0  0
 15 28  2  0  0  0  0
 16 25  1  0  0  0  0
 16 26  2  0  0  0  0
 17 30  2  0  0  0  0
 17 31  1  0  0  0  0
 18 32  1  0  0  0  0
 19 32  1  0  0  0  0
 19 33  2  0  0  0  0
 19 35  1  0  0  0  0
 20 22  2  0  0  0  0
 20 40  1  0  0  0  0
 21 23  2  0  0  0  0
 21 41  1  0  0  0  0
 22 51  1  0  0  0  0
 23 42  1  0  0  0  0
 24 25  2  0  0  0  0
 24 61  1  0  0  0  0
 25 55  1  0  0  0  0
 26 72  1  0  0  0  0
 27 82  1  0  0  0  0
 28 83  1  0  0  0  0
 29 31  2  0  0  0  0
 29 82  1  0  0  0  0
 30 84  1  0  0  0  0
 31 85  1  0  0  0  0
 32 65  2  0  0  0  0
 33 66  1  0  0  0  0
 33 70  1  0  0  0  0
 34 43  1  0  0  0  0
 34 67  1  0  0  0  0
 34 76  2  0  0  0  0
 35 71  1  0  0  0  0
 35 77  2  0  0  0  0
 36 52  1  0  0  0  0
 36 73  1  0  0  0  0
 36 78  2  0  0  0  0
 37 62  1  0  0  0  0
 37 68  1  0  0  0  0
 37 79  2  0  0  0  0
 38 63  1  0  0  0  0
 38 74  1  0  0  0  0
 38 80  2  0  0  0  0
 39 69  1  0  0  0  0
 39 72  1  0  0  0  0
 39 81  2  0  0  0  0
 40 44  1  0  0  0  0
 41 52  1  0  0  0  0
 42 68  1  0  0  0  0
 43 54  1  0  0  0  0
 44 46  1  0  0  0  0
 45 47  1  0  0  0  0
 45 48  1  0  0  0  0
 46 51  1  0  0  0  0
 47 53  1  0  0  0  0
 48 69  1  0  0  0  0
 49 53  1  0  0  0  0
 49 69  1  0  0  0  0
 50 54  1  0  0  0  0
 50 67  1  0  0  0  0
 51 73  1  0  0  0  0
 52 68  1  0  0  0  0
 53 66  1  0  0  0  0
 54 83  1  0  0  0  0
 56 63  1  0  0  0  0
 57 64  1  0  0  0  0
 58 64  1  0  0  0  0
 59 64  1  0  0  0  0
 60 75  1  0  0  0  0
 61 67  1  0  0  0  0
 62 64  1  0  0  0  0
 62 74  1  0  0  0  0
 63 75  1  0  0  0  0
 65 66  1  0  0  0  0
M  CHG  1  75   1
M  ISO  4  39 100  54 101  72 100  83 101
M  END
> <Batch ID>
0031

> <Smiles>
CNC(C)C(=O)NC(C(=O)N1Cc2cc([101O:1][101CH:1]3CC(=O)N(Cc4ccc([100NH:0][100C:0](=O)N5CCCC(n6nc(-c7ccc(Oc8ccc(F)cc8F)cc7)c(C(N)=O)c6N)C5)cc4C)C3)ccc2CC1C(=O)NC1CCCc2ccccc21)C(C)(C)C

> <Shape>
0.230

> <Color>
0.105

> <Negative vol penalty>
0.000

$$$$

  -OEChem-04042321393D

 87 96  0     1  0  0  0  0  0999 V2000
  -24.8870  -32.7269   19.7804 C   0  0  0  0  0  0  0  0  0  0  0  0
  -24.7652  -31.3782   20.0989 C   0  0  0  0  0  0  0  0  0  0  0  0
  -23.0725   -9.8739   19.9356 C   0  0  0  0  0  0  0  0  0  0  0  0
  -23.8368   -9.8684   22.2275 C   0  0  0  0  0  0  0  0  0  0  0  0
  -25.3545  -33.1056   18.5227 C   0  0  0  0  0  0  0  0  0  0  0  0
  -25.1099  -30.4072   19.1592 C   0  0  0  0  0  0  0  0  0  0  0  0
  -27.8667  -26.6599   21.1598 C   0  0  0  0  0  0  0  0  0  0  0  0
  -22.3278   -8.7203   20.1812 C   0  0  0  0  0  0  0  0  0  0  0  0
  -23.0921   -8.7149   22.4732 C   0  0  0  0  0  0  0  0  0  0  0  0
  -27.1861  -25.6930   21.8985 C   0  0  0  0  0  0  0  0  0  0  0  0
  -19.8641   -7.9178   23.0779 C   0  0  0  0  0  0  0  0  0  0  0  0
  -19.1094   -7.8728   24.2501 C   0  0  0  0  0  0  0  0  0  0  0  0
  -27.2334  -24.2132   19.9940 C   0  0  0  0  0  0  0  0  0  0  0  0
  -29.5303  -17.8730   22.3921 C   0  0  0  0  0  0  0  0  0  0  0  0
  -31.1566  -17.6911   20.6147 C   0  0  0  0  0  0  0  0  0  0  0  0
  -20.3500   -5.9303   24.9744 C   0  0  0  0  0  0  0  0  0  0  0  0
  -23.8271  -10.4479   20.9587 C   0  0  0  0  0  0  0  0  0  0  0  0
  -24.1716  -12.9732   20.8507 C   0  0  0  0  0  0  0  0  0  0  0  0
  -25.7143  -32.1388   17.5705 C   0  0  0  0  0  0  0  0  0  0  0  0
  -28.2268  -26.4143   19.8269 C   0  0  0  0  0  0  0  0  0  0  0  0
  -25.5814  -30.7733   17.8871 C   0  0  0  0  0  0  0  0  0  0  0  0
  -27.9208  -25.1776   19.2413 C   0  0  0  0  0  0  0  0  0  0  0  0
  -29.6992  -19.2575   22.4050 C   0  0  0  0  0  0  0  0  0  0  0  0
  -30.2591  -17.0897   21.4970 C   0  0  0  0  0  0  0  0  0  0  0  0
  -22.3375   -8.1409   21.4500 C   0  0  0  0  0  0  0  0  0  0  0  0
  -26.8667  -24.4706   21.3147 C   0  0  0  0  0  0  0  0  0  0  0  0
  -20.8618   -6.9689   22.8539 C   0  0  0  0  0  0  0  0  0  0  0  0
  -19.3524   -6.8791   25.1983 C   0  0  0  0  0  0  0  0  0  0  0  0
  -31.3255  -19.0756   20.6275 C   0  0  0  0  0  0  0  0  0  0  0  0
  -21.1047   -5.9752   23.8022 C   0  0  0  0  0  0  0  0  0  0  0  0
  -30.5967  -19.8588   21.5226 C   0  0  0  0  0  0  0  0  0  0  0  0
  -24.5970  -11.6392   20.7055 C   0  0  0  0  0  0  0  0  0  0  0  0
  -25.2639  -13.7233   20.4891 C   0  0  0  0  0  0  0  0  0  0  0  0
  -26.6702  -20.6854   24.0836 C   0  0  0  0  0  0  0  0  0  0  0  0
  -26.3168  -19.8180   25.0386 C   0  0  0  0  0  0  0  0  0  0  0  0
  -22.9025  -13.4884   21.2747 C   0  0  0  0  0  0  0  0  0  0  0  0
  -27.5071  -27.7389   17.0285 C   0  0  0  0  0  0  0  0  0  0  0  0
  -29.7433  -25.6697   15.9150 C   0  0  0  0  0  0  0  0  0  0  0  0
  -31.4632  -22.7539   16.3473 C   0  0  0  0  0  0  0  0  0  0  0  0
  -30.7316  -14.7617   20.6584 C   0  0  0  0  0  0  0  0  0  0  0  0
  -26.1699  -32.5965   16.2076 C   0  0  0  0  0  0  0  0  0  0  0  0
  -28.9843  -27.4575   19.0520 C   0  0  0  0  0  0  0  0  0  0  0  0
  -28.3029  -24.8569   17.8202 C   0  0  0  0  0  0  0  0  0  0  0  0
  -26.2203  -22.1088   23.9872 C   0  0  0  0  0  0  0  0  0  0  0  0
  -26.8687  -31.5052   15.4007 C   0  0  0  0  0  0  0  0  0  0  0  0
  -29.6098  -12.3611   18.2802 C   0  0  0  0  0  0  0  0  0  0  0  0
  -26.0746  -30.2043   15.4625 C   0  0  0  0  0  0  0  0  0  0  0  0
  -28.1707  -12.0690   18.7111 C   0  0  0  0  0  0  0  0  0  0  0  0
  -30.5275  -12.5828   19.4812 C   0  0  0  0  0  0  0  0  0  0  0  0
  -28.6241  -13.3025   20.8698 C   0  0  0  0  0  0  0  0  0  0  0  0
  -27.2529  -21.3483   21.9452 C   0  0  0  0  0  0  0  0  0  0  0  0
  -25.9687  -29.6905   16.9034 C   0  0  1  0  0  0  0  0  0  0  0  0
  -28.8481  -27.2956   17.5412 C   0  0  1  0  0  0  0  0  0  0  0  0
  -27.6488  -13.1363   19.6930 C   0  0  2  0  0  0  0  0  0  0  0  0
  -26.9871  -22.6024   22.7669 C   0  0  1  0  0  0  0  0  0  1  0  0
  -26.7891  -18.4046   25.0978 C   0  0  0  0  0  0  0  0  0  0  0  0
  -33.1972  -21.3086   15.2513 C   0  0  0  0  0  0  0  0  0  0  0  0
  -27.6568  -24.6846   13.9185 C   0  0  0  0  0  0  0  0  0  0  0  0
  -29.0855  -22.6662   13.5273 C   0  0  0  0  0  0  0  0  0  0  0  0
  -29.9611  -24.9369   12.9800 C   0  0  0  0  0  0  0  0  0  0  0  0
  -33.3153  -23.0380   18.6382 C   0  0  0  0  0  0  0  0  0  0  0  0
  -28.9150  -20.0973   23.3697 C   0  0  0  0  0  0  0  0  0  0  0  0
  -29.7249  -24.2501   15.4017 C   0  0  1  0  0  0  0  0  0  0  0  0
  -32.9432  -22.4325   16.2437 C   0  0  2  0  0  0  0  0  0  0  0  0
  -29.0980  -24.1409   13.9831 C   0  0  0  0  0  0  0  0  0  0  0  0
  -25.8610  -11.5440   20.2843 N   0  0  0  0  0  0  0  0  0  0  0  0
  -26.2391  -12.8278   20.1617 N   0  0  0  0  0  0  0  0  0  0  0  0
  -29.0370  -25.9116   17.1017 N   0  0  0  0  0  0  0  0  0  0  0  0
  -29.9715  -13.6099   20.3649 N   0  0  0  0  0  0  0  0  0  0  0  0
  -25.4757  -15.0548   20.4224 N   0  0  0  0  0  0  0  0  0  0  0  0
  -21.8902  -12.5787   21.6094 N   0  0  0  0  0  0  0  0  0  0  0  0
  -30.0869  -15.6834   21.4827 N   0  0  0  0  0  0  0  0  0  0  0  0
  -27.2066  -29.0586   17.3070 N   0  0  0  0  0  0  0  0  0  0  0  0
  -31.0991  -23.7676   15.4865 N   0  0  0  0  0  0  0  0  0  0  0  0
  -27.4753  -20.2594   22.9736 N   0  3  1  0  0  0  0  0  0  0  0  0
  -33.4772  -22.0168   17.5714 N   0  3  0  0  0  0  0  0  0  0  0  0
  -22.6678  -14.7190   21.3387 O   0  0  0  0  0  0  0  0  0  0  0  0
  -26.7983  -26.9431   16.4236 O   0  0  0  0  0  0  0  0  0  0  0  0
  -30.3675  -26.5307   15.2899 O   0  0  0  0  0  0  0  0  0  0  0  0
  -30.7051  -22.1621   17.1126 O   0  0  0  0  0  0  0  0  0  0  0  0
  -31.8600  -14.9315   20.1895 O   0  0  0  0  0  0  0  0  0  0  0  0
  -21.6107   -7.0154   21.6901 O   0  0  0  0  0  0  0  0  0  0  0  0
  -26.2018  -23.5254   22.0333 O   0  0  0  0  0  0  0  0  0  1  0  0
  -18.6286   -6.8370   26.3246 F   0  0  0  0  0  0  0  0  0  0  0  0
  -32.1872  -19.6531   19.7802 F   0  0  0  0  0  0  0  0  0  0  0  0
  -22.0626   -5.0617   23.5931 F   0  0  0  0  0  0  0  0  0  0  0  0
  -30.7663  -21.1883   21.5280 F   0  0  0  0  0  0  0  0  0  0  0  0
  1  2  1  0  0  0  0
  1  5  2  0  0  0  0
  2  6  2  0  0  0  0
  3  8  2  0  0  0  0
  3 17  1  0  0  0  0
  4  9  1  0  0  0  0
  4 17  2  0  0  0  0
  5 19  1  0  0  0  0
  6 21  1  0  0  0  0
  7 10  2  0  0  0  0
  7 20  1  0  0  0  0
  8 25  1  0  0  0  0
  9 25  2  0  0  0  0
 10 26  1  0  0  0  0
 11 12  2  0  0  0  0
 11 27  1  0  0  0  0
 12 28  1  0  0  0  0
 13 22  1  0  0  0  0
 13 26  2  0  0  0  0
 14 23  1  0  0  0  0
 14 24  2  0  0  0  0
 15 24  1  0  0  0  0
 15 29  2  0  0  0  0
 16 28  2  0  0  0  0
 16 30  1  0  0  0  0
 17 32  1  0  0  0  0
 18 32  1  0  0  0  0
 18 33  2  0  0  0  0
 18 36  1  0  0  0  0
 19 21  2  0  0  0  0
 19 41  1  0  0  0  0
 20 22  2  0  0  0  0
 20 42  1  0  0  0  0
 21 52  1  0  0  0  0
 22 43  1  0  0  0  0
 23 31  2  0  0  0  0
 23 62  1  0  0  0  0
 24 72  1  0  0  0  0
 25 82  1  0  0  0  0
 26 83  1  0  0  0  0
 27 30  2  0  0  0  0
 27 82  1  0  0  0  0
 28 84  1  0  0  0  0
 29 31  1  0  0  0  0
 29 85  1  0  0  0  0
 30 86  1  0  0  0  0
 31 87  1  0  0  0  0
 32 66  2  0  0  0  0
 33 67  1  0  0  0  0
 33 70  1  0  0  0  0
 34 35  2  0  0  0  0
 34 44  1  0  0  0  0
 34 75  1  0  0  0  0
 35 56  1  0  0  0  0
 36 71  1  0  0  0  0
 36 77  2  0  0  0  0
 37 53  1  0  0  0  0
 37 73  1  0  0  0  0
 37 78  2  0  0  0  0
 38 63  1  0  0  0  0
 38 68  1  0  0  0  0
 38 79  2  0  0  0  0
 39 64  1  0  0  0  0
 39 74  1  0  0  0  0
 39 80  2  0  0  0  0
 40 69  1  0  0  0  0
 40 72  1  0  0  0  0
 40 81  2  0  0  0  0
 41 45  1  0  0  0  0
 42 53  1  0  0  0  0
 43 68  1  0  0  0  0
 44 55  1  0  0  0  0
 45 47  1  0  0  0  0
 46 48  1  0  0  0  0
 46 49  1  0  0  0  0
 47 52  1  0  0  0  0
 48 54  1  0  0  0  0
 49 69  1  0  0  0  0
 50 54  1  0  0  0  0
 50 69  1  0  0  0  0
 51 55  1  0  0  0  0
 51 75  1  0  0  0  0
 52 73  1  0  0  0  0
 53 68  1  0  0  0  0
 54 67  1  0  0  0  0
 55 83  1  0  0  0  0
 57 64  1  0  0  0  0
 58 65  1  0  0  0  0
 59 65  1  0  0  0  0
 60 65  1  0  0  0  0
 61 76  1  0  0  0  0
 62 75  1  0  0  0  0
 63 65  1  0  0  0  0
 63 74  1  0  0  0  0
 64 76  1  0  0  0  0
 66 67  1  0  0  0  0
M  CHG  2  75   1  76   1
M  ISO  4  40 100  55 101  72 100  83 101
M  END
> <Batch ID>
0031

> <Smiles>
CC=C1C[101CH:1]([101O:1]c2ccc3c(c2)CN(C(=O)C(NC(=O)C(C)NC)C(C)(C)C)C(C(=O)NC2CCCc4ccccc42)C3)CN1Cc1cc([100NH:0][100C:0](=O)N2CCCC(n3nc(-c4ccc(Oc5ccc(F)cc5F)cc4)c(C(N)=O)c3N)C2)cc(F)c1F

> <Shape>
0.222

> <Color>
0.184

> <Negative vol penalty>
0.000

$$$$

  -OEChem-04042321393D

 85 93  0     1  0  0  0  0  0999 V2000
  -27.6067  -33.1869   24.7555 C   0  0  0  0  0  0  0  0  0  0  0  0
  -27.9162  -31.8593   24.4780 C   0  0  0  0  0  0  0  0  0  0  0  0
  -22.9988   -9.8916   19.9856 C   0  0  0  0  0  0  0  0  0  0  0  0
  -23.7150   -9.9571   22.2921 C   0  0  0  0  0  0  0  0  0  0  0  0
  -26.4064  -33.5037   25.3903 C   0  0  0  0  0  0  0  0  0  0  0  0
  -27.0260  -30.8475   24.8363 C   0  0  0  0  0  0  0  0  0  0  0  0
  -25.9473  -25.6446   21.7913 C   0  0  0  0  0  0  0  0  0  0  0  0
  -22.2304   -8.7594   20.2563 C   0  0  0  0  0  0  0  0  0  0  0  0
  -22.9466   -8.8248   22.5628 C   0  0  0  0  0  0  0  0  0  0  0  0
  -26.4184  -24.3434   21.9612 C   0  0  0  0  0  0  0  0  0  0  0  0
  -23.1905   -5.4827   22.1136 C   0  0  0  0  0  0  0  0  0  0  0  0
  -23.7744   -4.4701   22.8746 C   0  0  0  0  0  0  0  0  0  0  0  0
  -24.4395  -23.7988   23.2286 C   0  0  0  0  0  0  0  0  0  0  0  0
  -31.8789  -18.3485   24.1418 C   0  0  0  0  0  0  0  0  0  0  0  0
  -32.0521  -16.5429   22.5459 C   0  0  0  0  0  0  0  0  0  0  0  0
  -22.0441   -4.7250   24.5414 C   0  0  0  0  0  0  0  0  0  0  0  0
  -23.7411  -10.4904   21.0035 C   0  0  0  0  0  0  0  0  0  0  0  0
  -24.1289  -13.0046   20.8126 C   0  0  0  0  0  0  0  0  0  0  0  0
  -25.4967  -32.4961   25.7478 C   0  0  0  0  0  0  0  0  0  0  0  0
  -24.7218  -26.0363   22.3491 C   0  0  0  0  0  0  0  0  0  0  0  0
  -25.8131  -31.1510   25.4777 C   0  0  0  0  0  0  0  0  0  0  0  0
  -23.9538  -25.1048   23.0622 C   0  0  0  0  0  0  0  0  0  0  0  0
  -32.6577  -17.4372   23.4286 C   0  0  0  0  0  0  0  0  0  0  0  0
  -30.4944  -18.3655   23.9723 C   0  0  0  0  0  0  0  0  0  0  0  0
  -29.8888  -17.4712   23.0896 C   0  0  0  0  0  0  0  0  0  0  0  0
  -30.6676  -16.5599   22.3764 C   0  0  0  0  0  0  0  0  0  0  0  0
  -22.2043   -8.2260   21.5449 C   0  0  0  0  0  0  0  0  0  0  0  0
  -25.6659  -23.4211   22.6823 C   0  0  0  0  0  0  0  0  0  0  0  0
  -22.0334   -6.1167   22.5665 C   0  0  0  0  0  0  0  0  0  0  0  0
  -23.2012   -4.0912   24.0885 C   0  0  0  0  0  0  0  0  0  0  0  0
  -21.4603   -5.7378   23.7804 C   0  0  0  0  0  0  0  0  0  0  0  0
  -24.5355  -11.6597   20.7243 C   0  0  0  0  0  0  0  0  0  0  0  0
  -25.2406  -13.7240   20.4479 C   0  0  0  0  0  0  0  0  0  0  0  0
  -22.8598  -13.5543   21.1907 C   0  0  0  0  0  0  0  0  0  0  0  0
  -23.8262  -28.1904   24.5081 C   0  0  0  0  0  0  0  0  0  0  0  0
  -20.8458  -27.2608   23.6276 C   0  0  0  0  0  0  0  0  0  0  0  0
  -27.8787  -20.7851   23.7644 C   0  0  0  0  0  0  0  0  0  0  0  0
  -18.8428  -24.8475   22.2819 C   0  0  0  0  0  0  0  0  0  0  0  0
  -30.7197  -14.6829   20.6970 C   0  0  0  0  0  0  0  0  0  0  0  0
  -24.2334  -32.8834   26.4749 C   0  0  0  0  0  0  0  0  0  0  0  0
  -24.2150  -27.4361   22.1341 C   0  0  0  0  0  0  0  0  0  0  0  0
  -22.6221  -25.4695   23.6637 C   0  0  0  0  0  0  0  0  0  0  0  0
  -23.1748  -31.7836   26.4847 C   0  0  0  0  0  0  0  0  0  0  0  0
  -29.6088  -12.2157   18.3827 C   0  0  0  0  0  0  0  0  0  0  0  0
  -23.8012  -30.4429   26.8549 C   0  0  0  0  0  0  0  0  0  0  0  0
  -28.1565  -11.9618   18.7928 C   0  0  0  0  0  0  0  0  0  0  0  0
  -30.5048  -12.4664   19.5943 C   0  0  0  0  0  0  0  0  0  0  0  0
  -28.5848  -13.2652   20.9152 C   0  0  0  0  0  0  0  0  0  0  0  0
  -24.8620  -30.0274   25.8285 C   0  0  1  0  0  0  0  0  0  0  0  0
  -23.1953  -27.8700   23.1826 C   0  0  1  0  0  0  0  0  0  0  0  0
  -27.6317  -13.0717   19.7245 C   0  0  2  0  0  0  0  0  0  0  0  0
  -34.1378  -17.4179   23.6110 C   0  0  0  0  0  0  0  0  0  0  0  0
  -28.4029  -17.4931   22.9121 C   0  0  0  0  0  0  0  0  0  0  0  0
  -16.4440  -24.3621   21.7272 C   0  0  0  0  0  0  0  0  0  0  0  0
  -20.2695  -26.7475   26.5797 C   0  0  0  0  0  0  0  0  0  0  0  0
  -18.2744  -25.4040   25.8848 C   0  0  0  0  0  0  0  0  0  0  0  0
  -18.3977  -27.8317   25.3245 C   0  0  0  0  0  0  0  0  0  0  0  0
  -30.2902  -21.2254   23.2710 C   0  0  0  0  0  0  0  0  0  0  0  0
  -19.4453  -24.5685   19.3978 C   0  0  0  0  0  0  0  0  0  0  0  0
  -29.6794  -19.3552   24.7535 C   0  0  0  0  0  0  0  0  0  0  0  0
  -27.5387  -21.9693   22.8842 C   0  0  0  0  0  0  0  0  0  1  0  0
  -19.8780  -26.1974   24.0876 C   0  0  1  0  0  0  0  0  0  0  0  0
  -17.7656  -24.9125   21.2142 C   0  0  2  0  0  0  0  0  0  0  0  0
  -19.2309  -26.5385   25.4596 C   0  0  0  0  0  0  0  0  0  0  0  0
  -25.8062  -11.5298   20.3339 N   0  0  0  0  0  0  0  0  0  0  0  0
  -26.2077  -12.8022   20.1736 N   0  0  0  0  0  0  0  0  0  0  0  0
  -22.1725  -26.8521   23.4315 N   0  0  0  0  0  0  0  0  0  0  0  0
  -29.9472  -13.5332   20.4286 N   0  0  0  0  0  0  0  0  0  0  0  0
  -25.4754  -15.0489   20.3381 N   0  0  0  0  0  0  0  0  0  0  0  0
  -21.8261  -12.6731   21.5359 N   0  0  0  0  0  0  0  0  0  0  0  0
  -30.0731  -15.6436   21.4738 N   0  0  0  0  0  0  0  0  0  0  0  0
  -24.2327  -29.5051   24.6345 N   0  0  0  0  0  0  0  0  0  0  0  0
  -18.9193  -26.0208   23.0022 N   0  0  0  0  0  0  0  0  0  0  0  0
  -29.2283  -20.4687   23.9227 N   0  0  0  0  0  0  0  0  0  0  0  0
  -18.1725  -24.1204   20.0192 N   0  3  0  0  0  0  0  0  0  0  0  0
  -22.6439  -14.7899   21.2055 O   0  0  0  0  0  0  0  0  0  0  0  0
  -23.9347  -27.3105   25.3540 O   0  0  0  0  0  0  0  0  0  0  0  0
  -20.4380  -28.4101   23.4421 O   0  0  0  0  0  0  0  0  0  0  0  0
  -26.9582  -20.1629   24.3033 O   0  0  0  0  0  0  0  0  0  0  0  0
  -19.5434  -23.8539   22.4617 O   0  0  0  0  0  0  0  0  0  0  0  0
  -31.8603  -14.8181   20.2465 O   0  0  0  0  0  0  0  0  0  0  0  0
  -21.4545   -7.1213   21.8095 O   0  0  0  0  0  0  0  0  0  0  0  0
  -26.1237  -22.1506   22.8502 O   0  0  0  0  0  0  0  0  0  1  0  0
  -23.7612   -3.1176   24.8184 F   0  0  0  0  0  0  0  0  0  0  0  0
  -20.3481   -6.3423   24.2202 F   0  0  0  0  0  0  0  0  0  0  0  0
  1  2  1  0  0  0  0
  1  5  2  0  0  0  0
  2  6  2  0  0  0  0
  3  8  2  0  0  0  0
  3 17  1  0  0  0  0
  4  9  1  0  0  0  0
  4 17  2  0  0  0  0
  5 19  1  0  0  0  0
  6 21  1  0  0  0  0
  7 10  2  0  0  0  0
  7 20  1  0  0  0  0
  8 27  1  0  0  0  0
  9 27  2  0  0  0  0
 10 28  1  0  0  0  0
 11 12  2  0  0  0  0
 11 29  1  0  0  0  0
 12 30  1  0  0  0  0
 13 22  1  0  0  0  0
 13 28  2  0  0  0  0
 14 23  2  0  0  0  0
 14 24  1  0  0  0  0
 15 23  1  0  0  0  0
 15 26  2  0  0  0  0
 16 30  2  0  0  0  0
 16 31  1  0  0  0  0
 17 32  1  0  0  0  0
 18 32  1  0  0  0  0
 18 33  2  0  0  0  0
 18 34  1  0  0  0  0
 19 21  2  0  0  0  0
 19 40  1  0  0  0  0
 20 22  2  0  0  0  0
 20 41  1  0  0  0  0
 21 49  1  0  0  0  0
 22 42  1  0  0  0  0
 23 52  1  0  0  0  0
 24 25  2  0  0  0  0
 24 60  1  0  0  0  0
 25 26  1  0  0  0  0
 25 53  1  0  0  0  0
 26 71  1  0  0  0  0
 27 82  1  0  0  0  0
 28 83  1  0  0  0  0
 29 31  2  0  0  0  0
 29 82  1  0  0  0  0
 30 84  1  0  0  0  0
 31 85  1  0  0  0  0
 32 65  2  0  0  0  0
 33 66  1  0  0  0  0
 33 69  1  0  0  0  0
 34 70  1  0  0  0  0
 34 76  2  0  0  0  0
 35 50  1  0  0  0  0
 35 72  1  0  0  0  0
 35 77  2  0  0  0  0
 36 62  1  0  0  0  0
 36 67  1  0  0  0  0
 36 78  2  0  0  0  0
 37 61  1  0  0  0  0
 37 74  1  0  0  0  0
 37 79  2  0  0  0  0
 38 63  1  0  0  0  0
 38 73  1  0  0  0  0
 38 80  2  0  0  0  0
 39 68  1  0  0  0  0
 39 71  1  0  0  0  0
 39 81  2  0  0  0  0
 40 43  1  0  0  0  0
 41 50  1  0  0  0  0
 42 67  1  0  0  0  0
 43 45  1  0  0  0  0
 44 46  1  0  0  0  0
 44 47  1  0  0  0  0
 45 49  1  0  0  0  0
 46 51  1  0  0  0  0
 47 68  1  0  0  0  0
 48 51  1  0  0  0  0
 48 68  1  0  0  0  0
 49 72  1  0  0  0  0
 50 67  1  0  0  0  0
 51 66  1  0  0  0  0
 54 63  1  0  0  0  0
 55 64  1  0  0  0  0
 56 64  1  0  0  0  0
 57 64  1  0  0  0  0
 58 74  1  0  0  0  0
 59 75  1  0  0  0  0
 60 74  1  0  0  0  0
 61 83  1  0  0  0  0
 62 64  1  0  0  0  0
 62 73  1  0  0  0  0
 63 75  1  0  0  0  0
 65 66  1  0  0  0  0
M  CHG  1  75   1
M  ISO  4  39 100  61 101  71 100  83 101
M  END
> <Batch ID>
0031

> <Smiles>
CNC(C)C(=O)NC(C(=O)N1Cc2cc([101O:1][101CH2:1]C(=O)N(C)Cc3cc(C)cc([100NH:0][100C:0](=O)N4CCCC(n5nc(-c6ccc(Oc7ccc(F)cc7F)cc6)c(C(N)=O)c5N)C4)c3C)ccc2CC1C(=O)NC1CCCc2ccccc21)C(C)(C)C

> <Shape>
0.277

> <Color>
0.202

> <Negative vol penalty>
0.000

$$$$

  -OEChem-04042321393D

 82 90  0     1  0  0  0  0  0999 V2000
  -26.7325  -35.6701   22.5071 C   0  0  0  0  0  0  0  0  0  0  0  0
  -27.1656  -34.3560   22.3620 C   0  0  0  0  0  0  0  0  0  0  0  0
  -26.3186  -15.1608   21.0057 C   0  0  0  0  0  0  0  0  0  0  0  0
  -28.1255  -14.4147   19.5860 C   0  0  0  0  0  0  0  0  0  0  0  0
  -25.4860  -35.9335   23.0735 C   0  0  0  0  0  0  0  0  0  0  0  0
  -26.3529  -33.3046   22.7843 C   0  0  0  0  0  0  0  0  0  0  0  0
  -26.1460  -29.5333   19.4109 C   0  0  0  0  0  0  0  0  0  0  0  0
  -25.8257  -13.8573   21.0634 C   0  0  0  0  0  0  0  0  0  0  0  0
  -27.6326  -13.1111   19.6437 C   0  0  0  0  0  0  0  0  0  0  0  0
  -27.2340  -28.6629   19.3615 C   0  0  0  0  0  0  0  0  0  0  0  0
  -24.0202  -11.7880   19.0930 C   0  0  0  0  0  0  0  0  0  0  0  0
  -22.6472  -11.6071   18.9262 C   0  0  0  0  0  0  0  0  0  0  0  0
  -26.0030  -27.0589   20.6771 C   0  0  0  0  0  0  0  0  0  0  0  0
  -32.3844  -23.9562   19.3703 C   0  0  0  0  0  0  0  0  0  0  0  0
  -31.6588  -26.2107   19.8473 C   0  0  0  0  0  0  0  0  0  0  0  0
  -22.5119  -10.6089   21.1222 C   0  0  0  0  0  0  0  0  0  0  0  0
  -27.4685  -15.4396   20.2669 C   0  0  0  0  0  0  0  0  0  0  0  0
  -28.9089  -17.3827   21.0775 C   0  0  0  0  0  0  0  0  0  0  0  0
  -24.6535  -34.8844   23.4941 C   0  0  0  0  0  0  0  0  0  0  0  0
  -24.9804  -29.1769   20.1042 C   0  0  0  0  0  0  0  0  0  0  0  0
  -25.0946  -33.5542   23.3581 C   0  0  0  0  0  0  0  0  0  0  0  0
  -24.9006  -27.9255   20.7317 C   0  0  0  0  0  0  0  0  0  0  0  0
  -32.6419  -25.2223   19.8958 C   0  0  0  0  0  0  0  0  0  0  0  0
  -31.1438  -23.6784   18.7962 C   0  0  0  0  0  0  0  0  0  0  0  0
  -30.4182  -25.9329   19.2732 C   0  0  0  0  0  0  0  0  0  0  0  0
  -30.1607  -24.6667   18.7477 C   0  0  0  0  0  0  0  0  0  0  0  0
  -26.4827  -12.8324   20.3825 C   0  0  0  0  0  0  0  0  0  0  0  0
  -27.1637  -27.4267   19.9970 C   0  0  0  0  0  0  0  0  0  0  0  0
  -24.6390  -11.3792   20.2744 C   0  0  0  0  0  0  0  0  0  0  0  0
  -21.8931  -11.0176   19.9408 C   0  0  0  0  0  0  0  0  0  0  0  0
  -23.8849  -10.7897   21.2890 C   0  0  0  0  0  0  0  0  0  0  0  0
  -27.9779  -16.7860   20.2064 C   0  0  0  0  0  0  0  0  0  0  0  0
  -29.0596  -18.6603   20.5964 C   0  0  0  0  0  0  0  0  0  0  0  0
  -29.5779  -16.8312   22.2195 C   0  0  0  0  0  0  0  0  0  0  0  0
  -23.4088  -30.3539   22.6039 C   0  0  0  0  0  0  0  0  0  0  0  0
  -21.2359  -28.0780   21.8158 C   0  0  0  0  0  0  0  0  0  0  0  0
  -20.5889  -25.0951   20.2891 C   0  0  0  0  0  0  0  0  0  0  0  0
  -29.8854  -21.8540   15.9666 C   0  0  0  0  0  0  0  0  0  0  0  0
  -23.3345  -35.2202   24.1439 C   0  0  0  0  0  0  0  0  0  0  0  0
  -23.8056  -30.1160   20.1257 C   0  0  0  0  0  0  0  0  0  0  0  0
  -23.6645  -27.4869   21.4720 C   0  0  0  0  0  0  0  0  0  0  0  0
  -22.3750  -34.0355   24.2223 C   0  0  0  0  0  0  0  0  0  0  0  0
  -26.4290  -21.2243   17.1322 C   0  0  0  0  0  0  0  0  0  0  0  0
  -23.1000  -32.7942   24.7327 C   0  0  0  0  0  0  0  0  0  0  0  0
  -26.6023  -20.0161   18.0510 C   0  0  0  0  0  0  0  0  0  0  0  0
  -27.4907  -21.2610   16.0371 C   0  0  0  0  0  0  0  0  0  0  0  0
  -29.0600  -19.9946   17.4681 C   0  0  0  0  0  0  0  0  0  0  0  0
  -24.2312  -32.3857   23.7813 C   0  0  1  0  0  0  0  0  0  0  0  0
  -22.8591  -29.8622   21.2948 C   0  0  1  0  0  0  0  0  0  0  0  0
  -28.0341  -19.9533   18.6106 C   0  0  2  0  0  0  0  0  0  0  0  0
  -33.9684  -25.5196   20.5089 C   0  0  0  0  0  0  0  0  0  0  0  0
  -28.8306  -24.3684   18.1325 C   0  0  0  0  0  0  0  0  0  0  0  0
  -18.7265  -23.4732   19.8438 C   0  0  0  0  0  0  0  0  0  0  0  0
  -21.4058  -27.0949   24.6993 C   0  0  0  0  0  0  0  0  0  0  0  0
  -20.3059  -24.9688   23.9658 C   0  0  0  0  0  0  0  0  0  0  0  0
  -19.0940  -27.1381   23.7463 C   0  0  0  0  0  0  0  0  0  0  0  0
  -32.0415  -23.0310   16.1794 C   0  0  0  0  0  0  0  0  0  0  0  0
  -20.8555  -25.4146   17.3590 C   0  0  0  0  0  0  0  0  0  0  0  0
  -30.8930  -22.3141   18.2416 C   0  0  0  0  0  0  0  0  0  0  0  0
  -29.3778  -27.0133   19.2336 C   0  0  0  0  0  0  0  0  0  1  0  0
  -21.0200  -26.6312   22.1889 C   0  0  1  0  0  0  0  0  0  0  0  0
  -19.4980  -24.6749   19.3208 C   0  0  2  0  0  0  0  0  0  0  0  0
  -20.4806  -26.4670   23.6378 C   0  0  0  0  0  0  0  0  0  0  0  0
  -27.5659  -17.6164   19.2448 N   0  0  0  0  0  0  0  0  0  0  0  0
  -28.2412  -18.7479   19.5089 N   0  0  0  0  0  0  0  0  0  0  0  0
  -22.5448  -28.4428   21.4698 N   0  0  0  0  0  0  0  0  0  0  0  0
  -28.8400  -21.1562   16.5935 N   0  0  0  0  0  0  0  0  0  0  0  0
  -29.8109  -19.7060   21.0018 N   0  0  0  0  0  0  0  0  0  0  0  0
  -29.3078  -15.5028   22.5752 N   0  0  0  0  0  0  0  0  0  0  0  0
  -23.6954  -31.7056   22.6217 N   0  0  0  0  0  0  0  0  0  0  0  0
  -20.1507  -26.0698   21.1605 N   0  0  0  0  0  0  0  0  0  0  0  0
  -30.9401  -22.2931   16.7812 N   0  0  0  0  0  0  0  0  0  0  0  0
  -20.0877  -24.3161   18.0000 N   0  3  0  0  0  0  0  0  0  0  0  0
  -30.3787  -17.5020   22.9140 O   0  0  0  0  0  0  0  0  0  0  0  0
  -23.5603  -29.5656   23.5299 O   0  0  0  0  0  0  0  0  0  0  0  0
  -20.2772  -28.8542   21.8238 O   0  0  0  0  0  0  0  0  0  0  0  0
  -21.7158  -24.6048   20.2765 O   0  0  0  0  0  0  0  0  0  0  0  0
  -29.8720  -22.0803   14.7498 O   0  0  0  0  0  0  0  0  0  0  0  0
  -26.0021  -11.5602   20.4388 O   0  0  0  0  0  0  0  0  0  0  0  0
  -28.2244  -26.5755   19.9508 O   0  0  0  0  0  0  0  0  0  1  0  0
  -20.5743  -10.8453   19.7810 F   0  0  0  0  0  0  0  0  0  0  0  0
  -24.4737  -10.3962   22.4266 F   0  0  0  0  0  0  0  0  0  0  0  0
  1  2  1  0  0  0  0
  1  5  2  0  0  0  0
  2  6  2  0  0  0  0
  3  8  2  0  0  0  0
  3 17  1  0  0  0  0
  4  9  1  0  0  0  0
  4 17  2  0  0  0  0
  5 19  1  0  0  0  0
  6 21  1  0  0  0  0
  7 10  2  0  0  0  0
  7 20  1  0  0  0  0
  8 27  1  0  0  0  0
  9 27  2  0  0  0  0
 10 28  1  0  0  0  0
 11 12  2  0  0  0  0
 11 29  1  0  0  0  0
 12 30  1  0  0  0  0
 13 22  1  0  0  0  0
 13 28  2  0  0  0  0
 14 23  1  0  0  0  0
 14 24  2  0  0  0  0
 15 23  2  0  0  0  0
 15 25  1  0  0  0  0
 16 30  2  0  0  0  0
 16 31  1  0  0  0  0
 17 32  1  0  0  0  0
 18 32  1  0  0  0  0
 18 33  2  0  0  0  0
 18 34  1  0  0  0  0
 19 21  2  0  0  0  0
 19 39  1  0  0  0  0
 20 22  2  0  0  0  0
 20 40  1  0  0  0  0
 21 48  1  0  0  0  0
 22 41  1  0  0  0  0
 23 51  1  0  0  0  0
 24 26  1  0  0  0  0
 24 59  1  0  0  0  0
 25 26  2  0  0  0  0
 25 60  1  0  0  0  0
 26 52  1  0  0  0  0
 27 79  1  0  0  0  0
 28 80  1  0  0  0  0
 29 31  2  0  0  0  0
 29 79  1  0  0  0  0
 30 81  1  0  0  0  0
 31 82  1  0  0  0  0
 32 64  2  0  0  0  0
 33 65  1  0  0  0  0
 33 68  1  0  0  0  0
 34 69  1  0  0  0  0
 34 74  2  0  0  0  0
 35 49  1  0  0  0  0
 35 70  1  0  0  0  0
 35 75  2  0  0  0  0
 36 61  1  0  0  0  0
 36 66  1  0  0  0  0
 36 76  2  0  0  0  0
 37 62  1  0  0  0  0
 37 71  1  0  0  0  0
 37 77  2  0  0  0  0
 38 67  1  0  0  0  0
 38 72  1  0  0  0  0
 38 78  2  0  0  0  0
 39 42  1  0  0  0  0
 40 49  1  0  0  0  0
 41 66  1  0  0  0  0
 42 44  1  0  0  0  0
 43 45  1  0  0  0  0
 43 46  1  0  0  0  0
 44 48  1  0  0  0  0
 45 50  1  0  0  0  0
 46 67  1  0  0  0  0
 47 50  1  0  0  0  0
 47 67  1  0  0  0  0
 48 70  1  0  0  0  0
 49 66  1  0  0  0  0
 50 65  1  0  0  0  0
 53 62  1  0  0  0  0
 54 63  1  0  0  0  0
 55 63  1  0  0  0  0
 56 63  1  0  0  0  0
 57 72  1  0  0  0  0
 58 73  1  0  0  0  0
 59 72  1  0  0  0  0
 60 80  1  0  0  0  0
 61 63  1  0  0  0  0
 61 71  1  0  0  0  0
 62 73  1  0  0  0  0
 64 65  1  0  0  0  0
M  CHG  1  73   1
M  ISO  4  38 100  60 101  72 100  80 101
M  END
> <Batch ID>
0031

> <Smiles>
CNC(C)C(=O)NC(C(=O)N1Cc2cc([101O:1][101CH2:1]c3cc(C)cc(C[100N:0](C)[100C:0](=O)N4CCCC(n5nc(-c6ccc(Oc7ccc(F)cc7F)cc6)c(C(N)=O)c5N)C4)c3C)ccc2CC1C(=O)NC1CCCc2ccccc21)C(C)(C)C

> <Shape>
0.309

> <Color>
0.075

> <Negative vol penalty>
0.000

$$$$

  -OEChem-04042321393D

 86 95  0     1  0  0  0  0  0999 V2000
  -45.5597  -16.5357   29.2556 C   0  0  0  0  0  0  0  0  0  0  0  0
  -44.2232  -16.9191   29.2082 C   0  0  0  0  0  0  0  0  0  0  0  0
  -23.0752   -9.8683   19.9399 C   0  0  0  0  0  0  0  0  0  0  0  0
  -23.8345   -9.8741   22.2335 C   0  0  0  0  0  0  0  0  0  0  0  0
  -46.3025  -16.4544   28.0786 C   0  0  0  0  0  0  0  0  0  0  0  0
  -43.6291  -17.2225   27.9837 C   0  0  0  0  0  0  0  0  0  0  0  0
  -37.8283  -16.1480   26.3397 C   0  0  0  0  0  0  0  0  0  0  0  0
  -22.3310   -8.7153   20.1892 C   0  0  0  0  0  0  0  0  0  0  0  0
  -23.0903   -8.7211   22.4828 C   0  0  0  0  0  0  0  0  0  0  0  0
  -36.6964  -16.9613   26.3081 C   0  0  0  0  0  0  0  0  0  0  0  0
  -19.8618   -7.9238   23.0842 C   0  0  0  0  0  0  0  0  0  0  0  0
  -19.1046   -7.8835   24.2549 C   0  0  0  0  0  0  0  0  0  0  0  0
  -37.0863  -17.4029   23.9688 C   0  0  0  0  0  0  0  0  0  0  0  0
  -31.4525  -19.1400   21.4670 C   0  0  0  0  0  0  0  0  0  0  0  0
  -31.2100  -18.3958   23.7526 C   0  0  0  0  0  0  0  0  0  0  0  0
  -20.3453   -5.9455   24.9908 C   0  0  0  0  0  0  0  0  0  0  0  0
  -23.8270  -10.4478   20.9621 C   0  0  0  0  0  0  0  0  0  0  0  0
  -24.1695  -12.9729   20.8432 C   0  0  0  0  0  0  0  0  0  0  0  0
  -45.7146  -16.7476   26.8380 C   0  0  0  0  0  0  0  0  0  0  0  0
  -38.6053  -15.9645   25.1868 C   0  0  0  0  0  0  0  0  0  0  0  0
  -44.3651  -17.1463   26.7891 C   0  0  0  0  0  0  0  0  0  0  0  0
  -38.2262  -16.5848   23.9878 C   0  0  0  0  0  0  0  0  0  0  0  0
  -31.5797  -19.3793   22.8352 C   0  0  0  0  0  0  0  0  0  0  0  0
  -30.9555  -17.9172   21.0160 C   0  0  0  0  0  0  0  0  0  0  0  0
  -30.7130  -17.1729   23.3017 C   0  0  0  0  0  0  0  0  0  0  0  0
  -30.5858  -16.9336   21.9334 C   0  0  0  0  0  0  0  0  0  0  0  0
  -22.3385   -8.1416   21.4606 C   0  0  0  0  0  0  0  0  0  0  0  0
  -36.3268  -17.5912   25.1232 C   0  0  0  0  0  0  0  0  0  0  0  0
  -20.8608   -6.9748   22.8668 C   0  0  0  0  0  0  0  0  0  0  0  0
  -19.3464   -6.8944   25.2083 C   0  0  0  0  0  0  0  0  0  0  0  0
  -21.1026   -5.9857   23.8201 C   0  0  0  0  0  0  0  0  0  0  0  0
  -24.5965  -11.6386   20.7050 C   0  0  0  0  0  0  0  0  0  0  0  0
  -25.2619  -13.7223   20.4805 C   0  0  0  0  0  0  0  0  0  0  0  0
  -33.4477  -20.8929   25.4512 C   0  0  0  0  0  0  0  0  0  0  0  0
  -22.8990  -13.4888   21.2621 C   0  0  0  0  0  0  0  0  0  0  0  0
  -41.6132  -16.6056   24.3834 C   0  0  0  0  0  0  0  0  0  0  0  0
  -40.8278  -14.9846   21.6857 C   0  0  0  0  0  0  0  0  0  0  0  0
  -38.3861  -13.9227   19.5509 C   0  0  0  0  0  0  0  0  0  0  0  0
  -30.7283  -14.7664   20.6569 C   0  0  0  0  0  0  0  0  0  0  0  0
  -46.5706  -16.6913   25.5975 C   0  0  0  0  0  0  0  0  0  0  0  0
  -39.8083  -15.0627   25.2308 C   0  0  0  0  0  0  0  0  0  0  0  0
  -39.0150  -16.4039   22.7175 C   0  0  0  0  0  0  0  0  0  0  0  0
  -34.8909  -20.6602   25.8351 C   0  0  0  0  0  0  0  0  0  0  0  0
  -45.7642  -16.6670   24.3016 C   0  0  0  0  0  0  0  0  0  0  0  0
  -29.6139  -12.3539   18.2873 C   0  0  0  0  0  0  0  0  0  0  0  0
  -44.6668  -17.7259   24.3358 C   0  0  0  0  0  0  0  0  0  0  0  0
  -28.1740  -12.0625   18.7165 C   0  0  0  0  0  0  0  0  0  0  0  0
  -30.5288  -12.5820   19.4893 C   0  0  0  0  0  0  0  0  0  0  0  0
  -28.6217  -13.3063   20.8704 C   0  0  0  0  0  0  0  0  0  0  0  0
  -34.5509  -20.0719   23.5244 C   0  0  0  0  0  0  0  0  0  0  0  0
  -43.6783  -17.4594   25.4774 C   0  0  1  0  0  0  0  0  0  0  0  0
  -40.8170  -15.3578   24.1249 C   0  0  1  0  0  0  0  0  0  0  0  0
  -27.6491  -13.1338   19.6923 C   0  0  2  0  0  0  0  0  0  0  0  0
  -35.4166  -19.7498   24.7285 C   0  0  2  0  0  0  0  0  0  1  0  0
  -30.8303  -17.6906   19.5440 C   0  0  0  0  0  0  0  0  0  0  0  0
  -30.3257  -16.1385   24.3087 C   0  0  0  0  0  0  0  0  0  0  0  0
  -38.0549  -12.6500   17.4136 C   0  0  0  0  0  0  0  0  0  0  0  0
  -41.8126  -17.3976   20.0989 C   0  0  0  0  0  0  0  0  0  0  0  0
  -40.6060  -16.4892   18.1021 C   0  0  0  0  0  0  0  0  0  0  0  0
  -42.4610  -15.1817   19.1377 C   0  0  0  0  0  0  0  0  0  0  0  0
  -36.7336  -11.8680   20.8948 C   0  0  0  0  0  0  0  0  0  0  0  0
  -32.1144  -20.6956   23.3206 C   0  0  0  0  0  0  0  0  0  0  0  0
  -40.2463  -15.3598   20.3440 C   0  0  1  0  0  0  0  0  0  0  0  0
  -38.1108  -12.5646   18.9310 C   0  0  2  0  0  0  0  0  0  0  0  0
  -41.2675  -16.1122   19.4449 C   0  0  0  0  0  0  0  0  0  0  0  0
  -25.8614  -11.5426   20.2870 N   0  0  0  0  0  0  0  0  0  0  0  0
  -26.2386  -12.8261   20.1593 N   0  0  0  0  0  0  0  0  0  0  0  0
  -33.3139  -20.5336   24.1138 N   0  0  0  0  0  0  0  0  0  0  0  0
  -40.1867  -15.5176   22.8129 N   0  0  0  0  0  0  0  0  0  0  0  0
  -29.9698  -13.6126   20.3670 N   0  0  0  0  0  0  0  0  0  0  0  0
  -25.4727  -15.0537   20.4081 N   0  0  0  0  0  0  0  0  0  0  0  0
  -21.8868  -12.5798   21.5987 N   0  0  0  0  0  0  0  0  0  0  0  0
  -30.0810  -15.6913   21.4756 N   0  0  0  0  0  0  0  0  0  0  0  0
  -42.7651  -16.3961   25.1173 N   0  0  0  0  0  0  0  0  0  0  0  0
  -39.7338  -14.1244   19.7613 N   0  0  0  0  0  0  0  0  0  0  0  0
  -36.8099  -12.0263   19.4197 N   0  3  0  0  0  0  0  0  0  0  0  0
  -32.5982  -21.3569   26.1975 O   0  0  0  0  0  0  0  0  0  0  0  0
  -22.6631  -14.7195   21.3199 O   0  0  0  0  0  0  0  0  0  0  0  0
  -41.2128  -17.6788   23.9479 O   0  0  0  0  0  0  0  0  0  0  0  0
  -41.8102  -14.2401   21.7320 O   0  0  0  0  0  0  0  0  0  0  0  0
  -37.4950  -14.7260   19.8180 O   0  0  0  0  0  0  0  0  0  0  0  0
  -31.8576  -14.9351   20.1896 O   0  0  0  0  0  0  0  0  0  0  0  0
  -21.6122   -7.0166   21.7043 O   0  0  0  0  0  0  0  0  0  0  0  0
  -35.2228  -18.3861   25.0898 O   0  0  0  0  0  0  0  0  0  1  0  0
  -18.6201   -6.8568   26.3331 F   0  0  0  0  0  0  0  0  0  0  0  0
  -22.0617   -5.0721   23.6173 F   0  0  0  0  0  0  0  0  0  0  0  0
  1  2  1  0  0  0  0
  1  5  2  0  0  0  0
  2  6  2  0  0  0  0
  3  8  2  0  0  0  0
  3 17  1  0  0  0  0
  4  9  1  0  0  0  0
  4 17  2  0  0  0  0
  5 19  1  0  0  0  0
  6 21  1  0  0  0  0
  7 10  2  0  0  0  0
  7 20  1  0  0  0  0
  8 27  1  0  0  0  0
  9 27  2  0  0  0  0
 10 28  1  0  0  0  0
 11 12  2  0  0  0  0
 11 29  1  0  0  0  0
 12 30  1  0  0  0  0
 13 22  1  0  0  0  0
 13 28  2  0  0  0  0
 14 23  1  0  0  0  0
 14 24  2  0  0  0  0
 15 23  2  0  0  0  0
 15 25  1  0  0  0  0
 16 30  2  0  0  0  0
 16 31  1  0  0  0  0
 17 32  1  0  0  0  0
 18 32  1  0  0  0  0
 18 33  2  0  0  0  0
 18 35  1  0  0  0  0
 19 21  2  0  0  0  0
 19 40  1  0  0  0  0
 20 22  2  0  0  0  0
 20 41  1  0  0  0  0
 21 51  1  0  0  0  0
 22 42  1  0  0  0  0
 23 62  1  0  0  0  0
 24 26  1  0  0  0  0
 24 55  1  0  0  0  0
 25 26  2  0  0  0  0
 25 56  1  0  0  0  0
 26 73  1  0  0  0  0
 27 83  1  0  0  0  0
 28 84  1  0  0  0  0
 29 31  2  0  0  0  0
 29 83  1  0  0  0  0
 30 85  1  0  0  0  0
 31 86  1  0  0  0  0
 32 66  2  0  0  0  0
 33 67  1  0  0  0  0
 33 71  1  0  0  0  0
 34 43  1  0  0  0  0
 34 68  1  0  0  0  0
 34 77  2  0  0  0  0
 35 72  1  0  0  0  0
 35 78  2  0  0  0  0
 36 52  1  0  0  0  0
 36 74  1  0  0  0  0
 36 79  2  0  0  0  0
 37 63  1  0  0  0  0
 37 69  1  0  0  0  0
 37 80  2  0  0  0  0
 38 64  1  0  0  0  0
 38 75  1  0  0  0  0
 38 81  2  0  0  0  0
 39 70  1  0  0  0  0
 39 73  1  0  0  0  0
 39 82  2  0  0  0  0
 40 44  1  0  0  0  0
 41 52  1  0  0  0  0
 42 69  1  0  0  0  0
 43 54  1  0  0  0  0
 44 46  1  0  0  0  0
 45 47  1  0  0  0  0
 45 48  1  0  0  0  0
 46 51  1  0  0  0  0
 47 53  1  0  0  0  0
 48 70  1  0  0  0  0
 49 53  1  0  0  0  0
 49 70  1  0  0  0  0
 50 54  1  0  0  0  0
 50 68  1  0  0  0  0
 51 74  1  0  0  0  0
 52 69  1  0  0  0  0
 53 67  1  0  0  0  0
 54 84  1  0  0  0  0
 57 64  1  0  0  0  0
 58 65  1  0  0  0  0
 59 65  1  0  0  0  0
 60 65  1  0  0  0  0
 61 76  1  0  0  0  0
 62 68  1  0  0  0  0
 63 65  1  0  0  0  0
 63 75  1  0  0  0  0
 64 76  1  0  0  0  0
 66 67  1  0  0  0  0
M  CHG  1  76   1
M  ISO  4  39 100  54 101  73 100  84 101
M  END
> <Batch ID>
0031

> <Smiles>
CNC(C)C(=O)NC(C(=O)N1Cc2cc([101O:1][101CH:1]3CC(=O)N(Cc4cc(C)c([100NH:0][100C:0](=O)N5CCCC(n6nc(-c7ccc(Oc8ccc(F)cc8F)cc7)c(C(N)=O)c6N)C5)c(C)c4)C3)ccc2CC1C(=O)NC1CCCc2ccccc21)C(C)(C)C

> <Shape>
0.173

> <Color>
0.192

> <Negative vol penalty>
0.000

$$$$

  -OEChem-04042321393D

 87 96  0     1  0  0  0  0  0999 V2000
  -24.5992  -10.9514   17.5912 C   0  0  0  0  0  0  0  0  0  0  0  0
  -23.9141  -12.1428   17.3751 C   0  0  0  0  0  0  0  0  0  0  0  0
  -28.2112  -25.9022   16.6760 C   0  0  0  0  0  0  0  0  0  0  0  0
  -28.5472  -25.5104   19.0362 C   0  0  0  0  0  0  0  0  0  0  0  0
  -25.2678  -10.7419   18.7966 C   0  0  0  0  0  0  0  0  0  0  0  0
  -23.8964  -13.1250   18.3649 C   0  0  0  0  0  0  0  0  0  0  0  0
  -23.7352  -20.2418   19.1653 C   0  0  0  0  0  0  0  0  0  0  0  0
  -18.1800  -26.2289   22.3354 C   0  0  0  0  0  0  0  0  0  0  0  0
  -29.3992  -25.2274   16.3948 C   0  0  0  0  0  0  0  0  0  0  0  0
  -29.7352  -24.8356   18.7551 C   0  0  0  0  0  0  0  0  0  0  0  0
  -23.0154  -21.2351   19.8279 C   0  0  0  0  0  0  0  0  0  0  0  0
  -30.4501  -22.0214   16.1716 C   0  0  0  0  0  0  0  0  0  0  0  0
  -30.4389  -21.0968   15.1273 C   0  0  0  0  0  0  0  0  0  0  0  0
  -17.9566  -27.4297   21.6617 C   0  0  0  0  0  0  0  0  0  0  0  0
  -24.2722  -20.7955   21.8395 C   0  0  0  0  0  0  0  0  0  0  0  0
  -32.1472  -22.3668   13.9846 C   0  0  0  0  0  0  0  0  0  0  0  0
  -27.7852  -26.0437   17.9967 C   0  0  0  0  0  0  0  0  0  0  0  0
  -25.2651  -26.4082   17.8426 C   0  0  0  0  0  0  0  0  0  0  0  0
  -25.2664  -11.7259   19.7977 C   0  0  0  0  0  0  0  0  0  0  0  0
  -24.7230  -19.5092   19.8390 C   0  0  0  0  0  0  0  0  0  0  0  0
  -24.5645  -12.9278   19.5853 C   0  0  0  0  0  0  0  0  0  0  0  0
  -25.0048  -19.7952   21.1825 C   0  0  0  0  0  0  0  0  0  0  0  0
  -19.1974  -26.1411   23.2856 C   0  0  0  0  0  0  0  0  0  0  0  0
  -19.9914  -27.2540   23.5621 C   0  0  0  0  0  0  0  0  0  0  0  0
  -19.7681  -28.4548   22.8884 C   0  0  0  0  0  0  0  0  0  0  0  0
  -30.1611  -24.6941   17.4343 C   0  0  0  0  0  0  0  0  0  0  0  0
  -23.2818  -21.5101   21.1660 C   0  0  0  0  0  0  0  0  0  0  0  0
  -31.3098  -23.1188   16.1224 C   0  0  0  0  0  0  0  0  0  0  0  0
  -31.2875  -21.2695   14.0338 C   0  0  0  0  0  0  0  0  0  0  0  0
  -32.1584  -23.2915   15.0289 C   0  0  0  0  0  0  0  0  0  0  0  0
  -18.7507  -28.5426   21.9382 C   0  0  0  0  0  0  0  0  0  0  0  0
  -26.5584  -26.7411   18.2878 C   0  0  0  0  0  0  0  0  0  0  0  0
  -24.4547  -27.3727   18.3898 C   0  0  0  0  0  0  0  0  0  0  0  0
  -20.7984  -22.8311   24.1678 C   0  0  0  0  0  0  0  0  0  0  0  0
  -21.1259  -22.7745   25.4642 C   0  0  0  0  0  0  0  0  0  0  0  0
  -24.8347  -25.3240   17.0089 C   0  0  0  0  0  0  0  0  0  0  0  0
  -25.1352  -16.4433   20.5696 C   0  0  0  0  0  0  0  0  0  0  0  0
  -28.0208  -17.4849   21.6235 C   0  0  0  0  0  0  0  0  0  0  0  0
  -29.9217  -20.0735   22.7777 C   0  0  0  0  0  0  0  0  0  0  0  0
  -22.8921  -30.5373   22.7129 C   0  0  0  0  0  0  0  0  0  0  0  0
  -25.9639  -11.4346   21.1028 C   0  0  0  0  0  0  0  0  0  0  0  0
  -25.5090  -18.4593   19.1027 C   0  0  0  0  0  0  0  0  0  0  0  0
  -26.0693  -19.0512   21.9453 C   0  0  0  0  0  0  0  0  0  0  0  0
  -20.7821  -21.6688   23.2247 C   0  0  0  0  0  0  0  0  0  0  0  0
  -26.2099  -12.6785   21.9529 C   0  0  0  0  0  0  0  0  0  0  0  0
  -25.6118  -31.7036   20.7330 C   0  0  0  0  0  0  0  0  0  0  0  0
  -24.9508  -13.5371   22.0195 C   0  0  0  0  0  0  0  0  0  0  0  0
  -25.9975  -30.4877   19.8888 C   0  0  0  0  0  0  0  0  0  0  0  0
  -25.1787  -31.2990   22.1404 C   0  0  0  0  0  0  0  0  0  0  0  0
  -24.4960  -29.0677   21.3475 C   0  0  0  0  0  0  0  0  0  0  0  0
  -20.5457  -23.7445   22.0261 C   0  0  0  0  0  0  0  0  0  0  0  0
  -24.5429  -14.0273   20.6249 C   0  0  1  0  0  0  0  0  0  0  0  0
  -26.1378  -17.4237   20.0298 C   0  0  1  0  0  0  0  0  0  0  0  0
  -24.8864  -29.4207   19.9020 C   0  0  2  0  0  0  0  0  0  0  0  0
  -21.1659  -22.3582   21.9247 C   0  0  1  0  0  0  0  0  0  1  0  0
  -21.0817  -27.1559   24.5822 C   0  0  0  0  0  0  0  0  0  0  0  0
  -31.9786  -21.2945   23.5364 C   0  0  0  0  0  0  0  0  0  0  0  0
  -27.3878  -16.1493   24.2929 C   0  0  0  0  0  0  0  0  0  0  0  0
  -29.2320  -17.4932   25.3232 C   0  0  0  0  0  0  0  0  0  0  0  0
  -29.7457  -15.8558   23.5127 C   0  0  0  0  0  0  0  0  0  0  0  0
  -30.6027  -20.8819   20.0133 C   0  0  0  0  0  0  0  0  0  0  0  0
  -20.6283  -29.6417   23.1946 C   0  0  0  0  0  0  0  0  0  0  0  0
  -19.4144  -24.8378   23.9965 C   0  0  0  0  0  0  0  0  0  0  0  0
  -28.5544  -18.0095   22.9346 C   0  0  1  0  0  0  0  0  0  0  0  0
  -31.3064  -20.5584   22.3879 C   0  0  2  0  0  0  0  0  0  0  0  0
  -28.7085  -16.8898   24.0023 C   0  0  0  0  0  0  0  0  0  0  0  0
  -26.5736  -27.8319   19.0584 N   0  0  0  0  0  0  0  0  0  0  0  0
  -25.2798  -28.1929   19.1016 N   0  0  0  0  0  0  0  0  0  0  0  0
  -26.8062  -18.0295   21.1832 N   0  0  0  0  0  0  0  0  0  0  0  0
  -24.1221  -30.2861   22.0827 N   0  0  0  0  0  0  0  0  0  0  0  0
  -23.1240  -27.5907   18.3268 N   0  0  0  0  0  0  0  0  0  0  0  0
  -24.4714  -24.1156   17.6190 N   0  0  0  0  0  0  0  0  0  0  0  0
  -25.3822  -15.1316   20.2119 N   0  0  0  0  0  0  0  0  0  0  0  0
  -29.7949  -18.7096   22.6196 N   0  0  0  0  0  0  0  0  0  0  0  0
  -21.9435  -29.5278   22.6046 N   0  0  0  0  0  0  0  0  0  0  0  0
  -20.6234  -24.0972   23.5093 N   0  3  1  0  0  0  0  0  0  0  0  0
  -31.2224  -21.4831   21.2222 N   0  3  0  0  0  0  0  0  0  0  0  0
  -24.7898  -25.4185   15.7589 O   0  0  0  0  0  0  0  0  0  0  0  0
  -24.2072  -16.8467   21.2607 O   0  0  0  0  0  0  0  0  0  0  0  0
  -28.6618  -16.6286   21.0090 O   0  0  0  0  0  0  0  0  0  0  0  0
  -29.0418  -20.8286   23.1854 O   0  0  0  0  0  0  0  0  0  0  0  0
  -22.6550  -31.5859   23.3221 O   0  0  0  0  0  0  0  0  0  0  0  0
  -31.3203  -24.0354   17.1603 O   0  0  0  0  0  0  0  0  0  0  0  0
  -22.5803  -22.4787   21.8153 O   0  0  0  0  0  0  0  0  0  1  0  0
  -31.2777  -20.3807   13.0318 F   0  0  0  0  0  0  0  0  0  0  0  0
  -32.9874  -24.3431   14.9766 F   0  0  0  0  0  0  0  0  0  0  0  0
  -18.4422  -30.0102   21.0827 Cl  0  0  0  0  0  0  0  0  0  0  0  0
  1  2  1  0  0  0  0
  1  5  2  0  0  0  0
  2  6  2  0  0  0  0
  3  9  2  0  0  0  0
  3 17  1  0  0  0  0
  4 10  1  0  0  0  0
  4 17  2  0  0  0  0
  5 19  1  0  0  0  0
  6 21  1  0  0  0  0
  7 11  2  0  0  0  0
  7 20  1  0  0  0  0
  8 14  2  0  0  0  0
  8 23  1  0  0  0  0
  9 26  1  0  0  0  0
 10 26  2  0  0  0  0
 11 27  1  0  0  0  0
 12 13  2  0  0  0  0
 12 28  1  0  0  0  0
 13 29  1  0  0  0  0
 14 31  1  0  0  0  0
 15 22  1  0  0  0  0
 15 27  2  0  0  0  0
 16 29  2  0  0  0  0
 16 30  1  0  0  0  0
 17 32  1  0  0  0  0
 18 32  1  0  0  0  0
 18 33  2  0  0  0  0
 18 36  1  0  0  0  0
 19 21  2  0  0  0  0
 19 41  1  0  0  0  0
 20 22  2  0  0  0  0
 20 42  1  0  0  0  0
 21 52  1  0  0  0  0
 22 43  1  0  0  0  0
 23 24  2  0  0  0  0
 23 63  1  0  0  0  0
 24 25  1  0  0  0  0
 24 56  1  0  0  0  0
 25 31  2  0  0  0  0
 25 62  1  0  0  0  0
 26 83  1  0  0  0  0
 27 84  1  0  0  0  0
 28 30  2  0  0  0  0
 28 83  1  0  0  0  0
 29 85  1  0  0  0  0
 30 86  1  0  0  0  0
 31 87  1  0  0  0  0
 32 67  2  0  0  0  0
 33 68  1  0  0  0  0
 33 71  1  0  0  0  0
 34 35  2  0  0  0  0
 34 44  1  0  0  0  0
 34 76  1  0  0  0  0
 36 72  1  0  0  0  0
 36 78  2  0  0  0  0
 37 53  1  0  0  0  0
 37 73  1  0  0  0  0
 37 79  2  0  0  0  0
 38 64  1  0  0  0  0
 38 69  1  0  0  0  0
 38 80  2  0  0  0  0
 39 65  1  0  0  0  0
 39 74  1  0  0  0  0
 39 81  2  0  0  0  0
 40 70  1  0  0  0  0
 40 75  1  0  0  0  0
 40 82  2  0  0  0  0
 41 45  1  0  0  0  0
 42 53  1  0  0  0  0
 43 69  1  0  0  0  0
 44 55  1  0  0  0  0
 45 47  1  0  0  0  0
 46 48  1  0  0  0  0
 46 49  1  0  0  0  0
 47 52  1  0  0  0  0
 48 54  1  0  0  0  0
 49 70  1  0  0  0  0
 50 54  1  0  0  0  0
 50 70  1  0  0  0  0
 51 55  1  0  0  0  0
 51 76  1  0  0  0  0
 52 73  1  0  0  0  0
 53 69  1  0  0  0  0
 54 68  1  0  0  0  0
 55 84  1  0  0  0  0
 57 65  1  0  0  0  0
 58 66  1  0  0  0  0
 59 66  1  0  0  0  0
 60 66  1  0  0  0  0
 61 77  1  0  0  0  0
 62 75  1  0  0  0  0
 63 76  1  0  0  0  0
 64 66  1  0  0  0  0
 64 74  1  0  0  0  0
 65 77  1  0  0  0  0
 67 68  1  0  0  0  0
M  CHG  2  76   1  77   1
M  ISO  4  40 100  55 101  75 100  84 101
M  END
> <Batch ID>
0031

> <Smiles>
C=C1C[101CH:1]([101O:1]c2ccc3c(c2)CN(C(=O)C(NC(=O)C(C)NC)C(C)(C)C)C(C(=O)NC2CCCc4ccccc42)C3)CN1Cc1ccc(Cl)c(C[100NH:0][100C:0](=O)N2CCCC(n3nc(-c4ccc(Oc5ccc(F)cc5F)cc4)c(C(N)=O)c3N)C2)c1C

> <Shape>
0.182

> <Color>
0.087

> <Negative vol penalty>
0.000

$$$$

  -OEChem-04042321393D

 86 95  0     1  0  0  0  0  0999 V2000
  -23.7273  -31.8116   21.2349 C   0  0  0  0  0  0  0  0  0  0  0  0
  -24.0168  -30.5184   21.6583 C   0  0  0  0  0  0  0  0  0  0  0  0
  -23.0643   -9.8829   19.9391 C   0  0  0  0  0  0  0  0  0  0  0  0
  -23.8344   -9.8720   22.2290 C   0  0  0  0  0  0  0  0  0  0  0  0
  -22.4603  -32.1139   20.7378 C   0  0  0  0  0  0  0  0  0  0  0  0
  -23.0390  -29.5269   21.5857 C   0  0  0  0  0  0  0  0  0  0  0  0
  -24.8228  -25.1724   19.7145 C   0  0  0  0  0  0  0  0  0  0  0  0
  -22.3159   -8.7319   20.1852 C   0  0  0  0  0  0  0  0  0  0  0  0
  -23.0860   -8.7209   22.4752 C   0  0  0  0  0  0  0  0  0  0  0  0
  -25.5660  -24.3663   20.5757 C   0  0  0  0  0  0  0  0  0  0  0  0
  -19.8567   -7.9351   23.0873 C   0  0  0  0  0  0  0  0  0  0  0  0
  -19.1047   -7.8916   24.2613 C   0  0  0  0  0  0  0  0  0  0  0  0
  -23.6247  -22.9832   20.9466 C   0  0  0  0  0  0  0  0  0  0  0  0
  -30.6606  -19.8341   21.4877 C   0  0  0  0  0  0  0  0  0  0  0  0
  -31.1851  -17.6493   20.5997 C   0  0  0  0  0  0  0  0  0  0  0  0
  -20.3399   -5.9436   24.9801 C   0  0  0  0  0  0  0  0  0  0  0  0
  -23.8236  -10.4530   20.9610 C   0  0  0  0  0  0  0  0  0  0  0  0
  -24.1772  -12.9771   20.8551 C   0  0  0  0  0  0  0  0  0  0  0  0
  -21.4695  -31.1234   20.6500 C   0  0  0  0  0  0  0  0  0  0  0  0
  -23.4698  -24.8959   19.4710 C   0  0  0  0  0  0  0  0  0  0  0  0
  -21.7571  -29.8166   21.0881 C   0  0  0  0  0  0  0  0  0  0  0  0
  -22.8672  -23.7859   20.0799 C   0  0  0  0  0  0  0  0  0  0  0  0
  -29.7571  -19.2551   22.3787 C   0  0  0  0  0  0  0  0  0  0  0  0
  -29.5676  -17.8732   22.3803 C   0  0  0  0  0  0  0  0  0  0  0  0
  -30.2816  -17.0703   21.4908 C   0  0  0  0  0  0  0  0  0  0  0  0
  -22.3267   -8.1509   21.4533 C   0  0  0  0  0  0  0  0  0  0  0  0
  -24.9662  -23.2732   21.1942 C   0  0  0  0  0  0  0  0  0  0  0  0
  -20.8502   -6.9828   22.8596 C   0  0  0  0  0  0  0  0  0  0  0  0
  -19.3464   -6.8958   25.2077 C   0  0  0  0  0  0  0  0  0  0  0  0
  -21.0918   -5.9871   23.8061 C   0  0  0  0  0  0  0  0  0  0  0  0
  -31.3745  -19.0313   20.5981 C   0  0  0  0  0  0  0  0  0  0  0  0
  -24.5973  -11.6417   20.7072 C   0  0  0  0  0  0  0  0  0  0  0  0
  -25.2714  -13.7235   20.4916 C   0  0  0  0  0  0  0  0  0  0  0  0
  -26.5103  -20.0030   23.6881 C   0  0  0  0  0  0  0  0  0  0  0  0
  -22.9111  -13.4965   21.2829 C   0  0  0  0  0  0  0  0  0  0  0  0
  -20.7395  -26.4480   19.9612 C   0  0  0  0  0  0  0  0  0  0  0  0
  -19.4780  -23.9536   18.3154 C   0  0  0  0  0  0  0  0  0  0  0  0
  -19.7617  -20.7036   17.3135 C   0  0  0  0  0  0  0  0  0  0  0  0
  -30.7433  -14.7415   20.6482 C   0  0  0  0  0  0  0  0  0  0  0  0
  -20.0999  -31.5089   20.1498 C   0  0  0  0  0  0  0  0  0  0  0  0
  -22.6890  -25.7594   18.5185 C   0  0  0  0  0  0  0  0  0  0  0  0
  -21.4232  -23.4342   19.8359 C   0  0  0  0  0  0  0  0  0  0  0  0
  -25.2897  -20.2381   22.8282 C   0  0  0  0  0  0  0  0  0  0  0  0
  -19.2362  -30.3132   19.7565 C   0  0  0  0  0  0  0  0  0  0  0  0
  -29.6066  -12.3479   18.2701 C   0  0  0  0  0  0  0  0  0  0  0  0
  -19.2998  -29.2324   20.8310 C   0  0  0  0  0  0  0  0  0  0  0  0
  -28.1675  -12.0606   18.7043 C   0  0  0  0  0  0  0  0  0  0  0  0
  -30.5282  -12.5647   19.4690 C   0  0  0  0  0  0  0  0  0  0  0  0
  -28.6309  -13.2899   20.8633 C   0  0  0  0  0  0  0  0  0  0  0  0
  -27.2844  -20.7553   21.5813 C   0  0  0  0  0  0  0  0  0  0  0  0
  -20.7306  -28.7080   21.0020 C   0  0  1  0  0  0  0  0  0  0  0  0
  -21.1820  -25.6863   18.7440 C   0  0  1  0  0  0  0  0  0  0  0  0
  -27.6520  -13.1287   19.6888 C   0  0  2  0  0  0  0  0  0  0  0  0
  -25.8127  -21.1094   21.6893 C   0  0  2  0  0  0  0  0  0  1  0  0
  -28.5972  -17.2563   23.3383 C   0  0  0  0  0  0  0  0  0  0  0  0
  -18.5551  -18.9320   16.0084 C   0  0  0  0  0  0  0  0  0  0  0  0
  -17.5502  -23.5527   20.6463 C   0  0  0  0  0  0  0  0  0  0  0  0
  -17.0467  -21.2712   19.7466 C   0  0  0  0  0  0  0  0  0  0  0  0
  -16.5189  -23.2922   18.3829 C   0  0  0  0  0  0  0  0  0  0  0  0
  -21.9761  -20.4677   15.3642 C   0  0  0  0  0  0  0  0  0  0  0  0
  -29.0013  -20.1418   23.3257 C   0  0  0  0  0  0  0  0  0  0  0  0
  -18.9305  -22.5962   18.6852 C   0  0  1  0  0  0  0  0  0  0  0  0
  -19.5856  -20.0492   15.9551 C   0  0  2  0  0  0  0  0  0  0  0  0
  -17.5383  -22.6856   19.3716 C   0  0  0  0  0  0  0  0  0  0  0  0
  -25.8598  -11.5423   20.2827 N   0  0  0  0  0  0  0  0  0  0  0  0
  -26.2424  -12.8248   20.1606 N   0  0  0  0  0  0  0  0  0  0  0  0
  -27.6244  -20.3208   22.9179 N   0  0  0  0  0  0  0  0  0  0  0  0
  -20.7001  -24.3125   18.9014 N   0  0  0  0  0  0  0  0  0  0  0  0
  -29.9781  -13.5928   20.3552 N   0  0  0  0  0  0  0  0  0  0  0  0
  -25.4879  -15.0544   20.4258 N   0  0  0  0  0  0  0  0  0  0  0  0
  -21.8963  -12.5902   21.6190 N   0  0  0  0  0  0  0  0  0  0  0  0
  -30.1041  -15.6645   21.4752 N   0  0  0  0  0  0  0  0  0  0  0  0
  -21.0639  -27.7909   19.9332 N   0  0  0  0  0  0  0  0  0  0  0  0
  -18.9432  -21.8034   17.4606 N   0  0  0  0  0  0  0  0  0  0  0  0
  -20.8779  -19.4746   15.4855 N   0  3  0  0  0  0  0  0  0  0  0  0
  -26.4802  -19.5686   24.8301 O   0  0  0  0  0  0  0  0  0  0  0  0
  -22.6811  -14.7279   21.3489 O   0  0  0  0  0  0  0  0  0  0  0  0
  -20.1463  -25.8612   20.8586 O   0  0  0  0  0  0  0  0  0  0  0  0
  -18.8481  -24.6661   17.5298 O   0  0  0  0  0  0  0  0  0  0  0  0
  -20.5442  -20.2791   18.1609 O   0  0  0  0  0  0  0  0  0  0  0  0
  -31.8711  -14.9076   20.1766 O   0  0  0  0  0  0  0  0  0  0  0  0
  -21.5964   -7.0278   21.6939 O   0  0  0  0  0  0  0  0  0  0  0  0
  -25.6891  -22.4852   22.0357 O   0  0  0  0  0  0  0  0  0  1  0  0
  -18.6253   -6.8551   26.3358 F   0  0  0  0  0  0  0  0  0  0  0  0
  -22.0458   -5.0702   23.5935 F   0  0  0  0  0  0  0  0  0  0  0  0
  -32.4883  -19.7461   19.4980 Cl  0  0  0  0  0  0  0  0  0  0  0  0
  1  2  1  0  0  0  0
  1  5  2  0  0  0  0
  2  6  2  0  0  0  0
  3  8  2  0  0  0  0
  3 17  1  0  0  0  0
  4  9  1  0  0  0  0
  4 17  2  0  0  0  0
  5 19  1  0  0  0  0
  6 21  1  0  0  0  0
  7 10  2  0  0  0  0
  7 20  1  0  0  0  0
  8 26  1  0  0  0  0
  9 26  2  0  0  0  0
 10 27  1  0  0  0  0
 11 12  2  0  0  0  0
 11 28  1  0  0  0  0
 12 29  1  0  0  0  0
 13 22  1  0  0  0  0
 13 27  2  0  0  0  0
 14 23  1  0  0  0  0
 14 31  2  0  0  0  0
 15 25  2  0  0  0  0
 15 31  1  0  0  0  0
 16 29  2  0  0  0  0
 16 30  1  0  0  0  0
 17 32  1  0  0  0  0
 18 32  1  0  0  0  0
 18 33  2  0  0  0  0
 18 35  1  0  0  0  0
 19 21  2  0  0  0  0
 19 40  1  0  0  0  0
 20 22  2  0  0  0  0
 20 41  1  0  0  0  0
 21 51  1  0  0  0  0
 22 42  1  0  0  0  0
 23 24  2  0  0  0  0
 23 61  1  0  0  0  0
 24 25  1  0  0  0  0
 24 55  1  0  0  0  0
 25 72  1  0  0  0  0
 26 82  1  0  0  0  0
 27 83  1  0  0  0  0
 28 30  2  0  0  0  0
 28 82  1  0  0  0  0
 29 84  1  0  0  0  0
 30 85  1  0  0  0  0
 31 86  1  0  0  0  0
 32 65  2  0  0  0  0
 33 66  1  0  0  0  0
 33 70  1  0  0  0  0
 34 43  1  0  0  0  0
 34 67  1  0  0  0  0
 34 76  2  0  0  0  0
 35 71  1  0  0  0  0
 35 77  2  0  0  0  0
 36 52  1  0  0  0  0
 36 73  1  0  0  0  0
 36 78  2  0  0  0  0
 37 62  1  0  0  0  0
 37 68  1  0  0  0  0
 37 79  2  0  0  0  0
 38 63  1  0  0  0  0
 38 74  1  0  0  0  0
 38 80  2  0  0  0  0
 39 69  1  0  0  0  0
 39 72  1  0  0  0  0
 39 81  2  0  0  0  0
 40 44  1  0  0  0  0
 41 52  1  0  0  0  0
 42 68  1  0  0  0  0
 43 54  1  0  0  0  0
 44 46  1  0  0  0  0
 45 47  1  0  0  0  0
 45 48  1  0  0  0  0
 46 51  1  0  0  0  0
 47 53  1  0  0  0  0
 48 69  1  0  0  0  0
 49 53  1  0  0  0  0
 49 69  1  0  0  0  0
 50 54  1  0  0  0  0
 50 67  1  0  0  0  0
 51 73  1  0  0  0  0
 52 68  1  0  0  0  0
 53 66  1  0  0  0  0
 54 83  1  0  0  0  0
 56 63  1  0  0  0  0
 57 64  1  0  0  0  0
 58 64  1  0  0  0  0
 59 64  1  0  0  0  0
 60 75  1  0  0  0  0
 61 67  1  0  0  0  0
 62 64  1  0  0  0  0
 62 74  1  0  0  0  0
 63 75  1  0  0  0  0
 65 66  1  0  0  0  0
M  CHG  1  75   1
M  ISO  4  39 100  54 101  72 100  83 101
M  END
> <Batch ID>
0031

> <Smiles>
CNC(C)C(=O)NC(C(=O)N1Cc2cc([101O:1][101CH:1]3CC(=O)N(Cc4cc(Cl)cc([100NH:0][100C:0](=O)N5CCCC(n6nc(-c7ccc(Oc8ccc(F)cc8F)cc7)c(C(N)=O)c6N)C5)c4C)C3)ccc2CC1C(=O)NC1CCCc2ccccc21)C(C)(C)C

> <Shape>
0.228

> <Color>
0.192

> <Negative vol penalty>
0.000

$$$$

  -OEChem-04042321393D

 88 97  0     1  0  0  0  0  0999 V2000
  -23.8090  -17.6376   22.7143 C   0  0  0  0  0  0  0  0  0  0  0  0
  -24.5509  -18.7572   23.0736 C   0  0  0  0  0  0  0  0  0  0  0  0
  -26.9984  -11.7885   20.4165 C   0  0  0  0  0  0  0  0  0  0  0  0
  -25.8926  -13.8363   19.7679 C   0  0  0  0  0  0  0  0  0  0  0  0
  -22.8049  -17.7500   21.7549 C   0  0  0  0  0  0  0  0  0  0  0  0
  -24.2810  -19.9919   22.4824 C   0  0  0  0  0  0  0  0  0  0  0  0
  -27.0943  -25.3647   23.0707 C   0  0  0  0  0  0  0  0  0  0  0  0
  -25.8061  -11.0875   20.2361 C   0  0  0  0  0  0  0  0  0  0  0  0
  -24.7002  -13.1353   19.5874 C   0  0  0  0  0  0  0  0  0  0  0  0
  -28.1204  -26.0639   22.4366 C   0  0  0  0  0  0  0  0  0  0  0  0
  -22.9249  -10.5960   21.9335 C   0  0  0  0  0  0  0  0  0  0  0  0
  -22.5573   -9.6797   22.9188 C   0  0  0  0  0  0  0  0  0  0  0  0
  -26.4864  -27.2664   21.1315 C   0  0  0  0  0  0  0  0  0  0  0  0
  -31.0018  -22.4745   19.4291 C   0  0  0  0  0  0  0  0  0  0  0  0
  -28.7242  -23.2796   19.4572 C   0  0  0  0  0  0  0  0  0  0  0  0
  -22.5957   -7.9036   21.2813 C   0  0  0  0  0  0  0  0  0  0  0  0
  -27.0417  -13.1630   20.1824 C   0  0  0  0  0  0  0  0  0  0  0  0
  -29.4943  -13.6746   19.7026 C   0  0  0  0  0  0  0  0  0  0  0  0
  -22.5316  -18.9845   21.1431 C   0  0  0  0  0  0  0  0  0  0  0  0
  -25.7547  -25.6037   22.7315 C   0  0  0  0  0  0  0  0  0  0  0  0
  -23.2556  -20.1307   21.5295 C   0  0  0  0  0  0  0  0  0  0  0  0
  -25.4450  -26.5707   21.7645 C   0  0  0  0  0  0  0  0  0  0  0  0
  -30.0447  -23.4057   19.0261 C   0  0  0  0  0  0  0  0  0  0  0  0
  -30.6384  -21.4172   20.2633 C   0  0  0  0  0  0  0  0  0  0  0  0
  -28.3607  -22.2223   20.2914 C   0  0  0  0  0  0  0  0  0  0  0  0
  -29.3178  -21.2912   20.6944 C   0  0  0  0  0  0  0  0  0  0  0  0
  -24.6571  -11.7608   19.8216 C   0  0  0  0  0  0  0  0  0  0  0  0
  -27.8167  -27.0128   21.4648 C   0  0  0  0  0  0  0  0  0  0  0  0
  -23.1278  -10.1662   20.6221 C   0  0  0  0  0  0  0  0  0  0  0  0
  -22.3927   -8.3335   22.5927 C   0  0  0  0  0  0  0  0  0  0  0  0
  -22.9632   -8.8200   20.2960 C   0  0  0  0  0  0  0  0  0  0  0  0
  -28.2729  -13.8878   20.3692 C   0  0  0  0  0  0  0  0  0  0  0  0
  -30.3437  -14.6146   20.2332 C   0  0  0  0  0  0  0  0  0  0  0  0
  -31.5822  -26.6689   17.9275 C   0  0  0  0  0  0  0  0  0  0  0  0
  -32.8582  -26.7106   17.5155 C   0  0  0  0  0  0  0  0  0  0  0  0
  -29.8311  -12.7130   18.6939 C   0  0  0  0  0  0  0  0  0  0  0  0
  -23.4048  -23.8510   21.5031 C   0  0  0  0  0  0  0  0  0  0  0  0
  -21.6364  -26.5023   22.1076 C   0  0  0  0  0  0  0  0  0  0  0  0
  -22.0486  -30.0722   21.7866 C   0  0  0  0  0  0  0  0  0  0  0  0
  -29.4511  -19.9311   22.8107 C   0  0  0  0  0  0  0  0  0  0  0  0
  -21.4285  -19.0511   20.1166 C   0  0  0  0  0  0  0  0  0  0  0  0
  -24.6582  -24.8602   23.4437 C   0  0  0  0  0  0  0  0  0  0  0  0
  -24.0222  -26.8791   21.3787 C   0  0  0  0  0  0  0  0  0  0  0  0
  -30.5512  -27.6811   17.5076 C   0  0  0  0  0  0  0  0  0  0  0  0
  -21.5140  -20.2903   19.2315 C   0  0  0  0  0  0  0  0  0  0  0  0
  -29.8312  -28.2421   18.7279 C   0  0  0  0  0  0  0  0  0  0  0  0
  -31.1186  -17.1266   24.2361 C   0  0  0  0  0  0  0  0  0  0  0  0
  -21.6839  -21.5332   20.0923 C   0  0  0  0  0  0  0  0  0  0  0  0
  -30.6940  -15.9594   23.3419 C   0  0  0  0  0  0  0  0  0  0  0  0
  -29.9835  -18.1292   24.4370 C   0  0  0  0  0  0  0  0  0  0  0  0
  -28.9447  -17.4604   22.3056 C   0  0  0  0  0  0  0  0  0  0  0  0
  -30.4979  -26.1961   20.0447 C   0  0  0  0  0  0  0  0  0  0  0  0
  -23.0004  -21.4777   20.8777 C   0  0  1  0  0  0  0  0  0  0  0  0
  -23.3543  -24.8169   22.6529 C   0  0  1  0  0  0  0  0  0  0  0  0
  -30.0748  -16.4575   22.0213 C   0  0  2  0  0  0  0  0  0  0  0  0
  -29.3509  -27.1242   19.6533 C   0  0  1  0  0  0  0  0  0  1  0  0
  -31.6862  -20.4352   20.6777 C   0  0  0  0  0  0  0  0  0  0  0  0
  -26.9381  -22.1141   20.7371 C   0  0  0  0  0  0  0  0  0  0  0  0
  -33.8942  -25.7193   17.9189 C   0  0  0  0  0  0  0  0  0  0  0  0
  -20.9920  -31.9578   23.0616 C   0  0  0  0  0  0  0  0  0  0  0  0
  -19.5949  -26.5076   19.8399 C   0  0  0  0  0  0  0  0  0  0  0  0
  -19.5593  -29.0075   19.9712 C   0  0  0  0  0  0  0  0  0  0  0  0
  -18.8333  -27.6469   21.9319 C   0  0  0  0  0  0  0  0  0  0  0  0
  -24.6822  -31.2068   22.5187 C   0  0  0  0  0  0  0  0  0  0  0  0
  -30.4356  -24.5427   18.1286 C   0  0  0  0  0  0  0  0  0  0  0  0
  -21.2885  -27.7537   21.3382 C   0  0  1  0  0  0  0  0  0  0  0  0
  -22.2199  -31.0724   22.9157 C   0  0  2  0  0  0  0  0  0  0  0  0
  -19.8434  -27.7150   20.7658 C   0  0  0  0  0  0  0  0  0  0  0  0
  -28.3364  -14.8848   21.2557 N   0  0  0  0  0  0  0  0  0  0  0  0
  -29.6081  -15.3065   21.1499 N   0  0  0  0  0  0  0  0  0  0  0  0
  -22.9856  -26.1213   22.0990 N   0  0  0  0  0  0  0  0  0  0  0  0
  -29.4490  -18.5599   23.1433 N   0  0  0  0  0  0  0  0  0  0  0  0
  -31.6405  -14.9085   20.0004 N   0  0  0  0  0  0  0  0  0  0  0  0
  -29.6501  -13.0640   17.3491 N   0  0  0  0  0  0  0  0  0  0  0  0
  -28.9484  -20.2173   21.5418 N   0  0  0  0  0  0  0  0  0  0  0  0
  -23.0263  -22.5635   21.8328 N   0  0  0  0  0  0  0  0  0  0  0  0
  -21.5443  -28.8717   22.2400 N   0  0  0  0  0  0  0  0  0  0  0  0
  -31.2051  -25.6192   18.8427 N   0  3  1  0  0  0  0  0  0  0  0  0
  -23.4007  -31.9449   22.6601 N   0  3  0  0  0  0  0  0  0  0  0  0
  -30.2637  -11.5701   18.9771 O   0  0  0  0  0  0  0  0  0  0  0  0
  -23.7592  -24.2449   20.3982 O   0  0  0  0  0  0  0  0  0  0  0  0
  -20.7450  -25.8895   22.7005 O   0  0  0  0  0  0  0  0  0  0  0  0
  -22.3304  -30.3314   20.6187 O   0  0  0  0  0  0  0  0  0  0  0  0
  -29.8932  -20.7855   23.5830 O   0  0  0  0  0  0  0  0  0  0  0  0
  -23.4935  -11.0770   19.6452 O   0  0  0  0  0  0  0  0  0  0  0  0
  -28.8164  -27.6962   20.8440 O   0  0  0  0  0  0  0  0  0  1  0  0
  -22.0412   -7.4534   23.5393 F   0  0  0  0  0  0  0  0  0  0  0  0
  -23.1580   -8.4009   19.0381 F   0  0  0  0  0  0  0  0  0  0  0  0
  1  2  1  0  0  0  0
  1  5  2  0  0  0  0
  2  6  2  0  0  0  0
  3  8  2  0  0  0  0
  3 17  1  0  0  0  0
  4  9  1  0  0  0  0
  4 17  2  0  0  0  0
  5 19  1  0  0  0  0
  6 21  1  0  0  0  0
  7 10  2  0  0  0  0
  7 20  1  0  0  0  0
  8 27  1  0  0  0  0
  9 27  2  0  0  0  0
 10 28  1  0  0  0  0
 11 12  2  0  0  0  0
 11 29  1  0  0  0  0
 12 30  1  0  0  0  0
 13 22  1  0  0  0  0
 13 28  2  0  0  0  0
 14 23  1  0  0  0  0
 14 24  2  0  0  0  0
 15 23  2  0  0  0  0
 15 25  1  0  0  0  0
 16 30  2  0  0  0  0
 16 31  1  0  0  0  0
 17 32  1  0  0  0  0
 18 32  1  0  0  0  0
 18 33  2  0  0  0  0
 18 36  1  0  0  0  0
 19 21  2  0  0  0  0
 19 41  1  0  0  0  0
 20 22  2  0  0  0  0
 20 42  1  0  0  0  0
 21 53  1  0  0  0  0
 22 43  1  0  0  0  0
 23 65  1  0  0  0  0
 24 26  1  0  0  0  0
 24 57  1  0  0  0  0
 25 26  2  0  0  0  0
 25 58  1  0  0  0  0
 26 75  1  0  0  0  0
 27 85  1  0  0  0  0
 28 86  1  0  0  0  0
 29 31  2  0  0  0  0
 29 85  1  0  0  0  0
 30 87  1  0  0  0  0
 31 88  1  0  0  0  0
 32 69  2  0  0  0  0
 33 70  1  0  0  0  0
 33 73  1  0  0  0  0
 34 35  2  0  0  0  0
 34 44  1  0  0  0  0
 34 78  1  0  0  0  0
 35 59  1  0  0  0  0
 36 74  1  0  0  0  0
 36 80  2  0  0  0  0
 37 54  1  0  0  0  0
 37 76  1  0  0  0  0
 37 81  2  0  0  0  0
 38 66  1  0  0  0  0
 38 71  1  0  0  0  0
 38 82  2  0  0  0  0
 39 67  1  0  0  0  0
 39 77  1  0  0  0  0
 39 83  2  0  0  0  0
 40 72  1  0  0  0  0
 40 75  1  0  0  0  0
 40 84  2  0  0  0  0
 41 45  1  0  0  0  0
 42 54  1  0  0  0  0
 43 71  1  0  0  0  0
 44 46  1  0  0  0  0
 45 48  1  0  0  0  0
 46 56  1  0  0  0  0
 47 49  1  0  0  0  0
 47 50  1  0  0  0  0
 48 53  1  0  0  0  0
 49 55  1  0  0  0  0
 50 72  1  0  0  0  0
 51 55  1  0  0  0  0
 51 72  1  0  0  0  0
 52 56  1  0  0  0  0
 52 78  1  0  0  0  0
 53 76  1  0  0  0  0
 54 71  1  0  0  0  0
 55 70  1  0  0  0  0
 56 86  1  0  0  0  0
 60 67  1  0  0  0  0
 61 68  1  0  0  0  0
 62 68  1  0  0  0  0
 63 68  1  0  0  0  0
 64 79  1  0  0  0  0
 65 78  1  0  0  0  0
 66 68  1  0  0  0  0
 66 77  1  0  0  0  0
 67 79  1  0  0  0  0
 69 70  1  0  0  0  0
M  CHG  2  78   1  79   1
M  ISO  4  40 100  56 101  75 100  86 101
M  END
> <Batch ID>
0031

> <Smiles>
CC=C1CC[101CH:1]([101O:1]c2ccc3c(c2)CN(C(=O)C(NC(=O)C(C)NC)C(C)(C)C)C(C(=O)NC2CCCc4ccccc42)C3)CN1Cc1cc(C)c([100NH:0][100C:0](=O)N2CCCC(n3nc(-c4ccc(Oc5ccc(F)cc5F)cc4)c(C(N)=O)c3N)C2)c(C)c1

> <Shape>
0.279

> <Color>
0.055

> <Negative vol penalty>
0.000

$$$$

  -OEChem-04042321393D

 84 93  0     1  0  0  0  0  0999 V2000
  -18.0379  -28.4628   18.8378 C   0  0  0  0  0  0  0  0  0  0  0  0
  -19.2730  -27.8235   18.8713 C   0  0  0  0  0  0  0  0  0  0  0  0
  -23.1545   -9.7598   20.1433 C   0  0  0  0  0  0  0  0  0  0  0  0
  -23.8267  -10.0311   22.4480 C   0  0  0  0  0  0  0  0  0  0  0  0
  -17.8348  -29.6240   19.5824 C   0  0  0  0  0  0  0  0  0  0  0  0
  -20.3063  -28.3457   19.6485 C   0  0  0  0  0  0  0  0  0  0  0  0
  -22.7258  -24.7823   22.3117 C   0  0  0  0  0  0  0  0  0  0  0  0
  -22.4305   -8.6187   20.4888 C   0  0  0  0  0  0  0  0  0  0  0  0
  -23.1026   -8.8900   22.7935 C   0  0  0  0  0  0  0  0  0  0  0  0
  -23.6491  -23.9930   21.6275 C   0  0  0  0  0  0  0  0  0  0  0  0
  -19.8747   -8.0683   23.3644 C   0  0  0  0  0  0  0  0  0  0  0  0
  -19.0752   -8.1308   24.5057 C   0  0  0  0  0  0  0  0  0  0  0  0
  -25.4449  -25.3440   22.5044 C   0  0  0  0  0  0  0  0  0  0  0  0
  -30.3816  -20.0739   20.8497 C   0  0  0  0  0  0  0  0  0  0  0  0
  -31.0084  -17.8226   20.2368 C   0  0  0  0  0  0  0  0  0  0  0  0
  -20.3354   -6.3184   25.4877 C   0  0  0  0  0  0  0  0  0  0  0  0
  -23.8527  -10.4660   21.1230 C   0  0  0  0  0  0  0  0  0  0  0  0
  -24.1362  -12.9730   20.7461 C   0  0  0  0  0  0  0  0  0  0  0  0
  -18.8631  -30.1553   20.3767 C   0  0  0  0  0  0  0  0  0  0  0  0
  -23.1550  -25.8669   23.0901 C   0  0  0  0  0  0  0  0  0  0  0  0
  -20.1172  -29.5159   20.4033 C   0  0  0  0  0  0  0  0  0  0  0  0
  -24.5252  -26.1440   23.1996 C   0  0  0  0  0  0  0  0  0  0  0  0
  -31.1566  -19.2014   20.0857 C   0  0  0  0  0  0  0  0  0  0  0  0
  -29.4585  -19.5677   21.7648 C   0  0  0  0  0  0  0  0  0  0  0  0
  -29.3103  -18.1890   21.9158 C   0  0  0  0  0  0  0  0  0  0  0  0
  -30.0853  -17.3164   21.1518 C   0  0  0  0  0  0  0  0  0  0  0  0
  -22.4045   -8.1839   21.8138 C   0  0  0  0  0  0  0  0  0  0  0  0
  -25.0087  -24.2755   21.7214 C   0  0  0  0  0  0  0  0  0  0  0  0
  -20.9045   -7.1308   23.2847 C   0  0  0  0  0  0  0  0  0  0  0  0
  -19.3056   -7.2559   25.5673 C   0  0  0  0  0  0  0  0  0  0  0  0
  -21.1349   -6.2559   24.3464 C   0  0  0  0  0  0  0  0  0  0  0  0
  -24.6012  -11.6444   20.7667 C   0  0  0  0  0  0  0  0  0  0  0  0
  -25.2224  -13.7108   20.3434 C   0  0  0  0  0  0  0  0  0  0  0  0
  -22.8384  -13.4936   21.0629 C   0  0  0  0  0  0  0  0  0  0  0  0
  -22.6869  -29.0098   23.0098 C   0  0  0  0  0  0  0  0  0  0  0  0
  -24.3229  -28.9323   25.8097 C   0  0  0  0  0  0  0  0  0  0  0  0
  -26.5538  -27.3082   27.8178 C   0  0  0  0  0  0  0  0  0  0  0  0
  -30.6505  -14.9251   20.5966 C   0  0  0  0  0  0  0  0  0  0  0  0
  -18.6111  -31.4390   21.1272 C   0  0  0  0  0  0  0  0  0  0  0  0
  -22.1483  -26.6923   23.8434 C   0  0  0  0  0  0  0  0  0  0  0  0
  -25.0389  -27.2846   24.0384 C   0  0  0  0  0  0  0  0  0  0  0  0
  -19.6410  -31.7188   22.2186 C   0  0  0  0  0  0  0  0  0  0  0  0
  -29.6866  -12.2434   18.4620 C   0  0  0  0  0  0  0  0  0  0  0  0
  -21.0540  -31.4943   21.6895 C   0  0  0  0  0  0  0  0  0  0  0  0
  -28.2394  -11.9578   18.8696 C   0  0  0  0  0  0  0  0  0  0  0  0
  -30.5497  -12.6241   19.6637 C   0  0  0  0  0  0  0  0  0  0  0  0
  -28.5745  -13.4357   20.8921 C   0  0  0  0  0  0  0  0  0  0  0  0
  -26.5232  -21.7433   22.7607 C   0  0  0  0  0  0  0  0  0  0  0  0
  -27.1347  -21.3109   20.8109 C   0  0  0  0  0  0  0  0  0  0  0  0
  -21.2550  -30.0378   21.2538 C   0  0  1  0  0  0  0  0  0  0  0  0
  -22.6607  -28.0858   24.1943 C   0  0  1  0  0  0  0  0  0  0  0  0
  -27.6515  -13.1111   19.7062 C   0  0  2  0  0  0  0  0  0  0  0  0
  -25.9485  -22.1085   21.3805 C   0  0  0  0  0  0  0  0  0  1  0  0
  -32.1446  -19.7425   19.1084 C   0  0  0  0  0  0  0  0  0  0  0  0
  -28.3191  -17.6511   22.8997 C   0  0  0  0  0  0  0  0  0  0  0  0
  -27.7222  -27.5084   30.0296 C   0  0  0  0  0  0  0  0  0  0  0  0
  -26.2035  -31.0224   24.6244 C   0  0  0  0  0  0  0  0  0  0  0  0
  -27.8372  -30.4826   26.4431 C   0  0  0  0  0  0  0  0  0  0  0  0
  -25.5929  -31.4069   27.0189 C   0  0  0  0  0  0  0  0  0  0  0  0
  -25.3302  -24.8075   28.8217 C   0  0  0  0  0  0  0  0  0  0  0  0
  -28.6390  -20.5282   22.5753 C   0  0  0  0  0  0  0  0  0  0  0  0
  -25.7784  -29.0220   26.2004 C   0  0  1  0  0  0  0  0  0  0  0  0
  -26.5105  -26.9574   29.2941 C   0  0  2  0  0  0  0  0  0  0  0  0
  -26.3435  -30.4631   26.0542 C   0  0  0  0  0  0  0  0  0  0  0  0
  -25.8830  -11.5411   20.4055 N   0  0  0  0  0  0  0  0  0  0  0  0
  -26.2326  -12.8142   20.1542 N   0  0  0  0  0  0  0  0  0  0  0  0
  -24.0149  -28.0664   24.7509 N   0  0  0  0  0  0  0  0  0  0  0  0
  -29.9326  -13.7255   20.4059 N   0  0  0  0  0  0  0  0  0  0  0  0
  -25.4024  -15.0326   20.1360 N   0  0  0  0  0  0  0  0  0  0  0  0
  -21.8373  -12.5966   21.4596 N   0  0  0  0  0  0  0  0  0  0  0  0
  -29.9500  -15.9126   21.2885 N   0  0  0  0  0  0  0  0  0  0  0  0
  -21.4559  -29.1881   22.4079 N   0  0  0  0  0  0  0  0  0  0  0  0
  -25.8731  -28.4771   27.5504 N   0  0  0  0  0  0  0  0  0  0  0  0
  -27.2371  -20.6271   22.1135 N   0  3  0  0  0  0  0  0  0  0  0  0
  -26.4838  -25.4783   29.4745 N   0  3  0  0  0  0  0  0  0  0  0  0
  -22.5698  -14.7161   20.9802 O   0  0  0  0  0  0  0  0  0  0  0  0
  -23.7454  -29.5242   22.6681 O   0  0  0  0  0  0  0  0  0  0  0  0
  -23.4891  -29.6004   26.4262 O   0  0  0  0  0  0  0  0  0  0  0  0
  -27.1367  -26.6166   26.9856 O   0  0  0  0  0  0  0  0  0  0  0  0
  -31.7920  -15.0757   20.1535 O   0  0  0  0  0  0  0  0  0  0  0  0
  -21.6979   -7.0706   22.1513 O   0  0  0  0  0  0  0  0  0  0  0  0
  -25.9120  -23.5071   21.0541 O   0  0  0  0  0  0  0  0  0  1  0  0
  -18.5387   -7.3170   26.6639 F   0  0  0  0  0  0  0  0  0  0  0  0
  -22.1235   -5.3540   24.2761 F   0  0  0  0  0  0  0  0  0  0  0  0
  1  2  1  0  0  0  0
  1  5  2  0  0  0  0
  2  6  2  0  0  0  0
  3  8  2  0  0  0  0
  3 17  1  0  0  0  0
  4  9  1  0  0  0  0
  4 17  2  0  0  0  0
  5 19  1  0  0  0  0
  6 21  1  0  0  0  0
  7 10  2  0  0  0  0
  7 20  1  0  0  0  0
  8 27  1  0  0  0  0
  9 27  2  0  0  0  0
 10 28  1  0  0  0  0
 11 12  2  0  0  0  0
 11 29  1  0  0  0  0
 12 30  1  0  0  0  0
 13 22  1  0  0  0  0
 13 28  2  0  0  0  0
 14 23  2  0  0  0  0
 14 24  1  0  0  0  0
 15 23  1  0  0  0  0
 15 26  2  0  0  0  0
 16 30  2  0  0  0  0
 16 31  1  0  0  0  0
 17 32  1  0  0  0  0
 18 32  1  0  0  0  0
 18 33  2  0  0  0  0
 18 34  1  0  0  0  0
 19 21  2  0  0  0  0
 19 39  1  0  0  0  0
 20 22  2  0  0  0  0
 20 40  1  0  0  0  0
 21 50  1  0  0  0  0
 22 41  1  0  0  0  0
 23 54  1  0  0  0  0
 24 25  2  0  0  0  0
 24 61  1  0  0  0  0
 25 26  1  0  0  0  0
 25 55  1  0  0  0  0
 26 71  1  0  0  0  0
 27 81  1  0  0  0  0
 28 82  1  0  0  0  0
 29 31  2  0  0  0  0
 29 81  1  0  0  0  0
 30 83  1  0  0  0  0
 31 84  1  0  0  0  0
 32 65  2  0  0  0  0
 33 66  1  0  0  0  0
 33 69  1  0  0  0  0
 34 70  1  0  0  0  0
 34 76  2  0  0  0  0
 35 51  1  0  0  0  0
 35 72  1  0  0  0  0
 35 77  2  0  0  0  0
 36 62  1  0  0  0  0
 36 67  1  0  0  0  0
 36 78  2  0  0  0  0
 37 63  1  0  0  0  0
 37 73  1  0  0  0  0
 37 79  2  0  0  0  0
 38 68  1  0  0  0  0
 38 71  1  0  0  0  0
 38 80  2  0  0  0  0
 39 42  1  0  0  0  0
 40 51  1  0  0  0  0
 41 67  1  0  0  0  0
 42 44  1  0  0  0  0
 43 45  1  0  0  0  0
 43 46  1  0  0  0  0
 44 50  1  0  0  0  0
 45 52  1  0  0  0  0
 46 68  1  0  0  0  0
 47 52  1  0  0  0  0
 47 68  1  0  0  0  0
 48 53  1  0  0  0  0
 48 74  1  0  0  0  0
 49 53  1  0  0  0  0
 49 74  1  0  0  0  0
 50 72  1  0  0  0  0
 51 67  1  0  0  0  0
 52 66  1  0  0  0  0
 53 82  1  0  0  0  0
 56 63  1  0  0  0  0
 57 64  1  0  0  0  0
 58 64  1  0  0  0  0
 59 64  1  0  0  0  0
 60 75  1  0  0  0  0
 61 74  1  0  0  0  0
 62 64  1  0  0  0  0
 62 73  1  0  0  0  0
 63 75  1  0  0  0  0
 65 66  1  0  0  0  0
M  CHG  2  74   1  75   1
M  ISO  4  38 100  53 101  71 100  82 101
M  END
> <Batch ID>
0031

> <Smiles>
CNC(C)C(=O)NC(C(=O)N1Cc2cc([101O:1][101CH:1]3CN(Cc4cc(C)cc([100NH:0][100C:0](=O)N5CCCC(n6nc(-c7ccc(Oc8ccc(F)cc8F)cc7)c(C(N)=O)c6N)C5)c4C)C3)ccc2CC1C(=O)NC1CCCc2ccccc21)C(C)(C)C

> <Shape>
0.254

> <Color>
0.223

> <Negative vol penalty>
0.000

$$$$

  -OEChem-04042321393D

 84 93  0     1  0  0  0  0  0999 V2000
  -22.7309  -21.3997   13.2437 C   0  0  0  0  0  0  0  0  0  0  0  0
  -22.7336  -20.1610   13.8768 C   0  0  0  0  0  0  0  0  0  0  0  0
  -28.0089  -26.1672   17.7863 C   0  0  0  0  0  0  0  0  0  0  0  0
  -27.3436  -25.5654   20.0296 C   0  0  0  0  0  0  0  0  0  0  0  0
  -23.2855  -22.5085   13.8816 C   0  0  0  0  0  0  0  0  0  0  0  0
  -23.2919  -20.0301   15.1479 C   0  0  0  0  0  0  0  0  0  0  0  0
  -21.3843  -16.3353   19.6441 C   0  0  0  0  0  0  0  0  0  0  0  0
  -30.2935  -13.4472   18.7903 C   0  0  0  0  0  0  0  0  0  0  0  0
  -29.7287  -12.2303   18.4086 C   0  0  0  0  0  0  0  0  0  0  0  0
  -26.9920  -27.1209   17.7406 C   0  0  0  0  0  0  0  0  0  0  0  0
  -26.3267  -26.5191   19.9839 C   0  0  0  0  0  0  0  0  0  0  0  0
  -21.8194  -15.0837   20.0778 C   0  0  0  0  0  0  0  0  0  0  0  0
  -26.0397  -29.8697   20.3177 C   0  0  0  0  0  0  0  0  0  0  0  0
  -25.8760  -30.6941   21.4308 C   0  0  0  0  0  0  0  0  0  0  0  0
  -23.1698  -16.1465   21.7707 C   0  0  0  0  0  0  0  0  0  0  0  0
  -28.6977  -13.6216   20.5959 C   0  0  0  0  0  0  0  0  0  0  0  0
  -23.6216  -29.8710   21.7088 C   0  0  0  0  0  0  0  0  0  0  0  0
  -28.1847  -25.3894   18.9308 C   0  0  0  0  0  0  0  0  0  0  0  0
  -30.5576  -24.5917   19.4214 C   0  0  0  0  0  0  0  0  0  0  0  0
  -23.8422  -22.3932   15.1651 C   0  0  0  0  0  0  0  0  0  0  0  0
  -21.8480  -17.5043   20.2645 C   0  0  0  0  0  0  0  0  0  0  0  0
  -23.8557  -21.1381   15.8030 C   0  0  0  0  0  0  0  0  0  0  0  0
  -22.7372  -17.4115   21.3447 C   0  0  0  0  0  0  0  0  0  0  0  0
  -29.7780  -14.1428   19.8840 C   0  0  0  0  0  0  0  0  0  0  0  0
  -28.6484  -11.7090   19.1206 C   0  0  0  0  0  0  0  0  0  0  0  0
  -28.1329  -12.4046   20.2142 C   0  0  0  0  0  0  0  0  0  0  0  0
  -26.1509  -27.2968   18.8393 C   0  0  0  0  0  0  0  0  0  0  0  0
  -22.7145  -14.9893   21.1394 C   0  0  0  0  0  0  0  0  0  0  0  0
  -24.9943  -29.0460   19.9000 C   0  0  0  0  0  0  0  0  0  0  0  0
  -24.6669  -30.6948   22.1264 C   0  0  0  0  0  0  0  0  0  0  0  0
  -23.7853  -29.0466   20.5956 C   0  0  0  0  0  0  0  0  0  0  0  0
  -29.2346  -24.4038   18.9784 C   0  0  0  0  0  0  0  0  0  0  0  0
  -31.1491  -23.3617   19.2677 C   0  0  0  0  0  0  0  0  0  0  0  0
  -31.1948  -25.7725   19.9267 C   0  0  0  0  0  0  0  0  0  0  0  0
  -23.5154  -20.0381   19.3140 C   0  0  0  0  0  0  0  0  0  0  0  0
  -22.8426  -21.1137   22.2994 C   0  0  0  0  0  0  0  0  0  0  0  0
  -22.0216  -20.3749   25.5285 C   0  0  0  0  0  0  0  0  0  0  0  0
  -29.8995  -17.8381   19.8513 C   0  0  0  0  0  0  0  0  0  0  0  0
  -24.4725  -23.6100   15.7950 C   0  0  0  0  0  0  0  0  0  0  0  0
  -21.3485  -18.8456   19.8021 C   0  0  0  0  0  0  0  0  0  0  0  0
  -23.2492  -18.6354   22.0577 C   0  0  0  0  0  0  0  0  0  0  0  0
  -24.7078  -23.4658   17.2964 C   0  0  0  0  0  0  0  0  0  0  0  0
  -30.1698  -19.3360   16.5679 C   0  0  0  0  0  0  0  0  0  0  0  0
  -25.3473  -22.1168   17.6094 C   0  0  0  0  0  0  0  0  0  0  0  0
  -30.0844  -20.8257   16.9053 C   0  0  0  0  0  0  0  0  0  0  0  0
  -29.2466  -18.5131   17.4616 C   0  0  0  0  0  0  0  0  0  0  0  0
  -29.3885  -20.1904   19.2616 C   0  0  0  0  0  0  0  0  0  0  0  0
  -24.5360  -11.6973   21.1645 C   0  0  0  0  0  0  0  0  0  0  0  0
  -25.2479  -13.4171   20.2169 C   0  0  0  0  0  0  0  0  0  0  0  0
  -24.4297  -20.9612   17.1920 C   0  0  1  0  0  0  0  0  0  0  0  0
  -22.2839  -19.9921   20.1735 C   0  0  1  0  0  0  0  0  0  0  0  0
  -30.3157  -21.0742   18.4076 C   0  0  2  0  0  0  0  0  0  0  0  0
  -23.8353  -12.9501   20.6095 C   0  0  0  0  0  0  0  0  0  1  0  0
  -28.0596  -10.4049   18.6925 C   0  0  0  0  0  0  0  0  0  0  0  0
  -21.5764  -21.4621   27.7460 C   0  0  0  0  0  0  0  0  0  0  0  0
  -25.8365  -21.5672   22.6753 C   0  0  0  0  0  0  0  0  0  0  0  0
  -25.4316  -21.7294   25.1407 C   0  0  0  0  0  0  0  0  0  0  0  0
  -24.3828  -23.3826   23.5948 C   0  0  0  0  0  0  0  0  0  0  0  0
  -19.2576  -19.3209   25.6213 C   0  0  0  0  0  0  0  0  0  0  0  0
  -30.3817  -15.4442   20.2915 C   0  0  0  0  0  0  0  0  0  0  0  0
  -26.9714  -11.8637   20.9948 C   0  0  0  0  0  0  0  0  0  0  0  0
  -23.5111  -21.0100   23.6490 C   0  0  1  0  0  0  0  0  0  0  0  0
  -20.9623  -20.9454   26.4542 C   0  0  2  0  0  0  0  0  0  0  0  0
  -24.7826  -21.8991   23.7505 C   0  0  0  0  0  0  0  0  0  0  0  0
  -28.9991  -23.1529   18.5736 N   0  0  0  0  0  0  0  0  0  0  0  0
  -30.1822  -22.5437   18.7614 N   0  0  0  0  0  0  0  0  0  0  0  0
  -22.7363  -19.9243   21.5646 N   0  0  0  0  0  0  0  0  0  0  0  0
  -29.5309  -18.7819   18.8783 N   0  0  0  0  0  0  0  0  0  0  0  0
  -32.3968  -22.9108   19.5175 N   0  0  0  0  0  0  0  0  0  0  0  0
  -30.4416  -26.9509   20.0186 N   0  0  0  0  0  0  0  0  0  0  0  0
  -23.3685  -20.7836   18.1598 N   0  0  0  0  0  0  0  0  0  0  0  0
  -22.4844  -21.3204   24.6380 N   0  0  0  0  0  0  0  0  0  0  0  0
  -30.0056  -16.5254   19.4081 N   0  0  0  0  0  0  0  0  0  0  0  0
  -25.6800  -12.0089   20.2879 N   0  3  0  0  0  0  0  0  0  0  0  0
  -19.9567  -19.9003   26.7971 N   0  3  0  0  0  0  0  0  0  0  0  0
  -32.4010  -25.7865   20.2705 O   0  0  0  0  0  0  0  0  0  0  0  0
  -24.5248  -19.4426   19.6721 O   0  0  0  0  0  0  0  0  0  0  0  0
  -22.4237  -22.2082   21.9146 O   0  0  0  0  0  0  0  0  0  0  0  0
  -22.4031  -19.2083   25.5916 O   0  0  0  0  0  0  0  0  0  0  0  0
  -30.1230  -18.1434   21.0277 O   0  0  0  0  0  0  0  0  0  0  0  0
  -25.1587  -28.2275   18.7952 O   0  0  0  0  0  0  0  0  0  0  0  0
  -23.1412  -13.7689   21.5643 O   0  0  0  0  0  0  0  0  0  1  0  0
  -24.5104  -31.4854   23.1963 F   0  0  0  0  0  0  0  0  0  0  0  0
  -22.7778  -28.2565   20.1999 F   0  0  0  0  0  0  0  0  0  0  0  0
  1  2  1  0  0  0  0
  1  5  2  0  0  0  0
  2  6  2  0  0  0  0
  3 10  2  0  0  0  0
  3 18  1  0  0  0  0
  4 11  1  0  0  0  0
  4 18  2  0  0  0  0
  5 20  1  0  0  0  0
  6 22  1  0  0  0  0
  7 12  2  0  0  0  0
  7 21  1  0  0  0  0
  8  9  2  0  0  0  0
  8 24  1  0  0  0  0
  9 25  1  0  0  0  0
 10 27  1  0  0  0  0
 11 27  2  0  0  0  0
 12 28  1  0  0  0  0
 13 14  2  0  0  0  0
 13 29  1  0  0  0  0
 14 30  1  0  0  0  0
 15 23  1  0  0  0  0
 15 28  2  0  0  0  0
 16 24  2  0  0  0  0
 16 26  1  0  0  0  0
 17 30  2  0  0  0  0
 17 31  1  0  0  0  0
 18 32  1  0  0  0  0
 19 32  1  0  0  0  0
 19 33  2  0  0  0  0
 19 34  1  0  0  0  0
 20 22  2  0  0  0  0
 20 39  1  0  0  0  0
 21 23  2  0  0  0  0
 21 40  1  0  0  0  0
 22 50  1  0  0  0  0
 23 41  1  0  0  0  0
 24 60  1  0  0  0  0
 25 26  2  0  0  0  0
 25 54  1  0  0  0  0
 26 61  1  0  0  0  0
 27 81  1  0  0  0  0
 28 82  1  0  0  0  0
 29 31  2  0  0  0  0
 29 81  1  0  0  0  0
 30 83  1  0  0  0  0
 31 84  1  0  0  0  0
 32 65  2  0  0  0  0
 33 66  1  0  0  0  0
 33 69  1  0  0  0  0
 34 70  1  0  0  0  0
 34 76  2  0  0  0  0
 35 51  1  0  0  0  0
 35 71  1  0  0  0  0
 35 77  2  0  0  0  0
 36 62  1  0  0  0  0
 36 67  1  0  0  0  0
 36 78  2  0  0  0  0
 37 63  1  0  0  0  0
 37 72  1  0  0  0  0
 37 79  2  0  0  0  0
 38 68  1  0  0  0  0
 38 73  1  0  0  0  0
 38 80  2  0  0  0  0
 39 42  1  0  0  0  0
 40 51  1  0  0  0  0
 41 67  1  0  0  0  0
 42 44  1  0  0  0  0
 43 45  1  0  0  0  0
 43 46  1  0  0  0  0
 44 50  1  0  0  0  0
 45 52  1  0  0  0  0
 46 68  1  0  0  0  0
 47 52  1  0  0  0  0
 47 68  1  0  0  0  0
 48 53  1  0  0  0  0
 48 74  1  0  0  0  0
 49 53  1  0  0  0  0
 49 74  1  0  0  0  0
 50 71  1  0  0  0  0
 51 67  1  0  0  0  0
 52 66  1  0  0  0  0
 53 82  1  0  0  0  0
 55 63  1  0  0  0  0
 56 64  1  0  0  0  0
 57 64  1  0  0  0  0
 58 64  1  0  0  0  0
 59 75  1  0  0  0  0
 60 73  1  0  0  0  0
 61 74  1  0  0  0  0
 62 64  1  0  0  0  0
 62 72  1  0  0  0  0
 63 75  1  0  0  0  0
 65 66  1  0  0  0  0
M  CHG  2  74   1  75   1
M  ISO  4  38 100  53 101  73 100  82 101
M  END
> <Batch ID>
0031

> <Smiles>
CNC(C)C(=O)NC(C(=O)N1Cc2cc([101O:1][101CH:1]3CN(Cc4cc(C[100NH:0][100C:0](=O)N5CCCC(n6nc(-c7ccc(Oc8ccc(F)cc8F)cc7)c(C(N)=O)c6N)C5)ccc4C)C3)ccc2CC1C(=O)NC1CCCc2ccccc21)C(C)(C)C

> <Shape>
0.218

> <Color>
0.075

> <Negative vol penalty>
0.000

$$$$

  -OEChem-04042321393D

 86 95  0     1  0  0  0  0  0999 V2000
  -15.8360  -27.5780   27.9220 C   0  0  0  0  0  0  0  0  0  0  0  0
  -17.0980  -27.6917   27.3475 C   0  0  0  0  0  0  0  0  0  0  0  0
  -27.9975  -27.3259   17.1489 C   0  0  0  0  0  0  0  0  0  0  0  0
  -25.3830  -15.8000   21.7332 C   0  0  0  0  0  0  0  0  0  0  0  0
  -24.7928  -16.7012   19.5707 C   0  0  0  0  0  0  0  0  0  0  0  0
  -15.2640  -26.3193   28.1018 C   0  0  0  0  0  0  0  0  0  0  0  0
  -17.7892  -26.5465   26.9536 C   0  0  0  0  0  0  0  0  0  0  0  0
  -19.9071  -27.0330   22.3794 C   0  0  0  0  0  0  0  0  0  0  0  0
  -28.9452  -26.4835   17.7302 C   0  0  0  0  0  0  0  0  0  0  0  0
  -27.3885  -28.3222   17.9120 C   0  0  0  0  0  0  0  0  0  0  0  0
  -24.1593  -15.1329   21.7892 C   0  0  0  0  0  0  0  0  0  0  0  0
  -23.5691  -16.0341   19.6266 C   0  0  0  0  0  0  0  0  0  0  0  0
  -21.0905  -27.7658   22.3004 C   0  0  0  0  0  0  0  0  0  0  0  0
  -22.7907  -12.3261   20.4924 C   0  0  0  0  0  0  0  0  0  0  0  0
  -22.7964  -10.9953   20.9103 C   0  0  0  0  0  0  0  0  0  0  0  0
  -22.3531  -25.7107   22.2585 C   0  0  0  0  0  0  0  0  0  0  0  0
  -21.3475  -11.5689   22.7566 C   0  0  0  0  0  0  0  0  0  0  0  0
  -25.6998  -16.5842   20.6240 C   0  0  0  0  0  0  0  0  0  0  0  0
  -28.1730  -16.7889   20.0334 C   0  0  0  0  0  0  0  0  0  0  0  0
  -15.9445  -25.1587   27.7010 C   0  0  0  0  0  0  0  0  0  0  0  0
  -19.9384  -25.6314   22.4096 C   0  0  0  0  0  0  0  0  0  0  0  0
  -17.2263  -25.2710   27.1294 C   0  0  0  0  0  0  0  0  0  0  0  0
  -21.1685  -24.9624   22.3354 C   0  0  0  0  0  0  0  0  0  0  0  0
  -29.2838  -26.6372   19.0746 C   0  0  0  0  0  0  0  0  0  0  0  0
  -27.7271  -28.4759   19.2564 C   0  0  0  0  0  0  0  0  0  0  0  0
  -28.6748  -27.6334   19.8377 C   0  0  0  0  0  0  0  0  0  0  0  0
  -23.2524  -15.2499   20.7359 C   0  0  0  0  0  0  0  0  0  0  0  0
  -22.3139  -27.1047   22.2429 C   0  0  0  0  0  0  0  0  0  0  0  0
  -22.0635  -13.2783   21.2067 C   0  0  0  0  0  0  0  0  0  0  0  0
  -22.0748  -10.6167   22.0424 C   0  0  0  0  0  0  0  0  0  0  0  0
  -21.3419  -12.8997   22.3387 C   0  0  0  0  0  0  0  0  0  0  0  0
  -26.9634  -17.2740   20.5658 C   0  0  0  0  0  0  0  0  0  0  0  0
  -29.0656  -17.8165   20.2171 C   0  0  0  0  0  0  0  0  0  0  0  0
  -25.3523  -30.0755   21.7260 C   0  0  0  0  0  0  0  0  0  0  0  0
  -26.0100  -30.7903   22.6467 C   0  0  0  0  0  0  0  0  0  0  0  0
  -28.4637  -15.5227   19.4269 C   0  0  0  0  0  0  0  0  0  0  0  0
  -19.0370  -23.4121   24.4991 C   0  0  0  0  0  0  0  0  0  0  0  0
  -19.8427  -21.3825   22.1003 C   0  0  0  0  0  0  0  0  0  0  0  0
  -21.6643  -20.8208   19.2695 C   0  0  0  0  0  0  0  0  0  0  0  0
  -29.2442  -23.5031   20.0112 C   0  0  0  0  0  0  0  0  0  0  0  0
  -15.3057  -23.8171   27.9590 C   0  0  0  0  0  0  0  0  0  0  0  0
  -18.6514  -24.8551   22.4681 C   0  0  0  0  0  0  0  0  0  0  0  0
  -21.2552  -23.4588   22.3441 C   0  0  0  0  0  0  0  0  0  0  0  0
  -23.8743  -30.1106   21.4923 C   0  0  0  0  0  0  0  0  0  0  0  0
  -15.9453  -22.6764   27.1715 C   0  0  0  0  0  0  0  0  0  0  0  0
  -29.2710  -21.7659   23.1859 C   0  0  0  0  0  0  0  0  0  0  0  0
  -17.4659  -22.7473   27.2689 C   0  0  0  0  0  0  0  0  0  0  0  0
  -28.7925  -20.3725   22.7742 C   0  0  0  0  0  0  0  0  0  0  0  0
  -28.5493  -22.8539   22.3962 C   0  0  0  0  0  0  0  0  0  0  0  0
  -28.1762  -21.3214   20.5027 C   0  0  0  0  0  0  0  0  0  0  0  0
  -24.8874  -28.2919   20.2812 C   0  0  0  0  0  0  0  0  0  0  0  0
  -17.9970  -24.0537   26.6664 C   0  0  1  0  0  0  0  0  0  0  0  0
  -18.8309  -23.4407   23.0110 C   0  0  1  0  0  0  0  0  0  0  0  0
  -28.8844  -20.1763   21.2493 C   0  0  2  0  0  0  0  0  0  0  0  0
  -23.6281  -28.6786   21.0436 C   0  0  1  0  0  0  0  0  0  1  0  0
  -29.0378  -27.7982   21.2793 C   0  0  0  0  0  0  0  0  0  0  0  0
  -22.1431  -19.0536   17.5535 C   0  0  0  0  0  0  0  0  0  0  0  0
  -21.6337  -19.9306   24.0988 C   0  0  0  0  0  0  0  0  0  0  0  0
  -22.7742  -18.8219   22.1654 C   0  0  0  0  0  0  0  0  0  0  0  0
  -20.3444  -18.4286   22.5704 C   0  0  0  0  0  0  0  0  0  0  0  0
  -20.6093  -22.5023   17.0744 C   0  0  0  0  0  0  0  0  0  0  0  0
  -30.3019  -25.7221   19.6728 C   0  0  0  0  0  0  0  0  0  0  0  0
  -27.0576  -29.5554   20.0548 C   0  0  0  0  0  0  0  0  0  0  0  0
  -21.1060  -20.6697   21.6820 C   0  0  1  0  0  0  0  0  0  0  0  0
  -21.2754  -20.2479   17.9186 C   0  0  2  0  0  0  0  0  0  0  0  0
  -21.4634  -19.4911   22.6309 C   0  0  0  0  0  0  0  0  0  0  0  0
  -27.0741  -18.5133   21.0515 N   0  0  0  0  0  0  0  0  0  0  0  0
  -28.3638  -18.8156   20.8251 N   0  0  0  0  0  0  0  0  0  0  0  0
  -19.9695  -22.7444   22.4087 N   0  0  0  0  0  0  0  0  0  0  0  0
  -28.6911  -22.6190   20.9523 N   0  0  0  0  0  0  0  0  0  0  0  0
  -30.3744  -17.9539   19.9164 N   0  0  0  0  0  0  0  0  0  0  0  0
  -27.4310  -14.5815   19.3173 N   0  0  0  0  0  0  0  0  0  0  0  0
  -18.0036  -23.9778   25.2212 N   0  0  0  0  0  0  0  0  0  0  0  0
  -20.9121  -20.2784   20.2900 N   0  0  0  0  0  0  0  0  0  0  0  0
  -29.7023  -24.7133   20.5176 N   0  0  0  0  0  0  0  0  0  0  0  0
  -26.0163  -29.0296   20.9964 N   0  3  1  0  0  0  0  0  0  0  0  0
  -21.4260  -21.2809   16.8551 N   0  3  0  0  0  0  0  0  0  0  0  0
  -29.6095  -15.2282   19.0098 O   0  0  0  0  0  0  0  0  0  0  0  0
  -20.0574  -22.9123   24.9582 O   0  0  0  0  0  0  0  0  0  0  0  0
  -18.7812  -20.7558   22.1447 O   0  0  0  0  0  0  0  0  0  0  0  0
  -22.5495  -21.6624   19.4063 O   0  0  0  0  0  0  0  0  0  0  0  0
  -29.3288  -23.2319   18.8085 O   0  0  0  0  0  0  0  0  0  0  0  0
  -22.0583  -14.5989   20.7901 O   0  0  0  0  0  0  0  0  0  0  0  0
  -23.4706  -27.8175   22.1663 O   0  0  0  0  0  0  0  0  0  1  0  0
  -22.0790   -9.3384   22.4426 F   0  0  0  0  0  0  0  0  0  0  0  0
  -20.6404  -13.8098   23.0283 F   0  0  0  0  0  0  0  0  0  0  0  0
  1  2  1  0  0  0  0
  1  6  2  0  0  0  0
  2  7  2  0  0  0  0
  3  9  1  0  0  0  0
  3 10  2  0  0  0  0
  4 11  2  0  0  0  0
  4 18  1  0  0  0  0
  5 12  1  0  0  0  0
  5 18  2  0  0  0  0
  6 20  1  0  0  0  0
  7 22  1  0  0  0  0
  8 13  2  0  0  0  0
  8 21  1  0  0  0  0
  9 24  2  0  0  0  0
 10 25  1  0  0  0  0
 11 27  1  0  0  0  0
 12 27  2  0  0  0  0
 13 28  1  0  0  0  0
 14 15  2  0  0  0  0
 14 29  1  0  0  0  0
 15 30  1  0  0  0  0
 16 23  1  0  0  0  0
 16 28  2  0  0  0  0
 17 30  2  0  0  0  0
 17 31  1  0  0  0  0
 18 32  1  0  0  0  0
 19 32  1  0  0  0  0
 19 33  2  0  0  0  0
 19 36  1  0  0  0  0
 20 22  2  0  0  0  0
 20 41  1  0  0  0  0
 21 23  2  0  0  0  0
 21 42  1  0  0  0  0
 22 52  1  0  0  0  0
 23 43  1  0  0  0  0
 24 26  1  0  0  0  0
 24 62  1  0  0  0  0
 25 26  2  0  0  0  0
 25 63  1  0  0  0  0
 26 56  1  0  0  0  0
 27 83  1  0  0  0  0
 28 84  1  0  0  0  0
 29 31  2  0  0  0  0
 29 83  1  0  0  0  0
 30 85  1  0  0  0  0
 31 86  1  0  0  0  0
 32 67  2  0  0  0  0
 33 68  1  0  0  0  0
 33 71  1  0  0  0  0
 34 35  2  0  0  0  0
 34 44  1  0  0  0  0
 34 76  1  0  0  0  0
 36 72  1  0  0  0  0
 36 78  2  0  0  0  0
 37 53  1  0  0  0  0
 37 73  1  0  0  0  0
 37 79  2  0  0  0  0
 38 64  1  0  0  0  0
 38 69  1  0  0  0  0
 38 80  2  0  0  0  0
 39 65  1  0  0  0  0
 39 74  1  0  0  0  0
 39 81  2  0  0  0  0
 40 70  1  0  0  0  0
 40 75  1  0  0  0  0
 40 82  2  0  0  0  0
 41 45  1  0  0  0  0
 42 53  1  0  0  0  0
 43 69  1  0  0  0  0
 44 55  1  0  0  0  0
 45 47  1  0  0  0  0
 46 48  1  0  0  0  0
 46 49  1  0  0  0  0
 47 52  1  0  0  0  0
 48 54  1  0  0  0  0
 49 70  1  0  0  0  0
 50 54  1  0  0  0  0
 50 70  1  0  0  0  0
 51 55  1  0  0  0  0
 51 76  1  0  0  0  0
 52 73  1  0  0  0  0
 53 69  1  0  0  0  0
 54 68  1  0  0  0  0
 55 84  1  0  0  0  0
 57 65  1  0  0  0  0
 58 66  1  0  0  0  0
 59 66  1  0  0  0  0
 60 66  1  0  0  0  0
 61 77  1  0  0  0  0
 62 75  1  0  0  0  0
 63 76  1  0  0  0  0
 64 66  1  0  0  0  0
 64 74  1  0  0  0  0
 65 77  1  0  0  0  0
 67 68  1  0  0  0  0
M  CHG  2  76   1  77   1
M  ISO  4  40 100  55 101  75 100  84 101
M  END
> <Batch ID>
0031

> <Smiles>
C=C1C[101CH:1]([101O:1]c2ccc3c(c2)CN(C(=O)C(NC(=O)C(C)NC)C(C)(C)C)C(C(=O)NC2CCCc4ccccc42)C3)CN1Cc1cccc(C[100NH:0][100C:0](=O)N2CCCC(n3nc(-c4ccc(Oc5ccc(F)cc5F)cc4)c(C(N)=O)c3N)C2)c1C

> <Shape>
0.205

> <Color>
0.060

> <Negative vol penalty>
0.000

$$$$

  -OEChem-04042321393D

 89 98  0     1  0  0  0  0  0999 V2000
  -23.5147  -30.4933   21.8344 C   0  0  0  0  0  0  0  0  0  0  0  0
  -23.6305  -29.1197   21.6462 C   0  0  0  0  0  0  0  0  0  0  0  0
  -30.6022  -14.9166   14.6855 C   0  0  0  0  0  0  0  0  0  0  0  0
  -23.0342  -15.5007   23.5388 C   0  0  0  0  0  0  0  0  0  0  0  0
  -22.5254  -16.1403   21.2652 C   0  0  0  0  0  0  0  0  0  0  0  0
  -24.5346  -31.3426   21.4075 C   0  0  0  0  0  0  0  0  0  0  0  0
  -24.7659  -28.5949   21.0299 C   0  0  0  0  0  0  0  0  0  0  0  0
  -27.4922  -23.2535   22.2718 C   0  0  0  0  0  0  0  0  0  0  0  0
  -29.9373  -15.6783   13.7247 C   0  0  0  0  0  0  0  0  0  0  0  0
  -30.3706  -15.1477   16.0415 C   0  0  0  0  0  0  0  0  0  0  0  0
  -21.9896  -16.3028   23.9982 C   0  0  0  0  0  0  0  0  0  0  0  0
  -21.4808  -16.9423   21.7246 C   0  0  0  0  0  0  0  0  0  0  0  0
  -27.4258  -22.0020   21.6608 C   0  0  0  0  0  0  0  0  0  0  0  0
  -21.4387  -19.5880   24.5711 C   0  0  0  0  0  0  0  0  0  0  0  0
  -21.6872  -20.4060   25.6732 C   0  0  0  0  0  0  0  0  0  0  0  0
  -29.4173  -22.5180   20.4012 C   0  0  0  0  0  0  0  0  0  0  0  0
  -19.9348  -19.2840   26.9010 C   0  0  0  0  0  0  0  0  0  0  0  0
  -23.3021  -15.4195   22.1723 C   0  0  0  0  0  0  0  0  0  0  0  0
  -24.3135  -13.2341   21.3303 C   0  0  0  0  0  0  0  0  0  0  0  0
  -25.6874  -30.8271   20.7943 C   0  0  0  0  0  0  0  0  0  0  0  0
  -28.5173  -24.1523   21.9435 C   0  0  0  0  0  0  0  0  0  0  0  0
  -25.8015  -29.4383   20.5931 C   0  0  0  0  0  0  0  0  0  0  0  0
  -29.4960  -23.7792   21.0113 C   0  0  0  0  0  0  0  0  0  0  0  0
  -29.0408  -16.6712   14.1198 C   0  0  0  0  0  0  0  0  0  0  0  0
  -28.8091  -16.9023   15.4757 C   0  0  0  0  0  0  0  0  0  0  0  0
  -29.4740  -16.1406   16.4366 C   0  0  0  0  0  0  0  0  0  0  0  0
  -21.2129  -17.0236   23.0912 C   0  0  0  0  0  0  0  0  0  0  0  0
  -28.3867  -21.6353   20.7232 C   0  0  0  0  0  0  0  0  0  0  0  0
  -20.4383  -18.6180   24.6339 C   0  0  0  0  0  0  0  0  0  0  0  0
  -20.9353  -20.2540   26.8382 C   0  0  0  0  0  0  0  0  0  0  0  0
  -19.6863  -18.4660   25.7988 C   0  0  0  0  0  0  0  0  0  0  0  0
  -24.3814  -14.5915   21.6971 C   0  0  0  0  0  0  0  0  0  0  0  0
  -25.5952  -12.9158   20.9530 C   0  0  0  0  0  0  0  0  0  0  0  0
  -23.1921  -12.3408   21.3304 C   0  0  0  0  0  0  0  0  0  0  0  0
  -28.6267  -27.0576   20.6586 C   0  0  0  0  0  0  0  0  0  0  0  0
  -31.7855  -26.8233   21.3582 C   0  0  0  0  0  0  0  0  0  0  0  0
  -28.0955  -19.2363   18.0416 C   0  0  0  0  0  0  0  0  0  0  0  0
  -34.4789  -24.8151   21.9577 C   0  0  0  0  0  0  0  0  0  0  0  0
  -30.1586  -16.1569   18.8609 C   0  0  0  0  0  0  0  0  0  0  0  0
  -26.7421  -31.7886   20.3068 C   0  0  0  0  0  0  0  0  0  0  0  0
  -28.5901  -25.4880   22.6312 C   0  0  0  0  0  0  0  0  0  0  0  0
  -30.6284  -24.6998   20.6389 C   0  0  0  0  0  0  0  0  0  0  0  0
  -28.0802  -31.1209   20.0004 C   0  0  0  0  0  0  0  0  0  0  0  0
  -30.1535  -14.1258   21.7853 C   0  0  0  0  0  0  0  0  0  0  0  0
  -25.4320  -15.6460   11.7170 C   0  0  0  0  0  0  0  0  0  0  0  0
  -25.5820  -16.9066   10.8893 C   0  0  0  0  0  0  0  0  0  0  0  0
  -27.8685  -29.8534   19.1785 C   0  0  0  0  0  0  0  0  0  0  0  0
  -28.6667  -13.8862   22.0577 C   0  0  0  0  0  0  0  0  0  0  0  0
  -30.4128  -15.5341   21.2531 C   0  0  0  0  0  0  0  0  0  0  0  0
  -28.1224  -15.6741   20.3565 C   0  0  0  0  0  0  0  0  0  0  0  0
  -26.7077  -15.6325   12.5314 C   0  0  0  0  0  0  0  0  0  0  0  0
  -26.1633  -17.9187   11.8608 C   0  0  0  0  0  0  0  0  0  0  0  0
  -27.0289  -28.8288   19.9509 C   0  0  1  0  0  0  0  0  0  0  0  0
  -29.3841  -26.5241   21.8415 C   0  0  1  0  0  0  0  0  0  0  0  0
  -27.8040  -14.2474   20.8326 C   0  0  2  0  0  0  0  0  0  0  0  0
  -36.9354  -24.9125   22.4611 C   0  0  0  0  0  0  0  0  0  0  0  0
  -32.3545  -27.5013   18.4382 C   0  0  0  0  0  0  0  0  0  0  0  0
  -34.6901  -26.6632   18.7713 C   0  0  0  0  0  0  0  0  0  0  0  0
  -33.8700  -28.6199   20.0833 C   0  0  0  0  0  0  0  0  0  0  0  0
  -29.5548  -19.7347   16.0733 C   0  0  0  0  0  0  0  0  0  0  0  0
  -34.1194  -23.4411   24.5542 C   0  0  0  0  0  0  0  0  0  0  0  0
  -27.8431  -17.9721   15.8961 C   0  0  0  0  0  0  0  0  0  0  0  0
  -28.3422  -17.4723   13.0703 C   0  0  0  0  0  0  0  0  0  0  0  0
  -28.8425  -20.3136   18.7993 C   0  0  0  0  0  0  0  0  0  1  0  0
  -33.0056  -26.3086   20.6335 C   0  0  1  0  0  0  0  0  0  0  0  0
  -35.5343  -24.8445   23.0485 C   0  0  2  0  0  0  0  0  0  0  0  0
  -33.4577  -27.2564   19.4869 C   0  0  0  0  0  0  0  0  0  0  0  0
  -25.6092  -15.1005   21.5650 N   0  0  0  0  0  0  0  0  0  0  0  0
  -26.3246  -14.0574   21.1110 N   0  0  0  0  0  0  0  0  0  0  0  0
  -30.6527  -25.9974   21.3340 N   0  0  0  0  0  0  0  0  0  0  0  0
  -29.5637  -15.8041   20.0908 N   0  0  0  0  0  0  0  0  0  0  0  0
  -26.1583  -11.7736   20.5049 N   0  0  0  0  0  0  0  0  0  0  0  0
  -21.9472  -12.8312   21.7477 N   0  0  0  0  0  0  0  0  0  0  0  0
  -29.2535  -16.3578   17.8193 N   0  0  0  0  0  0  0  0  0  0  0  0
  -27.8394  -28.1568   20.9439 N   0  0  0  0  0  0  0  0  0  0  0  0
  -34.0214  -26.0803   21.6556 N   0  0  0  0  0  0  0  0  0  0  0  0
  -28.4827  -18.9915   16.7238 N   0  0  0  0  0  0  0  0  0  0  0  0
  -26.9087  -17.0886   12.8900 N   0  3  0  0  0  0  0  0  0  0  0  0
  -35.4384  -23.6217   23.8951 N   0  3  0  0  0  0  0  0  0  0  0  0
  -23.2944  -11.1387   20.9867 O   0  0  0  0  0  0  0  0  0  0  0  0
  -28.7487  -26.5133   19.5675 O   0  0  0  0  0  0  0  0  0  0  0  0
  -31.8378  -27.9146   21.9309 O   0  0  0  0  0  0  0  0  0  0  0  0
  -27.1918  -18.6235   18.6185 O   0  0  0  0  0  0  0  0  0  0  0  0
  -34.1010  -23.7743   21.4243 O   0  0  0  0  0  0  0  0  0  0  0  0
  -31.3825  -16.2456   18.7339 O   0  0  0  0  0  0  0  0  0  0  0  0
  -20.1933  -17.8062   23.5391 O   0  0  0  0  0  0  0  0  0  0  0  0
  -28.3239  -20.4146   20.1249 O   0  0  0  0  0  0  0  0  0  1  0  0
  -21.1750  -21.0386   27.8970 F   0  0  0  0  0  0  0  0  0  0  0  0
  -18.7246  -17.5351   25.8655 F   0  0  0  0  0  0  0  0  0  0  0  0
  1  2  1  0  0  0  0
  1  6  2  0  0  0  0
  2  7  2  0  0  0  0
  3  9  1  0  0  0  0
  3 10  2  0  0  0  0
  4 11  2  0  0  0  0
  4 18  1  0  0  0  0
  5 12  1  0  0  0  0
  5 18  2  0  0  0  0
  6 20  1  0  0  0  0
  7 22  1  0  0  0  0
  8 13  2  0  0  0  0
  8 21  1  0  0  0  0
  9 24  2  0  0  0  0
 10 26  1  0  0  0  0
 11 27  1  0  0  0  0
 12 27  2  0  0  0  0
 13 28  1  0  0  0  0
 14 15  2  0  0  0  0
 14 29  1  0  0  0  0
 15 30  1  0  0  0  0
 16 23  1  0  0  0  0
 16 28  2  0  0  0  0
 17 30  2  0  0  0  0
 17 31  1  0  0  0  0
 18 32  1  0  0  0  0
 19 32  1  0  0  0  0
 19 33  2  0  0  0  0
 19 34  1  0  0  0  0
 20 22  2  0  0  0  0
 20 40  1  0  0  0  0
 21 23  2  0  0  0  0
 21 41  1  0  0  0  0
 22 53  1  0  0  0  0
 23 42  1  0  0  0  0
 24 25  1  0  0  0  0
 24 63  1  0  0  0  0
 25 26  2  0  0  0  0
 25 62  1  0  0  0  0
 26 74  1  0  0  0  0
 27 86  1  0  0  0  0
 28 87  1  0  0  0  0
 29 31  2  0  0  0  0
 29 86  1  0  0  0  0
 30 88  1  0  0  0  0
 31 89  1  0  0  0  0
 32 68  2  0  0  0  0
 33 69  1  0  0  0  0
 33 72  1  0  0  0  0
 34 73  1  0  0  0  0
 34 80  2  0  0  0  0
 35 54  1  0  0  0  0
 35 75  1  0  0  0  0
 35 81  2  0  0  0  0
 36 65  1  0  0  0  0
 36 70  1  0  0  0  0
 36 82  2  0  0  0  0
 37 64  1  0  0  0  0
 37 77  1  0  0  0  0
 37 83  2  0  0  0  0
 38 66  1  0  0  0  0
 38 76  1  0  0  0  0
 38 84  2  0  0  0  0
 39 71  1  0  0  0  0
 39 74  1  0  0  0  0
 39 85  2  0  0  0  0
 40 43  1  0  0  0  0
 41 54  1  0  0  0  0
 42 70  1  0  0  0  0
 43 47  1  0  0  0  0
 44 48  1  0  0  0  0
 44 49  1  0  0  0  0
 45 46  1  0  0  0  0
 45 51  1  0  0  0  0
 46 52  1  0  0  0  0
 47 53  1  0  0  0  0
 48 55  1  0  0  0  0
 49 71  1  0  0  0  0
 50 55  1  0  0  0  0
 50 71  1  0  0  0  0
 51 78  1  0  0  0  0
 52 78  1  0  0  0  0
 53 75  1  0  0  0  0
 54 70  1  0  0  0  0
 55 69  1  0  0  0  0
 56 66  1  0  0  0  0
 57 67  1  0  0  0  0
 58 67  1  0  0  0  0
 59 67  1  0  0  0  0
 60 77  1  0  0  0  0
 61 79  1  0  0  0  0
 62 77  1  0  0  0  0
 63 78  1  0  0  0  0
 64 87  1  0  0  0  0
 65 67  1  0  0  0  0
 65 76  1  0  0  0  0
 66 79  1  0  0  0  0
 68 69  1  0  0  0  0
M  CHG  2  78   1  79   1
M  ISO  4  39 100  64 101  74 100  87 101
M  END
> <Batch ID>
0031

> <Smiles>
CNC(C)C(=O)NC(C(=O)N1Cc2cc([101O:1][101CH2:1]C(=O)N(C)Cc3c(CN4CCCC4)cccc3[100NH:0][100C:0](=O)N3CCCC(n4nc(-c5ccc(Oc6ccc(F)cc6F)cc5)c(C(N)=O)c4N)C3)ccc2CC1C(=O)NC1CCCc2ccccc21)C(C)(C)C

> <Shape>
0.184

> <Color>
0.078

> <Negative vol penalty>
0.000

$$$$

  -OEChem-04042321393D

 84 93  0     1  0  0  0  0  0999 V2000
  -30.4252  -35.4387   14.4239 C   0  0  0  0  0  0  0  0  0  0  0  0
  -30.6633  -34.0902   14.1785 C   0  0  0  0  0  0  0  0  0  0  0  0
  -23.1224   -9.8502   19.9337 C   0  0  0  0  0  0  0  0  0  0  0  0
  -23.8717   -9.8774   22.2305 C   0  0  0  0  0  0  0  0  0  0  0  0
  -30.3531  -35.9052   15.7358 C   0  0  0  0  0  0  0  0  0  0  0  0
  -30.8307  -33.2076   15.2449 C   0  0  0  0  0  0  0  0  0  0  0  0
  -29.5792  -26.4055   17.1110 C   0  0  0  0  0  0  0  0  0  0  0  0
  -31.4013  -19.5535   22.8240 C   0  0  0  0  0  0  0  0  0  0  0  0
  -22.4010   -8.6827   20.1829 C   0  0  0  0  0  0  0  0  0  0  0  0
  -23.1503   -8.7099   22.4796 C   0  0  0  0  0  0  0  0  0  0  0  0
  -30.2396  -25.2912   17.6267 C   0  0  0  0  0  0  0  0  0  0  0  0
  -19.9364   -7.8476   23.0695 C   0  0  0  0  0  0  0  0  0  0  0  0
  -19.1752   -7.7947   24.2371 C   0  0  0  0  0  0  0  0  0  0  0  0
  -32.0950  -18.3908   23.1594 C   0  0  0  0  0  0  0  0  0  0  0  0
  -30.0157  -26.1958   19.8518 C   0  0  0  0  0  0  0  0  0  0  0  0
  -20.4525   -5.8844   24.9832 C   0  0  0  0  0  0  0  0  0  0  0  0
  -23.8577  -10.4476   20.9575 C   0  0  0  0  0  0  0  0  0  0  0  0
  -24.1485  -12.9789   20.8336 C   0  0  0  0  0  0  0  0  0  0  0  0
  -30.5100  -35.0261   16.8190 C   0  0  0  0  0  0  0  0  0  0  0  0
  -29.1410  -27.4302   17.9621 C   0  0  0  0  0  0  0  0  0  0  0  0
  -30.7619  -33.6629   16.5725 C   0  0  0  0  0  0  0  0  0  0  0  0
  -29.3477  -27.3209   19.3446 C   0  0  0  0  0  0  0  0  0  0  0  0
  -30.2454  -19.4765   22.0470 C   0  0  0  0  0  0  0  0  0  0  0  0
  -29.7833  -18.2367   21.6053 C   0  0  0  0  0  0  0  0  0  0  0  0
  -30.4770  -17.0740   21.9406 C   0  0  0  0  0  0  0  0  0  0  0  0
  -22.4150   -8.1125   21.4558 C   0  0  0  0  0  0  0  0  0  0  0  0
  -30.4605  -25.1876   18.9970 C   0  0  0  0  0  0  0  0  0  0  0  0
  -20.9556   -6.9189   22.8587 C   0  0  0  0  0  0  0  0  0  0  0  0
  -19.4332   -6.8131   25.1940 C   0  0  0  0  0  0  0  0  0  0  0  0
  -21.2137   -5.9374   23.8155 C   0  0  0  0  0  0  0  0  0  0  0  0
  -31.6329  -17.1510   22.7176 C   0  0  0  0  0  0  0  0  0  0  0  0
  -24.6035  -11.6534   20.7007 C   0  0  0  0  0  0  0  0  0  0  0  0
  -25.2268  -13.7498   20.4736 C   0  0  0  0  0  0  0  0  0  0  0  0
  -22.8659  -13.4696   21.2458 C   0  0  0  0  0  0  0  0  0  0  0  0
  -29.7964  -30.5254   18.2687 C   0  0  0  0  0  0  0  0  0  0  0  0
  -27.3952  -30.4194   20.4470 C   0  0  0  0  0  0  0  0  0  0  0  0
  -25.5368  -28.5588   22.6222 C   0  0  0  0  0  0  0  0  0  0  0  0
  -30.6697  -14.9070   20.6703 C   0  0  0  0  0  0  0  0  0  0  0  0
  -30.4708  -35.5851   18.2192 C   0  0  0  0  0  0  0  0  0  0  0  0
  -28.4065  -28.6130   17.3929 C   0  0  0  0  0  0  0  0  0  0  0  0
  -28.8790  -28.3839   20.3031 C   0  0  0  0  0  0  0  0  0  0  0  0
  -30.2864  -34.5187   19.2958 C   0  0  0  0  0  0  0  0  0  0  0  0
  -29.6154  -12.4661   18.3023 C   0  0  0  0  0  0  0  0  0  0  0  0
  -31.2250  -33.3421   19.0481 C   0  0  0  0  0  0  0  0  0  0  0  0
  -28.1801  -12.1461   18.7261 C   0  0  0  0  0  0  0  0  0  0  0  0
  -30.5202  -12.7160   19.5075 C   0  0  0  0  0  0  0  0  0  0  0  0
  -28.5927  -13.4043   20.8787 C   0  0  0  0  0  0  0  0  0  0  0  0
  -29.2073  -22.5214   20.0491 C   0  0  0  0  0  0  0  0  0  0  0  0
  -31.1001  -21.6384   20.0611 C   0  0  0  0  0  0  0  0  0  0  0  0
  -30.9241  -32.6700   17.7030 C   0  0  1  0  0  0  0  0  0  0  0  0
  -28.4593  -29.8407   18.2971 C   0  0  1  0  0  0  0  0  0  0  0  0
  -27.6289  -13.2088   19.6970 C   0  0  2  0  0  0  0  0  0  0  0  0
  -30.5030  -22.8175   19.2731 C   0  0  0  0  0  0  0  0  0  1  0  0
  -28.5408  -18.1630   20.7734 C   0  0  0  0  0  0  0  0  0  0  0  0
  -23.6724  -28.7576   24.2901 C   0  0  0  0  0  0  0  0  0  0  0  0
  -29.3226  -31.6817   22.4474 C   0  0  0  0  0  0  0  0  0  0  0  0
  -27.7649  -30.9877   24.2805 C   0  0  0  0  0  0  0  0  0  0  0  0
  -26.9930  -32.5876   22.5292 C   0  0  0  0  0  0  0  0  0  0  0  0
  -23.8181  -26.6935   21.0972 C   0  0  0  0  0  0  0  0  0  0  0  0
  -29.5192  -20.7427   21.7003 C   0  0  0  0  0  0  0  0  0  0  0  0
  -27.3083  -30.1517   21.9302 C   0  0  1  0  0  0  0  0  0  0  0  0
  -24.0377  -28.4664   22.8428 C   0  0  2  0  0  0  0  0  0  0  0  0
  -27.8579  -31.3329   22.7788 C   0  0  0  0  0  0  0  0  0  0  0  0
  -25.8719  -11.5825   20.2882 N   0  0  0  0  0  0  0  0  0  0  0  0
  -26.2232  -12.8732   20.1588 N   0  0  0  0  0  0  0  0  0  0  0  0
  -28.1713  -29.5241   19.6974 N   0  0  0  0  0  0  0  0  0  0  0  0
  -29.9364  -13.7370   20.3802 N   0  0  0  0  0  0  0  0  0  0  0  0
  -25.4104  -15.0851   20.3986 N   0  0  0  0  0  0  0  0  0  0  0  0
  -21.8713  -12.5407   21.5805 N   0  0  0  0  0  0  0  0  0  0  0  0
  -29.9999  -15.8203   21.4839 N   0  0  0  0  0  0  0  0  0  0  0  0
  -29.7518  -31.8281   17.8098 N   0  0  0  0  0  0  0  0  0  0  0  0
  -25.9149  -29.8170   22.2036 N   0  0  0  0  0  0  0  0  0  0  0  0
  -29.7242  -21.1628   20.2969 N   0  3  0  0  0  0  0  0  0  0  0  0
  -23.5467  -27.1019   22.4996 N   0  3  0  0  0  0  0  0  0  0  0  0
  -22.6044  -14.6953   21.2994 O   0  0  0  0  0  0  0  0  0  0  0  0
  -30.7945  -29.9174   18.6373 O   0  0  0  0  0  0  0  0  0  0  0  0
  -26.7908  -31.3831   19.9700 O   0  0  0  0  0  0  0  0  0  0  0  0
  -26.2969  -27.6107   22.8066 O   0  0  0  0  0  0  0  0  0  0  0  0
  -31.7972  -15.0978   20.2074 O   0  0  0  0  0  0  0  0  0  0  0  0
  -21.7110   -6.9733   21.6993 O   0  0  0  0  0  0  0  0  0  0  0  0
  -31.1054  -24.1013   19.5029 O   0  0  0  0  0  0  0  0  0  1  0  0
  -18.7031   -6.7633   26.3159 F   0  0  0  0  0  0  0  0  0  0  0  0
  -22.1923   -5.0432   23.6191 F   0  0  0  0  0  0  0  0  0  0  0  0
  -32.5232  -15.7381   23.1623 Cl  0  0  0  0  0  0  0  0  0  0  0  0
  1  2  1  0  0  0  0
  1  5  2  0  0  0  0
  2  6  2  0  0  0  0
  3  9  2  0  0  0  0
  3 17  1  0  0  0  0
  4 10  1  0  0  0  0
  4 17  2  0  0  0  0
  5 19  1  0  0  0  0
  6 21  1  0  0  0  0
  7 11  2  0  0  0  0
  7 20  1  0  0  0  0
  8 14  2  0  0  0  0
  8 23  1  0  0  0  0
  9 26  1  0  0  0  0
 10 26  2  0  0  0  0
 11 27  1  0  0  0  0
 12 13  2  0  0  0  0
 12 28  1  0  0  0  0
 13 29  1  0  0  0  0
 14 31  1  0  0  0  0
 15 22  1  0  0  0  0
 15 27  2  0  0  0  0
 16 29  2  0  0  0  0
 16 30  1  0  0  0  0
 17 32  1  0  0  0  0
 18 32  1  0  0  0  0
 18 33  2  0  0  0  0
 18 34  1  0  0  0  0
 19 21  2  0  0  0  0
 19 39  1  0  0  0  0
 20 22  2  0  0  0  0
 20 40  1  0  0  0  0
 21 50  1  0  0  0  0
 22 41  1  0  0  0  0
 23 24  2  0  0  0  0
 23 60  1  0  0  0  0
 24 25  1  0  0  0  0
 24 54  1  0  0  0  0
 25 31  2  0  0  0  0
 25 70  1  0  0  0  0
 26 80  1  0  0  0  0
 27 81  1  0  0  0  0
 28 30  2  0  0  0  0
 28 80  1  0  0  0  0
 29 82  1  0  0  0  0
 30 83  1  0  0  0  0
 31 84  1  0  0  0  0
 32 64  2  0  0  0  0
 33 65  1  0  0  0  0
 33 68  1  0  0  0  0
 34 69  1  0  0  0  0
 34 75  2  0  0  0  0
 35 51  1  0  0  0  0
 35 71  1  0  0  0  0
 35 76  2  0  0  0  0
 36 61  1  0  0  0  0
 36 66  1  0  0  0  0
 36 77  2  0  0  0  0
 37 62  1  0  0  0  0
 37 72  1  0  0  0  0
 37 78  2  0  0  0  0
 38 67  1  0  0  0  0
 38 70  1  0  0  0  0
 38 79  2  0  0  0  0
 39 42  1  0  0  0  0
 40 51  1  0  0  0  0
 41 66  1  0  0  0  0
 42 44  1  0  0  0  0
 43 45  1  0  0  0  0
 43 46  1  0  0  0  0
 44 50  1  0  0  0  0
 45 52  1  0  0  0  0
 46 67  1  0  0  0  0
 47 52  1  0  0  0  0
 47 67  1  0  0  0  0
 48 53  1  0  0  0  0
 48 73  1  0  0  0  0
 49 53  1  0  0  0  0
 49 73  1  0  0  0  0
 50 71  1  0  0  0  0
 51 66  1  0  0  0  0
 52 65  1  0  0  0  0
 53 81  1  0  0  0  0
 55 62  1  0  0  0  0
 56 63  1  0  0  0  0
 57 63  1  0  0  0  0
 58 63  1  0  0  0  0
 59 74  1  0  0  0  0
 60 73  1  0  0  0  0
 61 63  1  0  0  0  0
 61 72  1  0  0  0  0
 62 74  1  0  0  0  0
 64 65  1  0  0  0  0
M  CHG  2  73   1  74   1
M  ISO  4  38 100  53 101  70 100  81 101
M  END
> <Batch ID>
0031

> <Smiles>
CNC(C)C(=O)NC(C(=O)N1Cc2cc([101O:1][101CH:1]3CN(Cc4ccc(Cl)c([100NH:0][100C:0](=O)N5CCCC(n6nc(-c7ccc(Oc8ccc(F)cc8F)cc7)c(C(N)=O)c6N)C5)c4C)C3)ccc2CC1C(=O)NC1CCCc2ccccc21)C(C)(C)C

> <Shape>
0.305

> <Color>
0.191

> <Negative vol penalty>
0.000

$$$$

  -OEChem-04042321393D

 84 93  0     1  0  0  0  0  0999 V2000
  -28.8638  -37.0922   20.5401 C   0  0  0  0  0  0  0  0  0  0  0  0
  -29.1347  -35.7557   20.2647 C   0  0  0  0  0  0  0  0  0  0  0  0
  -24.4671   -9.0060   21.2848 C   0  0  0  0  0  0  0  0  0  0  0  0
  -22.5441  -10.3577   20.7261 C   0  0  0  0  0  0  0  0  0  0  0  0
  -27.9714  -37.4260   21.5580 C   0  0  0  0  0  0  0  0  0  0  0  0
  -28.5141  -34.7522   21.0079 C   0  0  0  0  0  0  0  0  0  0  0  0
  -26.7223  -29.2532   18.9942 C   0  0  0  0  0  0  0  0  0  0  0  0
  -23.6389   -7.8959   21.4496 C   0  0  0  0  0  0  0  0  0  0  0  0
  -21.7159   -9.2475   20.8909 C   0  0  0  0  0  0  0  0  0  0  0  0
  -27.3087  -27.9905   19.0678 C   0  0  0  0  0  0  0  0  0  0  0  0
  -21.5404   -6.6821   23.8049 C   0  0  0  0  0  0  0  0  0  0  0  0
  -21.7477   -5.8807   24.9276 C   0  0  0  0  0  0  0  0  0  0  0  0
  -25.9918  -27.4999   21.0285 C   0  0  0  0  0  0  0  0  0  0  0  0
  -22.1949   -3.9880   23.4941 C   0  0  0  0  0  0  0  0  0  0  0  0
  -23.9197  -10.2370   20.9231 C   0  0  0  0  0  0  0  0  0  0  0  0
  -25.4118  -11.8019   19.5694 C   0  0  0  0  0  0  0  0  0  0  0  0
  -27.3323  -36.4260   22.3077 C   0  0  0  0  0  0  0  0  0  0  0  0
  -25.7726  -29.6535   19.9451 C   0  0  0  0  0  0  0  0  0  0  0  0
  -27.6134  -35.0730   22.0377 C   0  0  0  0  0  0  0  0  0  0  0  0
  -25.3929  -28.7672   20.9632 C   0  0  0  0  0  0  0  0  0  0  0  0
  -22.2633   -8.0166   21.2526 C   0  0  0  0  0  0  0  0  0  0  0  0
  -26.9457  -27.1147   20.0868 C   0  0  0  0  0  0  0  0  0  0  0  0
  -21.6602   -6.1364   22.5268 C   0  0  0  0  0  0  0  0  0  0  0  0
  -22.0750   -4.5338   24.7722 C   0  0  0  0  0  0  0  0  0  0  0  0
  -21.9875   -4.7894   22.3714 C   0  0  0  0  0  0  0  0  0  0  0  0
  -24.7746  -11.3843   20.7533 C   0  0  0  0  0  0  0  0  0  0  0  0
  -26.1011  -12.9335   19.9312 C   0  0  0  0  0  0  0  0  0  0  0  0
  -25.3831  -11.2190   18.2598 C   0  0  0  0  0  0  0  0  0  0  0  0
  -25.6111  -31.9686   22.1171 C   0  0  0  0  0  0  0  0  0  0  0  0
  -22.5877  -30.8596   22.5062 C   0  0  0  0  0  0  0  0  0  0  0  0
  -20.3925  -28.2640   22.2045 C   0  0  0  0  0  0  0  0  0  0  0  0
  -26.2904  -17.7835   22.4587 C   0  0  0  0  0  0  0  0  0  0  0  0
  -28.2282  -25.6108   21.3526 C   0  0  0  0  0  0  0  0  0  1  0  0
  -26.4115  -36.8363   23.4294 C   0  0  0  0  0  0  0  0  0  0  0  0
  -25.1296  -31.0089   19.8361 C   0  0  0  0  0  0  0  0  0  0  0  0
  -24.3633  -29.1411   21.9969 C   0  0  0  0  0  0  0  0  0  0  0  0
  -25.5103  -35.7069   23.9218 C   0  0  0  0  0  0  0  0  0  0  0  0
  -29.6157  -20.7718   24.8112 C   0  0  0  0  0  0  0  0  0  0  0  0
  -27.0538  -14.8922   24.4971 C   0  0  0  0  0  0  0  0  0  0  0  0
  -26.3183  -34.4290   24.1242 C   0  0  0  0  0  0  0  0  0  0  0  0
  -30.0378  -22.1293   24.2566 C   0  0  0  0  0  0  0  0  0  0  0  0
  -29.5284  -19.7152   23.7123 C   0  0  0  0  0  0  0  0  0  0  0  0
  -26.5768  -13.7510   23.5970 C   0  0  0  0  0  0  0  0  0  0  0  0
  -28.1803  -22.0134   20.8378 C   0  0  0  0  0  0  0  0  0  0  0  0
  -26.1298  -16.1019   24.3924 C   0  0  0  0  0  0  0  0  0  0  0  0
  -28.6854  -23.3541   20.3074 C   0  0  0  0  0  0  0  0  0  0  0  0
  -29.6138  -23.9248   22.5358 C   0  0  0  0  0  0  0  0  0  0  0  0
  -25.4624  -15.4745   22.1045 C   0  0  0  0  0  0  0  0  0  0  0  0
  -26.9413  -33.9555   22.8055 C   0  0  1  0  0  0  0  0  0  0  0  0
  -24.5516  -31.5041   21.1582 C   0  0  1  0  0  0  0  0  0  0  0  0
  -29.1253  -22.5878   23.1118 C   0  0  1  0  0  0  0  0  0  0  0  0
  -29.0492  -21.5138   22.0036 C   0  0  1  0  0  0  0  0  0  0  0  0
  -28.6109  -20.1329   22.5493 C   0  0  2  0  0  0  0  0  0  0  0  0
  -26.3675  -14.2300   22.1482 C   0  0  2  0  0  0  0  0  0  0  0  0
  -17.9993  -27.6473   22.6401 C   0  0  0  0  0  0  0  0  0  0  0  0
  -23.1979  -30.6058   25.4850 C   0  0  0  0  0  0  0  0  0  0  0  0
  -21.1827  -29.1360   25.7015 C   0  0  0  0  0  0  0  0  0  0  0  0
  -20.9236  -31.5032   24.9588 C   0  0  0  0  0  0  0  0  0  0  0  0
  -19.8851  -27.7367   19.3368 C   0  0  0  0  0  0  0  0  0  0  0  0
  -27.1373  -20.0600   22.9662 C   0  0  0  0  0  0  0  0  0  0  0  0
  -21.9371  -29.8116   23.3765 C   0  0  1  0  0  0  0  0  0  0  0  0
  -18.9915  -28.1919   21.6244 C   0  0  2  0  0  0  0  0  0  0  0  0
  -21.8312  -30.2575   24.8622 C   0  0  0  0  0  0  0  0  0  0  0  0
  -25.0360  -12.1853   21.7896 N   0  0  0  0  0  0  0  0  0  0  0  0
  -25.8451  -13.1175   21.2582 N   0  0  0  0  0  0  0  0  0  0  0  0
  -23.7678  -30.4797   21.8514 N   0  0  0  0  0  0  0  0  0  0  0  0
  -25.9878  -16.5189   22.9902 N   0  0  0  0  0  0  0  0  0  0  0  0
  -28.8001  -24.3348   21.3910 N   0  0  0  0  0  0  0  0  0  0  0  0
  -26.8951  -13.7790   19.2406 N   0  0  0  0  0  0  0  0  0  0  0  0
  -24.6248  -10.0571   18.0621 N   0  0  0  0  0  0  0  0  0  0  0  0
  -25.9462  -33.3024   21.9822 N   0  0  0  0  0  0  0  0  0  0  0  0
  -20.6551  -29.5016   22.7529 N   0  0  0  0  0  0  0  0  0  0  0  0
  -26.7764  -18.7177   23.3652 N   0  0  0  0  0  0  0  0  0  0  0  0
  -18.9719  -27.3057   20.4264 N   0  3  0  0  0  0  0  0  0  0  0  0
  -26.0246  -11.7046   17.2974 O   0  0  0  0  0  0  0  0  0  0  0  0
  -26.0880  -31.1761   22.9208 O   0  0  0  0  0  0  0  0  0  0  0  0
  -22.0640  -31.9719   22.4052 O   0  0  0  0  0  0  0  0  0  0  0  0
  -21.1743  -27.3161   22.1774 O   0  0  0  0  0  0  0  0  0  0  0  0
  -26.1433  -18.0585   21.2629 O   0  0  0  0  0  0  0  0  0  0  0  0
  -28.3207  -26.4385   22.2586 O   0  0  0  0  0  0  0  0  0  0  0  0
  -21.4549   -6.9334   21.4131 O   0  0  0  0  0  0  0  0  0  0  0  0
  -27.5329  -25.8477   20.1635 O   0  0  0  0  0  0  0  0  0  1  0  0
  -22.2756   -3.7647   25.8505 F   0  0  0  0  0  0  0  0  0  0  0  0
  -22.1052   -4.2598   21.1461 F   0  0  0  0  0  0  0  0  0  0  0  0
  1  2  1  0  0  0  0
  1  5  2  0  0  0  0
  2  6  2  0  0  0  0
  3  8  2  0  0  0  0
  3 15  1  0  0  0  0
  4  9  1  0  0  0  0
  4 15  2  0  0  0  0
  5 17  1  0  0  0  0
  6 19  1  0  0  0  0
  7 10  2  0  0  0  0
  7 18  1  0  0  0  0
  8 21  1  0  0  0  0
  9 21  2  0  0  0  0
 10 22  1  0  0  0  0
 11 12  2  0  0  0  0
 11 23  1  0  0  0  0
 12 24  1  0  0  0  0
 13 20  1  0  0  0  0
 13 22  2  0  0  0  0
 14 24  2  0  0  0  0
 14 25  1  0  0  0  0
 15 26  1  0  0  0  0
 16 26  1  0  0  0  0
 16 27  2  0  0  0  0
 16 28  1  0  0  0  0
 17 19  2  0  0  0  0
 17 34  1  0  0  0  0
 18 20  2  0  0  0  0
 18 35  1  0  0  0  0
 19 49  1  0  0  0  0
 20 36  1  0  0  0  0
 21 81  1  0  0  0  0
 22 82  1  0  0  0  0
 23 25  2  0  0  0  0
 23 81  1  0  0  0  0
 24 83  1  0  0  0  0
 25 84  1  0  0  0  0
 26 64  2  0  0  0  0
 27 65  1  0  0  0  0
 27 69  1  0  0  0  0
 28 70  1  0  0  0  0
 28 75  2  0  0  0  0
 29 50  1  0  0  0  0
 29 71  1  0  0  0  0
 29 76  2  0  0  0  0
 30 61  1  0  0  0  0
 30 66  1  0  0  0  0
 30 77  2  0  0  0  0
 31 62  1  0  0  0  0
 31 72  1  0  0  0  0
 31 78  2  0  0  0  0
 32 67  1  0  0  0  0
 32 73  1  0  0  0  0
 32 79  2  0  0  0  0
 33 68  1  0  0  0  0
 33 80  2  0  0  0  0
 33 82  1  0  0  0  0
 34 37  1  0  0  0  0
 35 50  1  0  0  0  0
 36 66  1  0  0  0  0
 37 40  1  0  0  0  0
 38 41  1  0  0  0  0
 38 42  1  0  0  0  0
 39 43  1  0  0  0  0
 39 45  1  0  0  0  0
 40 49  1  0  0  0  0
 41 51  1  0  0  0  0
 42 53  1  0  0  0  0
 43 54  1  0  0  0  0
 44 46  1  0  0  0  0
 44 52  1  0  0  0  0
 45 67  1  0  0  0  0
 46 68  1  0  0  0  0
 47 51  1  0  0  0  0
 47 68  1  0  0  0  0
 48 54  1  0  0  0  0
 48 67  1  0  0  0  0
 49 71  1  0  0  0  0
 50 66  1  0  0  0  0
 51 52  1  0  0  0  0
 52 53  1  0  0  0  0
 53 60  1  0  0  0  0
 54 65  1  0  0  0  0
 55 62  1  0  0  0  0
 56 63  1  0  0  0  0
 57 63  1  0  0  0  0
 58 63  1  0  0  0  0
 59 74  1  0  0  0  0
 60 73  1  0  0  0  0
 61 63  1  0  0  0  0
 61 72  1  0  0  0  0
 62 74  1  0  0  0  0
 64 65  1  0  0  0  0
M  CHG  1  74   1
M  ISO  4  32 100  33 101  73 100  82 101
M  END
> <Batch ID>
0031

> <Smiles>
CNC(C)C(=O)NC(C(=O)N1Cc2cc([101O:1][101C:1](=O)N3CCC4C(C[100NH:0][100C:0](=O)N5CCCC(n6nc(-c7ccc(Oc8ccc(F)cc8F)cc7)c(C(N)=O)c6N)C5)CCCC4C3)ccc2CC1C(=O)NC1CCCc2ccccc21)C(C)(C)C

> <Shape>
0.286

> <Color>
0.126

> <Negative vol penalty>
0.000

$$$$

  -OEChem-04042321393D

 91100  0     1  0  0  0  0  0999 V2000
  -24.7839  -35.6427   25.3101 C   0  0  0  0  0  0  0  0  0  0  0  0
  -25.5952  -34.7000   24.6867 C   0  0  0  0  0  0  0  0  0  0  0  0
  -24.5446   -9.1983   20.6923 C   0  0  0  0  0  0  0  0  0  0  0  0
  -22.6959  -10.6371   21.2832 C   0  0  0  0  0  0  0  0  0  0  0  0
  -23.5309  -35.2706   25.7953 C   0  0  0  0  0  0  0  0  0  0  0  0
  -25.1542  -33.3843   24.5491 C   0  0  0  0  0  0  0  0  0  0  0  0
  -26.3003  -29.5866   19.8833 C   0  0  0  0  0  0  0  0  0  0  0  0
  -23.7276   -8.0801   20.8590 C   0  0  0  0  0  0  0  0  0  0  0  0
  -21.8789   -9.5189   21.4498 C   0  0  0  0  0  0  0  0  0  0  0  0
  -27.2325  -28.5638   19.7136 C   0  0  0  0  0  0  0  0  0  0  0  0
  -21.3266   -6.4662   19.1087 C   0  0  0  0  0  0  0  0  0  0  0  0
  -21.3802   -5.4727   18.1311 C   0  0  0  0  0  0  0  0  0  0  0  0
  -25.5720  -26.9474   20.3837 C   0  0  0  0  0  0  0  0  0  0  0  0
  -28.8271  -19.5283   21.9228 C   0  0  0  0  0  0  0  0  0  0  0  0
  -27.3883  -20.5950   19.7840 C   0  0  0  0  0  0  0  0  0  0  0  0
  -22.0838   -3.8711   19.7975 C   0  0  0  0  0  0  0  0  0  0  0  0
  -24.0287  -10.4768   20.9044 C   0  0  0  0  0  0  0  0  0  0  0  0
  -25.0706  -12.3723   19.5520 C   0  0  0  0  0  0  0  0  0  0  0  0
  -23.0704  -33.9519   25.6549 C   0  0  0  0  0  0  0  0  0  0  0  0
  -24.9979  -29.2980   20.3157 C   0  0  0  0  0  0  0  0  0  0  0  0
  -23.8944  -32.9939   25.0340 C   0  0  0  0  0  0  0  0  0  0  0  0
  -24.6244  -27.9680   20.5556 C   0  0  0  0  0  0  0  0  0  0  0  0
  -29.3571  -20.5862   21.1843 C   0  0  0  0  0  0  0  0  0  0  0  0
  -28.6378  -21.1196   20.1149 C   0  0  0  0  0  0  0  0  0  0  0  0
  -27.5777  -19.0037   21.5919 C   0  0  0  0  0  0  0  0  0  0  0  0
  -22.3947   -8.2404   21.2377 C   0  0  0  0  0  0  0  0  0  0  0  0
  -26.8693  -27.2443   19.9665 C   0  0  0  0  0  0  0  0  0  0  0  0
  -21.6516   -6.1622   20.4307 C   0  0  0  0  0  0  0  0  0  0  0  0
  -21.7588   -4.1752   18.4755 C   0  0  0  0  0  0  0  0  0  0  0  0
  -22.0302   -4.8646   20.7751 C   0  0  0  0  0  0  0  0  0  0  0  0
  -26.8583  -19.5370   20.5225 C   0  0  0  0  0  0  0  0  0  0  0  0
  -24.8723  -11.6322   20.7330 C   0  0  0  0  0  0  0  0  0  0  0  0
  -25.9538  -13.3612   19.9107 C   0  0  0  0  0  0  0  0  0  0  0  0
  -30.1677  -24.3498   20.3156 C   0  0  0  0  0  0  0  0  0  0  0  0
  -24.5068  -12.1829   18.2474 C   0  0  0  0  0  0  0  0  0  0  0  0
  -23.2523  -30.0802   22.8544 C   0  0  0  0  0  0  0  0  0  0  0  0
  -20.9035  -28.5461   21.2258 C   0  0  0  0  0  0  0  0  0  0  0  0
  -20.0489  -26.2349   18.8647 C   0  0  0  0  0  0  0  0  0  0  0  0
  -27.6823  -17.3008   23.4455 C   0  0  0  0  0  0  0  0  0  0  0  0
  -21.7282  -33.5858   26.2374 C   0  0  0  0  0  0  0  0  0  0  0  0
  -23.9964  -30.4098   20.4682 C   0  0  0  0  0  0  0  0  0  0  0  0
  -23.2330  -27.6032   21.0021 C   0  0  0  0  0  0  0  0  0  0  0  0
  -29.6294  -25.4853   21.1556 C   0  0  0  0  0  0  0  0  0  0  0  0
  -21.1801  -32.2593   25.7178 C   0  0  0  0  0  0  0  0  0  0  0  0
  -28.7003  -13.9564   24.1207 C   0  0  0  0  0  0  0  0  0  0  0  0
  -22.2628  -31.1852   25.7495 C   0  0  0  0  0  0  0  0  0  0  0  0
  -27.8115  -13.1145   23.2024 C   0  0  0  0  0  0  0  0  0  0  0  0
  -27.9519  -15.1633   24.6838 C   0  0  0  0  0  0  0  0  0  0  0  0
  -26.4116  -15.1718   22.7611 C   0  0  0  0  0  0  0  0  0  0  0  0
  -27.8445  -23.9762   20.5742 C   0  0  0  0  0  0  0  0  0  0  0  0
  -23.4411  -31.5627   24.8437 C   0  0  1  0  0  0  0  0  0  0  0  0
  -22.8479  -30.0547   21.4075 C   0  0  1  0  0  0  0  0  0  0  0  0
  -27.1407  -13.9807   22.1182 C   0  0  2  0  0  0  0  0  0  0  0  0
  -28.1228  -25.4281   20.9170 C   0  0  2  0  0  0  0  0  0  1  0  0
  -33.2728  -18.7626   20.0527 C   0  0  0  0  0  0  0  0  0  0  0  0
  -33.5694  -21.7684   21.8666 C   0  0  0  0  0  0  0  0  0  0  0  0
  -18.0506  -25.1729   17.7803 C   0  0  0  0  0  0  0  0  0  0  0  0
  -20.4563  -26.8466   23.7202 C   0  0  0  0  0  0  0  0  0  0  0  0
  -19.1680  -25.2326   22.3046 C   0  0  0  0  0  0  0  0  0  0  0  0
  -18.3613  -27.5785   22.5670 C   0  0  0  0  0  0  0  0  0  0  0  0
  -20.8253  -27.2331   16.1889 C   0  0  0  0  0  0  0  0  0  0  0  0
  -29.1880  -22.2580   19.3054 C   0  0  0  0  0  0  0  0  0  0  0  0
  -30.6983  -21.1288   21.5552 C   0  0  0  0  0  0  0  0  0  0  0  0
  -32.2136  -19.8431   20.0548 C   0  0  0  0  0  0  0  0  0  0  0  0
  -32.9652  -20.4665   22.3454 C   0  0  0  0  0  0  0  0  0  0  0  0
  -20.4072  -27.1222   21.1535 C   0  0  1  0  0  0  0  0  0  0  0  0
  -19.0739  -26.2952   17.7027 C   0  0  2  0  0  0  0  0  0  0  0  0
  -19.6250  -26.7017   22.4298 C   0  0  0  0  0  0  0  0  0  0  0  0
  -25.5733  -12.1100   21.7647 N   0  0  0  0  0  0  0  0  0  0  0  0
  -26.2207  -13.1609   21.2331 N   0  0  0  0  0  0  0  0  0  0  0  0
  -29.0948  -23.5185   20.0103 N   0  0  0  0  0  0  0  0  0  0  0  0
  -22.2915  -28.7263   21.1430 N   0  0  0  0  0  0  0  0  0  0  0  0
  -27.3464  -15.9390   23.5991 N   0  0  0  0  0  0  0  0  0  0  0  0
  -26.5204  -14.3737   19.2207 N   0  0  0  0  0  0  0  0  0  0  0  0
  -23.6166  -11.1181   18.0524 N   0  0  0  0  0  0  0  0  0  0  0  0
  -27.0700  -17.9268   22.3602 N   0  0  0  0  0  0  0  0  0  0  0  0
  -23.1113  -31.3160   23.4563 N   0  0  0  0  0  0  0  0  0  0  0  0
  -19.6357  -27.0211   19.9194 N   0  0  0  0  0  0  0  0  0  0  0  0
  -19.8029  -26.1778   16.4082 N   0  3  0  0  0  0  0  0  0  0  0  0
  -31.7860  -20.1164   21.4741 N   0  3  0  0  0  0  0  0  0  0  0  0
  -31.3449  -24.2031   20.0214 O   0  0  0  0  0  0  0  0  0  0  0  0
  -24.7968  -12.9258   17.2792 O   0  0  0  0  0  0  0  0  0  0  0  0
  -23.6606  -29.0542   23.3857 O   0  0  0  0  0  0  0  0  0  0  0  0
  -20.0893  -29.4651   21.3441 O   0  0  0  0  0  0  0  0  0  0  0  0
  -21.0727  -25.5554   18.8406 O   0  0  0  0  0  0  0  0  0  0  0  0
  -28.4772  -17.8626   24.2034 O   0  0  0  0  0  0  0  0  0  0  0  0
  -21.5972   -7.1495   21.4002 O   0  0  0  0  0  0  0  0  0  0  0  0
  -27.7774  -26.2442   19.8023 O   0  0  0  0  0  0  0  0  0  1  0  0
  -21.8087   -3.2208   17.5369 F   0  0  0  0  0  0  0  0  0  0  0  0
  -22.3425   -4.5663   22.0436 F   0  0  0  0  0  0  0  0  0  0  0  0
  -25.3073  -18.9179   20.0790 Cl  0  0  0  0  0  0  0  0  0  0  0  0
  1  2  1  0  0  0  0
  1  5  2  0  0  0  0
  2  6  2  0  0  0  0
  3  8  2  0  0  0  0
  3 17  1  0  0  0  0
  4  9  1  0  0  0  0
  4 17  2  0  0  0  0
  5 19  1  0  0  0  0
  6 21  1  0  0  0  0
  7 10  2  0  0  0  0
  7 20  1  0  0  0  0
  8 26  1  0  0  0  0
  9 26  2  0  0  0  0
 10 27  1  0  0  0  0
 11 12  2  0  0  0  0
 11 28  1  0  0  0  0
 12 29  1  0  0  0  0
 13 22  1  0  0  0  0
 13 27  2  0  0  0  0
 14 23  1  0  0  0  0
 14 25  2  0  0  0  0
 15 24  1  0  0  0  0
 15 31  2  0  0  0  0
 16 29  2  0  0  0  0
 16 30  1  0  0  0  0
 17 32  1  0  0  0  0
 18 32  1  0  0  0  0
 18 33  2  0  0  0  0
 18 35  1  0  0  0  0
 19 21  2  0  0  0  0
 19 40  1  0  0  0  0
 20 22  2  0  0  0  0
 20 41  1  0  0  0  0
 21 51  1  0  0  0  0
 22 42  1  0  0  0  0
 23 24  2  0  0  0  0
 23 63  1  0  0  0  0
 24 62  1  0  0  0  0
 25 31  1  0  0  0  0
 25 76  1  0  0  0  0
 26 87  1  0  0  0  0
 27 88  1  0  0  0  0
 28 30  2  0  0  0  0
 28 87  1  0  0  0  0
 29 89  1  0  0  0  0
 30 90  1  0  0  0  0
 31 91  1  0  0  0  0
 32 69  2  0  0  0  0
 33 70  1  0  0  0  0
 33 74  1  0  0  0  0
 34 43  1  0  0  0  0
 34 71  1  0  0  0  0
 34 81  2  0  0  0  0
 35 75  1  0  0  0  0
 35 82  2  0  0  0  0
 36 52  1  0  0  0  0
 36 77  1  0  0  0  0
 36 83  2  0  0  0  0
 37 66  1  0  0  0  0
 37 72  1  0  0  0  0
 37 84  2  0  0  0  0
 38 67  1  0  0  0  0
 38 78  1  0  0  0  0
 38 85  2  0  0  0  0
 39 73  1  0  0  0  0
 39 76  1  0  0  0  0
 39 86  2  0  0  0  0
 40 44  1  0  0  0  0
 41 52  1  0  0  0  0
 42 72  1  0  0  0  0
 43 54  1  0  0  0  0
 44 46  1  0  0  0  0
 45 47  1  0  0  0  0
 45 48  1  0  0  0  0
 46 51  1  0  0  0  0
 47 53  1  0  0  0  0
 48 73  1  0  0  0  0
 49 53  1  0  0  0  0
 49 73  1  0  0  0  0
 50 54  1  0  0  0  0
 50 71  1  0  0  0  0
 51 77  1  0  0  0  0
 52 72  1  0  0  0  0
 53 70  1  0  0  0  0
 54 88  1  0  0  0  0
 55 64  1  0  0  0  0
 56 65  1  0  0  0  0
 57 67  1  0  0  0  0
 58 68  1  0  0  0  0
 59 68  1  0  0  0  0
 60 68  1  0  0  0  0
 61 79  1  0  0  0  0
 62 71  1  0  0  0  0
 63 80  1  0  0  0  0
 64 80  1  0  0  0  0
 65 80  1  0  0  0  0
 66 68  1  0  0  0  0
 66 78  1  0  0  0  0
 67 79  1  0  0  0  0
 69 70  1  0  0  0  0
M  CHG  2  79   1  80   1
M  ISO  4  39 100  54 101  76 100  88 101
M  END
> <Batch ID>
0031

> <Smiles>
CCN(CC)Cc1cc([100NH:0][100C:0](=O)N2CCCC(n3nc(-c4ccc(Oc5ccc(F)cc5F)cc4)c(C(N)=O)c3N)C2)c(Cl)cc1CN1C[101CH:1]([101O:1]c2ccc3c(c2)CN(C(=O)C(NC(=O)C(C)NC)C(C)(C)C)C(C(=O)NC2CCCc4ccccc42)C3)CC1=O

> <Shape>
0.257

> <Color>
0.109

> <Negative vol penalty>
0.000

$$$$

  -OEChem-04042321393D

 86 95  0     1  0  0  0  0  0999 V2000
  -25.1740  -36.5573   23.4435 C   0  0  0  0  0  0  0  0  0  0  0  0
  -26.2964  -35.8220   23.0763 C   0  0  0  0  0  0  0  0  0  0  0  0
  -22.8670   -9.6040   19.9458 C   0  0  0  0  0  0  0  0  0  0  0  0
  -24.5777   -8.7667   21.4322 C   0  0  0  0  0  0  0  0  0  0  0  0
  -24.0103  -35.8996   23.8403 C   0  0  0  0  0  0  0  0  0  0  0  0
  -26.2562  -34.4284   23.1067 C   0  0  0  0  0  0  0  0  0  0  0  0
  -28.8880  -28.6923   19.7175 C   0  0  0  0  0  0  0  0  0  0  0  0
  -21.8826   -9.0783   20.7827 C   0  0  0  0  0  0  0  0  0  0  0  0
  -23.5934   -8.2411   22.2691 C   0  0  0  0  0  0  0  0  0  0  0  0
  -29.5586  -27.4988   19.9816 C   0  0  0  0  0  0  0  0  0  0  0  0
  -21.5722   -5.5318   22.3425 C   0  0  0  0  0  0  0  0  0  0  0  0
  -21.7534   -4.2340   22.8206 C   0  0  0  0  0  0  0  0  0  0  0  0
  -27.4686  -26.4699   20.6079 C   0  0  0  0  0  0  0  0  0  0  0  0
  -27.5810  -18.3426   20.1719 C   0  0  0  0  0  0  0  0  0  0  0  0
  -25.6039  -17.6380   18.9754 C   0  0  0  0  0  0  0  0  0  0  0  0
  -21.7221   -5.0654   25.0889 C   0  0  0  0  0  0  0  0  0  0  0  0
  -24.2146   -9.4481   20.2706 C   0  0  0  0  0  0  0  0  0  0  0  0
  -25.4581   -9.6697   18.0543 C   0  0  0  0  0  0  0  0  0  0  0  0
  -23.9527  -34.4973   23.8662 C   0  0  0  0  0  0  0  0  0  0  0  0
  -27.5018  -28.7868   19.9074 C   0  0  0  0  0  0  0  0  0  0  0  0
  -25.0911  -33.7514   23.5054 C   0  0  0  0  0  0  0  0  0  0  0  0
  -26.7823  -27.6649   20.3431 C   0  0  0  0  0  0  0  0  0  0  0  0
  -27.0209  -19.6071   20.3529 C   0  0  0  0  0  0  0  0  0  0  0  0
  -25.7522  -19.8871   19.8452 C   0  0  0  0  0  0  0  0  0  0  0  0
  -26.8726  -17.3580   19.4831 C   0  0  0  0  0  0  0  0  0  0  0  0
  -22.2458   -8.3969   21.9443 C   0  0  0  0  0  0  0  0  0  0  0  0
  -28.8494  -26.3883   20.4297 C   0  0  0  0  0  0  0  0  0  0  0  0
  -21.4661   -6.5964   23.2375 C   0  0  0  0  0  0  0  0  0  0  0  0
  -21.8283   -4.0008   24.1938 C   0  0  0  0  0  0  0  0  0  0  0  0
  -25.0437  -18.9025   19.1565 C   0  0  0  0  0  0  0  0  0  0  0  0
  -21.5410   -6.3631   24.6107 C   0  0  0  0  0  0  0  0  0  0  0  0
  -25.2319   -9.9904   19.4062 C   0  0  0  0  0  0  0  0  0  0  0  0
  -26.5293  -10.4490   17.6912 C   0  0  0  0  0  0  0  0  0  0  0  0
  -24.7622   -8.7498   17.2027 C   0  0  0  0  0  0  0  0  0  0  0  0
  -25.6068  -30.5293   21.7719 C   0  0  0  0  0  0  0  0  0  0  0  0
  -23.2553  -29.1136   20.0431 C   0  0  0  0  0  0  0  0  0  0  0  0
  -22.5577  -25.8186   18.7493 C   0  0  0  0  0  0  0  0  0  0  0  0
  -28.6883  -15.6306   19.7393 C   0  0  0  0  0  0  0  0  0  0  0  0
  -22.6879  -33.8315   24.3475 C   0  0  0  0  0  0  0  0  0  0  0  0
  -26.7893  -30.0735   19.5925 C   0  0  0  0  0  0  0  0  0  0  0  0
  -25.2902  -27.7085   20.5435 C   0  0  0  0  0  0  0  0  0  0  0  0
  -22.6073  -32.3488   23.9931 C   0  0  0  0  0  0  0  0  0  0  0  0
  -30.4333  -12.5348   19.5195 C   0  0  0  0  0  0  0  0  0  0  0  0
  -30.0952  -22.2468   18.4865 C   0  0  0  0  0  0  0  0  0  0  0  0
  -23.9230  -31.6495   24.3198 C   0  0  0  0  0  0  0  0  0  0  0  0
  -29.3184  -11.5025   19.3364 C   0  0  0  0  0  0  0  0  0  0  0  0
  -30.3613  -23.5777   19.1776 C   0  0  0  0  0  0  0  0  0  0  0  0
  -30.0153  -13.6591   20.4655 C   0  0  0  0  0  0  0  0  0  0  0  0
  -27.6373  -13.2914   19.9370 C   0  0  0  0  0  0  0  0  0  0  0  0
  -29.6107  -21.1900   19.4689 C   0  0  0  0  0  0  0  0  0  0  0  0
  -28.6587  -22.9839   20.9406 C   0  0  0  0  0  0  0  0  0  0  0  0
  -25.0786  -32.2382   23.5015 C   0  0  1  0  0  0  0  0  0  0  0  0
  -25.4510  -30.2071   20.3126 C   0  0  1  0  0  0  0  0  0  0  0  0
  -27.9883  -12.1735   18.9416 C   0  0  2  0  0  0  0  0  0  0  0  0
  -29.1432  -24.0491   19.9658 C   0  0  1  0  0  0  0  0  0  1  0  0
  -25.1342  -21.2343   20.0294 C   0  0  0  0  0  0  0  0  0  0  0  0
  -21.2024  -25.0988   16.7638 C   0  0  0  0  0  0  0  0  0  0  0  0
  -20.9839  -28.8311   22.0608 C   0  0  0  0  0  0  0  0  0  0  0  0
  -20.2425  -26.7786   20.8337 C   0  0  0  0  0  0  0  0  0  0  0  0
  -20.2474  -28.9881   19.6760 C   0  0  0  0  0  0  0  0  0  0  0  0
  -24.8259  -24.3000   17.6056 C   0  0  0  0  0  0  0  0  0  0  0  0
  -27.8014  -20.6499   21.0975 C   0  0  0  0  0  0  0  0  0  0  0  0
  -22.4468  -27.8456   20.1753 C   0  0  1  0  0  0  0  0  0  0  0  0
  -22.5982  -25.3861   17.2947 C   0  0  2  0  0  0  0  0  0  0  0  0
  -21.0066  -28.1128   20.6968 C   0  0  0  0  0  0  0  0  0  0  0  0
  -26.0905  -10.9021   19.8706 N   0  0  0  0  0  0  0  0  0  0  0  0
  -26.8666  -11.1610   18.8045 N   0  0  0  0  0  0  0  0  0  0  0  0
  -24.6397  -28.9910   20.2280 N   0  0  0  0  0  0  0  0  0  0  0  0
  -28.7495  -14.2505   20.0265 N   0  0  0  0  0  0  0  0  0  0  0  0
  -27.2062  -10.5877   16.5315 N   0  0  0  0  0  0  0  0  0  0  0  0
  -23.6845   -8.0300   17.7362 N   0  0  0  0  0  0  0  0  0  0  0  0
  -27.4413  -16.0733   19.2993 N   0  0  0  0  0  0  0  0  0  0  0  0
  -25.0448  -31.7353   22.1449 N   0  0  0  0  0  0  0  0  0  0  0  0
  -22.4987  -27.1907   18.8727 N   0  0  0  0  0  0  0  0  0  0  0  0
  -28.3898  -21.7006   20.1966 N   0  3  2  0  0  0  0  0  0  0  0  0
  -23.4216  -24.1532   17.1437 N   0  3  0  0  0  0  0  0  0  0  0  0
  -25.0967   -8.5594   16.0089 O   0  0  0  0  0  0  0  0  0  0  0  0
  -26.1922  -29.7414   22.5054 O   0  0  0  0  0  0  0  0  0  0  0  0
  -22.6806  -30.1725   19.7783 O   0  0  0  0  0  0  0  0  0  0  0  0
  -22.5728  -25.0191   19.6826 O   0  0  0  0  0  0  0  0  0  0  0  0
  -29.6770  -16.3605   19.8478 O   0  0  0  0  0  0  0  0  0  0  0  0
  -21.2855   -7.8841   22.7613 O   0  0  0  0  0  0  0  0  0  0  0  0
  -29.5016  -25.2224   20.6888 O   0  0  0  0  0  0  0  0  0  1  0  0
  -22.0006   -2.7543   24.6529 F   0  0  0  0  0  0  0  0  0  0  0  0
  -23.8228  -19.1606   18.6669 F   0  0  0  0  0  0  0  0  0  0  0  0
  -21.4385   -7.3817   25.4755 F   0  0  0  0  0  0  0  0  0  0  0  0
  1  2  1  0  0  0  0
  1  5  2  0  0  0  0
  2  6  2  0  0  0  0
  3  8  2  0  0  0  0
  3 17  1  0  0  0  0
  4  9  1  0  0  0  0
  4 17  2  0  0  0  0
  5 19  1  0  0  0  0
  6 21  1  0  0  0  0
  7 10  2  0  0  0  0
  7 20  1  0  0  0  0
  8 26  1  0  0  0  0
  9 26  2  0  0  0  0
 10 27  1  0  0  0  0
 11 12  2  0  0  0  0
 11 28  1  0  0  0  0
 12 29  1  0  0  0  0
 13 22  1  0  0  0  0
 13 27  2  0  0  0  0
 14 23  1  0  0  0  0
 14 25  2  0  0  0  0
 15 25  1  0  0  0  0
 15 30  2  0  0  0  0
 16 29  2  0  0  0  0
 16 31  1  0  0  0  0
 17 32  1  0  0  0  0
 18 32  1  0  0  0  0
 18 33  2  0  0  0  0
 18 34  1  0  0  0  0
 19 21  2  0  0  0  0
 19 39  1  0  0  0  0
 20 22  2  0  0  0  0
 20 40  1  0  0  0  0
 21 52  1  0  0  0  0
 22 41  1  0  0  0  0
 23 24  2  0  0  0  0
 23 62  1  0  0  0  0
 24 30  1  0  0  0  0
 24 56  1  0  0  0  0
 25 72  1  0  0  0  0
 26 82  1  0  0  0  0
 27 83  1  0  0  0  0
 28 31  2  0  0  0  0
 28 82  1  0  0  0  0
 29 84  1  0  0  0  0
 30 85  1  0  0  0  0
 31 86  1  0  0  0  0
 32 66  2  0  0  0  0
 33 67  1  0  0  0  0
 33 70  1  0  0  0  0
 34 71  1  0  0  0  0
 34 77  2  0  0  0  0
 35 53  1  0  0  0  0
 35 73  1  0  0  0  0
 35 78  2  0  0  0  0
 36 63  1  0  0  0  0
 36 68  1  0  0  0  0
 36 79  2  0  0  0  0
 37 64  1  0  0  0  0
 37 74  1  0  0  0  0
 37 80  2  0  0  0  0
 38 69  1  0  0  0  0
 38 72  1  0  0  0  0
 38 81  2  0  0  0  0
 39 42  1  0  0  0  0
 40 53  1  0  0  0  0
 41 68  1  0  0  0  0
 42 45  1  0  0  0  0
 43 46  1  0  0  0  0
 43 48  1  0  0  0  0
 44 47  1  0  0  0  0
 44 50  1  0  0  0  0
 45 52  1  0  0  0  0
 46 54  1  0  0  0  0
 47 55  1  0  0  0  0
 48 69  1  0  0  0  0
 49 54  1  0  0  0  0
 49 69  1  0  0  0  0
 50 75  1  0  0  0  0
 51 55  1  0  0  0  0
 51 75  1  0  0  0  0
 52 73  1  0  0  0  0
 53 68  1  0  0  0  0
 54 67  1  0  0  0  0
 55 83  1  0  0  0  0
 57 64  1  0  0  0  0
 58 65  1  0  0  0  0
 59 65  1  0  0  0  0
 60 65  1  0  0  0  0
 61 76  1  0  0  0  0
 62 75  1  0  0  0  0
 63 65  1  0  0  0  0
 63 74  1  0  0  0  0
 64 76  1  0  0  0  0
 66 67  1  0  0  0  0
M  CHG  2  75   1  76   1
M  ISO  4  38 100  55 101  72 100  83 101
M  END
> <Batch ID>
0031

> <Smiles>
CNC(C)C(=O)NC(C(=O)N1Cc2cc([101O:1][101CH:1]3CCCN(Cc4cc([100NH:0][100C:0](=O)N5CCCC(n6nc(-c7ccc(Oc8ccc(F)cc8F)cc7)c(C(N)=O)c6N)C5)cc(F)c4C)C3)ccc2CC1C(=O)NC1CCCc2ccccc21)C(C)(C)C

> <Shape>
0.335

> <Color>
0.077

> <Negative vol penalty>
0.000

$$$$

  -OEChem-04042321393D

 81 89  0     1  0  0  0  0  0999 V2000
  -31.4788  -26.2108    8.1281 C   0  0  0  0  0  0  0  0  0  0  0  0
  -31.2253  -25.2318    9.0834 C   0  0  0  0  0  0  0  0  0  0  0  0
  -22.9688   -9.9247   19.9847 C   0  0  0  0  0  0  0  0  0  0  0  0
  -23.7127   -9.9442   22.2832 C   0  0  0  0  0  0  0  0  0  0  0  0
  -31.6057  -19.1848   19.1033 C   0  0  0  0  0  0  0  0  0  0  0  0
  -31.8804  -27.4850    8.5270 C   0  0  0  0  0  0  0  0  0  0  0  0
  -31.3742  -25.5261   10.4382 C   0  0  0  0  0  0  0  0  0  0  0  0
  -28.0194  -23.3382   15.0712 C   0  0  0  0  0  0  0  0  0  0  0  0
  -31.7554  -18.1625   20.0403 C   0  0  0  0  0  0  0  0  0  0  0  0
  -22.1902   -8.7973   20.2462 C   0  0  0  0  0  0  0  0  0  0  0  0
  -22.9341   -8.8168   22.5448 C   0  0  0  0  0  0  0  0  0  0  0  0
  -28.2365  -22.3028   15.9793 C   0  0  0  0  0  0  0  0  0  0  0  0
  -23.1327   -5.4799   22.0389 C   0  0  0  0  0  0  0  0  0  0  0  0
  -23.7134   -4.4482   22.7764 C   0  0  0  0  0  0  0  0  0  0  0  0
  -29.3585  -19.5826   19.8961 C   0  0  0  0  0  0  0  0  0  0  0  0
  -29.0820  -23.8945   17.5827 C   0  0  0  0  0  0  0  0  0  0  0  0
  -22.0060   -4.6963   24.4677 C   0  0  0  0  0  0  0  0  0  0  0  0
  -23.7301  -10.4981   21.0032 C   0  0  0  0  0  0  0  0  0  0  0  0
  -30.4073  -19.8949   19.0312 C   0  0  0  0  0  0  0  0  0  0  0  0
  -24.1456  -13.0103   20.8483 C   0  0  0  0  0  0  0  0  0  0  0  0
  -32.0249  -27.7979    9.8878 C   0  0  0  0  0  0  0  0  0  0  0  0
  -28.3427  -24.6604   15.4085 C   0  0  0  0  0  0  0  0  0  0  0  0
  -31.7793  -26.8053   10.8557 C   0  0  0  0  0  0  0  0  0  0  0  0
  -28.8657  -24.9452   16.6780 C   0  0  0  0  0  0  0  0  0  0  0  0
  -30.7066  -17.8501   20.9052 C   0  0  0  0  0  0  0  0  0  0  0  0
  -29.5081  -18.5602   20.8331 C   0  0  0  0  0  0  0  0  0  0  0  0
  -22.1728   -8.2434   21.5263 C   0  0  0  0  0  0  0  0  0  0  0  0
  -28.7705  -22.5805   17.2342 C   0  0  0  0  0  0  0  0  0  0  0  0
  -21.9887   -6.1199   22.5157 C   0  0  0  0  0  0  0  0  0  0  0  0
  -23.1500   -4.0563   23.9908 C   0  0  0  0  0  0  0  0  0  0  0  0
  -21.4253   -5.7281   23.7301 C   0  0  0  0  0  0  0  0  0  0  0  0
  -24.5350  -11.6624   20.7335 C   0  0  0  0  0  0  0  0  0  0  0  0
  -25.2614  -13.7225   20.4820 C   0  0  0  0  0  0  0  0  0  0  0  0
  -22.8877  -13.5687   21.2502 C   0  0  0  0  0  0  0  0  0  0  0  0
  -30.2485  -20.9845   18.0339 C   0  0  0  0  0  0  0  0  0  1  0  0
  -30.3546  -26.8393   14.2647 C   0  0  0  0  0  0  0  0  0  0  0  0
  -28.8889  -28.7616   16.4278 C   0  0  0  0  0  0  0  0  0  0  0  0
  -27.1091  -29.0310   19.3272 C   0  0  0  0  0  0  0  0  0  0  0  0
  -30.7709  -14.5859   20.6954 C   0  0  0  0  0  0  0  0  0  0  0  0
  -32.5069  -29.1753   10.2687 C   0  0  0  0  0  0  0  0  0  0  0  0
  -28.0776  -25.7693   14.4275 C   0  0  0  0  0  0  0  0  0  0  0  0
  -29.2107  -26.3503   17.0965 C   0  0  0  0  0  0  0  0  0  0  0  0
  -32.2789  -29.5153   11.7393 C   0  0  0  0  0  0  0  0  0  0  0  0
  -29.5814  -12.1996   18.3360 C   0  0  0  0  0  0  0  0  0  0  0  0
  -32.7212  -28.3583   12.6296 C   0  0  0  0  0  0  0  0  0  0  0  0
  -28.1331  -11.9539   18.7626 C   0  0  0  0  0  0  0  0  0  0  0  0
  -30.4962  -12.4119   19.5401 C   0  0  0  0  0  0  0  0  0  0  0  0
  -28.6068  -13.2182   20.9018 C   0  0  0  0  0  0  0  0  0  0  0  0
  -31.9057  -27.0933   12.3359 C   0  0  1  0  0  0  0  0  0  0  0  0
  -28.9232  -27.0121   14.6878 C   0  0  1  0  0  0  0  0  0  0  0  0
  -27.6362  -13.0541   19.7197 C   0  0  2  0  0  0  0  0  0  0  0  0
  -28.3721  -18.2446   21.7502 C   0  0  0  0  0  0  0  0  0  0  0  0
  -26.0885  -30.7348   20.8611 C   0  0  0  0  0  0  0  0  0  0  0  0
  -31.6576  -29.4331   17.5202 C   0  0  0  0  0  0  0  0  0  0  0  0
  -30.5508  -30.3375   19.5758 C   0  0  0  0  0  0  0  0  0  0  0  0
  -30.0999  -31.3827   17.3561 C   0  0  0  0  0  0  0  0  0  0  0  0
  -24.3876  -27.9447   18.9122 C   0  0  0  0  0  0  0  0  0  0  0  0
  -30.8903  -16.7520   21.9008 C   0  0  0  0  0  0  0  0  0  0  0  0
  -29.1210  -29.1108   17.8780 C   0  0  1  0  0  0  0  0  0  0  0  0
  -25.8566  -29.8168   19.6710 C   0  0  2  0  0  0  0  0  0  0  0  0
  -30.3527  -30.0392   18.0742 C   0  0  0  0  0  0  0  0  0  0  0  0
  -25.7995  -11.5239   20.3260 N   0  0  0  0  0  0  0  0  0  0  0  0
  -26.2142  -12.7940   20.1814 N   0  0  0  0  0  0  0  0  0  0  0  0
  -28.9391  -27.3994   16.0999 N   0  0  0  0  0  0  0  0  0  0  0  0
  -29.9695  -13.4691   20.4067 N   0  0  0  0  0  0  0  0  0  0  0  0
  -25.5107  -15.0461   20.3908 N   0  0  0  0  0  0  0  0  0  0  0  0
  -21.8476  -12.6942   21.5935 N   0  0  0  0  0  0  0  0  0  0  0  0
  -30.5974  -27.1819   12.9483 N   0  0  0  0  0  0  0  0  0  0  0  0
  -27.8665  -29.6708   18.3690 N   0  0  0  0  0  0  0  0  0  0  0  0
  -30.1930  -15.5442   21.5192 N   0  0  0  0  0  0  0  0  0  0  0  0
  -24.7383  -28.8896   20.0036 N   0  3  0  0  0  0  0  0  0  0  0  0
  -22.6867  -14.8063   21.2876 O   0  0  0  0  0  0  0  0  0  0  0  0
  -31.1284  -21.3068   17.2497 O   0  0  0  0  0  0  0  0  0  0  0  0
  -31.1780  -26.4272   15.0733 O   0  0  0  0  0  0  0  0  0  0  0  0
  -28.6640  -29.6637   15.6171 O   0  0  0  0  0  0  0  0  0  0  0  0
  -27.3895  -27.9588   19.8585 O   0  0  0  0  0  0  0  0  0  0  0  0
  -31.9146  -14.7218   20.2476 O   0  0  0  0  0  0  0  0  0  0  0  0
  -21.4130   -7.1435   21.7819 O   0  0  0  0  0  0  0  0  0  0  0  0
  -28.9840  -21.5717   18.1222 O   0  0  0  0  0  0  0  0  0  1  0  0
  -23.7068   -3.0645   24.6982 F   0  0  0  0  0  0  0  0  0  0  0  0
  -20.3257   -6.3384   24.1928 F   0  0  0  0  0  0  0  0  0  0  0  0
  1  2  1  0  0  0  0
  1  6  2  0  0  0  0
  2  7  2  0  0  0  0
  3 10  2  0  0  0  0
  3 18  1  0  0  0  0
  4 11  1  0  0  0  0
  4 18  2  0  0  0  0
  5  9  2  0  0  0  0
  5 19  1  0  0  0  0
  6 21  1  0  0  0  0
  7 23  1  0  0  0  0
  8 12  2  0  0  0  0
  8 22  1  0  0  0  0
  9 25  1  0  0  0  0
 10 27  1  0  0  0  0
 11 27  2  0  0  0  0
 12 28  1  0  0  0  0
 13 14  2  0  0  0  0
 13 29  1  0  0  0  0
 14 30  1  0  0  0  0
 15 19  2  0  0  0  0
 15 26  1  0  0  0  0
 16 24  1  0  0  0  0
 16 28  2  0  0  0  0
 17 30  2  0  0  0  0
 17 31  1  0  0  0  0
 18 32  1  0  0  0  0
 19 35  1  0  0  0  0
 20 32  1  0  0  0  0
 20 33  2  0  0  0  0
 20 34  1  0  0  0  0
 21 23  2  0  0  0  0
 21 40  1  0  0  0  0
 22 24  2  0  0  0  0
 22 41  1  0  0  0  0
 23 49  1  0  0  0  0
 24 42  1  0  0  0  0
 25 26  2  0  0  0  0
 25 58  1  0  0  0  0
 26 52  1  0  0  0  0
 27 78  1  0  0  0  0
 28 79  1  0  0  0  0
 29 31  2  0  0  0  0
 29 78  1  0  0  0  0
 30 80  1  0  0  0  0
 31 81  1  0  0  0  0
 32 62  2  0  0  0  0
 33 63  1  0  0  0  0
 33 66  1  0  0  0  0
 34 67  1  0  0  0  0
 34 72  2  0  0  0  0
 35 73  2  0  0  0  0
 35 79  1  0  0  0  0
 36 50  1  0  0  0  0
 36 68  1  0  0  0  0
 36 74  2  0  0  0  0
 37 59  1  0  0  0  0
 37 64  1  0  0  0  0
 37 75  2  0  0  0  0
 38 60  1  0  0  0  0
 38 69  1  0  0  0  0
 38 76  2  0  0  0  0
 39 65  1  0  0  0  0
 39 70  1  0  0  0  0
 39 77  2  0  0  0  0
 40 43  1  0  0  0  0
 41 50  1  0  0  0  0
 42 64  1  0  0  0  0
 43 45  1  0  0  0  0
 44 46  1  0  0  0  0
 44 47  1  0  0  0  0
 45 49  1  0  0  0  0
 46 51  1  0  0  0  0
 47 65  1  0  0  0  0
 48 51  1  0  0  0  0
 48 65  1  0  0  0  0
 49 68  1  0  0  0  0
 50 64  1  0  0  0  0
 51 63  1  0  0  0  0
 53 60  1  0  0  0  0
 54 61  1  0  0  0  0
 55 61  1  0  0  0  0
 56 61  1  0  0  0  0
 57 71  1  0  0  0  0
 58 70  1  0  0  0  0
 59 61  1  0  0  0  0
 59 69  1  0  0  0  0
 60 71  1  0  0  0  0
 62 63  1  0  0  0  0
M  CHG  1  71   1
M  ISO  4  35 101  39 100  70 100  79 101
M  END
> <Batch ID>
0031

> <Smiles>
CNC(C)C(=O)NC(C(=O)N1Cc2cc([101O:1][101C:1](=O)c3ccc(C[100NH:0][100C:0](=O)N4CCCC(n5nc(-c6ccc(Oc7ccc(F)cc7F)cc6)c(C(N)=O)c5N)C4)c(C)c3)ccc2CC1C(=O)NC1CCCc2ccccc21)C(C)(C)C

> <Shape>
0.253

> <Color>
0.208

> <Negative vol penalty>
0.000

$$$$

  -OEChem-04042321393D

 87 96  0     1  0  0  0  0  0999 V2000
  -25.5891  -37.4058   22.2460 C   0  0  0  0  0  0  0  0  0  0  0  0
  -26.3366  -36.3222   21.7959 C   0  0  0  0  0  0  0  0  0  0  0  0
  -26.8989  -10.5323   22.7597 C   0  0  0  0  0  0  0  0  0  0  0  0
  -24.6770   -9.7157   22.2765 C   0  0  0  0  0  0  0  0  0  0  0  0
  -24.5893  -37.2139   23.1987 C   0  0  0  0  0  0  0  0  0  0  0  0
  -26.0854  -35.0462   22.2991 C   0  0  0  0  0  0  0  0  0  0  0  0
  -26.4953  -29.7444   19.2614 C   0  0  0  0  0  0  0  0  0  0  0  0
  -28.2714  -21.1877   18.1584 C   0  0  0  0  0  0  0  0  0  0  0  0
  -27.3586  -20.1783   18.4642 C   0  0  0  0  0  0  0  0  0  0  0  0
  -27.1351   -9.4155   23.5612 C   0  0  0  0  0  0  0  0  0  0  0  0
  -24.9132   -8.5988   23.0780 C   0  0  0  0  0  0  0  0  0  0  0  0
  -27.4936  -28.7730   19.2003 C   0  0  0  0  0  0  0  0  0  0  0  0
  -27.9394   -6.1606   23.1237 C   0  0  0  0  0  0  0  0  0  0  0  0
  -29.1609   -5.5035   22.9762 C   0  0  0  0  0  0  0  0  0  0  0  0
  -26.3512  -27.5006   20.9018 C   0  0  0  0  0  0  0  0  0  0  0  0
  -29.6756   -5.9398   25.2961 C   0  0  0  0  0  0  0  0  0  0  0  0
  -25.6698  -10.6824   22.1173 C   0  0  0  0  0  0  0  0  0  0  0  0
  -25.6783  -11.9623   19.9106 C   0  0  0  0  0  0  0  0  0  0  0  0
  -24.3193  -35.9334   23.7067 C   0  0  0  0  0  0  0  0  0  0  0  0
  -25.4213  -29.6062   20.1523 C   0  0  0  0  0  0  0  0  0  0  0  0
  -25.0820  -34.8373   23.2605 C   0  0  0  0  0  0  0  0  0  0  0  0
  -25.3392  -28.4703   20.9704 C   0  0  0  0  0  0  0  0  0  0  0  0
  -29.1708  -21.6319   19.1277 C   0  0  0  0  0  0  0  0  0  0  0  0
  -29.1572  -21.0667   20.4029 C   0  0  0  0  0  0  0  0  0  0  0  0
  -28.2444  -20.0573   20.7087 C   0  0  0  0  0  0  0  0  0  0  0  0
  -27.3450  -19.6131   19.7394 C   0  0  0  0  0  0  0  0  0  0  0  0
  -26.1423   -8.4487   23.7204 C   0  0  0  0  0  0  0  0  0  0  0  0
  -27.4232  -27.6524   20.0227 C   0  0  0  0  0  0  0  0  0  0  0  0
  -27.5860   -6.7073   24.3573 C   0  0  0  0  0  0  0  0  0  0  0  0
  -30.0290   -5.3931   24.0625 C   0  0  0  0  0  0  0  0  0  0  0  0
  -28.4541   -6.5969   25.4435 C   0  0  0  0  0  0  0  0  0  0  0  0
  -25.4250  -11.8362   21.2897 C   0  0  0  0  0  0  0  0  0  0  0  0
  -25.2751  -13.2387   19.6028 C   0  0  0  0  0  0  0  0  0  0  0  0
  -30.6907  -25.0910   18.9801 C   0  0  0  0  0  0  0  0  0  0  0  0
  -31.9512  -25.0926   19.4297 C   0  0  0  0  0  0  0  0  0  0  0  0
  -26.2287  -11.0107   18.9902 C   0  0  0  0  0  0  0  0  0  0  0  0
  -24.3330  -31.2744   22.6295 C   0  0  0  0  0  0  0  0  0  0  0  0
  -21.8984  -29.1345   22.5028 C   0  0  0  0  0  0  0  0  0  0  0  0
  -20.8043  -26.0436   21.5564 C   0  0  0  0  0  0  0  0  0  0  0  0
  -25.4308  -18.7211   21.0566 C   0  0  0  0  0  0  0  0  0  0  0  0
  -23.2605  -35.7828   24.7701 C   0  0  0  0  0  0  0  0  0  0  0  0
  -24.3386  -30.6498   20.1870 C   0  0  0  0  0  0  0  0  0  0  0  0
  -24.1964  -28.2648   21.9296 C   0  0  0  0  0  0  0  0  0  0  0  0
  -30.0302  -26.2139   18.2429 C   0  0  0  0  0  0  0  0  0  0  0  0
  -22.8052  -34.3404   24.9764 C   0  0  0  0  0  0  0  0  0  0  0  0
  -22.6586  -16.6211   22.2874 C   0  0  0  0  0  0  0  0  0  0  0  0
  -24.0093  -33.4079   25.0638 C   0  0  0  0  0  0  0  0  0  0  0  0
  -23.1882  -15.2030   22.0813 C   0  0  0  0  0  0  0  0  0  0  0  0
  -23.7867  -17.6158   22.5439 C   0  0  0  0  0  0  0  0  0  0  0  0
  -25.3731  -16.1916   21.2848 C   0  0  0  0  0  0  0  0  0  0  0  0
  -28.4136  -24.5506   18.8919 C   0  0  0  0  0  0  0  0  0  0  0  0
  -24.8227  -33.4340   23.7641 C   0  0  1  0  0  0  0  0  0  0  0  0
  -23.5591  -30.6586   21.4983 C   0  0  1  0  0  0  0  0  0  0  0  0
  -24.2636  -15.1734   20.9814 C   0  0  1  0  0  0  0  0  0  0  0  0
  -28.5938  -26.0516   18.7151 C   0  0  1  0  0  0  0  0  0  1  0  0
  -30.1231  -21.5451   21.4404 C   0  0  0  0  0  0  0  0  0  0  0  0
  -28.2317  -19.4522   22.0778 C   0  0  0  0  0  0  0  0  0  0  0  0
  -18.7771  -24.5660   21.6223 C   0  0  0  0  0  0  0  0  0  0  0  0
  -22.4175  -28.5582   25.4538 C   0  0  0  0  0  0  0  0  0  0  0  0
  -21.0604  -26.4682   25.2126 C   0  0  0  0  0  0  0  0  0  0  0  0
  -20.0003  -28.6930   24.8266 C   0  0  0  0  0  0  0  0  0  0  0  0
  -26.2717  -17.4470   19.0973 C   0  0  0  0  0  0  0  0  0  0  0  0
  -20.6576  -25.9167   18.6032 C   0  0  0  0  0  0  0  0  0  0  0  0
  -30.1420  -22.7188   18.7724 C   0  0  0  0  0  0  0  0  0  0  0  0
  -21.6293  -27.7836   23.1204 C   0  0  1  0  0  0  0  0  0  0  0  0
  -19.5528  -25.5996   20.8208 C   0  0  2  0  0  0  0  0  0  0  0  0
  -21.2995  -27.8803   24.6368 C   0  0  0  0  0  0  0  0  0  0  0  0
  -24.9016  -12.9441   21.8212 N   0  0  0  0  0  0  0  0  0  0  0  0
  -24.8228  -13.7786   20.7708 N   0  0  0  0  0  0  0  0  0  0  0  0
  -23.1657  -29.3162   21.9311 N   0  0  0  0  0  0  0  0  0  0  0  0
  -24.8177  -17.5353   21.5084 N   0  0  0  0  0  0  0  0  0  0  0  0
  -25.2671  -13.9407   18.4498 N   0  0  0  0  0  0  0  0  0  0  0  0
  -26.5895   -9.7455   19.4732 N   0  0  0  0  0  0  0  0  0  0  0  0
  -24.1704  -32.6419   22.7436 N   0  0  0  0  0  0  0  0  0  0  0  0
  -20.5766  -27.1703   22.3179 N   0  0  0  0  0  0  0  0  0  0  0  0
  -26.3915  -18.5695   20.0334 N   0  0  0  0  0  0  0  0  0  0  0  0
  -29.7768  -24.0484   19.3608 N   0  3  1  0  0  0  0  0  0  0  0  0
  -19.9109  -25.0011   19.5038 N   0  3  0  0  0  0  0  0  0  0  0  0
  -26.4108  -11.2802   17.7787 O   0  0  0  0  0  0  0  0  0  0  0  0
  -25.0252  -30.5615   23.3466 O   0  0  0  0  0  0  0  0  0  0  0  0
  -21.0142  -29.9945   22.5203 O   0  0  0  0  0  0  0  0  0  0  0  0
  -21.8758  -25.4481   21.4675 O   0  0  0  0  0  0  0  0  0  0  0  0
  -25.1219  -19.8293   21.5108 O   0  0  0  0  0  0  0  0  0  0  0  0
  -26.3725   -7.3587   24.5023 O   0  0  0  0  0  0  0  0  0  0  0  0
  -28.3966  -26.7031   19.9656 O   0  0  0  0  0  0  0  0  0  1  0  0
  -31.2014   -4.7608   23.9212 F   0  0  0  0  0  0  0  0  0  0  0  0
  -28.1195   -7.1191   26.6315 F   0  0  0  0  0  0  0  0  0  0  0  0
  1  2  1  0  0  0  0
  1  5  2  0  0  0  0
  2  6  2  0  0  0  0
  3 10  2  0  0  0  0
  3 17  1  0  0  0  0
  4 11  1  0  0  0  0
  4 17  2  0  0  0  0
  5 19  1  0  0  0  0
  6 21  1  0  0  0  0
  7 12  2  0  0  0  0
  7 20  1  0  0  0  0
  8  9  2  0  0  0  0
  8 23  1  0  0  0  0
  9 26  1  0  0  0  0
 10 27  1  0  0  0  0
 11 27  2  0  0  0  0
 12 28  1  0  0  0  0
 13 14  2  0  0  0  0
 13 29  1  0  0  0  0
 14 30  1  0  0  0  0
 15 22  1  0  0  0  0
 15 28  2  0  0  0  0
 16 30  2  0  0  0  0
 16 31  1  0  0  0  0
 17 32  1  0  0  0  0
 18 32  1  0  0  0  0
 18 33  2  0  0  0  0
 18 36  1  0  0  0  0
 19 21  2  0  0  0  0
 19 41  1  0  0  0  0
 20 22  2  0  0  0  0
 20 42  1  0  0  0  0
 21 52  1  0  0  0  0
 22 43  1  0  0  0  0
 23 24  2  0  0  0  0
 23 64  1  0  0  0  0
 24 25  1  0  0  0  0
 24 56  1  0  0  0  0
 25 26  2  0  0  0  0
 25 57  1  0  0  0  0
 26 76  1  0  0  0  0
 27 84  1  0  0  0  0
 28 85  1  0  0  0  0
 29 31  2  0  0  0  0
 29 84  1  0  0  0  0
 30 86  1  0  0  0  0
 31 87  1  0  0  0  0
 32 68  2  0  0  0  0
 33 69  1  0  0  0  0
 33 72  1  0  0  0  0
 34 35  2  0  0  0  0
 34 44  1  0  0  0  0
 34 77  1  0  0  0  0
 36 73  1  0  0  0  0
 36 79  2  0  0  0  0
 37 53  1  0  0  0  0
 37 74  1  0  0  0  0
 37 80  2  0  0  0  0
 38 65  1  0  0  0  0
 38 70  1  0  0  0  0
 38 81  2  0  0  0  0
 39 66  1  0  0  0  0
 39 75  1  0  0  0  0
 39 82  2  0  0  0  0
 40 71  1  0  0  0  0
 40 76  1  0  0  0  0
 40 83  2  0  0  0  0
 41 45  1  0  0  0  0
 42 53  1  0  0  0  0
 43 70  1  0  0  0  0
 44 55  1  0  0  0  0
 45 47  1  0  0  0  0
 46 48  1  0  0  0  0
 46 49  1  0  0  0  0
 47 52  1  0  0  0  0
 48 54  1  0  0  0  0
 49 71  1  0  0  0  0
 50 54  1  0  0  0  0
 50 71  1  0  0  0  0
 51 55  1  0  0  0  0
 51 77  1  0  0  0  0
 52 74  1  0  0  0  0
 53 70  1  0  0  0  0
 54 69  1  0  0  0  0
 55 85  1  0  0  0  0
 58 66  1  0  0  0  0
 59 67  1  0  0  0  0
 60 67  1  0  0  0  0
 61 67  1  0  0  0  0
 62 76  1  0  0  0  0
 63 78  1  0  0  0  0
 64 77  1  0  0  0  0
 65 67  1  0  0  0  0
 65 75  1  0  0  0  0
 66 78  1  0  0  0  0
 68 69  1  0  0  0  0
M  CHG  2  77   1  78   1
M  ISO  4  40 100  55 101  76 100  85 101
M  END
> <Batch ID>
0031

> <Smiles>
C=C1C[101CH:1]([101O:1]c2ccc3c(c2)CN(C(=O)C(NC(=O)C(C)NC)C(C)(C)C)C(C(=O)NC2CCCc4ccccc42)C3)CN1Cc1ccc([100N:0](C)[100C:0](=O)N2CCCC(n3nc(-c4ccc(Oc5ccc(F)cc5F)cc4)c(C(N)=O)c3N)C2)c(C)c1C

> <Shape>
0.272

> <Color>
0.064

> <Negative vol penalty>
0.000

$$$$

  -OEChem-04042321393D

 86 95  0     1  0  0  0  0  0999 V2000
  -26.8065  -30.9084   12.4900 C   0  0  0  0  0  0  0  0  0  0  0  0
  -26.9719  -29.6601   13.0815 C   0  0  0  0  0  0  0  0  0  0  0  0
  -22.9746  -10.0459   19.9408 C   0  0  0  0  0  0  0  0  0  0  0  0
  -23.8338   -9.8934   22.1937 C   0  0  0  0  0  0  0  0  0  0  0  0
  -26.5377  -32.0238   13.2822 C   0  0  0  0  0  0  0  0  0  0  0  0
  -26.8697  -29.5267   14.4658 C   0  0  0  0  0  0  0  0  0  0  0  0
  -24.6040  -24.7429   17.5460 C   0  0  0  0  0  0  0  0  0  0  0  0
  -22.1999   -8.9068   20.1592 C   0  0  0  0  0  0  0  0  0  0  0  0
  -23.0590   -8.7542   22.4121 C   0  0  0  0  0  0  0  0  0  0  0  0
  -25.2140  -23.6607   18.1788 C   0  0  0  0  0  0  0  0  0  0  0  0
  -19.8328   -8.0354   23.1159 C   0  0  0  0  0  0  0  0  0  0  0  0
  -19.1268   -7.9540   24.3161 C   0  0  0  0  0  0  0  0  0  0  0  0
  -25.1030  -24.8359   20.2825 C   0  0  0  0  0  0  0  0  0  0  0  0
  -29.3166  -17.9417   25.0675 C   0  0  0  0  0  0  0  0  0  0  0  0
  -29.6849  -18.7035   22.4092 C   0  0  0  0  0  0  0  0  0  0  0  0
  -20.3261   -5.9351   24.8844 C   0  0  0  0  0  0  0  0  0  0  0  0
  -23.7916  -10.5392   20.9581 C   0  0  0  0  0  0  0  0  0  0  0  0
  -24.2219  -13.0537   20.9652 C   0  0  0  0  0  0  0  0  0  0  0  0
  -26.4226  -31.9023   14.6760 C   0  0  0  0  0  0  0  0  0  0  0  0
  -24.2483  -25.8862   18.2760 C   0  0  0  0  0  0  0  0  0  0  0  0
  -26.6005  -30.6418   15.2775 C   0  0  0  0  0  0  0  0  0  0  0  0
  -24.4863  -25.9303   19.6571 C   0  0  0  0  0  0  0  0  0  0  0  0
  -30.0642  -17.1363   24.2084 C   0  0  0  0  0  0  0  0  0  0  0  0
  -28.7531  -19.1280   24.5974 C   0  0  0  0  0  0  0  0  0  0  0  0
  -30.2483  -17.5172   22.8793 C   0  0  0  0  0  0  0  0  0  0  0  0
  -28.9372  -19.5089   23.2683 C   0  0  0  0  0  0  0  0  0  0  0  0
  -22.2420   -8.2609   21.3948 C   0  0  0  0  0  0  0  0  0  0  0  0
  -25.4662  -23.7082   19.5467 C   0  0  0  0  0  0  0  0  0  0  0  0
  -20.7854   -7.0667   22.7999 C   0  0  0  0  0  0  0  0  0  0  0  0
  -19.3735   -6.9038   25.2004 C   0  0  0  0  0  0  0  0  0  0  0  0
  -21.0320   -6.0166   23.6842 C   0  0  0  0  0  0  0  0  0  0  0  0
  -24.5926  -11.7156   20.7330 C   0  0  0  0  0  0  0  0  0  0  0  0
  -25.3243  -13.7846   20.5952 C   0  0  0  0  0  0  0  0  0  0  0  0
  -22.9910  -13.5881   21.4703 C   0  0  0  0  0  0  0  0  0  0  0  0
  -25.0865  -28.9512   18.1934 C   0  0  0  0  0  0  0  0  0  0  0  0
  -22.7440  -29.2491   20.4174 C   0  0  0  0  0  0  0  0  0  0  0  0
  -20.8434  -27.7754   22.8387 C   0  0  0  0  0  0  0  0  0  0  0  0
  -30.8452  -14.5998   20.5893 C   0  0  0  0  0  0  0  0  0  0  0  0
  -26.1778  -33.1447   15.4952 C   0  0  0  0  0  0  0  0  0  0  0  0
  -23.5668  -27.0344   17.5834 C   0  0  0  0  0  0  0  0  0  0  0  0
  -24.1053  -27.1261   20.4897 C   0  0  0  0  0  0  0  0  0  0  0  0
  -25.7138  -32.8533   16.9200 C   0  0  0  0  0  0  0  0  0  0  0  0
  -29.5161  -12.3988   18.1264 C   0  0  0  0  0  0  0  0  0  0  0  0
  -26.5804  -31.7689   17.5523 C   0  0  0  0  0  0  0  0  0  0  0  0
  -28.0890  -12.1306   18.6075 C   0  0  0  0  0  0  0  0  0  0  0  0
  -25.1489  -20.5471   20.8808 C   0  0  0  0  0  0  0  0  0  0  0  0
  -30.4925  -12.5175   19.2946 C   0  0  0  0  0  0  0  0  0  0  0  0
  -28.6818  -13.2326   20.8059 C   0  0  0  0  0  0  0  0  0  0  0  0
  -26.4897  -19.9454   21.2504 C   0  0  0  0  0  0  0  0  0  0  0  0
  -26.1455  -22.0250   22.4979 C   0  0  0  0  0  0  0  0  0  0  0  0
  -26.4725  -30.4524   16.7734 C   0  0  1  0  0  0  0  0  0  0  0  0
  -23.7139  -28.3557   18.3316 C   0  0  1  0  0  0  0  0  0  0  0  0
  -27.6513  -13.1606   19.6661 C   0  0  2  0  0  0  0  0  0  0  0  0
  -25.3304  -22.0179   21.2141 C   0  0  1  0  0  0  0  0  0  1  0  0
  -30.6585  -15.8711   24.7343 C   0  0  0  0  0  0  0  0  0  0  0  0
  -27.9559  -19.9736   25.5354 C   0  0  0  0  0  0  0  0  0  0  0  0
  -19.0398  -28.2826   24.5082 C   0  0  0  0  0  0  0  0  0  0  0  0
  -24.7942  -30.6237   22.2110 C   0  0  0  0  0  0  0  0  0  0  0  0
  -23.2505  -30.2474   24.1458 C   0  0  0  0  0  0  0  0  0  0  0  0
  -22.5229  -31.6703   22.2305 C   0  0  0  0  0  0  0  0  0  0  0  0
  -18.9802  -25.8475   21.5854 C   0  0  0  0  0  0  0  0  0  0  0  0
  -31.0453  -16.6714   21.9413 C   0  0  0  0  0  0  0  0  0  0  0  0
  -28.3401  -20.7798   22.7399 C   0  0  0  0  0  0  0  0  0  0  0  0
  -22.6828  -29.1658   21.9235 C   0  0  1  0  0  0  0  0  0  0  0  0
  -19.3481  -27.7996   23.0995 C   0  0  2  0  0  0  0  0  0  0  0  0
  -23.3217  -30.4049   22.6119 C   0  0  0  0  0  0  0  0  0  0  0  0
  -25.8335  -11.6003   20.2525 N   0  0  0  0  0  0  0  0  0  0  0  0
  -26.2520  -12.8753   20.1797 N   0  0  0  0  0  0  0  0  0  0  0  0
  -23.4471  -28.2261   19.7655 N   0  0  0  0  0  0  0  0  0  0  0  0
  -30.0200  -13.5114   20.2615 N   0  0  0  0  0  0  0  0  0  0  0  0
  -25.5808  -15.1099   20.5878 N   0  0  0  0  0  0  0  0  0  0  0  0
  -21.9616  -12.6967   21.8018 N   0  0  0  0  0  0  0  0  0  0  0  0
  -25.2342  -29.7754   17.0942 N   0  0  0  0  0  0  0  0  0  0  0  0
  -21.2807  -28.9499   22.2637 N   0  0  0  0  0  0  0  0  0  0  0  0
  -30.3185  -15.4984   21.5090 N   0  0  0  0  0  0  0  0  0  0  0  0
  -26.8655  -20.6844   22.5135 N   0  3  2  0  0  0  0  0  0  0  0  0
  -18.7712  -26.4356   22.9335 N   0  3  0  0  0  0  0  0  0  0  0  0
  -22.8036  -14.8208   21.6078 O   0  0  0  0  0  0  0  0  0  0  0  0
  -25.9475  -28.6838   19.0235 O   0  0  0  0  0  0  0  0  0  0  0  0
  -22.1823  -30.1834   19.8401 O   0  0  0  0  0  0  0  0  0  0  0  0
  -21.5532  -26.8124   23.1205 O   0  0  0  0  0  0  0  0  0  0  0  0
  -31.9660  -14.7617   20.0948 O   0  0  0  0  0  0  0  0  0  0  0  0
  -21.4860   -7.1494   21.6082 O   0  0  0  0  0  0  0  0  0  0  0  0
  -26.0620  -22.6535   20.1667 O   0  0  0  0  0  0  0  0  0  1  0  0
  -18.6966   -6.8265   26.3536 F   0  0  0  0  0  0  0  0  0  0  0  0
  -21.9468   -5.0836   23.3866 F   0  0  0  0  0  0  0  0  0  0  0  0
  1  2  1  0  0  0  0
  1  5  2  0  0  0  0
  2  6  2  0  0  0  0
  3  8  2  0  0  0  0
  3 17  1  0  0  0  0
  4  9  1  0  0  0  0
  4 17  2  0  0  0  0
  5 19  1  0  0  0  0
  6 21  1  0  0  0  0
  7 10  2  0  0  0  0
  7 20  1  0  0  0  0
  8 27  1  0  0  0  0
  9 27  2  0  0  0  0
 10 28  1  0  0  0  0
 11 12  2  0  0  0  0
 11 29  1  0  0  0  0
 12 30  1  0  0  0  0
 13 22  1  0  0  0  0
 13 28  2  0  0  0  0
 14 23  2  0  0  0  0
 14 24  1  0  0  0  0
 15 25  2  0  0  0  0
 15 26  1  0  0  0  0
 16 30  2  0  0  0  0
 16 31  1  0  0  0  0
 17 32  1  0  0  0  0
 18 32  1  0  0  0  0
 18 33  2  0  0  0  0
 18 34  1  0  0  0  0
 19 21  2  0  0  0  0
 19 39  1  0  0  0  0
 20 22  2  0  0  0  0
 20 40  1  0  0  0  0
 21 51  1  0  0  0  0
 22 41  1  0  0  0  0
 23 25  1  0  0  0  0
 23 55  1  0  0  0  0
 24 26  2  0  0  0  0
 24 56  1  0  0  0  0
 25 62  1  0  0  0  0
 26 63  1  0  0  0  0
 27 83  1  0  0  0  0
 28 84  1  0  0  0  0
 29 31  2  0  0  0  0
 29 83  1  0  0  0  0
 30 85  1  0  0  0  0
 31 86  1  0  0  0  0
 32 67  2  0  0  0  0
 33 68  1  0  0  0  0
 33 71  1  0  0  0  0
 34 72  1  0  0  0  0
 34 78  2  0  0  0  0
 35 52  1  0  0  0  0
 35 73  1  0  0  0  0
 35 79  2  0  0  0  0
 36 64  1  0  0  0  0
 36 69  1  0  0  0  0
 36 80  2  0  0  0  0
 37 65  1  0  0  0  0
 37 74  1  0  0  0  0
 37 81  2  0  0  0  0
 38 70  1  0  0  0  0
 38 75  1  0  0  0  0
 38 82  2  0  0  0  0
 39 42  1  0  0  0  0
 40 52  1  0  0  0  0
 41 69  1  0  0  0  0
 42 44  1  0  0  0  0
 43 45  1  0  0  0  0
 43 47  1  0  0  0  0
 44 51  1  0  0  0  0
 45 53  1  0  0  0  0
 46 49  1  0  0  0  0
 46 54  1  0  0  0  0
 47 70  1  0  0  0  0
 48 53  1  0  0  0  0
 48 70  1  0  0  0  0
 49 76  1  0  0  0  0
 50 54  1  0  0  0  0
 50 76  1  0  0  0  0
 51 73  1  0  0  0  0
 52 69  1  0  0  0  0
 53 68  1  0  0  0  0
 54 84  1  0  0  0  0
 57 65  1  0  0  0  0
 58 66  1  0  0  0  0
 59 66  1  0  0  0  0
 60 66  1  0  0  0  0
 61 77  1  0  0  0  0
 62 75  1  0  0  0  0
 63 76  1  0  0  0  0
 64 66  1  0  0  0  0
 64 74  1  0  0  0  0
 65 77  1  0  0  0  0
 67 68  1  0  0  0  0
M  CHG  2  76   1  77   1
M  ISO  4  38 100  54 101  75 100  84 101
M  END
> <Batch ID>
0031

> <Smiles>
CNC(C)C(=O)NC(C(=O)N1Cc2cc([101O:1][101CH:1]3CCN(Cc4cc(C[100NH:0][100C:0](=O)N5CCCC(n6nc(-c7ccc(Oc8ccc(F)cc8F)cc7)c(C(N)=O)c6N)C5)c(C)cc4C)C3)ccc2CC1C(=O)NC1CCCc2ccccc21)C(C)(C)C

> <Shape>
0.281

> <Color>
0.203

> <Negative vol penalty>
0.000

$$$$

  -OEChem-04042321393D

 85 93  0     1  0  0  0  0  0999 V2000
  -26.8102  -35.0687   24.3448 C   0  0  0  0  0  0  0  0  0  0  0  0
  -27.2127  -33.7927   23.9639 C   0  0  0  0  0  0  0  0  0  0  0  0
  -26.4161  -12.6006   19.2995 C   0  0  0  0  0  0  0  0  0  0  0  0
  -24.9459  -13.2463   21.1047 C   0  0  0  0  0  0  0  0  0  0  0  0
  -25.4978  -35.2893   24.7609 C   0  0  0  0  0  0  0  0  0  0  0  0
  -26.3034  -32.7362   24.0000 C   0  0  0  0  0  0  0  0  0  0  0  0
  -26.5175  -29.8462   19.8470 C   0  0  0  0  0  0  0  0  0  0  0  0
  -31.1834  -22.5038   16.4615 C   0  0  0  0  0  0  0  0  0  0  0  0
  -25.6104  -11.4920   19.0398 C   0  0  0  0  0  0  0  0  0  0  0  0
  -24.1401  -12.1377   20.8450 C   0  0  0  0  0  0  0  0  0  0  0  0
  -27.5660  -28.9314   19.7612 C   0  0  0  0  0  0  0  0  0  0  0  0
  -24.1926   -8.8168   21.4771 C   0  0  0  0  0  0  0  0  0  0  0  0
  -23.7633   -8.0583   22.5661 C   0  0  0  0  0  0  0  0  0  0  0  0
  -30.7239  -21.5065   15.6014 C   0  0  0  0  0  0  0  0  0  0  0  0
  -26.0767  -27.1679   20.4623 C   0  0  0  0  0  0  0  0  0  0  0  0
  -21.4650   -8.5198   21.9816 C   0  0  0  0  0  0  0  0  0  0  0  0
  -26.0839  -13.4777   20.3320 C   0  0  0  0  0  0  0  0  0  0  0  0
  -28.2772  -14.6187   20.9609 C   0  0  0  0  0  0  0  0  0  0  0  0
  -24.5694  -34.2369   24.7928 C   0  0  0  0  0  0  0  0  0  0  0  0
  -25.2411  -29.4301   20.2522 C   0  0  0  0  0  0  0  0  0  0  0  0
  -24.9778  -32.9426   24.4181 C   0  0  0  0  0  0  0  0  0  0  0  0
  -25.0131  -28.0790   20.5499 C   0  0  0  0  0  0  0  0  0  0  0  0
  -30.5877  -22.6761   17.7110 C   0  0  0  0  0  0  0  0  0  0  0  0
  -29.5325  -21.8512   18.1003 C   0  0  0  0  0  0  0  0  0  0  0  0
  -29.0730  -20.8538   17.2402 C   0  0  0  0  0  0  0  0  0  0  0  0
  -24.4724  -11.2606   19.8125 C   0  0  0  0  0  0  0  0  0  0  0  0
  -27.3465  -27.5926   20.0717 C   0  0  0  0  0  0  0  0  0  0  0  0
  -23.2580   -9.4270   20.6404 C   0  0  0  0  0  0  0  0  0  0  0  0
  -22.3995   -7.9097   22.8183 C   0  0  0  0  0  0  0  0  0  0  0  0
  -21.8942   -9.2784   20.8926 C   0  0  0  0  0  0  0  0  0  0  0  0
  -29.6687  -20.6815   15.9907 C   0  0  0  0  0  0  0  0  0  0  0  0
  -26.9162  -14.6227   20.6012 C   0  0  0  0  0  0  0  0  0  0  0  0
  -28.5988  -15.9464   21.1027 C   0  0  0  0  0  0  0  0  0  0  0  0
  -29.1708  -13.5135   21.1500 C   0  0  0  0  0  0  0  0  0  0  0  0
  -23.3231  -30.1274   22.6891 C   0  0  0  0  0  0  0  0  0  0  0  0
  -21.2279  -28.2539   21.0697 C   0  0  0  0  0  0  0  0  0  0  0  0
  -20.7324  -25.7471   18.8076 C   0  0  0  0  0  0  0  0  0  0  0  0
  -25.7842  -20.8244   18.6898 C   0  0  0  0  0  0  0  0  0  0  0  0
  -23.1746  -34.5143   25.2949 C   0  0  0  0  0  0  0  0  0  0  0  0
  -24.1142  -30.4244   20.3139 C   0  0  0  0  0  0  0  0  0  0  0  0
  -23.6565  -27.5776   20.9704 C   0  0  0  0  0  0  0  0  0  0  0  0
  -22.1724  -33.4165   24.9473 C   0  0  0  0  0  0  0  0  0  0  0  0
  -26.6802  -20.1773   22.2225 C   0  0  0  0  0  0  0  0  0  0  0  0
  -22.7572  -32.0422   25.2573 C   0  0  0  0  0  0  0  0  0  0  0  0
  -26.8861  -18.6636   22.2420 C   0  0  0  0  0  0  0  0  0  0  0  0
  -25.6856  -20.6005   21.1457 C   0  0  0  0  0  0  0  0  0  0  0  0
  -26.2359  -18.5991   19.8020 C   0  0  0  0  0  0  0  0  0  0  0  0
  -24.0140  -31.7758   24.4200 C   0  0  1  0  0  0  0  0  0  0  0  0
  -22.9791  -29.9848   21.2334 C   0  0  1  0  0  0  0  0  0  0  0  0
  -27.2676  -18.1438   20.8450 C   0  0  2  0  0  0  0  0  0  0  0  0
  -28.8963  -22.0390   19.4415 C   0  0  0  0  0  0  0  0  0  0  0  0
  -18.9107  -24.4090   17.7175 C   0  0  0  0  0  0  0  0  0  0  0  0
  -20.8836  -26.6376   23.6346 C   0  0  0  0  0  0  0  0  0  0  0  0
  -19.8424  -24.8182   22.2657 C   0  0  0  0  0  0  0  0  0  0  0  0
  -18.7638  -27.0647   22.3782 C   0  0  0  0  0  0  0  0  0  0  0  0
  -26.4263  -21.4458   16.3917 C   0  0  0  0  0  0  0  0  0  0  0  0
  -21.4902  -26.6969   16.1090 C   0  0  0  0  0  0  0  0  0  0  0  0
  -27.9391  -19.9756   17.6706 C   0  0  0  0  0  0  0  0  0  0  0  0
  -31.1031  -23.7554   18.6168 C   0  0  0  0  0  0  0  0  0  0  0  0
  -30.6563  -25.9987   19.6203 C   0  0  0  0  0  0  0  0  0  0  0  0
  -29.6774  -27.1554   19.5773 C   0  0  0  0  0  0  0  0  0  1  0  0
  -20.9004  -26.7803   21.0567 C   0  0  1  0  0  0  0  0  0  0  0  0
  -19.8014  -25.6372   17.6136 C   0  0  2  0  0  0  0  0  0  0  0  0
  -20.1237  -26.3347   22.3278 C   0  0  0  0  0  0  0  0  0  0  0  0
  -26.4080  -15.8553   20.5196 N   0  0  0  0  0  0  0  0  0  0  0  0
  -27.4553  -16.6381   20.8302 N   0  0  0  0  0  0  0  0  0  0  0  0
  -22.5884  -28.5895   21.0217 N   0  0  0  0  0  0  0  0  0  0  0  0
  -26.0483  -20.0573   19.8363 N   0  0  0  0  0  0  0  0  0  0  0  0
  -29.7453  -16.5781   21.4328 N   0  0  0  0  0  0  0  0  0  0  0  0
  -29.2725  -12.9476   22.4282 N   0  0  0  0  0  0  0  0  0  0  0  0
  -23.6522  -31.4155   23.0659 N   0  0  0  0  0  0  0  0  0  0  0  0
  -20.1926  -26.5304   19.8057 N   0  0  0  0  0  0  0  0  0  0  0  0
  -26.6520  -20.6638   17.5990 N   0  0  0  0  0  0  0  0  0  0  0  0
  -20.5874  -25.5422   16.3509 N   0  3  0  0  0  0  0  0  0  0  0  0
  -30.2029  -24.9381   18.6854 N   0  3  0  0  0  0  0  0  0  0  0  0
  -29.8710  -13.0524   20.2169 O   0  0  0  0  0  0  0  0  0  0  0  0
  -23.2907  -29.1420   23.4169 O   0  0  0  0  0  0  0  0  0  0  0  0
  -20.3102  -29.0770   21.1132 O   0  0  0  0  0  0  0  0  0  0  0  0
  -21.8272  -25.1904   18.8520 O   0  0  0  0  0  0  0  0  0  0  0  0
  -24.8330  -21.6151   18.6472 O   0  0  0  0  0  0  0  0  0  0  0  0
  -23.6858  -10.1791   19.5592 O   0  0  0  0  0  0  0  0  0  0  0  0
  -28.3683  -26.6976   19.9895 O   0  0  0  0  0  0  0  0  0  1  0  0
  -21.9874   -7.1800   23.8632 F   0  0  0  0  0  0  0  0  0  0  0  0
  -20.9917   -9.8612   20.0916 F   0  0  0  0  0  0  0  0  0  0  0  0
  -29.1293  -19.4591   14.8973 Cl  0  0  0  0  0  0  0  0  0  0  0  0
  1  2  1  0  0  0  0
  1  5  2  0  0  0  0
  2  6  2  0  0  0  0
  3  9  2  0  0  0  0
  3 17  1  0  0  0  0
  4 10  1  0  0  0  0
  4 17  2  0  0  0  0
  5 19  1  0  0  0  0
  6 21  1  0  0  0  0
  7 11  2  0  0  0  0
  7 20  1  0  0  0  0
  8 14  2  0  0  0  0
  8 23  1  0  0  0  0
  9 26  1  0  0  0  0
 10 26  2  0  0  0  0
 11 27  1  0  0  0  0
 12 13  2  0  0  0  0
 12 28  1  0  0  0  0
 13 29  1  0  0  0  0
 14 31  1  0  0  0  0
 15 22  1  0  0  0  0
 15 27  2  0  0  0  0
 16 29  2  0  0  0  0
 16 30  1  0  0  0  0
 17 32  1  0  0  0  0
 18 32  1  0  0  0  0
 18 33  2  0  0  0  0
 18 34  1  0  0  0  0
 19 21  2  0  0  0  0
 19 39  1  0  0  0  0
 20 22  2  0  0  0  0
 20 40  1  0  0  0  0
 21 48  1  0  0  0  0
 22 41  1  0  0  0  0
 23 24  2  0  0  0  0
 23 59  1  0  0  0  0
 24 25  1  0  0  0  0
 24 51  1  0  0  0  0
 25 31  2  0  0  0  0
 25 58  1  0  0  0  0
 26 81  1  0  0  0  0
 27 82  1  0  0  0  0
 28 30  2  0  0  0  0
 28 81  1  0  0  0  0
 29 83  1  0  0  0  0
 30 84  1  0  0  0  0
 31 85  1  0  0  0  0
 32 65  2  0  0  0  0
 33 66  1  0  0  0  0
 33 69  1  0  0  0  0
 34 70  1  0  0  0  0
 34 76  2  0  0  0  0
 35 49  1  0  0  0  0
 35 71  1  0  0  0  0
 35 77  2  0  0  0  0
 36 62  1  0  0  0  0
 36 67  1  0  0  0  0
 36 78  2  0  0  0  0
 37 63  1  0  0  0  0
 37 72  1  0  0  0  0
 37 79  2  0  0  0  0
 38 68  1  0  0  0  0
 38 73  1  0  0  0  0
 38 80  2  0  0  0  0
 39 42  1  0  0  0  0
 40 49  1  0  0  0  0
 41 67  1  0  0  0  0
 42 44  1  0  0  0  0
 43 45  1  0  0  0  0
 43 46  1  0  0  0  0
 44 48  1  0  0  0  0
 45 50  1  0  0  0  0
 46 68  1  0  0  0  0
 47 50  1  0  0  0  0
 47 68  1  0  0  0  0
 48 71  1  0  0  0  0
 49 67  1  0  0  0  0
 50 66  1  0  0  0  0
 52 63  1  0  0  0  0
 53 64  1  0  0  0  0
 54 64  1  0  0  0  0
 55 64  1  0  0  0  0
 56 73  1  0  0  0  0
 57 74  1  0  0  0  0
 58 73  1  0  0  0  0
 59 75  1  0  0  0  0
 60 61  1  0  0  0  0
 60 75  1  0  0  0  0
 61 82  1  0  0  0  0
 62 64  1  0  0  0  0
 62 72  1  0  0  0  0
 63 74  1  0  0  0  0
 65 66  1  0  0  0  0
M  CHG  2  74   1  75   1
M  ISO  4  38 100  61 101  73 100  82 101
M  END
> <Batch ID>
0031

> <Smiles>
CNC(C)C(=O)NC(C(=O)N1Cc2cc([101O:1][101CH2:1]CNCc3ccc(Cl)c(C[100N:0](C)[100C:0](=O)N4CCCC(n5nc(-c6ccc(Oc7ccc(F)cc7F)cc6)c(C(N)=O)c5N)C4)c3C)ccc2CC1C(=O)NC1CCCc2ccccc21)C(C)(C)C

> <Shape>
0.316

> <Color>
0.085

> <Negative vol penalty>
0.000

$$$$

  -OEChem-04042321393D

 84 93  0     1  0  0  0  0  0999 V2000
  -26.9042  -27.7204    7.6199 C   0  0  0  0  0  0  0  0  0  0  0  0
  -27.2556  -26.8657    8.6598 C   0  0  0  0  0  0  0  0  0  0  0  0
  -23.0492   -9.8893   19.9169 C   0  0  0  0  0  0  0  0  0  0  0  0
  -23.8354   -9.8292   22.2006 C   0  0  0  0  0  0  0  0  0  0  0  0
  -27.0373  -29.0994    7.7773 C   0  0  0  0  0  0  0  0  0  0  0  0
  -27.7414  -27.3895    9.8574 C   0  0  0  0  0  0  0  0  0  0  0  0
  -26.8039  -25.1789   15.4912 C   0  0  0  0  0  0  0  0  0  0  0  0
  -22.3000   -8.7350   20.1444 C   0  0  0  0  0  0  0  0  0  0  0  0
  -23.0862   -8.6749   22.4282 C   0  0  0  0  0  0  0  0  0  0  0  0
  -27.5818  -24.3778   16.3259 C   0  0  0  0  0  0  0  0  0  0  0  0
  -19.8596   -7.8832   23.0467 C   0  0  0  0  0  0  0  0  0  0  0  0
  -19.1159   -7.8168   24.2249 C   0  0  0  0  0  0  0  0  0  0  0  0
  -28.4131  -26.3518   17.4357 C   0  0  0  0  0  0  0  0  0  0  0  0
  -31.6629  -18.3001   20.1685 C   0  0  0  0  0  0  0  0  0  0  0  0
  -29.2438  -19.6882   20.1041 C   0  0  0  0  0  0  0  0  0  0  0  0
  -20.3519   -5.8517   24.8944 C   0  0  0  0  0  0  0  0  0  0  0  0
  -23.8169  -10.4365   20.9450 C   0  0  0  0  0  0  0  0  0  0  0  0
  -24.1754  -12.9615   20.8890 C   0  0  0  0  0  0  0  0  0  0  0  0
  -27.5159  -29.6408    8.9808 C   0  0  0  0  0  0  0  0  0  0  0  0
  -26.8331  -26.5754   15.6155 C   0  0  0  0  0  0  0  0  0  0  0  0
  -27.8823  -28.7769   10.0305 C   0  0  0  0  0  0  0  0  0  0  0  0
  -27.6327  -27.1683   16.6030 C   0  0  0  0  0  0  0  0  0  0  0  0
  -30.6290  -17.9400   21.0328 C   0  0  0  0  0  0  0  0  0  0  0  0
  -30.2778  -20.0483   19.2398 C   0  0  0  0  0  0  0  0  0  0  0  0
  -22.3185   -8.1277   21.4000 C   0  0  0  0  0  0  0  0  0  0  0  0
  -28.3888  -24.9643   17.2965 C   0  0  0  0  0  0  0  0  0  0  0  0
  -20.8494   -6.9338   22.7923 C   0  0  0  0  0  0  0  0  0  0  0  0
  -19.3621   -6.8011   25.1487 C   0  0  0  0  0  0  0  0  0  0  0  0
  -21.0955   -5.9181   23.7161 C   0  0  0  0  0  0  0  0  0  0  0  0
  -31.4873  -19.3543   19.2721 C   0  0  0  0  0  0  0  0  0  0  0  0
  -29.4195  -18.6340   21.0005 C   0  0  0  0  0  0  0  0  0  0  0  0
  -24.5915  -11.6286   20.7104 C   0  0  0  0  0  0  0  0  0  0  0  0
  -25.2686  -13.7131   20.5333 C   0  0  0  0  0  0  0  0  0  0  0  0
  -22.9136  -13.4745   21.3365 C   0  0  0  0  0  0  0  0  0  0  0  0
  -27.6751  -28.9794   13.7141 C   0  0  0  0  0  0  0  0  0  0  0  0
  -26.5016  -30.7918   16.1349 C   0  0  0  0  0  0  0  0  0  0  0  0
  -25.7439  -31.0559   19.4520 C   0  0  0  0  0  0  0  0  0  0  0  0
  -30.7613  -14.6891   20.6847 C   0  0  0  0  0  0  0  0  0  0  0  0
  -27.6870  -31.1354    9.0871 C   0  0  0  0  0  0  0  0  0  0  0  0
  -25.9677  -27.4242   14.7250 C   0  0  0  0  0  0  0  0  0  0  0  0
  -27.6842  -28.6618   16.7907 C   0  0  0  0  0  0  0  0  0  0  0  0
  -27.8561  -31.6287   10.5218 C   0  0  0  0  0  0  0  0  0  0  0  0
  -29.5793  -12.3778   18.2482 C   0  0  0  0  0  0  0  0  0  0  0  0
  -28.8662  -30.7632   11.2683 C   0  0  0  0  0  0  0  0  0  0  0  0
  -28.1449  -12.0823   18.6898 C   0  0  0  0  0  0  0  0  0  0  0  0
  -30.5118  -12.5598   19.4437 C   0  0  0  0  0  0  0  0  0  0  0  0
  -28.6314  -13.2662   20.8717 C   0  0  0  0  0  0  0  0  0  0  0  0
  -30.8185  -22.3130   18.2862 C   0  0  0  0  0  0  0  0  0  0  0  0
  -28.8292  -21.6898   18.0000 C   0  0  0  0  0  0  0  0  0  0  0  0
  -28.3897  -29.3081   11.3535 C   0  0  1  0  0  0  0  0  0  0  0  0
  -26.4670  -28.8603   14.5994 C   0  0  1  0  0  0  0  0  0  0  0  0
  -27.6425  -13.1301   19.7012 C   0  0  2  0  0  0  0  0  0  0  0  0
  -29.6101  -22.9434   17.5798 C   0  0  0  0  0  0  0  0  0  1  0  0
  -24.8330  -32.6720   21.1419 C   0  0  0  0  0  0  0  0  0  0  0  0
  -29.1678  -32.2754   16.1496 C   0  0  0  0  0  0  0  0  0  0  0  0
  -28.5704  -33.1838   18.4049 C   0  0  0  0  0  0  0  0  0  0  0  0
  -27.1583  -33.7385   16.4248 C   0  0  0  0  0  0  0  0  0  0  0  0
  -23.4538  -29.2892   20.0788 C   0  0  0  0  0  0  0  0  0  0  0  0
  -30.8568  -16.8050   21.9782 C   0  0  0  0  0  0  0  0  0  0  0  0
  -27.0779  -31.4028   17.3893 C   0  0  1  0  0  0  0  0  0  0  0  0
  -24.5000  -31.5556   20.1644 C   0  0  2  0  0  0  0  0  0  0  0  0
  -27.9943  -32.6221   17.0876 C   0  0  0  0  0  0  0  0  0  0  0  0
  -25.8507  -11.5354   20.2749 N   0  0  0  0  0  0  0  0  0  0  0  0
  -26.2353  -12.8194   20.1768 N   0  0  0  0  0  0  0  0  0  0  0  0
  -30.0740  -21.1040   18.3582 N   0  0  0  0  0  0  0  0  0  0  0  0
  -26.8247  -29.4493   15.8914 N   0  0  0  0  0  0  0  0  0  0  0  0
  -29.9788  -13.5678   20.3635 N   0  0  0  0  0  0  0  0  0  0  0  0
  -25.4877  -15.0445   20.4936 N   0  0  0  0  0  0  0  0  0  0  0  0
  -21.8991  -12.5635   21.6610 N   0  0  0  0  0  0  0  0  0  0  0  0
  -27.3771  -29.1671   12.3779 N   0  0  0  0  0  0  0  0  0  0  0  0
  -25.9427  -31.7080   18.2534 N   0  0  0  0  0  0  0  0  0  0  0  0
  -30.1786  -15.5990   21.5584 N   0  0  0  0  0  0  0  0  0  0  0  0
  -23.8551  -30.4453   20.9209 N   0  3  0  0  0  0  0  0  0  0  0  0
  -22.6868  -14.7047   21.4297 O   0  0  0  0  0  0  0  0  0  0  0  0
  -28.7948  -28.9079   14.2069 O   0  0  0  0  0  0  0  0  0  0  0  0
  -25.7852  -31.4781   15.4019 O   0  0  0  0  0  0  0  0  0  0  0  0
  -26.4689  -30.1778   19.9144 O   0  0  0  0  0  0  0  0  0  0  0  0
  -31.8932  -14.8690   20.2227 O   0  0  0  0  0  0  0  0  0  0  0  0
  -21.5874   -7.0014   21.6225 O   0  0  0  0  0  0  0  0  0  0  0  0
  -29.1496  -24.1847   18.1121 O   0  0  0  0  0  0  0  0  0  1  0  0
  -18.6489   -6.7384   26.2808 F   0  0  0  0  0  0  0  0  0  0  0  0
  -22.0459   -5.0039   23.4778 F   0  0  0  0  0  0  0  0  0  0  0  0
  -32.7934  -19.7680   18.2195 Cl  0  0  0  0  0  0  0  0  0  0  0  0
  -28.1177  -18.2159   22.0542 Cl  0  0  0  0  0  0  0  0  0  0  0  0
  1  2  1  0  0  0  0
  1  5  2  0  0  0  0
  2  6  2  0  0  0  0
  3  8  2  0  0  0  0
  3 17  1  0  0  0  0
  4  9  1  0  0  0  0
  4 17  2  0  0  0  0
  5 19  1  0  0  0  0
  6 21  1  0  0  0  0
  7 10  2  0  0  0  0
  7 20  1  0  0  0  0
  8 25  1  0  0  0  0
  9 25  2  0  0  0  0
 10 26  1  0  0  0  0
 11 12  2  0  0  0  0
 11 27  1  0  0  0  0
 12 28  1  0  0  0  0
 13 22  1  0  0  0  0
 13 26  2  0  0  0  0
 14 23  2  0  0  0  0
 14 30  1  0  0  0  0
 15 24  1  0  0  0  0
 15 31  2  0  0  0  0
 16 28  2  0  0  0  0
 16 29  1  0  0  0  0
 17 32  1  0  0  0  0
 18 32  1  0  0  0  0
 18 33  2  0  0  0  0
 18 34  1  0  0  0  0
 19 21  2  0  0  0  0
 19 39  1  0  0  0  0
 20 22  2  0  0  0  0
 20 40  1  0  0  0  0
 21 50  1  0  0  0  0
 22 41  1  0  0  0  0
 23 31  1  0  0  0  0
 23 59  1  0  0  0  0
 24 30  2  0  0  0  0
 24 65  1  0  0  0  0
 25 79  1  0  0  0  0
 26 80  1  0  0  0  0
 27 29  2  0  0  0  0
 27 79  1  0  0  0  0
 28 81  1  0  0  0  0
 29 82  1  0  0  0  0
 30 83  1  0  0  0  0
 31 84  1  0  0  0  0
 32 63  2  0  0  0  0
 33 64  1  0  0  0  0
 33 68  1  0  0  0  0
 34 69  1  0  0  0  0
 34 74  2  0  0  0  0
 35 51  1  0  0  0  0
 35 70  1  0  0  0  0
 35 75  2  0  0  0  0
 36 60  1  0  0  0  0
 36 66  1  0  0  0  0
 36 76  2  0  0  0  0
 37 61  1  0  0  0  0
 37 71  1  0  0  0  0
 37 77  2  0  0  0  0
 38 67  1  0  0  0  0
 38 72  1  0  0  0  0
 38 78  2  0  0  0  0
 39 42  1  0  0  0  0
 40 51  1  0  0  0  0
 41 66  1  0  0  0  0
 42 44  1  0  0  0  0
 43 45  1  0  0  0  0
 43 46  1  0  0  0  0
 44 50  1  0  0  0  0
 45 52  1  0  0  0  0
 46 67  1  0  0  0  0
 47 52  1  0  0  0  0
 47 67  1  0  0  0  0
 48 53  1  0  0  0  0
 48 65  1  0  0  0  0
 49 53  1  0  0  0  0
 49 65  1  0  0  0  0
 50 70  1  0  0  0  0
 51 66  1  0  0  0  0
 52 64  1  0  0  0  0
 53 80  1  0  0  0  0
 54 61  1  0  0  0  0
 55 62  1  0  0  0  0
 56 62  1  0  0  0  0
 57 62  1  0  0  0  0
 58 73  1  0  0  0  0
 59 72  1  0  0  0  0
 60 62  1  0  0  0  0
 60 71  1  0  0  0  0
 61 73  1  0  0  0  0
 63 64  1  0  0  0  0
M  CHG  1  73   1
M  ISO  4  38 100  53 101  72 100  80 101
M  END
> <Batch ID>
0031

> <Smiles>
CNC(C)C(=O)NC(C(=O)N1Cc2cc([101O:1][101CH:1]3CN(c4cc(Cl)c(C[100NH:0][100C:0](=O)N5CCCC(n6nc(-c7ccc(Oc8ccc(F)cc8F)cc7)c(C(N)=O)c6N)C5)cc4Cl)C3)ccc2CC1C(=O)NC1CCCc2ccccc21)C(C)(C)C

> <Shape>
0.244

> <Color>
0.198

> <Negative vol penalty>
0.000

$$$$

  -OEChem-04042321393D

 80 88  0     1  0  0  0  0  0999 V2000
  -33.7391  -27.7990   12.1205 C   0  0  0  0  0  0  0  0  0  0  0  0
  -33.3992  -26.9832   13.1950 C   0  0  0  0  0  0  0  0  0  0  0  0
  -23.1234   -9.8426   19.9278 C   0  0  0  0  0  0  0  0  0  0  0  0
  -23.8953   -9.8524   22.2172 C   0  0  0  0  0  0  0  0  0  0  0  0
  -33.5110  -29.1727   12.1903 C   0  0  0  0  0  0  0  0  0  0  0  0
  -32.8321  -27.5408   14.3403 C   0  0  0  0  0  0  0  0  0  0  0  0
  -28.8821  -24.8719   16.0490 C   0  0  0  0  0  0  0  0  0  0  0  0
  -31.1871  -19.6204   19.1732 C   0  0  0  0  0  0  0  0  0  0  0  0
  -31.3975  -18.5900   20.0895 C   0  0  0  0  0  0  0  0  0  0  0  0
  -22.4187   -8.6635   20.1704 C   0  0  0  0  0  0  0  0  0  0  0  0
  -23.1906   -8.6734   22.4598 C   0  0  0  0  0  0  0  0  0  0  0  0
  -29.1615  -23.7075   16.7631 C   0  0  0  0  0  0  0  0  0  0  0  0
  -19.9934   -7.7654   23.0713 C   0  0  0  0  0  0  0  0  0  0  0  0
  -19.2446   -7.6897   24.2457 C   0  0  0  0  0  0  0  0  0  0  0  0
  -28.7833  -24.8917   18.8304 C   0  0  0  0  0  0  0  0  0  0  0  0
  -28.9259  -19.8796   19.9839 C   0  0  0  0  0  0  0  0  0  0  0  0
  -20.5522   -5.7867   24.9569 C   0  0  0  0  0  0  0  0  0  0  0  0
  -23.8617  -10.4370   20.9512 C   0  0  0  0  0  0  0  0  0  0  0  0
  -24.1208  -12.9730   20.8538 C   0  0  0  0  0  0  0  0  0  0  0  0
  -32.9318  -29.7461   13.3332 C   0  0  0  0  0  0  0  0  0  0  0  0
  -28.5614  -26.0597   16.7218 C   0  0  0  0  0  0  0  0  0  0  0  0
  -32.5972  -28.9237   14.4259 C   0  0  0  0  0  0  0  0  0  0  0  0
  -28.4978  -26.0692   18.1225 C   0  0  0  0  0  0  0  0  0  0  0  0
  -29.9513  -20.2652   19.1204 C   0  0  0  0  0  0  0  0  0  0  0  0
  -30.3722  -18.2044   20.9530 C   0  0  0  0  0  0  0  0  0  0  0  0
  -22.4523   -8.0790   21.4364 C   0  0  0  0  0  0  0  0  0  0  0  0
  -29.1149  -23.7180   18.1541 C   0  0  0  0  0  0  0  0  0  0  0  0
  -21.0216   -6.8517   22.8397 C   0  0  0  0  0  0  0  0  0  0  0  0
  -19.5240   -6.7004   25.1885 C   0  0  0  0  0  0  0  0  0  0  0  0
  -21.3010   -5.8624   23.7825 C   0  0  0  0  0  0  0  0  0  0  0  0
  -29.1364  -18.8491   20.9002 C   0  0  0  0  0  0  0  0  0  0  0  0
  -24.5903  -11.6547   20.7010 C   0  0  0  0  0  0  0  0  0  0  0  0
  -25.1860  -13.7610   20.4922 C   0  0  0  0  0  0  0  0  0  0  0  0
  -22.8365  -13.4432   21.2843 C   0  0  0  0  0  0  0  0  0  0  0  0
  -29.8705  -28.9495   16.9193 C   0  0  0  0  0  0  0  0  0  0  0  0
  -27.1780  -29.6276   18.5965 C   0  0  0  0  0  0  0  0  0  0  0  0
  -24.5889  -28.4865   20.5047 C   0  0  0  0  0  0  0  0  0  0  0  0
  -30.6348  -14.9559   20.6619 C   0  0  0  0  0  0  0  0  0  0  0  0
  -32.7480  -31.2423   13.3809 C   0  0  0  0  0  0  0  0  0  0  0  0
  -28.2365  -27.3005   15.9361 C   0  0  0  0  0  0  0  0  0  0  0  0
  -28.1386  -27.3133   18.8916 C   0  0  0  0  0  0  0  0  0  0  0  0
  -31.7980  -31.7045   14.4828 C   0  0  0  0  0  0  0  0  0  0  0  0
  -29.5620  -12.5585   18.2581 C   0  0  0  0  0  0  0  0  0  0  0  0
  -32.1274  -31.0070   15.7988 C   0  0  0  0  0  0  0  0  0  0  0  0
  -28.1373  -12.2141   18.6956 C   0  0  0  0  0  0  0  0  0  0  0  0
  -30.4781  -12.7976   19.4563 C   0  0  0  0  0  0  0  0  0  0  0  0
  -28.5613  -13.4532   20.8598 C   0  0  0  0  0  0  0  0  0  0  0  0
  -31.9572  -29.4880   15.6757 C   0  0  1  0  0  0  0  0  0  0  0  0
  -28.4243  -28.5832   16.7403 C   0  0  1  0  0  0  0  0  0  0  0  0
  -27.5868  -13.2583   19.6856 C   0  0  2  0  0  0  0  0  0  0  0  0
  -22.5690  -29.2826   21.7632 C   0  0  0  0  0  0  0  0  0  0  0  0
  -28.9805  -30.6597   20.8317 C   0  0  0  0  0  0  0  0  0  0  0  0
  -27.0139  -30.5427   22.3768 C   0  0  0  0  0  0  0  0  0  0  0  0
  -26.9534  -32.0583   20.3964 C   0  0  0  0  0  0  0  0  0  0  0  0
  -22.7620  -26.8799   18.8194 C   0  0  0  0  0  0  0  0  0  0  0  0
  -30.6376  -17.0956   21.9192 C   0  0  0  0  0  0  0  0  0  0  0  0
  -29.7248  -21.3735   18.1346 C   0  0  0  0  0  0  0  0  0  1  0  0
  -26.7789  -29.5598   20.0509 C   0  0  1  0  0  0  0  0  0  0  0  0
  -23.0957  -28.7520   20.4388 C   0  0  2  0  0  0  0  0  0  0  0  0
  -27.4404  -30.6820   20.8998 C   0  0  0  0  0  0  0  0  0  0  0  0
  -25.8553  -11.6040   20.2752 N   0  0  0  0  0  0  0  0  0  0  0  0
  -26.1897  -12.9003   20.1574 N   0  0  0  0  0  0  0  0  0  0  0  0
  -27.8354  -28.5027   18.0786 N   0  0  0  0  0  0  0  0  0  0  0  0
  -29.8993  -13.7992   20.3550 N   0  0  0  0  0  0  0  0  0  0  0  0
  -25.3527  -15.0992   20.4310 N   0  0  0  0  0  0  0  0  0  0  0  0
  -21.8565  -12.4985   21.6180 N   0  0  0  0  0  0  0  0  0  0  0  0
  -30.5562  -29.1300   15.7333 N   0  0  0  0  0  0  0  0  0  0  0  0
  -25.3203  -29.5735   20.0750 N   0  0  0  0  0  0  0  0  0  0  0  0
  -30.0104  -15.8567   21.5160 N   0  0  0  0  0  0  0  0  0  0  0  0
  -22.3607  -27.4981   20.1092 N   0  3  0  0  0  0  0  0  0  0  0  0
  -22.5608  -14.6649   21.3548 O   0  0  0  0  0  0  0  0  0  0  0  0
  -30.3299  -29.0616   18.0499 O   0  0  0  0  0  0  0  0  0  0  0  0
  -26.9098  -30.6383   17.9423 O   0  0  0  0  0  0  0  0  0  0  0  0
  -25.0594  -27.4227   20.9014 O   0  0  0  0  0  0  0  0  0  0  0  0
  -31.7619  -15.1725   20.2041 O   0  0  0  0  0  0  0  0  0  0  0  0
  -21.7646   -6.9286   21.6736 O   0  0  0  0  0  0  0  0  0  0  0  0
  -29.3878  -22.5830   18.8535 O   0  0  0  0  0  0  0  0  0  1  0  0
  -18.8059   -6.6289   26.3169 F   0  0  0  0  0  0  0  0  0  0  0  0
  -22.2883   -4.9825   23.5660 F   0  0  0  0  0  0  0  0  0  0  0  0
  -27.8444  -18.3981   21.9522 Cl  0  0  0  0  0  0  0  0  0  0  0  0
  1  2  1  0  0  0  0
  1  5  2  0  0  0  0
  2  6  2  0  0  0  0
  3 10  2  0  0  0  0
  3 18  1  0  0  0  0
  4 11  1  0  0  0  0
  4 18  2  0  0  0  0
  5 20  1  0  0  0  0
  6 22  1  0  0  0  0
  7 12  2  0  0  0  0
  7 21  1  0  0  0  0
  8  9  2  0  0  0  0
  8 24  1  0  0  0  0
  9 25  1  0  0  0  0
 10 26  1  0  0  0  0
 11 26  2  0  0  0  0
 12 27  1  0  0  0  0
 13 14  2  0  0  0  0
 13 28  1  0  0  0  0
 14 29  1  0  0  0  0
 15 23  1  0  0  0  0
 15 27  2  0  0  0  0
 16 24  2  0  0  0  0
 16 31  1  0  0  0  0
 17 29  2  0  0  0  0
 17 30  1  0  0  0  0
 18 32  1  0  0  0  0
 19 32  1  0  0  0  0
 19 33  2  0  0  0  0
 19 34  1  0  0  0  0
 20 22  2  0  0  0  0
 20 39  1  0  0  0  0
 21 23  2  0  0  0  0
 21 40  1  0  0  0  0
 22 48  1  0  0  0  0
 23 41  1  0  0  0  0
 24 57  1  0  0  0  0
 25 31  2  0  0  0  0
 25 56  1  0  0  0  0
 26 76  1  0  0  0  0
 27 77  1  0  0  0  0
 28 30  2  0  0  0  0
 28 76  1  0  0  0  0
 29 78  1  0  0  0  0
 30 79  1  0  0  0  0
 31 80  1  0  0  0  0
 32 61  2  0  0  0  0
 33 62  1  0  0  0  0
 33 65  1  0  0  0  0
 34 66  1  0  0  0  0
 34 71  2  0  0  0  0
 35 49  1  0  0  0  0
 35 67  1  0  0  0  0
 35 72  2  0  0  0  0
 36 58  1  0  0  0  0
 36 63  1  0  0  0  0
 36 73  2  0  0  0  0
 37 59  1  0  0  0  0
 37 68  1  0  0  0  0
 37 74  2  0  0  0  0
 38 64  1  0  0  0  0
 38 69  1  0  0  0  0
 38 75  2  0  0  0  0
 39 42  1  0  0  0  0
 40 49  1  0  0  0  0
 41 63  1  0  0  0  0
 42 44  1  0  0  0  0
 43 45  1  0  0  0  0
 43 46  1  0  0  0  0
 44 48  1  0  0  0  0
 45 50  1  0  0  0  0
 46 64  1  0  0  0  0
 47 50  1  0  0  0  0
 47 64  1  0  0  0  0
 48 67  1  0  0  0  0
 49 63  1  0  0  0  0
 50 62  1  0  0  0  0
 51 59  1  0  0  0  0
 52 60  1  0  0  0  0
 53 60  1  0  0  0  0
 54 60  1  0  0  0  0
 55 70  1  0  0  0  0
 56 69  1  0  0  0  0
 57 77  1  0  0  0  0
 58 60  1  0  0  0  0
 58 68  1  0  0  0  0
 59 70  1  0  0  0  0
 61 62  1  0  0  0  0
M  CHG  1  70   1
M  ISO  4  38 100  57 101  69 100  77 101
M  END
> <Batch ID>
0031

> <Smiles>
CNC(C)C(=O)NC(C(=O)N1Cc2cc([101O:1][101CH2:1]c3ccc(C[100NH:0][100C:0](=O)N4CCCC(n5nc(-c6ccc(Oc7ccc(F)cc7F)cc6)c(C(N)=O)c5N)C4)c(Cl)c3)ccc2CC1C(=O)NC1CCCc2ccccc21)C(C)(C)C

> <Shape>
0.287

> <Color>
0.215

> <Negative vol penalty>
0.000

$$$$

  -OEChem-04042321393D

 88 97  0     1  0  0  0  0  0999 V2000
  -21.4287   -7.7765   25.9233 C   0  0  0  0  0  0  0  0  0  0  0  0
  -22.4313   -7.5532   24.9850 C   0  0  0  0  0  0  0  0  0  0  0  0
  -26.1904  -30.7273   24.8984 C   0  0  0  0  0  0  0  0  0  0  0  0
  -27.5125  -32.0028   23.3291 C   0  0  0  0  0  0  0  0  0  0  0  0
  -20.4127   -8.6918   25.6517 C   0  0  0  0  0  0  0  0  0  0  0  0
  -22.4178   -8.2445   23.7740 C   0  0  0  0  0  0  0  0  0  0  0  0
  -27.9563  -12.4176   21.8243 C   0  0  0  0  0  0  0  0  0  0  0  0
  -28.6426  -20.2883   16.6156 C   0  0  0  0  0  0  0  0  0  0  0  0
  -28.6548  -21.6223   16.2084 C   0  0  0  0  0  0  0  0  0  0  0  0
  -26.2892  -31.7651   25.8251 C   0  0  0  0  0  0  0  0  0  0  0  0
  -27.6113  -33.0406   24.2559 C   0  0  0  0  0  0  0  0  0  0  0  0
  -29.0664  -13.0677   21.2847 C   0  0  0  0  0  0  0  0  0  0  0  0
  -27.9081  -36.1752   26.0736 C   0  0  0  0  0  0  0  0  0  0  0  0
  -27.7049  -37.4767   25.6150 C   0  0  0  0  0  0  0  0  0  0  0  0
  -27.7810  -13.6571   19.3230 C   0  0  0  0  0  0  0  0  0  0  0  0
  -25.4716  -36.8804   24.9121 C   0  0  0  0  0  0  0  0  0  0  0  0
  -26.8021  -30.8461   23.6504 C   0  0  0  0  0  0  0  0  0  0  0  0
  -25.5236  -29.2431   22.1328 C   0  0  0  0  0  0  0  0  0  0  0  0
  -20.3921   -9.4017   24.4408 C   0  0  0  0  0  0  0  0  0  0  0  0
  -26.7485  -12.3979   21.1213 C   0  0  0  0  0  0  0  0  0  0  0  0
  -21.3998   -9.1692   23.4854 C   0  0  0  0  0  0  0  0  0  0  0  0
  -26.6622  -13.0182   19.8641 C   0  0  0  0  0  0  0  0  0  0  0  0
  -29.0602  -19.9480   17.9023 C   0  0  0  0  0  0  0  0  0  0  0  0
  -29.0847  -22.6160   17.0879 C   0  0  0  0  0  0  0  0  0  0  0  0
  -29.4900  -20.9417   18.7817 C   0  0  0  0  0  0  0  0  0  0  0  0
  -29.5023  -22.2757   18.3745 C   0  0  0  0  0  0  0  0  0  0  0  0
  -26.9996  -32.9217   25.5039 C   0  0  0  0  0  0  0  0  0  0  0  0
  -28.9790  -13.6857   20.0370 C   0  0  0  0  0  0  0  0  0  0  0  0
  -26.8931  -35.2262   25.9514 C   0  0  0  0  0  0  0  0  0  0  0  0
  -26.4867  -37.8294   25.0343 C   0  0  0  0  0  0  0  0  0  0  0  0
  -25.6749  -35.5788   25.3707 C   0  0  0  0  0  0  0  0  0  0  0  0
  -26.7008  -29.7742   22.6929 C   0  0  0  0  0  0  0  0  0  0  0  0
  -25.9617  -28.2526   21.2881 C   0  0  0  0  0  0  0  0  0  0  0  0
  -30.4103  -16.7106   19.2029 C   0  0  0  0  0  0  0  0  0  0  0  0
  -30.9700  -16.8449   20.4165 C   0  0  0  0  0  0  0  0  0  0  0  0
  -24.1562  -29.6120   22.3560 C   0  0  0  0  0  0  0  0  0  0  0  0
  -23.1603  -11.3053   21.0379 C   0  0  0  0  0  0  0  0  0  0  0  0
  -23.2521  -14.1507   19.8952 C   0  0  0  0  0  0  0  0  0  0  0  0
  -23.7243  -17.4327   19.0935 C   0  0  0  0  0  0  0  0  0  0  0  0
  -29.0444  -23.9624   20.1456 C   0  0  0  0  0  0  0  0  0  0  0  0
  -19.2472  -10.3461   24.1724 C   0  0  0  0  0  0  0  0  0  0  0  0
  -25.5447  -11.6568   21.6363 C   0  0  0  0  0  0  0  0  0  0  0  0
  -25.3524  -12.9419   19.1282 C   0  0  0  0  0  0  0  0  0  0  0  0
  -19.5125  -11.3134   23.0216 C   0  0  0  0  0  0  0  0  0  0  0  0
  -30.6047  -27.1198   19.6561 C   0  0  0  0  0  0  0  0  0  0  0  0
  -30.3216  -16.3407   16.3612 C   0  0  0  0  0  0  0  0  0  0  0  0
  -20.0900  -10.5697   21.8215 C   0  0  0  0  0  0  0  0  0  0  0  0
  -30.3954  -15.1250   17.2782 C   0  0  0  0  0  0  0  0  0  0  0  0
  -29.6297  -28.0542   20.3715 C   0  0  0  0  0  0  0  0  0  0  0  0
  -30.7882  -25.8003   20.4067 C   0  0  0  0  0  0  0  0  0  0  0  0
  -28.5434  -26.0327   21.4223 C   0  0  0  0  0  0  0  0  0  0  0  0
  -30.9849  -17.5585   16.9962 C   0  0  0  0  0  0  0  0  0  0  0  0
  -21.4334   -9.9178   22.1707 C   0  0  1  0  0  0  0  0  0  0  0  0
  -29.8166  -15.4306   18.6588 C   0  0  1  0  0  0  0  0  0  1  0  0
  -24.2146  -12.3450   21.2808 C   0  0  1  0  0  0  0  0  0  0  0  0
  -28.2955  -27.3440   20.6605 C   0  0  1  0  0  0  0  0  0  0  0  0
  -29.0868  -24.0362   16.6221 C   0  0  0  0  0  0  0  0  0  0  0  0
  -29.9381  -20.5690   20.1605 C   0  0  0  0  0  0  0  0  0  0  0  0
  -22.4782  -19.4731   18.3311 C   0  0  0  0  0  0  0  0  0  0  0  0
  -23.1006  -12.9998   17.0745 C   0  0  0  0  0  0  0  0  0  0  0  0
  -22.7638  -15.3284   16.2189 C   0  0  0  0  0  0  0  0  0  0  0  0
  -21.0938  -14.3188   17.7726 C   0  0  0  0  0  0  0  0  0  0  0  0
  -31.3906  -23.4942   19.4735 C   0  0  0  0  0  0  0  0  0  0  0  0
  -24.4712  -18.9406   21.5281 C   0  0  0  0  0  0  0  0  0  0  0  0
  -29.0370  -18.5054   18.3140 C   0  0  0  0  0  0  0  0  0  0  0  0
  -23.3536  -15.0173   18.6656 C   0  0  1  0  0  0  0  0  0  0  0  0
  -22.9952  -18.6911   19.5285 C   0  0  2  0  0  0  0  0  0  0  0  0
  -22.6009  -14.4095   17.4484 C   0  0  0  0  0  0  0  0  0  0  0  0
  -27.8040  -29.1710   22.2421 N   0  0  0  0  0  0  0  0  0  0  0  0
  -27.3218  -28.2505   21.3900 N   0  0  0  0  0  0  0  0  0  0  0  0
  -24.2379  -13.1703   20.0612 N   0  0  0  0  0  0  0  0  0  0  0  0
  -29.4874  -25.1801   20.6956 N   0  0  0  0  0  0  0  0  0  0  0  0
  -25.3124  -27.3918   20.4758 N   0  0  0  0  0  0  0  0  0  0  0  0
  -23.5889  -30.5998   21.5394 N   0  0  0  0  0  0  0  0  0  0  0  0
  -22.4888  -10.9080   22.1784 N   0  0  0  0  0  0  0  0  0  0  0  0
  -22.8828  -16.3409   19.0591 N   0  0  0  0  0  0  0  0  0  0  0  0
  -29.9483  -23.3059   19.2829 N   0  0  0  0  0  0  0  0  0  0  0  0
  -30.4051  -17.8819   18.3539 N   0  3  1  0  0  0  0  0  0  0  0  0
  -23.9072  -19.5746   20.3086 N   0  3  0  0  0  0  0  0  0  0  0  0
  -23.4630  -29.0932   23.2637 O   0  0  0  0  0  0  0  0  0  0  0  0
  -22.9681  -10.8941   19.8997 O   0  0  0  0  0  0  0  0  0  0  0  0
  -22.3219  -14.3321   20.6859 O   0  0  0  0  0  0  0  0  0  0  0  0
  -24.9198  -17.4203   18.8087 O   0  0  0  0  0  0  0  0  0  0  0  0
  -27.9377  -23.4853   20.4241 O   0  0  0  0  0  0  0  0  0  0  0  0
  -27.0961  -33.9347   26.4079 O   0  0  0  0  0  0  0  0  0  0  0  0
  -30.0652  -14.3226   19.5181 O   0  0  0  0  0  0  0  0  0  1  0  0
  -26.2911  -39.0797   24.5954 F   0  0  0  0  0  0  0  0  0  0  0  0
  -24.6956  -34.6718   25.2516 F   0  0  0  0  0  0  0  0  0  0  0  0
  1  2  1  0  0  0  0
  1  5  2  0  0  0  0
  2  6  2  0  0  0  0
  3 10  2  0  0  0  0
  3 17  1  0  0  0  0
  4 11  1  0  0  0  0
  4 17  2  0  0  0  0
  5 19  1  0  0  0  0
  6 21  1  0  0  0  0
  7 12  2  0  0  0  0
  7 20  1  0  0  0  0
  8  9  2  0  0  0  0
  8 23  1  0  0  0  0
  9 24  1  0  0  0  0
 10 27  1  0  0  0  0
 11 27  2  0  0  0  0
 12 28  1  0  0  0  0
 13 14  2  0  0  0  0
 13 29  1  0  0  0  0
 14 30  1  0  0  0  0
 15 22  1  0  0  0  0
 15 28  2  0  0  0  0
 16 30  2  0  0  0  0
 16 31  1  0  0  0  0
 17 32  1  0  0  0  0
 18 32  1  0  0  0  0
 18 33  2  0  0  0  0
 18 36  1  0  0  0  0
 19 21  2  0  0  0  0
 19 41  1  0  0  0  0
 20 22  2  0  0  0  0
 20 42  1  0  0  0  0
 21 53  1  0  0  0  0
 22 43  1  0  0  0  0
 23 25  2  0  0  0  0
 23 65  1  0  0  0  0
 24 26  2  0  0  0  0
 24 57  1  0  0  0  0
 25 26  1  0  0  0  0
 25 58  1  0  0  0  0
 26 77  1  0  0  0  0
 27 85  1  0  0  0  0
 28 86  1  0  0  0  0
 29 31  2  0  0  0  0
 29 85  1  0  0  0  0
 30 87  1  0  0  0  0
 31 88  1  0  0  0  0
 32 69  2  0  0  0  0
 33 70  1  0  0  0  0
 33 73  1  0  0  0  0
 34 35  2  0  0  0  0
 34 54  1  0  0  0  0
 34 78  1  0  0  0  0
 36 74  1  0  0  0  0
 36 80  2  0  0  0  0
 37 55  1  0  0  0  0
 37 75  1  0  0  0  0
 37 81  2  0  0  0  0
 38 66  1  0  0  0  0
 38 71  1  0  0  0  0
 38 82  2  0  0  0  0
 39 67  1  0  0  0  0
 39 76  1  0  0  0  0
 39 83  2  0  0  0  0
 40 72  1  0  0  0  0
 40 77  1  0  0  0  0
 40 84  2  0  0  0  0
 41 44  1  0  0  0  0
 42 55  1  0  0  0  0
 43 71  1  0  0  0  0
 44 47  1  0  0  0  0
 45 49  1  0  0  0  0
 45 50  1  0  0  0  0
 46 48  1  0  0  0  0
 46 52  1  0  0  0  0
 47 53  1  0  0  0  0
 48 54  1  0  0  0  0
 49 56  1  0  0  0  0
 50 72  1  0  0  0  0
 51 56  1  0  0  0  0
 51 72  1  0  0  0  0
 52 78  1  0  0  0  0
 53 75  1  0  0  0  0
 54 86  1  0  0  0  0
 55 71  1  0  0  0  0
 56 70  1  0  0  0  0
 59 67  1  0  0  0  0
 60 68  1  0  0  0  0
 61 68  1  0  0  0  0
 62 68  1  0  0  0  0
 63 77  1  0  0  0  0
 64 79  1  0  0  0  0
 65 78  1  0  0  0  0
 66 68  1  0  0  0  0
 66 76  1  0  0  0  0
 67 79  1  0  0  0  0
 69 70  1  0  0  0  0
M  CHG  2  78   1  79   1
M  ISO  4  40 100  54 101  77 100  86 101
M  END
> <Batch ID>
0031

> <Smiles>
C=C1N(Cc2ccc(C)c([100N:0](C)[100C:0](=O)N3CCCC(n4nc(-c5ccc(Oc6ccc(F)cc6F)cc5)c(C(N)=O)c4N)C3)c2C)CCC[101CH:1]1[101O:1]c1ccc2c(c1)CN(C(=O)C(NC(=O)C(C)NC)C(C)(C)C)C(C(=O)NC1CCCc3ccccc31)C2

> <Shape>
0.292

> <Color>
0.056

> <Negative vol penalty>
0.000

$$$$

  -OEChem-04042321393D

 87 96  0     1  0  0  0  0  0999 V2000
  -24.4284  -10.7257   20.7356 C   0  0  0  0  0  0  0  0  0  0  0  0
  -23.5182  -11.7282   21.0545 C   0  0  0  0  0  0  0  0  0  0  0  0
  -31.4401  -26.0806   19.2109 C   0  0  0  0  0  0  0  0  0  0  0  0
  -31.7195  -27.8613   20.8197 C   0  0  0  0  0  0  0  0  0  0  0  0
  -25.7845  -11.0281   20.6195 C   0  0  0  0  0  0  0  0  0  0  0  0
  -23.9637  -13.0337   21.2586 C   0  0  0  0  0  0  0  0  0  0  0  0
  -21.0028  -18.2001   19.8278 C   0  0  0  0  0  0  0  0  0  0  0  0
  -32.7266  -26.3165   18.7263 C   0  0  0  0  0  0  0  0  0  0  0  0
  -33.0060  -28.0972   20.3351 C   0  0  0  0  0  0  0  0  0  0  0  0
  -20.2302  -19.0791   20.5856 C   0  0  0  0  0  0  0  0  0  0  0  0
  -35.9026  -25.6011   19.6396 C   0  0  0  0  0  0  0  0  0  0  0  0
  -36.7222  -24.4958   19.4114 C   0  0  0  0  0  0  0  0  0  0  0  0
  -22.1608  -20.4893   20.9070 C   0  0  0  0  0  0  0  0  0  0  0  0
  -19.9980  -27.6473   23.8084 C   0  0  0  0  0  0  0  0  0  0  0  0
  -18.7718  -26.8157   21.4446 C   0  0  0  0  0  0  0  0  0  0  0  0
  -36.8934  -25.1040   17.0795 C   0  0  0  0  0  0  0  0  0  0  0  0
  -30.9365  -26.8530   20.2576 C   0  0  0  0  0  0  0  0  0  0  0  0
  -29.2366  -25.7323   21.7945 C   0  0  0  0  0  0  0  0  0  0  0  0
  -26.2456  -12.3398   20.8127 C   0  0  0  0  0  0  0  0  0  0  0  0
  -22.3650  -18.4539   19.6127 C   0  0  0  0  0  0  0  0  0  0  0  0
  -25.3274  -13.3537   21.1463 C   0  0  0  0  0  0  0  0  0  0  0  0
  -22.9479  -19.6133   20.1440 C   0  0  0  0  0  0  0  0  0  0  0  0
  -19.1953  -26.5065   23.8030 C   0  0  0  0  0  0  0  0  0  0  0  0
  -20.1875  -28.3723   22.6319 C   0  0  0  0  0  0  0  0  0  0  0  0
  -18.5823  -26.0907   22.6211 C   0  0  0  0  0  0  0  0  0  0  0  0
  -33.5095  -27.3248   19.2884 C   0  0  0  0  0  0  0  0  0  0  0  0
  -20.8098  -20.2224   21.1278 C   0  0  0  0  0  0  0  0  0  0  0  0
  -35.5783  -26.4579   18.5877 C   0  0  0  0  0  0  0  0  0  0  0  0
  -37.2177  -24.2473   18.1314 C   0  0  0  0  0  0  0  0  0  0  0  0
  -19.5745  -27.9565   21.4500 C   0  0  0  0  0  0  0  0  0  0  0  0
  -36.0737  -26.2093   17.3077 C   0  0  0  0  0  0  0  0  0  0  0  0
  -29.6074  -26.6101   20.7583 C   0  0  0  0  0  0  0  0  0  0  0  0
  -27.8726  -25.8653   21.8855 C   0  0  0  0  0  0  0  0  0  0  0  0
  -17.6936  -22.4624   23.0241 C   0  0  0  0  0  0  0  0  0  0  0  0
  -17.2086  -22.3628   24.2674 C   0  0  0  0  0  0  0  0  0  0  0  0
  -30.0522  -24.8736   22.6027 C   0  0  0  0  0  0  0  0  0  0  0  0
  -25.0693  -16.9508   20.3416 C   0  0  0  0  0  0  0  0  0  0  0  0
  -26.4011  -19.2903   18.5318 C   0  0  0  0  0  0  0  0  0  0  0  0
  -26.1671  -22.4393   17.2374 C   0  0  0  0  0  0  0  0  0  0  0  0
  -23.4073  -29.0184   22.1417 C   0  0  0  0  0  0  0  0  0  0  0  0
  -27.7269  -12.6092   20.7230 C   0  0  0  0  0  0  0  0  0  0  0  0
  -23.1784  -17.5097   18.7705 C   0  0  0  0  0  0  0  0  0  0  0  0
  -24.4013  -19.9419   19.9253 C   0  0  0  0  0  0  0  0  0  0  0  0
  -17.6559  -21.3827   21.9881 C   0  0  0  0  0  0  0  0  0  0  0  0
  -28.0694  -14.0905   20.5865 C   0  0  0  0  0  0  0  0  0  0  0  0
  -24.5760  -28.1757   18.8219 C   0  0  0  0  0  0  0  0  0  0  0  0
  -27.2771  -14.9168   21.5947 C   0  0  0  0  0  0  0  0  0  0  0  0
  -25.9682  -27.6173   19.1222 C   0  0  0  0  0  0  0  0  0  0  0  0
  -24.2426  -29.3506   19.7366 C   0  0  0  0  0  0  0  0  0  0  0  0
  -25.7405  -28.4900   21.4942 C   0  0  0  0  0  0  0  0  0  0  0  0
  -19.0739  -23.1962   21.2802 C   0  0  0  0  0  0  0  0  0  0  0  0
  -25.7688  -14.7867   21.3507 C   0  0  1  0  0  0  0  0  0  0  0  0
  -24.6760  -17.6023   19.0460 C   0  0  1  0  0  0  0  0  0  0  0  0
  -26.1281  -27.2852   20.6176 C   0  0  2  0  0  0  0  0  0  0  0  0
  -18.9378  -21.6812   21.2264 C   0  0  1  0  0  0  0  0  0  1  0  0
  -19.0082  -25.7461   25.0747 C   0  0  0  0  0  0  0  0  0  0  0  0
  -27.4285  -24.0887   15.8283 C   0  0  0  0  0  0  0  0  0  0  0  0
  -28.2402  -19.8948   20.8902 C   0  0  0  0  0  0  0  0  0  0  0  0
  -28.7856  -22.0880   19.8129 C   0  0  0  0  0  0  0  0  0  0  0  0
  -29.3578  -19.9546   18.6538 C   0  0  0  0  0  0  0  0  0  0  0  0
  -24.0292  -22.5026   15.1917 C   0  0  0  0  0  0  0  0  0  0  0  0
  -21.0454  -29.5922   22.6408 C   0  0  0  0  0  0  0  0  0  0  0  0
  -17.7144  -24.8673   22.5904 C   0  0  0  0  0  0  0  0  0  0  0  0
  -26.9388  -20.6749   18.8013 C   0  0  1  0  0  0  0  0  0  0  0  0
  -26.3970  -22.9713   15.8343 C   0  0  2  0  0  0  0  0  0  0  0  0
  -28.3037  -20.6462   19.5455 C   0  0  0  0  0  0  0  0  0  0  0  0
  -28.5633  -27.2530   20.2287 N   0  0  0  0  0  0  0  0  0  0  0  0
  -27.5229  -26.7787   20.9350 N   0  0  0  0  0  0  0  0  0  0  0  0
  -25.1564  -18.9845   19.1001 N   0  0  0  0  0  0  0  0  0  0  0  0
  -24.3965  -28.9629   21.1459 N   0  0  0  0  0  0  0  0  0  0  0  0
  -26.9502  -25.2887   22.6849 N   0  0  0  0  0  0  0  0  0  0  0  0
  -31.4354  -24.8595   22.3771 N   0  0  0  0  0  0  0  0  0  0  0  0
  -25.3660  -15.6060   20.2278 N   0  0  0  0  0  0  0  0  0  0  0  0
  -26.9755  -21.3566   17.5119 N   0  0  0  0  0  0  0  0  0  0  0  0
  -22.1642  -29.4842   21.7312 N   0  0  0  0  0  0  0  0  0  0  0  0
  -18.4978  -23.5900   22.6379 N   0  3  1  0  0  0  0  0  0  0  0  0
  -25.1254  -23.5024   15.2669 N   0  3  0  0  0  0  0  0  0  0  0  0
  -29.5668  -24.1284   23.4873 O   0  0  0  0  0  0  0  0  0  0  0  0
  -25.1025  -17.6190   21.3683 O   0  0  0  0  0  0  0  0  0  0  0  0
  -27.0579  -18.5112   17.8366 O   0  0  0  0  0  0  0  0  0  0  0  0
  -25.3544  -22.9369   18.0136 O   0  0  0  0  0  0  0  0  0  0  0  0
  -23.6149  -28.6731   23.3100 O   0  0  0  0  0  0  0  0  0  0  0  0
  -34.7650  -27.5552   18.8159 O   0  0  0  0  0  0  0  0  0  0  0  0
  -20.0582  -21.0817   21.8684 O   0  0  0  0  0  0  0  0  0  1  0  0
  -38.0060  -23.1867   17.9128 F   0  0  0  0  0  0  0  0  0  0  0  0
  -19.7506  -28.6467   20.3145 F   0  0  0  0  0  0  0  0  0  0  0  0
  -35.7665  -27.0295   16.2934 F   0  0  0  0  0  0  0  0  0  0  0  0
  1  2  1  0  0  0  0
  1  5  2  0  0  0  0
  2  6  2  0  0  0  0
  3  8  2  0  0  0  0
  3 17  1  0  0  0  0
  4  9  1  0  0  0  0
  4 17  2  0  0  0  0
  5 19  1  0  0  0  0
  6 21  1  0  0  0  0
  7 10  2  0  0  0  0
  7 20  1  0  0  0  0
  8 26  1  0  0  0  0
  9 26  2  0  0  0  0
 10 27  1  0  0  0  0
 11 12  2  0  0  0  0
 11 28  1  0  0  0  0
 12 29  1  0  0  0  0
 13 22  1  0  0  0  0
 13 27  2  0  0  0  0
 14 23  1  0  0  0  0
 14 24  2  0  0  0  0
 15 25  1  0  0  0  0
 15 30  2  0  0  0  0
 16 29  2  0  0  0  0
 16 31  1  0  0  0  0
 17 32  1  0  0  0  0
 18 32  1  0  0  0  0
 18 33  2  0  0  0  0
 18 36  1  0  0  0  0
 19 21  2  0  0  0  0
 19 41  1  0  0  0  0
 20 22  2  0  0  0  0
 20 42  1  0  0  0  0
 21 52  1  0  0  0  0
 22 43  1  0  0  0  0
 23 25  2  0  0  0  0
 23 56  1  0  0  0  0
 24 30  1  0  0  0  0
 24 62  1  0  0  0  0
 25 63  1  0  0  0  0
 26 83  1  0  0  0  0
 27 84  1  0  0  0  0
 28 31  2  0  0  0  0
 28 83  1  0  0  0  0
 29 85  1  0  0  0  0
 30 86  1  0  0  0  0
 31 87  1  0  0  0  0
 32 67  2  0  0  0  0
 33 68  1  0  0  0  0
 33 71  1  0  0  0  0
 34 35  2  0  0  0  0
 34 44  1  0  0  0  0
 34 76  1  0  0  0  0
 36 72  1  0  0  0  0
 36 78  2  0  0  0  0
 37 53  1  0  0  0  0
 37 73  1  0  0  0  0
 37 79  2  0  0  0  0
 38 64  1  0  0  0  0
 38 69  1  0  0  0  0
 38 80  2  0  0  0  0
 39 65  1  0  0  0  0
 39 74  1  0  0  0  0
 39 81  2  0  0  0  0
 40 70  1  0  0  0  0
 40 75  1  0  0  0  0
 40 82  2  0  0  0  0
 41 45  1  0  0  0  0
 42 53  1  0  0  0  0
 43 69  1  0  0  0  0
 44 55  1  0  0  0  0
 45 47  1  0  0  0  0
 46 48  1  0  0  0  0
 46 49  1  0  0  0  0
 47 52  1  0  0  0  0
 48 54  1  0  0  0  0
 49 70  1  0  0  0  0
 50 54  1  0  0  0  0
 50 70  1  0  0  0  0
 51 55  1  0  0  0  0
 51 76  1  0  0  0  0
 52 73  1  0  0  0  0
 53 69  1  0  0  0  0
 54 68  1  0  0  0  0
 55 84  1  0  0  0  0
 57 65  1  0  0  0  0
 58 66  1  0  0  0  0
 59 66  1  0  0  0  0
 60 66  1  0  0  0  0
 61 77  1  0  0  0  0
 62 75  1  0  0  0  0
 63 76  1  0  0  0  0
 64 66  1  0  0  0  0
 64 74  1  0  0  0  0
 65 77  1  0  0  0  0
 67 68  1  0  0  0  0
M  CHG  2  76   1  77   1
M  ISO  4  40 100  55 101  75 100  84 101
M  END
> <Batch ID>
0031

> <Smiles>
C=C1C[101CH:1]([101O:1]c2ccc3c(c2)CN(C(=O)C(NC(=O)C(C)NC)C(C)(C)C)C(C(=O)NC2CCCc4ccccc42)C3)CN1Cc1cc(F)c(C[100NH:0][100C:0](=O)N2CCCC(n3nc(-c4ccc(Oc5ccc(F)cc5F)cc4)c(C(N)=O)c3N)C2)cc1C

> <Shape>
0.200

> <Color>
0.091

> <Negative vol penalty>
0.000

$$$$

  -OEChem-04042321393D

 86 95  0     1  0  0  0  0  0999 V2000
  -27.9150  -37.2362   23.5291 C   0  0  0  0  0  0  0  0  0  0  0  0
  -28.4928  -36.2263   22.7665 C   0  0  0  0  0  0  0  0  0  0  0  0
  -23.3560   -9.2989   20.5332 C   0  0  0  0  0  0  0  0  0  0  0  0
  -23.1258  -10.9704   22.2624 C   0  0  0  0  0  0  0  0  0  0  0  0
  -26.9740  -36.9178   24.5073 C   0  0  0  0  0  0  0  0  0  0  0  0
  -28.1307  -34.8971   22.9825 C   0  0  0  0  0  0  0  0  0  0  0  0
  -27.2590  -28.7087   19.4810 C   0  0  0  0  0  0  0  0  0  0  0  0
  -22.5888   -8.4120   21.2883 C   0  0  0  0  0  0  0  0  0  0  0  0
  -22.3586  -10.0834   23.0176 C   0  0  0  0  0  0  0  0  0  0  0  0
  -27.6552  -27.3733   19.5391 C   0  0  0  0  0  0  0  0  0  0  0  0
  -23.0359   -6.3706   23.9448 C   0  0  0  0  0  0  0  0  0  0  0  0
  -23.4885   -5.0559   24.0562 C   0  0  0  0  0  0  0  0  0  0  0  0
  -25.9603  -26.9490   21.2023 C   0  0  0  0  0  0  0  0  0  0  0  0
  -28.7522  -20.1526   18.9915 C   0  0  0  0  0  0  0  0  0  0  0  0
  -21.4467   -4.2665   23.0339 C   0  0  0  0  0  0  0  0  0  0  0  0
  -23.6246  -10.5781   21.0203 C   0  0  0  0  0  0  0  0  0  0  0  0
  -23.9546  -12.4194   19.2857 C   0  0  0  0  0  0  0  0  0  0  0  0
  -26.5930  -35.5850   24.7288 C   0  0  0  0  0  0  0  0  0  0  0  0
  -26.2159  -29.1776   20.2924 C   0  0  0  0  0  0  0  0  0  0  0  0
  -27.1846  -34.5604   23.9655 C   0  0  0  0  0  0  0  0  0  0  0  0
  -25.5510  -28.2903   21.1508 C   0  0  0  0  0  0  0  0  0  0  0  0
  -29.6010  -20.6210   19.9943 C   0  0  0  0  0  0  0  0  0  0  0  0
  -30.2689  -19.7176   20.8210 C   0  0  0  0  0  0  0  0  0  0  0  0
  -29.2390  -17.8774   19.6421 C   0  0  0  0  0  0  0  0  0  0  0  0
  -22.0900   -8.8042   22.5305 C   0  0  0  0  0  0  0  0  0  0  0  0
  -27.0078  -26.4939   20.4019 C   0  0  0  0  0  0  0  0  0  0  0  0
  -21.7887   -6.6333   23.3781 C   0  0  0  0  0  0  0  0  0  0  0  0
  -22.6939   -4.0039   23.6007 C   0  0  0  0  0  0  0  0  0  0  0  0
  -20.9941   -5.5812   22.9226 C   0  0  0  0  0  0  0  0  0  0  0  0
  -30.0879  -18.3458   20.6449 C   0  0  0  0  0  0  0  0  0  0  0  0
  -28.5711  -18.7808   18.8154 C   0  0  0  0  0  0  0  0  0  0  0  0
  -24.4175  -11.4946   20.2409 C   0  0  0  0  0  0  0  0  0  0  0  0
  -25.0912  -13.0444   18.8340 C   0  0  0  0  0  0  0  0  0  0  0  0
  -22.6169  -12.6893   18.8462 C   0  0  0  0  0  0  0  0  0  0  0  0
  -25.9732  -31.3463   22.6037 C   0  0  0  0  0  0  0  0  0  0  0  0
  -22.8112  -30.6563   22.3851 C   0  0  0  0  0  0  0  0  0  0  0  0
  -20.3875  -28.4250   21.4941 C   0  0  0  0  0  0  0  0  0  0  0  0
  -30.0089  -15.4822   19.7702 C   0  0  0  0  0  0  0  0  0  0  0  0
  -25.6066  -35.2853   25.8297 C   0  0  0  0  0  0  0  0  0  0  0  0
  -25.7828  -30.6150   20.1985 C   0  0  0  0  0  0  0  0  0  0  0  0
  -24.4119  -28.7392   22.0279 C   0  0  0  0  0  0  0  0  0  0  0  0
  -25.0004  -33.8871   25.7404 C   0  0  0  0  0  0  0  0  0  0  0  0
  -29.9746  -11.9280   19.5607 C   0  0  0  0  0  0  0  0  0  0  0  0
  -26.0885  -32.8487   25.4867 C   0  0  0  0  0  0  0  0  0  0  0  0
  -28.4877  -11.5745   19.6404 C   0  0  0  0  0  0  0  0  0  0  0  0
  -26.9970  -23.5234   22.1481 C   0  0  0  0  0  0  0  0  0  0  0  0
  -30.3242  -13.1148   20.4567 C   0  0  0  0  0  0  0  0  0  0  0  0
  -28.0133  -13.9591   20.3299 C   0  0  0  0  0  0  0  0  0  0  0  0
  -27.5660  -22.3793   21.3334 C   0  0  0  0  0  0  0  0  0  0  0  0
  -29.2549  -24.1358   21.5828 C   0  0  0  0  0  0  0  0  0  0  0  0
  -26.7994  -33.1091   24.1531 C   0  0  1  0  0  0  0  0  0  0  0  0
  -25.0490  -31.1006   21.4447 C   0  0  1  0  0  0  0  0  0  0  0  0
  -27.6006  -12.8107   19.3948 C   0  0  2  0  0  0  0  0  0  0  0  0
  -27.8515  -24.7048   21.7222 C   0  0  1  0  0  0  0  0  0  1  0  0
  -31.1809  -20.1994   21.9013 C   0  0  0  0  0  0  0  0  0  0  0  0
  -17.8958  -28.1285   21.4695 C   0  0  0  0  0  0  0  0  0  0  0  0
  -22.8472  -30.1254   25.3895 C   0  0  0  0  0  0  0  0  0  0  0  0
  -20.6529  -28.9467   25.1370 C   0  0  0  0  0  0  0  0  0  0  0  0
  -20.8370  -31.3699   24.5741 C   0  0  0  0  0  0  0  0  0  0  0  0
  -20.3314  -28.1626   18.5467 C   0  0  0  0  0  0  0  0  0  0  0  0
  -29.7787  -22.1010   20.1649 C   0  0  0  0  0  0  0  0  0  0  0  0
  -21.8872  -29.6575   23.0389 C   0  0  1  0  0  0  0  0  0  0  0  0
  -19.1138  -28.5910   20.6851 C   0  0  2  0  0  0  0  0  0  0  0  0
  -21.5788  -30.0165   24.5199 C   0  0  0  0  0  0  0  0  0  0  0  0
  -25.7447  -11.5259   20.3880 N   0  0  0  0  0  0  0  0  0  0  0  0
  -26.1255  -12.4779   19.5192 N   0  0  0  0  0  0  0  0  0  0  0  0
  -24.0294  -30.1555   21.9046 N   0  0  0  0  0  0  0  0  0  0  0  0
  -29.4461  -14.2500   20.1648 N   0  0  0  0  0  0  0  0  0  0  0  0
  -25.2968  -14.0178   17.9216 N   0  0  0  0  0  0  0  0  0  0  0  0
  -21.5662  -11.9560   19.4141 N   0  0  0  0  0  0  0  0  0  0  0  0
  -29.0751  -16.4784   19.4876 N   0  0  0  0  0  0  0  0  0  0  0  0
  -25.9830  -32.6547   23.0480 N   0  0  0  0  0  0  0  0  0  0  0  0
  -20.7066  -29.5743   22.1859 N   0  0  0  0  0  0  0  0  0  0  0  0
  -29.0533  -22.6449   21.3534 N   0  3  2  0  0  0  0  0  0  0  0  0
  -19.1920  -27.7962   19.4269 N   0  3  0  0  0  0  0  0  0  0  0  0
  -22.3624  -13.5437   17.9637 O   0  0  0  0  0  0  0  0  0  0  0  0
  -26.6279  -30.4172   23.0619 O   0  0  0  0  0  0  0  0  0  0  0  0
  -22.4618  -31.8361   22.2973 O   0  0  0  0  0  0  0  0  0  0  0  0
  -21.0328  -27.3791   21.5135 O   0  0  0  0  0  0  0  0  0  0  0  0
  -31.2285  -15.6337   19.6627 O   0  0  0  0  0  0  0  0  0  0  0  0
  -21.3411   -7.9391   23.2676 O   0  0  0  0  0  0  0  0  0  0  0  0
  -27.3929  -25.1900   20.4610 O   0  0  0  0  0  0  0  0  0  1  0  0
  -23.1292   -2.7415   23.7062 F   0  0  0  0  0  0  0  0  0  0  0  0
  -19.7955   -5.8274   22.3761 F   0  0  0  0  0  0  0  0  0  0  0  0
  -30.7315  -17.4787   21.4415 F   0  0  0  0  0  0  0  0  0  0  0  0
  -27.5116  -18.2438   17.5606 Cl  0  0  0  0  0  0  0  0  0  0  0  0
  1  2  1  0  0  0  0
  1  5  2  0  0  0  0
  2  6  2  0  0  0  0
  3  8  2  0  0  0  0
  3 16  1  0  0  0  0
  4  9  1  0  0  0  0
  4 16  2  0  0  0  0
  5 18  1  0  0  0  0
  6 20  1  0  0  0  0
  7 10  2  0  0  0  0
  7 19  1  0  0  0  0
  8 25  1  0  0  0  0
  9 25  2  0  0  0  0
 10 26  1  0  0  0  0
 11 12  2  0  0  0  0
 11 27  1  0  0  0  0
 12 28  1  0  0  0  0
 13 21  1  0  0  0  0
 13 26  2  0  0  0  0
 14 22  1  0  0  0  0
 14 31  2  0  0  0  0
 15 28  2  0  0  0  0
 15 29  1  0  0  0  0
 16 32  1  0  0  0  0
 17 32  1  0  0  0  0
 17 33  2  0  0  0  0
 17 34  1  0  0  0  0
 18 20  2  0  0  0  0
 18 39  1  0  0  0  0
 19 21  2  0  0  0  0
 19 40  1  0  0  0  0
 20 51  1  0  0  0  0
 21 41  1  0  0  0  0
 22 23  2  0  0  0  0
 22 61  1  0  0  0  0
 23 30  1  0  0  0  0
 23 55  1  0  0  0  0
 24 30  2  0  0  0  0
 24 31  1  0  0  0  0
 24 71  1  0  0  0  0
 25 81  1  0  0  0  0
 26 82  1  0  0  0  0
 27 29  2  0  0  0  0
 27 81  1  0  0  0  0
 28 83  1  0  0  0  0
 29 84  1  0  0  0  0
 30 85  1  0  0  0  0
 31 86  1  0  0  0  0
 32 65  2  0  0  0  0
 33 66  1  0  0  0  0
 33 69  1  0  0  0  0
 34 70  1  0  0  0  0
 34 76  2  0  0  0  0
 35 52  1  0  0  0  0
 35 72  1  0  0  0  0
 35 77  2  0  0  0  0
 36 62  1  0  0  0  0
 36 67  1  0  0  0  0
 36 78  2  0  0  0  0
 37 63  1  0  0  0  0
 37 73  1  0  0  0  0
 37 79  2  0  0  0  0
 38 68  1  0  0  0  0
 38 71  1  0  0  0  0
 38 80  2  0  0  0  0
 39 42  1  0  0  0  0
 40 52  1  0  0  0  0
 41 67  1  0  0  0  0
 42 44  1  0  0  0  0
 43 45  1  0  0  0  0
 43 47  1  0  0  0  0
 44 51  1  0  0  0  0
 45 53  1  0  0  0  0
 46 49  1  0  0  0  0
 46 54  1  0  0  0  0
 47 68  1  0  0  0  0
 48 53  1  0  0  0  0
 48 68  1  0  0  0  0
 49 74  1  0  0  0  0
 50 54  1  0  0  0  0
 50 74  1  0  0  0  0
 51 72  1  0  0  0  0
 52 67  1  0  0  0  0
 53 66  1  0  0  0  0
 54 82  1  0  0  0  0
 56 63  1  0  0  0  0
 57 64  1  0  0  0  0
 58 64  1  0  0  0  0
 59 64  1  0  0  0  0
 60 75  1  0  0  0  0
 61 74  1  0  0  0  0
 62 64  1  0  0  0  0
 62 73  1  0  0  0  0
 63 75  1  0  0  0  0
 65 66  1  0  0  0  0
M  CHG  2  74   1  75   1
M  ISO  4  38 100  54 101  71 100  82 101
M  END
> <Batch ID>
0031

> <Smiles>
CNC(C)C(=O)NC(C(=O)N1Cc2cc([101O:1][101CH:1]3CCN(Cc4cc(Cl)c([100NH:0][100C:0](=O)N5CCCC(n6nc(-c7ccc(Oc8ccc(F)cc8F)cc7)c(C(N)=O)c6N)C5)c(F)c4C)C3)ccc2CC1C(=O)NC1CCCc2ccccc21)C(C)(C)C

> <Shape>
0.360

> <Color>
0.106

> <Negative vol penalty>
0.000

$$$$

  -OEChem-04042321393D

 85 94  0     1  0  0  0  0  0999 V2000
  -18.7109  -33.5569   24.1887 C   0  0  0  0  0  0  0  0  0  0  0  0
  -19.9457  -33.6282   23.5517 C   0  0  0  0  0  0  0  0  0  0  0  0
  -24.6381  -12.9912   21.8678 C   0  0  0  0  0  0  0  0  0  0  0  0
  -26.0534  -13.1573   19.9168 C   0  0  0  0  0  0  0  0  0  0  0  0
  -18.3167  -32.3737   24.8119 C   0  0  0  0  0  0  0  0  0  0  0  0
  -20.7874  -32.5166   23.5386 C   0  0  0  0  0  0  0  0  0  0  0  0
  -25.6747  -29.2626   19.4347 C   0  0  0  0  0  0  0  0  0  0  0  0
  -29.4756  -22.5794   16.1297 C   0  0  0  0  0  0  0  0  0  0  0  0
  -23.9799  -11.9016   21.2976 C   0  0  0  0  0  0  0  0  0  0  0  0
  -25.3952  -12.0676   19.3466 C   0  0  0  0  0  0  0  0  0  0  0  0
  -26.9771  -28.7691   19.4970 C   0  0  0  0  0  0  0  0  0  0  0  0
  -24.5442   -8.5952   20.8708 C   0  0  0  0  0  0  0  0  0  0  0  0
  -24.3041   -7.4861   21.6818 C   0  0  0  0  0  0  0  0  0  0  0  0
  -28.5156  -21.6339   15.7691 C   0  0  0  0  0  0  0  0  0  0  0  0
  -26.1572  -26.7534   20.5381 C   0  0  0  0  0  0  0  0  0  0  0  0
  -21.9282   -7.7382   21.3229 C   0  0  0  0  0  0  0  0  0  0  0  0
  -25.6748  -13.6191   21.1773 C   0  0  0  0  0  0  0  0  0  0  0  0
  -27.4954  -14.7133   22.5901 C   0  0  0  0  0  0  0  0  0  0  0  0
  -19.1499  -31.2440   24.7981 C   0  0  0  0  0  0  0  0  0  0  0  0
  -24.6032  -28.5085   19.9344 C   0  0  0  0  0  0  0  0  0  0  0  0
  -20.4045  -31.3176   24.1634 C   0  0  0  0  0  0  0  0  0  0  0  0
  -24.8418  -27.2385   20.4786 C   0  0  0  0  0  0  0  0  0  0  0  0
  -29.7096  -22.8572   17.4764 C   0  0  0  0  0  0  0  0  0  0  0  0
  -28.9834  -22.1897   18.4627 C   0  0  0  0  0  0  0  0  0  0  0  0
  -28.0233  -21.2442   18.1022 C   0  0  0  0  0  0  0  0  0  0  0  0
  -24.3584  -11.4398   20.0370 C   0  0  0  0  0  0  0  0  0  0  0  0
  -27.2189  -27.5156   20.0514 C   0  0  0  0  0  0  0  0  0  0  0  0
  -23.4764   -9.2759   20.2859 C   0  0  0  0  0  0  0  0  0  0  0  0
  -22.9961   -7.0575   21.9078 C   0  0  0  0  0  0  0  0  0  0  0  0
  -22.1684   -8.8474   20.5120 C   0  0  0  0  0  0  0  0  0  0  0  0
  -27.7894  -20.9664   16.7554 C   0  0  0  0  0  0  0  0  0  0  0  0
  -26.3548  -14.7450   21.7656 C   0  0  0  0  0  0  0  0  0  0  0  0
  -27.7447  -16.0321   22.8821 C   0  0  0  0  0  0  0  0  0  0  0  0
  -30.5726  -26.0989   19.0841 C   0  0  0  0  0  0  0  0  0  0  0  0
  -28.2612  -13.5921   23.0507 C   0  0  0  0  0  0  0  0  0  0  0  0
  -22.4541  -28.9190   22.2402 C   0  0  0  0  0  0  0  0  0  0  0  0
  -21.2090  -26.1779   21.0324 C   0  0  0  0  0  0  0  0  0  0  0  0
  -21.7114  -23.2945   19.2773 C   0  0  0  0  0  0  0  0  0  0  0  0
  -26.4599  -21.1483   20.0752 C   0  0  0  0  0  0  0  0  0  0  0  0
  -18.7007  -30.0018   25.5261 C   0  0  0  0  0  0  0  0  0  0  0  0
  -23.2010  -29.0437   19.8355 C   0  0  0  0  0  0  0  0  0  0  0  0
  -23.7237  -26.3808   21.0105 C   0  0  0  0  0  0  0  0  0  0  0  0
  -19.4909  -28.7528   25.1442 C   0  0  0  0  0  0  0  0  0  0  0  0
  -25.5177  -20.2416   23.3869 C   0  0  0  0  0  0  0  0  0  0  0  0
  -20.9874  -29.0481   25.1409 C   0  0  0  0  0  0  0  0  0  0  0  0
  -25.7350  -18.7271   23.4238 C   0  0  0  0  0  0  0  0  0  0  0  0
  -24.9910  -20.7060   22.0301 C   0  0  0  0  0  0  0  0  0  0  0  0
  -28.8330  -25.6474   18.0003 C   0  0  0  0  0  0  0  0  0  0  0  0
  -26.0040  -18.7589   20.9111 C   0  0  0  0  0  0  0  0  0  0  0  0
  -21.3349  -30.1254   24.1064 C   0  0  1  0  0  0  0  0  0  0  0  0
  -29.2368  -26.8479   18.8890 C   0  0  1  0  0  0  0  0  0  1  0  0
  -22.2467  -28.4087   20.8422 C   0  0  1  0  0  0  0  0  0  0  0  0
  -26.5955  -18.2521   22.2366 C   0  0  2  0  0  0  0  0  0  0  0  0
  -29.2423  -22.4926   19.9057 C   0  0  0  0  0  0  0  0  0  0  0  0
  -20.5141  -21.2357   18.4866 C   0  0  0  0  0  0  0  0  0  0  0  0
  -21.3275  -25.0275   23.8560 C   0  0  0  0  0  0  0  0  0  0  0  0
  -21.0406  -22.7468   22.8639 C   0  0  0  0  0  0  0  0  0  0  0  0
  -19.2496  -24.4607   22.5849 C   0  0  0  0  0  0  0  0  0  0  0  0
  -22.2165  -23.9510   16.4360 C   0  0  0  0  0  0  0  0  0  0  0  0
  -30.7482  -23.8799   17.8364 C   0  0  0  0  0  0  0  0  0  0  0  0
  -21.4107  -24.7051   21.2957 C   0  0  1  0  0  0  0  0  0  0  0  0
  -20.9305  -22.6572   18.1421 C   0  0  2  0  0  0  0  0  0  0  0  0
  -20.7786  -24.2518   22.6420 C   0  0  0  0  0  0  0  0  0  0  0  0
  -25.9101  -15.9856   21.5480 N   0  0  0  0  0  0  0  0  0  0  0  0
  -26.7758  -16.7456   22.2401 N   0  0  0  0  0  0  0  0  0  0  0  0
  -30.1606  -25.1156   18.2537 N   0  0  0  0  0  0  0  0  0  0  0  0
  -22.3710  -26.9507   20.8970 N   0  0  0  0  0  0  0  0  0  0  0  0
  -25.8587  -20.2224   20.9539 N   0  0  0  0  0  0  0  0  0  0  0  0
  -28.6959  -16.6393   23.6230 N   0  0  0  0  0  0  0  0  0  0  0  0
  -27.8669  -12.3064   22.6561 N   0  0  0  0  0  0  0  0  0  0  0  0
  -27.2896  -20.5744   19.1125 N   0  0  0  0  0  0  0  0  0  0  0  0
  -21.3526  -29.5599   22.7743 N   0  0  0  0  0  0  0  0  0  0  0  0
  -20.8900  -24.0062   20.1258 N   0  0  0  0  0  0  0  0  0  0  0  0
  -21.7573  -22.6175   16.9029 N   0  3  0  0  0  0  0  0  0  0  0  0
  -31.5890  -26.2752   19.7155 O   0  0  0  0  0  0  0  0  0  0  0  0
  -29.2556  -13.7253   23.8036 O   0  0  0  0  0  0  0  0  0  0  0  0
  -23.5330  -28.7429   22.7938 O   0  0  0  0  0  0  0  0  0  0  0  0
  -20.0628  -26.6248   20.9429 O   0  0  0  0  0  0  0  0  0  0  0  0
  -22.9278  -23.1700   19.4011 O   0  0  0  0  0  0  0  0  0  0  0  0
  -26.2754  -22.3630   20.1867 O   0  0  0  0  0  0  0  0  0  0  0  0
  -23.7165  -10.3765   19.4804 O   0  0  0  0  0  0  0  0  0  0  0  0
  -28.4893  -27.0318   20.1140 O   0  0  0  0  0  0  0  0  0  1  0  0
  -22.7657   -5.9915   22.6854 F   0  0  0  0  0  0  0  0  0  0  0  0
  -21.1385   -9.4966   19.9519 F   0  0  0  0  0  0  0  0  0  0  0  0
  -26.6139  -19.8003   16.2603 Cl  0  0  0  0  0  0  0  0  0  0  0  0
  1  2  1  0  0  0  0
  1  5  2  0  0  0  0
  2  6  2  0  0  0  0
  3  9  2  0  0  0  0
  3 17  1  0  0  0  0
  4 10  1  0  0  0  0
  4 17  2  0  0  0  0
  5 19  1  0  0  0  0
  6 21  1  0  0  0  0
  7 11  2  0  0  0  0
  7 20  1  0  0  0  0
  8 14  2  0  0  0  0
  8 23  1  0  0  0  0
  9 26  1  0  0  0  0
 10 26  2  0  0  0  0
 11 27  1  0  0  0  0
 12 13  2  0  0  0  0
 12 28  1  0  0  0  0
 13 29  1  0  0  0  0
 14 31  1  0  0  0  0
 15 22  1  0  0  0  0
 15 27  2  0  0  0  0
 16 29  2  0  0  0  0
 16 30  1  0  0  0  0
 17 32  1  0  0  0  0
 18 32  1  0  0  0  0
 18 33  2  0  0  0  0
 18 35  1  0  0  0  0
 19 21  2  0  0  0  0
 19 40  1  0  0  0  0
 20 22  2  0  0  0  0
 20 41  1  0  0  0  0
 21 50  1  0  0  0  0
 22 42  1  0  0  0  0
 23 24  2  0  0  0  0
 23 60  1  0  0  0  0
 24 25  1  0  0  0  0
 24 54  1  0  0  0  0
 25 31  2  0  0  0  0
 25 71  1  0  0  0  0
 26 81  1  0  0  0  0
 27 82  1  0  0  0  0
 28 30  2  0  0  0  0
 28 81  1  0  0  0  0
 29 83  1  0  0  0  0
 30 84  1  0  0  0  0
 31 85  1  0  0  0  0
 32 64  2  0  0  0  0
 33 65  1  0  0  0  0
 33 69  1  0  0  0  0
 34 51  1  0  0  0  0
 34 66  1  0  0  0  0
 34 75  2  0  0  0  0
 35 70  1  0  0  0  0
 35 76  2  0  0  0  0
 36 52  1  0  0  0  0
 36 72  1  0  0  0  0
 36 77  2  0  0  0  0
 37 61  1  0  0  0  0
 37 67  1  0  0  0  0
 37 78  2  0  0  0  0
 38 62  1  0  0  0  0
 38 73  1  0  0  0  0
 38 79  2  0  0  0  0
 39 68  1  0  0  0  0
 39 71  1  0  0  0  0
 39 80  2  0  0  0  0
 40 43  1  0  0  0  0
 41 52  1  0  0  0  0
 42 67  1  0  0  0  0
 43 45  1  0  0  0  0
 44 46  1  0  0  0  0
 44 47  1  0  0  0  0
 45 50  1  0  0  0  0
 46 53  1  0  0  0  0
 47 68  1  0  0  0  0
 48 51  1  0  0  0  0
 48 66  1  0  0  0  0
 49 53  1  0  0  0  0
 49 68  1  0  0  0  0
 50 72  1  0  0  0  0
 51 82  1  0  0  0  0
 52 67  1  0  0  0  0
 53 65  1  0  0  0  0
 55 62  1  0  0  0  0
 56 63  1  0  0  0  0
 57 63  1  0  0  0  0
 58 63  1  0  0  0  0
 59 74  1  0  0  0  0
 60 66  1  0  0  0  0
 61 63  1  0  0  0  0
 61 73  1  0  0  0  0
 62 74  1  0  0  0  0
 64 65  1  0  0  0  0
M  CHG  1  74   1
M  ISO  4  39 100  51 101  71 100  82 101
M  END
> <Batch ID>
0031

> <Smiles>
CNC(C)C(=O)NC(C(=O)N1Cc2cc([101O:1][101CH:1]3CN(Cc4ccc(Cl)c([100NH:0][100C:0](=O)N5CCCC(n6nc(-c7ccc(Oc8ccc(F)cc8F)cc7)c(C(N)=O)c6N)C5)c4C)C3=O)ccc2CC1C(=O)NC1CCCc2ccccc21)C(C)(C)C

> <Shape>
0.226

> <Color>
0.097

> <Negative vol penalty>
0.000

$$$$

  -OEChem-04042321393D

 88 97  0     1  0  0  0  0  0999 V2000
  -17.8789  -32.6574   23.3167 C   0  0  0  0  0  0  0  0  0  0  0  0
  -19.0910  -32.8515   22.6620 C   0  0  0  0  0  0  0  0  0  0  0  0
  -27.7027  -12.2242   23.1555 C   0  0  0  0  0  0  0  0  0  0  0  0
  -26.3827  -13.0678   21.3163 C   0  0  0  0  0  0  0  0  0  0  0  0
  -17.7075  -31.5536   24.1510 C   0  0  0  0  0  0  0  0  0  0  0  0
  -20.1328  -31.9424   22.8421 C   0  0  0  0  0  0  0  0  0  0  0  0
  -25.6552  -29.0146   19.3424 C   0  0  0  0  0  0  0  0  0  0  0  0
  -26.6381  -11.4128   23.5475 C   0  0  0  0  0  0  0  0  0  0  0  0
  -25.3180  -12.2563   21.7082 C   0  0  0  0  0  0  0  0  0  0  0  0
  -27.0269  -28.8050   19.4776 C   0  0  0  0  0  0  0  0  0  0  0  0
  -24.4346   -9.0057   21.4369 C   0  0  0  0  0  0  0  0  0  0  0  0
  -23.7655   -8.2920   20.4426 C   0  0  0  0  0  0  0  0  0  0  0  0
  -26.5900  -26.8918   20.8805 C   0  0  0  0  0  0  0  0  0  0  0  0
  -27.5819  -21.4641   17.2070 C   0  0  0  0  0  0  0  0  0  0  0  0
  -29.3897  -22.0987   19.2348 C   0  0  0  0  0  0  0  0  0  0  0  0
  -21.7090   -9.4240   21.0140 C   0  0  0  0  0  0  0  0  0  0  0  0
  -27.5750  -13.0518   22.0399 C   0  0  0  0  0  0  0  0  0  0  0  0
  -29.7101  -13.5615   20.7402 C   0  0  0  0  0  0  0  0  0  0  0  0
  -18.7446  -30.6252   24.3339 C   0  0  0  0  0  0  0  0  0  0  0  0
  -24.7392  -28.1695   19.9852 C   0  0  0  0  0  0  0  0  0  0  0  0
  -19.9756  -30.8258   23.6807 C   0  0  0  0  0  0  0  0  0  0  0  0
  -25.2072  -27.0914   20.7497 C   0  0  0  0  0  0  0  0  0  0  0  0
  -28.4635  -22.5330   17.0460 C   0  0  0  0  0  0  0  0  0  0  0  0
  -27.6042  -20.7125   18.3819 C   0  0  0  0  0  0  0  0  0  0  0  0
  -29.3674  -22.8503   18.0599 C   0  0  0  0  0  0  0  0  0  0  0  0
  -28.5081  -21.0298   19.3957 C   0  0  0  0  0  0  0  0  0  0  0  0
  -25.4457  -11.4288   22.8238 C   0  0  0  0  0  0  0  0  0  0  0  0
  -27.4945  -27.7452   20.2491 C   0  0  0  0  0  0  0  0  0  0  0  0
  -23.7409   -9.9285   22.2197 C   0  0  0  0  0  0  0  0  0  0  0  0
  -22.4027   -8.5011   20.2312 C   0  0  0  0  0  0  0  0  0  0  0  0
  -22.3781  -10.1377   22.0083 C   0  0  0  0  0  0  0  0  0  0  0  0
  -28.6742  -13.8907   21.6349 C   0  0  0  0  0  0  0  0  0  0  0  0
  -30.4941  -14.6883   20.6931 C   0  0  0  0  0  0  0  0  0  0  0  0
  -31.5671  -25.7548   19.0302 C   0  0  0  0  0  0  0  0  0  0  0  0
  -29.9427  -12.3460   20.0163 C   0  0  0  0  0  0  0  0  0  0  0  0
  -32.8635  -25.5550   18.7680 C   0  0  0  0  0  0  0  0  0  0  0  0
  -22.4973  -28.5648   22.2036 C   0  0  0  0  0  0  0  0  0  0  0  0
  -21.8379  -25.4601   21.5341 C   0  0  0  0  0  0  0  0  0  0  0  0
  -22.9326  -22.4601   20.3305 C   0  0  0  0  0  0  0  0  0  0  0  0
  -29.3887  -20.4753   21.6900 C   0  0  0  0  0  0  0  0  0  0  0  0
  -18.5284  -29.4729   25.2826 C   0  0  0  0  0  0  0  0  0  0  0  0
  -23.2624  -28.3932   19.8075 C   0  0  0  0  0  0  0  0  0  0  0  0
  -24.2650  -26.1432   21.4437 C   0  0  0  0  0  0  0  0  0  0  0  0
  -30.9162  -27.0832   19.2532 C   0  0  0  0  0  0  0  0  0  0  0  0
  -19.5551  -28.3542   25.1261 C   0  0  0  0  0  0  0  0  0  0  0  0
  -31.8042  -18.4524   23.3482 C   0  0  0  0  0  0  0  0  0  0  0  0
  -20.9653  -28.9306   25.0499 C   0  0  0  0  0  0  0  0  0  0  0  0
  -31.3735  -17.0232   23.0106 C   0  0  0  0  0  0  0  0  0  0  0  0
  -30.6027  -19.3725   23.5567 C   0  0  0  0  0  0  0  0  0  0  0  0
  -29.1953  -17.9472   22.1225 C   0  0  0  0  0  0  0  0  0  0  0  0
  -29.4943  -25.2565   19.9286 C   0  0  0  0  0  0  0  0  0  0  0  0
  -21.1211  -29.8484   23.8313 C   0  0  1  0  0  0  0  0  0  0  0  0
  -22.4262  -27.7781   20.9255 C   0  0  1  0  0  0  0  0  0  0  0  0
  -30.3715  -16.9983   21.8398 C   0  0  2  0  0  0  0  0  0  0  0  0
  -29.4538  -26.6947   19.4299 C   0  0  1  0  0  0  0  0  0  1  0  0
  -28.4210  -23.3237   15.7797 C   0  0  0  0  0  0  0  0  0  0  0  0
  -26.6486  -19.5729   18.5271 C   0  0  0  0  0  0  0  0  0  0  0  0
  -33.4305  -24.1807   18.5575 C   0  0  0  0  0  0  0  0  0  0  0  0
  -33.8396  -26.6916   18.6669 C   0  0  0  0  0  0  0  0  0  0  0  0
  -22.1775  -20.0982   19.9454 C   0  0  0  0  0  0  0  0  0  0  0  0
  -22.1109  -24.8887   24.5189 C   0  0  0  0  0  0  0  0  0  0  0  0
  -22.2964  -22.4542   23.9649 C   0  0  0  0  0  0  0  0  0  0  0  0
  -20.2135  -23.7049   23.3993 C   0  0  0  0  0  0  0  0  0  0  0  0
  -23.3676  -22.6743   17.4109 C   0  0  0  0  0  0  0  0  0  0  0  0
  -30.3248  -23.9956   17.9094 C   0  0  0  0  0  0  0  0  0  0  0  0
  -22.3157  -24.1282   22.0601 C   0  0  1  0  0  0  0  0  0  0  0  0
  -22.3176  -21.4867   19.3412 C   0  0  2  0  0  0  0  0  0  0  0  0
  -21.7522  -23.8128   23.4744 C   0  0  0  0  0  0  0  0  0  0  0  0
  -28.7872  -15.1295   22.1213 N   0  0  0  0  0  0  0  0  0  0  0  0
  -29.9034  -15.5887   21.5301 N   0  0  0  0  0  0  0  0  0  0  0  0
  -22.8303  -26.4073   21.2448 N   0  0  0  0  0  0  0  0  0  0  0  0
  -29.6995  -19.3000   22.4062 N   0  0  0  0  0  0  0  0  0  0  0  0
  -31.6243  -14.9868   20.0179 N   0  0  0  0  0  0  0  0  0  0  0  0
  -29.0390  -11.2873   20.1803 N   0  0  0  0  0  0  0  0  0  0  0  0
  -28.5463  -20.2782   20.5963 N   0  0  0  0  0  0  0  0  0  0  0  0
  -21.2799  -29.0644   22.6252 N   0  0  0  0  0  0  0  0  0  0  0  0
  -21.9686  -23.1399   21.0446 N   0  0  0  0  0  0  0  0  0  0  0  0
  -30.6813  -24.6406   19.2182 N   0  3  1  0  0  0  0  0  0  0  0  0
  -23.1654  -21.3845   18.1199 N   0  3  0  0  0  0  0  0  0  0  0  0
  -30.9319  -12.1971   19.2595 O   0  0  0  0  0  0  0  0  0  0  0  0
  -23.5765  -28.7068   22.7665 O   0  0  0  0  0  0  0  0  0  0  0  0
  -20.6291  -25.6505   21.3787 O   0  0  0  0  0  0  0  0  0  0  0  0
  -24.1467  -22.6005   20.4597 O   0  0  0  0  0  0  0  0  0  0  0  0
  -29.8585  -21.5713   22.0061 O   0  0  0  0  0  0  0  0  0  0  0  0
  -24.4068  -10.6369   23.2059 O   0  0  0  0  0  0  0  0  0  0  0  0
  -28.8329  -27.5386   20.3833 O   0  0  0  0  0  0  0  0  0  1  0  0
  -21.7606   -7.8168   19.2754 F   0  0  0  0  0  0  0  0  0  0  0  0
  -21.7066  -11.0238   22.7564 F   0  0  0  0  0  0  0  0  0  0  0  0
  1  2  1  0  0  0  0
  1  5  2  0  0  0  0
  2  6  2  0  0  0  0
  3  8  2  0  0  0  0
  3 17  1  0  0  0  0
  4  9  1  0  0  0  0
  4 17  2  0  0  0  0
  5 19  1  0  0  0  0
  6 21  1  0  0  0  0
  7 10  2  0  0  0  0
  7 20  1  0  0  0  0
  8 27  1  0  0  0  0
  9 27  2  0  0  0  0
 10 28  1  0  0  0  0
 11 12  2  0  0  0  0
 11 29  1  0  0  0  0
 12 30  1  0  0  0  0
 13 22  1  0  0  0  0
 13 28  2  0  0  0  0
 14 23  1  0  0  0  0
 14 24  2  0  0  0  0
 15 25  1  0  0  0  0
 15 26  2  0  0  0  0
 16 30  2  0  0  0  0
 16 31  1  0  0  0  0
 17 32  1  0  0  0  0
 18 32  1  0  0  0  0
 18 33  2  0  0  0  0
 18 35  1  0  0  0  0
 19 21  2  0  0  0  0
 19 41  1  0  0  0  0
 20 22  2  0  0  0  0
 20 42  1  0  0  0  0
 21 52  1  0  0  0  0
 22 43  1  0  0  0  0
 23 25  2  0  0  0  0
 23 56  1  0  0  0  0
 24 26  1  0  0  0  0
 24 57  1  0  0  0  0
 25 65  1  0  0  0  0
 26 75  1  0  0  0  0
 27 85  1  0  0  0  0
 28 86  1  0  0  0  0
 29 31  2  0  0  0  0
 29 85  1  0  0  0  0
 30 87  1  0  0  0  0
 31 88  1  0  0  0  0
 32 69  2  0  0  0  0
 33 70  1  0  0  0  0
 33 73  1  0  0  0  0
 34 36  2  0  0  0  0
 34 44  1  0  0  0  0
 34 78  1  0  0  0  0
 35 74  1  0  0  0  0
 35 80  2  0  0  0  0
 36 58  1  0  0  0  0
 36 59  1  0  0  0  0
 37 53  1  0  0  0  0
 37 76  1  0  0  0  0
 37 81  2  0  0  0  0
 38 66  1  0  0  0  0
 38 71  1  0  0  0  0
 38 82  2  0  0  0  0
 39 67  1  0  0  0  0
 39 77  1  0  0  0  0
 39 83  2  0  0  0  0
 40 72  1  0  0  0  0
 40 75  1  0  0  0  0
 40 84  2  0  0  0  0
 41 45  1  0  0  0  0
 42 53  1  0  0  0  0
 43 71  1  0  0  0  0
 44 55  1  0  0  0  0
 45 47  1  0  0  0  0
 46 48  1  0  0  0  0
 46 49  1  0  0  0  0
 47 52  1  0  0  0  0
 48 54  1  0  0  0  0
 49 72  1  0  0  0  0
 50 54  1  0  0  0  0
 50 72  1  0  0  0  0
 51 55  1  0  0  0  0
 51 78  1  0  0  0  0
 52 76  1  0  0  0  0
 53 71  1  0  0  0  0
 54 70  1  0  0  0  0
 55 86  1  0  0  0  0
 60 67  1  0  0  0  0
 61 68  1  0  0  0  0
 62 68  1  0  0  0  0
 63 68  1  0  0  0  0
 64 79  1  0  0  0  0
 65 78  1  0  0  0  0
 66 68  1  0  0  0  0
 66 77  1  0  0  0  0
 67 79  1  0  0  0  0
 69 70  1  0  0  0  0
M  CHG  2  78   1  79   1
M  ISO  4  40 100  55 101  75 100  86 101
M  END
> <Batch ID>
0031

> <Smiles>
CNC(C)C(=O)NC(C(=O)N1Cc2cc([101O:1][101CH:1]3CC(=C(C)C)N(Cc4cc([100NH:0][100C:0](=O)N5CCCC(n6nc(-c7ccc(Oc8ccc(F)cc8F)cc7)c(C(N)=O)c6N)C5)c(C)cc4C)C3)ccc2CC1C(=O)NC1CCCc2ccccc21)C(C)(C)C

> <Shape>
0.272

> <Color>
0.090

> <Negative vol penalty>
0.000

$$$$

  -OEChem-04042321393D

 83 91  0     1  0  0  0  0  0999 V2000
  -27.3608  -22.8606   18.8671 C   0  0  0  0  0  0  0  0  0  0  0  0
  -26.1717  -23.4088   19.3371 C   0  0  0  0  0  0  0  0  0  0  0  0
  -26.1716  -14.7073   20.8795 C   0  0  0  0  0  0  0  0  0  0  0  0
  -24.0250  -14.3780   19.8208 C   0  0  0  0  0  0  0  0  0  0  0  0
  -28.5784  -23.2727   19.4070 C   0  0  0  0  0  0  0  0  0  0  0  0
  -26.1994  -24.3688   20.3481 C   0  0  0  0  0  0  0  0  0  0  0  0
  -23.1231  -28.2781   19.3999 C   0  0  0  0  0  0  0  0  0  0  0  0
  -17.6619  -23.6569   19.9741 C   0  0  0  0  0  0  0  0  0  0  0  0
  -26.3690  -13.3269   20.9088 C   0  0  0  0  0  0  0  0  0  0  0  0
  -24.2224  -12.9975   19.8500 C   0  0  0  0  0  0  0  0  0  0  0  0
  -21.7613  -28.0867   19.6289 C   0  0  0  0  0  0  0  0  0  0  0  0
  -24.0009   -9.3717   19.9719 C   0  0  0  0  0  0  0  0  0  0  0  0
  -22.9349   -8.5730   20.3857 C   0  0  0  0  0  0  0  0  0  0  0  0
  -17.9365  -22.4107   19.4110 C   0  0  0  0  0  0  0  0  0  0  0  0
  -21.9615  -29.2339   21.7415 C   0  0  0  0  0  0  0  0  0  0  0  0
  -17.7845  -22.6860   22.1830 C   0  0  0  0  0  0  0  0  0  0  0  0
  -22.9248   -9.6950   22.5254 C   0  0  0  0  0  0  0  0  0  0  0  0
  -24.9996  -15.2329   20.3356 C   0  0  0  0  0  0  0  0  0  0  0  0
  -25.1641  -17.5493   19.2795 C   0  0  0  0  0  0  0  0  0  0  0  0
  -28.6217  -24.2453   20.4184 C   0  0  0  0  0  0  0  0  0  0  0  0
  -23.9179  -28.9403   20.3466 C   0  0  0  0  0  0  0  0  0  0  0  0
  -27.4187  -24.7934   20.9029 C   0  0  0  0  0  0  0  0  0  0  0  0
  -23.3327  -29.4346   21.5210 C   0  0  0  0  0  0  0  0  0  0  0  0
  -17.5860  -23.7946   21.3601 C   0  0  0  0  0  0  0  0  0  0  0  0
  -18.0590  -21.4397   21.6200 C   0  0  0  0  0  0  0  0  0  0  0  0
  -25.3944  -12.4719   20.3941 C   0  0  0  0  0  0  0  0  0  0  0  0
  -21.1808  -28.5621   20.8012 C   0  0  0  0  0  0  0  0  0  0  0  0
  -24.5290  -10.3321   20.8348 C   0  0  0  0  0  0  0  0  0  0  0  0
  -22.3968   -8.7347   21.6624 C   0  0  0  0  0  0  0  0  0  0  0  0
  -23.9909  -10.4937   22.1115 C   0  0  0  0  0  0  0  0  0  0  0  0
  -18.1350  -21.3021   20.2339 C   0  0  0  0  0  0  0  0  0  0  0  0
  -24.7948  -16.6589   20.3055 C   0  0  0  0  0  0  0  0  0  0  0  0
  -24.7527  -18.7803   19.7287 C   0  0  0  0  0  0  0  0  0  0  0  0
  -25.8201  -17.2870   18.0319 C   0  0  0  0  0  0  0  0  0  0  0  0
  -26.4282  -28.1373   22.1236 C   0  0  0  0  0  0  0  0  0  0  0  0
  -26.3741  -31.2799   22.9256 C   0  0  0  0  0  0  0  0  0  0  0  0
  -24.5737  -34.1640   23.2212 C   0  0  0  0  0  0  0  0  0  0  0  0
  -20.5057  -20.5046   23.5811 C   0  0  0  0  0  0  0  0  0  0  0  0
  -29.9588  -24.6246   21.0040 C   0  0  0  0  0  0  0  0  0  0  0  0
  -25.3801  -29.1622   20.0724 C   0  0  0  0  0  0  0  0  0  0  0  0
  -24.1381  -30.1700   22.5597 C   0  0  0  0  0  0  0  0  0  0  0  0
  -29.9248  -25.9197   21.8114 C   0  0  0  0  0  0  0  0  0  0  0  0
  -23.9868  -21.2283   23.7675 C   0  0  0  0  0  0  0  0  0  0  0  0
  -28.7291  -25.9271   22.7585 C   0  0  0  0  0  0  0  0  0  0  0  0
  -24.6219  -20.2197   22.8088 C   0  0  0  0  0  0  0  0  0  0  0  0
  -22.7976  -20.6267   24.5131 C   0  0  0  0  0  0  0  0  0  0  0  0
  -22.4000  -19.0165   22.6903 C   0  0  0  0  0  0  0  0  0  0  0  0
  -27.4092  -25.8552   21.9812 C   0  0  1  0  0  0  0  0  0  0  0  0
  -26.1966  -29.3979   21.3394 C   0  0  1  0  0  0  0  0  0  0  0  0
  -23.5688  -19.5945   21.8742 C   0  0  2  0  0  0  0  0  0  0  0  0
  -24.7933  -36.5584   23.9395 C   0  0  0  0  0  0  0  0  0  0  0  0
  -26.3293  -30.4047   25.8482 C   0  0  0  0  0  0  0  0  0  0  0  0
  -25.5997  -32.7207   26.4581 C   0  0  0  0  0  0  0  0  0  0  0  0
  -27.8137  -32.3591   25.3672 C   0  0  0  0  0  0  0  0  0  0  0  0
  -23.8654  -35.1589   20.5254 C   0  0  0  0  0  0  0  0  0  0  0  0
  -18.2662  -20.2770   22.5360 C   0  0  0  0  0  0  0  0  0  0  0  0
  -17.2905  -25.1353   21.9653 C   0  0  0  0  0  0  0  0  0  0  0  0
  -18.1729  -27.4193   22.4586 C   0  0  0  0  0  0  0  0  0  0  0  0
  -19.4351  -28.2558   22.3870 C   0  0  0  0  0  0  0  0  0  1  0  0
  -25.7018  -32.0971   24.0022 C   0  0  1  0  0  0  0  0  0  0  0  0
  -24.8667  -35.5847   22.7737 C   0  0  2  0  0  0  0  0  0  0  0  0
  -26.3461  -31.8799   25.4004 C   0  0  0  0  0  0  0  0  0  0  0  0
  -24.1952  -17.2721   21.3294 N   0  0  0  0  0  0  0  0  0  0  0  0
  -24.1845  -18.5610   20.9491 N   0  0  0  0  0  0  0  0  0  0  0  0
  -25.5650  -30.3564   22.2486 N   0  0  0  0  0  0  0  0  0  0  0  0
  -21.8355  -20.0523   23.5695 N   0  0  0  0  0  0  0  0  0  0  0  0
  -24.8252  -20.0181   19.1950 N   0  0  0  0  0  0  0  0  0  0  0  0
  -26.1737  -15.9653   17.7279 N   0  0  0  0  0  0  0  0  0  0  0  0
  -27.0839  -27.1474   21.4167 N   0  0  0  0  0  0  0  0  0  0  0  0
  -25.7281  -33.4809   23.5406 N   0  0  0  0  0  0  0  0  0  0  0  0
  -19.6608  -19.9125   22.6503 N   0  0  0  0  0  0  0  0  0  0  0  0
  -23.8839  -36.0150   21.7393 N   0  3  0  0  0  0  0  0  0  0  0  0
  -18.4522  -26.0639   21.9209 N   0  3  0  0  0  0  0  0  0  0  0  0
  -26.0997  -18.2000   17.2184 O   0  0  0  0  0  0  0  0  0  0  0  0
  -26.0419  -28.0683   23.2845 O   0  0  0  0  0  0  0  0  0  0  0  0
  -27.5714  -31.4596   22.6889 O   0  0  0  0  0  0  0  0  0  0  0  0
  -23.4345  -33.7072   23.2848 O   0  0  0  0  0  0  0  0  0  0  0  0
  -20.1025  -21.3755   24.3595 O   0  0  0  0  0  0  0  0  0  0  0  0
  -25.5868  -11.1248   20.4223 O   0  0  0  0  0  0  0  0  0  0  0  0
  -19.8519  -28.3762   21.0275 O   0  0  0  0  0  0  0  0  0  1  0  0
  -21.3721   -7.9686   22.0591 F   0  0  0  0  0  0  0  0  0  0  0  0
  -24.4932  -11.4154   22.9446 F   0  0  0  0  0  0  0  0  0  0  0  0
  -18.4729  -19.7759   19.5021 Cl  0  0  0  0  0  0  0  0  0  0  0  0
  1  2  1  0  0  0  0
  1  5  2  0  0  0  0
  2  6  2  0  0  0  0
  3  9  2  0  0  0  0
  3 18  1  0  0  0  0
  4 10  1  0  0  0  0
  4 18  2  0  0  0  0
  5 20  1  0  0  0  0
  6 22  1  0  0  0  0
  7 11  2  0  0  0  0
  7 21  1  0  0  0  0
  8 14  2  0  0  0  0
  8 24  1  0  0  0  0
  9 26  1  0  0  0  0
 10 26  2  0  0  0  0
 11 27  1  0  0  0  0
 12 13  2  0  0  0  0
 12 28  1  0  0  0  0
 13 29  1  0  0  0  0
 14 31  1  0  0  0  0
 15 23  1  0  0  0  0
 15 27  2  0  0  0  0
 16 24  2  0  0  0  0
 16 25  1  0  0  0  0
 17 29  2  0  0  0  0
 17 30  1  0  0  0  0
 18 32  1  0  0  0  0
 19 32  1  0  0  0  0
 19 33  2  0  0  0  0
 19 34  1  0  0  0  0
 20 22  2  0  0  0  0
 20 39  1  0  0  0  0
 21 23  2  0  0  0  0
 21 40  1  0  0  0  0
 22 48  1  0  0  0  0
 23 41  1  0  0  0  0
 24 57  1  0  0  0  0
 25 31  2  0  0  0  0
 25 56  1  0  0  0  0
 26 79  1  0  0  0  0
 27 80  1  0  0  0  0
 28 30  2  0  0  0  0
 28 79  1  0  0  0  0
 29 81  1  0  0  0  0
 30 82  1  0  0  0  0
 31 83  1  0  0  0  0
 32 63  2  0  0  0  0
 33 64  1  0  0  0  0
 33 67  1  0  0  0  0
 34 68  1  0  0  0  0
 34 74  2  0  0  0  0
 35 49  1  0  0  0  0
 35 69  1  0  0  0  0
 35 75  2  0  0  0  0
 36 60  1  0  0  0  0
 36 65  1  0  0  0  0
 36 76  2  0  0  0  0
 37 61  1  0  0  0  0
 37 70  1  0  0  0  0
 37 77  2  0  0  0  0
 38 66  1  0  0  0  0
 38 71  1  0  0  0  0
 38 78  2  0  0  0  0
 39 42  1  0  0  0  0
 40 49  1  0  0  0  0
 41 65  1  0  0  0  0
 42 44  1  0  0  0  0
 43 45  1  0  0  0  0
 43 46  1  0  0  0  0
 44 48  1  0  0  0  0
 45 50  1  0  0  0  0
 46 66  1  0  0  0  0
 47 50  1  0  0  0  0
 47 66  1  0  0  0  0
 48 69  1  0  0  0  0
 49 65  1  0  0  0  0
 50 64  1  0  0  0  0
 51 61  1  0  0  0  0
 52 62  1  0  0  0  0
 53 62  1  0  0  0  0
 54 62  1  0  0  0  0
 55 72  1  0  0  0  0
 56 71  1  0  0  0  0
 57 73  1  0  0  0  0
 58 59  1  0  0  0  0
 58 73  1  0  0  0  0
 59 80  1  0  0  0  0
 60 62  1  0  0  0  0
 60 70  1  0  0  0  0
 61 72  1  0  0  0  0
 63 64  1  0  0  0  0
M  CHG  2  72   1  73   1
M  ISO  4  38 100  59 101  71 100  80 101
M  END
> <Batch ID>
0031

> <Smiles>
CNC(C)C(=O)NC(C(=O)N1Cc2cc([101O:1][101CH2:1]CNCc3ccc(Cl)c(C[100NH:0][100C:0](=O)N4CCCC(n5nc(-c6ccc(Oc7ccc(F)cc7F)cc6)c(C(N)=O)c5N)C4)c3)ccc2CC1C(=O)NC1CCCc2ccccc21)C(C)(C)C

> <Shape>
0.238

> <Color>
0.070

> <Negative vol penalty>
0.000

$$$$

  -OEChem-04042321393D

 85 94  0     1  0  0  0  0  0999 V2000
  -26.6440  -23.4534   18.1953 C   0  0  0  0  0  0  0  0  0  0  0  0
  -25.5199  -24.0380   18.7697 C   0  0  0  0  0  0  0  0  0  0  0  0
  -26.6815  -16.0024   21.8401 C   0  0  0  0  0  0  0  0  0  0  0  0
  -24.7048  -15.9222   20.4532 C   0  0  0  0  0  0  0  0  0  0  0  0
  -27.9122  -23.7427   18.6973 C   0  0  0  0  0  0  0  0  0  0  0  0
  -25.6631  -24.9113   19.8473 C   0  0  0  0  0  0  0  0  0  0  0  0
  -22.8174  -29.0726   19.3669 C   0  0  0  0  0  0  0  0  0  0  0  0
  -26.9981  -14.6970   21.4645 C   0  0  0  0  0  0  0  0  0  0  0  0
  -25.0214  -14.6167   20.0776 C   0  0  0  0  0  0  0  0  0  0  0  0
  -21.4587  -28.9515   19.6550 C   0  0  0  0  0  0  0  0  0  0  0  0
  -28.3813  -13.1367   18.8027 C   0  0  0  0  0  0  0  0  0  0  0  0
  -29.7038  -12.8656   18.4521 C   0  0  0  0  0  0  0  0  0  0  0  0
  -21.8412  -29.9131   21.8340 C   0  0  0  0  0  0  0  0  0  0  0  0
  -17.5166  -22.7130   24.4233 C   0  0  0  0  0  0  0  0  0  0  0  0
  -17.9993  -23.3474   21.7499 C   0  0  0  0  0  0  0  0  0  0  0  0
  -29.8440  -11.2422   20.2359 C   0  0  0  0  0  0  0  0  0  0  0  0
  -25.5349  -16.6151   21.3345 C   0  0  0  0  0  0  0  0  0  0  0  0
  -25.6066  -19.1527   21.0840 C   0  0  0  0  0  0  0  0  0  0  0  0
  -28.0718  -24.6276   19.7753 C   0  0  0  0  0  0  0  0  0  0  0  0
  -23.7015  -29.6056   20.3159 C   0  0  0  0  0  0  0  0  0  0  0  0
  -26.9345  -25.2117   20.3650 C   0  0  0  0  0  0  0  0  0  0  0  0
  -23.2103  -30.0422   21.5545 C   0  0  0  0  0  0  0  0  0  0  0  0
  -17.3112  -24.0152   23.9675 C   0  0  0  0  0  0  0  0  0  0  0  0
  -17.9633  -21.7280   23.5424 C   0  0  0  0  0  0  0  0  0  0  0  0
  -17.5525  -24.3324   22.6308 C   0  0  0  0  0  0  0  0  0  0  0  0
  -26.1680  -14.0041   20.5833 C   0  0  0  0  0  0  0  0  0  0  0  0
  -20.9709  -29.3691   20.8898 C   0  0  0  0  0  0  0  0  0  0  0  0
  -27.7901  -12.4606   19.8700 C   0  0  0  0  0  0  0  0  0  0  0  0
  -30.4352  -11.9184   19.1686 C   0  0  0  0  0  0  0  0  0  0  0  0
  -28.5214  -11.5133   20.5865 C   0  0  0  0  0  0  0  0  0  0  0  0
  -18.2047  -22.0452   22.2057 C   0  0  0  0  0  0  0  0  0  0  0  0
  -25.2071  -17.9634   21.7225 C   0  0  0  0  0  0  0  0  0  0  0  0
  -25.0384  -20.1530   21.8344 C   0  0  0  0  0  0  0  0  0  0  0  0
  -26.4186  -19.3369   19.9167 C   0  0  0  0  0  0  0  0  0  0  0  0
  -26.2362  -28.5054   21.8871 C   0  0  0  0  0  0  0  0  0  0  0  0
  -26.4364  -31.5719   22.9258 C   0  0  0  0  0  0  0  0  0  0  0  0
  -24.8538  -34.5331   23.5365 C   0  0  0  0  0  0  0  0  0  0  0  0
  -20.2504  -20.3381   25.4250 C   0  0  0  0  0  0  0  0  0  0  0  0
  -29.4591  -24.8729   20.3138 C   0  0  0  0  0  0  0  0  0  0  0  0
  -25.1600  -29.7542   19.9796 C   0  0  0  0  0  0  0  0  0  0  0  0
  -24.1146  -30.6400   22.6001 C   0  0  0  0  0  0  0  0  0  0  0  0
  -29.5536  -26.0997   21.2174 C   0  0  0  0  0  0  0  0  0  0  0  0
  -23.6096  -21.1377   26.2931 C   0  0  0  0  0  0  0  0  0  0  0  0
  -28.4097  -26.1090   22.2264 C   0  0  0  0  0  0  0  0  0  0  0  0
  -24.4359  -20.5221   25.1625 C   0  0  0  0  0  0  0  0  0  0  0  0
  -22.4038  -20.2702   26.6476 C   0  0  0  0  0  0  0  0  0  0  0  0
  -22.3586  -19.3105   24.3782 C   0  0  0  0  0  0  0  0  0  0  0  0
  -19.4786  -26.9180   22.1353 C   0  0  0  0  0  0  0  0  0  0  0  0
  -17.7922  -28.1085   22.4535 C   0  0  0  0  0  0  0  0  0  0  0  0
  -27.0510  -26.1834   21.5193 C   0  0  1  0  0  0  0  0  0  0  0  0
  -26.0525  -29.8362   21.2142 C   0  0  1  0  0  0  0  0  0  0  0  0
  -23.5543  -20.1771   23.9473 C   0  0  2  0  0  0  0  0  0  0  0  0
  -19.2879  -28.4361   22.3014 C   0  0  0  0  0  0  0  0  0  1  0  0
  -16.8348  -25.0544   24.9285 C   0  0  0  0  0  0  0  0  0  0  0  0
  -25.2715  -36.8443   24.4206 C   0  0  0  0  0  0  0  0  0  0  0  0
  -26.4770  -30.4732   25.7721 C   0  0  0  0  0  0  0  0  0  0  0  0
  -25.9383  -32.7758   26.5942 C   0  0  0  0  0  0  0  0  0  0  0  0
  -28.0656  -32.3602   25.3595 C   0  0  0  0  0  0  0  0  0  0  0  0
  -24.0820  -35.7812   20.9664 C   0  0  0  0  0  0  0  0  0  0  0  0
  -18.1711  -20.3452   24.0701 C   0  0  0  0  0  0  0  0  0  0  0  0
  -17.3413  -25.7267   22.1187 C   0  0  0  0  0  0  0  0  0  0  0  0
  -25.8756  -32.3429   24.0963 C   0  0  1  0  0  0  0  0  0  0  0  0
  -25.2204  -35.9630   23.1822 C   0  0  2  0  0  0  0  0  0  0  0  0
  -26.5722  -31.9750   25.4368 C   0  0  0  0  0  0  0  0  0  0  0  0
  -24.4442  -18.1858   22.7961 N   0  0  0  0  0  0  0  0  0  0  0  0
  -24.3599  -19.5264   22.8380 N   0  0  0  0  0  0  0  0  0  0  0  0
  -25.5337  -30.7585   22.2264 N   0  0  0  0  0  0  0  0  0  0  0  0
  -21.6086  -19.9807   25.4520 N   0  0  0  0  0  0  0  0  0  0  0  0
  -25.0581  -21.4985   21.7273 N   0  0  0  0  0  0  0  0  0  0  0  0
  -26.9215  -18.2016   19.2668 N   0  0  0  0  0  0  0  0  0  0  0  0
  -26.7870  -27.5345   21.0727 N   0  0  0  0  0  0  0  0  0  0  0  0
  -25.9733  -33.7542   23.7398 N   0  0  0  0  0  0  0  0  0  0  0  0
  -19.5714  -20.0336   24.2516 N   0  0  0  0  0  0  0  0  0  0  0  0
  -18.1802  -26.7309   22.8087 N   0  3  0  0  0  0  0  0  0  0  0  0
  -24.2191  -36.5358   22.2387 N   0  3  0  0  0  0  0  0  0  0  0  0
  -26.7036  -20.4751   19.4730 O   0  0  0  0  0  0  0  0  0  0  0  0
  -25.9041  -28.3699   23.0589 O   0  0  0  0  0  0  0  0  0  0  0  0
  -27.6299  -31.6925   22.6382 O   0  0  0  0  0  0  0  0  0  0  0  0
  -23.6906  -34.1468   23.6278 O   0  0  0  0  0  0  0  0  0  0  0  0
  -19.6862  -20.8927   26.3742 O   0  0  0  0  0  0  0  0  0  0  0  0
  -26.4767  -12.7302   20.2164 O   0  0  0  0  0  0  0  0  0  0  0  0
  -19.6452  -29.2515   21.1738 O   0  0  0  0  0  0  0  0  0  1  0  0
  -31.7048  -11.6570   18.8308 F   0  0  0  0  0  0  0  0  0  0  0  0
  -27.9585  -10.8597   21.6121 F   0  0  0  0  0  0  0  0  0  0  0  0
  -18.7582  -20.8531   21.0868 Cl  0  0  0  0  0  0  0  0  0  0  0  0
  1  2  1  0  0  0  0
  1  5  2  0  0  0  0
  2  6  2  0  0  0  0
  3  8  2  0  0  0  0
  3 17  1  0  0  0  0
  4  9  1  0  0  0  0
  4 17  2  0  0  0  0
  5 19  1  0  0  0  0
  6 21  1  0  0  0  0
  7 10  2  0  0  0  0
  7 20  1  0  0  0  0
  8 26  1  0  0  0  0
  9 26  2  0  0  0  0
 10 27  1  0  0  0  0
 11 12  2  0  0  0  0
 11 28  1  0  0  0  0
 12 29  1  0  0  0  0
 13 22  1  0  0  0  0
 13 27  2  0  0  0  0
 14 23  1  0  0  0  0
 14 24  2  0  0  0  0
 15 25  1  0  0  0  0
 15 31  2  0  0  0  0
 16 29  2  0  0  0  0
 16 30  1  0  0  0  0
 17 32  1  0  0  0  0
 18 32  1  0  0  0  0
 18 33  2  0  0  0  0
 18 34  1  0  0  0  0
 19 21  2  0  0  0  0
 19 39  1  0  0  0  0
 20 22  2  0  0  0  0
 20 40  1  0  0  0  0
 21 50  1  0  0  0  0
 22 41  1  0  0  0  0
 23 25  2  0  0  0  0
 23 54  1  0  0  0  0
 24 31  1  0  0  0  0
 24 60  1  0  0  0  0
 25 61  1  0  0  0  0
 26 81  1  0  0  0  0
 27 82  1  0  0  0  0
 28 30  2  0  0  0  0
 28 81  1  0  0  0  0
 29 83  1  0  0  0  0
 30 84  1  0  0  0  0
 31 85  1  0  0  0  0
 32 65  2  0  0  0  0
 33 66  1  0  0  0  0
 33 69  1  0  0  0  0
 34 70  1  0  0  0  0
 34 76  2  0  0  0  0
 35 51  1  0  0  0  0
 35 71  1  0  0  0  0
 35 77  2  0  0  0  0
 36 62  1  0  0  0  0
 36 67  1  0  0  0  0
 36 78  2  0  0  0  0
 37 63  1  0  0  0  0
 37 72  1  0  0  0  0
 37 79  2  0  0  0  0
 38 68  1  0  0  0  0
 38 73  1  0  0  0  0
 38 80  2  0  0  0  0
 39 42  1  0  0  0  0
 40 51  1  0  0  0  0
 41 67  1  0  0  0  0
 42 44  1  0  0  0  0
 43 45  1  0  0  0  0
 43 46  1  0  0  0  0
 44 50  1  0  0  0  0
 45 52  1  0  0  0  0
 46 68  1  0  0  0  0
 47 52  1  0  0  0  0
 47 68  1  0  0  0  0
 48 53  1  0  0  0  0
 48 74  1  0  0  0  0
 49 53  1  0  0  0  0
 49 74  1  0  0  0  0
 50 71  1  0  0  0  0
 51 67  1  0  0  0  0
 52 66  1  0  0  0  0
 53 82  1  0  0  0  0
 55 63  1  0  0  0  0
 56 64  1  0  0  0  0
 57 64  1  0  0  0  0
 58 64  1  0  0  0  0
 59 75  1  0  0  0  0
 60 73  1  0  0  0  0
 61 74  1  0  0  0  0
 62 64  1  0  0  0  0
 62 72  1  0  0  0  0
 63 75  1  0  0  0  0
 65 66  1  0  0  0  0
M  CHG  2  74   1  75   1
M  ISO  4  38 100  53 101  73 100  82 101
M  END
> <Batch ID>
0031

> <Smiles>
CNC(C)C(=O)NC(C(=O)N1Cc2cc([101O:1][101CH:1]3CN(Cc4cc(Cl)c(C[100NH:0][100C:0](=O)N5CCCC(n6nc(-c7ccc(Oc8ccc(F)cc8F)cc7)c(C(N)=O)c6N)C5)cc4C)C3)ccc2CC1C(=O)NC1CCCc2ccccc21)C(C)(C)C

> <Shape>
0.267

> <Color>
0.071

> <Negative vol penalty>
0.000

$$$$

  -OEChem-04042321393D

 88 97  0     1  0  0  0  0  0999 V2000
  -27.3479  -34.9572   24.1958 C   0  0  0  0  0  0  0  0  0  0  0  0
  -28.1715  -33.9412   23.7217 C   0  0  0  0  0  0  0  0  0  0  0  0
  -22.7097   -9.5053   20.9409 C   0  0  0  0  0  0  0  0  0  0  0  0
  -24.6555  -10.0977   22.2447 C   0  0  0  0  0  0  0  0  0  0  0  0
  -26.0295  -34.6755   24.5512 C   0  0  0  0  0  0  0  0  0  0  0  0
  -27.6775  -32.6426   23.6039 C   0  0  0  0  0  0  0  0  0  0  0  0
  -29.1342  -28.5250   19.3109 C   0  0  0  0  0  0  0  0  0  0  0  0
  -22.8644   -8.1709   21.3163 C   0  0  0  0  0  0  0  0  0  0  0  0
  -24.8102   -8.7633   22.6202 C   0  0  0  0  0  0  0  0  0  0  0  0
  -30.0221  -27.4501   19.3051 C   0  0  0  0  0  0  0  0  0  0  0  0
  -22.1960   -6.2495   24.0171 C   0  0  0  0  0  0  0  0  0  0  0  0
  -21.0563   -5.5529   24.4190 C   0  0  0  0  0  0  0  0  0  0  0  0
  -28.2102  -25.9583   19.8627 C   0  0  0  0  0  0  0  0  0  0  0  0
  -29.4647  -18.2503   17.7893 C   0  0  0  0  0  0  0  0  0  0  0  0
  -21.3930   -3.9682   22.6266 C   0  0  0  0  0  0  0  0  0  0  0  0
  -23.6052  -10.4687   21.4050 C   0  0  0  0  0  0  0  0  0  0  0  0
  -22.3346  -12.6760   21.2603 C   0  0  0  0  0  0  0  0  0  0  0  0
  -25.5161  -33.3747   24.4285 C   0  0  0  0  0  0  0  0  0  0  0  0
  -27.7774  -28.3259   19.6039 C   0  0  0  0  0  0  0  0  0  0  0  0
  -26.3513  -32.3430   23.9593 C   0  0  0  0  0  0  0  0  0  0  0  0
  -27.3067  -27.0320   19.8691 C   0  0  0  0  0  0  0  0  0  0  0  0
  -28.7504  -19.3468   18.2722 C   0  0  0  0  0  0  0  0  0  0  0  0
  -28.8362  -17.3164   16.9656 C   0  0  0  0  0  0  0  0  0  0  0  0
  -27.4076  -19.5093   17.9314 C   0  0  0  0  0  0  0  0  0  0  0  0
  -26.7791  -18.5753   17.1078 C   0  0  0  0  0  0  0  0  0  0  0  0
  -27.4934  -17.4789   16.6249 C   0  0  0  0  0  0  0  0  0  0  0  0
  -23.9146   -7.7999   22.1560 C   0  0  0  0  0  0  0  0  0  0  0  0
  -29.5607  -26.1669   19.5839 C   0  0  0  0  0  0  0  0  0  0  0  0
  -22.9341   -5.8056   22.9200 C   0  0  0  0  0  0  0  0  0  0  0  0
  -20.6549   -4.4122   23.7238 C   0  0  0  0  0  0  0  0  0  0  0  0
  -22.5326   -4.6649   22.2247 C   0  0  0  0  0  0  0  0  0  0  0  0
  -23.4463  -11.8473   21.0171 C   0  0  0  0  0  0  0  0  0  0  0  0
  -22.6751  -13.8813   20.6965 C   0  0  0  0  0  0  0  0  0  0  0  0
  -21.1043  -12.3827   21.9355 C   0  0  0  0  0  0  0  0  0  0  0  0
  -25.8012  -29.3402   21.8776 C   0  0  0  0  0  0  0  0  0  0  0  0
  -23.5713  -27.8281   20.0710 C   0  0  0  0  0  0  0  0  0  0  0  0
  -23.3273  -24.7316   18.2356 C   0  0  0  0  0  0  0  0  0  0  0  0
  -26.1942  -15.3810   16.3051 C   0  0  0  0  0  0  0  0  0  0  0  0
  -24.0986  -33.1091   24.8699 C   0  0  0  0  0  0  0  0  0  0  0  0
  -26.8276  -29.4919   19.5799 C   0  0  0  0  0  0  0  0  0  0  0  0
  -25.8558  -26.7620   20.1697 C   0  0  0  0  0  0  0  0  0  0  0  0
  -23.5408  -31.7823   24.3612 C   0  0  0  0  0  0  0  0  0  0  0  0
  -26.4630  -16.5920   19.6374 C   0  0  0  0  0  0  0  0  0  0  0  0
  -31.1937  -22.7616   16.7648 C   0  0  0  0  0  0  0  0  0  0  0  0
  -24.5524  -30.6608   24.5754 C   0  0  0  0  0  0  0  0  0  0  0  0
  -25.6120  -15.5764   20.3989 C   0  0  0  0  0  0  0  0  0  0  0  0
  -31.3408  -23.9579   17.6958 C   0  0  0  0  0  0  0  0  0  0  0  0
  -27.2929  -15.9321   18.5357 C   0  0  0  0  0  0  0  0  0  0  0  0
  -25.6461  -14.0935   18.3566 C   0  0  0  0  0  0  0  0  0  0  0  0
  -30.9753  -21.4697   17.5394 C   0  0  0  0  0  0  0  0  0  0  0  0
  -29.9433  -22.7648   19.4230 C   0  0  0  0  0  0  0  0  0  0  0  0
  -25.8446  -30.9266   23.7938 C   0  0  1  0  0  0  0  0  0  0  0  0
  -25.5624  -29.2489   20.3969 C   0  0  1  0  0  0  0  0  0  0  0  0
  -24.7576  -14.7369   19.4327 C   0  0  1  0  0  0  0  0  0  0  0  0
  -30.1613  -24.0633   18.6575 C   0  0  1  0  0  0  0  0  0  1  0  0
  -29.6284  -16.1529   16.4631 C   0  0  0  0  0  0  0  0  0  0  0  0
  -26.6444  -20.6864   18.4511 C   0  0  0  0  0  0  0  0  0  0  0  0
  -25.3377  -18.7543   16.7453 C   0  0  0  0  0  0  0  0  0  0  0  0
  -21.9298  -24.1222   16.2423 C   0  0  0  0  0  0  0  0  0  0  0  0
  -21.5883  -26.7869   22.1431 C   0  0  0  0  0  0  0  0  0  0  0  0
  -21.0946  -24.8728   20.6066 C   0  0  0  0  0  0  0  0  0  0  0  0
  -20.6082  -27.2095   19.8814 C   0  0  0  0  0  0  0  0  0  0  0  0
  -26.6625  -16.8446   14.3521 C   0  0  0  0  0  0  0  0  0  0  0  0
  -25.7008  -23.8802   16.6862 C   0  0  0  0  0  0  0  0  0  0  0  0
  -29.4506  -20.3374   19.1551 C   0  0  0  0  0  0  0  0  0  0  0  0
  -23.0089  -26.4282   20.0173 C   0  0  1  0  0  0  0  0  0  0  0  0
  -23.3003  -24.5693   16.7265 C   0  0  2  0  0  0  0  0  0  0  0  0
  -21.6016  -26.3293   20.6709 C   0  0  0  0  0  0  0  0  0  0  0  0
  -24.4200  -12.4730   20.3506 N   0  0  0  0  0  0  0  0  0  0  0  0
  -23.9213  -13.7079   20.1700 N   0  0  0  0  0  0  0  0  0  0  0  0
  -24.9675  -27.9357   20.1405 N   0  0  0  0  0  0  0  0  0  0  0  0
  -26.4418  -15.1099   17.6640 N   0  0  0  0  0  0  0  0  0  0  0  0
  -22.0270  -15.0620   20.6045 N   0  0  0  0  0  0  0  0  0  0  0  0
  -21.0314  -12.6040   23.3175 N   0  0  0  0  0  0  0  0  0  0  0  0
  -25.6610  -30.6147   22.3926 N   0  0  0  0  0  0  0  0  0  0  0  0
  -23.0460  -26.0270   18.6151 N   0  0  0  0  0  0  0  0  0  0  0  0
  -26.8460  -16.5125   15.7691 N   0  0  0  0  0  0  0  0  0  0  0  0
  -29.7808  -21.6243   18.4506 N   0  3  2  0  0  0  0  0  0  0  0  0
  -24.3044  -23.5555   16.2964 N   0  3  0  0  0  0  0  0  0  0  0  0
  -20.1046  -11.9220   21.3340 O   0  0  0  0  0  0  0  0  0  0  0  0
  -26.0898  -28.3288   22.5064 O   0  0  0  0  0  0  0  0  0  0  0  0
  -22.8005  -28.7909   20.0450 O   0  0  0  0  0  0  0  0  0  0  0  0
  -23.5696  -23.8012   19.0013 O   0  0  0  0  0  0  0  0  0  0  0  0
  -25.4680  -14.6538   15.6168 O   0  0  0  0  0  0  0  0  0  0  0  0
  -24.0657   -6.4978   22.5227 O   0  0  0  0  0  0  0  0  0  0  0  0
  -30.4253  -25.1160   19.5795 O   0  0  0  0  0  0  0  0  0  1  0  0
  -19.5613   -3.7424   24.1108 F   0  0  0  0  0  0  0  0  0  0  0  0
  -23.2384   -4.2329   21.1707 F   0  0  0  0  0  0  0  0  0  0  0  0
  1  2  1  0  0  0  0
  1  5  2  0  0  0  0
  2  6  2  0  0  0  0
  3  8  2  0  0  0  0
  3 16  1  0  0  0  0
  4  9  1  0  0  0  0
  4 16  2  0  0  0  0
  5 18  1  0  0  0  0
  6 20  1  0  0  0  0
  7 10  2  0  0  0  0
  7 19  1  0  0  0  0
  8 27  1  0  0  0  0
  9 27  2  0  0  0  0
 10 28  1  0  0  0  0
 11 12  2  0  0  0  0
 11 29  1  0  0  0  0
 12 30  1  0  0  0  0
 13 21  1  0  0  0  0
 13 28  2  0  0  0  0
 14 22  1  0  0  0  0
 14 23  2  0  0  0  0
 15 30  2  0  0  0  0
 15 31  1  0  0  0  0
 16 32  1  0  0  0  0
 17 32  1  0  0  0  0
 17 33  2  0  0  0  0
 17 34  1  0  0  0  0
 18 20  2  0  0  0  0
 18 39  1  0  0  0  0
 19 21  2  0  0  0  0
 19 40  1  0  0  0  0
 20 52  1  0  0  0  0
 21 41  1  0  0  0  0
 22 24  2  0  0  0  0
 22 65  1  0  0  0  0
 23 26  1  0  0  0  0
 23 56  1  0  0  0  0
 24 25  1  0  0  0  0
 24 57  1  0  0  0  0
 25 26  2  0  0  0  0
 25 58  1  0  0  0  0
 26 77  1  0  0  0  0
 27 85  1  0  0  0  0
 28 86  1  0  0  0  0
 29 31  2  0  0  0  0
 29 85  1  0  0  0  0
 30 87  1  0  0  0  0
 31 88  1  0  0  0  0
 32 69  2  0  0  0  0
 33 70  1  0  0  0  0
 33 73  1  0  0  0  0
 34 74  1  0  0  0  0
 34 80  2  0  0  0  0
 35 53  1  0  0  0  0
 35 75  1  0  0  0  0
 35 81  2  0  0  0  0
 36 66  1  0  0  0  0
 36 71  1  0  0  0  0
 36 82  2  0  0  0  0
 37 67  1  0  0  0  0
 37 76  1  0  0  0  0
 37 83  2  0  0  0  0
 38 72  1  0  0  0  0
 38 77  1  0  0  0  0
 38 84  2  0  0  0  0
 39 42  1  0  0  0  0
 40 53  1  0  0  0  0
 41 71  1  0  0  0  0
 42 45  1  0  0  0  0
 43 46  1  0  0  0  0
 43 48  1  0  0  0  0
 44 47  1  0  0  0  0
 44 50  1  0  0  0  0
 45 52  1  0  0  0  0
 46 54  1  0  0  0  0
 47 55  1  0  0  0  0
 48 72  1  0  0  0  0
 49 54  1  0  0  0  0
 49 72  1  0  0  0  0
 50 78  1  0  0  0  0
 51 55  1  0  0  0  0
 51 78  1  0  0  0  0
 52 75  1  0  0  0  0
 53 71  1  0  0  0  0
 54 70  1  0  0  0  0
 55 86  1  0  0  0  0
 59 67  1  0  0  0  0
 60 68  1  0  0  0  0
 61 68  1  0  0  0  0
 62 68  1  0  0  0  0
 63 77  1  0  0  0  0
 64 79  1  0  0  0  0
 65 78  1  0  0  0  0
 66 68  1  0  0  0  0
 66 76  1  0  0  0  0
 67 79  1  0  0  0  0
 69 70  1  0  0  0  0
M  CHG  2  78   1  79   1
M  ISO  4  38 100  55 101  77 100  86 101
M  END
> <Batch ID>
0031

> <Smiles>
CNC(C)C(=O)NC(C(=O)N1Cc2cc([101O:1][101CH:1]3CCCN(Cc4cc(C)c([100N:0](C)[100C:0](=O)N5CCCC(n6nc(-c7ccc(Oc8ccc(F)cc8F)cc7)c(C(N)=O)c6N)C5)c(C)c4C)C3)ccc2CC1C(=O)NC1CCCc2ccccc21)C(C)(C)C

> <Shape>
0.290

> <Color>
0.075

> <Negative vol penalty>
0.000

$$$$

  -OEChem-04042321393D

 89 98  0     1  0  0  0  0  0999 V2000
  -29.4031  -31.2615   14.3538 C   0  0  0  0  0  0  0  0  0  0  0  0
  -29.8371  -30.0043   13.9457 C   0  0  0  0  0  0  0  0  0  0  0  0
  -23.1693   -9.8389   19.9279 C   0  0  0  0  0  0  0  0  0  0  0  0
  -23.8407   -9.9089   22.2477 C   0  0  0  0  0  0  0  0  0  0  0  0
  -29.8858  -31.8133   15.5397 C   0  0  0  0  0  0  0  0  0  0  0  0
  -30.7549  -29.2986   14.7229 C   0  0  0  0  0  0  0  0  0  0  0  0
  -31.0144  -23.2311   15.5127 C   0  0  0  0  0  0  0  0  0  0  0  0
  -35.3931  -16.9003   18.2886 C   0  0  0  0  0  0  0  0  0  0  0  0
  -34.5953  -16.7637   19.4246 C   0  0  0  0  0  0  0  0  0  0  0  0
  -22.4465   -8.6713   20.1723 C   0  0  0  0  0  0  0  0  0  0  0  0
  -23.1179   -8.7413   22.4922 C   0  0  0  0  0  0  0  0  0  0  0  0
  -31.7976  -22.2408   14.9213 C   0  0  0  0  0  0  0  0  0  0  0  0
  -19.8908   -7.8694   22.9883 C   0  0  0  0  0  0  0  0  0  0  0  0
  -19.0910   -7.8312   24.1305 C   0  0  0  0  0  0  0  0  0  0  0  0
  -33.3406  -22.3648   16.7713 C   0  0  0  0  0  0  0  0  0  0  0  0
  -33.4136  -16.9527   16.9045 C   0  0  0  0  0  0  0  0  0  0  0  0
  -20.3531   -5.9415   24.9511 C   0  0  0  0  0  0  0  0  0  0  0  0
  -23.8665  -10.4577   20.9656 C   0  0  0  0  0  0  0  0  0  0  0  0
  -24.1473  -12.9884   20.8089 C   0  0  0  0  0  0  0  0  0  0  0  0
  -30.8027  -31.1099   16.3367 C   0  0  0  0  0  0  0  0  0  0  0  0
  -31.3948  -23.8043   16.7346 C   0  0  0  0  0  0  0  0  0  0  0  0
  -31.2514  -29.8421   15.9200 C   0  0  0  0  0  0  0  0  0  0  0  0
  -32.5592  -23.3603   17.3774 C   0  0  0  0  0  0  0  0  0  0  0  0
  -34.8023  -16.9948   17.0286 C   0  0  0  0  0  0  0  0  0  0  0  0
  -33.2066  -16.7216   19.3005 C   0  0  0  0  0  0  0  0  0  0  0  0
  -32.6157  -16.8161   18.0405 C   0  0  0  0  0  0  0  0  0  0  0  0
  -22.4208   -8.1225   21.4544 C   0  0  0  0  0  0  0  0  0  0  0  0
  -32.9624  -21.8096   15.5491 C   0  0  0  0  0  0  0  0  0  0  0  0
  -20.9217   -6.9436   22.8275 C   0  0  0  0  0  0  0  0  0  0  0  0
  -19.3222   -6.8673   25.1119 C   0  0  0  0  0  0  0  0  0  0  0  0
  -21.1529   -5.9797   23.8089 C   0  0  0  0  0  0  0  0  0  0  0  0
  -24.6138  -11.6636   20.7136 C   0  0  0  0  0  0  0  0  0  0  0  0
  -25.2327  -13.7597   20.4723 C   0  0  0  0  0  0  0  0  0  0  0  0
  -22.8488  -13.4780   21.1695 C   0  0  0  0  0  0  0  0  0  0  0  0
  -32.1727  -26.7337   17.6924 C   0  0  0  0  0  0  0  0  0  0  0  0
  -32.1953  -25.3475   20.6250 C   0  0  0  0  0  0  0  0  0  0  0  0
  -32.5125  -22.5020   22.4822 C   0  0  0  0  0  0  0  0  0  0  0  0
  -30.4479  -15.0529   20.7741 C   0  0  0  0  0  0  0  0  0  0  0  0
  -31.3322  -31.7676   17.5864 C   0  0  0  0  0  0  0  0  0  0  0  0
  -30.5250  -24.8525   17.3726 C   0  0  0  0  0  0  0  0  0  0  0  0
  -33.0008  -23.9292   18.7002 C   0  0  0  0  0  0  0  0  0  0  0  0
  -32.0174  -30.7950   18.5429 C   0  0  0  0  0  0  0  0  0  0  0  0
  -29.6874  -12.4965   18.4593 C   0  0  0  0  0  0  0  0  0  0  0  0
  -32.9763  -29.8846   17.7824 C   0  0  0  0  0  0  0  0  0  0  0  0
  -28.2527  -12.1483   18.8535 C   0  0  0  0  0  0  0  0  0  0  0  0
  -35.9046  -21.0669   13.9339 C   0  0  0  0  0  0  0  0  0  0  0  0
  -35.7954  -19.8358   13.0417 C   0  0  0  0  0  0  0  0  0  0  0  0
  -30.5693  -12.7661   19.6799 C   0  0  0  0  0  0  0  0  0  0  0  0
  -28.5843  -13.4373   20.9960 C   0  0  0  0  0  0  0  0  0  0  0  0
  -35.5322  -19.6115   15.9594 C   0  0  0  0  0  0  0  0  0  0  0  0
  -32.2273  -29.0351   16.7484 C   0  0  1  0  0  0  0  0  0  0  0  0
  -31.2791  -25.7310   18.3661 C   0  0  1  0  0  0  0  0  0  0  0  0
  -27.6627  -13.2206   19.7859 C   0  0  2  0  0  0  0  0  0  0  0  0
  -35.1303  -20.8867   15.2336 C   0  0  2  0  0  0  0  0  0  1  0  0
  -36.2172  -18.5526   13.7673 C   0  0  2  0  0  0  0  0  0  0  0  0
  -36.0109  -17.3491   12.8496 C   0  0  0  0  0  0  0  0  0  0  0  0
  -32.5228  -21.6903   24.8568 C   0  0  0  0  0  0  0  0  0  0  0  0
  -35.0154  -26.4542   20.9885 C   0  0  0  0  0  0  0  0  0  0  0  0
  -35.3203  -24.8599   22.8947 C   0  0  0  0  0  0  0  0  0  0  0  0
  -33.5594  -26.6228   23.0149 C   0  0  0  0  0  0  0  0  0  0  0  0
  -32.8176  -14.1905   20.9876 C   0  0  0  0  0  0  0  0  0  0  0  0
  -30.1637  -20.7618   22.0198 C   0  0  0  0  0  0  0  0  0  0  0  0
  -32.3730  -16.5737   20.5309 C   0  0  0  0  0  0  0  0  0  0  0  0
  -35.6607  -17.1412   15.8068 C   0  0  0  0  0  0  0  0  0  0  0  0
  -31.1311  -16.7731   17.8832 C   0  0  0  0  0  0  0  0  0  0  0  0
  -33.2335  -24.6487   21.4693 C   0  0  1  0  0  0  0  0  0  0  0  0
  -31.6762  -21.9425   23.6189 C   0  0  2  0  0  0  0  0  0  0  0  0
  -34.2751  -25.6369   22.0660 C   0  0  0  0  0  0  0  0  0  0  0  0
  -25.8957  -11.5936   20.3452 N   0  0  0  0  0  0  0  0  0  0  0  0
  -26.2440  -12.8841   20.2059 N   0  0  0  0  0  0  0  0  0  0  0  0
  -32.1201  -24.9562   19.2808 N   0  0  0  0  0  0  0  0  0  0  0  0
  -29.9473  -13.7592   20.5663 N   0  0  0  0  0  0  0  0  0  0  0  0
  -25.4113  -15.0947   20.3811 N   0  0  0  0  0  0  0  0  0  0  0  0
  -21.8486  -12.5487   21.4862 N   0  0  0  0  0  0  0  0  0  0  0  0
  -31.5509  -27.9315   17.3956 N   0  0  0  0  0  0  0  0  0  0  0  0
  -32.4980  -23.8807   22.4680 N   0  0  0  0  0  0  0  0  0  0  0  0
  -31.8364  -15.2278   20.6754 N   0  0  0  0  0  0  0  0  0  0  0  0
  -35.3846  -18.4115   15.0384 N   0  3  1  0  0  0  0  0  0  0  0  0
  -30.4929  -18.1160   17.9476 N   0  3  0  0  0  0  0  0  0  0  0  0
  -31.0437  -20.6559   23.2120 N   0  3  0  0  0  0  0  0  0  0  0  0
  -22.5788  -14.7028   21.1936 O   0  0  0  0  0  0  0  0  0  0  0  0
  -33.3403  -26.4427   17.4605 O   0  0  0  0  0  0  0  0  0  0  0  0
  -31.4727  -26.2037   21.1411 O   0  0  0  0  0  0  0  0  0  0  0  0
  -33.1211  -21.7874   21.6887 O   0  0  0  0  0  0  0  0  0  0  0  0
  -29.6969  -15.9998   21.0414 O   0  0  0  0  0  0  0  0  0  0  0  0
  -21.7153   -6.9833   21.6934 O   0  0  0  0  0  0  0  0  0  0  0  0
  -33.7290  -20.8436   14.9737 O   0  0  0  0  0  0  0  0  0  1  0  0
  -18.5551   -6.8318   26.2093 F   0  0  0  0  0  0  0  0  0  0  0  0
  -22.1425   -5.0884   23.6605 F   0  0  0  0  0  0  0  0  0  0  0  0
  1  2  1  0  0  0  0
  1  5  2  0  0  0  0
  2  6  2  0  0  0  0
  3 10  2  0  0  0  0
  3 18  1  0  0  0  0
  4 11  1  0  0  0  0
  4 18  2  0  0  0  0
  5 20  1  0  0  0  0
  6 22  1  0  0  0  0
  7 12  2  0  0  0  0
  7 21  1  0  0  0  0
  8  9  2  0  0  0  0
  8 24  1  0  0  0  0
  9 25  1  0  0  0  0
 10 27  1  0  0  0  0
 11 27  2  0  0  0  0
 12 28  1  0  0  0  0
 13 14  2  0  0  0  0
 13 29  1  0  0  0  0
 14 30  1  0  0  0  0
 15 23  1  0  0  0  0
 15 28  2  0  0  0  0
 16 24  2  0  0  0  0
 16 26  1  0  0  0  0
 17 30  2  0  0  0  0
 17 31  1  0  0  0  0
 18 32  1  0  0  0  0
 19 32  1  0  0  0  0
 19 33  2  0  0  0  0
 19 34  1  0  0  0  0
 20 22  2  0  0  0  0
 20 39  1  0  0  0  0
 21 23  2  0  0  0  0
 21 40  1  0  0  0  0
 22 51  1  0  0  0  0
 23 41  1  0  0  0  0
 24 64  1  0  0  0  0
 25 26  2  0  0  0  0
 25 63  1  0  0  0  0
 26 65  1  0  0  0  0
 27 86  1  0  0  0  0
 28 87  1  0  0  0  0
 29 31  2  0  0  0  0
 29 86  1  0  0  0  0
 30 88  1  0  0  0  0
 31 89  1  0  0  0  0
 32 69  2  0  0  0  0
 33 70  1  0  0  0  0
 33 73  1  0  0  0  0
 34 74  1  0  0  0  0
 34 81  2  0  0  0  0
 35 52  1  0  0  0  0
 35 75  1  0  0  0  0
 35 82  2  0  0  0  0
 36 66  1  0  0  0  0
 36 71  1  0  0  0  0
 36 83  2  0  0  0  0
 37 67  1  0  0  0  0
 37 76  1  0  0  0  0
 37 84  2  0  0  0  0
 38 72  1  0  0  0  0
 38 77  1  0  0  0  0
 38 85  2  0  0  0  0
 39 42  1  0  0  0  0
 40 52  1  0  0  0  0
 41 71  1  0  0  0  0
 42 44  1  0  0  0  0
 43 45  1  0  0  0  0
 43 48  1  0  0  0  0
 44 51  1  0  0  0  0
 45 53  1  0  0  0  0
 46 47  1  0  0  0  0
 46 54  1  0  0  0  0
 47 55  1  0  0  0  0
 48 72  1  0  0  0  0
 49 53  1  0  0  0  0
 49 72  1  0  0  0  0
 50 54  1  0  0  0  0
 50 78  1  0  0  0  0
 51 75  1  0  0  0  0
 52 71  1  0  0  0  0
 53 70  1  0  0  0  0
 54 87  1  0  0  0  0
 55 56  1  0  0  0  0
 55 78  1  0  0  0  0
 57 67  1  0  0  0  0
 58 68  1  0  0  0  0
 59 68  1  0  0  0  0
 60 68  1  0  0  0  0
 61 77  1  0  0  0  0
 62 80  1  0  0  0  0
 63 77  1  0  0  0  0
 64 78  1  0  0  0  0
 65 79  1  0  0  0  0
 66 68  1  0  0  0  0
 66 76  1  0  0  0  0
 67 80  1  0  0  0  0
 69 70  1  0  0  0  0
M  CHG  3  78   1  79   1  80   1
M  ISO  4  38 100  54 101  77 100  87 101
M  END
> <Batch ID>
0031

> <Smiles>
CNC(C)C(=O)NC(C(=O)N1Cc2cc([101O:1][101CH:1]3CCC(C)N(Cc4ccc(C[100N:0](C)[100C:0](=O)N5CCCC(n6nc(-c7ccc(Oc8ccc(F)cc8F)cc7)c(C(N)=O)c6N)C5)c(CN)c4)C3)ccc2CC1C(=O)NC1CCCc2ccccc21)C(C)(C)C

> <Shape>
0.183

> <Color>
0.164

> <Negative vol penalty>
0.000

$$$$

  -OEChem-04042321393D

 86 95  0     1  0  0  0  0  0999 V2000
  -30.5032  -32.7572   15.5155 C   0  0  0  0  0  0  0  0  0  0  0  0
  -30.5768  -31.5087   16.1248 C   0  0  0  0  0  0  0  0  0  0  0  0
  -24.4344   -8.7028   21.4861 C   0  0  0  0  0  0  0  0  0  0  0  0
  -24.3447  -10.2961   23.3001 C   0  0  0  0  0  0  0  0  0  0  0  0
  -29.7977  -33.7910   16.1299 C   0  0  0  0  0  0  0  0  0  0  0  0
  -29.9457  -31.2936   17.3495 C   0  0  0  0  0  0  0  0  0  0  0  0
  -27.2717  -26.1242   19.2553 C   0  0  0  0  0  0  0  0  0  0  0  0
  -24.0478   -7.6865   22.3596 C   0  0  0  0  0  0  0  0  0  0  0  0
  -23.9580   -9.2797   24.1736 C   0  0  0  0  0  0  0  0  0  0  0  0
  -27.7104  -25.0908   20.0820 C   0  0  0  0  0  0  0  0  0  0  0  0
  -21.1879   -6.5815   23.7855 C   0  0  0  0  0  0  0  0  0  0  0  0
  -20.2007   -5.6960   23.3533 C   0  0  0  0  0  0  0  0  0  0  0  0
  -26.6140  -26.1356   21.9597 C   0  0  0  0  0  0  0  0  0  0  0  0
  -29.3026  -18.3239   23.6921 C   0  0  0  0  0  0  0  0  0  0  0  0
  -30.6945  -17.4436   21.4403 C   0  0  0  0  0  0  0  0  0  0  0  0
  -21.7437   -3.8537   23.6030 C   0  0  0  0  0  0  0  0  0  0  0  0
  -24.5830  -10.0077   21.9563 C   0  0  0  0  0  0  0  0  0  0  0  0
  -24.1417  -11.8852   20.2866 C   0  0  0  0  0  0  0  0  0  0  0  0
  -29.1496  -33.5857   17.3581 C   0  0  0  0  0  0  0  0  0  0  0  0
  -26.5088  -27.1784   19.7777 C   0  0  0  0  0  0  0  0  0  0  0  0
  -29.2321  -32.3260   17.9816 C   0  0  0  0  0  0  0  0  0  0  0  0
  -26.1647  -27.1798   21.1370 C   0  0  0  0  0  0  0  0  0  0  0  0
  -30.0491  -19.2277   22.9362 C   0  0  0  0  0  0  0  0  0  0  0  0
  -29.9481  -16.5397   22.1963 C   0  0  0  0  0  0  0  0  0  0  0  0
  -23.8095   -7.9749   23.7034 C   0  0  0  0  0  0  0  0  0  0  0  0
  -27.3841  -25.0979   21.4350 C   0  0  0  0  0  0  0  0  0  0  0  0
  -22.4531   -6.1031   24.1264 C   0  0  0  0  0  0  0  0  0  0  0  0
  -20.4786   -4.3321   23.2621 C   0  0  0  0  0  0  0  0  0  0  0  0
  -22.7310   -4.7393   24.0351 C   0  0  0  0  0  0  0  0  0  0  0  0
  -29.2522  -16.9798   23.3222 C   0  0  0  0  0  0  0  0  0  0  0  0
  -30.7450  -18.7876   21.8103 C   0  0  0  0  0  0  0  0  0  0  0  0
  -24.9829  -11.0579   21.0546 C   0  0  0  0  0  0  0  0  0  0  0  0
  -25.0017  -12.7111   19.6049 C   0  0  0  0  0  0  0  0  0  0  0  0
  -27.7465  -21.4726   23.8894 C   0  0  0  0  0  0  0  0  0  0  0  0
  -22.7108  -11.9053   20.1976 C   0  0  0  0  0  0  0  0  0  0  0  0
  -26.9069  -30.3213   20.0377 C   0  0  0  0  0  0  0  0  0  0  0  0
  -23.8517  -30.2258   21.1235 C   0  0  0  0  0  0  0  0  0  0  0  0
  -21.3465  -28.4157   22.5706 C   0  0  0  0  0  0  0  0  0  0  0  0
  -30.5608  -14.6115   20.6954 C   0  0  0  0  0  0  0  0  0  0  0  0
  -28.4387  -34.7469   18.0068 C   0  0  0  0  0  0  0  0  0  0  0  0
  -26.0207  -28.2718   18.8673 C   0  0  0  0  0  0  0  0  0  0  0  0
  -25.3309  -28.2780   21.7428 C   0  0  0  0  0  0  0  0  0  0  0  0
  -26.6499  -22.1548   23.1042 C   0  0  0  0  0  0  0  0  0  0  0  0
  -27.4837  -34.3302   19.1224 C   0  0  0  0  0  0  0  0  0  0  0  0
  -29.4427  -12.8387   17.8172 C   0  0  0  0  0  0  0  0  0  0  0  0
  -28.1556  -33.3251   20.0525 C   0  0  0  0  0  0  0  0  0  0  0  0
  -28.0927  -12.2613   18.2488 C   0  0  0  0  0  0  0  0  0  0  0  0
  -30.4538  -12.8339   18.9623 C   0  0  0  0  0  0  0  0  0  0  0  0
  -28.6433  -12.8984   20.6317 C   0  0  0  0  0  0  0  0  0  0  0  0
  -28.6056  -21.8903   21.7235 C   0  0  0  0  0  0  0  0  0  0  0  0
  -28.5400  -32.0466   19.2981 C   0  0  1  0  0  0  0  0  0  0  0  0
  -25.6836  -29.5613   19.6095 C   0  0  1  0  0  0  0  0  0  0  0  0
  -27.5721  -12.9423   19.5297 C   0  0  2  0  0  0  0  0  0  0  0  0
  -27.3857  -22.7717   21.9177 C   0  0  2  0  0  0  0  0  0  1  0  0
  -18.9756  -28.6198   23.3672 C   0  0  0  0  0  0  0  0  0  0  0  0
  -24.8138  -31.7400   23.5916 C   0  0  0  0  0  0  0  0  0  0  0  0
  -22.6860  -31.0851   24.7370 C   0  0  0  0  0  0  0  0  0  0  0  0
  -22.6114  -32.5079   22.6894 C   0  0  0  0  0  0  0  0  0  0  0  0
  -20.4085  -26.3473   20.6730 C   0  0  0  0  0  0  0  0  0  0  0  0
  -30.0772  -20.6656   23.3673 C   0  0  0  0  0  0  0  0  0  0  0  0
  -23.2026  -30.0590   22.4762 C   0  0  1  0  0  0  0  0  0  0  0  0
  -19.8828  -28.2494   22.2042 C   0  0  2  0  0  0  0  0  0  0  0  0
  -23.3458  -31.3282   23.3628 C   0  0  0  0  0  0  0  0  0  0  0  0
  -26.2779  -11.3330   20.8776 N   0  0  0  0  0  0  0  0  0  0  0  0
  -26.2569  -12.3424   19.9906 N   0  0  0  0  0  0  0  0  0  0  0  0
  -28.8448  -21.3520   23.0441 N   0  0  0  0  0  0  0  0  0  0  0  0
  -24.8828  -29.3279   20.8130 N   0  0  0  0  0  0  0  0  0  0  0  0
  -29.8931  -13.4994   20.1402 N   0  0  0  0  0  0  0  0  0  0  0  0
  -24.7991  -13.7094   18.7190 N   0  0  0  0  0  0  0  0  0  0  0  0
  -21.9806  -10.9884   20.9658 N   0  0  0  0  0  0  0  0  0  0  0  0
  -29.9168  -15.1818   21.7929 N   0  0  0  0  0  0  0  0  0  0  0  0
  -27.3757  -31.2123   19.0913 N   0  0  0  0  0  0  0  0  0  0  0  0
  -21.8224  -29.6615   22.2204 N   0  0  0  0  0  0  0  0  0  0  0  0
  -19.6021  -26.8369   21.8205 N   0  3  0  0  0  0  0  0  0  0  0  0
  -27.6308  -21.0748   25.0393 O   0  0  0  0  0  0  0  0  0  0  0  0
  -22.0986  -12.7016   19.4461 O   0  0  0  0  0  0  0  0  0  0  0  0
  -27.3890  -30.1157   21.1455 O   0  0  0  0  0  0  0  0  0  0  0  0
  -23.4536  -31.1153   20.3672 O   0  0  0  0  0  0  0  0  0  0  0  0
  -22.0012  -27.5303   23.1166 O   0  0  0  0  0  0  0  0  0  0  0  0
  -31.6115  -15.0439   20.2148 O   0  0  0  0  0  0  0  0  0  0  0  0
  -23.4320   -6.9834   24.5560 O   0  0  0  0  0  0  0  0  0  0  0  0
  -27.8116  -24.0908   22.2443 O   0  0  0  0  0  0  0  0  0  1  0  0
  -19.5299   -3.4817   22.8485 F   0  0  0  0  0  0  0  0  0  0  0  0
  -23.9443   -4.2737   24.3624 F   0  0  0  0  0  0  0  0  0  0  0  0
  -28.3165  -15.8940   24.2865 Cl  0  0  0  0  0  0  0  0  0  0  0  0
  -31.6797  -19.8776   20.8520 Cl  0  0  0  0  0  0  0  0  0  0  0  0
  1  2  1  0  0  0  0
  1  5  2  0  0  0  0
  2  6  2  0  0  0  0
  3  8  2  0  0  0  0
  3 17  1  0  0  0  0
  4  9  1  0  0  0  0
  4 17  2  0  0  0  0
  5 19  1  0  0  0  0
  6 21  1  0  0  0  0
  7 10  2  0  0  0  0
  7 20  1  0  0  0  0
  8 25  1  0  0  0  0
  9 25  2  0  0  0  0
 10 26  1  0  0  0  0
 11 12  2  0  0  0  0
 11 27  1  0  0  0  0
 12 28  1  0  0  0  0
 13 22  1  0  0  0  0
 13 26  2  0  0  0  0
 14 23  1  0  0  0  0
 14 30  2  0  0  0  0
 15 24  2  0  0  0  0
 15 31  1  0  0  0  0
 16 28  2  0  0  0  0
 16 29  1  0  0  0  0
 17 32  1  0  0  0  0
 18 32  1  0  0  0  0
 18 33  2  0  0  0  0
 18 35  1  0  0  0  0
 19 21  2  0  0  0  0
 19 40  1  0  0  0  0
 20 22  2  0  0  0  0
 20 41  1  0  0  0  0
 21 51  1  0  0  0  0
 22 42  1  0  0  0  0
 23 31  2  0  0  0  0
 23 60  1  0  0  0  0
 24 30  1  0  0  0  0
 24 71  1  0  0  0  0
 25 81  1  0  0  0  0
 26 82  1  0  0  0  0
 27 29  2  0  0  0  0
 27 81  1  0  0  0  0
 28 83  1  0  0  0  0
 29 84  1  0  0  0  0
 30 85  1  0  0  0  0
 31 86  1  0  0  0  0
 32 64  2  0  0  0  0
 33 65  1  0  0  0  0
 33 69  1  0  0  0  0
 34 43  1  0  0  0  0
 34 66  1  0  0  0  0
 34 75  2  0  0  0  0
 35 70  1  0  0  0  0
 35 76  2  0  0  0  0
 36 52  1  0  0  0  0
 36 72  1  0  0  0  0
 36 77  2  0  0  0  0
 37 61  1  0  0  0  0
 37 67  1  0  0  0  0
 37 78  2  0  0  0  0
 38 62  1  0  0  0  0
 38 73  1  0  0  0  0
 38 79  2  0  0  0  0
 39 68  1  0  0  0  0
 39 71  1  0  0  0  0
 39 80  2  0  0  0  0
 40 44  1  0  0  0  0
 41 52  1  0  0  0  0
 42 67  1  0  0  0  0
 43 54  1  0  0  0  0
 44 46  1  0  0  0  0
 45 47  1  0  0  0  0
 45 48  1  0  0  0  0
 46 51  1  0  0  0  0
 47 53  1  0  0  0  0
 48 68  1  0  0  0  0
 49 53  1  0  0  0  0
 49 68  1  0  0  0  0
 50 54  1  0  0  0  0
 50 66  1  0  0  0  0
 51 72  1  0  0  0  0
 52 67  1  0  0  0  0
 53 65  1  0  0  0  0
 54 82  1  0  0  0  0
 55 62  1  0  0  0  0
 56 63  1  0  0  0  0
 57 63  1  0  0  0  0
 58 63  1  0  0  0  0
 59 74  1  0  0  0  0
 60 66  1  0  0  0  0
 61 63  1  0  0  0  0
 61 73  1  0  0  0  0
 62 74  1  0  0  0  0
 64 65  1  0  0  0  0
M  CHG  1  74   1
M  ISO  4  39 100  54 101  71 100  82 101
M  END
> <Batch ID>
0031

> <Smiles>
CNC(C)C(=O)NC(C(=O)N1Cc2cc([101O:1][101CH:1]3CC(=O)N(Cc4cc(Cl)c([100NH:0][100C:0](=O)N5CCCC(n6nc(-c7ccc(Oc8ccc(F)cc8F)cc7)c(C(N)=O)c6N)C5)cc4Cl)C3)ccc2CC1C(=O)NC1CCCc2ccccc21)C(C)(C)C

> <Shape>
0.288

> <Color>
0.111

> <Negative vol penalty>
0.000

$$$$

  -OEChem-04042321393D

 87 96  0     1  0  0  0  0  0999 V2000
  -28.6397  -28.0180   22.9693 C   0  0  0  0  0  0  0  0  0  0  0  0
  -28.6450  -27.3413   24.1849 C   0  0  0  0  0  0  0  0  0  0  0  0
  -23.1416  -10.1884   22.1030 C   0  0  0  0  0  0  0  0  0  0  0  0
  -23.7835   -9.4703   19.8873 C   0  0  0  0  0  0  0  0  0  0  0  0
  -28.8843  -27.3236   21.7853 C   0  0  0  0  0  0  0  0  0  0  0  0
  -28.8938  -25.9697   24.2169 C   0  0  0  0  0  0  0  0  0  0  0  0
  -31.9113  -20.9377   28.3268 C   0  0  0  0  0  0  0  0  0  0  0  0
  -22.4021   -9.0174   22.2683 C   0  0  0  0  0  0  0  0  0  0  0  0
  -23.0440   -8.2991   20.0527 C   0  0  0  0  0  0  0  0  0  0  0  0
  -31.6230  -19.7002   28.9006 C   0  0  0  0  0  0  0  0  0  0  0  0
  -23.0060   -5.7733   23.0063 C   0  0  0  0  0  0  0  0  0  0  0  0
  -23.1352   -5.0905   24.2156 C   0  0  0  0  0  0  0  0  0  0  0  0
  -32.1109  -18.6192   26.8000 C   0  0  0  0  0  0  0  0  0  0  0  0
  -32.7566  -14.4561   25.3132 C   0  0  0  0  0  0  0  0  0  0  0  0
  -32.2976  -12.2017   26.0508 C   0  0  0  0  0  0  0  0  0  0  0  0
  -20.7699   -5.3661   24.6238 C   0  0  0  0  0  0  0  0  0  0  0  0
  -23.8323  -10.4149   20.9124 C   0  0  0  0  0  0  0  0  0  0  0  0
  -24.1147  -12.9470   20.7839 C   0  0  0  0  0  0  0  0  0  0  0  0
  -29.1458  -25.9445   21.8038 C   0  0  0  0  0  0  0  0  0  0  0  0
  -32.2916  -21.0264   26.9800 C   0  0  0  0  0  0  0  0  0  0  0  0
  -29.1408  -25.2560   23.0319 C   0  0  0  0  0  0  0  0  0  0  0  0
  -32.4060  -19.8587   26.2122 C   0  0  0  0  0  0  0  0  0  0  0  0
  -32.9040  -13.4407   26.2581 C   0  0  0  0  0  0  0  0  0  0  0  0
  -32.0027  -14.2326   24.1611 C   0  0  0  0  0  0  0  0  0  0  0  0
  -31.5438  -11.9782   24.8986 C   0  0  0  0  0  0  0  0  0  0  0  0
  -31.3963  -12.9937   23.9538 C   0  0  0  0  0  0  0  0  0  0  0  0
  -22.3534   -8.0727   21.2432 C   0  0  0  0  0  0  0  0  0  0  0  0
  -31.7200  -18.5410   28.1365 C   0  0  0  0  0  0  0  0  0  0  0  0
  -21.7588   -6.2527   22.6057 C   0  0  0  0  0  0  0  0  0  0  0  0
  -22.0171   -4.8868   25.0244 C   0  0  0  0  0  0  0  0  0  0  0  0
  -20.6408   -6.0490   23.4144 C   0  0  0  0  0  0  0  0  0  0  0  0
  -24.5958  -11.6247   20.7407 C   0  0  0  0  0  0  0  0  0  0  0  0
  -25.2259  -13.7240   20.5649 C   0  0  0  0  0  0  0  0  0  0  0  0
  -33.6991  -14.0657   29.8908 C   0  0  0  0  0  0  0  0  0  0  0  0
  -33.8359  -13.0362   30.7401 C   0  0  0  0  0  0  0  0  0  0  0  0
  -22.7824  -13.4297   21.0025 C   0  0  0  0  0  0  0  0  0  0  0  0
  -31.0779  -22.4192   24.3934 C   0  0  0  0  0  0  0  0  0  0  0  0
  -33.8482  -21.4210   23.0329 C   0  0  0  0  0  0  0  0  0  0  0  0
  -35.9029  -18.4564   23.1136 C   0  0  0  0  0  0  0  0  0  0  0  0
  -31.0670  -12.8391   21.4610 C   0  0  0  0  0  0  0  0  0  0  0  0
  -29.3578  -25.2282   20.4935 C   0  0  0  0  0  0  0  0  0  0  0  0
  -32.6251  -22.3662   26.3831 C   0  0  0  0  0  0  0  0  0  0  0  0
  -32.8298  -19.8979   24.7674 C   0  0  0  0  0  0  0  0  0  0  0  0
  -34.3382  -15.4084   30.1198 C   0  0  0  0  0  0  0  0  0  0  0  0
  -29.9833  -23.8446   20.6501 C   0  0  0  0  0  0  0  0  0  0  0  0
  -33.3027  -16.5183   29.9857 C   0  0  0  0  0  0  0  0  0  0  0  0
  -29.4833  -13.6375   18.3737 C   0  0  0  0  0  0  0  0  0  0  0  0
  -29.2831  -23.0644   21.7581 C   0  0  0  0  0  0  0  0  0  0  0  0
  -28.0056  -13.3381   18.6362 C   0  0  0  0  0  0  0  0  0  0  0  0
  -30.3984  -12.6362   19.0763 C   0  0  0  0  0  0  0  0  0  0  0  0
  -28.6773  -12.1771   20.7781 C   0  0  0  0  0  0  0  0  0  0  0  0
  -31.8493  -14.9778   28.6149 C   0  0  0  0  0  0  0  0  0  0  0  0
  -29.4311  -23.7728   23.1100 C   0  0  1  0  0  0  0  0  0  0  0  0
  -32.5050  -22.3895   24.8625 C   0  0  1  0  0  0  0  0  0  0  0  0
  -27.7182  -13.1977   20.1439 C   0  0  2  0  0  0  0  0  0  0  0  0
  -32.4838  -16.3634   28.7042 C   0  0  1  0  0  0  0  0  0  1  0  0
  -31.8625  -15.3402   23.1673 C   0  0  0  0  0  0  0  0  0  0  0  0
  -30.9066  -10.6402   24.7043 C   0  0  0  0  0  0  0  0  0  0  0  0
  -38.3652  -18.1668   22.7255 C   0  0  0  0  0  0  0  0  0  0  0  0
  -33.0288  -20.8069   20.1586 C   0  0  0  0  0  0  0  0  0  0  0  0
  -34.8105  -19.0490   20.1000 C   0  0  0  0  0  0  0  0  0  0  0  0
  -35.4311  -21.4402   20.4459 C   0  0  0  0  0  0  0  0  0  0  0  0
  -36.2785  -17.1348   25.7349 C   0  0  0  0  0  0  0  0  0  0  0  0
  -33.7146  -13.6812   27.4975 C   0  0  0  0  0  0  0  0  0  0  0  0
  -34.2973  -20.1709   22.3156 C   0  0  1  0  0  0  0  0  0  0  0  0
  -37.2660  -18.3128   23.7662 C   0  0  2  0  0  0  0  0  0  0  0  0
  -34.3715  -20.3660   20.7749 C   0  0  0  0  0  0  0  0  0  0  0  0
  -25.9103  -11.5615   20.5121 N   0  0  0  0  0  0  0  0  0  0  0  0
  -26.2645  -12.8538   20.4096 N   0  0  0  0  0  0  0  0  0  0  0  0
  -33.1391  -21.2323   24.2276 N   0  0  0  0  0  0  0  0  0  0  0  0
  -30.0709  -12.5595   20.5017 N   0  0  0  0  0  0  0  0  0  0  0  0
  -25.4060  -15.0599   20.4919 N   0  0  0  0  0  0  0  0  0  0  0  0
  -21.7590  -12.4952   21.2111 N   0  0  0  0  0  0  0  0  0  0  0  0
  -30.6306  -12.7663   22.7834 N   0  0  0  0  0  0  0  0  0  0  0  0
  -30.7503  -23.5431   23.6592 N   0  0  0  0  0  0  0  0  0  0  0  0
  -35.5614  -19.7796   22.9299 N   0  0  0  0  0  0  0  0  0  0  0  0
  -32.8694  -13.8712   28.7266 N   0  3  1  0  0  0  0  0  0  0  0  0
  -37.2933  -17.1133   24.6502 N   0  3  0  0  0  0  0  0  0  0  0  0
  -22.5048  -14.6530   20.9962 O   0  0  0  0  0  0  0  0  0  0  0  0
  -30.3297  -21.4906   24.6753 O   0  0  0  0  0  0  0  0  0  0  0  0
  -34.1229  -22.5244   22.5547 O   0  0  0  0  0  0  0  0  0  0  0  0
  -35.2120  -17.4911   22.7949 O   0  0  0  0  0  0  0  0  0  0  0  0
  -32.2152  -13.1489   21.1329 O   0  0  0  0  0  0  0  0  0  0  0  0
  -21.6321   -6.9297   21.4043 O   0  0  0  0  0  0  0  0  0  0  0  0
  -31.4386  -17.3319   28.6940 O   0  0  0  0  0  0  0  0  0  1  0  0
  -22.1410   -4.2297   26.1850 F   0  0  0  0  0  0  0  0  0  0  0  0
  -19.4398   -6.5061   23.0344 F   0  0  0  0  0  0  0  0  0  0  0  0
  1  2  1  0  0  0  0
  1  5  2  0  0  0  0
  2  6  2  0  0  0  0
  3  8  2  0  0  0  0
  3 17  1  0  0  0  0
  4  9  1  0  0  0  0
  4 17  2  0  0  0  0
  5 19  1  0  0  0  0
  6 21  1  0  0  0  0
  7 10  2  0  0  0  0
  7 20  1  0  0  0  0
  8 27  1  0  0  0  0
  9 27  2  0  0  0  0
 10 28  1  0  0  0  0
 11 12  2  0  0  0  0
 11 29  1  0  0  0  0
 12 30  1  0  0  0  0
 13 22  1  0  0  0  0
 13 28  2  0  0  0  0
 14 23  1  0  0  0  0
 14 24  2  0  0  0  0
 15 23  2  0  0  0  0
 15 25  1  0  0  0  0
 16 30  2  0  0  0  0
 16 31  1  0  0  0  0
 17 32  1  0  0  0  0
 18 32  1  0  0  0  0
 18 33  2  0  0  0  0
 18 36  1  0  0  0  0
 19 21  2  0  0  0  0
 19 41  1  0  0  0  0
 20 22  2  0  0  0  0
 20 42  1  0  0  0  0
 21 53  1  0  0  0  0
 22 43  1  0  0  0  0
 23 64  1  0  0  0  0
 24 26  1  0  0  0  0
 24 57  1  0  0  0  0
 25 26  2  0  0  0  0
 25 58  1  0  0  0  0
 26 74  1  0  0  0  0
 27 84  1  0  0  0  0
 28 85  1  0  0  0  0
 29 31  2  0  0  0  0
 29 84  1  0  0  0  0
 30 86  1  0  0  0  0
 31 87  1  0  0  0  0
 32 68  2  0  0  0  0
 33 69  1  0  0  0  0
 33 72  1  0  0  0  0
 34 35  2  0  0  0  0
 34 44  1  0  0  0  0
 34 77  1  0  0  0  0
 36 73  1  0  0  0  0
 36 79  2  0  0  0  0
 37 54  1  0  0  0  0
 37 75  1  0  0  0  0
 37 80  2  0  0  0  0
 38 65  1  0  0  0  0
 38 70  1  0  0  0  0
 38 81  2  0  0  0  0
 39 66  1  0  0  0  0
 39 76  1  0  0  0  0
 39 82  2  0  0  0  0
 40 71  1  0  0  0  0
 40 74  1  0  0  0  0
 40 83  2  0  0  0  0
 41 45  1  0  0  0  0
 42 54  1  0  0  0  0
 43 70  1  0  0  0  0
 44 46  1  0  0  0  0
 45 48  1  0  0  0  0
 46 56  1  0  0  0  0
 47 49  1  0  0  0  0
 47 50  1  0  0  0  0
 48 53  1  0  0  0  0
 49 55  1  0  0  0  0
 50 71  1  0  0  0  0
 51 55  1  0  0  0  0
 51 71  1  0  0  0  0
 52 56  1  0  0  0  0
 52 77  1  0  0  0  0
 53 75  1  0  0  0  0
 54 70  1  0  0  0  0
 55 69  1  0  0  0  0
 56 85  1  0  0  0  0
 59 66  1  0  0  0  0
 60 67  1  0  0  0  0
 61 67  1  0  0  0  0
 62 67  1  0  0  0  0
 63 78  1  0  0  0  0
 64 77  1  0  0  0  0
 65 67  1  0  0  0  0
 65 76  1  0  0  0  0
 66 78  1  0  0  0  0
 68 69  1  0  0  0  0
M  CHG  2  77   1  78   1
M  ISO  4  40 100  56 101  74 100  85 101
M  END
> <Batch ID>
0031

> <Smiles>
C=C1CC[101CH:1]([101O:1]c2ccc3c(c2)CN(C(=O)C(NC(=O)C(C)NC)C(C)(C)C)C(C(=O)NC2CCCc4ccccc42)C3)CN1Cc1cc(C)c([100NH:0][100C:0](=O)N2CCCC(n3nc(-c4ccc(Oc5ccc(F)cc5F)cc4)c(C(N)=O)c3N)C2)c(C)c1

> <Shape>
0.160

> <Color>
0.188

> <Negative vol penalty>
0.000

$$$$

  -OEChem-04042321393D

 86 95  0     1  0  0  0  0  0999 V2000
  -28.1356  -33.7232   24.7277 C   0  0  0  0  0  0  0  0  0  0  0  0
  -28.2322  -32.4090   24.2817 C   0  0  0  0  0  0  0  0  0  0  0  0
  -24.2322   -9.7644   22.0278 C   0  0  0  0  0  0  0  0  0  0  0  0
  -22.9481  -10.3151   20.0568 C   0  0  0  0  0  0  0  0  0  0  0  0
  -26.9009  -34.2341   25.1257 C   0  0  0  0  0  0  0  0  0  0  0  0
  -27.0942  -31.6046   24.2344 C   0  0  0  0  0  0  0  0  0  0  0  0
  -26.7571  -28.9675   19.9242 C   0  0  0  0  0  0  0  0  0  0  0  0
  -27.7254  -20.9706   16.2448 C   0  0  0  0  0  0  0  0  0  0  0  0
  -23.4423   -8.6320   22.2260 C   0  0  0  0  0  0  0  0  0  0  0  0
  -22.1581   -9.1827   20.2550 C   0  0  0  0  0  0  0  0  0  0  0  0
  -27.5565  -27.8311   19.8089 C   0  0  0  0  0  0  0  0  0  0  0  0
  -23.2058   -5.5066   20.9577 C   0  0  0  0  0  0  0  0  0  0  0  0
  -23.8532   -4.3114   21.2706 C   0  0  0  0  0  0  0  0  0  0  0  0
  -26.6455  -20.2096   15.7975 C   0  0  0  0  0  0  0  0  0  0  0  0
  -25.6612  -26.4484   20.3703 C   0  0  0  0  0  0  0  0  0  0  0  0
  -22.6425   -4.2024   23.3585 C   0  0  0  0  0  0  0  0  0  0  0  0
  -23.9850  -10.6060   20.9432 C   0  0  0  0  0  0  0  0  0  0  0  0
  -25.9885  -11.8638   19.9882 C   0  0  0  0  0  0  0  0  0  0  0  0
  -25.7455  -33.4385   25.0741 C   0  0  0  0  0  0  0  0  0  0  0  0
  -25.4041  -28.8535   20.2747 C   0  0  0  0  0  0  0  0  0  0  0  0
  -25.8431  -32.1049   24.6333 C   0  0  0  0  0  0  0  0  0  0  0  0
  -24.8462  -27.5847   20.4869 C   0  0  0  0  0  0  0  0  0  0  0  0
  -28.1687  -20.8460   17.5615 C   0  0  0  0  0  0  0  0  0  0  0  0
  -27.5319  -19.9604   18.4309 C   0  0  0  0  0  0  0  0  0  0  0  0
  -26.4519  -19.1994   17.9836 C   0  0  0  0  0  0  0  0  0  0  0  0
  -22.4053   -8.3411   21.3397 C   0  0  0  0  0  0  0  0  0  0  0  0
  -27.0092  -26.5715   20.0348 C   0  0  0  0  0  0  0  0  0  0  0  0
  -22.2768   -6.0498   21.8452 C   0  0  0  0  0  0  0  0  0  0  0  0
  -23.5715   -3.6592   22.4710 C   0  0  0  0  0  0  0  0  0  0  0  0
  -21.9951   -5.3976   23.0456 C   0  0  0  0  0  0  0  0  0  0  0  0
  -26.0087  -19.3240   16.6669 C   0  0  0  0  0  0  0  0  0  0  0  0
  -24.8003  -11.7762   20.7381 C   0  0  0  0  0  0  0  0  0  0  0  0
  -26.3719  -13.1775   20.1045 C   0  0  0  0  0  0  0  0  0  0  0  0
  -30.0467  -23.6372   19.2878 C   0  0  0  0  0  0  0  0  0  0  0  0
  -30.9784  -23.1595   20.1213 C   0  0  0  0  0  0  0  0  0  0  0  0
  -26.6835  -10.8483   19.2523 C   0  0  0  0  0  0  0  0  0  0  0  0
  -23.6228  -29.8690   22.7036 C   0  0  0  0  0  0  0  0  0  0  0  0
  -21.1985  -28.6466   20.9286 C   0  0  0  0  0  0  0  0  0  0  0  0
  -20.1963  -26.4553   18.5118 C   0  0  0  0  0  0  0  0  0  0  0  0
  -25.1861  -18.6178   20.0826 C   0  0  0  0  0  0  0  0  0  0  0  0
  -24.4413  -34.0201   25.5594 C   0  0  0  0  0  0  0  0  0  0  0  0
  -24.5488  -30.0872   20.3689 C   0  0  0  0  0  0  0  0  0  0  0  0
  -23.3942  -27.4068   20.8457 C   0  0  0  0  0  0  0  0  0  0  0  0
  -29.9233  -25.0628   18.8485 C   0  0  0  0  0  0  0  0  0  0  0  0
  -23.2174  -33.2180   25.1246 C   0  0  0  0  0  0  0  0  0  0  0  0
  -24.6548  -16.8546   23.1299 C   0  0  0  0  0  0  0  0  0  0  0  0
  -23.4417  -31.7287   25.3664 C   0  0  0  0  0  0  0  0  0  0  0  0
  -24.7431  -15.3834   22.7176 C   0  0  0  0  0  0  0  0  0  0  0  0
  -23.9809  -17.7054   22.0549 C   0  0  0  0  0  0  0  0  0  0  0  0
  -24.6497  -16.1117   20.2994 C   0  0  0  0  0  0  0  0  0  0  0  0
  -27.9805  -23.7971   18.1967 C   0  0  0  0  0  0  0  0  0  0  0  0
  -24.6270  -31.2087   24.5441 C   0  0  1  0  0  0  0  0  0  0  0  0
  -23.3082  -29.8895   21.2345 C   0  0  1  0  0  0  0  0  0  0  0  0
  -25.3795  -15.2262   21.3227 C   0  0  2  0  0  0  0  0  0  0  0  0
  -28.4161  -25.1736   18.6788 C   0  0  1  0  0  0  0  0  0  1  0  0
  -28.0150  -19.8333   19.8420 C   0  0  0  0  0  0  0  0  0  0  0  0
  -18.1468  -25.6579   17.3030 C   0  0  0  0  0  0  0  0  0  0  0  0
  -20.3807  -27.0321   23.3851 C   0  0  0  0  0  0  0  0  0  0  0  0
  -18.9823  -25.5932   21.8877 C   0  0  0  0  0  0  0  0  0  0  0  0
  -18.4740  -28.0255   22.1075 C   0  0  0  0  0  0  0  0  0  0  0  0
  -21.2593  -27.3307   15.8921 C   0  0  0  0  0  0  0  0  0  0  0  0
  -29.3326  -21.6766   18.0159 C   0  0  0  0  0  0  0  0  0  0  0  0
  -20.5259  -27.2993   20.8212 C   0  0  1  0  0  0  0  0  0  0  0  0
  -19.3107  -26.6366   17.2922 C   0  0  2  0  0  0  0  0  0  0  0  0
  -19.6186  -26.9907   22.0455 C   0  0  0  0  0  0  0  0  0  0  0  0
  -24.4519  -12.9415   21.2901 N   0  0  0  0  0  0  0  0  0  0  0  0
  -25.4270  -13.7737   20.8868 N   0  0  0  0  0  0  0  0  0  0  0  0
  -22.6005  -28.6438   20.9319 N   0  0  0  0  0  0  0  0  0  0  0  0
  -24.6395  -17.5084   20.7617 N   0  0  0  0  0  0  0  0  0  0  0  0
  -27.4217  -13.8694   19.6129 N   0  0  0  0  0  0  0  0  0  0  0  0
  -26.1516   -9.5517   19.2375 N   0  0  0  0  0  0  0  0  0  0  0  0
  -25.8158  -18.3038   18.8787 N   0  0  0  0  0  0  0  0  0  0  0  0
  -24.2389  -31.0173   23.1631 N   0  0  0  0  0  0  0  0  0  0  0  0
  -19.8251  -27.2937   19.5417 N   0  0  0  0  0  0  0  0  0  0  0  0
  -28.9289  -22.8240   18.8923 N   0  3  1  0  0  0  0  0  0  0  0  0
  -20.0963  -26.4189   16.0447 N   0  3  0  0  0  0  0  0  0  0  0  0
  -27.7534  -11.0801   18.6400 O   0  0  0  0  0  0  0  0  0  0  0  0
  -23.3271  -28.8848   23.3711 O   0  0  0  0  0  0  0  0  0  0  0  0
  -20.5054  -29.6645   20.9994 O   0  0  0  0  0  0  0  0  0  0  0  0
  -21.1221  -25.6479   18.5486 O   0  0  0  0  0  0  0  0  0  0  0  0
  -25.1256  -19.7584   20.5489 O   0  0  0  0  0  0  0  0  0  0  0  0
  -21.6344   -7.2361   21.5327 O   0  0  0  0  0  0  0  0  0  0  0  0
  -27.7874  -25.4606   19.9235 O   0  0  0  0  0  0  0  0  0  1  0  0
  -24.1921   -2.5106   22.7707 F   0  0  0  0  0  0  0  0  0  0  0  0
  -21.1028   -5.9140   23.9016 F   0  0  0  0  0  0  0  0  0  0  0  0
  -24.5434  -18.3160   16.0011 Br  0  0  0  0  0  0  0  0  0  0  0  0
  1  2  1  0  0  0  0
  1  5  2  0  0  0  0
  2  6  2  0  0  0  0
  3  9  2  0  0  0  0
  3 17  1  0  0  0  0
  4 10  1  0  0  0  0
  4 17  2  0  0  0  0
  5 19  1  0  0  0  0
  6 21  1  0  0  0  0
  7 11  2  0  0  0  0
  7 20  1  0  0  0  0
  8 14  2  0  0  0  0
  8 23  1  0  0  0  0
  9 26  1  0  0  0  0
 10 26  2  0  0  0  0
 11 27  1  0  0  0  0
 12 13  2  0  0  0  0
 12 28  1  0  0  0  0
 13 29  1  0  0  0  0
 14 31  1  0  0  0  0
 15 22  1  0  0  0  0
 15 27  2  0  0  0  0
 16 29  2  0  0  0  0
 16 30  1  0  0  0  0
 17 32  1  0  0  0  0
 18 32  1  0  0  0  0
 18 33  2  0  0  0  0
 18 36  1  0  0  0  0
 19 21  2  0  0  0  0
 19 41  1  0  0  0  0
 20 22  2  0  0  0  0
 20 42  1  0  0  0  0
 21 52  1  0  0  0  0
 22 43  1  0  0  0  0
 23 24  2  0  0  0  0
 23 62  1  0  0  0  0
 24 25  1  0  0  0  0
 24 56  1  0  0  0  0
 25 31  2  0  0  0  0
 25 72  1  0  0  0  0
 26 82  1  0  0  0  0
 27 83  1  0  0  0  0
 28 30  2  0  0  0  0
 28 82  1  0  0  0  0
 29 84  1  0  0  0  0
 30 85  1  0  0  0  0
 31 86  1  0  0  0  0
 32 66  2  0  0  0  0
 33 67  1  0  0  0  0
 33 70  1  0  0  0  0
 34 35  2  0  0  0  0
 34 44  1  0  0  0  0
 34 75  1  0  0  0  0
 36 71  1  0  0  0  0
 36 77  2  0  0  0  0
 37 53  1  0  0  0  0
 37 73  1  0  0  0  0
 37 78  2  0  0  0  0
 38 63  1  0  0  0  0
 38 68  1  0  0  0  0
 38 79  2  0  0  0  0
 39 64  1  0  0  0  0
 39 74  1  0  0  0  0
 39 80  2  0  0  0  0
 40 69  1  0  0  0  0
 40 72  1  0  0  0  0
 40 81  2  0  0  0  0
 41 45  1  0  0  0  0
 42 53  1  0  0  0  0
 43 68  1  0  0  0  0
 44 55  1  0  0  0  0
 45 47  1  0  0  0  0
 46 48  1  0  0  0  0
 46 49  1  0  0  0  0
 47 52  1  0  0  0  0
 48 54  1  0  0  0  0
 49 69  1  0  0  0  0
 50 54  1  0  0  0  0
 50 69  1  0  0  0  0
 51 55  1  0  0  0  0
 51 75  1  0  0  0  0
 52 73  1  0  0  0  0
 53 68  1  0  0  0  0
 54 67  1  0  0  0  0
 55 83  1  0  0  0  0
 57 64  1  0  0  0  0
 58 65  1  0  0  0  0
 59 65  1  0  0  0  0
 60 65  1  0  0  0  0
 61 76  1  0  0  0  0
 62 75  1  0  0  0  0
 63 65  1  0  0  0  0
 63 74  1  0  0  0  0
 64 76  1  0  0  0  0
 66 67  1  0  0  0  0
M  CHG  2  75   1  76   1
M  ISO  4  40 100  55 101  72 100  83 101
M  END
> <Batch ID>
0031

> <Smiles>
C=C1C[101CH:1]([101O:1]c2ccc3c(c2)CN(C(=O)C(NC(=O)C(C)NC)C(C)(C)C)C(C(=O)NC2CCCc4ccccc42)C3)CN1Cc1ccc(Br)c([100NH:0][100C:0](=O)N2CCCC(n3nc(-c4ccc(Oc5ccc(F)cc5F)cc4)c(C(N)=O)c3N)C2)c1C

> <Shape>
0.317

> <Color>
0.090

> <Negative vol penalty>
0.000

$$$$

  -OEChem-04042321393D

 87 96  0     1  0  0  0  0  0999 V2000
  -28.1692  -22.1114   15.2679 C   0  0  0  0  0  0  0  0  0  0  0  0
  -27.8147  -21.9888   16.6076 C   0  0  0  0  0  0  0  0  0  0  0  0
  -22.7076  -10.1510   20.2091 C   0  0  0  0  0  0  0  0  0  0  0  0
  -24.3123   -9.5323   21.9059 C   0  0  0  0  0  0  0  0  0  0  0  0
  -28.7335  -23.2987   14.8032 C   0  0  0  0  0  0  0  0  0  0  0  0
  -28.0253  -23.0530   17.4836 C   0  0  0  0  0  0  0  0  0  0  0  0
  -24.0511  -23.8963   20.5068 C   0  0  0  0  0  0  0  0  0  0  0  0
  -21.9879   -8.9837   20.4641 C   0  0  0  0  0  0  0  0  0  0  0  0
  -23.5926   -8.3651   22.1610 C   0  0  0  0  0  0  0  0  0  0  0  0
  -23.8870  -23.0417   21.5960 C   0  0  0  0  0  0  0  0  0  0  0  0
  -20.7995   -7.4808   23.8454 C   0  0  0  0  0  0  0  0  0  0  0  0
  -20.5728   -7.1393   25.1787 C   0  0  0  0  0  0  0  0  0  0  0  0
  -24.8697  -24.7045   23.0412 C   0  0  0  0  0  0  0  0  0  0  0  0
  -29.2014  -19.0057   22.1098 C   0  0  0  0  0  0  0  0  0  0  0  0
  -28.7051  -18.4232   24.7926 C   0  0  0  0  0  0  0  0  0  0  0  0
  -21.7538   -5.0580   24.8463 C   0  0  0  0  0  0  0  0  0  0  0  0
  -23.8699  -10.4253   20.9299 C   0  0  0  0  0  0  0  0  0  0  0  0
  -24.1551  -12.9562   20.7853 C   0  0  0  0  0  0  0  0  0  0  0  0
  -28.9422  -24.3815   15.6720 C   0  0  0  0  0  0  0  0  0  0  0  0
  -24.6367  -25.1593   20.6750 C   0  0  0  0  0  0  0  0  0  0  0  0
  -28.5941  -24.2554   17.0304 C   0  0  0  0  0  0  0  0  0  0  0  0
  -25.0378  -25.5743   21.9529 C   0  0  0  0  0  0  0  0  0  0  0  0
  -28.3571  -19.8268   22.8571 C   0  0  0  0  0  0  0  0  0  0  0  0
  -29.7976  -17.8933   22.7038 C   0  0  0  0  0  0  0  0  0  0  0  0
  -28.1090  -19.5356   24.1985 C   0  0  0  0  0  0  0  0  0  0  0  0
  -22.4304   -8.0907   21.4401 C   0  0  0  0  0  0  0  0  0  0  0  0
  -24.2989  -23.4445   22.8629 C   0  0  0  0  0  0  0  0  0  0  0  0
  -21.5033   -6.6109   23.0126 C   0  0  0  0  0  0  0  0  0  0  0  0
  -21.0499   -5.9279   25.6791 C   0  0  0  0  0  0  0  0  0  0  0  0
  -21.9804   -5.3995   23.5130 C   0  0  0  0  0  0  0  0  0  0  0  0
  -29.5495  -17.6021   24.0452 C   0  0  0  0  0  0  0  0  0  0  0  0
  -24.6141  -11.6306   20.6666 C   0  0  0  0  0  0  0  0  0  0  0  0
  -25.2334  -13.7265   20.4245 C   0  0  0  0  0  0  0  0  0  0  0  0
  -27.5570  -21.0651   26.1237 C   0  0  0  0  0  0  0  0  0  0  0  0
  -28.7298  -21.5123   26.5945 C   0  0  0  0  0  0  0  0  0  0  0  0
  -22.8690  -13.4472   21.1861 C   0  0  0  0  0  0  0  0  0  0  0  0
  -27.2512  -26.5856   19.5641 C   0  0  0  0  0  0  0  0  0  0  0  0
  -26.0180  -29.1691   21.0896 C   0  0  0  0  0  0  0  0  0  0  0  0
  -25.2592  -32.0503   22.7539 C   0  0  0  0  0  0  0  0  0  0  0  0
  -30.6903  -14.8732   20.6550 C   0  0  0  0  0  0  0  0  0  0  0  0
  -29.5988  -25.6280   15.1336 C   0  0  0  0  0  0  0  0  0  0  0  0
  -24.7822  -26.0801   19.4946 C   0  0  0  0  0  0  0  0  0  0  0  0
  -25.6534  -26.9283   22.1902 C   0  0  0  0  0  0  0  0  0  0  0  0
  -26.2576  -21.4083   26.8156 C   0  0  0  0  0  0  0  0  0  0  0  0
  -29.4434  -26.8412   16.0469 C   0  0  0  0  0  0  0  0  0  0  0  0
  -29.6314  -12.4375   18.2837 C   0  0  0  0  0  0  0  0  0  0  0  0
  -29.7558  -26.4652   17.4919 C   0  0  0  0  0  0  0  0  0  0  0  0
  -28.1968  -12.1155   18.7059 C   0  0  0  0  0  0  0  0  0  0  0  0
  -30.5312  -12.6923   19.4910 C   0  0  0  0  0  0  0  0  0  0  0  0
  -25.8127  -20.3072   24.7052 C   0  0  0  0  0  0  0  0  0  0  0  0
  -28.5995  -13.3945   20.8508 C   0  0  0  0  0  0  0  0  0  0  0  0
  -28.7840  -25.3963   18.0063 C   0  0  1  0  0  0  0  0  0  0  0  0
  -25.8608  -27.1405   19.6933 C   0  0  1  0  0  0  0  0  0  0  0  0
  -25.2391  -21.3629   25.6691 C   0  0  2  0  0  0  0  0  0  0  0  0
  -27.6414  -13.1848   19.6658 C   0  0  2  0  0  0  0  0  0  0  0  0
  -27.7303  -21.0110   22.1956 C   0  0  0  0  0  0  0  0  0  0  0  0
  -26.3160  -34.1372   23.6622 C   0  0  0  0  0  0  0  0  0  0  0  0
  -27.1586  -27.5718   23.4258 C   0  0  0  0  0  0  0  0  0  0  0  0
  -27.3362  -29.7124   24.7120 C   0  0  0  0  0  0  0  0  0  0  0  0
  -28.6348  -29.4152   22.6029 C   0  0  0  0  0  0  0  0  0  0  0  0
  -23.6083  -33.7830   21.0129 C   0  0  0  0  0  0  0  0  0  0  0  0
  -30.6946  -17.0380   21.8686 C   0  0  0  0  0  0  0  0  0  0  0  0
  -25.0902  -22.7243   24.9869 C   0  0  0  0  0  0  0  0  0  1  0  0
  -26.1309  -29.7437   22.4810 C   0  0  1  0  0  0  0  0  0  0  0  0
  -25.6147  -33.4991   22.4732 C   0  0  2  0  0  0  0  0  0  0  0  0
  -27.2901  -29.1023   23.2948 C   0  0  0  0  0  0  0  0  0  0  0  0
  -25.8849  -11.5593   20.2617 N   0  0  0  0  0  0  0  0  0  0  0  0
  -26.2337  -12.8498   20.1229 N   0  0  0  0  0  0  0  0  0  0  0  0
  -27.2583  -20.3537   24.9676 N   0  0  0  0  0  0  0  0  0  0  0  0
  -25.7803  -27.7900   21.0032 N   0  0  0  0  0  0  0  0  0  0  0  0
  -29.9484  -13.7174   20.3601 N   0  0  0  0  0  0  0  0  0  0  0  0
  -25.4141  -15.0616   20.3388 N   0  0  0  0  0  0  0  0  0  0  0  0
  -21.8748  -12.5187   21.5236 N   0  0  0  0  0  0  0  0  0  0  0  0
  -27.5090  -25.9925   18.3429 N   0  0  0  0  0  0  0  0  0  0  0  0
  -26.2438  -31.1891   22.3178 N   0  0  0  0  0  0  0  0  0  0  0  0
  -30.0617  -15.7971   21.4808 N   0  0  0  0  0  0  0  0  0  0  0  0
  -24.3846  -34.2860   22.1754 N   0  3  0  0  0  0  0  0  0  0  0  0
  -22.6042  -14.6726   21.2276 O   0  0  0  0  0  0  0  0  0  0  0  0
  -28.0326  -26.6892   20.5023 O   0  0  0  0  0  0  0  0  0  0  0  0
  -26.1292  -29.9175   20.1154 O   0  0  0  0  0  0  0  0  0  0  0  0
  -24.2144  -31.7161   23.3082 O   0  0  0  0  0  0  0  0  0  0  0  0
  -31.8264  -15.0697   20.2105 O   0  0  0  0  0  0  0  0  0  0  0  0
  -21.7282   -6.9517   21.6894 O   0  0  0  0  0  0  0  0  0  0  0  0
  -24.1405  -22.6120   23.9277 O   0  0  0  0  0  0  0  0  0  1  0  0
  -20.8335   -5.6008   26.9599 F   0  0  0  0  0  0  0  0  0  0  0  0
  -22.6582   -4.5602   22.7181 F   0  0  0  0  0  0  0  0  0  0  0  0
  -30.2708  -16.2353   24.8139 Cl  0  0  0  0  0  0  0  0  0  0  0  0
  1  2  1  0  0  0  0
  1  5  2  0  0  0  0
  2  6  2  0  0  0  0
  3  8  2  0  0  0  0
  3 17  1  0  0  0  0
  4  9  1  0  0  0  0
  4 17  2  0  0  0  0
  5 19  1  0  0  0  0
  6 21  1  0  0  0  0
  7 10  2  0  0  0  0
  7 20  1  0  0  0  0
  8 26  1  0  0  0  0
  9 26  2  0  0  0  0
 10 27  1  0  0  0  0
 11 12  2  0  0  0  0
 11 28  1  0  0  0  0
 12 29  1  0  0  0  0
 13 22  1  0  0  0  0
 13 27  2  0  0  0  0
 14 23  1  0  0  0  0
 14 24  2  0  0  0  0
 15 25  1  0  0  0  0
 15 31  2  0  0  0  0
 16 29  2  0  0  0  0
 16 30  1  0  0  0  0
 17 32  1  0  0  0  0
 18 32  1  0  0  0  0
 18 33  2  0  0  0  0
 18 36  1  0  0  0  0
 19 21  2  0  0  0  0
 19 41  1  0  0  0  0
 20 22  2  0  0  0  0
 20 42  1  0  0  0  0
 21 52  1  0  0  0  0
 22 43  1  0  0  0  0
 23 25  2  0  0  0  0
 23 56  1  0  0  0  0
 24 31  1  0  0  0  0
 24 62  1  0  0  0  0
 25 69  1  0  0  0  0
 26 83  1  0  0  0  0
 27 84  1  0  0  0  0
 28 30  2  0  0  0  0
 28 83  1  0  0  0  0
 29 85  1  0  0  0  0
 30 86  1  0  0  0  0
 31 87  1  0  0  0  0
 32 67  2  0  0  0  0
 33 68  1  0  0  0  0
 33 72  1  0  0  0  0
 34 35  2  0  0  0  0
 34 44  1  0  0  0  0
 34 69  1  0  0  0  0
 36 73  1  0  0  0  0
 36 78  2  0  0  0  0
 37 53  1  0  0  0  0
 37 74  1  0  0  0  0
 37 79  2  0  0  0  0
 38 64  1  0  0  0  0
 38 70  1  0  0  0  0
 38 80  2  0  0  0  0
 39 65  1  0  0  0  0
 39 75  1  0  0  0  0
 39 81  2  0  0  0  0
 40 71  1  0  0  0  0
 40 76  1  0  0  0  0
 40 82  2  0  0  0  0
 41 45  1  0  0  0  0
 42 53  1  0  0  0  0
 43 70  1  0  0  0  0
 44 54  1  0  0  0  0
 45 47  1  0  0  0  0
 46 48  1  0  0  0  0
 46 49  1  0  0  0  0
 47 52  1  0  0  0  0
 48 55  1  0  0  0  0
 49 71  1  0  0  0  0
 50 54  1  0  0  0  0
 50 69  1  0  0  0  0
 51 55  1  0  0  0  0
 51 71  1  0  0  0  0
 52 74  1  0  0  0  0
 53 70  1  0  0  0  0
 54 63  1  0  0  0  0
 55 68  1  0  0  0  0
 57 65  1  0  0  0  0
 58 66  1  0  0  0  0
 59 66  1  0  0  0  0
 60 66  1  0  0  0  0
 61 77  1  0  0  0  0
 62 76  1  0  0  0  0
 63 84  1  0  0  0  0
 64 66  1  0  0  0  0
 64 75  1  0  0  0  0
 65 77  1  0  0  0  0
 67 68  1  0  0  0  0
M  CHG  1  77   1
M  ISO  4  40 100  63 101  76 100  84 101
M  END
> <Batch ID>
0031

> <Smiles>
C=C1CC([101CH2:1][101O:1]c2ccc3c(c2)CN(C(=O)C(NC(=O)C(C)NC)C(C)(C)C)C(C(=O)NC2CCCc4ccccc42)C3)CN1c1cc(Cl)c(C[100NH:0][100C:0](=O)N2CCCC(n3nc(-c4ccc(Oc5ccc(F)cc5F)cc4)c(C(N)=O)c3N)C2)cc1C

> <Shape>
0.300

> <Color>
0.228

> <Negative vol penalty>
0.000

$$$$

  -OEChem-04042321393D

 85 94  0     1  0  0  0  0  0999 V2000
  -26.6440  -23.4534   18.1953 C   0  0  0  0  0  0  0  0  0  0  0  0
  -25.5199  -24.0380   18.7697 C   0  0  0  0  0  0  0  0  0  0  0  0
  -26.6815  -16.0024   21.8401 C   0  0  0  0  0  0  0  0  0  0  0  0
  -24.7048  -15.9222   20.4532 C   0  0  0  0  0  0  0  0  0  0  0  0
  -27.9122  -23.7427   18.6973 C   0  0  0  0  0  0  0  0  0  0  0  0
  -25.6631  -24.9113   19.8473 C   0  0  0  0  0  0  0  0  0  0  0  0
  -22.8174  -29.0726   19.3669 C   0  0  0  0  0  0  0  0  0  0  0  0
  -26.9981  -14.6970   21.4645 C   0  0  0  0  0  0  0  0  0  0  0  0
  -25.0214  -14.6167   20.0776 C   0  0  0  0  0  0  0  0  0  0  0  0
  -21.4587  -28.9515   19.6550 C   0  0  0  0  0  0  0  0  0  0  0  0
  -28.3813  -13.1367   18.8027 C   0  0  0  0  0  0  0  0  0  0  0  0
  -29.7038  -12.8656   18.4521 C   0  0  0  0  0  0  0  0  0  0  0  0
  -21.8412  -29.9131   21.8340 C   0  0  0  0  0  0  0  0  0  0  0  0
  -17.5166  -22.7130   24.4233 C   0  0  0  0  0  0  0  0  0  0  0  0
  -17.9993  -23.3474   21.7499 C   0  0  0  0  0  0  0  0  0  0  0  0
  -29.8440  -11.2422   20.2359 C   0  0  0  0  0  0  0  0  0  0  0  0
  -25.5349  -16.6151   21.3345 C   0  0  0  0  0  0  0  0  0  0  0  0
  -25.6066  -19.1527   21.0840 C   0  0  0  0  0  0  0  0  0  0  0  0
  -28.0718  -24.6276   19.7753 C   0  0  0  0  0  0  0  0  0  0  0  0
  -23.7015  -29.6056   20.3159 C   0  0  0  0  0  0  0  0  0  0  0  0
  -26.9345  -25.2117   20.3650 C   0  0  0  0  0  0  0  0  0  0  0  0
  -23.2103  -30.0422   21.5545 C   0  0  0  0  0  0  0  0  0  0  0  0
  -17.3112  -24.0152   23.9675 C   0  0  0  0  0  0  0  0  0  0  0  0
  -17.9633  -21.7280   23.5424 C   0  0  0  0  0  0  0  0  0  0  0  0
  -17.5525  -24.3324   22.6308 C   0  0  0  0  0  0  0  0  0  0  0  0
  -26.1680  -14.0041   20.5833 C   0  0  0  0  0  0  0  0  0  0  0  0
  -20.9709  -29.3691   20.8898 C   0  0  0  0  0  0  0  0  0  0  0  0
  -27.7901  -12.4606   19.8700 C   0  0  0  0  0  0  0  0  0  0  0  0
  -30.4352  -11.9184   19.1686 C   0  0  0  0  0  0  0  0  0  0  0  0
  -28.5214  -11.5133   20.5865 C   0  0  0  0  0  0  0  0  0  0  0  0
  -18.2047  -22.0452   22.2057 C   0  0  0  0  0  0  0  0  0  0  0  0
  -25.2071  -17.9634   21.7225 C   0  0  0  0  0  0  0  0  0  0  0  0
  -25.0384  -20.1530   21.8344 C   0  0  0  0  0  0  0  0  0  0  0  0
  -26.4186  -19.3369   19.9167 C   0  0  0  0  0  0  0  0  0  0  0  0
  -26.2362  -28.5054   21.8871 C   0  0  0  0  0  0  0  0  0  0  0  0
  -26.4364  -31.5719   22.9258 C   0  0  0  0  0  0  0  0  0  0  0  0
  -24.8538  -34.5331   23.5365 C   0  0  0  0  0  0  0  0  0  0  0  0
  -20.2504  -20.3381   25.4250 C   0  0  0  0  0  0  0  0  0  0  0  0
  -29.4591  -24.8729   20.3138 C   0  0  0  0  0  0  0  0  0  0  0  0
  -25.1600  -29.7542   19.9796 C   0  0  0  0  0  0  0  0  0  0  0  0
  -24.1146  -30.6400   22.6001 C   0  0  0  0  0  0  0  0  0  0  0  0
  -29.5536  -26.0997   21.2174 C   0  0  0  0  0  0  0  0  0  0  0  0
  -23.6096  -21.1377   26.2931 C   0  0  0  0  0  0  0  0  0  0  0  0
  -28.4097  -26.1090   22.2264 C   0  0  0  0  0  0  0  0  0  0  0  0
  -24.4359  -20.5221   25.1625 C   0  0  0  0  0  0  0  0  0  0  0  0
  -22.4038  -20.2702   26.6476 C   0  0  0  0  0  0  0  0  0  0  0  0
  -22.3586  -19.3105   24.3782 C   0  0  0  0  0  0  0  0  0  0  0  0
  -19.4786  -26.9180   22.1353 C   0  0  0  0  0  0  0  0  0  0  0  0
  -17.7922  -28.1085   22.4535 C   0  0  0  0  0  0  0  0  0  0  0  0
  -27.0510  -26.1834   21.5193 C   0  0  1  0  0  0  0  0  0  0  0  0
  -26.0525  -29.8362   21.2142 C   0  0  1  0  0  0  0  0  0  0  0  0
  -23.5543  -20.1771   23.9473 C   0  0  2  0  0  0  0  0  0  0  0  0
  -19.2879  -28.4361   22.3014 C   0  0  0  0  0  0  0  0  0  1  0  0
  -16.8348  -25.0544   24.9285 C   0  0  0  0  0  0  0  0  0  0  0  0
  -25.2715  -36.8443   24.4206 C   0  0  0  0  0  0  0  0  0  0  0  0
  -26.4770  -30.4732   25.7721 C   0  0  0  0  0  0  0  0  0  0  0  0
  -25.9383  -32.7758   26.5942 C   0  0  0  0  0  0  0  0  0  0  0  0
  -28.0656  -32.3602   25.3595 C   0  0  0  0  0  0  0  0  0  0  0  0
  -24.0820  -35.7812   20.9664 C   0  0  0  0  0  0  0  0  0  0  0  0
  -18.1711  -20.3452   24.0701 C   0  0  0  0  0  0  0  0  0  0  0  0
  -17.3413  -25.7267   22.1187 C   0  0  0  0  0  0  0  0  0  0  0  0
  -25.8756  -32.3429   24.0963 C   0  0  1  0  0  0  0  0  0  0  0  0
  -25.2204  -35.9630   23.1822 C   0  0  2  0  0  0  0  0  0  0  0  0
  -26.5722  -31.9750   25.4368 C   0  0  0  0  0  0  0  0  0  0  0  0
  -24.4442  -18.1858   22.7961 N   0  0  0  0  0  0  0  0  0  0  0  0
  -24.3599  -19.5264   22.8380 N   0  0  0  0  0  0  0  0  0  0  0  0
  -25.5337  -30.7585   22.2264 N   0  0  0  0  0  0  0  0  0  0  0  0
  -21.6086  -19.9807   25.4520 N   0  0  0  0  0  0  0  0  0  0  0  0
  -25.0581  -21.4985   21.7273 N   0  0  0  0  0  0  0  0  0  0  0  0
  -26.9215  -18.2016   19.2668 N   0  0  0  0  0  0  0  0  0  0  0  0
  -26.7870  -27.5345   21.0727 N   0  0  0  0  0  0  0  0  0  0  0  0
  -25.9733  -33.7542   23.7398 N   0  0  0  0  0  0  0  0  0  0  0  0
  -19.5714  -20.0336   24.2516 N   0  0  0  0  0  0  0  0  0  0  0  0
  -18.1802  -26.7309   22.8087 N   0  3  0  0  0  0  0  0  0  0  0  0
  -24.2191  -36.5358   22.2387 N   0  3  0  0  0  0  0  0  0  0  0  0
  -26.7036  -20.4751   19.4730 O   0  0  0  0  0  0  0  0  0  0  0  0
  -25.9041  -28.3699   23.0589 O   0  0  0  0  0  0  0  0  0  0  0  0
  -27.6299  -31.6925   22.6382 O   0  0  0  0  0  0  0  0  0  0  0  0
  -23.6906  -34.1468   23.6278 O   0  0  0  0  0  0  0  0  0  0  0  0
  -19.6862  -20.8927   26.3742 O   0  0  0  0  0  0  0  0  0  0  0  0
  -26.4767  -12.7302   20.2164 O   0  0  0  0  0  0  0  0  0  0  0  0
  -19.6452  -29.2515   21.1738 O   0  0  0  0  0  0  0  0  0  1  0  0
  -31.7048  -11.6570   18.8308 F   0  0  0  0  0  0  0  0  0  0  0  0
  -27.9585  -10.8597   21.6121 F   0  0  0  0  0  0  0  0  0  0  0  0
  -18.7582  -20.8531   21.0868 Cl  0  0  0  0  0  0  0  0  0  0  0  0
  1  2  1  0  0  0  0
  1  5  2  0  0  0  0
  2  6  2  0  0  0  0
  3  8  2  0  0  0  0
  3 17  1  0  0  0  0
  4  9  1  0  0  0  0
  4 17  2  0  0  0  0
  5 19  1  0  0  0  0
  6 21  1  0  0  0  0
  7 10  2  0  0  0  0
  7 20  1  0  0  0  0
  8 26  1  0  0  0  0
  9 26  2  0  0  0  0
 10 27  1  0  0  0  0
 11 12  2  0  0  0  0
 11 28  1  0  0  0  0
 12 29  1  0  0  0  0
 13 22  1  0  0  0  0
 13 27  2  0  0  0  0
 14 23  1  0  0  0  0
 14 24  2  0  0  0  0
 15 25  1  0  0  0  0
 15 31  2  0  0  0  0
 16 29  2  0  0  0  0
 16 30  1  0  0  0  0
 17 32  1  0  0  0  0
 18 32  1  0  0  0  0
 18 33  2  0  0  0  0
 18 34  1  0  0  0  0
 19 21  2  0  0  0  0
 19 39  1  0  0  0  0
 20 22  2  0  0  0  0
 20 40  1  0  0  0  0
 21 50  1  0  0  0  0
 22 41  1  0  0  0  0
 23 25  2  0  0  0  0
 23 54  1  0  0  0  0
 24 31  1  0  0  0  0
 24 60  1  0  0  0  0
 25 61  1  0  0  0  0
 26 81  1  0  0  0  0
 27 82  1  0  0  0  0
 28 30  2  0  0  0  0
 28 81  1  0  0  0  0
 29 83  1  0  0  0  0
 30 84  1  0  0  0  0
 31 85  1  0  0  0  0
 32 65  2  0  0  0  0
 33 66  1  0  0  0  0
 33 69  1  0  0  0  0
 34 70  1  0  0  0  0
 34 76  2  0  0  0  0
 35 51  1  0  0  0  0
 35 71  1  0  0  0  0
 35 77  2  0  0  0  0
 36 62  1  0  0  0  0
 36 67  1  0  0  0  0
 36 78  2  0  0  0  0
 37 63  1  0  0  0  0
 37 72  1  0  0  0  0
 37 79  2  0  0  0  0
 38 68  1  0  0  0  0
 38 73  1  0  0  0  0
 38 80  2  0  0  0  0
 39 42  1  0  0  0  0
 40 51  1  0  0  0  0
 41 67  1  0  0  0  0
 42 44  1  0  0  0  0
 43 45  1  0  0  0  0
 43 46  1  0  0  0  0
 44 50  1  0  0  0  0
 45 52  1  0  0  0  0
 46 68  1  0  0  0  0
 47 52  1  0  0  0  0
 47 68  1  0  0  0  0
 48 53  1  0  0  0  0
 48 74  1  0  0  0  0
 49 53  1  0  0  0  0
 49 74  1  0  0  0  0
 50 71  1  0  0  0  0
 51 67  1  0  0  0  0
 52 66  1  0  0  0  0
 53 82  1  0  0  0  0
 55 63  1  0  0  0  0
 56 64  1  0  0  0  0
 57 64  1  0  0  0  0
 58 64  1  0  0  0  0
 59 75  1  0  0  0  0
 60 73  1  0  0  0  0
 61 74  1  0  0  0  0
 62 64  1  0  0  0  0
 62 72  1  0  0  0  0
 63 75  1  0  0  0  0
 65 66  1  0  0  0  0
M  CHG  2  74   1  75   1
M  ISO  4  38 100  53 101  73 100  82 101
M  END
> <Batch ID>
0031

> <Smiles>
CNC(C)C(=O)NC(C(=O)N1Cc2cc([101O:1][101CH:1]3CN(Cc4cc(Cl)c(C[100NH:0][100C:0](=O)N5CCCC(n6nc(-c7ccc(Oc8ccc(F)cc8F)cc7)c(C(N)=O)c6N)C5)cc4C)C3)ccc2CC1C(=O)NC1CCCc2ccccc21)C(C)(C)C

> <Shape>
0.267

> <Color>
0.071

> <Negative vol penalty>
0.000

$$$$

  -OEChem-04042321393D

 85 94  0     1  0  0  0  0  0999 V2000
  -23.6926  -17.7584   36.1306 C   0  0  0  0  0  0  0  0  0  0  0  0
  -24.3475  -17.7899   34.9036 C   0  0  0  0  0  0  0  0  0  0  0  0
  -23.0753   -9.8686   19.9402 C   0  0  0  0  0  0  0  0  0  0  0  0
  -23.8349   -9.8745   22.2337 C   0  0  0  0  0  0  0  0  0  0  0  0
  -22.6599  -16.8466   36.3450 C   0  0  0  0  0  0  0  0  0  0  0  0
  -23.9708  -16.9087   33.8907 C   0  0  0  0  0  0  0  0  0  0  0  0
  -23.5904  -19.1811   29.3811 C   0  0  0  0  0  0  0  0  0  0  0  0
  -22.3310   -8.7156   20.1897 C   0  0  0  0  0  0  0  0  0  0  0  0
  -23.0905   -8.7216   22.4832 C   0  0  0  0  0  0  0  0  0  0  0  0
  -24.7774  -19.4459   28.6994 C   0  0  0  0  0  0  0  0  0  0  0  0
  -19.8620   -7.9247   23.0851 C   0  0  0  0  0  0  0  0  0  0  0  0
  -19.1049   -7.8846   24.2558 C   0  0  0  0  0  0  0  0  0  0  0  0
  -24.4203  -17.4916   27.3310 C   0  0  0  0  0  0  0  0  0  0  0  0
  -32.0644  -16.6065   22.5526 C   0  0  0  0  0  0  0  0  0  0  0  0
  -29.8800  -17.4541   23.1419 C   0  0  0  0  0  0  0  0  0  0  0  0
  -20.3456   -5.9465   24.9918 C   0  0  0  0  0  0  0  0  0  0  0  0
  -23.8273  -10.4480   20.9622 C   0  0  0  0  0  0  0  0  0  0  0  0
  -24.1700  -12.9731   20.8431 C   0  0  0  0  0  0  0  0  0  0  0  0
  -22.2638  -15.9604   35.3309 C   0  0  0  0  0  0  0  0  0  0  0  0
  -22.8137  -18.0616   29.0496 C   0  0  0  0  0  0  0  0  0  0  0  0
  -22.9326  -15.9833   34.0922 C   0  0  0  0  0  0  0  0  0  0  0  0
  -23.2226  -17.2163   28.0083 C   0  0  0  0  0  0  0  0  0  0  0  0
  -32.6515  -17.4896   23.4587 C   0  0  0  0  0  0  0  0  0  0  0  0
  -30.4671  -18.3372   24.0480 C   0  0  0  0  0  0  0  0  0  0  0  0
  -31.8529  -18.3549   24.2064 C   0  0  0  0  0  0  0  0  0  0  0  0
  -30.6786  -16.5887   22.3942 C   0  0  0  0  0  0  0  0  0  0  0  0
  -22.3386   -8.1421   21.4612 C   0  0  0  0  0  0  0  0  0  0  0  0
  -25.1940  -18.5995   27.6761 C   0  0  0  0  0  0  0  0  0  0  0  0
  -20.8609   -6.9756   22.8676 C   0  0  0  0  0  0  0  0  0  0  0  0
  -19.3467   -6.8956   25.2092 C   0  0  0  0  0  0  0  0  0  0  0  0
  -21.1026   -5.9865   23.8210 C   0  0  0  0  0  0  0  0  0  0  0  0
  -24.5968  -11.6387   20.7050 C   0  0  0  0  0  0  0  0  0  0  0  0
  -25.2625  -13.7223   20.4802 C   0  0  0  0  0  0  0  0  0  0  0  0
  -22.8996  -13.4892   21.2620 C   0  0  0  0  0  0  0  0  0  0  0  0
  -21.8756  -15.4458   30.5927 C   0  0  0  0  0  0  0  0  0  0  0  0
  -20.1473  -14.9453   27.8937 C   0  0  0  0  0  0  0  0  0  0  0  0
  -20.6624  -15.2747   24.3379 C   0  0  0  0  0  0  0  0  0  0  0  0
  -30.7290  -14.7660   20.6560 C   0  0  0  0  0  0  0  0  0  0  0  0
  -21.1737  -14.9606   35.6255 C   0  0  0  0  0  0  0  0  0  0  0  0
  -21.5222  -17.8049   29.7766 C   0  0  0  0  0  0  0  0  0  0  0  0
  -22.4144  -16.0126   27.6002 C   0  0  0  0  0  0  0  0  0  0  0  0
  -20.5848  -14.3151   34.3738 C   0  0  0  0  0  0  0  0  0  0  0  0
  -29.6141  -12.3533   18.2868 C   0  0  0  0  0  0  0  0  0  0  0  0
  -21.6968  -13.8665   33.4309 C   0  0  0  0  0  0  0  0  0  0  0  0
  -28.1742  -12.0621   18.7160 C   0  0  0  0  0  0  0  0  0  0  0  0
  -28.1839  -17.5018   27.7806 C   0  0  0  0  0  0  0  0  0  0  0  0
  -30.5291  -12.5814   19.4886 C   0  0  0  0  0  0  0  0  0  0  0  0
  -28.6222  -13.3061   20.8699 C   0  0  0  0  0  0  0  0  0  0  0  0
  -28.8747  -17.4421   26.4332 C   0  0  0  0  0  0  0  0  0  0  0  0
  -28.5829  -19.7783   27.1090 C   0  0  0  0  0  0  0  0  0  0  0  0
  -22.5362  -15.0604   32.9603 C   0  0  1  0  0  0  0  0  0  0  0  0
  -21.0726  -16.3491   29.6999 C   0  0  1  0  0  0  0  0  0  0  0  0
  -27.6495  -13.1336   19.6918 C   0  0  2  0  0  0  0  0  0  0  0  0
  -27.5529  -18.8835   27.7806 C   0  0  1  0  0  0  0  0  0  1  0  0
  -34.1376  -17.4893   23.6091 C   0  0  0  0  0  0  0  0  0  0  0  0
  -32.4826  -19.3015   25.1784 C   0  0  0  0  0  0  0  0  0  0  0  0
  -19.0223  -15.6814   22.4826 C   0  0  0  0  0  0  0  0  0  0  0  0
  -20.1269  -11.9050   27.6357 C   0  0  0  0  0  0  0  0  0  0  0  0
  -20.0086  -12.1863   25.1508 C   0  0  0  0  0  0  0  0  0  0  0  0
  -18.1662  -13.0538   26.5914 C   0  0  0  0  0  0  0  0  0  0  0  0
  -22.1432  -17.6573   23.3948 C   0  0  0  0  0  0  0  0  0  0  0  0
  -29.5857  -19.2574   24.8400 C   0  0  0  0  0  0  0  0  0  0  0  0
  -20.3959  -14.2455   26.5793 C   0  0  1  0  0  0  0  0  0  0  0  0
  -20.0388  -16.3120   23.4216 C   0  0  2  0  0  0  0  0  0  0  0  0
  -19.6957  -12.8593   26.5042 C   0  0  0  0  0  0  0  0  0  0  0  0
  -25.8617  -11.5426   20.2868 N   0  0  0  0  0  0  0  0  0  0  0  0
  -26.2391  -12.8261   20.1590 N   0  0  0  0  0  0  0  0  0  0  0  0
  -21.1625  -15.8004   28.3453 N   0  0  0  0  0  0  0  0  0  0  0  0
  -29.9704  -13.6122   20.3662 N   0  0  0  0  0  0  0  0  0  0  0  0
  -25.4733  -15.0538   20.4077 N   0  0  0  0  0  0  0  0  0  0  0  0
  -21.8874  -12.5803   21.5989 N   0  0  0  0  0  0  0  0  0  0  0  0
  -30.0818  -15.6910   21.4746 N   0  0  0  0  0  0  0  0  0  0  0  0
  -21.8359  -15.7954   31.9290 N   0  0  0  0  0  0  0  0  0  0  0  0
  -19.9863  -15.1792   25.5359 N   0  0  0  0  0  0  0  0  0  0  0  0
  -29.4311  -18.8369   26.2662 N   0  3  2  0  0  0  0  0  0  0  0  0
  -21.0898  -16.9755   22.5993 N   0  3  0  0  0  0  0  0  0  0  0  0
  -22.6638  -14.7199   21.3197 O   0  0  0  0  0  0  0  0  0  0  0  0
  -22.4848  -14.5008   30.1054 O   0  0  0  0  0  0  0  0  0  0  0  0
  -19.0881  -14.7462   28.4939 O   0  0  0  0  0  0  0  0  0  0  0  0
  -21.6481  -14.6126   24.0211 O   0  0  0  0  0  0  0  0  0  0  0  0
  -31.8582  -14.9345   20.1886 O   0  0  0  0  0  0  0  0  0  0  0  0
  -21.6122   -7.0172   21.7051 O   0  0  0  0  0  0  0  0  0  0  0  0
  -26.3525  -18.8553   27.0095 O   0  0  0  0  0  0  0  0  0  1  0  0
  -18.6206   -6.8581   26.3342 F   0  0  0  0  0  0  0  0  0  0  0  0
  -22.0617   -5.0728   23.6182 F   0  0  0  0  0  0  0  0  0  0  0  0
  1  2  1  0  0  0  0
  1  5  2  0  0  0  0
  2  6  2  0  0  0  0
  3  8  2  0  0  0  0
  3 17  1  0  0  0  0
  4  9  1  0  0  0  0
  4 17  2  0  0  0  0
  5 19  1  0  0  0  0
  6 21  1  0  0  0  0
  7 10  2  0  0  0  0
  7 20  1  0  0  0  0
  8 27  1  0  0  0  0
  9 27  2  0  0  0  0
 10 28  1  0  0  0  0
 11 12  2  0  0  0  0
 11 29  1  0  0  0  0
 12 30  1  0  0  0  0
 13 22  1  0  0  0  0
 13 28  2  0  0  0  0
 14 23  2  0  0  0  0
 14 26  1  0  0  0  0
 15 24  1  0  0  0  0
 15 26  2  0  0  0  0
 16 30  2  0  0  0  0
 16 31  1  0  0  0  0
 17 32  1  0  0  0  0
 18 32  1  0  0  0  0
 18 33  2  0  0  0  0
 18 34  1  0  0  0  0
 19 21  2  0  0  0  0
 19 39  1  0  0  0  0
 20 22  2  0  0  0  0
 20 40  1  0  0  0  0
 21 51  1  0  0  0  0
 22 41  1  0  0  0  0
 23 25  1  0  0  0  0
 23 55  1  0  0  0  0
 24 25  2  0  0  0  0
 24 62  1  0  0  0  0
 25 56  1  0  0  0  0
 26 72  1  0  0  0  0
 27 82  1  0  0  0  0
 28 83  1  0  0  0  0
 29 31  2  0  0  0  0
 29 82  1  0  0  0  0
 30 84  1  0  0  0  0
 31 85  1  0  0  0  0
 32 66  2  0  0  0  0
 33 67  1  0  0  0  0
 33 70  1  0  0  0  0
 34 71  1  0  0  0  0
 34 77  2  0  0  0  0
 35 52  1  0  0  0  0
 35 73  1  0  0  0  0
 35 78  2  0  0  0  0
 36 63  1  0  0  0  0
 36 68  1  0  0  0  0
 36 79  2  0  0  0  0
 37 64  1  0  0  0  0
 37 74  1  0  0  0  0
 37 80  2  0  0  0  0
 38 69  1  0  0  0  0
 38 72  1  0  0  0  0
 38 81  2  0  0  0  0
 39 42  1  0  0  0  0
 40 52  1  0  0  0  0
 41 68  1  0  0  0  0
 42 44  1  0  0  0  0
 43 45  1  0  0  0  0
 43 47  1  0  0  0  0
 44 51  1  0  0  0  0
 45 53  1  0  0  0  0
 46 49  1  0  0  0  0
 46 54  1  0  0  0  0
 47 69  1  0  0  0  0
 48 53  1  0  0  0  0
 48 69  1  0  0  0  0
 49 75  1  0  0  0  0
 50 54  1  0  0  0  0
 50 75  1  0  0  0  0
 51 73  1  0  0  0  0
 52 68  1  0  0  0  0
 53 67  1  0  0  0  0
 54 83  1  0  0  0  0
 57 64  1  0  0  0  0
 58 65  1  0  0  0  0
 59 65  1  0  0  0  0
 60 65  1  0  0  0  0
 61 76  1  0  0  0  0
 62 75  1  0  0  0  0
 63 65  1  0  0  0  0
 63 74  1  0  0  0  0
 64 76  1  0  0  0  0
 66 67  1  0  0  0  0
M  CHG  2  75   1  76   1
M  ISO  4  38 100  54 101  72 100  83 101
M  END
> <Batch ID>
0031

> <Smiles>
CNC(C)C(=O)NC(C(=O)N1Cc2cc([101O:1][101CH:1]3CCN(Cc4cc([100NH:0][100C:0](=O)N5CCCC(n6nc(-c7ccc(Oc8ccc(F)cc8F)cc7)c(C(N)=O)c6N)C5)cc(C)c4C)C3)ccc2CC1C(=O)NC1CCCc2ccccc21)C(C)(C)C

> <Shape>
0.165

> <Color>
0.188

> <Negative vol penalty>
0.000

$$$$

  -OEChem-04042321393D

 83 92  0     1  0  0  0  0  0999 V2000
  -30.6757  -33.7823   23.1250 C   0  0  0  0  0  0  0  0  0  0  0  0
  -30.1885  -32.4794   23.1472 C   0  0  0  0  0  0  0  0  0  0  0  0
  -24.5664   -8.7357   20.5881 C   0  0  0  0  0  0  0  0  0  0  0  0
  -22.8609  -10.4451   20.5084 C   0  0  0  0  0  0  0  0  0  0  0  0
  -29.7985  -34.8559   23.2726 C   0  0  0  0  0  0  0  0  0  0  0  0
  -28.8238  -32.2493   23.3180 C   0  0  0  0  0  0  0  0  0  0  0  0
  -27.0276  -28.7562   20.1216 C   0  0  0  0  0  0  0  0  0  0  0  0
  -23.6144   -7.8053   21.0050 C   0  0  0  0  0  0  0  0  0  0  0  0
  -21.9089   -9.5148   20.9252 C   0  0  0  0  0  0  0  0  0  0  0  0
  -27.2838  -27.4206   20.4285 C   0  0  0  0  0  0  0  0  0  0  0  0
  -22.0241   -6.9837   23.8721 C   0  0  0  0  0  0  0  0  0  0  0  0
  -22.3642   -6.1385   24.9283 C   0  0  0  0  0  0  0  0  0  0  0  0
  -28.0617  -19.6966   19.9399 C   0  0  0  0  0  0  0  0  0  0  0  0
  -25.0566  -27.2067   21.3301 C   0  0  0  0  0  0  0  0  0  0  0  0
  -27.1317  -19.9871   17.3258 C   0  0  0  0  0  0  0  0  0  0  0  0
  -22.0423   -4.2194   23.4962 C   0  0  0  0  0  0  0  0  0  0  0  0
  -24.1897  -10.0556   20.3398 C   0  0  0  0  0  0  0  0  0  0  0  0
  -25.5405  -11.3227   18.5856 C   0  0  0  0  0  0  0  0  0  0  0  0
  -28.4211  -34.6392   23.4356 C   0  0  0  0  0  0  0  0  0  0  0  0
  -25.7856  -29.3311   20.4271 C   0  0  0  0  0  0  0  0  0  0  0  0
  -27.9275  -33.3210   23.4692 C   0  0  0  0  0  0  0  0  0  0  0  0
  -27.8805  -20.9706   19.4017 C   0  0  0  0  0  0  0  0  0  0  0  0
  -24.7862  -28.5491   21.0237 C   0  0  0  0  0  0  0  0  0  0  0  0
  -27.4155  -21.1158   18.0947 C   0  0  0  0  0  0  0  0  0  0  0  0
  -27.3129  -18.7131   17.8641 C   0  0  0  0  0  0  0  0  0  0  0  0
  -27.7780  -18.5678   19.1711 C   0  0  0  0  0  0  0  0  0  0  0  0
  -22.2857   -8.1949   21.1735 C   0  0  0  0  0  0  0  0  0  0  0  0
  -26.2993  -26.6464   21.0354 C   0  0  0  0  0  0  0  0  0  0  0  0
  -21.6930   -6.4468   22.6279 C   0  0  0  0  0  0  0  0  0  0  0  0
  -22.3733   -4.7563   24.7403 C   0  0  0  0  0  0  0  0  0  0  0  0
  -21.7022   -5.0647   22.4400 C   0  0  0  0  0  0  0  0  0  0  0  0
  -25.1727  -11.0172   19.9096 C   0  0  0  0  0  0  0  0  0  0  0  0
  -26.5052  -12.2922   18.7121 C   0  0  0  0  0  0  0  0  0  0  0  0
  -25.0536  -10.7788   17.3515 C   0  0  0  0  0  0  0  0  0  0  0  0
  -24.8150  -31.7136   22.2939 C   0  0  0  0  0  0  0  0  0  0  0  0
  -21.9418  -31.1038   20.9173 C   0  0  0  0  0  0  0  0  0  0  0  0
  -19.9071  -28.8742   19.3248 C   0  0  0  0  0  0  0  0  0  0  0  0
  -28.4240  -16.9824   21.0192 C   0  0  0  0  0  0  0  0  0  0  0  0
  -27.5179  -35.8299   23.6386 C   0  0  0  0  0  0  0  0  0  0  0  0
  -25.5157  -30.7659   20.0653 C   0  0  0  0  0  0  0  0  0  0  0  0
  -23.4293  -29.1132   21.3537 C   0  0  0  0  0  0  0  0  0  0  0  0
  -26.0380  -35.5127   23.4397 C   0  0  0  0  0  0  0  0  0  0  0  0
  -28.9927  -13.9503   22.7968 C   0  0  0  0  0  0  0  0  0  0  0  0
  -25.6638  -34.2291   24.1738 C   0  0  0  0  0  0  0  0  0  0  0  0
  -28.0799  -12.9420   22.0952 C   0  0  0  0  0  0  0  0  0  0  0  0
  -27.5328  -22.2984   21.5927 C   0  0  0  0  0  0  0  0  0  0  0  0
  -28.3520  -15.3347   22.8780 C   0  0  0  0  0  0  0  0  0  0  0  0
  -26.9655  -14.8674   20.8960 C   0  0  0  0  0  0  0  0  0  0  0  0
  -28.1886  -22.1568   20.2362 C   0  0  2  0  0  0  0  0  0  0  0  0
  -26.4506  -33.0316   23.6275 C   0  0  1  0  0  0  0  0  0  0  0  0
  -24.3928  -31.3887   20.8890 C   0  0  1  0  0  0  0  0  0  0  0  0
  -27.1123  -23.1969   20.4680 C   0  0  2  0  0  0  0  0  0  0  0  0
  -27.5947  -13.4742   20.7325 C   0  0  2  0  0  0  0  0  0  0  0  0
  -27.2126  -22.4689   17.4953 C   0  0  0  0  0  0  0  0  0  0  0  0
  -27.0008  -17.5218   17.0176 C   0  0  0  0  0  0  0  0  0  0  0  0
  -17.6022  -28.6534   18.3573 C   0  0  0  0  0  0  0  0  0  0  0  0
  -20.7870  -30.8565   23.7308 C   0  0  0  0  0  0  0  0  0  0  0  0
  -18.7865  -29.7273   22.7352 C   0  0  0  0  0  0  0  0  0  0  0  0
  -19.3291  -32.0801   22.1085 C   0  0  0  0  0  0  0  0  0  0  0  0
  -20.9700  -28.3380   16.6153 C   0  0  0  0  0  0  0  0  0  0  0  0
  -27.4640  -24.6445   20.4952 C   0  0  0  0  0  0  0  0  0  1  0  0
  -20.7750  -30.1996   21.2339 C   0  0  1  0  0  0  0  0  0  0  0  0
  -19.0552  -29.0025   18.0749 C   0  0  2  0  0  0  0  0  0  0  0  0
  -19.9456  -30.7054   22.4478 C   0  0  0  0  0  0  0  0  0  0  0  0
  -25.8487  -11.7344   20.8111 N   0  0  0  0  0  0  0  0  0  0  0  0
  -26.6511  -12.5001   20.0522 N   0  0  0  0  0  0  0  0  0  0  0  0
  -23.2160  -30.5228   20.9862 N   0  0  0  0  0  0  0  0  0  0  0  0
  -27.9210  -15.7755   21.5495 N   0  0  0  0  0  0  0  0  0  0  0  0
  -27.2344  -12.9785   17.8068 N   0  0  0  0  0  0  0  0  0  0  0  0
  -24.0614   -9.7902   17.4024 N   0  0  0  0  0  0  0  0  0  0  0  0
  -27.9686  -17.2823   19.7357 N   0  0  0  0  0  0  0  0  0  0  0  0
  -25.8846  -32.5850   22.3727 N   0  0  0  0  0  0  0  0  0  0  0  0
  -20.0097  -30.0730   19.9983 N   0  0  0  0  0  0  0  0  0  0  0  0
  -19.5590  -28.0911   17.0089 N   0  3  0  0  0  0  0  0  0  0  0  0
  -25.4974  -11.1465   16.2373 O   0  0  0  0  0  0  0  0  0  0  0  0
  -24.2139  -31.2121   23.2367 O   0  0  0  0  0  0  0  0  0  0  0  0
  -21.7299  -32.2802   20.6129 O   0  0  0  0  0  0  0  0  0  0  0  0
  -20.4263  -27.8154   19.6713 O   0  0  0  0  0  0  0  0  0  0  0  0
  -29.2226  -17.6836   21.6458 O   0  0  0  0  0  0  0  0  0  0  0  0
  -21.3564   -7.2873   21.5801 O   0  0  0  0  0  0  0  0  0  0  0  0
  -26.5470  -25.3426   21.3366 O   0  0  0  0  0  0  0  0  0  1  0  0
  -22.7014   -3.9449   25.7542 F   0  0  0  0  0  0  0  0  0  0  0  0
  -21.3862   -4.5431   21.2467 F   0  0  0  0  0  0  0  0  0  0  0  0
  1  2  1  0  0  0  0
  1  5  2  0  0  0  0
  2  6  2  0  0  0  0
  3  8  2  0  0  0  0
  3 17  1  0  0  0  0
  4  9  1  0  0  0  0
  4 17  2  0  0  0  0
  5 19  1  0  0  0  0
  6 21  1  0  0  0  0
  7 10  2  0  0  0  0
  7 20  1  0  0  0  0
  8 27  1  0  0  0  0
  9 27  2  0  0  0  0
 10 28  1  0  0  0  0
 11 12  2  0  0  0  0
 11 29  1  0  0  0  0
 12 30  1  0  0  0  0
 13 22  1  0  0  0  0
 13 26  2  0  0  0  0
 14 23  1  0  0  0  0
 14 28  2  0  0  0  0
 15 24  1  0  0  0  0
 15 25  2  0  0  0  0
 16 30  2  0  0  0  0
 16 31  1  0  0  0  0
 17 32  1  0  0  0  0
 18 32  1  0  0  0  0
 18 33  2  0  0  0  0
 18 34  1  0  0  0  0
 19 21  2  0  0  0  0
 19 39  1  0  0  0  0
 20 23  2  0  0  0  0
 20 40  1  0  0  0  0
 21 50  1  0  0  0  0
 22 24  2  0  0  0  0
 22 49  1  0  0  0  0
 23 41  1  0  0  0  0
 24 54  1  0  0  0  0
 25 26  1  0  0  0  0
 25 55  1  0  0  0  0
 26 71  1  0  0  0  0
 27 80  1  0  0  0  0
 28 81  1  0  0  0  0
 29 31  2  0  0  0  0
 29 80  1  0  0  0  0
 30 82  1  0  0  0  0
 31 83  1  0  0  0  0
 32 65  2  0  0  0  0
 33 66  1  0  0  0  0
 33 69  1  0  0  0  0
 34 70  1  0  0  0  0
 34 75  2  0  0  0  0
 35 51  1  0  0  0  0
 35 72  1  0  0  0  0
 35 76  2  0  0  0  0
 36 62  1  0  0  0  0
 36 67  1  0  0  0  0
 36 77  2  0  0  0  0
 37 63  1  0  0  0  0
 37 73  1  0  0  0  0
 37 78  2  0  0  0  0
 38 68  1  0  0  0  0
 38 71  1  0  0  0  0
 38 79  2  0  0  0  0
 39 42  1  0  0  0  0
 40 51  1  0  0  0  0
 41 67  1  0  0  0  0
 42 44  1  0  0  0  0
 43 45  1  0  0  0  0
 43 47  1  0  0  0  0
 44 50  1  0  0  0  0
 45 53  1  0  0  0  0
 46 49  1  0  0  0  0
 46 52  1  0  0  0  0
 47 68  1  0  0  0  0
 48 53  1  0  0  0  0
 48 68  1  0  0  0  0
 49 52  1  0  0  0  0
 50 72  1  0  0  0  0
 51 67  1  0  0  0  0
 52 61  1  0  0  0  0
 53 66  1  0  0  0  0
 56 63  1  0  0  0  0
 57 64  1  0  0  0  0
 58 64  1  0  0  0  0
 59 64  1  0  0  0  0
 60 74  1  0  0  0  0
 61 81  1  0  0  0  0
 62 64  1  0  0  0  0
 62 73  1  0  0  0  0
 63 74  1  0  0  0  0
 65 66  1  0  0  0  0
M  CHG  1  74   1
M  ISO  4  38 100  61 101  71 100  81 101
M  END
> <Batch ID>
0031

> <Smiles>
CNC(C)C(=O)NC(C(=O)N1Cc2cc([101O:1][101CH2:1]C3CC3c3cc([100NH:0][100C:0](=O)N4CCCC(n5nc(-c6ccc(Oc7ccc(F)cc7F)cc6)c(C(N)=O)c5N)C4)c(C)cc3C)ccc2CC1C(=O)NC1CCCc2ccccc21)C(C)(C)C

> <Shape>
0.278

> <Color>
0.105

> <Negative vol penalty>
0.000

$$$$

  -OEChem-04042321393D

 88 97  0     1  0  0  0  0  0999 V2000
  -17.2392  -29.4901   24.4204 C   0  0  0  0  0  0  0  0  0  0  0  0
  -17.7928  -28.2179   24.5223 C   0  0  0  0  0  0  0  0  0  0  0  0
  -31.2080  -22.8047   17.4161 C   0  0  0  0  0  0  0  0  0  0  0  0
  -26.3103  -12.8065   21.6225 C   0  0  0  0  0  0  0  0  0  0  0  0
  -25.8989  -13.6914   19.4123 C   0  0  0  0  0  0  0  0  0  0  0  0
  -17.5980  -30.3224   23.3609 C   0  0  0  0  0  0  0  0  0  0  0  0
  -18.7048  -27.7768   23.5641 C   0  0  0  0  0  0  0  0  0  0  0  0
  -24.5038  -23.6291   22.8685 C   0  0  0  0  0  0  0  0  0  0  0  0
  -30.7129  -22.5412   16.1390 C   0  0  0  0  0  0  0  0  0  0  0  0
  -30.6858  -22.1298   18.5195 C   0  0  0  0  0  0  0  0  0  0  0  0
  -25.0748  -12.1598   21.5936 C   0  0  0  0  0  0  0  0  0  0  0  0
  -24.6633  -13.0447   19.3835 C   0  0  0  0  0  0  0  0  0  0  0  0
  -24.9856  -22.5717   22.0980 C   0  0  0  0  0  0  0  0  0  0  0  0
  -23.7598   -9.3602   20.2277 C   0  0  0  0  0  0  0  0  0  0  0  0
  -23.7118   -8.0345   20.6589 C   0  0  0  0  0  0  0  0  0  0  0  0
  -25.5913  -24.1257   20.3552 C   0  0  0  0  0  0  0  0  0  0  0  0
  -22.1387   -8.6531   22.3852 C   0  0  0  0  0  0  0  0  0  0  0  0
  -26.7224  -13.5723   20.5318 C   0  0  0  0  0  0  0  0  0  0  0  0
  -29.2360  -13.7303   20.1262 C   0  0  0  0  0  0  0  0  0  0  0  0
  -18.5222  -29.8949   22.3946 C   0  0  0  0  0  0  0  0  0  0  0  0
  -24.5522  -24.9436   22.3828 C   0  0  0  0  0  0  0  0  0  0  0  0
  -19.0753  -28.6037   22.4900 C   0  0  0  0  0  0  0  0  0  0  0  0
  -25.1118  -25.1982   21.1225 C   0  0  0  0  0  0  0  0  0  0  0  0
  -29.6955  -21.6029   15.9653 C   0  0  0  0  0  0  0  0  0  0  0  0
  -29.1732  -20.9281   17.0687 C   0  0  0  0  0  0  0  0  0  0  0  0
  -29.6684  -21.1916   18.3458 C   0  0  0  0  0  0  0  0  0  0  0  0
  -24.2513  -12.2789   20.4741 C   0  0  0  0  0  0  0  0  0  0  0  0
  -25.5268  -22.8196   20.8400 C   0  0  0  0  0  0  0  0  0  0  0  0
  -22.9974  -10.3323   20.8753 C   0  0  0  0  0  0  0  0  0  0  0  0
  -22.9012   -7.6810   21.7377 C   0  0  0  0  0  0  0  0  0  0  0  0
  -22.1868   -9.9788   21.9540 C   0  0  0  0  0  0  0  0  0  0  0  0
  -27.9983  -14.2410   20.5613 C   0  0  0  0  0  0  0  0  0  0  0  0
  -30.1295  -14.7456   20.3654 C   0  0  0  0  0  0  0  0  0  0  0  0
  -25.9839  -19.3644   18.1658 C   0  0  0  0  0  0  0  0  0  0  0  0
  -29.5498  -12.4525   19.5566 C   0  0  0  0  0  0  0  0  0  0  0  0
  -22.3822  -27.1612   21.6921 C   0  0  0  0  0  0  0  0  0  0  0  0
  -24.9991  -29.0199   21.2244 C   0  0  0  0  0  0  0  0  0  0  0  0
  -28.3283  -29.2058   20.4971 C   0  0  0  0  0  0  0  0  0  0  0  0
  -29.5474  -20.6760   20.8088 C   0  0  0  0  0  0  0  0  0  0  0  0
  -18.8433  -30.8123   21.2413 C   0  0  0  0  0  0  0  0  0  0  0  0
  -24.0528  -26.0762   23.2374 C   0  0  0  0  0  0  0  0  0  0  0  0
  -25.2055  -26.5937   20.5638 C   0  0  0  0  0  0  0  0  0  0  0  0
  -24.8320  -20.1641   18.7299 C   0  0  0  0  0  0  0  0  0  0  0  0
  -20.1007  -30.4100   20.4749 C   0  0  0  0  0  0  0  0  0  0  0  0
  -30.8682  -18.4756   23.2767 C   0  0  0  0  0  0  0  0  0  0  0  0
  -20.0926  -28.9125   20.1845 C   0  0  0  0  0  0  0  0  0  0  0  0
  -30.3999  -17.0928   22.8175 C   0  0  0  0  0  0  0  0  0  0  0  0
  -29.8154  -19.5493   23.0073 C   0  0  0  0  0  0  0  0  0  0  0  0
  -28.8585  -18.2236   21.1645 C   0  0  0  0  0  0  0  0  0  0  0  0
  -26.4510  -21.6451   17.7367 C   0  0  0  0  0  0  0  0  0  0  0  0
  -20.0868  -28.0985   21.4841 C   0  0  1  0  0  0  0  0  0  0  0  0
  -23.6822  -27.3160   22.4293 C   0  0  1  0  0  0  0  0  0  0  0  0
  -29.9115  -17.1199   21.3559 C   0  0  2  0  0  0  0  0  0  0  0  0
  -25.3859  -21.5838   18.8159 C   0  0  2  0  0  0  0  0  0  1  0  0
  -30.1786  -30.8645   20.1471 C   0  0  0  0  0  0  0  0  0  0  0  0
  -23.8844  -29.6765   18.4610 C   0  0  0  0  0  0  0  0  0  0  0  0
  -26.1530  -30.5223   17.8235 C   0  0  0  0  0  0  0  0  0  0  0  0
  -24.8875  -31.6221   19.6705 C   0  0  0  0  0  0  0  0  0  0  0  0
  -29.8897  -28.1173   22.7635 C   0  0  0  0  0  0  0  0  0  0  0  0
  -29.1204  -19.7960   12.6339 C   0  0  0  0  0  0  0  0  0  0  0  0
  -31.1580  -19.9169   14.0600 C   0  0  0  0  0  0  0  0  0  0  0  0
  -28.0783  -19.9189   16.8767 C   0  0  0  0  0  0  0  0  0  0  0  0
  -29.1836  -21.3398   14.5869 C   0  0  0  0  0  0  0  0  0  0  0  0
  -25.8918  -29.3328   20.0479 C   0  0  1  0  0  0  0  0  0  0  0  0
  -29.4608  -29.9764   21.1515 C   0  0  2  0  0  0  0  0  0  0  0  0
  -25.2008  -30.2618   19.0102 C   0  0  0  0  0  0  0  0  0  0  0  0
  -28.0933  -15.4840   21.0407 N   0  0  0  0  0  0  0  0  0  0  0  0
  -29.4013  -15.7629   20.9084 N   0  0  0  0  0  0  0  0  0  0  0  0
  -26.8826  -20.2706   17.6121 N   0  0  0  0  0  0  0  0  0  0  0  0
  -24.6980  -27.6668   21.4347 N   0  0  0  0  0  0  0  0  0  0  0  0
  -29.4036  -19.5182   21.6022 N   0  0  0  0  0  0  0  0  0  0  0  0
  -31.4594  -14.8584   20.1622 N   0  0  0  0  0  0  0  0  0  0  0  0
  -28.5124  -11.5268   19.3799 N   0  0  0  0  0  0  0  0  0  0  0  0
  -29.1531  -20.5174   19.4806 N   0  0  0  0  0  0  0  0  0  0  0  0
  -21.4106  -28.0691   22.0679 N   0  0  0  0  0  0  0  0  0  0  0  0
  -27.1269  -29.8738   20.6050 N   0  0  0  0  0  0  0  0  0  0  0  0
  -30.4546  -29.0355   21.7413 N   0  3  0  0  0  0  0  0  0  0  0  0
  -29.6569  -20.0479   14.0198 N   0  3  0  0  0  0  0  0  0  0  0  0
  -26.0505  -18.1440   18.1751 O   0  0  0  0  0  0  0  0  0  0  0  0
  -30.7184  -12.1348   19.2297 O   0  0  0  0  0  0  0  0  0  0  0  0
  -22.2693  -26.2839   20.8439 O   0  0  0  0  0  0  0  0  0  0  0  0
  -24.5901  -29.9415   21.9350 O   0  0  0  0  0  0  0  0  0  0  0  0
  -28.4937  -28.1217   19.9423 O   0  0  0  0  0  0  0  0  0  0  0  0
  -30.0134  -21.7226   21.2664 O   0  0  0  0  0  0  0  0  0  0  0  0
  -23.0456  -11.6479   20.4455 O   0  0  0  0  0  0  0  0  0  0  0  0
  -25.9972  -21.7893   20.0856 O   0  0  0  0  0  0  0  0  0  1  0  0
  -22.8539   -6.4076   22.1506 F   0  0  0  0  0  0  0  0  0  0  0  0
  -21.4512  -10.9081   22.5794 F   0  0  0  0  0  0  0  0  0  0  0  0
  1  2  1  0  0  0  0
  1  6  2  0  0  0  0
  2  7  2  0  0  0  0
  3  9  1  0  0  0  0
  3 10  2  0  0  0  0
  4 11  2  0  0  0  0
  4 18  1  0  0  0  0
  5 12  1  0  0  0  0
  5 18  2  0  0  0  0
  6 20  1  0  0  0  0
  7 22  1  0  0  0  0
  8 13  2  0  0  0  0
  8 21  1  0  0  0  0
  9 24  2  0  0  0  0
 10 26  1  0  0  0  0
 11 27  1  0  0  0  0
 12 27  2  0  0  0  0
 13 28  1  0  0  0  0
 14 15  2  0  0  0  0
 14 29  1  0  0  0  0
 15 30  1  0  0  0  0
 16 23  1  0  0  0  0
 16 28  2  0  0  0  0
 17 30  2  0  0  0  0
 17 31  1  0  0  0  0
 18 32  1  0  0  0  0
 19 32  1  0  0  0  0
 19 33  2  0  0  0  0
 19 35  1  0  0  0  0
 20 22  2  0  0  0  0
 20 40  1  0  0  0  0
 21 23  2  0  0  0  0
 21 41  1  0  0  0  0
 22 51  1  0  0  0  0
 23 42  1  0  0  0  0
 24 25  1  0  0  0  0
 24 63  1  0  0  0  0
 25 26  2  0  0  0  0
 25 62  1  0  0  0  0
 26 74  1  0  0  0  0
 27 85  1  0  0  0  0
 28 86  1  0  0  0  0
 29 31  2  0  0  0  0
 29 85  1  0  0  0  0
 30 87  1  0  0  0  0
 31 88  1  0  0  0  0
 32 67  2  0  0  0  0
 33 68  1  0  0  0  0
 33 72  1  0  0  0  0
 34 43  1  0  0  0  0
 34 69  1  0  0  0  0
 34 79  2  0  0  0  0
 35 73  1  0  0  0  0
 35 80  2  0  0  0  0
 36 52  1  0  0  0  0
 36 75  1  0  0  0  0
 36 81  2  0  0  0  0
 37 64  1  0  0  0  0
 37 70  1  0  0  0  0
 37 82  2  0  0  0  0
 38 65  1  0  0  0  0
 38 76  1  0  0  0  0
 38 83  2  0  0  0  0
 39 71  1  0  0  0  0
 39 74  1  0  0  0  0
 39 84  2  0  0  0  0
 40 44  1  0  0  0  0
 41 52  1  0  0  0  0
 42 70  1  0  0  0  0
 43 54  1  0  0  0  0
 44 46  1  0  0  0  0
 45 47  1  0  0  0  0
 45 48  1  0  0  0  0
 46 51  1  0  0  0  0
 47 53  1  0  0  0  0
 48 71  1  0  0  0  0
 49 53  1  0  0  0  0
 49 71  1  0  0  0  0
 50 54  1  0  0  0  0
 50 69  1  0  0  0  0
 51 75  1  0  0  0  0
 52 70  1  0  0  0  0
 53 68  1  0  0  0  0
 54 86  1  0  0  0  0
 55 65  1  0  0  0  0
 56 66  1  0  0  0  0
 57 66  1  0  0  0  0
 58 66  1  0  0  0  0
 59 77  1  0  0  0  0
 60 78  1  0  0  0  0
 61 78  1  0  0  0  0
 62 69  1  0  0  0  0
 63 78  1  0  0  0  0
 64 66  1  0  0  0  0
 64 76  1  0  0  0  0
 65 77  1  0  0  0  0
 67 68  1  0  0  0  0
M  CHG  2  77   1  78   1
M  ISO  4  39 100  54 101  74 100  86 101
M  END
> <Batch ID>
0031

> <Smiles>
CNC(C)C(=O)NC(C(=O)N1Cc2cc([101O:1][101CH:1]3CC(=O)N(Cc4c(CN(C)C)cccc4[100NH:0][100C:0](=O)N4CCCC(n5nc(-c6ccc(Oc7ccc(F)cc7F)cc6)c(C(N)=O)c5N)C4)C3)ccc2CC1C(=O)NC1CCCc2ccccc21)C(C)(C)C

> <Shape>
0.255

> <Color>
0.070

> <Negative vol penalty>
0.000

$$$$

  -OEChem-04042321393D

 85 94  0     1  0  0  0  0  0999 V2000
  -27.6651  -34.0819   24.5209 C   0  0  0  0  0  0  0  0  0  0  0  0
  -28.3193  -32.8815   24.2627 C   0  0  0  0  0  0  0  0  0  0  0  0
  -23.8359   -9.9263   22.0155 C   0  0  0  0  0  0  0  0  0  0  0  0
  -24.3890  -11.2869   23.9338 C   0  0  0  0  0  0  0  0  0  0  0  0
  -26.2746  -34.1096   24.6189 C   0  0  0  0  0  0  0  0  0  0  0  0
  -27.5833  -31.7079   24.1034 C   0  0  0  0  0  0  0  0  0  0  0  0
  -28.8709  -27.0342   20.3613 C   0  0  0  0  0  0  0  0  0  0  0  0
  -23.3258   -8.9413   22.8611 C   0  0  0  0  0  0  0  0  0  0  0  0
  -23.8789  -10.3019   24.7795 C   0  0  0  0  0  0  0  0  0  0  0  0
  -29.4871  -25.8022   20.5768 C   0  0  0  0  0  0  0  0  0  0  0  0
  -20.4947   -8.3968   24.6278 C   0  0  0  0  0  0  0  0  0  0  0  0
  -19.2688   -7.8236   24.2899 C   0  0  0  0  0  0  0  0  0  0  0  0
  -27.3214  -24.7693   20.8253 C   0  0  0  0  0  0  0  0  0  0  0  0
  -32.5216  -17.6581   21.3231 C   0  0  0  0  0  0  0  0  0  0  0  0
  -30.3943  -19.2128   22.2398 C   0  0  0  0  0  0  0  0  0  0  0  0
  -20.3199   -5.6520   24.1609 C   0  0  0  0  0  0  0  0  0  0  0  0
  -24.3675  -11.0991   22.5518 C   0  0  0  0  0  0  0  0  0  0  0  0
  -24.1942  -13.1989   21.1136 C   0  0  0  0  0  0  0  0  0  0  0  0
  -25.5205  -32.9374   24.4511 C   0  0  0  0  0  0  0  0  0  0  0  0
  -27.4732  -27.1451   20.3870 C   0  0  0  0  0  0  0  0  0  0  0  0
  -26.1814  -31.7197   24.2006 C   0  0  0  0  0  0  0  0  0  0  0  0
  -26.6898  -26.0032   20.6072 C   0  0  0  0  0  0  0  0  0  0  0  0
  -32.3952  -18.9828   20.9053 C   0  0  0  0  0  0  0  0  0  0  0  0
  -31.5844  -17.1106   22.1992 C   0  0  0  0  0  0  0  0  0  0  0  0
  -31.3316  -19.7602   21.3636 C   0  0  0  0  0  0  0  0  0  0  0  0
  -23.3473   -9.1291   24.2431 C   0  0  0  0  0  0  0  0  0  0  0  0
  -28.7124  -24.6701   20.8118 C   0  0  0  0  0  0  0  0  0  0  0  0
  -21.6332   -7.5977   24.7322 C   0  0  0  0  0  0  0  0  0  0  0  0
  -19.1814   -6.4512   24.0565 C   0  0  0  0  0  0  0  0  0  0  0  0
  -21.5458   -6.2253   24.4988 C   0  0  0  0  0  0  0  0  0  0  0  0
  -30.5208  -17.8880   22.6576 C   0  0  0  0  0  0  0  0  0  0  0  0
  -24.8951  -12.1168   21.6788 C   0  0  0  0  0  0  0  0  0  0  0  0
  -25.1358  -13.8668   20.3695 C   0  0  0  0  0  0  0  0  0  0  0  0
  -22.8153  -13.5675   21.2492 C   0  0  0  0  0  0  0  0  0  0  0  0
  -25.3816  -28.7324   22.1784 C   0  0  0  0  0  0  0  0  0  0  0  0
  -23.2482  -27.5686   20.0298 C   0  0  0  0  0  0  0  0  0  0  0  0
  -22.4731  -25.1793   17.7196 C   0  0  0  0  0  0  0  0  0  0  0  0
  -31.1019  -14.2318   20.7205 C   0  0  0  0  0  0  0  0  0  0  0  0
  -24.0227  -33.0084   24.6129 C   0  0  0  0  0  0  0  0  0  0  0  0
  -26.8232  -28.4762   20.1261 C   0  0  0  0  0  0  0  0  0  0  0  0
  -25.1850  -26.0652   20.6247 C   0  0  0  0  0  0  0  0  0  0  0  0
  -23.2918  -31.7879   24.0595 C   0  0  0  0  0  0  0  0  0  0  0  0
  -29.1847  -13.1376   17.9270 C   0  0  0  0  0  0  0  0  0  0  0  0
  -23.9755  -30.5033   24.5170 C   0  0  0  0  0  0  0  0  0  0  0  0
  -27.8047  -12.8495   18.5208 C   0  0  0  0  0  0  0  0  0  0  0  0
  -31.2138  -23.0015   19.6086 C   0  0  0  0  0  0  0  0  0  0  0  0
  -30.3050  -12.7605   18.8939 C   0  0  0  0  0  0  0  0  0  0  0  0
  -31.0294  -21.4846   19.5691 C   0  0  0  0  0  0  0  0  0  0  0  0
  -28.8126  -13.0727   20.8301 C   0  0  0  0  0  0  0  0  0  0  0  0
  -31.1812  -22.2135   21.8748 C   0  0  0  0  0  0  0  0  0  0  0  0
  -25.4163  -30.4300   23.9972 C   0  0  1  0  0  0  0  0  0  0  0  0
  -25.4067  -28.5692   20.6850 C   0  0  1  0  0  0  0  0  0  0  0  0
  -27.6491  -13.4887   19.9138 C   0  0  2  0  0  0  0  0  0  0  0  0
  -30.7317  -23.3833   21.0005 C   0  0  2  0  0  0  0  0  0  1  0  0
  -33.4123  -19.5437   19.9652 C   0  0  0  0  0  0  0  0  0  0  0  0
  -20.6422  -24.4710   16.1564 C   0  0  0  0  0  0  0  0  0  0  0  0
  -21.6644  -26.4607   22.3908 C   0  0  0  0  0  0  0  0  0  0  0  0
  -20.4230  -24.9981   20.7820 C   0  0  0  0  0  0  0  0  0  0  0  0
  -20.2677  -27.4799   20.5839 C   0  0  0  0  0  0  0  0  0  0  0  0
  -24.2128  -25.5070   15.3479 C   0  0  0  0  0  0  0  0  0  0  0  0
  -31.7545  -15.6871   22.6219 C   0  0  0  0  0  0  0  0  0  0  0  0
  -22.4127  -26.3157   19.9240 C   0  0  1  0  0  0  0  0  0  0  0  0
  -21.9188  -25.2831   16.3102 C   0  0  2  0  0  0  0  0  0  0  0  0
  -21.2203  -26.3125   20.9218 C   0  0  0  0  0  0  0  0  0  0  0  0
  -26.1826  -12.0946   21.3239 N   0  0  0  0  0  0  0  0  0  0  0  0
  -26.2981  -13.1710   20.5277 N   0  0  0  0  0  0  0  0  0  0  0  0
  -31.1913  -21.0714   20.9598 N   0  0  3  0  0  0  0  0  0  0  0  0
  -24.5966  -27.3906   20.3706 N   0  0  0  0  0  0  0  0  0  0  0  0
  -30.0989  -13.4004   20.1954 N   0  0  0  0  0  0  0  0  0  0  0  0
  -25.0746  -14.9755   19.6017 N   0  0  0  0  0  0  0  0  0  0  0  0
  -21.9867  -12.7715   22.0518 N   0  0  0  0  0  0  0  0  0  0  0  0
  -25.4313  -30.0469   22.6017 N   0  0  0  0  0  0  0  0  0  0  0  0
  -22.0201  -26.2040   18.5234 N   0  0  0  0  0  0  0  0  0  0  0  0
  -30.8235  -14.8037   21.9559 N   0  0  0  0  0  0  0  0  0  0  0  0
  -22.9164  -24.7820   15.3230 N   0  3  0  0  0  0  0  0  0  0  0  0
  -22.3284  -14.5637   20.6625 O   0  0  0  0  0  0  0  0  0  0  0  0
  -25.3202  -27.7393   22.8938 O   0  0  0  0  0  0  0  0  0  0  0  0
  -22.7255  -28.6643   19.8110 O   0  0  0  0  0  0  0  0  0  0  0  0
  -23.2292  -24.2772   18.0733 O   0  0  0  0  0  0  0  0  0  0  0  0
  -32.1645  -14.4525   20.1296 O   0  0  0  0  0  0  0  0  0  0  0  0
  -22.8494   -8.1682   25.0686 O   0  0  0  0  0  0  0  0  0  0  0  0
  -29.3113  -23.4665   21.0231 O   0  0  0  0  0  0  0  0  0  1  0  0
  -18.0039   -5.9006   23.7335 F   0  0  0  0  0  0  0  0  0  0  0  0
  -22.6359   -5.4523   24.5987 F   0  0  0  0  0  0  0  0  0  0  0  0
  -29.3431  -17.2448   23.7434 Cl  0  0  0  0  0  0  0  0  0  0  0  0
  1  2  1  0  0  0  0
  1  5  2  0  0  0  0
  2  6  2  0  0  0  0
  3  8  2  0  0  0  0
  3 17  1  0  0  0  0
  4  9  1  0  0  0  0
  4 17  2  0  0  0  0
  5 19  1  0  0  0  0
  6 21  1  0  0  0  0
  7 10  2  0  0  0  0
  7 20  1  0  0  0  0
  8 26  1  0  0  0  0
  9 26  2  0  0  0  0
 10 27  1  0  0  0  0
 11 12  2  0  0  0  0
 11 28  1  0  0  0  0
 12 29  1  0  0  0  0
 13 22  1  0  0  0  0
 13 27  2  0  0  0  0
 14 23  1  0  0  0  0
 14 24  2  0  0  0  0
 15 25  1  0  0  0  0
 15 31  2  0  0  0  0
 16 29  2  0  0  0  0
 16 30  1  0  0  0  0
 17 32  1  0  0  0  0
 18 32  1  0  0  0  0
 18 33  2  0  0  0  0
 18 34  1  0  0  0  0
 19 21  2  0  0  0  0
 19 39  1  0  0  0  0
 20 22  2  0  0  0  0
 20 40  1  0  0  0  0
 21 51  1  0  0  0  0
 22 41  1  0  0  0  0
 23 25  2  0  0  0  0
 23 55  1  0  0  0  0
 24 31  1  0  0  0  0
 24 61  1  0  0  0  0
 25 67  1  0  0  0  0
 26 81  1  0  0  0  0
 27 82  1  0  0  0  0
 28 30  2  0  0  0  0
 28 81  1  0  0  0  0
 29 83  1  0  0  0  0
 30 84  1  0  0  0  0
 31 85  1  0  0  0  0
 32 65  2  0  0  0  0
 33 66  1  0  0  0  0
 33 70  1  0  0  0  0
 34 71  1  0  0  0  0
 34 76  2  0  0  0  0
 35 52  1  0  0  0  0
 35 72  1  0  0  0  0
 35 77  2  0  0  0  0
 36 62  1  0  0  0  0
 36 68  1  0  0  0  0
 36 78  2  0  0  0  0
 37 63  1  0  0  0  0
 37 73  1  0  0  0  0
 37 79  2  0  0  0  0
 38 69  1  0  0  0  0
 38 74  1  0  0  0  0
 38 80  2  0  0  0  0
 39 42  1  0  0  0  0
 40 52  1  0  0  0  0
 41 68  1  0  0  0  0
 42 44  1  0  0  0  0
 43 45  1  0  0  0  0
 43 47  1  0  0  0  0
 44 51  1  0  0  0  0
 45 53  1  0  0  0  0
 46 48  1  0  0  0  0
 46 54  1  0  0  0  0
 47 69  1  0  0  0  0
 48 67  1  0  0  0  0
 49 53  1  0  0  0  0
 49 69  1  0  0  0  0
 50 54  1  0  0  0  0
 50 67  1  0  0  0  0
 51 72  1  0  0  0  0
 52 68  1  0  0  0  0
 53 66  1  0  0  0  0
 54 82  1  0  0  0  0
 56 63  1  0  0  0  0
 57 64  1  0  0  0  0
 58 64  1  0  0  0  0
 59 64  1  0  0  0  0
 60 75  1  0  0  0  0
 61 74  1  0  0  0  0
 62 64  1  0  0  0  0
 62 73  1  0  0  0  0
 63 75  1  0  0  0  0
 65 66  1  0  0  0  0
M  CHG  1  75   1
M  ISO  4  38 100  54 101  74 100  82 101
M  END
> <Batch ID>
0031

> <Smiles>
CNC(C)C(=O)NC(C(=O)N1Cc2cc([101O:1][101CH:1]3CCN(c4cc(Cl)c(C[100NH:0][100C:0](=O)N5CCCC(n6nc(-c7ccc(Oc8ccc(F)cc8F)cc7)c(C(N)=O)c6N)C5)cc4C)C3)ccc2CC1C(=O)NC1CCCc2ccccc21)C(C)(C)C

> <Shape>
0.291

> <Color>
0.127

> <Negative vol penalty>
0.000

$$$$

  -OEChem-04042321393D

 85 93  0     1  0  0  0  0  0999 V2000
  -23.9142  -36.8220   21.6518 C   0  0  0  0  0  0  0  0  0  0  0  0
  -24.8227  -35.8271   21.3050 C   0  0  0  0  0  0  0  0  0  0  0  0
  -26.4843  -12.9369   21.4561 C   0  0  0  0  0  0  0  0  0  0  0  0
  -26.2058  -13.6207   19.1557 C   0  0  0  0  0  0  0  0  0  0  0  0
  -22.8987  -36.5487   22.5672 C   0  0  0  0  0  0  0  0  0  0  0  0
  -24.7170  -34.5587   21.8744 C   0  0  0  0  0  0  0  0  0  0  0  0
  -25.9941  -29.2021   19.1945 C   0  0  0  0  0  0  0  0  0  0  0  0
  -28.5550  -21.6811   15.5055 C   0  0  0  0  0  0  0  0  0  0  0  0
  -28.9967  -20.7715   16.4663 C   0  0  0  0  0  0  0  0  0  0  0  0
  -25.2238  -12.3402   21.4314 C   0  0  0  0  0  0  0  0  0  0  0  0
  -24.9453  -13.0239   19.1309 C   0  0  0  0  0  0  0  0  0  0  0  0
  -27.1148  -28.3740   19.2402 C   0  0  0  0  0  0  0  0  0  0  0  0
  -23.8457   -9.4766   20.2765 C   0  0  0  0  0  0  0  0  0  0  0  0
  -23.7212   -8.2016   20.8281 C   0  0  0  0  0  0  0  0  0  0  0  0
  -29.1637  -22.5597   18.0824 C   0  0  0  0  0  0  0  0  0  0  0  0
  -26.0616  -27.0540   20.9628 C   0  0  0  0  0  0  0  0  0  0  0  0
  -22.1055   -9.0455   22.4138 C   0  0  0  0  0  0  0  0  0  0  0  0
  -26.9753  -13.5772   20.3183 C   0  0  0  0  0  0  0  0  0  0  0  0
  -28.7221  -23.4693   17.1215 C   0  0  0  0  0  0  0  0  0  0  0  0
  -29.5083  -13.5953   20.0161 C   0  0  0  0  0  0  0  0  0  0  0  0
  -22.7746  -35.2735   23.1409 C   0  0  0  0  0  0  0  0  0  0  0  0
  -24.9014  -28.9685   20.0417 C   0  0  0  0  0  0  0  0  0  0  0  0
  -23.6997  -34.2685   22.7995 C   0  0  0  0  0  0  0  0  0  0  0  0
  -24.9272  -27.8790   20.9241 C   0  0  0  0  0  0  0  0  0  0  0  0
  -28.4178  -23.0300   15.8331 C   0  0  0  0  0  0  0  0  0  0  0  0
  -29.3010  -21.2108   17.7547 C   0  0  0  0  0  0  0  0  0  0  0  0
  -24.4543  -12.3836   20.2688 C   0  0  0  0  0  0  0  0  0  0  0  0
  -27.1498  -27.3015   20.1265 C   0  0  0  0  0  0  0  0  0  0  0  0
  -23.1002  -10.5361   20.7935 C   0  0  0  0  0  0  0  0  0  0  0  0
  -22.8511   -7.9860   21.8968 C   0  0  0  0  0  0  0  0  0  0  0  0
  -22.2300  -10.3205   21.8621 C   0  0  0  0  0  0  0  0  0  0  0  0
  -28.2771  -14.1944   20.3434 C   0  0  0  0  0  0  0  0  0  0  0  0
  -30.4348  -14.5926   20.1995 C   0  0  0  0  0  0  0  0  0  0  0  0
  -28.5842  -24.8999   17.4975 C   0  0  0  0  0  0  0  0  0  0  0  0
  -29.7893  -12.2572   19.5848 C   0  0  0  0  0  0  0  0  0  0  0  0
  -23.4676  -30.6074   22.3573 C   0  0  0  0  0  0  0  0  0  0  0  0
  -21.3506  -28.1520   22.2514 C   0  0  0  0  0  0  0  0  0  0  0  0
  -20.7312  -24.8932   21.4495 C   0  0  0  0  0  0  0  0  0  0  0  0
  -30.0961  -20.5565   20.0539 C   0  0  0  0  0  0  0  0  0  0  0  0
  -21.6893  -35.0391   24.1615 C   0  0  0  0  0  0  0  0  0  0  0  0
  -23.6890  -29.8550   19.9613 C   0  0  0  0  0  0  0  0  0  0  0  0
  -23.7716  -27.5731   21.8403 C   0  0  0  0  0  0  0  0  0  0  0  0
  -21.4198  -33.5618   24.4357 C   0  0  0  0  0  0  0  0  0  0  0  0
  -31.2133  -18.5530   22.7769 C   0  0  0  0  0  0  0  0  0  0  0  0
  -22.7309  -32.8083   24.6366 C   0  0  0  0  0  0  0  0  0  0  0  0
  -30.7044  -17.1522   22.4291 C   0  0  0  0  0  0  0  0  0  0  0  0
  -30.2212  -19.6369   22.3590 C   0  0  0  0  0  0  0  0  0  0  0  0
  -29.2854  -18.1791   20.6073 C   0  0  0  0  0  0  0  0  0  0  0  0
  -23.6029  -32.8730   23.3769 C   0  0  1  0  0  0  0  0  0  0  0  0
  -22.8452  -29.8302   21.2320 C   0  0  1  0  0  0  0  0  0  0  0  0
  -30.2799  -17.0579   20.9504 C   0  0  2  0  0  0  0  0  0  0  0  0
  -27.9429  -23.9829   14.7849 C   0  0  0  0  0  0  0  0  0  0  0  0
  -18.9184  -23.1591   21.5134 C   0  0  0  0  0  0  0  0  0  0  0  0
  -21.7810  -27.8161   25.2534 C   0  0  0  0  0  0  0  0  0  0  0  0
  -20.7297  -25.5505   25.0801 C   0  0  0  0  0  0  0  0  0  0  0  0
  -19.4050  -27.5853   24.5079 C   0  0  0  0  0  0  0  0  0  0  0  0
  -30.5641  -26.3237   20.6519 C   0  0  0  0  0  0  0  0  0  0  0  0
  -29.4785  -28.5506   20.2798 C   0  0  0  0  0  0  0  0  0  0  0  0
  -20.7631  -24.5841   18.5063 C   0  0  0  0  0  0  0  0  0  0  0  0
  -29.7664  -26.9081   18.3495 C   0  0  0  0  0  0  0  0  0  0  0  0
  -21.2308  -26.8133   22.9388 C   0  0  1  0  0  0  0  0  0  0  0  0
  -19.5918  -24.2428   20.6858 C   0  0  2  0  0  0  0  0  0  0  0  0
  -20.8094  -26.9480   24.4293 C   0  0  0  0  0  0  0  0  0  0  0  0
  -29.5019  -27.0814   19.8519 C   0  0  0  0  0  0  0  0  0  1  0  0
  -28.4063  -15.4730   20.7073 N   0  0  0  0  0  0  0  0  0  0  0  0
  -29.7297  -15.6856   20.6099 N   0  0  0  0  0  0  0  0  0  0  0  0
  -22.6115  -28.4727   21.7288 N   0  0  0  0  0  0  0  0  0  0  0  0
  -29.8681  -19.4871   20.9456 N   0  0  0  0  0  0  0  0  0  0  0  0
  -31.7757  -14.6323   20.0483 N   0  0  0  0  0  0  0  0  0  0  0  0
  -28.7206  -11.3608   19.4485 N   0  0  0  0  0  0  0  0  0  0  0  0
  -29.7515  -20.2867   18.7299 N   0  0  0  0  0  0  0  0  0  0  0  0
  -29.7437  -25.5323   17.9284 N   0  0  0  0  0  0  0  0  0  0  0  0
  -23.1183  -31.9442   22.3784 N   0  0  0  0  0  0  0  0  0  0  0  0
  -20.3143  -26.0187   22.1281 N   0  0  0  0  0  0  0  0  0  0  0  0
  -20.0974  -23.6266   19.4266 N   0  3  0  0  0  0  0  0  0  0  0  0
  -27.4802  -25.4340   17.4311 O   0  0  0  0  0  0  0  0  0  0  0  0
  -30.9556  -11.8632   19.3437 O   0  0  0  0  0  0  0  0  0  0  0  0
  -24.2088  -30.0363   23.1486 O   0  0  0  0  0  0  0  0  0  0  0  0
  -20.3600  -28.8831   22.1746 O   0  0  0  0  0  0  0  0  0  0  0  0
  -21.8757  -24.4452   21.4474 O   0  0  0  0  0  0  0  0  0  0  0  0
  -30.5879  -21.6230   20.4318 O   0  0  0  0  0  0  0  0  0  0  0  0
  -23.2244  -11.8012   20.2442 O   0  0  0  0  0  0  0  0  0  0  0  0
  -28.2427  -26.4920   20.1737 O   0  0  0  0  0  0  0  0  0  1  0  0
  -22.7304   -6.7612   22.4255 F   0  0  0  0  0  0  0  0  0  0  0  0
  -21.5103  -11.3342   22.3623 F   0  0  0  0  0  0  0  0  0  0  0  0
  1  2  1  0  0  0  0
  1  5  2  0  0  0  0
  2  6  2  0  0  0  0
  3 10  2  0  0  0  0
  3 18  1  0  0  0  0
  4 11  1  0  0  0  0
  4 18  2  0  0  0  0
  5 21  1  0  0  0  0
  6 23  1  0  0  0  0
  7 12  2  0  0  0  0
  7 22  1  0  0  0  0
  8  9  2  0  0  0  0
  8 25  1  0  0  0  0
  9 26  1  0  0  0  0
 10 27  1  0  0  0  0
 11 27  2  0  0  0  0
 12 28  1  0  0  0  0
 13 14  2  0  0  0  0
 13 29  1  0  0  0  0
 14 30  1  0  0  0  0
 15 19  1  0  0  0  0
 15 26  2  0  0  0  0
 16 24  1  0  0  0  0
 16 28  2  0  0  0  0
 17 30  2  0  0  0  0
 17 31  1  0  0  0  0
 18 32  1  0  0  0  0
 19 25  2  0  0  0  0
 19 34  1  0  0  0  0
 20 32  1  0  0  0  0
 20 33  2  0  0  0  0
 20 35  1  0  0  0  0
 21 23  2  0  0  0  0
 21 40  1  0  0  0  0
 22 24  2  0  0  0  0
 22 41  1  0  0  0  0
 23 49  1  0  0  0  0
 24 42  1  0  0  0  0
 25 52  1  0  0  0  0
 26 71  1  0  0  0  0
 27 82  1  0  0  0  0
 28 83  1  0  0  0  0
 29 31  2  0  0  0  0
 29 82  1  0  0  0  0
 30 84  1  0  0  0  0
 31 85  1  0  0  0  0
 32 65  2  0  0  0  0
 33 66  1  0  0  0  0
 33 69  1  0  0  0  0
 34 72  1  0  0  0  0
 34 76  2  0  0  0  0
 35 70  1  0  0  0  0
 35 77  2  0  0  0  0
 36 50  1  0  0  0  0
 36 73  1  0  0  0  0
 36 78  2  0  0  0  0
 37 61  1  0  0  0  0
 37 67  1  0  0  0  0
 37 79  2  0  0  0  0
 38 62  1  0  0  0  0
 38 74  1  0  0  0  0
 38 80  2  0  0  0  0
 39 68  1  0  0  0  0
 39 71  1  0  0  0  0
 39 81  2  0  0  0  0
 40 43  1  0  0  0  0
 41 50  1  0  0  0  0
 42 67  1  0  0  0  0
 43 45  1  0  0  0  0
 44 46  1  0  0  0  0
 44 47  1  0  0  0  0
 45 49  1  0  0  0  0
 46 51  1  0  0  0  0
 47 68  1  0  0  0  0
 48 51  1  0  0  0  0
 48 68  1  0  0  0  0
 49 73  1  0  0  0  0
 50 67  1  0  0  0  0
 51 66  1  0  0  0  0
 53 62  1  0  0  0  0
 54 63  1  0  0  0  0
 55 63  1  0  0  0  0
 56 63  1  0  0  0  0
 57 64  1  0  0  0  0
 58 64  1  0  0  0  0
 59 75  1  0  0  0  0
 60 64  1  0  0  0  0
 60 72  1  0  0  0  0
 61 63  1  0  0  0  0
 61 74  1  0  0  0  0
 62 75  1  0  0  0  0
 64 83  1  0  0  0  0
 65 66  1  0  0  0  0
M  CHG  1  75   1
M  ISO  4  39 100  64 101  71 100  83 101
M  END
> <Batch ID>
0031

> <Smiles>
CNC(C)C(=O)NC(C(=O)N1Cc2cc([101O:1][101C:1](C)(C)CNC(=O)c3cc([100NH:0][100C:0](=O)N4CCCC(n5nc(-c6ccc(Oc7ccc(F)cc7F)cc6)c(C(N)=O)c5N)C4)ccc3C)ccc2CC1C(=O)NC1CCCc2ccccc21)C(C)(C)C

> <Shape>
0.321

> <Color>
0.090

> <Negative vol penalty>
0.000

$$$$

  -OEChem-04042321393D

 84 92  0     1  0  0  0  0  0999 V2000
  -37.6713  -24.7279   33.0858 C   0  0  0  0  0  0  0  0  0  0  0  0
  -36.6214  -24.8609   32.1828 C   0  0  0  0  0  0  0  0  0  0  0  0
  -23.1204   -9.8738   19.9484 C   0  0  0  0  0  0  0  0  0  0  0  0
  -23.9143   -9.8952   22.2301 C   0  0  0  0  0  0  0  0  0  0  0  0
  -38.8782  -24.1656   32.6720 C   0  0  0  0  0  0  0  0  0  0  0  0
  -36.7781  -24.4324   30.8651 C   0  0  0  0  0  0  0  0  0  0  0  0
  -32.4910  -21.9448   27.2682 C   0  0  0  0  0  0  0  0  0  0  0  0
  -29.7187  -20.2417   18.9122 C   0  0  0  0  0  0  0  0  0  0  0  0
  -22.4063   -8.7041   20.2078 C   0  0  0  0  0  0  0  0  0  0  0  0
  -23.2001   -8.7255   22.4895 C   0  0  0  0  0  0  0  0  0  0  0  0
  -31.6776  -22.4801   26.2704 C   0  0  0  0  0  0  0  0  0  0  0  0
  -20.0000   -7.8552   23.1392 C   0  0  0  0  0  0  0  0  0  0  0  0
  -19.2618   -7.7971   24.3213 C   0  0  0  0  0  0  0  0  0  0  0  0
  -30.0940  -19.0734   18.2491 C   0  0  0  0  0  0  0  0  0  0  0  0
  -33.2511  -21.7395   24.5987 C   0  0  0  0  0  0  0  0  0  0  0  0
  -28.9491  -18.9293   20.7890 C   0  0  0  0  0  0  0  0  0  0  0  0
  -20.5570   -5.8870   25.0362 C   0  0  0  0  0  0  0  0  0  0  0  0
  -23.8745  -10.4694   20.9595 C   0  0  0  0  0  0  0  0  0  0  0  0
  -24.1581  -13.0017   20.8380 C   0  0  0  0  0  0  0  0  0  0  0  0
  -39.0465  -23.7212   31.3511 C   0  0  0  0  0  0  0  0  0  0  0  0
  -33.6979  -21.3113   26.9389 C   0  0  0  0  0  0  0  0  0  0  0  0
  -37.9888  -23.8648   30.4329 C   0  0  0  0  0  0  0  0  0  0  0  0
  -34.0768  -21.1947   25.5939 C   0  0  0  0  0  0  0  0  0  0  0  0
  -29.1463  -20.1697   20.1822 C   0  0  0  0  0  0  0  0  0  0  0  0
  -29.3243  -17.7610   20.1259 C   0  0  0  0  0  0  0  0  0  0  0  0
  -22.4461   -8.1299   21.4783 C   0  0  0  0  0  0  0  0  0  0  0  0
  -32.0590  -22.3801   24.9356 C   0  0  0  0  0  0  0  0  0  0  0  0
  -21.0166   -6.9292   22.9056 C   0  0  0  0  0  0  0  0  0  0  0  0
  -19.5403   -6.8130   25.2698 C   0  0  0  0  0  0  0  0  0  0  0  0
  -21.2951   -5.9451   23.8541 C   0  0  0  0  0  0  0  0  0  0  0  0
  -29.8968  -17.8330   18.8559 C   0  0  0  0  0  0  0  0  0  0  0  0
  -24.6129  -11.6774   20.6920 C   0  0  0  0  0  0  0  0  0  0  0  0
  -25.2277  -13.7757   20.4595 C   0  0  0  0  0  0  0  0  0  0  0  0
  -22.8829  -13.4885   21.2767 C   0  0  0  0  0  0  0  0  0  0  0  0
  -36.7626  -21.8457   27.5917 C   0  0  0  0  0  0  0  0  0  0  0  0
  -37.1776  -19.0080   26.0758 C   0  0  0  0  0  0  0  0  0  0  0  0
  -35.9943  -16.7177   23.8395 C   0  0  0  0  0  0  0  0  0  0  0  0
  -30.8251  -14.6127   20.9944 C   0  0  0  0  0  0  0  0  0  0  0  0
  -40.3854  -23.1632   30.9379 C   0  0  0  0  0  0  0  0  0  0  0  0
  -34.5511  -20.7155   28.0250 C   0  0  0  0  0  0  0  0  0  0  0  0
  -35.3530  -20.5064   25.1864 C   0  0  0  0  0  0  0  0  0  0  0  0
  -40.3435  -22.3911   29.6218 C   0  0  0  0  0  0  0  0  0  0  0  0
  -29.5688  -12.5430   18.1945 C   0  0  0  0  0  0  0  0  0  0  0  0
  -39.5669  -23.1741   28.5679 C   0  0  0  0  0  0  0  0  0  0  0  0
  -28.1544  -12.1888   18.6506 C   0  0  0  0  0  0  0  0  0  0  0  0
  -30.5043  -12.7763   19.3769 C   0  0  0  0  0  0  0  0  0  0  0  0
  -28.5946  -13.4376   20.8016 C   0  0  0  0  0  0  0  0  0  0  0  0
  -38.1119  -23.3893   29.0015 C   0  0  1  0  0  0  0  0  0  0  0  0
  -36.0101  -20.5453   27.6131 C   0  0  1  0  0  0  0  0  0  0  0  0
  -27.6154  -13.2418   19.6344 C   0  0  2  0  0  0  0  0  0  0  0  0
  -36.5723  -14.5169   22.7814 C   0  0  0  0  0  0  0  0  0  0  0  0
  -39.2041  -20.4086   24.2754 C   0  0  0  0  0  0  0  0  0  0  0  0
  -39.0273  -18.4775   22.6918 C   0  0  0  0  0  0  0  0  0  0  0  0
  -39.8726  -18.1136   25.0104 C   0  0  0  0  0  0  0  0  0  0  0  0
  -31.2102  -16.8170   22.0299 C   0  0  0  0  0  0  0  0  0  0  0  0
  -33.5801  -15.4168   24.9522 C   0  0  0  0  0  0  0  0  0  0  0  0
  -29.0971  -16.4519   20.8104 C   0  0  0  0  0  0  0  0  0  0  0  0
  -28.7426  -21.4266   20.8951 C   0  0  0  0  0  0  0  0  0  0  0  0
  -29.1114  -22.8771   22.8948 C   0  0  0  0  0  0  0  0  0  0  0  0
  -29.8627  -22.9334   24.2102 C   0  0  0  0  0  0  0  0  0  1  0  0
  -37.4153  -18.5842   24.6465 C   0  0  1  0  0  0  0  0  0  0  0  0
  -35.8473  -15.2093   23.9250 C   0  0  2  0  0  0  0  0  0  0  0  0
  -38.8567  -18.9107   24.1635 C   0  0  0  0  0  0  0  0  0  0  0  0
  -25.8731  -11.6103   20.2547 N   0  0  0  0  0  0  0  0  0  0  0  0
  -26.2194  -12.9021   20.1225 N   0  0  0  0  0  0  0  0  0  0  0  0
  -36.1562  -19.9455   26.2853 N   0  0  0  0  0  0  0  0  0  0  0  0
  -29.9480  -13.7490   20.3179 N   0  0  0  0  0  0  0  0  0  0  0  0
  -25.4073  -15.1116   20.3853 N   0  0  0  0  0  0  0  0  0  0  0  0
  -21.8967  -12.5567   21.6278 N   0  0  0  0  0  0  0  0  0  0  0  0
  -37.3409  -22.1810   28.8011 N   0  0  0  0  0  0  0  0  0  0  0  0
  -37.0682  -17.1689   24.5773 N   0  0  0  0  0  0  0  0  0  0  0  0
  -30.3349  -15.8817   21.3378 N   0  0  0  0  0  0  0  0  0  0  0  0
  -34.4084  -14.8251   23.8703 N   0  3  0  0  0  0  0  0  0  0  0  0
  -29.4455  -21.6120   22.1934 N   0  3  0  0  0  0  0  0  0  0  0  0
  -22.6202  -14.7135   21.3393 O   0  0  0  0  0  0  0  0  0  0  0  0
  -36.8159  -22.4959   26.5543 O   0  0  0  0  0  0  0  0  0  0  0  0
  -37.8677  -18.5198   26.9741 O   0  0  0  0  0  0  0  0  0  0  0  0
  -35.2348  -17.4247   23.1808 O   0  0  0  0  0  0  0  0  0  0  0  0
  -31.9835  -14.2725   21.2670 O   0  0  0  0  0  0  0  0  0  0  0  0
  -21.7491   -6.9887   21.7319 O   0  0  0  0  0  0  0  0  0  0  0  0
  -31.2673  -22.9023   23.9598 O   0  0  0  0  0  0  0  0  0  1  0  0
  -18.8323   -6.7583   26.4056 F   0  0  0  0  0  0  0  0  0  0  0  0
  -22.2714   -5.0535   23.6358 F   0  0  0  0  0  0  0  0  0  0  0  0
  -30.3735  -16.4087   18.0056 Cl  0  0  0  0  0  0  0  0  0  0  0  0
  1  2  1  0  0  0  0
  1  5  2  0  0  0  0
  2  6  2  0  0  0  0
  3  9  2  0  0  0  0
  3 18  1  0  0  0  0
  4 10  1  0  0  0  0
  4 18  2  0  0  0  0
  5 20  1  0  0  0  0
  6 22  1  0  0  0  0
  7 11  2  0  0  0  0
  7 21  1  0  0  0  0
  8 14  2  0  0  0  0
  8 24  1  0  0  0  0
  9 26  1  0  0  0  0
 10 26  2  0  0  0  0
 11 27  1  0  0  0  0
 12 13  2  0  0  0  0
 12 28  1  0  0  0  0
 13 29  1  0  0  0  0
 14 31  1  0  0  0  0
 15 23  1  0  0  0  0
 15 27  2  0  0  0  0
 16 24  2  0  0  0  0
 16 25  1  0  0  0  0
 17 29  2  0  0  0  0
 17 30  1  0  0  0  0
 18 32  1  0  0  0  0
 19 32  1  0  0  0  0
 19 33  2  0  0  0  0
 19 34  1  0  0  0  0
 20 22  2  0  0  0  0
 20 39  1  0  0  0  0
 21 23  2  0  0  0  0
 21 40  1  0  0  0  0
 22 48  1  0  0  0  0
 23 41  1  0  0  0  0
 24 58  1  0  0  0  0
 25 31  2  0  0  0  0
 25 57  1  0  0  0  0
 26 80  1  0  0  0  0
 27 81  1  0  0  0  0
 28 30  2  0  0  0  0
 28 80  1  0  0  0  0
 29 82  1  0  0  0  0
 30 83  1  0  0  0  0
 31 84  1  0  0  0  0
 32 64  2  0  0  0  0
 33 65  1  0  0  0  0
 33 68  1  0  0  0  0
 34 69  1  0  0  0  0
 34 75  2  0  0  0  0
 35 49  1  0  0  0  0
 35 70  1  0  0  0  0
 35 76  2  0  0  0  0
 36 61  1  0  0  0  0
 36 66  1  0  0  0  0
 36 77  2  0  0  0  0
 37 62  1  0  0  0  0
 37 71  1  0  0  0  0
 37 78  2  0  0  0  0
 38 67  1  0  0  0  0
 38 72  1  0  0  0  0
 38 79  2  0  0  0  0
 39 42  1  0  0  0  0
 40 49  1  0  0  0  0
 41 66  1  0  0  0  0
 42 44  1  0  0  0  0
 43 45  1  0  0  0  0
 43 46  1  0  0  0  0
 44 48  1  0  0  0  0
 45 50  1  0  0  0  0
 46 67  1  0  0  0  0
 47 50  1  0  0  0  0
 47 67  1  0  0  0  0
 48 70  1  0  0  0  0
 49 66  1  0  0  0  0
 50 65  1  0  0  0  0
 51 62  1  0  0  0  0
 52 63  1  0  0  0  0
 53 63  1  0  0  0  0
 54 63  1  0  0  0  0
 55 72  1  0  0  0  0
 56 73  1  0  0  0  0
 57 72  1  0  0  0  0
 58 74  1  0  0  0  0
 59 60  1  0  0  0  0
 59 74  1  0  0  0  0
 60 81  1  0  0  0  0
 61 63  1  0  0  0  0
 61 71  1  0  0  0  0
 62 73  1  0  0  0  0
 64 65  1  0  0  0  0
M  CHG  2  73   1  74   1
M  ISO  4  38 100  60 101  72 100  81 101
M  END
> <Batch ID>
0031

> <Smiles>
CNC(C)C(=O)NC(C(=O)N1Cc2cc([101O:1][101CH2:1]CNCc3ccc(Cl)c(C[100N:0](C)[100C:0](=O)N4CCCC(n5nc(-c6ccc(Oc7ccc(F)cc7F)cc6)c(C(N)=O)c5N)C4)c3)ccc2CC1C(=O)NC1CCCc2ccccc21)C(C)(C)C

> <Shape>
0.211

> <Color>
0.177

> <Negative vol penalty>
0.000

$$$$

  -OEChem-04042321393D

 85 94  0     1  0  0  0  0  0999 V2000
  -18.0431  -24.4997   21.4303 C   0  0  0  0  0  0  0  0  0  0  0  0
  -19.4159  -24.2947   21.3360 C   0  0  0  0  0  0  0  0  0  0  0  0
  -24.2728  -13.8559   21.3929 C   0  0  0  0  0  0  0  0  0  0  0  0
  -26.3538  -13.7136   20.1737 C   0  0  0  0  0  0  0  0  0  0  0  0
  -17.5512  -25.7337   21.8536 C   0  0  0  0  0  0  0  0  0  0  0  0
  -20.2976  -25.3240   21.6641 C   0  0  0  0  0  0  0  0  0  0  0  0
  -25.7982  -24.7604   24.2969 C   0  0  0  0  0  0  0  0  0  0  0  0
  -31.7275  -23.5847   19.6301 C   0  0  0  0  0  0  0  0  0  0  0  0
  -23.8948  -12.6097   20.8932 C   0  0  0  0  0  0  0  0  0  0  0  0
  -25.9758  -12.4673   19.6740 C   0  0  0  0  0  0  0  0  0  0  0  0
  -27.0911  -24.7499   23.7753 C   0  0  0  0  0  0  0  0  0  0  0  0
  -24.5693   -9.3593   21.5359 C   0  0  0  0  0  0  0  0  0  0  0  0
  -24.0187   -8.4419   22.4308 C   0  0  0  0  0  0  0  0  0  0  0  0
  -31.7804  -22.1937   19.5406 C   0  0  0  0  0  0  0  0  0  0  0  0
  -27.3005  -27.1031   24.2628 C   0  0  0  0  0  0  0  0  0  0  0  0
  -29.7882  -23.6037   18.1894 C   0  0  0  0  0  0  0  0  0  0  0  0
  -21.9886   -8.3838   21.1222 C   0  0  0  0  0  0  0  0  0  0  0  0
  -25.5023  -14.4078   21.0331 C   0  0  0  0  0  0  0  0  0  0  0  0
  -26.6058  -15.9557   22.7343 C   0  0  0  0  0  0  0  0  0  0  0  0
  -18.4275  -26.7755   22.1962 C   0  0  0  0  0  0  0  0  0  0  0  0
  -25.2418  -25.9468   24.7962 C   0  0  0  0  0  0  0  0  0  0  0  0
  -19.8169  -26.5735   22.0911 C   0  0  0  0  0  0  0  0  0  0  0  0
  -26.0013  -27.1255   24.7925 C   0  0  0  0  0  0  0  0  0  0  0  0
  -30.7313  -24.2897   18.9546 C   0  0  0  0  0  0  0  0  0  0  0  0
  -29.8411  -22.2127   18.0998 C   0  0  0  0  0  0  0  0  0  0  0  0
  -24.7463  -11.9154   20.0338 C   0  0  0  0  0  0  0  0  0  0  0  0
  -27.8414  -25.9219   23.7555 C   0  0  0  0  0  0  0  0  0  0  0  0
  -23.8296   -9.7890   20.4342 C   0  0  0  0  0  0  0  0  0  0  0  0
  -22.7284   -7.9541   22.2239 C   0  0  0  0  0  0  0  0  0  0  0  0
  -22.5393   -9.3012   20.2273 C   0  0  0  0  0  0  0  0  0  0  0  0
  -30.8372  -21.5078   18.7754 C   0  0  0  0  0  0  0  0  0  0  0  0
  -25.8931  -15.6954   21.5485 C   0  0  0  0  0  0  0  0  0  0  0  0
  -26.7222  -17.3238   22.7716 C   0  0  0  0  0  0  0  0  0  0  0  0
  -30.7432  -26.5477   21.4859 C   0  0  0  0  0  0  0  0  0  0  0  0
  -27.1171  -15.0426   23.7143 C   0  0  0  0  0  0  0  0  0  0  0  0
  -22.7363  -27.7461   24.0288 C   0  0  0  0  0  0  0  0  0  0  0  0
  -23.5672  -29.3630   26.7154 C   0  0  0  0  0  0  0  0  0  0  0  0
  -26.0005  -30.2003   28.9571 C   0  0  0  0  0  0  0  0  0  0  0  0
  -26.6668  -21.5381   18.5187 C   0  0  0  0  0  0  0  0  0  0  0  0
  -17.8480  -28.1072   22.6034 C   0  0  0  0  0  0  0  0  0  0  0  0
  -23.8556  -25.9357   25.3800 C   0  0  0  0  0  0  0  0  0  0  0  0
  -25.4574  -28.4210   25.3351 C   0  0  0  0  0  0  0  0  0  0  0  0
  -18.8554  -29.0251   23.2911 C   0  0  0  0  0  0  0  0  0  0  0  0
  -24.5017  -21.3112   21.3360 C   0  0  0  0  0  0  0  0  0  0  0  0
  -20.1691  -29.0516   22.5164 C   0  0  0  0  0  0  0  0  0  0  0  0
  -24.6771  -19.8697   21.8169 C   0  0  0  0  0  0  0  0  0  0  0  0
  -24.5587  -21.4089   19.8131 C   0  0  0  0  0  0  0  0  0  0  0  0
  -28.7833  -26.3292   20.7678 C   0  0  0  0  0  0  0  0  0  0  0  0
  -25.9331  -19.3677   19.6794 C   0  0  0  0  0  0  0  0  0  0  0  0
  -20.8056  -27.6575   22.4619 C   0  0  1  0  0  0  0  0  0  0  0  0
  -29.3599  -26.7707   22.1340 C   0  0  1  0  0  0  0  0  0  1  0  0
  -23.2007  -27.3135   25.3908 C   0  0  1  0  0  0  0  0  0  0  0  0
  -25.9389  -19.2261   21.2112 C   0  0  2  0  0  0  0  0  0  0  0  0
  -26.3875  -31.5684   31.0249 C   0  0  0  0  0  0  0  0  0  0  0  0
  -23.6007  -31.9034   25.0256 C   0  0  0  0  0  0  0  0  0  0  0  0
  -24.8838  -33.0237   26.8605 C   0  0  0  0  0  0  0  0  0  0  0  0
  -22.5794  -32.1718   27.2926 C   0  0  0  0  0  0  0  0  0  0  0  0
  -26.7407  -27.8113   30.5393 C   0  0  0  0  0  0  0  0  0  0  0  0
  -30.6748  -25.7869   19.0511 C   0  0  0  0  0  0  0  0  0  0  0  0
  -28.8118  -21.5151   17.2706 C   0  0  0  0  0  0  0  0  0  0  0  0
  -24.4794  -30.5256   27.0244 C   0  0  1  0  0  0  0  0  0  0  0  0
  -26.0148  -30.2004   30.4750 C   0  0  2  0  0  0  0  0  0  0  0  0
  -23.8957  -31.8823   26.5387 C   0  0  0  0  0  0  0  0  0  0  0  0
  -25.5787  -16.8087   20.8809 N   0  0  0  0  0  0  0  0  0  0  0  0
  -26.0962  -17.7819   21.6498 N   0  0  0  0  0  0  0  0  0  0  0  0
  -30.1582  -26.2230   20.3118 N   0  0  0  0  0  0  0  0  0  0  0  0
  -24.0949  -28.3604   25.8895 N   0  0  0  0  0  0  0  0  0  0  0  0
  -25.7799  -20.7816   19.3023 N   0  0  0  0  0  0  0  0  0  0  0  0
  -27.2979  -18.1675   23.6542 N   0  0  0  0  0  0  0  0  0  0  0  0
  -26.9093  -13.6700   23.5213 N   0  0  0  0  0  0  0  0  0  0  0  0
  -21.4501  -27.3466   23.7198 N   0  0  0  0  0  0  0  0  0  0  0  0
  -24.7431  -30.4675   28.4581 N   0  0  0  0  0  0  0  0  0  0  0  0
  -27.8030  -20.8690   18.0804 N   0  0  0  0  0  0  0  0  0  0  0  0
  -27.0003  -29.2049   30.9838 N   0  3  0  0  0  0  0  0  0  0  0  0
  -31.8966  -26.6139   21.8437 O   0  0  0  0  0  0  0  0  0  0  0  0
  -27.7254  -15.4332   24.7394 O   0  0  0  0  0  0  0  0  0  0  0  0
  -23.4886  -28.3957   23.3121 O   0  0  0  0  0  0  0  0  0  0  0  0
  -22.4310  -29.3418   27.1951 O   0  0  0  0  0  0  0  0  0  0  0  0
  -27.0051  -29.9885   28.2815 O   0  0  0  0  0  0  0  0  0  0  0  0
  -26.4638  -22.7237   18.2353 O   0  0  0  0  0  0  0  0  0  0  0  0
  -24.3779  -10.6992   19.5462 O   0  0  0  0  0  0  0  0  0  0  0  0
  -29.1033  -25.9146   23.2464 O   0  0  0  0  0  0  0  0  0  1  0  0
  -22.2003   -7.0720   23.0825 F   0  0  0  0  0  0  0  0  0  0  0  0
  -21.8242   -9.7094   19.1700 F   0  0  0  0  0  0  0  0  0  0  0  0
  -30.9336  -19.7867   18.6878 Cl  0  0  0  0  0  0  0  0  0  0  0  0
  1  2  1  0  0  0  0
  1  5  2  0  0  0  0
  2  6  2  0  0  0  0
  3  9  2  0  0  0  0
  3 18  1  0  0  0  0
  4 10  1  0  0  0  0
  4 18  2  0  0  0  0
  5 20  1  0  0  0  0
  6 22  1  0  0  0  0
  7 11  2  0  0  0  0
  7 21  1  0  0  0  0
  8 14  2  0  0  0  0
  8 24  1  0  0  0  0
  9 26  1  0  0  0  0
 10 26  2  0  0  0  0
 11 27  1  0  0  0  0
 12 13  2  0  0  0  0
 12 28  1  0  0  0  0
 13 29  1  0  0  0  0
 14 31  1  0  0  0  0
 15 23  1  0  0  0  0
 15 27  2  0  0  0  0
 16 24  2  0  0  0  0
 16 25  1  0  0  0  0
 17 29  2  0  0  0  0
 17 30  1  0  0  0  0
 18 32  1  0  0  0  0
 19 32  1  0  0  0  0
 19 33  2  0  0  0  0
 19 35  1  0  0  0  0
 20 22  2  0  0  0  0
 20 40  1  0  0  0  0
 21 23  2  0  0  0  0
 21 41  1  0  0  0  0
 22 50  1  0  0  0  0
 23 42  1  0  0  0  0
 24 59  1  0  0  0  0
 25 31  2  0  0  0  0
 25 60  1  0  0  0  0
 26 81  1  0  0  0  0
 27 82  1  0  0  0  0
 28 30  2  0  0  0  0
 28 81  1  0  0  0  0
 29 83  1  0  0  0  0
 30 84  1  0  0  0  0
 31 85  1  0  0  0  0
 32 64  2  0  0  0  0
 33 65  1  0  0  0  0
 33 69  1  0  0  0  0
 34 51  1  0  0  0  0
 34 66  1  0  0  0  0
 34 75  2  0  0  0  0
 35 70  1  0  0  0  0
 35 76  2  0  0  0  0
 36 52  1  0  0  0  0
 36 71  1  0  0  0  0
 36 77  2  0  0  0  0
 37 61  1  0  0  0  0
 37 67  1  0  0  0  0
 37 78  2  0  0  0  0
 38 62  1  0  0  0  0
 38 72  1  0  0  0  0
 38 79  2  0  0  0  0
 39 68  1  0  0  0  0
 39 73  1  0  0  0  0
 39 80  2  0  0  0  0
 40 43  1  0  0  0  0
 41 52  1  0  0  0  0
 42 67  1  0  0  0  0
 43 45  1  0  0  0  0
 44 46  1  0  0  0  0
 44 47  1  0  0  0  0
 45 50  1  0  0  0  0
 46 53  1  0  0  0  0
 47 68  1  0  0  0  0
 48 51  1  0  0  0  0
 48 66  1  0  0  0  0
 49 53  1  0  0  0  0
 49 68  1  0  0  0  0
 50 71  1  0  0  0  0
 51 82  1  0  0  0  0
 52 67  1  0  0  0  0
 53 65  1  0  0  0  0
 54 62  1  0  0  0  0
 55 63  1  0  0  0  0
 56 63  1  0  0  0  0
 57 63  1  0  0  0  0
 58 74  1  0  0  0  0
 59 66  1  0  0  0  0
 60 73  1  0  0  0  0
 61 63  1  0  0  0  0
 61 72  1  0  0  0  0
 62 74  1  0  0  0  0
 64 65  1  0  0  0  0
M  CHG  1  74   1
M  ISO  4  39 100  51 101  73 100  82 101
M  END
> <Batch ID>
0031

> <Smiles>
CNC(C)C(=O)NC(C(=O)N1Cc2cc([101O:1][101CH:1]3CN(Cc4ccc(Cl)c(C[100NH:0][100C:0](=O)N5CCCC(n6nc(-c7ccc(Oc8ccc(F)cc8F)cc7)c(C(N)=O)c6N)C5)c4)C3=O)ccc2CC1C(=O)NC1CCCc2ccccc21)C(C)(C)C

> <Shape>
0.208

> <Color>
0.066

> <Negative vol penalty>
0.000

$$$$

  -OEChem-04042321393D

 84 92  0     1  0  0  0  0  0999 V2000
  -22.7242  -32.0521   26.1096 C   0  0  0  0  0  0  0  0  0  0  0  0
  -23.6584  -31.2157   25.5069 C   0  0  0  0  0  0  0  0  0  0  0  0
  -24.1740  -12.3752   21.2637 C   0  0  0  0  0  0  0  0  0  0  0  0
  -26.5634  -12.4945   20.9264 C   0  0  0  0  0  0  0  0  0  0  0  0
  -21.3617  -31.8052   25.9469 C   0  0  0  0  0  0  0  0  0  0  0  0
  -23.2305  -30.1312   24.7420 C   0  0  0  0  0  0  0  0  0  0  0  0
  -25.7703  -29.7070   20.3815 C   0  0  0  0  0  0  0  0  0  0  0  0
  -24.2221  -10.9892   21.1143 C   0  0  0  0  0  0  0  0  0  0  0  0
  -26.6115  -11.1085   20.7771 C   0  0  0  0  0  0  0  0  0  0  0  0
  -27.0480  -29.1522   20.4402 C   0  0  0  0  0  0  0  0  0  0  0  0
  -25.0741   -8.3095   22.9922 C   0  0  0  0  0  0  0  0  0  0  0  0
  -24.3602   -7.5339   23.9057 C   0  0  0  0  0  0  0  0  0  0  0  0
  -26.1569  -27.0365   19.6991 C   0  0  0  0  0  0  0  0  0  0  0  0
  -30.0171  -22.8648   21.4642 C   0  0  0  0  0  0  0  0  0  0  0  0
  -28.6986  -22.7216   19.0098 C   0  0  0  0  0  0  0  0  0  0  0  0
  -23.0545   -6.6057   22.0973 C   0  0  0  0  0  0  0  0  0  0  0  0
  -25.3447  -13.1279   21.1697 C   0  0  0  0  0  0  0  0  0  0  0  0
  -25.4280  -15.2914   22.5186 C   0  0  0  0  0  0  0  0  0  0  0  0
  -20.9168  -30.7228   25.1716 C   0  0  0  0  0  0  0  0  0  0  0  0
  -24.6727  -28.9265   19.9909 C   0  0  0  0  0  0  0  0  0  0  0  0
  -21.8607  -29.8688   24.5698 C   0  0  0  0  0  0  0  0  0  0  0  0
  -24.8667  -27.5845   19.6338 C   0  0  0  0  0  0  0  0  0  0  0  0
  -30.3974  -23.7054   20.4181 C   0  0  0  0  0  0  0  0  0  0  0  0
  -28.3183  -21.8810   20.0559 C   0  0  0  0  0  0  0  0  0  0  0  0
  -25.4409  -10.3558   20.8711 C   0  0  0  0  0  0  0  0  0  0  0  0
  -27.2410  -27.8160   20.1018 C   0  0  0  0  0  0  0  0  0  0  0  0
  -24.7781   -8.2333   21.6312 C   0  0  0  0  0  0  0  0  0  0  0  0
  -23.3505   -6.6820   23.4583 C   0  0  0  0  0  0  0  0  0  0  0  0
  -29.7382  -23.6339   19.1910 C   0  0  0  0  0  0  0  0  0  0  0  0
  -23.7683   -7.3814   21.1838 C   0  0  0  0  0  0  0  0  0  0  0  0
  -28.9775  -21.9525   21.2831 C   0  0  0  0  0  0  0  0  0  0  0  0
  -25.2956  -14.5597   21.3233 C   0  0  0  0  0  0  0  0  0  0  0  0
  -25.3088  -16.6041   22.1326 C   0  0  0  0  0  0  0  0  0  0  0  0
  -25.6399  -14.8262   23.8581 C   0  0  0  0  0  0  0  0  0  0  0  0
  -21.9698  -28.0005   21.3838 C   0  0  0  0  0  0  0  0  0  0  0  0
  -21.3176  -26.8070   18.4389 C   0  0  0  0  0  0  0  0  0  0  0  0
  -22.5007  -25.6678   15.4473 C   0  0  0  0  0  0  0  0  0  0  0  0
  -26.5198  -20.7917   18.6683 C   0  0  0  0  0  0  0  0  0  0  0  0
  -19.4342  -30.4682   25.0634 C   0  0  0  0  0  0  0  0  0  0  0  0
  -23.3051  -29.5470   19.9070 C   0  0  0  0  0  0  0  0  0  0  0  0
  -23.7247  -26.7093   19.1885 C   0  0  0  0  0  0  0  0  0  0  0  0
  -19.0606  -29.5177   23.9288 C   0  0  0  0  0  0  0  0  0  0  0  0
  -23.8600  -18.6220   17.7223 C   0  0  0  0  0  0  0  0  0  0  0  0
  -19.9726  -28.2949   23.9346 C   0  0  0  0  0  0  0  0  0  0  0  0
  -24.0072  -17.4319   18.6731 C   0  0  0  0  0  0  0  0  0  0  0  0
  -25.2172  -19.1797   17.2973 C   0  0  0  0  0  0  0  0  0  0  0  0
  -26.2715  -18.3249   19.3532 C   0  0  0  0  0  0  0  0  0  0  0  0
  -21.4356  -28.6968   23.7121 C   0  0  1  0  0  0  0  0  0  0  0  0
  -22.1779  -28.5224   19.9903 C   0  0  1  0  0  0  0  0  0  0  0  0
  -24.9304  -17.7699   19.8602 C   0  0  2  0  0  0  0  0  0  0  0  0
  -21.7284  -24.7251   13.2537 C   0  0  0  0  0  0  0  0  0  0  0  0
  -20.7912  -24.1185   19.7824 C   0  0  0  0  0  0  0  0  0  0  0  0
  -20.9656  -23.0379   17.5307 C   0  0  0  0  0  0  0  0  0  0  0  0
  -19.1722  -24.7147   17.9719 C   0  0  0  0  0  0  0  0  0  0  0  0
  -23.6729  -27.9241   13.9328 C   0  0  0  0  0  0  0  0  0  0  0  0
  -32.2561  -26.9875   20.0209 C   0  0  0  0  0  0  0  0  0  0  0  0
  -31.5159  -24.6856   20.6161 C   0  0  0  0  0  0  0  0  0  0  0  0
  -30.3453  -26.6589   21.5839 C   0  0  0  0  0  0  0  0  0  0  0  0
  -29.4378  -27.7822   21.1227 C   0  0  0  0  0  0  0  0  0  1  0  0
  -21.5664  -25.4928   17.7388 C   0  0  1  0  0  0  0  0  0  0  0  0
  -22.0994  -25.9862   14.0183 C   0  0  2  0  0  0  0  0  0  0  0  0
  -20.6453  -24.3567   18.2662 C   0  0  0  0  0  0  0  0  0  0  0  0
  -25.1066  -15.3425   20.2577 N   0  0  0  0  0  0  0  0  0  0  0  0
  -25.1193  -16.5798   20.7821 N   0  0  0  0  0  0  0  0  0  0  0  0
  -22.4056  -27.3604   19.1288 N   0  0  0  0  0  0  0  0  0  0  0  0
  -26.0357  -19.4807   18.4739 N   0  0  0  0  0  0  0  0  0  0  0  0
  -25.3486  -17.7653   22.8199 N   0  0  0  0  0  0  0  0  0  0  0  0
  -25.7391  -13.4455   24.0780 N   0  0  0  0  0  0  0  0  0  0  0  0
  -27.2586  -20.9659   19.8381 N   0  0  0  0  0  0  0  0  0  0  0  0
  -21.6748  -28.9797   22.3131 N   0  0  0  0  0  0  0  0  0  0  0  0
  -21.4296  -25.7587   16.3109 N   0  0  0  0  0  0  0  0  0  0  0  0
  -23.2213  -26.6569   13.3025 N   0  3  0  0  0  0  0  0  0  0  0  0
  -31.0881  -26.1187   20.4174 N   0  3  1  0  0  0  0  0  0  0  0  0
  -25.7219  -15.6106   24.8335 O   0  0  0  0  0  0  0  0  0  0  0  0
  -22.0679  -26.7982   21.5997 O   0  0  0  0  0  0  0  0  0  0  0  0
  -20.2011  -27.3269   18.3701 O   0  0  0  0  0  0  0  0  0  0  0  0
  -23.6487  -25.3649   15.7651 O   0  0  0  0  0  0  0  0  0  0  0  0
  -26.2726  -21.6998   17.8707 O   0  0  0  0  0  0  0  0  0  0  0  0
  -25.4882   -9.0034   20.7255 O   0  0  0  0  0  0  0  0  0  0  0  0
  -28.4870  -27.2718   20.1589 O   0  0  0  0  0  0  0  0  0  1  0  0
  -22.6661   -5.9361   24.3354 F   0  0  0  0  0  0  0  0  0  0  0  0
  -30.0969  -24.4375   18.1799 F   0  0  0  0  0  0  0  0  0  0  0  0
  -23.4802   -7.3030   19.8774 F   0  0  0  0  0  0  0  0  0  0  0  0
  -28.5389  -20.9298   22.6047 Cl  0  0  0  0  0  0  0  0  0  0  0  0
  1  2  1  0  0  0  0
  1  5  2  0  0  0  0
  2  6  2  0  0  0  0
  3  8  2  0  0  0  0
  3 17  1  0  0  0  0
  4  9  1  0  0  0  0
  4 17  2  0  0  0  0
  5 19  1  0  0  0  0
  6 21  1  0  0  0  0
  7 10  2  0  0  0  0
  7 20  1  0  0  0  0
  8 25  1  0  0  0  0
  9 25  2  0  0  0  0
 10 26  1  0  0  0  0
 11 12  2  0  0  0  0
 11 27  1  0  0  0  0
 12 28  1  0  0  0  0
 13 22  1  0  0  0  0
 13 26  2  0  0  0  0
 14 23  1  0  0  0  0
 14 31  2  0  0  0  0
 15 24  2  0  0  0  0
 15 29  1  0  0  0  0
 16 28  2  0  0  0  0
 16 30  1  0  0  0  0
 17 32  1  0  0  0  0
 18 32  1  0  0  0  0
 18 33  2  0  0  0  0
 18 34  1  0  0  0  0
 19 21  2  0  0  0  0
 19 39  1  0  0  0  0
 20 22  2  0  0  0  0
 20 40  1  0  0  0  0
 21 48  1  0  0  0  0
 22 41  1  0  0  0  0
 23 29  2  0  0  0  0
 23 57  1  0  0  0  0
 24 31  1  0  0  0  0
 24 69  1  0  0  0  0
 25 79  1  0  0  0  0
 26 80  1  0  0  0  0
 27 30  2  0  0  0  0
 27 79  1  0  0  0  0
 28 81  1  0  0  0  0
 29 82  1  0  0  0  0
 30 83  1  0  0  0  0
 31 84  1  0  0  0  0
 32 63  2  0  0  0  0
 33 64  1  0  0  0  0
 33 67  1  0  0  0  0
 34 68  1  0  0  0  0
 34 74  2  0  0  0  0
 35 49  1  0  0  0  0
 35 70  1  0  0  0  0
 35 75  2  0  0  0  0
 36 60  1  0  0  0  0
 36 65  1  0  0  0  0
 36 76  2  0  0  0  0
 37 61  1  0  0  0  0
 37 71  1  0  0  0  0
 37 77  2  0  0  0  0
 38 66  1  0  0  0  0
 38 69  1  0  0  0  0
 38 78  2  0  0  0  0
 39 42  1  0  0  0  0
 40 49  1  0  0  0  0
 41 65  1  0  0  0  0
 42 44  1  0  0  0  0
 43 45  1  0  0  0  0
 43 46  1  0  0  0  0
 44 48  1  0  0  0  0
 45 50  1  0  0  0  0
 46 66  1  0  0  0  0
 47 50  1  0  0  0  0
 47 66  1  0  0  0  0
 48 70  1  0  0  0  0
 49 65  1  0  0  0  0
 50 64  1  0  0  0  0
 51 61  1  0  0  0  0
 52 62  1  0  0  0  0
 53 62  1  0  0  0  0
 54 62  1  0  0  0  0
 55 72  1  0  0  0  0
 56 73  1  0  0  0  0
 57 73  1  0  0  0  0
 58 59  1  0  0  0  0
 58 73  1  0  0  0  0
 59 80  1  0  0  0  0
 60 62  1  0  0  0  0
 60 71  1  0  0  0  0
 61 72  1  0  0  0  0
 63 64  1  0  0  0  0
M  CHG  2  72   1  73   1
M  ISO  4  38 100  59 101  69 100  80 101
M  END
> <Batch ID>
0031

> <Smiles>
CNC(C)C(=O)NC(C(=O)N1Cc2cc([101O:1][101CH2:1]CN(C)Cc3cc(Cl)c([100NH:0][100C:0](=O)N4CCCC(n5nc(-c6ccc(Oc7ccc(F)cc7F)cc6)c(C(N)=O)c5N)C4)cc3F)ccc2CC1C(=O)NC1CCCc2ccccc21)C(C)(C)C

> <Shape>
0.230

> <Color>
0.072

> <Negative vol penalty>
0.000

$$$$

  -OEChem-04042321393D

 87 96  0     1  0  0  0  0  0999 V2000
  -30.4988  -25.1560   17.5773 C   0  0  0  0  0  0  0  0  0  0  0  0
  -29.1117  -25.1227   17.6787 C   0  0  0  0  0  0  0  0  0  0  0  0
  -23.7538  -25.8744   23.4897 C   0  0  0  0  0  0  0  0  0  0  0  0
  -27.1104  -15.2483   18.9251 C   0  0  0  0  0  0  0  0  0  0  0  0
  -25.5698  -15.8383   20.6902 C   0  0  0  0  0  0  0  0  0  0  0  0
  -31.2594  -25.6987   18.6121 C   0  0  0  0  0  0  0  0  0  0  0  0
  -28.4845  -25.6312   18.8156 C   0  0  0  0  0  0  0  0  0  0  0  0
  -23.0853  -28.5109   19.0643 C   0  0  0  0  0  0  0  0  0  0  0  0
  -22.4303  -25.4344   23.5002 C   0  0  0  0  0  0  0  0  0  0  0  0
  -24.7955  -24.9500   23.4100 C   0  0  0  0  0  0  0  0  0  0  0  0
  -26.9435  -13.8977   19.2308 C   0  0  0  0  0  0  0  0  0  0  0  0
  -25.4029  -14.4876   20.9959 C   0  0  0  0  0  0  0  0  0  0  0  0
  -21.8034  -28.0738   19.3952 C   0  0  0  0  0  0  0  0  0  0  0  0
  -27.1986  -10.3124   19.7826 C   0  0  0  0  0  0  0  0  0  0  0  0
  -28.3413   -9.5154   19.8507 C   0  0  0  0  0  0  0  0  0  0  0  0
  -22.1232  -28.8636   21.6520 C   0  0  0  0  0  0  0  0  0  0  0  0
  -29.2102  -10.9124   21.6201 C   0  0  0  0  0  0  0  0  0  0  0  0
  -26.4236  -16.2187   19.6548 C   0  0  0  0  0  0  0  0  0  0  0  0
  -26.3163  -18.2501   18.1154 C   0  0  0  0  0  0  0  0  0  0  0  0
  -30.6407  -26.2229   19.7580 C   0  0  0  0  0  0  0  0  0  0  0  0
  -23.9012  -29.1189   20.0292 C   0  0  0  0  0  0  0  0  0  0  0  0
  -29.2376  -26.1802   19.8673 C   0  0  0  0  0  0  0  0  0  0  0  0
  -23.4141  -29.3099   21.3301 C   0  0  0  0  0  0  0  0  0  0  0  0
  -22.1483  -24.0700   23.4313 C   0  0  0  0  0  0  0  0  0  0  0  0
  -23.1899  -23.1457   23.3517 C   0  0  0  0  0  0  0  0  0  0  0  0
  -24.5135  -23.5857   23.3411 C   0  0  0  0  0  0  0  0  0  0  0  0
  -26.0897  -13.5173   20.2662 C   0  0  0  0  0  0  0  0  0  0  0  0
  -21.3233  -28.2475   20.6899 C   0  0  0  0  0  0  0  0  0  0  0  0
  -27.0618  -11.4095   20.6331 C   0  0  0  0  0  0  0  0  0  0  0  0
  -29.3470   -9.8153   20.7695 C   0  0  0  0  0  0  0  0  0  0  0  0
  -28.0675  -11.7095   21.5518 C   0  0  0  0  0  0  0  0  0  0  0  0
  -26.5960  -17.6141   19.3398 C   0  0  0  0  0  0  0  0  0  0  0  0
  -26.6477  -19.5658   18.3284 C   0  0  0  0  0  0  0  0  0  0  0  0
  -19.3429  -25.4224   22.4562 C   0  0  0  0  0  0  0  0  0  0  0  0
  -25.8026  -17.7006   16.8948 C   0  0  0  0  0  0  0  0  0  0  0  0
  -26.7079  -28.4276   21.3514 C   0  0  0  0  0  0  0  0  0  0  0  0
  -26.3377  -31.3417   22.7274 C   0  0  0  0  0  0  0  0  0  0  0  0
  -24.2206  -33.8178   23.7438 C   0  0  0  0  0  0  0  0  0  0  0  0
  -26.9506  -22.9559   23.2396 C   0  0  0  0  0  0  0  0  0  0  0  0
  -31.5072  -26.7563   20.8712 C   0  0  0  0  0  0  0  0  0  0  0  0
  -25.2715  -29.6090   19.6493 C   0  0  0  0  0  0  0  0  0  0  0  0
  -24.2427  -29.9752   22.3974 C   0  0  0  0  0  0  0  0  0  0  0  0
  -30.7457  -27.6148   21.8778 C   0  0  0  0  0  0  0  0  0  0  0  0
  -18.9086  -23.6662   20.0922 C   0  0  0  0  0  0  0  0  0  0  0  0
  -29.5828  -22.3145   20.9293 C   0  0  0  0  0  0  0  0  0  0  0  0
  -29.4428  -26.9330   22.2832 C   0  0  0  0  0  0  0  0  0  0  0  0
  -17.9274  -24.7449   20.5261 C   0  0  0  0  0  0  0  0  0  0  0  0
  -29.0874  -21.0979   20.1440 C   0  0  0  0  0  0  0  0  0  0  0  0
  -20.0838  -23.4858   21.0492 C   0  0  0  0  0  0  0  0  0  0  0  0
  -29.1783  -22.2428   22.4007 C   0  0  0  0  0  0  0  0  0  0  0  0
  -27.2507  -20.8088   21.8557 C   0  0  0  0  0  0  0  0  0  0  0  0
  -28.5192  -26.7445   21.0737 C   0  0  1  0  0  0  0  0  0  0  0  0
  -18.6188  -25.9170   21.2143 C   0  0  2  0  0  0  0  0  0  0  0  0
  -26.2081  -29.7511   20.8452 C   0  0  1  0  0  0  0  0  0  0  0  0
  -27.5780  -20.8676   20.3547 C   0  0  2  0  0  0  0  0  0  0  0  0
  -22.8824  -21.6828   23.2778 C   0  0  0  0  0  0  0  0  0  0  0  0
  -24.2087  -36.0606   24.8696 C   0  0  0  0  0  0  0  0  0  0  0  0
  -26.7950  -29.9881   25.4234 C   0  0  0  0  0  0  0  0  0  0  0  0
  -25.8472  -32.0250   26.5283 C   0  0  0  0  0  0  0  0  0  0  0  0
  -27.9272  -32.2027   25.1627 C   0  0  0  0  0  0  0  0  0  0  0  0
  -23.0372  -35.1322   21.3708 C   0  0  0  0  0  0  0  0  0  0  0  0
  -20.7149  -23.6236   23.4444 C   0  0  0  0  0  0  0  0  0  0  0  0
  -19.5654  -26.6927   20.3046 C   0  0  0  0  0  0  0  0  0  1  0  0
  -25.7089  -31.8499   24.0022 C   0  0  1  0  0  0  0  0  0  0  0  0
  -24.2586  -35.3218   23.5413 C   0  0  2  0  0  0  0  0  0  0  0  0
  -26.5544  -31.5021   25.2598 C   0  0  0  0  0  0  0  0  0  0  0  0
  -27.0689  -18.4564   20.2622 N   0  0  0  0  0  0  0  0  0  0  0  0
  -27.0890  -19.6352   19.6170 N   0  0  0  0  0  0  0  0  0  0  0  0
  -19.9613  -24.1787   22.3296 N   0  0  0  0  0  0  0  0  0  0  0  0
  -25.5783  -30.4315   21.9786 N   0  0  0  0  0  0  0  0  0  0  0  0
  -27.7348  -22.0276   22.5227 N   0  0  0  0  0  0  0  0  0  0  0  0
  -26.6020  -20.6586   17.5371 N   0  0  0  0  0  0  0  0  0  0  0  0
  -24.4140  -17.6725   16.7070 N   0  0  0  0  0  0  0  0  0  0  0  0
  -25.5871  -22.6645   23.2603 N   0  0  0  0  0  0  0  0  0  0  0  0
  -27.8663  -27.9915   20.7372 N   0  0  0  0  0  0  0  0  0  0  0  0
  -25.4881  -33.2788   23.8071 N   0  0  0  0  0  0  0  0  0  0  0  0
  -23.0997  -35.7626   22.7145 N   0  3  0  0  0  0  0  0  0  0  0  0
  -19.3683  -26.1184   23.4730 O   0  0  0  0  0  0  0  0  0  0  0  0
  -26.5522  -17.2329   16.0043 O   0  0  0  0  0  0  0  0  0  0  0  0
  -26.0892  -27.8459   22.2349 O   0  0  0  0  0  0  0  0  0  0  0  0
  -27.4584  -31.7432   22.4040 O   0  0  0  0  0  0  0  0  0  0  0  0
  -23.1714  -33.1851   23.8403 O   0  0  0  0  0  0  0  0  0  0  0  0
  -27.4481  -23.9518   23.7715 O   0  0  0  0  0  0  0  0  0  0  0  0
  -25.9264  -12.1995   20.5647 O   0  0  0  0  0  0  0  0  0  0  0  0
  -20.0727  -27.8211   21.0158 O   0  0  0  0  0  0  0  0  0  1  0  0
  -30.4436   -9.0489   20.8359 F   0  0  0  0  0  0  0  0  0  0  0  0
  -27.9412  -12.7614   22.3723 F   0  0  0  0  0  0  0  0  0  0  0  0
  1  2  1  0  0  0  0
  1  6  2  0  0  0  0
  2  7  2  0  0  0  0
  3  9  2  0  0  0  0
  3 10  1  0  0  0  0
  4 11  2  0  0  0  0
  4 18  1  0  0  0  0
  5 12  1  0  0  0  0
  5 18  2  0  0  0  0
  6 20  1  0  0  0  0
  7 22  1  0  0  0  0
  8 13  2  0  0  0  0
  8 21  1  0  0  0  0
  9 24  1  0  0  0  0
 10 26  2  0  0  0  0
 11 27  1  0  0  0  0
 12 27  2  0  0  0  0
 13 28  1  0  0  0  0
 14 15  2  0  0  0  0
 14 29  1  0  0  0  0
 15 30  1  0  0  0  0
 16 23  1  0  0  0  0
 16 28  2  0  0  0  0
 17 30  2  0  0  0  0
 17 31  1  0  0  0  0
 18 32  1  0  0  0  0
 19 32  1  0  0  0  0
 19 33  2  0  0  0  0
 19 35  1  0  0  0  0
 20 22  2  0  0  0  0
 20 40  1  0  0  0  0
 21 23  2  0  0  0  0
 21 41  1  0  0  0  0
 22 52  1  0  0  0  0
 23 42  1  0  0  0  0
 24 25  2  0  0  0  0
 24 62  1  0  0  0  0
 25 26  1  0  0  0  0
 25 56  1  0  0  0  0
 26 74  1  0  0  0  0
 27 84  1  0  0  0  0
 28 85  1  0  0  0  0
 29 31  2  0  0  0  0
 29 84  1  0  0  0  0
 30 86  1  0  0  0  0
 31 87  1  0  0  0  0
 32 67  2  0  0  0  0
 33 68  1  0  0  0  0
 33 72  1  0  0  0  0
 34 53  1  0  0  0  0
 34 69  1  0  0  0  0
 34 78  2  0  0  0  0
 35 73  1  0  0  0  0
 35 79  2  0  0  0  0
 36 54  1  0  0  0  0
 36 75  1  0  0  0  0
 36 80  2  0  0  0  0
 37 64  1  0  0  0  0
 37 70  1  0  0  0  0
 37 81  2  0  0  0  0
 38 65  1  0  0  0  0
 38 76  1  0  0  0  0
 38 82  2  0  0  0  0
 39 71  1  0  0  0  0
 39 74  1  0  0  0  0
 39 83  2  0  0  0  0
 40 43  1  0  0  0  0
 41 54  1  0  0  0  0
 42 70  1  0  0  0  0
 43 46  1  0  0  0  0
 44 47  1  0  0  0  0
 44 49  1  0  0  0  0
 45 48  1  0  0  0  0
 45 50  1  0  0  0  0
 46 52  1  0  0  0  0
 47 53  1  0  0  0  0
 48 55  1  0  0  0  0
 49 69  1  0  0  0  0
 50 71  1  0  0  0  0
 51 55  1  0  0  0  0
 51 71  1  0  0  0  0
 52 75  1  0  0  0  0
 53 63  1  0  0  0  0
 54 70  1  0  0  0  0
 55 68  1  0  0  0  0
 57 65  1  0  0  0  0
 58 66  1  0  0  0  0
 59 66  1  0  0  0  0
 60 66  1  0  0  0  0
 61 77  1  0  0  0  0
 62 69  1  0  0  0  0
 63 85  1  0  0  0  0
 64 66  1  0  0  0  0
 64 76  1  0  0  0  0
 65 77  1  0  0  0  0
 67 68  1  0  0  0  0
M  CHG  1  77   1
M  ISO  4  39 100  63 101  74 100  85 101
M  END
> <Batch ID>
0031

> <Smiles>
CNC(C)C(=O)NC(C(=O)N1Cc2cc([101O:1][101CH2:1]C3CCCN(Cc4cccc([100NH:0][100C:0](=O)N5CCCC(n6nc(-c7ccc(Oc8ccc(F)cc8F)cc7)c(C(N)=O)c6N)C5)c4C)C3=O)ccc2CC1C(=O)NC1CCCc2ccccc21)C(C)(C)C

> <Shape>
0.284

> <Color>
0.065

> <Negative vol penalty>
0.000

$$$$

  -OEChem-04042321393D

 84 93  0     1  0  0  0  0  0999 V2000
  -29.4483  -32.1439   26.1338 C   0  0  0  0  0  0  0  0  0  0  0  0
  -29.1306  -30.9624   25.4715 C   0  0  0  0  0  0  0  0  0  0  0  0
  -23.4454   -9.8182   19.8049 C   0  0  0  0  0  0  0  0  0  0  0  0
  -24.4857   -9.6461   21.9786 C   0  0  0  0  0  0  0  0  0  0  0  0
  -28.4444  -33.0618   26.4398 C   0  0  0  0  0  0  0  0  0  0  0  0
  -27.8085  -30.6977   25.1158 C   0  0  0  0  0  0  0  0  0  0  0  0
  -27.3854  -28.9275   20.3901 C   0  0  0  0  0  0  0  0  0  0  0  0
  -29.5144  -20.4955   21.3376 C   0  0  0  0  0  0  0  0  0  0  0  0
  -29.6397  -19.1250   21.1106 C   0  0  0  0  0  0  0  0  0  0  0  0
  -23.0113   -8.4966   19.9080 C   0  0  0  0  0  0  0  0  0  0  0  0
  -24.0516   -8.3246   22.0818 C   0  0  0  0  0  0  0  0  0  0  0  0
  -27.7025  -27.5859   20.1820 C   0  0  0  0  0  0  0  0  0  0  0  0
  -21.1858   -6.6970   22.8291 C   0  0  0  0  0  0  0  0  0  0  0  0
  -20.6196   -6.2950   24.0388 C   0  0  0  0  0  0  0  0  0  0  0  0
  -25.3543  -27.0337   20.2043 C   0  0  0  0  0  0  0  0  0  0  0  0
  -22.3410   -4.6179   24.2870 C   0  0  0  0  0  0  0  0  0  0  0  0
  -24.1826  -10.3930   20.8402 C   0  0  0  0  0  0  0  0  0  0  0  0
  -23.9462  -12.9135   21.1538 C   0  0  0  0  0  0  0  0  0  0  0  0
  -27.1109  -32.8126   26.0791 C   0  0  0  0  0  0  0  0  0  0  0  0
  -26.0486  -29.3314   20.5180 C   0  0  0  0  0  0  0  0  0  0  0  0
  -26.7857  -31.6125   25.4185 C   0  0  0  0  0  0  0  0  0  0  0  0
  -25.0228  -28.3814   20.4114 C   0  0  0  0  0  0  0  0  0  0  0  0
  -28.7598  -20.9578   22.4159 C   0  0  0  0  0  0  0  0  0  0  0  0
  -28.1304  -20.0495   23.2670 C   0  0  0  0  0  0  0  0  0  0  0  0
  -28.2557  -18.6789   23.0400 C   0  0  0  0  0  0  0  0  0  0  0  0
  -29.0103  -18.2167   21.9618 C   0  0  0  0  0  0  0  0  0  0  0  0
  -23.3144   -7.7498   21.0464 C   0  0  0  0  0  0  0  0  0  0  0  0
  -26.6870  -26.6383   20.0919 C   0  0  0  0  0  0  0  0  0  0  0  0
  -22.3295   -6.0594   22.3483 C   0  0  0  0  0  0  0  0  0  0  0  0
  -21.1972   -5.2554   24.7678 C   0  0  0  0  0  0  0  0  0  0  0  0
  -22.9071   -5.0199   23.0772 C   0  0  0  0  0  0  0  0  0  0  0  0
  -24.6318  -11.7579   20.7340 C   0  0  0  0  0  0  0  0  0  0  0  0
  -24.7898  -13.9489   20.8330 C   0  0  0  0  0  0  0  0  0  0  0  0
  -22.6616  -13.0399   21.7781 C   0  0  0  0  0  0  0  0  0  0  0  0
  -24.3284  -30.6988   22.8146 C   0  0  0  0  0  0  0  0  0  0  0  0
  -22.0377  -30.7700   20.5191 C   0  0  0  0  0  0  0  0  0  0  0  0
  -20.7969  -29.4594   17.6226 C   0  0  0  0  0  0  0  0  0  0  0  0
  -29.8692  -16.2248   20.6808 C   0  0  0  0  0  0  0  0  0  0  0  0
  -26.0532  -33.8130   26.4732 C   0  0  0  0  0  0  0  0  0  0  0  0
  -25.7220  -30.7862   20.7155 C   0  0  0  0  0  0  0  0  0  0  0  0
  -23.5709  -28.7664   20.5216 C   0  0  0  0  0  0  0  0  0  0  0  0
  -24.7332  -33.6289   25.7288 C   0  0  0  0  0  0  0  0  0  0  0  0
  -29.0011  -14.0172   18.0255 C   0  0  0  0  0  0  0  0  0  0  0  0
  -24.3250  -32.1592   25.7214 C   0  0  0  0  0  0  0  0  0  0  0  0
  -27.7306  -13.3277   18.5280 C   0  0  0  0  0  0  0  0  0  0  0  0
  -29.9968  -14.2659   19.1571 C   0  0  0  0  0  0  0  0  0  0  0  0
  -28.1805  -14.2898   20.8213 C   0  0  0  0  0  0  0  0  0  0  0  0
  -27.3123  -24.4527   22.2410 C   0  0  0  0  0  0  0  0  0  0  0  0
  -27.1392  -22.9696   20.7805 C   0  0  0  0  0  0  0  0  0  0  0  0
  -25.3669  -31.3008   24.9941 C   0  0  1  0  0  0  0  0  0  0  0  0
  -24.3506  -31.0106   21.3450 C   0  0  1  0  0  0  0  0  0  0  0  0
  -27.1200  -14.0769   19.7286 C   0  0  2  0  0  0  0  0  0  0  0  0
  -26.5686  -24.3940   20.8948 C   0  0  0  0  0  0  0  0  0  1  0  0
  -27.3218  -20.5483   24.4227 C   0  0  0  0  0  0  0  0  0  0  0  0
  -27.5794  -17.7059   23.9547 C   0  0  0  0  0  0  0  0  0  0  0  0
  -18.8901  -29.7007   16.0092 C   0  0  0  0  0  0  0  0  0  0  0  0
  -20.1905  -29.3578   22.4947 C   0  0  0  0  0  0  0  0  0  0  0  0
  -18.6886  -28.7863   20.5748 C   0  0  0  0  0  0  0  0  0  0  0  0
  -19.1021  -31.1746   21.1647 C   0  0  0  0  0  0  0  0  0  0  0  0
  -22.6201  -30.1201   15.3869 C   0  0  0  0  0  0  0  0  0  0  0  0
  -28.6415  -22.4369   22.6374 C   0  0  0  0  0  0  0  0  0  0  0  0
  -20.9436  -29.8313   20.0710 C   0  0  1  0  0  0  0  0  0  0  0  0
  -20.3131  -30.1197   16.3442 C   0  0  2  0  0  0  0  0  0  0  0  0
  -19.7585  -29.7796   21.0761 C   0  0  0  0  0  0  0  0  0  0  0  0
  -25.8194  -12.0327   20.1880 N   0  0  0  0  0  0  0  0  0  0  0  0
  -25.8865  -13.3729   20.2624 N   0  0  0  0  0  0  0  0  0  0  0  0
  -23.3028  -30.2003   20.7207 N   0  0  0  0  0  0  0  0  0  0  0  0
  -29.3492  -14.9833   20.2574 N   0  0  0  0  0  0  0  0  0  0  0  0
  -24.6930  -15.2866   20.9860 N   0  0  0  0  0  0  0  0  0  0  0  0
  -21.9270  -11.8747   22.0367 N   0  0  0  0  0  0  0  0  0  0  0  0
  -29.1512  -16.8290   21.7123 N   0  0  0  0  0  0  0  0  0  0  0  0
  -25.2248  -31.4401   23.5606 N   0  0  0  0  0  0  0  0  0  0  0  0
  -20.5684  -30.2540   18.7260 N   0  0  0  0  0  0  0  0  0  0  0  0
  -27.3222  -22.9782   22.2438 N   0  3  0  0  0  0  0  0  0  0  0  0
  -21.1944  -29.7454   15.2022 N   0  3  0  0  0  0  0  0  0  0  0  0
  -22.1725  -14.1542   22.0823 O   0  0  0  0  0  0  0  0  0  0  0  0
  -23.5543  -29.8497   23.2405 O   0  0  0  0  0  0  0  0  0  0  0  0
  -21.7810  -31.9662   20.6772 O   0  0  0  0  0  0  0  0  0  0  0  0
  -21.3214  -28.3480   17.6410 O   0  0  0  0  0  0  0  0  0  0  0  0
  -30.8612  -16.7285   20.1478 O   0  0  0  0  0  0  0  0  0  0  0  0
  -22.8908   -6.4603   21.1475 O   0  0  0  0  0  0  0  0  0  0  0  0
  -26.9938  -25.3281   19.8895 O   0  0  0  0  0  0  0  0  0  1  0  0
  -20.6543   -4.8704   25.9302 F   0  0  0  0  0  0  0  0  0  0  0  0
  -24.0065   -4.4044   22.6210 F   0  0  0  0  0  0  0  0  0  0  0  0
  1  2  1  0  0  0  0
  1  5  2  0  0  0  0
  2  6  2  0  0  0  0
  3 10  2  0  0  0  0
  3 17  1  0  0  0  0
  4 11  1  0  0  0  0
  4 17  2  0  0  0  0
  5 19  1  0  0  0  0
  6 21  1  0  0  0  0
  7 12  2  0  0  0  0
  7 20  1  0  0  0  0
  8  9  2  0  0  0  0
  8 23  1  0  0  0  0
  9 26  1  0  0  0  0
 10 27  1  0  0  0  0
 11 27  2  0  0  0  0
 12 28  1  0  0  0  0
 13 14  2  0  0  0  0
 13 29  1  0  0  0  0
 14 30  1  0  0  0  0
 15 22  1  0  0  0  0
 15 28  2  0  0  0  0
 16 30  2  0  0  0  0
 16 31  1  0  0  0  0
 17 32  1  0  0  0  0
 18 32  1  0  0  0  0
 18 33  2  0  0  0  0
 18 34  1  0  0  0  0
 19 21  2  0  0  0  0
 19 39  1  0  0  0  0
 20 22  2  0  0  0  0
 20 40  1  0  0  0  0
 21 50  1  0  0  0  0
 22 41  1  0  0  0  0
 23 24  2  0  0  0  0
 23 61  1  0  0  0  0
 24 25  1  0  0  0  0
 24 54  1  0  0  0  0
 25 26  2  0  0  0  0
 25 55  1  0  0  0  0
 26 71  1  0  0  0  0
 27 81  1  0  0  0  0
 28 82  1  0  0  0  0
 29 31  2  0  0  0  0
 29 81  1  0  0  0  0
 30 83  1  0  0  0  0
 31 84  1  0  0  0  0
 32 65  2  0  0  0  0
 33 66  1  0  0  0  0
 33 69  1  0  0  0  0
 34 70  1  0  0  0  0
 34 76  2  0  0  0  0
 35 51  1  0  0  0  0
 35 72  1  0  0  0  0
 35 77  2  0  0  0  0
 36 62  1  0  0  0  0
 36 67  1  0  0  0  0
 36 78  2  0  0  0  0
 37 63  1  0  0  0  0
 37 73  1  0  0  0  0
 37 79  2  0  0  0  0
 38 68  1  0  0  0  0
 38 71  1  0  0  0  0
 38 80  2  0  0  0  0
 39 42  1  0  0  0  0
 40 51  1  0  0  0  0
 41 67  1  0  0  0  0
 42 44  1  0  0  0  0
 43 45  1  0  0  0  0
 43 46  1  0  0  0  0
 44 50  1  0  0  0  0
 45 52  1  0  0  0  0
 46 68  1  0  0  0  0
 47 52  1  0  0  0  0
 47 68  1  0  0  0  0
 48 53  1  0  0  0  0
 48 74  1  0  0  0  0
 49 53  1  0  0  0  0
 49 74  1  0  0  0  0
 50 72  1  0  0  0  0
 51 67  1  0  0  0  0
 52 66  1  0  0  0  0
 53 82  1  0  0  0  0
 56 63  1  0  0  0  0
 57 64  1  0  0  0  0
 58 64  1  0  0  0  0
 59 64  1  0  0  0  0
 60 75  1  0  0  0  0
 61 74  1  0  0  0  0
 62 64  1  0  0  0  0
 62 73  1  0  0  0  0
 63 75  1  0  0  0  0
 65 66  1  0  0  0  0
M  CHG  2  74   1  75   1
M  ISO  4  38 100  53 101  71 100  82 101
M  END
> <Batch ID>
0031

> <Smiles>
CNC(C)C(=O)NC(C(=O)N1Cc2cc([101O:1][101CH:1]3CN(Cc4ccc([100NH:0][100C:0](=O)N5CCCC(n6nc(-c7ccc(Oc8ccc(F)cc8F)cc7)c(C(N)=O)c6N)C5)c(C)c4C)C3)ccc2CC1C(=O)NC1CCCc2ccccc21)C(C)(C)C

> <Shape>
0.334

> <Color>
0.141

> <Negative vol penalty>
0.000

$$$$

  -OEChem-04042321393D

 84 93  0     1  0  0  0  0  0999 V2000
  -16.6549  -25.0545   22.6299 C   0  0  0  0  0  0  0  0  0  0  0  0
  -17.7999  -24.3828   22.2135 C   0  0  0  0  0  0  0  0  0  0  0  0
  -32.1744  -18.8461   19.2596 C   0  0  0  0  0  0  0  0  0  0  0  0
  -23.4236  -10.1389   22.3839 C   0  0  0  0  0  0  0  0  0  0  0  0
  -24.1861  -11.7310   24.0334 C   0  0  0  0  0  0  0  0  0  0  0  0
  -16.7323  -26.3949   23.0055 C   0  0  0  0  0  0  0  0  0  0  0  0
  -19.0227  -25.0517   22.1714 C   0  0  0  0  0  0  0  0  0  0  0  0
  -24.5503  -22.6956   23.3546 C   0  0  0  0  0  0  0  0  0  0  0  0
  -31.2961  -19.9291   19.2983 C   0  0  0  0  0  0  0  0  0  0  0  0
  -31.6750  -17.5445   19.2140 C   0  0  0  0  0  0  0  0  0  0  0  0
  -22.8037   -9.3953   23.3881 C   0  0  0  0  0  0  0  0  0  0  0  0
  -23.5661  -10.9874   25.0377 C   0  0  0  0  0  0  0  0  0  0  0  0
  -25.5648  -22.2207   22.5245 C   0  0  0  0  0  0  0  0  0  0  0  0
  -23.7167   -7.1728   25.7653 C   0  0  0  0  0  0  0  0  0  0  0  0
  -23.8866   -5.7885   25.7443 C   0  0  0  0  0  0  0  0  0  0  0  0
  -26.6564  -24.3688   22.6399 C   0  0  0  0  0  0  0  0  0  0  0  0
  -21.4966   -5.4983   25.5424 C   0  0  0  0  0  0  0  0  0  0  0  0
  -24.1149  -11.3067   22.7066 C   0  0  0  0  0  0  0  0  0  0  0  0
  -24.1936  -13.1237   20.9178 C   0  0  0  0  0  0  0  0  0  0  0  0
  -17.9584  -27.0779   22.9772 C   0  0  0  0  0  0  0  0  0  0  0  0
  -24.5756  -24.0162   23.8256 C   0  0  0  0  0  0  0  0  0  0  0  0
  -19.1163  -26.4029   22.5456 C   0  0  0  0  0  0  0  0  0  0  0  0
  -25.6424  -24.8572   23.4780 C   0  0  0  0  0  0  0  0  0  0  0  0
  -29.9185  -19.7104   19.2915 C   0  0  0  0  0  0  0  0  0  0  0  0
  -30.2974  -17.3258   19.2072 C   0  0  0  0  0  0  0  0  0  0  0  0
  -22.8749   -9.8196   24.7150 C   0  0  0  0  0  0  0  0  0  0  0  0
  -26.6166  -23.0583   22.1647 C   0  0  0  0  0  0  0  0  0  0  0  0
  -22.4368   -7.7199   25.6749 C   0  0  0  0  0  0  0  0  0  0  0  0
  -22.7765   -4.9512   25.6328 C   0  0  0  0  0  0  0  0  0  0  0  0
  -21.3267   -6.8826   25.5634 C   0  0  0  0  0  0  0  0  0  0  0  0
  -29.4191  -18.4088   19.2460 C   0  0  0  0  0  0  0  0  0  0  0  0
  -24.7559  -12.0749   21.6698 C   0  0  0  0  0  0  0  0  0  0  0  0
  -25.2012  -13.5185   20.0721 C   0  0  0  0  0  0  0  0  0  0  0  0
  -29.2592  -22.1067   18.8104 C   0  0  0  0  0  0  0  0  0  0  0  0
  -22.8779  -13.6904   20.9783 C   0  0  0  0  0  0  0  0  0  0  0  0
  -22.6815  -26.5486   23.5051 C   0  0  0  0  0  0  0  0  0  0  0  0
  -24.7200  -27.8589   25.6615 C   0  0  0  0  0  0  0  0  0  0  0  0
  -27.8243  -27.8684   27.0793 C   0  0  0  0  0  0  0  0  0  0  0  0
  -30.5307  -14.8190   19.1187 C   0  0  0  0  0  0  0  0  0  0  0  0
  -17.9838  -28.5397   23.3473 C   0  0  0  0  0  0  0  0  0  0  0  0
  -23.4876  -24.5050   24.7419 C   0  0  0  0  0  0  0  0  0  0  0  0
  -25.7267  -26.2770   23.9733 C   0  0  0  0  0  0  0  0  0  0  0  0
  -27.9924  -22.9128   18.9954 C   0  0  0  0  0  0  0  0  0  0  0  0
  -19.3861  -29.0717   23.6316 C   0  0  0  0  0  0  0  0  0  0  0  0
  -29.6640  -11.3666   19.0353 C   0  0  0  0  0  0  0  0  0  0  0  0
  -20.3595  -28.6165   22.5490 C   0  0  0  0  0  0  0  0  0  0  0  0
  -28.2636  -11.3294   19.6514 C   0  0  0  0  0  0  0  0  0  0  0  0
  -30.5544  -12.4064   19.7133 C   0  0  0  0  0  0  0  0  0  0  0  0
  -28.5873  -13.7221   20.3977 C   0  0  0  0  0  0  0  0  0  0  0  0
  -27.6808  -20.7100   19.8767 C   0  0  0  0  0  0  0  0  0  0  0  0
  -20.4655  -27.0872   22.5100 C   0  0  1  0  0  0  0  0  0  0  0  0
  -23.3473  -26.0241   24.7457 C   0  0  1  0  0  0  0  0  0  0  0  0
  -27.6338  -12.7351   19.7047 C   0  0  2  0  0  0  0  0  0  0  0  0
  -27.2278  -22.1454   20.0584 C   0  0  1  0  0  0  0  0  0  1  0  0
  -29.2057  -29.0803   28.7883 C   0  0  0  0  0  0  0  0  0  0  0  0
  -25.0945  -30.1761   23.7120 C   0  0  0  0  0  0  0  0  0  0  0  0
  -27.1375  -30.8375   24.9993 C   0  0  0  0  0  0  0  0  0  0  0  0
  -24.9051  -30.8523   26.1123 C   0  0  0  0  0  0  0  0  0  0  0  0
  -28.1663  -25.4211   28.7081 C   0  0  0  0  0  0  0  0  0  0  0  0
  -26.0082  -28.6414   25.5764 C   0  0  1  0  0  0  0  0  0  0  0  0
  -28.2689  -27.9104   28.5302 C   0  0  2  0  0  0  0  0  0  0  0  0
  -25.7840  -30.1007   25.0889 C   0  0  0  0  0  0  0  0  0  0  0  0
  -26.0226  -11.8194   21.3315 N   0  0  0  0  0  0  0  0  0  0  0  0
  -26.2644  -12.7133   20.3576 N   0  0  0  0  0  0  0  0  0  0  0  0
  -29.0227  -20.8213   19.3311 N   0  0  0  0  0  0  0  0  0  0  0  0
  -24.6356  -26.7104   24.8617 N   0  0  0  0  0  0  0  0  0  0  0  0
  -29.8948  -13.7139   19.7230 N   0  0  0  0  0  0  0  0  0  0  0  0
  -25.2727  -14.4724   19.1195 N   0  0  0  0  0  0  0  0  0  0  0  0
  -21.9665  -13.1659   21.9048 N   0  0  0  0  0  0  0  0  0  0  0  0
  -29.7938  -16.0022   19.1609 N   0  0  0  0  0  0  0  0  0  0  0  0
  -21.3037  -26.6111   23.5895 N   0  0  0  0  0  0  0  0  0  0  0  0
  -26.6350  -28.5399   26.8899 N   0  0  0  0  0  0  0  0  0  0  0  0
  -28.9793  -26.6510   28.8909 N   0  3  0  0  0  0  0  0  0  0  0  0
  -30.2441  -22.5571   18.2430 O   0  0  0  0  0  0  0  0  0  0  0  0
  -22.5160  -14.6230   20.2215 O   0  0  0  0  0  0  0  0  0  0  0  0
  -23.3672  -26.8741   22.5430 O   0  0  0  0  0  0  0  0  0  0  0  0
  -23.8246  -28.2482   26.4153 O   0  0  0  0  0  0  0  0  0  0  0  0
  -28.4696  -27.3002   26.2011 O   0  0  0  0  0  0  0  0  0  0  0  0
  -31.6348  -14.7166   18.5779 O   0  0  0  0  0  0  0  0  0  0  0  0
  -22.2699   -9.0944   25.6951 O   0  0  0  0  0  0  0  0  0  0  0  0
  -27.6078  -22.5975   21.3541 O   0  0  0  0  0  0  0  0  0  1  0  0
  -22.9399   -3.6219   25.6111 F   0  0  0  0  0  0  0  0  0  0  0  0
  -20.0947   -7.4024   25.4751 F   0  0  0  0  0  0  0  0  0  0  0  0
  -28.0938  -18.1986   19.2404 F   0  0  0  0  0  0  0  0  0  0  0  0
  1  2  1  0  0  0  0
  1  6  2  0  0  0  0
  2  7  2  0  0  0  0
  3  9  2  0  0  0  0
  3 10  1  0  0  0  0
  4 11  2  0  0  0  0
  4 18  1  0  0  0  0
  5 12  1  0  0  0  0
  5 18  2  0  0  0  0
  6 20  1  0  0  0  0
  7 22  1  0  0  0  0
  8 13  2  0  0  0  0
  8 21  1  0  0  0  0
  9 24  1  0  0  0  0
 10 25  2  0  0  0  0
 11 26  1  0  0  0  0
 12 26  2  0  0  0  0
 13 27  1  0  0  0  0
 14 15  2  0  0  0  0
 14 28  1  0  0  0  0
 15 29  1  0  0  0  0
 16 23  1  0  0  0  0
 16 27  2  0  0  0  0
 17 29  2  0  0  0  0
 17 30  1  0  0  0  0
 18 32  1  0  0  0  0
 19 32  1  0  0  0  0
 19 33  2  0  0  0  0
 19 35  1  0  0  0  0
 20 22  2  0  0  0  0
 20 40  1  0  0  0  0
 21 23  2  0  0  0  0
 21 41  1  0  0  0  0
 22 51  1  0  0  0  0
 23 42  1  0  0  0  0
 24 31  2  0  0  0  0
 24 65  1  0  0  0  0
 25 31  1  0  0  0  0
 25 70  1  0  0  0  0
 26 80  1  0  0  0  0
 27 81  1  0  0  0  0
 28 30  2  0  0  0  0
 28 80  1  0  0  0  0
 29 82  1  0  0  0  0
 30 83  1  0  0  0  0
 31 84  1  0  0  0  0
 32 63  2  0  0  0  0
 33 64  1  0  0  0  0
 33 68  1  0  0  0  0
 34 43  1  0  0  0  0
 34 65  1  0  0  0  0
 34 74  2  0  0  0  0
 35 69  1  0  0  0  0
 35 75  2  0  0  0  0
 36 52  1  0  0  0  0
 36 71  1  0  0  0  0
 36 76  2  0  0  0  0
 37 60  1  0  0  0  0
 37 66  1  0  0  0  0
 37 77  2  0  0  0  0
 38 61  1  0  0  0  0
 38 72  1  0  0  0  0
 38 78  2  0  0  0  0
 39 67  1  0  0  0  0
 39 70  1  0  0  0  0
 39 79  2  0  0  0  0
 40 44  1  0  0  0  0
 41 52  1  0  0  0  0
 42 66  1  0  0  0  0
 43 54  1  0  0  0  0
 44 46  1  0  0  0  0
 45 47  1  0  0  0  0
 45 48  1  0  0  0  0
 46 51  1  0  0  0  0
 47 53  1  0  0  0  0
 48 67  1  0  0  0  0
 49 53  1  0  0  0  0
 49 67  1  0  0  0  0
 50 54  1  0  0  0  0
 50 65  1  0  0  0  0
 51 71  1  0  0  0  0
 52 66  1  0  0  0  0
 53 64  1  0  0  0  0
 54 81  1  0  0  0  0
 55 61  1  0  0  0  0
 56 62  1  0  0  0  0
 57 62  1  0  0  0  0
 58 62  1  0  0  0  0
 59 73  1  0  0  0  0
 60 62  1  0  0  0  0
 60 72  1  0  0  0  0
 61 73  1  0  0  0  0
 63 64  1  0  0  0  0
M  CHG  1  73   1
M  ISO  4  39 100  54 101  70 100  81 101
M  END
> <Batch ID>
0031

> <Smiles>
CNC(C)C(=O)NC(C(=O)N1Cc2cc([101O:1][101CH:1]3CC(=O)N(c4cccc([100NH:0][100C:0](=O)N5CCCC(n6nc(-c7ccc(Oc8ccc(F)cc8F)cc7)c(C(N)=O)c6N)C5)c4F)C3)ccc2CC1C(=O)NC1CCCc2ccccc21)C(C)(C)C

> <Shape>
0.241

> <Color>
0.111

> <Negative vol penalty>
0.000

$$$$

  -OEChem-04042321393D

 88 97  0     1  0  0  0  0  0999 V2000
  -16.6479  -29.8835   23.9813 C   0  0  0  0  0  0  0  0  0  0  0  0
  -17.7450  -30.0706   24.8160 C   0  0  0  0  0  0  0  0  0  0  0  0
  -24.0867  -13.2329   20.5130 C   0  0  0  0  0  0  0  0  0  0  0  0
  -26.4128  -13.2784   21.1642 C   0  0  0  0  0  0  0  0  0  0  0  0
  -16.7980  -29.1942   22.7787 C   0  0  0  0  0  0  0  0  0  0  0  0
  -18.9927  -29.5675   24.4492 C   0  0  0  0  0  0  0  0  0  0  0  0
  -25.9845  -31.0192   25.0174 C   0  0  0  0  0  0  0  0  0  0  0  0
  -30.1739  -24.3646   21.6161 C   0  0  0  0  0  0  0  0  0  0  0  0
  -29.2928  -23.5158   20.9461 C   0  0  0  0  0  0  0  0  0  0  0  0
  -24.1713  -11.8560   20.3068 C   0  0  0  0  0  0  0  0  0  0  0  0
  -26.4974  -11.9014   20.9580 C   0  0  0  0  0  0  0  0  0  0  0  0
  -27.1794  -30.4226   25.4177 C   0  0  0  0  0  0  0  0  0  0  0  0
  -24.1634   -9.0498   22.1930 C   0  0  0  0  0  0  0  0  0  0  0  0
  -23.1330   -8.2547   22.6947 C   0  0  0  0  0  0  0  0  0  0  0  0
  -27.3366  -29.3169   23.2795 C   0  0  0  0  0  0  0  0  0  0  0  0
  -28.5872  -22.5804   23.0590 C   0  0  0  0  0  0  0  0  0  0  0  0
  -22.6472   -7.4745   20.4604 C   0  0  0  0  0  0  0  0  0  0  0  0
  -25.2075  -13.9441   20.9416 C   0  0  0  0  0  0  0  0  0  0  0  0
  -24.7741  -16.0283   22.3474 C   0  0  0  0  0  0  0  0  0  0  0  0
  -18.0502  -28.6907   22.3923 C   0  0  0  0  0  0  0  0  0  0  0  0
  -25.4502  -30.7601   23.7470 C   0  0  0  0  0  0  0  0  0  0  0  0
  -19.1594  -28.8696   23.2409 C   0  0  0  0  0  0  0  0  0  0  0  0
  -26.1361  -29.9134   22.8645 C   0  0  0  0  0  0  0  0  0  0  0  0
  -30.2617  -24.3212   23.0076 C   0  0  0  0  0  0  0  0  0  0  0  0
  -29.4683  -23.4292   23.7290 C   0  0  0  0  0  0  0  0  0  0  0  0
  -28.4994  -22.6238   21.6675 C   0  0  0  0  0  0  0  0  0  0  0  0
  -25.3766  -11.1902   20.5294 C   0  0  0  0  0  0  0  0  0  0  0  0
  -27.8541  -29.5691   24.5498 C   0  0  0  0  0  0  0  0  0  0  0  0
  -24.4357   -9.0573   20.8250 C   0  0  0  0  0  0  0  0  0  0  0  0
  -22.3749   -7.4670   21.8284 C   0  0  0  0  0  0  0  0  0  0  0  0
  -23.6776   -8.2696   19.9587 C   0  0  0  0  0  0  0  0  0  0  0  0
  -25.1209  -15.3666   21.1542 C   0  0  0  0  0  0  0  0  0  0  0  0
  -24.8376  -17.3632   22.0307 C   0  0  0  0  0  0  0  0  0  0  0  0
  -31.4624  -27.2927   25.0141 C   0  0  0  0  0  0  0  0  0  0  0  0
  -32.1647  -26.9090   26.0867 C   0  0  0  0  0  0  0  0  0  0  0  0
  -24.4259  -15.4848   23.6276 C   0  0  0  0  0  0  0  0  0  0  0  0
  -22.7638  -29.4469   22.6687 C   0  0  0  0  0  0  0  0  0  0  0  0
  -23.9150  -30.3969   19.7886 C   0  0  0  0  0  0  0  0  0  0  0  0
  -26.6190  -31.2355   17.8829 C   0  0  0  0  0  0  0  0  0  0  0  0
  -27.3914  -21.6794   19.6116 C   0  0  0  0  0  0  0  0  0  0  0  0
  -18.1535  -27.9112   21.1053 C   0  0  0  0  0  0  0  0  0  0  0  0
  -24.1741  -31.4325   23.3204 C   0  0  0  0  0  0  0  0  0  0  0  0
  -25.6151  -29.6186   21.4825 C   0  0  0  0  0  0  0  0  0  0  0  0
  -31.3826  -28.6897   24.4826 C   0  0  0  0  0  0  0  0  0  0  0  0
  -19.5878  -27.7353   20.6133 C   0  0  0  0  0  0  0  0  0  0  0  0
  -25.3025  -19.6664   17.5472 C   0  0  0  0  0  0  0  0  0  0  0  0
  -20.4957  -27.2998   21.7591 C   0  0  0  0  0  0  0  0  0  0  0  0
  -25.0405  -18.4228   18.3998 C   0  0  0  0  0  0  0  0  0  0  0  0
  -26.7240  -20.1935   17.7349 C   0  0  0  0  0  0  0  0  0  0  0  0
  -26.8557  -19.1910   19.9815 C   0  0  0  0  0  0  0  0  0  0  0  0
  -29.7529  -27.2749   23.4133 C   0  0  0  0  0  0  0  0  0  0  0  0
  -20.5342  -28.3603   22.8660 C   0  0  1  0  0  0  0  0  0  0  0  0
  -23.4566  -30.6934   22.1952 C   0  0  1  0  0  0  0  0  0  0  0  0
  -25.4162  -18.6616   19.8754 C   0  0  2  0  0  0  0  0  0  0  0  0
  -29.9704  -28.6942   23.9186 C   0  0  1  0  0  0  0  0  0  1  0  0
  -27.2495  -31.9298   15.5552 C   0  0  0  0  0  0  0  0  0  0  0  0
  -23.5504  -27.5216   18.8348 C   0  0  0  0  0  0  0  0  0  0  0  0
  -25.0417  -28.0498   16.8944 C   0  0  0  0  0  0  0  0  0  0  0  0
  -22.8810  -29.2653   17.1717 C   0  0  0  0  0  0  0  0  0  0  0  0
  -27.7221  -33.8147   18.8263 C   0  0  0  0  0  0  0  0  0  0  0  0
  -31.2172  -25.2433   23.7059 C   0  0  0  0  0  0  0  0  0  0  0  0
  -24.8010  -29.7782   18.7345 C   0  0  1  0  0  0  0  0  0  0  0  0
  -26.8690  -32.4056   16.9487 C   0  0  2  0  0  0  0  0  0  0  0  0
  -29.5438  -23.3666   25.2193 C   0  0  0  0  0  0  0  0  0  0  0  0
  -24.0776  -28.6576   17.9356 C   0  0  0  0  0  0  0  0  0  0  0  0
  -25.3849  -16.2116   20.1540 N   0  0  0  0  0  0  0  0  0  0  0  0
  -25.2039  -17.4179   20.7180 N   0  0  0  0  0  0  0  0  0  0  0  0
  -24.3605  -30.2951   21.1141 N   0  0  0  0  0  0  0  0  0  0  0  0
  -27.0074  -20.4001   19.1569 N   0  0  0  0  0  0  0  0  0  0  0  0
  -24.6151  -18.4839   22.7497 N   0  0  0  0  0  0  0  0  0  0  0  0
  -24.4096  -14.0916   23.7800 N   0  0  0  0  0  0  0  0  0  0  0  0
  -27.6028  -21.7628   20.9875 N   0  0  0  0  0  0  0  0  0  0  0  0
  -21.3946  -29.4593   22.4833 N   0  0  0  0  0  0  0  0  0  0  0  0
  -25.2870  -30.8803   17.9114 N   0  0  0  0  0  0  0  0  0  0  0  0
  -30.5347  -26.3932   24.3836 N   0  3  1  0  0  0  0  0  0  0  0  0
  -27.9731  -33.2592   17.4715 N   0  3  0  0  0  0  0  0  0  0  0  0
  -24.1216  -16.2126   24.6029 O   0  0  0  0  0  0  0  0  0  0  0  0
  -23.4230  -28.5405   23.1641 O   0  0  0  0  0  0  0  0  0  0  0  0
  -22.8699  -30.9565   19.4477 O   0  0  0  0  0  0  0  0  0  0  0  0
  -27.5163  -30.6887   18.5205 O   0  0  0  0  0  0  0  0  0  0  0  0
  -27.4967  -22.6373   18.8414 O   0  0  0  0  0  0  0  0  0  0  0  0
  -25.4595   -9.8466   20.3285 O   0  0  0  0  0  0  0  0  0  0  0  0
  -29.0202  -28.9850   24.9382 O   0  0  0  0  0  0  0  0  0  1  0  0
  -21.3865   -6.7024   22.3105 F   0  0  0  0  0  0  0  0  0  0  0  0
  -23.9352   -8.2718   18.6436 F   0  0  0  0  0  0  0  0  0  0  0  0
  -28.7021  -22.4435   25.7698 F   0  0  0  0  0  0  0  0  0  0  0  0
  -30.7845  -23.0445   25.6887 F   0  0  0  0  0  0  0  0  0  0  0  0
  -29.2239  -24.5541   25.8095 F   0  0  0  0  0  0  0  0  0  0  0  0
  1  2  1  0  0  0  0
  1  5  2  0  0  0  0
  2  6  2  0  0  0  0
  3 10  2  0  0  0  0
  3 18  1  0  0  0  0
  4 11  1  0  0  0  0
  4 18  2  0  0  0  0
  5 20  1  0  0  0  0
  6 22  1  0  0  0  0
  7 12  2  0  0  0  0
  7 21  1  0  0  0  0
  8  9  2  0  0  0  0
  8 24  1  0  0  0  0
  9 26  1  0  0  0  0
 10 27  1  0  0  0  0
 11 27  2  0  0  0  0
 12 28  1  0  0  0  0
 13 14  2  0  0  0  0
 13 29  1  0  0  0  0
 14 30  1  0  0  0  0
 15 23  1  0  0  0  0
 15 28  2  0  0  0  0
 16 25  1  0  0  0  0
 16 26  2  0  0  0  0
 17 30  2  0  0  0  0
 17 31  1  0  0  0  0
 18 32  1  0  0  0  0
 19 32  1  0  0  0  0
 19 33  2  0  0  0  0
 19 36  1  0  0  0  0
 20 22  2  0  0  0  0
 20 41  1  0  0  0  0
 21 23  2  0  0  0  0
 21 42  1  0  0  0  0
 22 52  1  0  0  0  0
 23 43  1  0  0  0  0
 24 25  2  0  0  0  0
 24 61  1  0  0  0  0
 25 64  1  0  0  0  0
 26 72  1  0  0  0  0
 27 82  1  0  0  0  0
 28 83  1  0  0  0  0
 29 31  2  0  0  0  0
 29 82  1  0  0  0  0
 30 84  1  0  0  0  0
 31 85  1  0  0  0  0
 32 66  2  0  0  0  0
 33 67  1  0  0  0  0
 33 70  1  0  0  0  0
 34 35  2  0  0  0  0
 34 44  1  0  0  0  0
 34 75  1  0  0  0  0
 36 71  1  0  0  0  0
 36 77  2  0  0  0  0
 37 53  1  0  0  0  0
 37 73  1  0  0  0  0
 37 78  2  0  0  0  0
 38 62  1  0  0  0  0
 38 68  1  0  0  0  0
 38 79  2  0  0  0  0
 39 63  1  0  0  0  0
 39 74  1  0  0  0  0
 39 80  2  0  0  0  0
 40 69  1  0  0  0  0
 40 72  1  0  0  0  0
 40 81  2  0  0  0  0
 41 45  1  0  0  0  0
 42 53  1  0  0  0  0
 43 68  1  0  0  0  0
 44 55  1  0  0  0  0
 45 47  1  0  0  0  0
 46 48  1  0  0  0  0
 46 49  1  0  0  0  0
 47 52  1  0  0  0  0
 48 54  1  0  0  0  0
 49 69  1  0  0  0  0
 50 54  1  0  0  0  0
 50 69  1  0  0  0  0
 51 55  1  0  0  0  0
 51 75  1  0  0  0  0
 52 73  1  0  0  0  0
 53 68  1  0  0  0  0
 54 67  1  0  0  0  0
 55 83  1  0  0  0  0
 56 63  1  0  0  0  0
 57 65  1  0  0  0  0
 58 65  1  0  0  0  0
 59 65  1  0  0  0  0
 60 76  1  0  0  0  0
 61 75  1  0  0  0  0
 62 65  1  0  0  0  0
 62 74  1  0  0  0  0
 63 76  1  0  0  0  0
 64 86  1  0  0  0  0
 64 87  1  0  0  0  0
 64 88  1  0  0  0  0
 66 67  1  0  0  0  0
M  CHG  2  75   1  76   1
M  ISO  4  40 100  55 101  72 100  83 101
M  END
> <Batch ID>
0031

> <Smiles>
C=C1C[101CH:1]([101O:1]c2ccc3c(c2)CN(C(=O)C(NC(=O)C(C)NC)C(C)(C)C)C(C(=O)NC2CCCc4ccccc42)C3)CN1Cc1ccc([100NH:0][100C:0](=O)N2CCCC(n3nc(-c4ccc(Oc5ccc(F)cc5F)cc4)c(C(N)=O)c3N)C2)cc1C(F)(F)F

> <Shape>
0.241

> <Color>
0.103

> <Negative vol penalty>
0.000

$$$$

  -OEChem-04042321393D

 89 98  0     1  0  0  0  0  0999 V2000
  -27.0459  -18.0687   21.4154 C   0  0  0  0  0  0  0  0  0  0  0  0
  -26.4579  -19.0211   20.5906 C   0  0  0  0  0  0  0  0  0  0  0  0
  -23.9578  -14.1754   19.4534 C   0  0  0  0  0  0  0  0  0  0  0  0
  -25.0513  -14.2664   21.6059 C   0  0  0  0  0  0  0  0  0  0  0  0
  -27.7805  -18.4737   22.5278 C   0  0  0  0  0  0  0  0  0  0  0  0
  -26.6142  -20.3789   20.8712 C   0  0  0  0  0  0  0  0  0  0  0  0
  -24.5361  -26.9929   19.0419 C   0  0  0  0  0  0  0  0  0  0  0  0
  -24.9348  -13.2921   18.9944 C   0  0  0  0  0  0  0  0  0  0  0  0
  -26.0283  -13.3830   21.1469 C   0  0  0  0  0  0  0  0  0  0  0  0
  -23.9415  -28.1662   19.5039 C   0  0  0  0  0  0  0  0  0  0  0  0
  -28.8079  -13.5210   19.2270 C   0  0  0  0  0  0  0  0  0  0  0  0
  -30.1392  -13.8194   19.5170 C   0  0  0  0  0  0  0  0  0  0  0  0
  -26.0127  -28.7877   20.5730 C   0  0  0  0  0  0  0  0  0  0  0  0
  -21.5909  -27.3998   25.1426 C   0  0  0  0  0  0  0  0  0  0  0  0
  -30.3450  -11.7336   20.7187 C   0  0  0  0  0  0  0  0  0  0  0  0
  -24.0161  -14.6627   20.7592 C   0  0  0  0  0  0  0  0  0  0  0  0
  -21.7927  -15.2472   21.8650 C   0  0  0  0  0  0  0  0  0  0  0  0
  -27.9350  -19.8370   22.8285 C   0  0  0  0  0  0  0  0  0  0  0  0
  -25.8725  -26.7024   19.3517 C   0  0  0  0  0  0  0  0  0  0  0  0
  -27.3720  -20.8083   21.9758 C   0  0  0  0  0  0  0  0  0  0  0  0
  -26.6226  -27.6112   20.1116 C   0  0  0  0  0  0  0  0  0  0  0  0
  -21.5148  -26.0292   25.3897 C   0  0  0  0  0  0  0  0  0  0  0  0
  -20.8505  -27.9633   24.1033 C   0  0  0  0  0  0  0  0  0  0  0  0
  -20.0341  -27.1561   23.3111 C   0  0  0  0  0  0  0  0  0  0  0  0
  -19.9581  -25.7854   23.5582 C   0  0  0  0  0  0  0  0  0  0  0  0
  -20.6984  -25.2219   24.5975 C   0  0  0  0  0  0  0  0  0  0  0  0
  -25.9700  -12.8958   19.8411 C   0  0  0  0  0  0  0  0  0  0  0  0
  -24.6789  -29.0625   20.2720 C   0  0  0  0  0  0  0  0  0  0  0  0
  -28.2451  -12.3289   19.6830 C   0  0  0  0  0  0  0  0  0  0  0  0
  -30.9078  -12.9257   20.2628 C   0  0  0  0  0  0  0  0  0  0  0  0
  -29.0136  -11.4352   20.4288 C   0  0  0  0  0  0  0  0  0  0  0  0
  -23.0074  -15.5756   21.2338 C   0  0  0  0  0  0  0  0  0  0  0  0
  -21.1979  -16.4593   22.1168 C   0  0  0  0  0  0  0  0  0  0  0  0
  -21.8978  -31.2012   22.4551 C   0  0  0  0  0  0  0  0  0  0  0  0
  -20.8374  -31.9352   22.0975 C   0  0  0  0  0  0  0  0  0  0  0  0
  -21.2505  -13.9614   22.1942 C   0  0  0  0  0  0  0  0  0  0  0  0
  -27.3525  -24.3874   20.9498 C   0  0  0  0  0  0  0  0  0  0  0  0
  -30.0215  -25.8752   19.8612 C   0  0  0  0  0  0  0  0  0  0  0  0
  -31.4778  -28.7412   18.7158 C   0  0  0  0  0  0  0  0  0  0  0  0
  -21.4737  -21.5973   23.9802 C   0  0  0  0  0  0  0  0  0  0  0  0
  -28.7470  -20.2198   24.0407 C   0  0  0  0  0  0  0  0  0  0  0  0
  -26.5071  -25.4452   18.8233 C   0  0  0  0  0  0  0  0  0  0  0  0
  -28.0667  -27.3557   20.4548 C   0  0  0  0  0  0  0  0  0  0  0  0
  -23.3157  -31.6801   22.4834 C   0  0  0  0  0  0  0  0  0  0  0  0
  -28.4859  -21.6493   24.5039 C   0  0  0  0  0  0  0  0  0  0  0  0
  -22.3838  -21.1079   20.5118 C   0  0  0  0  0  0  0  0  0  0  0  0
  -28.5814  -22.6039   23.3232 C   0  0  0  0  0  0  0  0  0  0  0  0
  -22.5266  -19.5862   20.4467 C   0  0  0  0  0  0  0  0  0  0  0  0
  -22.8939  -21.6546   21.8419 C   0  0  0  0  0  0  0  0  0  0  0  0
  -22.3971  -19.5260   22.9804 C   0  0  0  0  0  0  0  0  0  0  0  0
  -23.2158  -29.2901   22.7644 C   0  0  0  0  0  0  0  0  0  0  0  0
  -27.5030  -22.2900   22.2785 C   0  0  1  0  0  0  0  0  0  0  0  0
  -27.7238  -25.0049   19.6313 C   0  0  1  0  0  0  0  0  0  0  0  0
  -21.8777  -18.9097   21.6687 C   0  0  2  0  0  0  0  0  0  0  0  0
  -24.0517  -30.3957   22.1352 C   0  0  1  0  0  0  0  0  0  1  0  0
  -22.3182  -25.4509   26.5084 C   0  0  0  0  0  0  0  0  0  0  0  0
  -19.2418  -27.7630   22.1967 C   0  0  0  0  0  0  0  0  0  0  0  0
  -17.6085  -25.0547   23.0765 C   0  0  0  0  0  0  0  0  0  0  0  0
  -33.6822  -29.6577   17.9424 C   0  0  0  0  0  0  0  0  0  0  0  0
  -30.9858  -25.9902   22.7537 C   0  0  0  0  0  0  0  0  0  0  0  0
  -32.6675  -27.7069   22.0517 C   0  0  0  0  0  0  0  0  0  0  0  0
  -32.7564  -25.4085   21.0861 C   0  0  0  0  0  0  0  0  0  0  0  0
  -30.4013  -29.3850   16.0351 C   0  0  0  0  0  0  0  0  0  0  0  0
  -19.0819  -24.9195   22.7088 C   0  0  0  0  0  0  0  0  0  0  0  0
  -20.6186  -23.7521   24.8648 C   0  0  0  0  0  0  0  0  0  0  0  0
  -20.9495  -29.4403   23.8593 C   0  0  0  0  0  0  0  0  0  0  0  0
  -30.9116  -26.9826   20.3714 C   0  0  1  0  0  0  0  0  0  0  0  0
  -32.3741  -29.0073   17.5198 C   0  0  2  0  0  0  0  0  0  0  0  0
  -31.8026  -26.5262   21.5611 C   0  0  0  0  0  0  0  0  0  0  0  0
  -23.1757  -16.8932   21.0932 N   0  0  0  0  0  0  0  0  0  0  0  0
  -22.0589  -17.4033   21.6395 N   0  0  0  0  0  0  0  0  0  0  0  0
  -28.6404  -26.1097   19.9203 N   0  0  0  0  0  0  0  0  0  0  0  0
  -22.2232  -20.9823   22.9636 N   0  0  0  0  0  0  0  0  0  0  0  0
  -20.0277  -16.7991   22.6978 N   0  0  0  0  0  0  0  0  0  0  0  0
  -21.9927  -12.8191   21.8646 N   0  0  0  0  0  0  0  0  0  0  0  0
  -27.7558  -23.0731   21.0891 N   0  0  0  0  0  0  0  0  0  0  0  0
  -31.6594  -27.4697   19.2173 N   0  0  0  0  0  0  0  0  0  0  0  0
  -21.3631  -22.9798   23.8952 N   0  0  0  0  0  0  0  0  0  0  0  0
  -21.7751  -29.7828   22.6557 N   0  3  1  0  0  0  0  0  0  0  0  0
  -31.6911  -29.9111   16.5515 N   0  3  0  0  0  0  0  0  0  0  0  0
  -20.1334  -13.8288   22.7491 O   0  0  0  0  0  0  0  0  0  0  0  0
  -26.7463  -25.0545   21.7800 O   0  0  0  0  0  0  0  0  0  0  0  0
  -30.5329  -24.8432   19.4196 O   0  0  0  0  0  0  0  0  0  0  0  0
  -30.6975  -29.5790   19.1628 O   0  0  0  0  0  0  0  0  0  0  0  0
  -20.9378  -20.9607   24.8938 O   0  0  0  0  0  0  0  0  0  0  0  0
  -26.9234  -12.0337   19.3936 O   0  0  0  0  0  0  0  0  0  0  0  0
  -24.1008  -30.2082   20.7247 O   0  0  0  0  0  0  0  0  0  1  0  0
  -32.1867  -13.2117   20.5399 F   0  0  0  0  0  0  0  0  0  0  0  0
  -28.4788  -10.2878   20.8685 F   0  0  0  0  0  0  0  0  0  0  0  0
  1  2  1  0  0  0  0
  1  5  2  0  0  0  0
  2  6  2  0  0  0  0
  3  8  2  0  0  0  0
  3 16  1  0  0  0  0
  4  9  1  0  0  0  0
  4 16  2  0  0  0  0
  5 18  1  0  0  0  0
  6 20  1  0  0  0  0
  7 10  2  0  0  0  0
  7 19  1  0  0  0  0
  8 27  1  0  0  0  0
  9 27  2  0  0  0  0
 10 28  1  0  0  0  0
 11 12  2  0  0  0  0
 11 29  1  0  0  0  0
 12 30  1  0  0  0  0
 13 21  1  0  0  0  0
 13 28  2  0  0  0  0
 14 22  2  0  0  0  0
 14 23  1  0  0  0  0
 15 30  2  0  0  0  0
 15 31  1  0  0  0  0
 16 32  1  0  0  0  0
 17 32  1  0  0  0  0
 17 33  2  0  0  0  0
 17 36  1  0  0  0  0
 18 20  2  0  0  0  0
 18 41  1  0  0  0  0
 19 21  2  0  0  0  0
 19 42  1  0  0  0  0
 20 52  1  0  0  0  0
 21 43  1  0  0  0  0
 22 26  1  0  0  0  0
 22 56  1  0  0  0  0
 23 24  2  0  0  0  0
 23 66  1  0  0  0  0
 24 25  1  0  0  0  0
 24 57  1  0  0  0  0
 25 26  2  0  0  0  0
 25 64  1  0  0  0  0
 26 65  1  0  0  0  0
 27 86  1  0  0  0  0
 28 87  1  0  0  0  0
 29 31  2  0  0  0  0
 29 86  1  0  0  0  0
 30 88  1  0  0  0  0
 31 89  1  0  0  0  0
 32 70  2  0  0  0  0
 33 71  1  0  0  0  0
 33 74  1  0  0  0  0
 34 35  2  0  0  0  0
 34 44  1  0  0  0  0
 34 79  1  0  0  0  0
 36 75  1  0  0  0  0
 36 81  2  0  0  0  0
 37 53  1  0  0  0  0
 37 76  1  0  0  0  0
 37 82  2  0  0  0  0
 38 67  1  0  0  0  0
 38 72  1  0  0  0  0
 38 83  2  0  0  0  0
 39 68  1  0  0  0  0
 39 77  1  0  0  0  0
 39 84  2  0  0  0  0
 40 73  1  0  0  0  0
 40 78  1  0  0  0  0
 40 85  2  0  0  0  0
 41 45  1  0  0  0  0
 42 53  1  0  0  0  0
 43 72  1  0  0  0  0
 44 55  1  0  0  0  0
 45 47  1  0  0  0  0
 46 48  1  0  0  0  0
 46 49  1  0  0  0  0
 47 52  1  0  0  0  0
 48 54  1  0  0  0  0
 49 73  1  0  0  0  0
 50 54  1  0  0  0  0
 50 73  1  0  0  0  0
 51 55  1  0  0  0  0
 51 79  1  0  0  0  0
 52 76  1  0  0  0  0
 53 72  1  0  0  0  0
 54 71  1  0  0  0  0
 55 87  1  0  0  0  0
 58 64  1  0  0  0  0
 59 68  1  0  0  0  0
 60 69  1  0  0  0  0
 61 69  1  0  0  0  0
 62 69  1  0  0  0  0
 63 80  1  0  0  0  0
 65 78  1  0  0  0  0
 66 79  1  0  0  0  0
 67 69  1  0  0  0  0
 67 77  1  0  0  0  0
 68 80  1  0  0  0  0
 70 71  1  0  0  0  0
M  CHG  2  79   1  80   1
M  ISO  4  40 100  55 101  78 100  87 101
M  END
> <Batch ID>
0031

> <Smiles>
C=C1C[101CH:1]([101O:1]c2ccc3c(c2)CN(C(=O)C(NC(=O)C(C)NC)C(C)(C)C)C(C(=O)NC2CCCc4ccccc42)C3)CN1Cc1cc(C)c(C[100NH:0][100C:0](=O)N2CCCC(n3nc(-c4ccc(Oc5ccc(F)cc5F)cc4)c(C(N)=O)c3N)C2)c(CC)c1C

> <Shape>
0.228

> <Color>
0.070

> <Negative vol penalty>
0.000

$$$$
