
  -OEChem-04042321423D

 87 96  0     1  0  0  0  0  0999 V2000
  -28.9775  -30.6267   26.6579 C   0  0  0  0  0  0  0  0  0  0  0  0
  -28.7617  -29.2569   26.7700 C   0  0  0  0  0  0  0  0  0  0  0  0
  -23.3733   -9.7177   19.9157 C   0  0  0  0  0  0  0  0  0  0  0  0
  -24.0992   -9.8127   22.2181 C   0  0  0  0  0  0  0  0  0  0  0  0
  -28.9867  -31.2292   25.4006 C   0  0  0  0  0  0  0  0  0  0  0  0
  -28.5539  -28.4890   25.6248 C   0  0  0  0  0  0  0  0  0  0  0  0
  -31.1936  -24.1676   25.6780 C   0  0  0  0  0  0  0  0  0  0  0  0
  -22.8000   -8.4675   20.1480 C   0  0  0  0  0  0  0  0  0  0  0  0
  -23.5259   -8.5625   22.4504 C   0  0  0  0  0  0  0  0  0  0  0  0
  -30.6940  -23.1259   26.4585 C   0  0  0  0  0  0  0  0  0  0  0  0
  -20.4394   -7.3042   23.0078 C   0  0  0  0  0  0  0  0  0  0  0  0
  -19.6833   -7.1453   24.1691 C   0  0  0  0  0  0  0  0  0  0  0  0
  -29.7627  -22.1009   24.4834 C   0  0  0  0  0  0  0  0  0  0  0  0
  -32.3178  -15.4032   23.2750 C   0  0  0  0  0  0  0  0  0  0  0  0
  -21.1820   -5.3994   24.9060 C   0  0  0  0  0  0  0  0  0  0  0  0
  -24.0229  -10.3903   20.9507 C   0  0  0  0  0  0  0  0  0  0  0  0
  -23.9998  -12.9394   20.8538 C   0  0  0  0  0  0  0  0  0  0  0  0
  -28.7885  -30.4667   24.2387 C   0  0  0  0  0  0  0  0  0  0  0  0
  -30.9717  -24.1894   24.2936 C   0  0  0  0  0  0  0  0  0  0  0  0
  -28.5591  -29.0820   24.3508 C   0  0  0  0  0  0  0  0  0  0  0  0
  -30.2627  -23.1427   23.6872 C   0  0  0  0  0  0  0  0  0  0  0  0
  -33.0706  -15.7658   24.3918 C   0  0  0  0  0  0  0  0  0  0  0  0
  -32.4303  -16.1730   25.5622 C   0  0  0  0  0  0  0  0  0  0  0  0
  -31.0372  -16.2178   25.6158 C   0  0  0  0  0  0  0  0  0  0  0  0
  -30.2843  -15.8552   24.4989 C   0  0  0  0  0  0  0  0  0  0  0  0
  -30.9246  -15.4480   23.3285 C   0  0  0  0  0  0  0  0  0  0  0  0
  -22.8763   -7.8899   21.4153 C   0  0  0  0  0  0  0  0  0  0  0  0
  -29.9760  -22.0938   25.8616 C   0  0  0  0  0  0  0  0  0  0  0  0
  -21.5668   -6.5106   22.7955 C   0  0  0  0  0  0  0  0  0  0  0  0
  -20.0546   -6.1930   25.1182 C   0  0  0  0  0  0  0  0  0  0  0  0
  -21.9381   -5.5583   23.7446 C   0  0  0  0  0  0  0  0  0  0  0  0
  -24.6158  -11.6816   20.7113 C   0  0  0  0  0  0  0  0  0  0  0  0
  -24.9769  -13.8411   20.5094 C   0  0  0  0  0  0  0  0  0  0  0  0
  -29.1662  -18.4682   28.0101 C   0  0  0  0  0  0  0  0  0  0  0  0
  -28.0339  -17.8969   28.4371 C   0  0  0  0  0  0  0  0  0  0  0  0
  -22.6639  -13.2637   21.2611 C   0  0  0  0  0  0  0  0  0  0  0  0
  -29.4732  -26.1526   22.2926 C   0  0  0  0  0  0  0  0  0  0  0  0
  -30.7343  -24.1897   20.0390 C   0  0  0  0  0  0  0  0  0  0  0  0
  -31.2156  -20.6399   19.6099 C   0  0  0  0  0  0  0  0  0  0  0  0
  -30.6789  -14.6486   20.9521 C   0  0  0  0  0  0  0  0  0  0  0  0
  -28.7601  -31.1700   22.9049 C   0  0  0  0  0  0  0  0  0  0  0  0
  -31.5402  -25.3064   23.4620 C   0  0  0  0  0  0  0  0  0  0  0  0
  -30.0145  -23.1088   22.2021 C   0  0  0  0  0  0  0  0  0  0  0  0
  -29.7915  -19.6976   28.5915 C   0  0  0  0  0  0  0  0  0  0  0  0
  -28.9047  -30.2251   21.7148 C   0  0  0  0  0  0  0  0  0  0  0  0
  -29.1737  -13.6047   17.8989 C   0  0  0  0  0  0  0  0  0  0  0  0
  -27.9879  -29.0169   21.8779 C   0  0  0  0  0  0  0  0  0  0  0  0
  -27.7843  -13.1250   18.3251 C   0  0  0  0  0  0  0  0  0  0  0  0
  -30.2371  -13.2591   18.9399 C   0  0  0  0  0  0  0  0  0  0  0  0
  -28.5473  -13.2261   20.7323 C   0  0  0  0  0  0  0  0  0  0  0  0
  -30.8540  -19.1000   26.5143 C   0  0  0  0  0  0  0  0  0  0  0  0
  -28.3545  -28.2113   23.1301 C   0  0  1  0  0  0  0  0  0  0  0  0
  -30.8133  -25.4920   22.1336 C   0  0  1  0  0  0  0  0  0  0  0  0
  -27.4322  -13.6089   19.7455 C   0  0  2  0  0  0  0  0  0  0  0  0
  -30.4313  -20.2997   27.3502 C   0  0  1  0  0  0  0  0  0  1  0  0
  -34.5611  -15.7126   24.3072 C   0  0  0  0  0  0  0  0  0  0  0  0
  -33.2409  -16.5625   26.7579 C   0  0  0  0  0  0  0  0  0  0  0  0
  -28.7895  -15.9057   24.5582 C   0  0  0  0  0  0  0  0  0  0  0  0
  -32.9267  -19.3744   18.2803 C   0  0  0  0  0  0  0  0  0  0  0  0
  -28.6111  -24.1935   17.8477 C   0  0  0  0  0  0  0  0  0  0  0  0
  -29.3076  -21.8603   17.2655 C   0  0  0  0  0  0  0  0  0  0  0  0
  -30.9360  -23.7373   17.0469 C   0  0  0  0  0  0  0  0  0  0  0  0
  -32.0795  -19.0900   21.9786 C   0  0  0  0  0  0  0  0  0  0  0  0
  -30.3492  -16.6561   26.8749 C   0  0  0  0  0  0  0  0  0  0  0  0
  -30.2837  -22.9243   19.3502 C   0  0  1  0  0  0  0  0  0  0  0  0
  -32.5344  -19.8894   19.6564 C   0  0  2  0  0  0  0  0  0  0  0  0
  -29.7761  -23.1852   17.9040 C   0  0  0  0  0  0  0  0  0  0  0  0
  -25.8857  -11.7721   20.3076 N   0  0  0  0  0  0  0  0  0  0  0  0
  -26.0758  -13.0976   20.1935 N   0  0  0  0  0  0  0  0  0  0  0  0
  -30.5851  -24.2268   21.4326 N   0  0  0  0  0  0  0  0  0  0  0  0
  -29.8375  -13.7522   20.2598 N   0  0  0  0  0  0  0  0  0  0  0  0
  -24.9947  -15.1896   20.4489 N   0  0  0  0  0  0  0  0  0  0  0  0
  -21.7895  -12.2156   21.5793 N   0  0  0  0  0  0  0  0  0  0  0  0
  -30.1796  -15.0745   22.1825 N   0  0  0  0  0  0  0  0  0  0  0  0
  -29.5277  -27.4004   22.8839 N   0  0  0  0  0  0  0  0  0  0  0  0
  -31.4046  -21.9940   19.4313 N   0  0  0  0  0  0  0  0  0  0  0  0
  -29.7866  -18.0427   26.7847 N   0  3  1  0  0  0  0  0  0  0  0  0
  -32.4362  -18.7264   20.5831 N   0  3  0  0  0  0  0  0  0  0  0  0
  -22.2528  -14.4471   21.3248 O   0  0  0  0  0  0  0  0  0  0  0  0
  -28.4646  -25.5739   21.9061 O   0  0  0  0  0  0  0  0  0  0  0  0
  -31.2081  -25.1087   19.3661 O   0  0  0  0  0  0  0  0  0  0  0  0
  -30.1266  -20.0803   19.7174 O   0  0  0  0  0  0  0  0  0  0  0  0
  -31.7499  -15.0329   20.4755 O   0  0  0  0  0  0  0  0  0  0  0  0
  -22.3169   -6.6701   21.6424 O   0  0  0  0  0  0  0  0  0  0  0  0
  -29.4867  -21.0762   26.6211 O   0  0  0  0  0  0  0  0  0  1  0  0
  -19.3293   -6.0416   26.2341 F   0  0  0  0  0  0  0  0  0  0  0  0
  -23.0208   -4.7938   23.5468 F   0  0  0  0  0  0  0  0  0  0  0  0
  1  2  1  0  0  0  0
  1  5  2  0  0  0  0
  2  6  2  0  0  0  0
  3  8  2  0  0  0  0
  3 16  1  0  0  0  0
  4  9  1  0  0  0  0
  4 16  2  0  0  0  0
  5 18  1  0  0  0  0
  6 20  1  0  0  0  0
  7 10  2  0  0  0  0
  7 19  1  0  0  0  0
  8 27  1  0  0  0  0
  9 27  2  0  0  0  0
 10 28  1  0  0  0  0
 11 12  2  0  0  0  0
 11 29  1  0  0  0  0
 12 30  1  0  0  0  0
 13 21  1  0  0  0  0
 13 28  2  0  0  0  0
 14 22  1  0  0  0  0
 14 26  2  0  0  0  0
 15 30  2  0  0  0  0
 15 31  1  0  0  0  0
 16 32  1  0  0  0  0
 17 32  1  0  0  0  0
 17 33  2  0  0  0  0
 17 36  1  0  0  0  0
 18 20  2  0  0  0  0
 18 41  1  0  0  0  0
 19 21  2  0  0  0  0
 19 42  1  0  0  0  0
 20 52  1  0  0  0  0
 21 43  1  0  0  0  0
 22 23  2  0  0  0  0
 22 56  1  0  0  0  0
 23 24  1  0  0  0  0
 23 57  1  0  0  0  0
 24 25  2  0  0  0  0
 24 64  1  0  0  0  0
 25 26  1  0  0  0  0
 25 58  1  0  0  0  0
 26 74  1  0  0  0  0
 27 84  1  0  0  0  0
 28 85  1  0  0  0  0
 29 31  2  0  0  0  0
 29 84  1  0  0  0  0
 30 86  1  0  0  0  0
 31 87  1  0  0  0  0
 32 68  2  0  0  0  0
 33 69  1  0  0  0  0
 33 72  1  0  0  0  0
 34 35  2  0  0  0  0
 34 44  1  0  0  0  0
 34 77  1  0  0  0  0
 36 73  1  0  0  0  0
 36 79  2  0  0  0  0
 37 53  1  0  0  0  0
 37 75  1  0  0  0  0
 37 80  2  0  0  0  0
 38 65  1  0  0  0  0
 38 70  1  0  0  0  0
 38 81  2  0  0  0  0
 39 66  1  0  0  0  0
 39 76  1  0  0  0  0
 39 82  2  0  0  0  0
 40 71  1  0  0  0  0
 40 74  1  0  0  0  0
 40 83  2  0  0  0  0
 41 45  1  0  0  0  0
 42 53  1  0  0  0  0
 43 70  1  0  0  0  0
 44 55  1  0  0  0  0
 45 47  1  0  0  0  0
 46 48  1  0  0  0  0
 46 49  1  0  0  0  0
 47 52  1  0  0  0  0
 48 54  1  0  0  0  0
 49 71  1  0  0  0  0
 50 54  1  0  0  0  0
 50 71  1  0  0  0  0
 51 55  1  0  0  0  0
 51 77  1  0  0  0  0
 52 75  1  0  0  0  0
 53 70  1  0  0  0  0
 54 69  1  0  0  0  0
 55 85  1  0  0  0  0
 59 66  1  0  0  0  0
 60 67  1  0  0  0  0
 61 67  1  0  0  0  0
 62 67  1  0  0  0  0
 63 78  1  0  0  0  0
 64 77  1  0  0  0  0
 65 67  1  0  0  0  0
 65 76  1  0  0  0  0
 66 78  1  0  0  0  0
 68 69  1  0  0  0  0
M  CHG  2  77   1  78   1
M  ISO  4  40 100  55 101  74 100  85 101
M  END
> <Batch ID>
0032

> <Smiles>
C=C1C[101CH:1]([101O:1]c2ccc3c(c2)CN(C(=O)C(NC(=O)C(C)NC)C(C)(C)C)C(C(=O)NC2CCCc4ccccc42)C3)CN1Cc1c(C)c(C)cc([100NH:0][100C:0](=O)N2CCCC(n3nc(-c4ccc(Oc5ccc(F)cc5F)cc4)c(C(N)=O)c3N)C2)c1C

> <Shape>
0.230

> <Color>
0.186

> <Negative vol penalty>
0.000

$$$$

  -OEChem-04042321423D

 89 99  0     1  0  0  0  0  0999 V2000
  -16.7016  -30.9578   23.5408 C   0  0  0  0  0  0  0  0  0  0  0  0
  -17.9155  -31.6373   23.5243 C   0  0  0  0  0  0  0  0  0  0  0  0
  -24.6035  -14.0197   20.0308 C   0  0  0  0  0  0  0  0  0  0  0  0
  -26.4835  -14.0379   21.5481 C   0  0  0  0  0  0  0  0  0  0  0  0
  -16.6845  -29.5647   23.5932 C   0  0  0  0  0  0  0  0  0  0  0  0
  -19.1131  -30.9240   23.5613 C   0  0  0  0  0  0  0  0  0  0  0  0
  -25.8559  -31.2064   21.1591 C   0  0  0  0  0  0  0  0  0  0  0  0
  -30.9279  -24.8562   22.2061 C   0  0  0  0  0  0  0  0  0  0  0  0
  -30.2900  -23.9681   21.3402 C   0  0  0  0  0  0  0  0  0  0  0  0
  -24.6150  -12.6249   20.0332 C   0  0  0  0  0  0  0  0  0  0  0  0
  -26.4950  -12.6431   21.5506 C   0  0  0  0  0  0  0  0  0  0  0  0
  -27.1685  -31.1293   21.6226 C   0  0  0  0  0  0  0  0  0  0  0  0
  -23.9205   -9.0583   19.9235 C   0  0  0  0  0  0  0  0  0  0  0  0
  -22.6978   -8.3999   20.0542 C   0  0  0  0  0  0  0  0  0  0  0  0
  -27.0175  -28.7218   21.6321 C   0  0  0  0  0  0  0  0  0  0  0  0
  -28.7254  -23.3884   23.0874 C   0  0  0  0  0  0  0  0  0  0  0  0
  -22.3507   -9.4691   22.1928 C   0  0  0  0  0  0  0  0  0  0  0  0
  -25.5378  -14.7262   20.7882 C   0  0  0  0  0  0  0  0  0  0  0  0
  -24.8154  -17.0133   21.6572 C   0  0  0  0  0  0  0  0  0  0  0  0
  -17.8826  -28.8336   23.6212 C   0  0  0  0  0  0  0  0  0  0  0  0
  -25.1093  -30.0400   20.9386 C   0  0  0  0  0  0  0  0  0  0  0  0
  -19.1120  -29.5198   23.6155 C   0  0  0  0  0  0  0  0  0  0  0  0
  -25.6965  -28.7866   21.1633 C   0  0  0  0  0  0  0  0  0  0  0  0
  -30.4647  -25.0104   23.5128 C   0  0  0  0  0  0  0  0  0  0  0  0
  -29.1887  -23.2342   21.7808 C   0  0  0  0  0  0  0  0  0  0  0  0
  -25.5607  -11.9366   20.7931 C   0  0  0  0  0  0  0  0  0  0  0  0
  -27.7486  -29.8870   21.8619 C   0  0  0  0  0  0  0  0  0  0  0  0
  -24.3583   -9.9221   20.9275 C   0  0  0  0  0  0  0  0  0  0  0  0
  -21.9129   -8.6053   21.1888 C   0  0  0  0  0  0  0  0  0  0  0  0
  -23.5734  -10.1274   22.0621 C   0  0  0  0  0  0  0  0  0  0  0  0
  -29.3634  -24.2765   23.9534 C   0  0  0  0  0  0  0  0  0  0  0  0
  -25.5267  -16.1671   20.7856 C   0  0  0  0  0  0  0  0  0  0  0  0
  -25.1383  -18.2824   21.2432 C   0  0  0  0  0  0  0  0  0  0  0  0
  -23.9409  -16.6817   22.7440 C   0  0  0  0  0  0  0  0  0  0  0  0
  -22.4328  -28.8273   22.1507 C   0  0  0  0  0  0  0  0  0  0  0  0
  -22.8571  -26.5948   19.8359 C   0  0  0  0  0  0  0  0  0  0  0  0
  -24.8867  -24.3811   17.8364 C   0  0  0  0  0  0  0  0  0  0  0  0
  -28.8745  -22.0588   19.5749 C   0  0  0  0  0  0  0  0  0  0  0  0
  -17.8135  -27.3305   23.7254 C   0  0  0  0  0  0  0  0  0  0  0  0
  -23.7035  -30.1394   20.4130 C   0  0  0  0  0  0  0  0  0  0  0  0
  -24.9444  -27.5040   20.9230 C   0  0  0  0  0  0  0  0  0  0  0  0
  -19.1288  -26.6352   23.3838 C   0  0  0  0  0  0  0  0  0  0  0  0
  -30.0625  -31.5517   27.1685 C   0  0  0  0  0  0  0  0  0  0  0  0
  -29.6782  -32.2866   25.8891 C   0  0  0  0  0  0  0  0  0  0  0  0
  -27.5526  -19.8780   17.0902 C   0  0  0  0  0  0  0  0  0  0  0  0
  -20.2947  -27.3232   24.0868 C   0  0  0  0  0  0  0  0  0  0  0  0
  -30.9279  -30.3285   26.8776 C   0  0  0  0  0  0  0  0  0  0  0  0
  -29.0179  -31.3568   24.8722 C   0  0  0  0  0  0  0  0  0  0  0  0
  -26.8492  -18.7877   17.9018 C   0  0  0  0  0  0  0  0  0  0  0  0
  -28.8363  -20.3516   17.7696 C   0  0  0  0  0  0  0  0  0  0  0  0
  -27.9764  -19.6828   19.9792 C   0  0  0  0  0  0  0  0  0  0  0  0
  -31.1244  -28.1676   25.6000 C   0  0  0  0  0  0  0  0  0  0  0  0
  -30.1028  -27.9395   23.3236 C   0  0  0  0  0  0  0  0  0  0  0  0
  -20.4323  -28.7804   23.6295 C   0  0  1  0  0  0  0  0  0  0  0  0
  -22.8644  -28.9012   20.7134 C   0  0  1  0  0  0  0  0  0  0  0  0
  -30.2441  -29.3861   25.8788 C   0  0  2  0  0  0  0  0  0  0  0  0
  -29.8951  -30.1291   24.5739 C   0  0  1  0  0  0  0  0  0  0  0  0
  -26.6442  -19.2197   19.3671 C   0  0  2  0  0  0  0  0  0  0  0  0
  -29.2322  -29.1656   23.5749 C   0  0  1  0  0  0  0  0  0  1  0  0
  -24.2580  -22.8474   15.9524 C   0  0  0  0  0  0  0  0  0  0  0  0
  -22.6459  -24.4729   22.0182 C   0  0  0  0  0  0  0  0  0  0  0  0
  -23.6407  -22.8260   20.4162 C   0  0  0  0  0  0  0  0  0  0  0  0
  -21.4539  -23.9067   19.8939 C   0  0  0  0  0  0  0  0  0  0  0  0
  -26.8597  -25.6229   16.0132 C   0  0  0  0  0  0  0  0  0  0  0  0
  -31.1785  -25.9759   24.4123 C   0  0  0  0  0  0  0  0  0  0  0  0
  -23.5773  -25.2711   19.7464 C   0  0  1  0  0  0  0  0  0  0  0  0
  -24.8270  -24.2063   16.3296 C   0  0  2  0  0  0  0  0  0  0  0  0
  -22.8432  -24.1432   20.5252 C   0  0  0  0  0  0  0  0  0  0  0  0
  -26.2471  -16.8417   19.8857 N   0  0  0  0  0  0  0  0  0  0  0  0
  -25.9900  -18.1254   20.1896 N   0  0  0  0  0  0  0  0  0  0  0  0
  -23.5707  -27.6537   20.4149 N   0  0  0  0  0  0  0  0  0  0  0  0
  -28.5643  -20.7487   19.1528 N   0  0  0  0  0  0  0  0  0  0  0  0
  -24.7739  -19.5063   21.6811 N   0  0  0  0  0  0  0  0  0  0  0  0
  -23.7189  -15.3286   23.0341 N   0  0  0  0  0  0  0  0  0  0  0  0
  -28.5415  -22.3312   20.9013 N   0  0  0  0  0  0  0  0  0  0  0  0
  -21.0625  -28.8444   22.3282 N   0  0  0  0  0  0  0  0  0  0  0  0
  -23.7540  -24.9978   18.3242 N   0  0  0  0  0  0  0  0  0  0  0  0
  -30.4169  -27.2549   24.6267 N   0  3  1  0  0  0  0  0  0  0  0  0
  -26.1906  -24.3249   15.7400 N   0  3  0  0  0  0  0  0  0  0  0  0
  -23.3603  -17.5593   23.4269 O   0  0  0  0  0  0  0  0  0  0  0  0
  -23.2802  -28.7582   23.0332 O   0  0  0  0  0  0  0  0  0  0  0  0
  -21.7064  -26.6878   19.4013 O   0  0  0  0  0  0  0  0  0  0  0  0
  -25.8409  -24.0047   18.5134 O   0  0  0  0  0  0  0  0  0  0  0  0
  -29.3722  -22.8870   18.8078 O   0  0  0  0  0  0  0  0  0  0  0  0
  -25.5721  -10.5756   20.7959 O   0  0  0  0  0  0  0  0  0  0  0  0
  -29.0368  -29.8086   22.3176 O   0  0  0  0  0  0  0  0  0  1  0  0
  -20.7380   -7.9741   21.3135 F   0  0  0  0  0  0  0  0  0  0  0  0
  -23.9882  -10.9569   23.0294 F   0  0  0  0  0  0  0  0  0  0  0  0
  -28.7625  -24.4406   25.5633 Cl  0  0  0  0  0  0  0  0  0  0  0  0
  1  2  1  0  0  0  0
  1  5  2  0  0  0  0
  2  6  2  0  0  0  0
  3 10  2  0  0  0  0
  3 18  1  0  0  0  0
  4 11  1  0  0  0  0
  4 18  2  0  0  0  0
  5 20  1  0  0  0  0
  6 22  1  0  0  0  0
  7 12  2  0  0  0  0
  7 21  1  0  0  0  0
  8  9  2  0  0  0  0
  8 24  1  0  0  0  0
  9 25  1  0  0  0  0
 10 26  1  0  0  0  0
 11 26  2  0  0  0  0
 12 27  1  0  0  0  0
 13 14  2  0  0  0  0
 13 28  1  0  0  0  0
 14 29  1  0  0  0  0
 15 23  1  0  0  0  0
 15 27  2  0  0  0  0
 16 25  2  0  0  0  0
 16 31  1  0  0  0  0
 17 29  2  0  0  0  0
 17 30  1  0  0  0  0
 18 32  1  0  0  0  0
 19 32  1  0  0  0  0
 19 33  2  0  0  0  0
 19 34  1  0  0  0  0
 20 22  2  0  0  0  0
 20 39  1  0  0  0  0
 21 23  2  0  0  0  0
 21 40  1  0  0  0  0
 22 54  1  0  0  0  0
 23 41  1  0  0  0  0
 24 31  2  0  0  0  0
 24 65  1  0  0  0  0
 25 75  1  0  0  0  0
 26 85  1  0  0  0  0
 27 86  1  0  0  0  0
 28 30  2  0  0  0  0
 28 85  1  0  0  0  0
 29 87  1  0  0  0  0
 30 88  1  0  0  0  0
 31 89  1  0  0  0  0
 32 69  2  0  0  0  0
 33 70  1  0  0  0  0
 33 73  1  0  0  0  0
 34 74  1  0  0  0  0
 34 80  2  0  0  0  0
 35 55  1  0  0  0  0
 35 76  1  0  0  0  0
 35 81  2  0  0  0  0
 36 66  1  0  0  0  0
 36 71  1  0  0  0  0
 36 82  2  0  0  0  0
 37 67  1  0  0  0  0
 37 77  1  0  0  0  0
 37 83  2  0  0  0  0
 38 72  1  0  0  0  0
 38 75  1  0  0  0  0
 38 84  2  0  0  0  0
 39 42  1  0  0  0  0
 40 55  1  0  0  0  0
 41 71  1  0  0  0  0
 42 46  1  0  0  0  0
 43 44  1  0  0  0  0
 43 47  1  0  0  0  0
 44 48  1  0  0  0  0
 45 49  1  0  0  0  0
 45 50  1  0  0  0  0
 46 54  1  0  0  0  0
 47 56  1  0  0  0  0
 48 57  1  0  0  0  0
 49 58  1  0  0  0  0
 50 72  1  0  0  0  0
 51 58  1  0  0  0  0
 51 72  1  0  0  0  0
 52 56  1  0  0  0  0
 52 78  1  0  0  0  0
 53 59  1  0  0  0  0
 53 78  1  0  0  0  0
 54 76  1  0  0  0  0
 55 71  1  0  0  0  0
 56 57  1  0  0  0  0
 57 59  1  0  0  0  0
 58 70  1  0  0  0  0
 59 86  1  0  0  0  0
 60 67  1  0  0  0  0
 61 68  1  0  0  0  0
 62 68  1  0  0  0  0
 63 68  1  0  0  0  0
 64 79  1  0  0  0  0
 65 78  1  0  0  0  0
 66 68  1  0  0  0  0
 66 77  1  0  0  0  0
 67 79  1  0  0  0  0
 69 70  1  0  0  0  0
M  CHG  2  78   1  79   1
M  ISO  4  38 100  59 101  75 100  86 101
M  END
> <Batch ID>
0032

> <Smiles>
CNC(C)C(=O)NC(C(=O)N1Cc2cc([101O:1][101CH:1]3CN(Cc4ccc([100NH:0][100C:0](=O)N5CCCC(n6nc(-c7ccc(Oc8ccc(F)cc8F)cc7)c(C(N)=O)c6N)C5)cc4Cl)CC4CCCCC43)ccc2CC1C(=O)NC1CCCc2ccccc21)C(C)(C)C

> <Shape>
0.233

> <Color>
0.099

> <Negative vol penalty>
0.000

$$$$

  -OEChem-04042321423D

 86 94  0     1  0  0  0  0  0999 V2000
  -27.5980  -32.1962   27.4936 C   0  0  0  0  0  0  0  0  0  0  0  0
  -27.8516  -31.1997   26.5566 C   0  0  0  0  0  0  0  0  0  0  0  0
  -25.8362  -15.3444   22.7168 C   0  0  0  0  0  0  0  0  0  0  0  0
  -25.5063  -14.7159   20.4074 C   0  0  0  0  0  0  0  0  0  0  0  0
  -26.2835  -32.5180   27.8288 C   0  0  0  0  0  0  0  0  0  0  0  0
  -26.7908  -30.5235   25.9550 C   0  0  0  0  0  0  0  0  0  0  0  0
  -27.4021  -30.0067   20.9546 C   0  0  0  0  0  0  0  0  0  0  0  0
  -24.9507  -14.3433   23.1158 C   0  0  0  0  0  0  0  0  0  0  0  0
  -24.6208  -13.7147   20.8064 C   0  0  0  0  0  0  0  0  0  0  0  0
  -28.2746  -29.0101   20.5194 C   0  0  0  0  0  0  0  0  0  0  0  0
  -21.3957  -13.4905   21.7960 C   0  0  0  0  0  0  0  0  0  0  0  0
  -20.2001  -13.3633   21.0890 C   0  0  0  0  0  0  0  0  0  0  0  0
  -26.3934  -27.5700   20.0652 C   0  0  0  0  0  0  0  0  0  0  0  0
  -28.9055  -22.3006   16.8173 C   0  0  0  0  0  0  0  0  0  0  0  0
  -30.4342  -22.9802   15.0743 C   0  0  0  0  0  0  0  0  0  0  0  0
  -20.7986  -11.1023   20.4834 C   0  0  0  0  0  0  0  0  0  0  0  0
  -26.1139  -15.5308   21.3626 C   0  0  0  0  0  0  0  0  0  0  0  0
  -28.4211  -16.4512   20.7816 C   0  0  0  0  0  0  0  0  0  0  0  0
  -25.2058  -31.8521   27.2239 C   0  0  0  0  0  0  0  0  0  0  0  0
  -26.0170  -29.7881   20.9586 C   0  0  0  0  0  0  0  0  0  0  0  0
  -25.4606  -30.8358   26.2835 C   0  0  0  0  0  0  0  0  0  0  0  0
  -25.5054  -28.5663   20.4985 C   0  0  0  0  0  0  0  0  0  0  0  0
  -30.0121  -23.0414   16.4024 C   0  0  0  0  0  0  0  0  0  0  0  0
  -28.2211  -21.4984   15.9042 C   0  0  0  0  0  0  0  0  0  0  0  0
  -24.3431  -13.5284   22.1606 C   0  0  0  0  0  0  0  0  0  0  0  0
  -27.7705  -27.7905   20.0774 C   0  0  0  0  0  0  0  0  0  0  0  0
  -22.2929  -12.4236   21.8466 C   0  0  0  0  0  0  0  0  0  0  0  0
  -19.9015  -12.1693   20.4327 C   0  0  0  0  0  0  0  0  0  0  0  0
  -21.9943  -11.2296   21.1904 C   0  0  0  0  0  0  0  0  0  0  0  0
  -28.6432  -21.4371   14.5762 C   0  0  0  0  0  0  0  0  0  0  0  0
  -29.7497  -22.1780   14.1612 C   0  0  0  0  0  0  0  0  0  0  0  0
  -27.0281  -16.5652   20.9498 C   0  0  0  0  0  0  0  0  0  0  0  0
  -28.8224  -17.7027   20.3828 C   0  0  0  0  0  0  0  0  0  0  0  0
  -29.2759  -15.3154   20.9690 C   0  0  0  0  0  0  0  0  0  0  0  0
  -23.7655  -29.7057   23.2009 C   0  0  0  0  0  0  0  0  0  0  0  0
  -21.7822  -29.4290   20.6489 C   0  0  0  0  0  0  0  0  0  0  0  0
  -21.3689  -28.5171   17.3863 C   0  0  0  0  0  0  0  0  0  0  0  0
  -25.4800  -22.1170   17.7598 C   0  0  0  0  0  0  0  0  0  0  0  0
  -23.8030  -32.2020   27.6534 C   0  0  0  0  0  0  0  0  0  0  0  0
  -25.0877  -30.8830   21.4059 C   0  0  0  0  0  0  0  0  0  0  0  0
  -24.0254  -28.2890   20.4637 C   0  0  0  0  0  0  0  0  0  0  0  0
  -22.7284  -31.6969   26.6939 C   0  0  0  0  0  0  0  0  0  0  0  0
  -27.6476  -22.3198   20.7534 C   0  0  0  0  0  0  0  0  0  0  0  0
  -22.9921  -30.2431   26.3146 C   0  0  0  0  0  0  0  0  0  0  0  0
  -27.7878  -20.8547   21.1630 C   0  0  0  0  0  0  0  0  0  0  0  0
  -26.3307  -22.5828   20.0293 C   0  0  0  0  0  0  0  0  0  0  0  0
  -26.2424  -20.2332   19.2641 C   0  0  0  0  0  0  0  0  0  0  0  0
  -24.3361  -30.0969   25.5909 C   0  0  1  0  0  0  0  0  0  0  0  0
  -23.7238  -30.3643   21.8510 C   0  0  1  0  0  0  0  0  0  0  0  0
  -27.5792  -19.9249   19.9550 C   0  0  2  0  0  0  0  0  0  0  0  0
  -19.6252  -28.3706   15.5876 C   0  0  0  0  0  0  0  0  0  0  0  0
  -29.5600  -28.1307   17.8642 C   0  0  0  0  0  0  0  0  0  0  0  0
  -20.6262  -26.9365   21.9761 C   0  0  0  0  0  0  0  0  0  0  0  0
  -19.6119  -26.3184   19.7721 C   0  0  0  0  0  0  0  0  0  0  0  0
  -18.9297  -28.4318   20.9082 C   0  0  0  0  0  0  0  0  0  0  0  0
  -25.2060  -21.9890   15.3128 C   0  0  0  0  0  0  0  0  0  0  0  0
  -22.8389  -30.4065   15.6460 C   0  0  0  0  0  0  0  0  0  0  0  0
  -27.0391  -20.7063   16.3521 C   0  0  0  0  0  0  0  0  0  0  0  0
  -30.7466  -23.9061   17.3840 C   0  0  0  0  0  0  0  0  0  0  0  0
  -30.6878  -26.0061   18.7351 C   0  0  0  0  0  0  0  0  0  0  0  0
  -21.2211  -28.2768   19.8510 C   0  0  1  0  0  0  0  0  0  0  0  0
  -20.7118  -29.2283   16.2172 C   0  0  2  0  0  0  0  0  0  0  0  0
  -29.8493  -27.2372   19.0633 C   0  0  2  0  0  0  0  0  0  1  0  0
  -20.1253  -27.4951   20.6292 C   0  0  0  0  0  0  0  0  0  0  0  0
  -26.5749  -17.7924   20.6800 N   0  0  0  0  0  0  0  0  0  0  0  0
  -27.6896  -18.4609   20.3384 N   0  0  0  0  0  0  0  0  0  0  0  0
  -23.1578  -29.3887   20.9172 N   0  0  0  0  0  0  0  0  0  0  0  0
  -26.1379  -21.6573   18.9125 N   0  0  0  0  0  0  0  0  0  0  0  0
  -30.0303  -18.2176   20.0693 N   0  0  0  0  0  0  0  0  0  0  0  0
  -28.6995  -14.1062   21.3812 N   0  0  0  0  0  0  0  0  0  0  0  0
  -24.2186  -30.5283   24.2145 N   0  0  0  0  0  0  0  0  0  0  0  0
  -20.7673  -28.8403   18.5842 N   0  0  0  0  0  0  0  0  0  0  0  0
  -25.8515  -21.5374   16.5372 N   0  0  0  0  0  0  0  0  0  0  0  0
  -21.7234  -29.5482   15.1706 N   0  3  0  0  0  0  0  0  0  0  0  0
  -30.0150  -25.1577   17.7202 N   0  3  0  0  0  0  0  0  0  0  0  0
  -30.5163  -15.3755   20.7925 O   0  0  0  0  0  0  0  0  0  0  0  0
  -23.4114  -28.5381   23.3146 O   0  0  0  0  0  0  0  0  0  0  0  0
  -21.0291  -30.3350   21.0144 O   0  0  0  0  0  0  0  0  0  0  0  0
  -22.3184  -27.7487   17.2502 O   0  0  0  0  0  0  0  0  0  0  0  0
  -24.6169  -23.0022   17.8189 O   0  0  0  0  0  0  0  0  0  0  0  0
  -23.4792  -12.5512   22.5496 O   0  0  0  0  0  0  0  0  0  0  0  0
  -28.6199  -26.8158   19.6527 O   0  0  0  0  0  0  0  0  0  1  0  0
  -18.7526  -12.0468   19.7551 F   0  0  0  0  0  0  0  0  0  0  0  0
  -22.8518  -10.2007   21.2364 F   0  0  0  0  0  0  0  0  0  0  0  0
  -27.9805  -20.6646   13.7020 F   0  0  0  0  0  0  0  0  0  0  0  0
  -30.2753  -22.1080   12.5233 Cl  0  0  0  0  0  0  0  0  0  0  0  0
  1  2  1  0  0  0  0
  1  5  2  0  0  0  0
  2  6  2  0  0  0  0
  3  8  2  0  0  0  0
  3 17  1  0  0  0  0
  4  9  1  0  0  0  0
  4 17  2  0  0  0  0
  5 19  1  0  0  0  0
  6 21  1  0  0  0  0
  7 10  2  0  0  0  0
  7 20  1  0  0  0  0
  8 25  1  0  0  0  0
  9 25  2  0  0  0  0
 10 26  1  0  0  0  0
 11 12  2  0  0  0  0
 11 27  1  0  0  0  0
 12 28  1  0  0  0  0
 13 22  1  0  0  0  0
 13 26  2  0  0  0  0
 14 23  2  0  0  0  0
 14 24  1  0  0  0  0
 15 23  1  0  0  0  0
 15 31  2  0  0  0  0
 16 28  2  0  0  0  0
 16 29  1  0  0  0  0
 17 32  1  0  0  0  0
 18 32  1  0  0  0  0
 18 33  2  0  0  0  0
 18 34  1  0  0  0  0
 19 21  2  0  0  0  0
 19 39  1  0  0  0  0
 20 22  2  0  0  0  0
 20 40  1  0  0  0  0
 21 48  1  0  0  0  0
 22 41  1  0  0  0  0
 23 59  1  0  0  0  0
 24 30  2  0  0  0  0
 24 58  1  0  0  0  0
 25 81  1  0  0  0  0
 26 82  1  0  0  0  0
 27 29  2  0  0  0  0
 27 81  1  0  0  0  0
 28 83  1  0  0  0  0
 29 84  1  0  0  0  0
 30 31  1  0  0  0  0
 30 85  1  0  0  0  0
 31 86  1  0  0  0  0
 32 65  2  0  0  0  0
 33 66  1  0  0  0  0
 33 69  1  0  0  0  0
 34 70  1  0  0  0  0
 34 76  2  0  0  0  0
 35 49  1  0  0  0  0
 35 71  1  0  0  0  0
 35 77  2  0  0  0  0
 36 61  1  0  0  0  0
 36 67  1  0  0  0  0
 36 78  2  0  0  0  0
 37 62  1  0  0  0  0
 37 72  1  0  0  0  0
 37 79  2  0  0  0  0
 38 68  1  0  0  0  0
 38 73  1  0  0  0  0
 38 80  2  0  0  0  0
 39 42  1  0  0  0  0
 40 49  1  0  0  0  0
 41 67  1  0  0  0  0
 42 44  1  0  0  0  0
 43 45  1  0  0  0  0
 43 46  1  0  0  0  0
 44 48  1  0  0  0  0
 45 50  1  0  0  0  0
 46 68  1  0  0  0  0
 47 50  1  0  0  0  0
 47 68  1  0  0  0  0
 48 71  1  0  0  0  0
 49 67  1  0  0  0  0
 50 66  1  0  0  0  0
 51 62  1  0  0  0  0
 52 63  1  0  0  0  0
 53 64  1  0  0  0  0
 54 64  1  0  0  0  0
 55 64  1  0  0  0  0
 56 73  1  0  0  0  0
 57 74  1  0  0  0  0
 58 73  1  0  0  0  0
 59 75  1  0  0  0  0
 60 63  1  0  0  0  0
 60 75  1  0  0  0  0
 61 64  1  0  0  0  0
 61 72  1  0  0  0  0
 62 74  1  0  0  0  0
 63 82  1  0  0  0  0
 65 66  1  0  0  0  0
M  CHG  2  74   1  75   1
M  ISO  4  38 100  63 101  73 100  82 101
M  END
> <Batch ID>
0032

> <Smiles>
CNC(C)C(=O)NC(C(=O)N1Cc2cc([101O:1][101CH:1](C)CNCc3cc(Cl)c(F)c(C[100N:0](C)[100C:0](=O)N4CCCC(n5nc(-c6ccc(Oc7ccc(F)cc7F)cc6)c(C(N)=O)c5N)C4)c3)ccc2CC1C(=O)NC1CCCc2ccccc21)C(C)(C)C

> <Shape>
0.260

> <Color>
0.069

> <Negative vol penalty>
0.000

$$$$

  -OEChem-04042321423D

 84 93  0     1  0  0  0  0  0999 V2000
  -19.1933  -32.8572   23.8985 C   0  0  0  0  0  0  0  0  0  0  0  0
  -20.3738  -32.1587   23.6665 C   0  0  0  0  0  0  0  0  0  0  0  0
  -23.1120   -9.8394   21.5127 C   0  0  0  0  0  0  0  0  0  0  0  0
  -23.7177  -10.9234   23.5852 C   0  0  0  0  0  0  0  0  0  0  0  0
  -17.9825  -32.1705   23.9782 C   0  0  0  0  0  0  0  0  0  0  0  0
  -20.3444  -30.7728   23.5152 C   0  0  0  0  0  0  0  0  0  0  0  0
  -23.9097  -27.3921   19.8594 C   0  0  0  0  0  0  0  0  0  0  0  0
  -29.0863  -19.1731   19.7104 C   0  0  0  0  0  0  0  0  0  0  0  0
  -28.2079  -20.2229   19.9787 C   0  0  0  0  0  0  0  0  0  0  0  0
  -22.3722   -8.8943   22.2232 C   0  0  0  0  0  0  0  0  0  0  0  0
  -22.9778   -9.9782   24.2957 C   0  0  0  0  0  0  0  0  0  0  0  0
  -25.0650  -26.6500   20.1010 C   0  0  0  0  0  0  0  0  0  0  0  0
  -22.9782   -6.1012   24.0276 C   0  0  0  0  0  0  0  0  0  0  0  0
  -23.1241   -4.7614   23.6681 C   0  0  0  0  0  0  0  0  0  0  0  0
  -23.7276  -24.6562   20.3370 C   0  0  0  0  0  0  0  0  0  0  0  0
  -20.7658   -4.6417   23.1569 C   0  0  0  0  0  0  0  0  0  0  0  0
  -23.7848  -10.8540   22.1937 C   0  0  0  0  0  0  0  0  0  0  0  0
  -24.0925  -13.0604   20.9508 C   0  0  0  0  0  0  0  0  0  0  0  0
  -17.9370  -30.7766   23.8181 C   0  0  0  0  0  0  0  0  0  0  0  0
  -22.6516  -26.7728   19.8655 C   0  0  0  0  0  0  0  0  0  0  0  0
  -19.1320  -30.0666   23.5942 C   0  0  0  0  0  0  0  0  0  0  0  0
  -22.5581  -25.3923   20.0926 C   0  0  0  0  0  0  0  0  0  0  0  0
  -29.6469  -18.4469   20.7611 C   0  0  0  0  0  0  0  0  0  0  0  0
  -29.3292  -18.7706   22.0802 C   0  0  0  0  0  0  0  0  0  0  0  0
  -28.4509  -19.8204   22.3486 C   0  0  0  0  0  0  0  0  0  0  0  0
  -27.8902  -20.5466   21.2978 C   0  0  0  0  0  0  0  0  0  0  0  0
  -22.3051   -8.9637   23.6147 C   0  0  0  0  0  0  0  0  0  0  0  0
  -24.9738  -25.2824   20.3427 C   0  0  0  0  0  0  0  0  0  0  0  0
  -21.7261   -6.7112   23.9519 C   0  0  0  0  0  0  0  0  0  0  0  0
  -22.0180   -4.0316   23.2327 C   0  0  0  0  0  0  0  0  0  0  0  0
  -20.6199   -5.9815   23.5165 C   0  0  0  0  0  0  0  0  0  0  0  0
  -24.5497  -11.8303   21.4603 C   0  0  0  0  0  0  0  0  0  0  0  0
  -25.1939  -13.6106   20.3421 C   0  0  0  0  0  0  0  0  0  0  0  0
  -22.7887  -13.6527   21.0215 C   0  0  0  0  0  0  0  0  0  0  0  0
  -20.0097  -27.0781   21.6063 C   0  0  0  0  0  0  0  0  0  0  0  0
  -18.8114  -24.9738   19.4480 C   0  0  0  0  0  0  0  0  0  0  0  0
  -19.4099  -22.5100   17.1636 C   0  0  0  0  0  0  0  0  0  0  0  0
  -30.6356  -14.8488   20.3266 C   0  0  0  0  0  0  0  0  0  0  0  0
  -16.6107  -30.0726   23.9596 C   0  0  0  0  0  0  0  0  0  0  0  0
  -21.4174  -27.5826   19.5766 C   0  0  0  0  0  0  0  0  0  0  0  0
  -21.2332  -24.6761   20.0898 C   0  0  0  0  0  0  0  0  0  0  0  0
  -16.6169  -28.6465   23.4150 C   0  0  0  0  0  0  0  0  0  0  0  0
  -29.6982  -11.5910   19.2382 C   0  0  0  0  0  0  0  0  0  0  0  0
  -17.8526  -27.8952   23.9002 C   0  0  0  0  0  0  0  0  0  0  0  0
  -28.2402  -11.4623   19.6827 C   0  0  0  0  0  0  0  0  0  0  0  0
  -30.5299  -12.3751   20.2510 C   0  0  0  0  0  0  0  0  0  0  0  0
  -28.5285  -13.5708   21.0500 C   0  0  0  0  0  0  0  0  0  0  0  0
  -25.9470  -22.0335   20.7116 C   0  0  0  0  0  0  0  0  0  0  0  0
  -27.3452  -22.8914   22.0294 C   0  0  0  0  0  0  0  0  0  0  0  0
  -19.1378  -28.5658   23.4000 C   0  0  1  0  0  0  0  0  0  0  0  0
  -20.1424  -26.9415   20.1159 C   0  0  1  0  0  0  0  0  0  0  0  0
  -27.6377  -12.8359   20.0338 C   0  0  2  0  0  0  0  0  0  0  0  0
  -26.0216  -23.3880   21.4302 C   0  0  0  0  0  0  0  0  0  1  0  0
  -29.9320  -17.9900   23.2053 C   0  0  0  0  0  0  0  0  0  0  0  0
  -28.1113  -20.1665   23.7646 C   0  0  0  0  0  0  0  0  0  0  0  0
  -18.2279  -20.9554   15.5877 C   0  0  0  0  0  0  0  0  0  0  0  0
  -17.9731  -23.2263   21.8045 C   0  0  0  0  0  0  0  0  0  0  0  0
  -17.6841  -21.3247   20.2018 C   0  0  0  0  0  0  0  0  0  0  0  0
  -16.2855  -23.3767   19.9650 C   0  0  0  0  0  0  0  0  0  0  0  0
  -20.7813  -23.6667   14.8098 C   0  0  0  0  0  0  0  0  0  0  0  0
  -30.5839  -17.3272   20.4456 C   0  0  0  0  0  0  0  0  0  0  0  0
  -18.7361  -23.4692   19.3500 C   0  0  1  0  0  0  0  0  0  0  0  0
  -18.9067  -22.3070   15.7458 C   0  0  2  0  0  0  0  0  0  0  0  0
  -17.6946  -22.8628   20.3324 C   0  0  0  0  0  0  0  0  0  0  0  0
  -25.8410  -11.6115   21.1979 N   0  0  0  0  0  0  0  0  0  0  0  0
  -26.2045  -12.7116   20.5168 N   0  0  0  0  0  0  0  0  0  0  0  0
  -27.0131  -21.5969   21.5446 N   0  0  0  0  0  0  0  0  0  0  0  0
  -20.0547  -25.5125   19.8086 N   0  0  0  0  0  0  0  0  0  0  0  0
  -29.9049  -13.6682   20.5393 N   0  0  0  0  0  0  0  0  0  0  0  0
  -25.3869  -14.7710   19.6796 N   0  0  0  0  0  0  0  0  0  0  0  0
  -21.7716  -12.9522   21.6842 N   0  0  0  0  0  0  0  0  0  0  0  0
  -19.3724  -28.2357   22.0106 N   0  0  0  0  0  0  0  0  0  0  0  0
  -18.4819  -23.1638   17.9462 N   0  0  0  0  0  0  0  0  0  0  0  0
  -29.9667  -16.0312   20.6189 N   0  0  0  0  0  0  0  0  0  0  0  0
  -20.0385  -22.3805   14.7790 N   0  3  0  0  0  0  0  0  0  0  0  0
  -22.5290  -14.7626   20.4978 O   0  0  0  0  0  0  0  0  0  0  0  0
  -20.4513  -26.1978   22.3355 O   0  0  0  0  0  0  0  0  0  0  0  0
  -17.8062  -25.6467   19.2063 O   0  0  0  0  0  0  0  0  0  0  0  0
  -20.5142  -22.1236   17.5402 O   0  0  0  0  0  0  0  0  0  0  0  0
  -31.7961  -14.8495   19.9022 O   0  0  0  0  0  0  0  0  0  0  0  0
  -21.5830   -8.0417   24.3084 O   0  0  0  0  0  0  0  0  0  0  0  0
  -26.0998  -24.5557   20.5795 O   0  0  0  0  0  0  0  0  0  1  0  0
  -22.1585   -2.7455   22.8860 F   0  0  0  0  0  0  0  0  0  0  0  0
  -19.4147   -6.5625   23.4405 F   0  0  0  0  0  0  0  0  0  0  0  0
  1  2  1  0  0  0  0
  1  5  2  0  0  0  0
  2  6  2  0  0  0  0
  3 10  2  0  0  0  0
  3 17  1  0  0  0  0
  4 11  1  0  0  0  0
  4 17  2  0  0  0  0
  5 19  1  0  0  0  0
  6 21  1  0  0  0  0
  7 12  2  0  0  0  0
  7 20  1  0  0  0  0
  8  9  2  0  0  0  0
  8 23  1  0  0  0  0
  9 26  1  0  0  0  0
 10 27  1  0  0  0  0
 11 27  2  0  0  0  0
 12 28  1  0  0  0  0
 13 14  2  0  0  0  0
 13 29  1  0  0  0  0
 14 30  1  0  0  0  0
 15 22  1  0  0  0  0
 15 28  2  0  0  0  0
 16 30  2  0  0  0  0
 16 31  1  0  0  0  0
 17 32  1  0  0  0  0
 18 32  1  0  0  0  0
 18 33  2  0  0  0  0
 18 34  1  0  0  0  0
 19 21  2  0  0  0  0
 19 39  1  0  0  0  0
 20 22  2  0  0  0  0
 20 40  1  0  0  0  0
 21 50  1  0  0  0  0
 22 41  1  0  0  0  0
 23 24  2  0  0  0  0
 23 61  1  0  0  0  0
 24 25  1  0  0  0  0
 24 54  1  0  0  0  0
 25 26  2  0  0  0  0
 25 55  1  0  0  0  0
 26 67  1  0  0  0  0
 27 81  1  0  0  0  0
 28 82  1  0  0  0  0
 29 31  2  0  0  0  0
 29 81  1  0  0  0  0
 30 83  1  0  0  0  0
 31 84  1  0  0  0  0
 32 65  2  0  0  0  0
 33 66  1  0  0  0  0
 33 70  1  0  0  0  0
 34 71  1  0  0  0  0
 34 76  2  0  0  0  0
 35 51  1  0  0  0  0
 35 72  1  0  0  0  0
 35 77  2  0  0  0  0
 36 62  1  0  0  0  0
 36 68  1  0  0  0  0
 36 78  2  0  0  0  0
 37 63  1  0  0  0  0
 37 73  1  0  0  0  0
 37 79  2  0  0  0  0
 38 69  1  0  0  0  0
 38 74  1  0  0  0  0
 38 80  2  0  0  0  0
 39 42  1  0  0  0  0
 40 51  1  0  0  0  0
 41 68  1  0  0  0  0
 42 44  1  0  0  0  0
 43 45  1  0  0  0  0
 43 46  1  0  0  0  0
 44 50  1  0  0  0  0
 45 52  1  0  0  0  0
 46 69  1  0  0  0  0
 47 52  1  0  0  0  0
 47 69  1  0  0  0  0
 48 53  1  0  0  0  0
 48 67  1  0  0  0  0
 49 53  1  0  0  0  0
 49 67  1  0  0  0  0
 50 72  1  0  0  0  0
 51 68  1  0  0  0  0
 52 66  1  0  0  0  0
 53 82  1  0  0  0  0
 56 63  1  0  0  0  0
 57 64  1  0  0  0  0
 58 64  1  0  0  0  0
 59 64  1  0  0  0  0
 60 75  1  0  0  0  0
 61 74  1  0  0  0  0
 62 64  1  0  0  0  0
 62 73  1  0  0  0  0
 63 75  1  0  0  0  0
 65 66  1  0  0  0  0
M  CHG  1  75   1
M  ISO  4  38 100  53 101  74 100  82 101
M  END
> <Batch ID>
0032

> <Smiles>
CNC(C)C(=O)NC(C(=O)N1Cc2cc([101O:1][101CH:1]3CN(c4ccc(C[100NH:0][100C:0](=O)N5CCCC(n6nc(-c7ccc(Oc8ccc(F)cc8F)cc7)c(C(N)=O)c6N)C5)c(C)c4C)C3)ccc2CC1C(=O)NC1CCCc2ccccc21)C(C)(C)C

> <Shape>
0.267

> <Color>
0.168

> <Negative vol penalty>
0.000

$$$$

  -OEChem-04042321423D

 87 96  0     1  0  0  0  0  0999 V2000
  -14.1143  -25.1596   25.8785 C   0  0  0  0  0  0  0  0  0  0  0  0
  -15.1163  -24.5785   26.6490 C   0  0  0  0  0  0  0  0  0  0  0  0
  -22.6668  -10.1988   20.1657 C   0  0  0  0  0  0  0  0  0  0  0  0
  -24.3233   -9.4130   21.7391 C   0  0  0  0  0  0  0  0  0  0  0  0
  -14.1592  -25.0603   24.4885 C   0  0  0  0  0  0  0  0  0  0  0  0
  -16.1634  -23.8968   26.0299 C   0  0  0  0  0  0  0  0  0  0  0  0
  -23.1431  -22.4870   26.8129 C   0  0  0  0  0  0  0  0  0  0  0  0
  -21.9326   -9.0278   20.3539 C   0  0  0  0  0  0  0  0  0  0  0  0
  -23.5891   -8.2421   21.9274 C   0  0  0  0  0  0  0  0  0  0  0  0
  -24.0280  -21.4100   26.8399 C   0  0  0  0  0  0  0  0  0  0  0  0
  -20.8460   -7.2734   23.6472 C   0  0  0  0  0  0  0  0  0  0  0  0
  -20.6647   -6.8274   24.9563 C   0  0  0  0  0  0  0  0  0  0  0  0
  -24.0440  -21.3704   24.4280 C   0  0  0  0  0  0  0  0  0  0  0  0
  -30.1790  -20.1370   19.4834 C   0  0  0  0  0  0  0  0  0  0  0  0
  -31.6134  -18.3701   20.2939 C   0  0  0  0  0  0  0  0  0  0  0  0
  -21.7864   -4.7592   24.4070 C   0  0  0  0  0  0  0  0  0  0  0  0
  -23.8622  -10.3914   20.8582 C   0  0  0  0  0  0  0  0  0  0  0  0
  -24.1962  -12.9199   20.9091 C   0  0  0  0  0  0  0  0  0  0  0  0
  -15.2125  -24.3853   23.8517 C   0  0  0  0  0  0  0  0  0  0  0  0
  -22.6928  -23.0077   25.5912 C   0  0  0  0  0  0  0  0  0  0  0  0
  -16.2218  -23.7872   24.6302 C   0  0  0  0  0  0  0  0  0  0  0  0
  -23.1554  -22.4557   24.3881 C   0  0  0  0  0  0  0  0  0  0  0  0
  -31.3998  -19.4630   19.4539 C   0  0  0  0  0  0  0  0  0  0  0  0
  -29.1718  -19.7182   20.3529 C   0  0  0  0  0  0  0  0  0  0  0  0
  -30.6063  -17.9512   21.1633 C   0  0  0  0  0  0  0  0  0  0  0  0
  -29.3855  -18.6253   21.1928 C   0  0  0  0  0  0  0  0  0  0  0  0
  -22.3937   -8.0495   21.2348 C   0  0  0  0  0  0  0  0  0  0  0  0
  -24.4763  -20.8496   25.6474 C   0  0  0  0  0  0  0  0  0  0  0  0
  -21.4974   -6.4623   22.7180 C   0  0  0  0  0  0  0  0  0  0  0  0
  -21.1349   -5.5704   25.3363 C   0  0  0  0  0  0  0  0  0  0  0  0
  -21.9676   -5.2053   23.0979 C   0  0  0  0  0  0  0  0  0  0  0  0
  -24.6214  -11.6005   20.6638 C   0  0  0  0  0  0  0  0  0  0  0  0
  -25.2759  -13.6975   20.5683 C   0  0  0  0  0  0  0  0  0  0  0  0
  -22.9379  -13.3997   21.4011 C   0  0  0  0  0  0  0  0  0  0  0  0
  -19.8568  -23.2962   24.1848 C   0  0  0  0  0  0  0  0  0  0  0  0
  -21.5562  -24.9563   21.9761 C   0  0  0  0  0  0  0  0  0  0  0  0
  -24.5735  -25.5712   20.5048 C   0  0  0  0  0  0  0  0  0  0  0  0
  -30.7612  -14.7209   20.6675 C   0  0  0  0  0  0  0  0  0  0  0  0
  -15.1932  -24.2635   22.3485 C   0  0  0  0  0  0  0  0  0  0  0  0
  -21.7592  -24.1870   25.5789 C   0  0  0  0  0  0  0  0  0  0  0  0
  -22.7179  -22.9910   23.0500 C   0  0  0  0  0  0  0  0  0  0  0  0
  -16.5356  -23.8458   21.7539 C   0  0  0  0  0  0  0  0  0  0  0  0
  -29.5572  -12.5088   18.1508 C   0  0  0  0  0  0  0  0  0  0  0  0
  -29.0824  -19.8693   25.4664 C   0  0  0  0  0  0  0  0  0  0  0  0
  -17.1237  -22.6743   22.5340 C   0  0  0  0  0  0  0  0  0  0  0  0
  -28.1337  -12.1795   18.6038 C   0  0  0  0  0  0  0  0  0  0  0  0
  -27.6951  -19.8231   26.0931 C   0  0  0  0  0  0  0  0  0  0  0  0
  -30.5092  -12.6467   19.3369 C   0  0  0  0  0  0  0  0  0  0  0  0
  -28.6482  -13.2697   20.8276 C   0  0  0  0  0  0  0  0  0  0  0  0
  -29.2257  -18.8537   24.3418 C   0  0  0  0  0  0  0  0  0  0  0  0
  -26.7571  -18.9683   23.9139 C   0  0  0  0  0  0  0  0  0  0  0  0
  -17.3872  -23.0607   23.9944 C   0  0  1  0  0  0  0  0  0  0  0  0
  -20.9647  -24.3066   24.2820 C   0  0  1  0  0  0  0  0  0  0  0  0
  -27.6398  -13.1761   19.6697 C   0  0  2  0  0  0  0  0  0  0  0  0
  -26.6029  -19.9820   25.0401 C   0  0  1  0  0  0  0  0  0  1  0  0
  -32.4768  -19.9112   18.5249 C   0  0  0  0  0  0  0  0  0  0  0  0
  -27.8732  -20.4565   20.3642 C   0  0  0  0  0  0  0  0  0  0  0  0
  -25.6412  -26.9534   18.7029 C   0  0  0  0  0  0  0  0  0  0  0  0
  -20.3782  -23.1018   19.8588 C   0  0  0  0  0  0  0  0  0  0  0  0
  -22.1589  -23.8845   18.2825 C   0  0  0  0  0  0  0  0  0  0  0  0
  -20.4962  -25.5084   19.1887 C   0  0  0  0  0  0  0  0  0  0  0  0
  -26.3497  -26.9332   22.4410 C   0  0  0  0  0  0  0  0  0  0  0  0
  -30.8602  -16.7779   22.0525 C   0  0  0  0  0  0  0  0  0  0  0  0
  -28.3019  -18.1747   22.1275 C   0  0  0  0  0  0  0  0  0  0  0  0
  -22.2995  -24.6013   20.7110 C   0  0  1  0  0  0  0  0  0  0  0  0
  -25.2899  -26.8696   20.1801 C   0  0  2  0  0  0  0  0  0  0  0  0
  -21.3401  -24.2624   19.5353 C   0  0  0  0  0  0  0  0  0  0  0  0
  -25.8734  -11.5395   20.2026 N   0  0  0  0  0  0  0  0  0  0  0  0
  -26.2443  -12.8303   20.1554 N   0  0  0  0  0  0  0  0  0  0  0  0
  -21.7995  -24.1409   23.0905 N   0  0  0  0  0  0  0  0  0  0  0  0
  -29.9834  -13.6072   20.3100 N   0  0  0  0  0  0  0  0  0  0  0  0
  -25.4819  -15.0315   20.5845 N   0  0  0  0  0  0  0  0  0  0  0  0
  -22.7730  -13.5444   22.7853 N   0  0  0  0  0  0  0  0  0  0  0  0
  -18.5946  -23.8518   24.0979 N   0  0  0  0  0  0  0  0  0  0  0  0
  -23.2035  -25.7145   20.4426 N   0  0  0  0  0  0  0  0  0  0  0  0
  -30.1857  -15.5850   21.5911 N   0  0  0  0  0  0  0  0  0  0  0  0
  -28.1378  -19.0781   23.3186 N   0  3  2  0  0  0  0  0  0  0  0  0
  -26.5493  -26.9777   20.9696 N   0  3  0  0  0  0  0  0  0  0  0  0
  -21.9823  -13.6759   20.6368 O   0  0  0  0  0  0  0  0  0  0  0  0
  -20.1273  -22.1010   24.1869 O   0  0  0  0  0  0  0  0  0  0  0  0
  -20.7936  -25.9258   21.9776 O   0  0  0  0  0  0  0  0  0  0  0  0
  -25.1696  -24.5327   20.7818 O   0  0  0  0  0  0  0  0  0  0  0  0
  -31.8829  -14.9326   20.1943 O   0  0  0  0  0  0  0  0  0  0  0  0
  -21.6774   -6.9069   21.4189 O   0  0  0  0  0  0  0  0  0  0  0  0
  -25.3395  -19.7978   25.6709 O   0  0  0  0  0  0  0  0  0  1  0  0
  -20.9621   -5.1428   26.5938 F   0  0  0  0  0  0  0  0  0  0  0  0
  -22.5953   -4.4221   22.2099 F   0  0  0  0  0  0  0  0  0  0  0  0
  1  2  1  0  0  0  0
  1  5  2  0  0  0  0
  2  6  2  0  0  0  0
  3  8  2  0  0  0  0
  3 17  1  0  0  0  0
  4  9  1  0  0  0  0
  4 17  2  0  0  0  0
  5 19  1  0  0  0  0
  6 21  1  0  0  0  0
  7 10  2  0  0  0  0
  7 20  1  0  0  0  0
  8 27  1  0  0  0  0
  9 27  2  0  0  0  0
 10 28  1  0  0  0  0
 11 12  2  0  0  0  0
 11 29  1  0  0  0  0
 12 30  1  0  0  0  0
 13 22  1  0  0  0  0
 13 28  2  0  0  0  0
 14 23  1  0  0  0  0
 14 24  2  0  0  0  0
 15 23  2  0  0  0  0
 15 25  1  0  0  0  0
 16 30  2  0  0  0  0
 16 31  1  0  0  0  0
 17 32  1  0  0  0  0
 18 32  1  0  0  0  0
 18 33  2  0  0  0  0
 18 34  1  0  0  0  0
 19 21  2  0  0  0  0
 19 39  1  0  0  0  0
 20 22  2  0  0  0  0
 20 40  1  0  0  0  0
 21 52  1  0  0  0  0
 22 41  1  0  0  0  0
 23 56  1  0  0  0  0
 24 26  1  0  0  0  0
 24 57  1  0  0  0  0
 25 26  2  0  0  0  0
 25 63  1  0  0  0  0
 26 64  1  0  0  0  0
 27 84  1  0  0  0  0
 28 85  1  0  0  0  0
 29 31  2  0  0  0  0
 29 84  1  0  0  0  0
 30 86  1  0  0  0  0
 31 87  1  0  0  0  0
 32 68  2  0  0  0  0
 33 69  1  0  0  0  0
 33 72  1  0  0  0  0
 34 73  1  0  0  0  0
 34 79  2  0  0  0  0
 35 53  1  0  0  0  0
 35 74  1  0  0  0  0
 35 80  2  0  0  0  0
 36 65  1  0  0  0  0
 36 70  1  0  0  0  0
 36 81  2  0  0  0  0
 37 66  1  0  0  0  0
 37 75  1  0  0  0  0
 37 82  2  0  0  0  0
 38 71  1  0  0  0  0
 38 76  1  0  0  0  0
 38 83  2  0  0  0  0
 39 42  1  0  0  0  0
 40 53  1  0  0  0  0
 41 70  1  0  0  0  0
 42 45  1  0  0  0  0
 43 46  1  0  0  0  0
 43 48  1  0  0  0  0
 44 47  1  0  0  0  0
 44 50  1  0  0  0  0
 45 52  1  0  0  0  0
 46 54  1  0  0  0  0
 47 55  1  0  0  0  0
 48 71  1  0  0  0  0
 49 54  1  0  0  0  0
 49 71  1  0  0  0  0
 50 77  1  0  0  0  0
 51 55  1  0  0  0  0
 51 77  1  0  0  0  0
 52 74  1  0  0  0  0
 53 70  1  0  0  0  0
 54 69  1  0  0  0  0
 55 85  1  0  0  0  0
 58 66  1  0  0  0  0
 59 67  1  0  0  0  0
 60 67  1  0  0  0  0
 61 67  1  0  0  0  0
 62 78  1  0  0  0  0
 63 76  1  0  0  0  0
 64 77  1  0  0  0  0
 65 67  1  0  0  0  0
 65 75  1  0  0  0  0
 66 78  1  0  0  0  0
 68 69  1  0  0  0  0
M  CHG  2  77   1  78   1
M  ISO  4  38 100  55 101  76 100  85 101
M  END
> <Batch ID>
0032

> <Smiles>
CNC(C)C(=O)NC(C(=O)N1Cc2cc([101O:1][101CH:1]3CCCN(Cc4c(C)cc(C)cc4C[100NH:0][100C:0](=O)N4CCCC(n5nc(-c6ccc(Oc7ccc(F)cc7F)cc6)c(C(N)=O)c5N)C4)C3)ccc2CC1C(=O)NC1CCCc2ccccc21)C(C)(C)C

> <Shape>
0.236

> <Color>
0.175

> <Negative vol penalty>
0.000

$$$$

  -OEChem-04042321423D

 88 98  0     1  0  0  0  0  0999 V2000
  -30.1605  -25.7499   17.2283 C   0  0  0  0  0  0  0  0  0  0  0  0
  -28.7753  -25.7537   17.3573 C   0  0  0  0  0  0  0  0  0  0  0  0
  -28.3979  -13.0059   18.4430 C   0  0  0  0  0  0  0  0  0  0  0  0
  -28.9552  -12.8119   20.7858 C   0  0  0  0  0  0  0  0  0  0  0  0
  -30.9583  -26.2085   18.2757 C   0  0  0  0  0  0  0  0  0  0  0  0
  -28.1871  -26.2152   18.5343 C   0  0  0  0  0  0  0  0  0  0  0  0
  -22.8889  -29.2412   19.0615 C   0  0  0  0  0  0  0  0  0  0  0  0
  -29.4282  -12.1213   18.1246 C   0  0  0  0  0  0  0  0  0  0  0  0
  -29.9856  -11.9273   20.4674 C   0  0  0  0  0  0  0  0  0  0  0  0
  -21.6004  -28.8255   19.3944 C   0  0  0  0  0  0  0  0  0  0  0  0
  -30.3016   -8.6604   19.6621 C   0  0  0  0  0  0  0  0  0  0  0  0
  -30.4267   -7.5077   20.4374 C   0  0  0  0  0  0  0  0  0  0  0  0
  -21.7937  -24.5070   18.5373 C   0  0  0  0  0  0  0  0  0  0  0  0
  -21.9895  -29.4743   21.6851 C   0  0  0  0  0  0  0  0  0  0  0  0
  -22.0096  -22.1160   19.9471 C   0  0  0  0  0  0  0  0  0  0  0  0
  -32.6556   -8.1825   21.0808 C   0  0  0  0  0  0  0  0  0  0  0  0
  -28.1614  -13.3513   19.7736 C   0  0  0  0  0  0  0  0  0  0  0  0
  -25.7589  -13.9423   20.3950 C   0  0  0  0  0  0  0  0  0  0  0  0
  -30.3792  -26.6849   19.4625 C   0  0  0  0  0  0  0  0  0  0  0  0
  -23.7426  -29.7673   20.0417 C   0  0  0  0  0  0  0  0  0  0  0  0
  -28.9779  -26.6794   19.5991 C   0  0  0  0  0  0  0  0  0  0  0  0
  -22.9531  -23.7278   18.4125 C   0  0  0  0  0  0  0  0  0  0  0  0
  -23.2874  -29.8982   21.3615 C   0  0  0  0  0  0  0  0  0  0  0  0
  -20.7555  -24.0987   19.3705 C   0  0  0  0  0  0  0  0  0  0  0  0
  -20.8653  -22.9062   20.0775 C   0  0  0  0  0  0  0  0  0  0  0  0
  -23.0645  -22.5101   19.1065 C   0  0  0  0  0  0  0  0  0  0  0  0
  -30.2221  -11.5820   19.1368 C   0  0  0  0  0  0  0  0  0  0  0  0
  -21.1515  -28.9394   20.7069 C   0  0  0  0  0  0  0  0  0  0  0  0
  -31.3535   -9.5742   19.5960 C   0  0  0  0  0  0  0  0  0  0  0  0
  -31.6037   -7.2687   21.1468 C   0  0  0  0  0  0  0  0  0  0  0  0
  -32.5305   -9.3352   20.3054 C   0  0  0  0  0  0  0  0  0  0  0  0
  -27.0976  -14.2655   20.1031 C   0  0  0  0  0  0  0  0  0  0  0  0
  -25.1586  -15.1534   20.6389 C   0  0  0  0  0  0  0  0  0  0  0  0
  -25.3550  -22.1772   18.2399 C   0  0  0  0  0  0  0  0  0  0  0  0
  -25.1155  -12.6619   20.4416 C   0  0  0  0  0  0  0  0  0  0  0  0
  -26.5511  -28.9149   21.2622 C   0  0  0  0  0  0  0  0  0  0  0  0
  -26.3015  -31.7552   22.8090 C   0  0  0  0  0  0  0  0  0  0  0  0
  -24.2851  -34.2331   24.0095 C   0  0  0  0  0  0  0  0  0  0  0  0
  -24.1983  -20.3480   19.3410 C   0  0  0  0  0  0  0  0  0  0  0  0
  -31.2840  -27.1265   20.5854 C   0  0  0  0  0  0  0  0  0  0  0  0
  -25.1202  -30.2359   19.6611 C   0  0  0  0  0  0  0  0  0  0  0  0
  -24.0445  -24.1599   17.4784 C   0  0  0  0  0  0  0  0  0  0  0  0
  -24.1577  -30.4752   22.4469 C   0  0  0  0  0  0  0  0  0  0  0  0
  -25.3795  -23.6699   17.9982 C   0  0  0  0  0  0  0  0  0  0  0  0
  -30.5703  -27.9489   21.6552 C   0  0  0  0  0  0  0  0  0  0  0  0
  -27.1444  -19.7501   21.3019 C   0  0  0  0  0  0  0  0  0  0  0  0
  -29.2544  -27.2854   22.0490 C   0  0  0  0  0  0  0  0  0  0  0  0
  -27.2940  -18.2346   21.1730 C   0  0  0  0  0  0  0  0  0  0  0  0
  -18.3172  -27.1433   22.2109 C   0  0  0  0  0  0  0  0  0  0  0  0
  -26.6633  -20.3870   19.9989 C   0  0  0  0  0  0  0  0  0  0  0  0
  -25.5625  -18.2718   19.3329 C   0  0  0  0  0  0  0  0  0  0  0  0
  -18.0203  -26.2518   21.0220 C   0  0  0  0  0  0  0  0  0  0  0  0
  -20.4234  -26.2239   21.4955 C   0  0  0  0  0  0  0  0  0  0  0  0
  -28.3017  -27.1953   20.8508 C   0  0  1  0  0  0  0  0  0  0  0  0
  -26.0841  -30.2800   20.8428 C   0  0  1  0  0  0  0  0  0  0  0  0
  -25.9991  -17.5947   20.6418 C   0  0  1  0  0  0  0  0  0  0  0  0
  -19.7802  -27.5010   22.0133 C   0  0  1  0  0  0  0  0  0  1  0  0
  -19.7701  -22.4488   20.9848 C   0  0  0  0  0  0  0  0  0  0  0  0
  -24.3672  -36.4067   25.2608 C   0  0  0  0  0  0  0  0  0  0  0  0
  -26.7679  -30.2355   25.4134 C   0  0  0  0  0  0  0  0  0  0  0  0
  -25.9077  -32.2339   26.6522 C   0  0  0  0  0  0  0  0  0  0  0  0
  -27.9651  -32.4254   25.2547 C   0  0  0  0  0  0  0  0  0  0  0  0
  -23.0983  -35.7174   21.7408 C   0  0  0  0  0  0  0  0  0  0  0  0
  -19.5380  -24.9550   19.4877 C   0  0  0  0  0  0  0  0  0  0  0  0
  -25.7144  -32.2086   24.1238 C   0  0  1  0  0  0  0  0  0  0  0  0
  -24.3674  -35.7443   23.8919 C   0  0  2  0  0  0  0  0  0  0  0  0
  -26.5728  -31.7631   25.3412 C   0  0  0  0  0  0  0  0  0  0  0  0
  -27.3342  -15.5790   20.1561 N   0  0  0  0  0  0  0  0  0  0  0  0
  -26.1361  -16.0918   20.4840 N   0  0  0  0  0  0  0  0  0  0  0  0
  -24.2457  -21.7015   18.9583 N   0  0  0  0  0  0  0  0  0  0  0  0
  -25.4988  -30.9134   22.0262 N   0  0  0  0  0  0  0  0  0  0  0  0
  -25.4473  -19.7210   19.5115 N   0  0  0  0  0  0  0  0  0  0  0  0
  -23.8953  -15.4965   20.9686 N   0  0  0  0  0  0  0  0  0  0  0  0
  -25.8793  -11.5199   20.1645 N   0  0  0  0  0  0  0  0  0  0  0  0
  -27.6827  -28.4791   20.5996 N   0  0  0  0  0  0  0  0  0  0  0  0
  -25.5357  -33.6524   24.0149 N   0  0  0  0  0  0  0  0  0  0  0  0
  -19.2810  -25.4271   20.8756 N   0  3  2  0  0  0  0  0  0  0  0  0
  -23.2072  -36.2674   23.1165 N   0  3  0  0  0  0  0  0  0  0  0  0
  -26.3004  -21.4772   17.8708 O   0  0  0  0  0  0  0  0  0  0  0  0
  -23.8955  -12.5355   20.7045 O   0  0  0  0  0  0  0  0  0  0  0  0
  -25.9315  -28.3028   22.1243 O   0  0  0  0  0  0  0  0  0  0  0  0
  -27.4280  -32.1398   22.4851 O   0  0  0  0  0  0  0  0  0  0  0  0
  -23.2183  -33.6285   24.0923 O   0  0  0  0  0  0  0  0  0  0  0  0
  -23.1239  -19.7478   19.4599 O   0  0  0  0  0  0  0  0  0  0  0  0
  -31.2274  -10.7185   18.8265 O   0  0  0  0  0  0  0  0  0  0  0  0
  -19.8863  -28.5312   21.0369 O   0  0  0  0  0  0  0  0  0  1  0  0
  -31.7231   -6.1625   21.8926 F   0  0  0  0  0  0  0  0  0  0  0  0
  -33.5440  -10.2099   20.2468 F   0  0  0  0  0  0  0  0  0  0  0  0
  1  2  1  0  0  0  0
  1  5  2  0  0  0  0
  2  6  2  0  0  0  0
  3  8  2  0  0  0  0
  3 17  1  0  0  0  0
  4  9  1  0  0  0  0
  4 17  2  0  0  0  0
  5 19  1  0  0  0  0
  6 21  1  0  0  0  0
  7 10  2  0  0  0  0
  7 20  1  0  0  0  0
  8 27  1  0  0  0  0
  9 27  2  0  0  0  0
 10 28  1  0  0  0  0
 11 12  2  0  0  0  0
 11 29  1  0  0  0  0
 12 30  1  0  0  0  0
 13 22  2  0  0  0  0
 13 24  1  0  0  0  0
 14 23  1  0  0  0  0
 14 28  2  0  0  0  0
 15 25  1  0  0  0  0
 15 26  2  0  0  0  0
 16 30  2  0  0  0  0
 16 31  1  0  0  0  0
 17 32  1  0  0  0  0
 18 32  1  0  0  0  0
 18 33  2  0  0  0  0
 18 35  1  0  0  0  0
 19 21  2  0  0  0  0
 19 40  1  0  0  0  0
 20 23  2  0  0  0  0
 20 41  1  0  0  0  0
 21 54  1  0  0  0  0
 22 26  1  0  0  0  0
 22 42  1  0  0  0  0
 23 43  1  0  0  0  0
 24 25  2  0  0  0  0
 24 64  1  0  0  0  0
 25 58  1  0  0  0  0
 26 70  1  0  0  0  0
 27 85  1  0  0  0  0
 28 86  1  0  0  0  0
 29 31  2  0  0  0  0
 29 85  1  0  0  0  0
 30 87  1  0  0  0  0
 31 88  1  0  0  0  0
 32 68  2  0  0  0  0
 33 69  1  0  0  0  0
 33 73  1  0  0  0  0
 34 44  1  0  0  0  0
 34 70  1  0  0  0  0
 34 79  2  0  0  0  0
 35 74  1  0  0  0  0
 35 80  2  0  0  0  0
 36 55  1  0  0  0  0
 36 75  1  0  0  0  0
 36 81  2  0  0  0  0
 37 65  1  0  0  0  0
 37 71  1  0  0  0  0
 37 82  2  0  0  0  0
 38 66  1  0  0  0  0
 38 76  1  0  0  0  0
 38 83  2  0  0  0  0
 39 70  1  0  0  0  0
 39 72  1  0  0  0  0
 39 84  2  0  0  0  0
 40 45  1  0  0  0  0
 41 55  1  0  0  0  0
 42 44  1  0  0  0  0
 43 71  1  0  0  0  0
 45 47  1  0  0  0  0
 46 48  1  0  0  0  0
 46 50  1  0  0  0  0
 47 54  1  0  0  0  0
 48 56  1  0  0  0  0
 49 52  1  0  0  0  0
 49 57  1  0  0  0  0
 50 72  1  0  0  0  0
 51 56  1  0  0  0  0
 51 72  1  0  0  0  0
 52 77  1  0  0  0  0
 53 57  1  0  0  0  0
 53 77  1  0  0  0  0
 54 75  1  0  0  0  0
 55 71  1  0  0  0  0
 56 69  1  0  0  0  0
 57 86  1  0  0  0  0
 59 66  1  0  0  0  0
 60 67  1  0  0  0  0
 61 67  1  0  0  0  0
 62 67  1  0  0  0  0
 63 78  1  0  0  0  0
 64 77  1  0  0  0  0
 65 67  1  0  0  0  0
 65 76  1  0  0  0  0
 66 78  1  0  0  0  0
 68 69  1  0  0  0  0
M  CHG  2  77   1  78   1
M  ISO  4  39 100  57 101  70 100  86 101
M  END
> <Batch ID>
0032

> <Smiles>
CNC(C)C(=O)NC(C(=O)N1Cc2cc([101O:1][101CH:1]3CCN(Cc4cc5c(cc4C)[100N:0]([100C:0](=O)N4CCCC(n6nc(-c7ccc(Oc8ccc(F)cc8F)cc7)c(C(N)=O)c6N)C4)C(=O)CC5)C3)ccc2CC1C(=O)NC1CCCc2ccccc21)C(C)(C)C

> <Shape>
0.316

> <Color>
0.074

> <Negative vol penalty>
0.000

$$$$

  -OEChem-04042321423D

 86 95  0     1  0  0  0  0  0999 V2000
  -20.3449  -23.2122   20.1207 C   0  0  0  0  0  0  0  0  0  0  0  0
  -21.6388  -22.8824   19.7302 C   0  0  0  0  0  0  0  0  0  0  0  0
  -26.0145  -27.7527   18.9953 C   0  0  0  0  0  0  0  0  0  0  0  0
  -27.0019  -28.0817   21.1756 C   0  0  0  0  0  0  0  0  0  0  0  0
  -19.7165  -22.4858   21.1313 C   0  0  0  0  0  0  0  0  0  0  0  0
  -22.3055  -21.8266   20.3508 C   0  0  0  0  0  0  0  0  0  0  0  0
  -26.2661  -17.9412   17.7581 C   0  0  0  0  0  0  0  0  0  0  0  0
  -25.1167  -28.7905   19.2452 C   0  0  0  0  0  0  0  0  0  0  0  0
  -26.1041  -29.1196   21.4255 C   0  0  0  0  0  0  0  0  0  0  0  0
  -27.6595  -17.8993   17.7338 C   0  0  0  0  0  0  0  0  0  0  0  0
  -25.7704  -32.3773   20.5911 C   0  0  0  0  0  0  0  0  0  0  0  0
  -26.2771  -33.5494   21.1525 C   0  0  0  0  0  0  0  0  0  0  0  0
  -27.6395  -16.3562   19.5879 C   0  0  0  0  0  0  0  0  0  0  0  0
  -33.4348  -18.3715   20.1406 C   0  0  0  0  0  0  0  0  0  0  0  0
  -34.6427  -18.8794   18.1108 C   0  0  0  0  0  0  0  0  0  0  0  0
  -34.1465  -20.6365   19.6931 C   0  0  0  0  0  0  0  0  0  0  0  0
  -24.8174  -33.2683   23.0570 C   0  0  0  0  0  0  0  0  0  0  0  0
  -26.9571  -27.3982   19.9605 C   0  0  0  0  0  0  0  0  0  0  0  0
  -29.1578  -26.4268   19.1115 C   0  0  0  0  0  0  0  0  0  0  0  0
  -20.3722  -21.4144   21.7580 C   0  0  0  0  0  0  0  0  0  0  0  0
  -25.5482  -17.1981   18.7062 C   0  0  0  0  0  0  0  0  0  0  0  0
  -21.6857  -21.0860   21.3717 C   0  0  0  0  0  0  0  0  0  0  0  0
  -26.2370  -16.3884   19.6205 C   0  0  0  0  0  0  0  0  0  0  0  0
  -34.0028  -17.9551   18.9366 C   0  0  0  0  0  0  0  0  0  0  0  0
  -33.5066  -19.7122   20.5189 C   0  0  0  0  0  0  0  0  0  0  0  0
  -25.1615  -29.4740   20.4603 C   0  0  0  0  0  0  0  0  0  0  0  0
  -28.3465  -17.1090   18.6506 C   0  0  0  0  0  0  0  0  0  0  0  0
  -24.7872  -31.6507   21.2627 C   0  0  0  0  0  0  0  0  0  0  0  0
  -25.8006  -33.9949   22.3854 C   0  0  0  0  0  0  0  0  0  0  0  0
  -24.3107  -32.0962   22.4956 C   0  0  0  0  0  0  0  0  0  0  0  0
  -34.7145  -20.2202   18.4891 C   0  0  0  0  0  0  0  0  0  0  0  0
  -27.8844  -26.3259   19.7031 C   0  0  0  0  0  0  0  0  0  0  0  0
  -29.6309  -25.1375   19.0927 C   0  0  0  0  0  0  0  0  0  0  0  0
  -31.9810  -15.0433   19.1749 C   0  0  0  0  0  0  0  0  0  0  0  0
  -29.8511  -27.5827   18.6226 C   0  0  0  0  0  0  0  0  0  0  0  0
  -23.5600  -17.9150   21.0804 C   0  0  0  0  0  0  0  0  0  0  0  0
  -23.2193  -14.6935   21.2480 C   0  0  0  0  0  0  0  0  0  0  0  0
  -24.5278  -11.6051   20.6187 C   0  0  0  0  0  0  0  0  0  0  0  0
  -30.4290  -20.2096   21.5876 C   0  0  0  0  0  0  0  0  0  0  0  0
  -19.6698  -20.6886   22.8780 C   0  0  0  0  0  0  0  0  0  0  0  0
  -24.0445  -17.2333   18.7021 C   0  0  0  0  0  0  0  0  0  0  0  0
  -25.5124  -15.5559   20.6454 C   0  0  0  0  0  0  0  0  0  0  0  0
  -30.5872  -14.8171   18.6357 C   0  0  0  0  0  0  0  0  0  0  0  0
  -20.3059  -19.3453   23.2267 C   0  0  0  0  0  0  0  0  0  0  0  0
  -27.2808  -20.7546   20.0164 C   0  0  0  0  0  0  0  0  0  0  0  0
  -21.8208  -19.4847   23.3372 C   0  0  0  0  0  0  0  0  0  0  0  0
  -27.2599  -22.2611   19.7519 C   0  0  0  0  0  0  0  0  0  0  0  0
  -27.9738  -20.4228   21.3361 C   0  0  0  0  0  0  0  0  0  0  0  0
  -29.3088  -22.4910   21.2175 C   0  0  0  0  0  0  0  0  0  0  0  0
  -31.6834  -16.5527   17.3758 C   0  0  0  0  0  0  0  0  0  0  0  0
  -22.4325  -19.9316   22.0040 C   0  0  1  0  0  0  0  0  0  0  0  0
  -23.4338  -16.8360   20.0424 C   0  0  1  0  0  0  0  0  0  0  0  0
  -28.6696  -22.8709   19.8708 C   0  0  2  0  0  0  0  0  0  0  0  0
  -30.3115  -16.0712   17.8105 C   0  0  2  0  0  0  0  0  0  1  0  0
  -24.0340   -9.1612   20.9032 C   0  0  0  0  0  0  0  0  0  0  0  0
  -23.9216  -14.8989   24.2102 C   0  0  0  0  0  0  0  0  0  0  0  0
  -24.3427  -12.4309   24.2100 C   0  0  0  0  0  0  0  0  0  0  0  0
  -22.0662  -13.3060   23.6860 C   0  0  0  0  0  0  0  0  0  0  0  0
  -24.5753  -11.1367   17.6968 C   0  0  0  0  0  0  0  0  0  0  0  0
  -33.9265  -16.5116   18.5308 C   0  0  0  0  0  0  0  0  0  0  0  0
  -32.9004  -20.1558   21.8074 C   0  0  0  0  0  0  0  0  0  0  0  0
  -23.9207  -13.5815   21.9898 C   0  0  1  0  0  0  0  0  0  0  0  0
  -23.9244  -10.3662   19.9819 C   0  0  2  0  0  0  0  0  0  0  0  0
  -23.5768  -13.5714   23.5061 C   0  0  0  0  0  0  0  0  0  0  0  0
  -27.5685  -25.0715   20.0360 N   0  0  0  0  0  0  0  0  0  0  0  0
  -28.6502  -24.3724   19.6522 N   0  0  0  0  0  0  0  0  0  0  0  0
  -32.5588  -16.0538   18.4130 N   0  0  0  0  0  0  0  0  0  0  0  0
  -24.0425  -15.6289   20.6052 N   0  0  0  0  0  0  0  0  0  0  0  0
  -29.3064  -21.0292   21.3844 N   0  0  0  0  0  0  0  0  0  0  0  0
  -30.7859  -24.5949   18.6524 N   0  0  0  0  0  0  0  0  0  0  0  0
  -29.2204  -28.8306   18.7191 N   0  0  0  0  0  0  0  0  0  0  0  0
  -22.5124  -18.8161   21.0854 N   0  0  0  0  0  0  0  0  0  0  0  0
  -23.5798  -12.3467   21.2916 N   0  0  0  0  0  0  0  0  0  0  0  0
  -31.6546  -20.8638   21.6137 N   0  0  0  0  0  0  0  0  0  0  0  0
  -24.6241  -10.0470   18.7053 N   0  3  0  0  0  0  0  0  0  0  0  0
  -32.4846  -14.4013   20.0850 O   0  0  0  0  0  0  0  0  0  0  0  0
  -30.9892  -27.5088   18.1003 O   0  0  0  0  0  0  0  0  0  0  0  0
  -24.5349  -17.9283   21.8228 O   0  0  0  0  0  0  0  0  0  0  0  0
  -21.9862  -14.7269   21.2333 O   0  0  0  0  0  0  0  0  0  0  0  0
  -25.7213  -11.8849   20.5313 O   0  0  0  0  0  0  0  0  0  0  0  0
  -30.3456  -18.9849   21.7294 O   0  0  0  0  0  0  0  0  0  0  0  0
  -24.2857  -30.4869   20.7044 O   0  0  0  0  0  0  0  0  0  0  0  0
  -29.7065  -17.0669   18.6294 O   0  0  0  0  0  0  0  0  0  1  0  0
  -26.2883  -35.1196   22.9251 F   0  0  0  0  0  0  0  0  0  0  0  0
  -23.3670  -31.4018   23.1460 F   0  0  0  0  0  0  0  0  0  0  0  0
  -35.5029  -21.3609   17.4696 Cl  0  0  0  0  0  0  0  0  0  0  0  0
  1  2  1  0  0  0  0
  1  5  2  0  0  0  0
  2  6  2  0  0  0  0
  3  8  2  0  0  0  0
  3 18  1  0  0  0  0
  4  9  1  0  0  0  0
  4 18  2  0  0  0  0
  5 20  1  0  0  0  0
  6 22  1  0  0  0  0
  7 10  2  0  0  0  0
  7 21  1  0  0  0  0
  8 26  1  0  0  0  0
  9 26  2  0  0  0  0
 10 27  1  0  0  0  0
 11 12  2  0  0  0  0
 11 28  1  0  0  0  0
 12 29  1  0  0  0  0
 13 23  1  0  0  0  0
 13 27  2  0  0  0  0
 14 24  2  0  0  0  0
 14 25  1  0  0  0  0
 15 24  1  0  0  0  0
 15 31  2  0  0  0  0
 16 25  2  0  0  0  0
 16 31  1  0  0  0  0
 17 29  2  0  0  0  0
 17 30  1  0  0  0  0
 18 32  1  0  0  0  0
 19 32  1  0  0  0  0
 19 33  2  0  0  0  0
 19 35  1  0  0  0  0
 20 22  2  0  0  0  0
 20 40  1  0  0  0  0
 21 23  2  0  0  0  0
 21 41  1  0  0  0  0
 22 51  1  0  0  0  0
 23 42  1  0  0  0  0
 24 60  1  0  0  0  0
 25 61  1  0  0  0  0
 26 82  1  0  0  0  0
 27 83  1  0  0  0  0
 28 30  2  0  0  0  0
 28 82  1  0  0  0  0
 29 84  1  0  0  0  0
 30 85  1  0  0  0  0
 31 86  1  0  0  0  0
 32 65  2  0  0  0  0
 33 66  1  0  0  0  0
 33 70  1  0  0  0  0
 34 43  1  0  0  0  0
 34 67  1  0  0  0  0
 34 76  2  0  0  0  0
 35 71  1  0  0  0  0
 35 77  2  0  0  0  0
 36 52  1  0  0  0  0
 36 72  1  0  0  0  0
 36 78  2  0  0  0  0
 37 62  1  0  0  0  0
 37 68  1  0  0  0  0
 37 79  2  0  0  0  0
 38 63  1  0  0  0  0
 38 73  1  0  0  0  0
 38 80  2  0  0  0  0
 39 69  1  0  0  0  0
 39 74  1  0  0  0  0
 39 81  2  0  0  0  0
 40 44  1  0  0  0  0
 41 52  1  0  0  0  0
 42 68  1  0  0  0  0
 43 54  1  0  0  0  0
 44 46  1  0  0  0  0
 45 47  1  0  0  0  0
 45 48  1  0  0  0  0
 46 51  1  0  0  0  0
 47 53  1  0  0  0  0
 48 69  1  0  0  0  0
 49 53  1  0  0  0  0
 49 69  1  0  0  0  0
 50 54  1  0  0  0  0
 50 67  1  0  0  0  0
 51 72  1  0  0  0  0
 52 68  1  0  0  0  0
 53 66  1  0  0  0  0
 54 83  1  0  0  0  0
 55 63  1  0  0  0  0
 56 64  1  0  0  0  0
 57 64  1  0  0  0  0
 58 64  1  0  0  0  0
 59 75  1  0  0  0  0
 60 67  1  0  0  0  0
 61 74  1  0  0  0  0
 62 64  1  0  0  0  0
 62 73  1  0  0  0  0
 63 75  1  0  0  0  0
 65 66  1  0  0  0  0
M  CHG  1  75   1
M  ISO  4  39 100  54 101  74 100  83 101
M  END
> <Batch ID>
0032

> <Smiles>
CNC(C)C(=O)NC(C(=O)N1Cc2cc([101O:1][101CH:1]3CC(=O)N(Cc4cc(Cl)cc(C[100NH:0][100C:0](=O)N5CCCC(n6nc(-c7ccc(Oc8ccc(F)cc8F)cc7)c(C(N)=O)c6N)C5)c4)C3)ccc2CC1C(=O)NC1CCCc2ccccc21)C(C)(C)C

> <Shape>
0.200

> <Color>
0.067

> <Negative vol penalty>
0.000

$$$$

  -OEChem-04042321423D

 84 93  0     1  0  0  0  0  0999 V2000
  -28.2127  -32.9469   26.2902 C   0  0  0  0  0  0  0  0  0  0  0  0
  -28.0281  -31.5725   26.4015 C   0  0  0  0  0  0  0  0  0  0  0  0
  -23.1685   -9.7365   20.2092 C   0  0  0  0  0  0  0  0  0  0  0  0
  -23.7718  -10.1211   22.5169 C   0  0  0  0  0  0  0  0  0  0  0  0
  -27.2650  -33.7249   25.6266 C   0  0  0  0  0  0  0  0  0  0  0  0
  -26.8950  -30.9755   25.8500 C   0  0  0  0  0  0  0  0  0  0  0  0
  -27.9766  -26.7281   23.3132 C   0  0  0  0  0  0  0  0  0  0  0  0
  -31.3167  -17.8587   20.7098 C   0  0  0  0  0  0  0  0  0  0  0  0
  -22.4354   -8.6121   20.5883 C   0  0  0  0  0  0  0  0  0  0  0  0
  -23.0386   -8.9967   22.8959 C   0  0  0  0  0  0  0  0  0  0  0  0
  -28.2073  -25.5778   24.0665 C   0  0  0  0  0  0  0  0  0  0  0  0
  -19.7957   -8.1969   23.4104 C   0  0  0  0  0  0  0  0  0  0  0  0
  -18.9627   -8.3131   24.5231 C   0  0  0  0  0  0  0  0  0  0  0  0
  -31.7681  -19.1514   20.9757 C   0  0  0  0  0  0  0  0  0  0  0  0
  -25.9570  -24.8367   23.6124 C   0  0  0  0  0  0  0  0  0  0  0  0
  -20.1944   -6.5534   25.6291 C   0  0  0  0  0  0  0  0  0  0  0  0
  -23.8368  -10.4910   21.1735 C   0  0  0  0  0  0  0  0  0  0  0  0
  -24.1297  -12.9773   20.6835 C   0  0  0  0  0  0  0  0  0  0  0  0
  -26.1246  -33.1358   25.0583 C   0  0  0  0  0  0  0  0  0  0  0  0
  -26.7288  -26.9469   22.7120 C   0  0  0  0  0  0  0  0  0  0  0  0
  -25.9305  -31.7466   25.1793 C   0  0  0  0  0  0  0  0  0  0  0  0
  -25.7139  -25.9893   22.8499 C   0  0  0  0  0  0  0  0  0  0  0  0
  -29.8701  -17.9663   22.6418 C   0  0  0  0  0  0  0  0  0  0  0  0
  -30.3215  -19.2590   22.9078 C   0  0  0  0  0  0  0  0  0  0  0  0
  -30.3677  -17.2661   21.5428 C   0  0  0  0  0  0  0  0  0  0  0  0
  -22.3703   -8.2422   21.9316 C   0  0  0  0  0  0  0  0  0  0  0  0
  -27.1964  -24.6333   24.2186 C   0  0  0  0  0  0  0  0  0  0  0  0
  -20.8281   -7.2588   23.4070 C   0  0  0  0  0  0  0  0  0  0  0  0
  -19.1620   -7.4915   25.6325 C   0  0  0  0  0  0  0  0  0  0  0  0
  -21.0275   -6.4372   24.5164 C   0  0  0  0  0  0  0  0  0  0  0  0
  -31.2705  -19.8516   22.0747 C   0  0  0  0  0  0  0  0  0  0  0  0
  -24.5948  -11.6523   20.7825 C   0  0  0  0  0  0  0  0  0  0  0  0
  -25.2269  -13.6970   20.2776 C   0  0  0  0  0  0  0  0  0  0  0  0
  -22.8227  -13.5100   20.9360 C   0  0  0  0  0  0  0  0  0  0  0  0
  -24.4624  -29.1583   22.9887 C   0  0  0  0  0  0  0  0  0  0  0  0
  -23.1421  -27.5593   20.4942 C   0  0  0  0  0  0  0  0  0  0  0  0
  -22.8683  -24.6449   18.7398 C   0  0  0  0  0  0  0  0  0  0  0  0
  -30.6443  -14.9337   20.6320 C   0  0  0  0  0  0  0  0  0  0  0  0
  -25.1043  -34.0243   24.3916 C   0  0  0  0  0  0  0  0  0  0  0  0
  -26.5046  -28.1801   21.8804 C   0  0  0  0  0  0  0  0  0  0  0  0
  -24.3631  -26.1672   22.2079 C   0  0  0  0  0  0  0  0  0  0  0  0
  -24.1177  -33.2634   23.5096 C   0  0  0  0  0  0  0  0  0  0  0  0
  -29.7460  -12.1492   18.6030 C   0  0  0  0  0  0  0  0  0  0  0  0
  -23.5896  -32.0320   24.2387 C   0  0  0  0  0  0  0  0  0  0  0  0
  -28.2875  -11.8807   18.9810 C   0  0  0  0  0  0  0  0  0  0  0  0
  -30.5727  -12.5898   19.8097 C   0  0  0  0  0  0  0  0  0  0  0  0
  -28.5614  -13.4561   20.9381 C   0  0  0  0  0  0  0  0  0  0  0  0
  -27.8087  -21.0171   25.1307 C   0  0  0  0  0  0  0  0  0  0  0  0
  -28.3915  -21.8581   23.3099 C   0  0  0  0  0  0  0  0  0  0  0  0
  -24.7266  -31.0588   24.5728 C   0  0  1  0  0  0  0  0  0  0  0  0
  -25.0302  -28.5459   21.7397 C   0  0  1  0  0  0  0  0  0  0  0  0
  -27.6742  -13.0721   19.7426 C   0  0  2  0  0  0  0  0  0  0  0  0
  -27.2950  -22.2239   24.3255 C   0  0  0  0  0  0  0  0  0  1  0  0
  -28.8510  -17.3308   23.5356 C   0  0  0  0  0  0  0  0  0  0  0  0
  -21.6837  -23.6340   16.7720 C   0  0  0  0  0  0  0  0  0  0  0  0
  -20.5851  -27.3474   22.1455 C   0  0  0  0  0  0  0  0  0  0  0  0
  -19.8016  -25.5620   20.5749 C   0  0  0  0  0  0  0  0  0  0  0  0
  -20.2245  -27.8694   19.7264 C   0  0  0  0  0  0  0  0  0  0  0  0
  -25.4171  -24.1011   17.3374 C   0  0  0  0  0  0  0  0  0  0  0  0
  -29.7777  -20.0000   24.0937 C   0  0  0  0  0  0  0  0  0  0  0  0
  -22.1846  -26.4008   20.3535 C   0  0  1  0  0  0  0  0  0  0  0  0
  -22.9339  -24.3554   17.2511 C   0  0  2  0  0  0  0  0  0  0  0  0
  -20.7237  -26.7922   20.7139 C   0  0  0  0  0  0  0  0  0  0  0  0
  -25.8868  -11.5343   20.4650 N   0  0  0  0  0  0  0  0  0  0  0  0
  -26.2429  -12.7944   20.1623 N   0  0  0  0  0  0  0  0  0  0  0  0
  -24.1907  -27.3924   21.4099 N   0  0  0  0  0  0  0  0  0  0  0  0
  -29.9331  -13.7248   20.4788 N   0  0  0  0  0  0  0  0  0  0  0  0
  -25.4121  -15.0074   20.0116 N   0  0  0  0  0  0  0  0  0  0  0  0
  -21.8108  -12.6313   21.3462 N   0  0  0  0  0  0  0  0  0  0  0  0
  -29.9228  -15.9522   21.2539 N   0  0  0  0  0  0  0  0  0  0  0  0
  -25.1112  -30.3081   23.3968 N   0  0  0  0  0  0  0  0  0  0  0  0
  -22.3502  -25.8971   18.9943 N   0  0  0  0  0  0  0  0  0  0  0  0
  -28.4013  -20.4997   23.8837 N   0  3  0  0  0  0  0  0  0  0  0  0
  -24.1163  -23.5031   16.9406 N   0  3  0  0  0  0  0  0  0  0  0  0
  -22.5558  -14.7265   20.7859 O   0  0  0  0  0  0  0  0  0  0  0  0
  -23.5054  -28.6279   23.5405 O   0  0  0  0  0  0  0  0  0  0  0  0
  -22.9703  -28.5723   19.8115 O   0  0  0  0  0  0  0  0  0  0  0  0
  -23.2363  -23.8392   19.5919 O   0  0  0  0  0  0  0  0  0  0  0  0
  -31.7983  -15.0649   20.2160 O   0  0  0  0  0  0  0  0  0  0  0  0
  -21.6548   -7.1452   22.3019 O   0  0  0  0  0  0  0  0  0  0  0  0
  -27.4187  -23.5099   24.9538 O   0  0  0  0  0  0  0  0  0  1  0  0
  -18.3629   -7.6043   26.7015 F   0  0  0  0  0  0  0  0  0  0  0  0
  -22.0184   -5.5350   24.5195 F   0  0  0  0  0  0  0  0  0  0  0  0
  -31.8576  -21.4483   22.3694 Cl  0  0  0  0  0  0  0  0  0  0  0  0
  1  2  1  0  0  0  0
  1  5  2  0  0  0  0
  2  6  2  0  0  0  0
  3  9  2  0  0  0  0
  3 17  1  0  0  0  0
  4 10  1  0  0  0  0
  4 17  2  0  0  0  0
  5 19  1  0  0  0  0
  6 21  1  0  0  0  0
  7 11  2  0  0  0  0
  7 20  1  0  0  0  0
  8 14  1  0  0  0  0
  8 25  2  0  0  0  0
  9 26  1  0  0  0  0
 10 26  2  0  0  0  0
 11 27  1  0  0  0  0
 12 13  2  0  0  0  0
 12 28  1  0  0  0  0
 13 29  1  0  0  0  0
 14 31  2  0  0  0  0
 15 22  1  0  0  0  0
 15 27  2  0  0  0  0
 16 29  2  0  0  0  0
 16 30  1  0  0  0  0
 17 32  1  0  0  0  0
 18 32  1  0  0  0  0
 18 33  2  0  0  0  0
 18 34  1  0  0  0  0
 19 21  2  0  0  0  0
 19 39  1  0  0  0  0
 20 22  2  0  0  0  0
 20 40  1  0  0  0  0
 21 50  1  0  0  0  0
 22 41  1  0  0  0  0
 23 24  2  0  0  0  0
 23 25  1  0  0  0  0
 23 54  1  0  0  0  0
 24 31  1  0  0  0  0
 24 60  1  0  0  0  0
 25 70  1  0  0  0  0
 26 80  1  0  0  0  0
 27 81  1  0  0  0  0
 28 30  2  0  0  0  0
 28 80  1  0  0  0  0
 29 82  1  0  0  0  0
 30 83  1  0  0  0  0
 31 84  1  0  0  0  0
 32 64  2  0  0  0  0
 33 65  1  0  0  0  0
 33 68  1  0  0  0  0
 34 69  1  0  0  0  0
 34 75  2  0  0  0  0
 35 51  1  0  0  0  0
 35 71  1  0  0  0  0
 35 76  2  0  0  0  0
 36 61  1  0  0  0  0
 36 66  1  0  0  0  0
 36 77  2  0  0  0  0
 37 62  1  0  0  0  0
 37 72  1  0  0  0  0
 37 78  2  0  0  0  0
 38 67  1  0  0  0  0
 38 70  1  0  0  0  0
 38 79  2  0  0  0  0
 39 42  1  0  0  0  0
 40 51  1  0  0  0  0
 41 66  1  0  0  0  0
 42 44  1  0  0  0  0
 43 45  1  0  0  0  0
 43 46  1  0  0  0  0
 44 50  1  0  0  0  0
 45 52  1  0  0  0  0
 46 67  1  0  0  0  0
 47 52  1  0  0  0  0
 47 67  1  0  0  0  0
 48 53  1  0  0  0  0
 48 73  1  0  0  0  0
 49 53  1  0  0  0  0
 49 73  1  0  0  0  0
 50 71  1  0  0  0  0
 51 66  1  0  0  0  0
 52 65  1  0  0  0  0
 53 81  1  0  0  0  0
 55 62  1  0  0  0  0
 56 63  1  0  0  0  0
 57 63  1  0  0  0  0
 58 63  1  0  0  0  0
 59 74  1  0  0  0  0
 60 73  1  0  0  0  0
 61 63  1  0  0  0  0
 61 72  1  0  0  0  0
 62 74  1  0  0  0  0
 64 65  1  0  0  0  0
M  CHG  2  73   1  74   1
M  ISO  4  38 100  53 101  70 100  81 101
M  END
> <Batch ID>
0032

> <Smiles>
CNC(C)C(=O)NC(C(=O)N1Cc2cc([101O:1][101CH:1]3CN(Cc4c(Cl)ccc([100NH:0][100C:0](=O)N5CCCC(n6nc(-c7ccc(Oc8ccc(F)cc8F)cc7)c(C(N)=O)c6N)C5)c4C)C3)ccc2CC1C(=O)NC1CCCc2ccccc21)C(C)(C)C

> <Shape>
0.279

> <Color>
0.190

> <Negative vol penalty>
0.000

$$$$

  -OEChem-04042321423D

 84 92  0     1  0  0  0  0  0999 V2000
  -25.2794  -16.5530   34.0168 C   0  0  0  0  0  0  0  0  0  0  0  0
  -26.3483  -17.1298   33.3385 C   0  0  0  0  0  0  0  0  0  0  0  0
  -23.0008   -9.8935   19.9812 C   0  0  0  0  0  0  0  0  0  0  0  0
  -23.7250   -9.9458   22.2855 C   0  0  0  0  0  0  0  0  0  0  0  0
  -32.6674  -17.4231   23.4356 C   0  0  0  0  0  0  0  0  0  0  0  0
  -24.0610  -16.3662   33.3653 C   0  0  0  0  0  0  0  0  0  0  0  0
  -26.1997  -17.5192   32.0078 C   0  0  0  0  0  0  0  0  0  0  0  0
  -28.8010  -22.3404   29.2702 C   0  0  0  0  0  0  0  0  0  0  0  0
  -32.0587  -16.5348   22.5490 C   0  0  0  0  0  0  0  0  0  0  0  0
  -22.2341   -8.7592   20.2479 C   0  0  0  0  0  0  0  0  0  0  0  0
  -22.9582   -8.8115   22.5522 C   0  0  0  0  0  0  0  0  0  0  0  0
  -29.9291  -22.4633   28.4602 C   0  0  0  0  0  0  0  0  0  0  0  0
  -23.2026   -5.4723   22.0824 C   0  0  0  0  0  0  0  0  0  0  0  0
  -23.7898   -4.4555   22.8354 C   0  0  0  0  0  0  0  0  0  0  0  0
  -28.5284  -22.3364   26.5004 C   0  0  0  0  0  0  0  0  0  0  0  0
  -22.0652   -4.6995   24.5097 C   0  0  0  0  0  0  0  0  0  0  0  0
  -23.7463  -10.4868   21.0000 C   0  0  0  0  0  0  0  0  0  0  0  0
  -31.8910  -18.3291   24.1582 C   0  0  0  0  0  0  0  0  0  0  0  0
  -24.1318  -13.0022   20.8227 C   0  0  0  0  0  0  0  0  0  0  0  0
  -23.8944  -16.7624   32.0289 C   0  0  0  0  0  0  0  0  0  0  0  0
  -27.5271  -22.2034   28.7003 C   0  0  0  0  0  0  0  0  0  0  0  0
  -24.9783  -17.3363   31.3374 C   0  0  0  0  0  0  0  0  0  0  0  0
  -27.3854  -22.2145   27.3053 C   0  0  0  0  0  0  0  0  0  0  0  0
  -30.5060  -18.3469   23.9942 C   0  0  0  0  0  0  0  0  0  0  0  0
  -29.8972  -17.4586   23.1075 C   0  0  0  0  0  0  0  0  0  0  0  0
  -30.6736  -16.5526   22.3850 C   0  0  0  0  0  0  0  0  0  0  0  0
  -22.2128   -8.2182   21.5334 C   0  0  0  0  0  0  0  0  0  0  0  0
  -29.7932  -22.4584   27.0751 C   0  0  0  0  0  0  0  0  0  0  0  0
  -22.0468   -6.1027   22.5431 C   0  0  0  0  0  0  0  0  0  0  0  0
  -23.2211   -4.0691   24.0490 C   0  0  0  0  0  0  0  0  0  0  0  0
  -21.4780   -5.7163   23.7567 C   0  0  0  0  0  0  0  0  0  0  0  0
  -24.5389  -11.6582   20.7251 C   0  0  0  0  0  0  0  0  0  0  0  0
  -25.2417  -13.7246   20.4584 C   0  0  0  0  0  0  0  0  0  0  0  0
  -32.5689  -19.2622   25.0947 C   0  0  0  0  0  0  0  0  0  0  0  0
  -22.8637  -13.5489   21.2083 C   0  0  0  0  0  0  0  0  0  0  0  0
  -25.2757  -19.9602   28.7529 C   0  0  0  0  0  0  0  0  0  0  0  0
  -23.5647  -22.1896   27.1329 C   0  0  0  0  0  0  0  0  0  0  0  0
  -23.5688  -24.9514   25.1281 C   0  0  0  0  0  0  0  0  0  0  0  0
  -30.7211  -14.6856   20.6943 C   0  0  0  0  0  0  0  0  0  0  0  0
  -22.5728  -16.4969   31.3524 C   0  0  0  0  0  0  0  0  0  0  0  0
  -26.3174  -22.0987   29.5880 C   0  0  0  0  0  0  0  0  0  0  0  0
  -26.0379  -22.0905   26.6441 C   0  0  0  0  0  0  0  0  0  0  0  0
  -22.3843  -17.2798   30.0556 C   0  0  0  0  0  0  0  0  0  0  0  0
  -29.6038  -12.2314   18.3693 C   0  0  0  0  0  0  0  0  0  0  0  0
  -23.6354  -17.1849   29.1881 C   0  0  0  0  0  0  0  0  0  0  0  0
  -28.1530  -11.9740   18.7829 C   0  0  0  0  0  0  0  0  0  0  0  0
  -30.5038  -12.4755   19.5793 C   0  0  0  0  0  0  0  0  0  0  0  0
  -28.5879  -13.2652   20.9115 C   0  0  0  0  0  0  0  0  0  0  0  0
  -24.8486  -17.7944   29.9009 C   0  0  1  0  0  0  0  0  0  0  0  0
  -25.1233  -21.4480   28.8965 C   0  0  1  0  0  0  0  0  0  0  0  0
  -27.6307  -13.0782   19.7230 C   0  0  2  0  0  0  0  0  0  0  0  0
  -29.6727  -19.3188   24.7693 C   0  0  0  0  0  0  0  0  0  0  0  0
  -28.4107  -17.4792   22.9328 C   0  0  0  0  0  0  0  0  0  0  0  0
  -22.0170  -26.5232   23.9370 C   0  0  0  0  0  0  0  0  0  0  0  0
  -23.0589  -20.0689   24.9982 C   0  0  0  0  0  0  0  0  0  0  0  0
  -22.3551  -21.9011   23.4439 C   0  0  0  0  0  0  0  0  0  0  0  0
  -21.0762  -21.4912   25.5461 C   0  0  0  0  0  0  0  0  0  0  0  0
  -24.5586  -27.2783   26.6658 C   0  0  0  0  0  0  0  0  0  0  0  0
  -33.0120  -21.6421   25.6385 C   0  0  0  0  0  0  0  0  0  0  0  0
  -32.1214  -22.0627   26.7939 C   0  0  0  0  0  0  0  0  0  1  0  0
  -23.3729  -22.5400   25.6770 C   0  0  1  0  0  0  0  0  0  0  0  0
  -22.8016  -26.2586   25.2126 C   0  0  2  0  0  0  0  0  0  0  0  0
  -22.4915  -21.5007   24.9284 C   0  0  0  0  0  0  0  0  0  0  0  0
  -25.8084  -11.5314   20.3295 N   0  0  0  0  0  0  0  0  0  0  0  0
  -26.2085  -12.8051   20.1754 N   0  0  0  0  0  0  0  0  0  0  0  0
  -24.8860  -21.9844   27.5548 N   0  0  0  0  0  0  0  0  0  0  0  0
  -29.9484  -13.5369   20.4218 N   0  0  0  0  0  0  0  0  0  0  0  0
  -25.4753  -15.0502   20.3556 N   0  0  0  0  0  0  0  0  0  0  0  0
  -21.8317  -12.6650   21.5519 N   0  0  0  0  0  0  0  0  0  0  0  0
  -30.0765  -15.6413   21.4790 N   0  0  0  0  0  0  0  0  0  0  0  0
  -32.3991  -20.6166   24.8365 N   0  0  0  0  0  0  0  0  0  0  0  0
  -24.8018  -19.2393   29.8323 N   0  0  0  0  0  0  0  0  0  0  0  0
  -22.8457  -23.9001   25.6506 N   0  0  0  0  0  0  0  0  0  0  0  0
  -23.7390  -27.3961   25.4324 N   0  3  0  0  0  0  0  0  0  0  0  0
  -33.2443  -18.8051   26.0131 O   0  0  0  0  0  0  0  0  0  0  0  0
  -22.6470  -14.7843   21.2312 O   0  0  0  0  0  0  0  0  0  0  0  0
  -25.7842  -19.5001   27.7372 O   0  0  0  0  0  0  0  0  0  0  0  0
  -22.5791  -22.1081   27.8702 O   0  0  0  0  0  0  0  0  0  0  0  0
  -24.6953  -24.8703   24.6433 O   0  0  0  0  0  0  0  0  0  0  0  0
  -31.8600  -14.8242   20.2407 O   0  0  0  0  0  0  0  0  0  0  0  0
  -21.4646   -7.1115   21.7940 O   0  0  0  0  0  0  0  0  0  0  0  0
  -30.8928  -22.5776   26.2822 O   0  0  0  0  0  0  0  0  0  1  0  0
  -23.7842   -3.0916   24.7713 F   0  0  0  0  0  0  0  0  0  0  0  0
  -20.3670   -6.3175   24.2039 F   0  0  0  0  0  0  0  0  0  0  0  0
  1  2  1  0  0  0  0
  1  6  2  0  0  0  0
  2  7  2  0  0  0  0
  3 10  2  0  0  0  0
  3 17  1  0  0  0  0
  4 11  1  0  0  0  0
  4 17  2  0  0  0  0
  5  9  2  0  0  0  0
  5 18  1  0  0  0  0
  6 20  1  0  0  0  0
  7 22  1  0  0  0  0
  8 12  2  0  0  0  0
  8 21  1  0  0  0  0
  9 26  1  0  0  0  0
 10 27  1  0  0  0  0
 11 27  2  0  0  0  0
 12 28  1  0  0  0  0
 13 14  2  0  0  0  0
 13 29  1  0  0  0  0
 14 30  1  0  0  0  0
 15 23  1  0  0  0  0
 15 28  2  0  0  0  0
 16 30  2  0  0  0  0
 16 31  1  0  0  0  0
 17 32  1  0  0  0  0
 18 24  2  0  0  0  0
 18 34  1  0  0  0  0
 19 32  1  0  0  0  0
 19 33  2  0  0  0  0
 19 35  1  0  0  0  0
 20 22  2  0  0  0  0
 20 40  1  0  0  0  0
 21 23  2  0  0  0  0
 21 41  1  0  0  0  0
 22 49  1  0  0  0  0
 23 42  1  0  0  0  0
 24 25  1  0  0  0  0
 24 52  1  0  0  0  0
 25 26  2  0  0  0  0
 25 53  1  0  0  0  0
 26 70  1  0  0  0  0
 27 81  1  0  0  0  0
 28 82  1  0  0  0  0
 29 31  2  0  0  0  0
 29 81  1  0  0  0  0
 30 83  1  0  0  0  0
 31 84  1  0  0  0  0
 32 64  2  0  0  0  0
 33 65  1  0  0  0  0
 33 68  1  0  0  0  0
 34 71  1  0  0  0  0
 34 75  2  0  0  0  0
 35 69  1  0  0  0  0
 35 76  2  0  0  0  0
 36 50  1  0  0  0  0
 36 72  1  0  0  0  0
 36 77  2  0  0  0  0
 37 61  1  0  0  0  0
 37 66  1  0  0  0  0
 37 78  2  0  0  0  0
 38 62  1  0  0  0  0
 38 73  1  0  0  0  0
 38 79  2  0  0  0  0
 39 67  1  0  0  0  0
 39 70  1  0  0  0  0
 39 80  2  0  0  0  0
 40 43  1  0  0  0  0
 41 50  1  0  0  0  0
 42 66  1  0  0  0  0
 43 45  1  0  0  0  0
 44 46  1  0  0  0  0
 44 47  1  0  0  0  0
 45 49  1  0  0  0  0
 46 51  1  0  0  0  0
 47 67  1  0  0  0  0
 48 51  1  0  0  0  0
 48 67  1  0  0  0  0
 49 72  1  0  0  0  0
 50 66  1  0  0  0  0
 51 65  1  0  0  0  0
 54 62  1  0  0  0  0
 55 63  1  0  0  0  0
 56 63  1  0  0  0  0
 57 63  1  0  0  0  0
 58 74  1  0  0  0  0
 59 60  1  0  0  0  0
 59 71  1  0  0  0  0
 60 82  1  0  0  0  0
 61 63  1  0  0  0  0
 61 73  1  0  0  0  0
 62 74  1  0  0  0  0
 64 65  1  0  0  0  0
M  CHG  1  74   1
M  ISO  4  39 100  60 101  70 100  82 101
M  END
> <Batch ID>
0032

> <Smiles>
CNC(C)C(=O)NC(C(=O)N1Cc2cc([101O:1][101CH2:1]CNC(=O)c3ccc([100NH:0][100C:0](=O)N4CCCC(n5nc(-c6ccc(Oc7ccc(F)cc7F)cc6)c(C(N)=O)c5N)C4)c(C)c3C)ccc2CC1C(=O)NC1CCCc2ccccc21)C(C)(C)C

> <Shape>
0.176

> <Color>
0.198

> <Negative vol penalty>
0.000

$$$$

  -OEChem-04042321423D

 86 95  0     1  0  0  0  0  0999 V2000
  -18.4814  -30.0638   24.1940 C   0  0  0  0  0  0  0  0  0  0  0  0
  -19.4190  -29.0654   24.4379 C   0  0  0  0  0  0  0  0  0  0  0  0
  -23.1782   -9.7481   20.0961 C   0  0  0  0  0  0  0  0  0  0  0  0
  -23.7284  -10.0983   22.4224 C   0  0  0  0  0  0  0  0  0  0  0  0
  -17.3126  -29.7652   23.4950 C   0  0  0  0  0  0  0  0  0  0  0  0
  -19.1878  -27.7675   23.9837 C   0  0  0  0  0  0  0  0  0  0  0  0
  -23.2753  -25.7118   21.8131 C   0  0  0  0  0  0  0  0  0  0  0  0
  -22.4438   -8.6134   20.4405 C   0  0  0  0  0  0  0  0  0  0  0  0
  -22.9939   -8.9636   22.7669 C   0  0  0  0  0  0  0  0  0  0  0  0
  -24.2720  -25.2300   22.6607 C   0  0  0  0  0  0  0  0  0  0  0  0
  -19.7454   -8.1368   23.1966 C   0  0  0  0  0  0  0  0  0  0  0  0
  -18.8874   -8.2301   24.2924 C   0  0  0  0  0  0  0  0  0  0  0  0
  -23.4384  -22.9869   22.3558 C   0  0  0  0  0  0  0  0  0  0  0  0
  -28.0833  -20.1059   22.2485 C   0  0  0  0  0  0  0  0  0  0  0  0
  -20.1054   -6.4596   25.3966 C   0  0  0  0  0  0  0  0  0  0  0  0
  -23.8206  -10.4905   21.0870 C   0  0  0  0  0  0  0  0  0  0  0  0
  -24.1089  -12.9862   20.6441 C   0  0  0  0  0  0  0  0  0  0  0  0
  -17.0715  -28.4651   23.0236 C   0  0  0  0  0  0  0  0  0  0  0  0
  -22.3445  -24.8346   21.2382 C   0  0  0  0  0  0  0  0  0  0  0  0
  -18.0141  -27.4509   23.2789 C   0  0  0  0  0  0  0  0  0  0  0  0
  -22.4325  -23.4598   21.4993 C   0  0  0  0  0  0  0  0  0  0  0  0
  -29.2450  -18.0324   23.7093 C   0  0  0  0  0  0  0  0  0  0  0  0
  -28.3465  -18.9025   24.3268 C   0  0  0  0  0  0  0  0  0  0  0  0
  -29.5627  -18.1991   22.3613 C   0  0  0  0  0  0  0  0  0  0  0  0
  -27.7656  -19.9392   23.5964 C   0  0  0  0  0  0  0  0  0  0  0  0
  -22.3516   -8.2212   21.7759 C   0  0  0  0  0  0  0  0  0  0  0  0
  -24.3519  -23.8677   22.9344 C   0  0  0  0  0  0  0  0  0  0  0  0
  -20.7834   -7.2049   23.2007 C   0  0  0  0  0  0  0  0  0  0  0  0
  -19.0674   -7.3915   25.3924 C   0  0  0  0  0  0  0  0  0  0  0  0
  -20.9633   -6.3663   24.3007 C   0  0  0  0  0  0  0  0  0  0  0  0
  -28.9818  -19.2358   21.6309 C   0  0  0  0  0  0  0  0  0  0  0  0
  -24.5799  -11.6624   20.7318 C   0  0  0  0  0  0  0  0  0  0  0  0
  -25.2104  -13.7187   20.2742 C   0  0  0  0  0  0  0  0  0  0  0  0
  -22.7935  -13.5071   20.8762 C   0  0  0  0  0  0  0  0  0  0  0  0
  -19.1871  -24.5005   21.3889 C   0  0  0  0  0  0  0  0  0  0  0  0
  -19.7057  -22.2611   19.1001 C   0  0  0  0  0  0  0  0  0  0  0  0
  -21.8666  -20.0649   17.6325 C   0  0  0  0  0  0  0  0  0  0  0  0
  -30.6279  -14.9568   20.7868 C   0  0  0  0  0  0  0  0  0  0  0  0
  -15.7717  -28.1797   22.3139 C   0  0  0  0  0  0  0  0  0  0  0  0
  -21.2919  -25.3669   20.3049 C   0  0  0  0  0  0  0  0  0  0  0  0
  -21.4700  -22.4739   20.8911 C   0  0  0  0  0  0  0  0  0  0  0  0
  -15.7761  -26.8634   21.5408 C   0  0  0  0  0  0  0  0  0  0  0  0
  -29.7693  -12.2265   18.6691 C   0  0  0  0  0  0  0  0  0  0  0  0
  -16.3551  -25.7426   22.3984 C   0  0  0  0  0  0  0  0  0  0  0  0
  -28.3064  -11.9418   19.0142 C   0  0  0  0  0  0  0  0  0  0  0  0
  -25.8467  -22.1959   25.7930 C   0  0  0  0  0  0  0  0  0  0  0  0
  -30.5689  -12.6441   19.9013 C   0  0  0  0  0  0  0  0  0  0  0  0
  -27.2014  -21.6603   25.3297 C   0  0  0  0  0  0  0  0  0  0  0  0
  -28.5325  -13.4876   21.0038 C   0  0  0  0  0  0  0  0  0  0  0  0
  -25.4926  -20.9942   23.7464 C   0  0  0  0  0  0  0  0  0  0  0  0
  -17.8107  -26.0364   22.7808 C   0  0  1  0  0  0  0  0  0  0  0  0
  -20.0812  -24.4467   20.1826 C   0  0  1  0  0  0  0  0  0  0  0  0
  -27.6729  -13.1168   19.7832 C   0  0  2  0  0  0  0  0  0  0  0  0
  -25.0198  -22.2268   24.5159 C   0  0  2  0  0  0  0  0  0  1  0  0
  -29.8675  -16.9207   24.4941 C   0  0  0  0  0  0  0  0  0  0  0  0
  -28.0064  -18.7226   25.7733 C   0  0  0  0  0  0  0  0  0  0  0  0
  -21.9917  -18.3455   15.8088 C   0  0  0  0  0  0  0  0  0  0  0  0
  -18.1657  -20.2942   20.8522 C   0  0  0  0  0  0  0  0  0  0  0  0
  -19.1232  -18.4309   19.4812 C   0  0  0  0  0  0  0  0  0  0  0  0
  -17.6533  -20.1377   18.4093 C   0  0  0  0  0  0  0  0  0  0  0  0
  -23.9721  -21.5708   16.1980 C   0  0  0  0  0  0  0  0  0  0  0  0
  -30.5287  -17.2579   21.7112 C   0  0  0  0  0  0  0  0  0  0  0  0
  -19.9989  -20.7802   19.1003 C   0  0  1  0  0  0  0  0  0  0  0  0
  -22.2047  -19.8060   16.1754 C   0  0  2  0  0  0  0  0  0  0  0  0
  -18.7524  -19.9293   19.4739 C   0  0  0  0  0  0  0  0  0  0  0  0
  -25.8792  -11.5571   20.4409 N   0  0  0  0  0  0  0  0  0  0  0  0
  -26.2341  -12.8239   20.1667 N   0  0  0  0  0  0  0  0  0  0  0  0
  -26.8751  -20.8095   24.1892 N   0  0  3  0  0  0  0  0  0  0  0  0
  -20.4547  -23.0439   19.9901 N   0  0  0  0  0  0  0  0  0  0  0  0
  -29.9154  -13.7634   20.5840 N   0  0  0  0  0  0  0  0  0  0  0  0
  -25.3933  -15.0344   20.0336 N   0  0  0  0  0  0  0  0  0  0  0  0
  -21.7783  -12.6160   21.2497 N   0  0  0  0  0  0  0  0  0  0  0  0
  -18.6917  -25.7603   21.6663 N   0  0  0  0  0  0  0  0  0  0  0  0
  -20.5594  -20.4749   17.7884 N   0  0  0  0  0  0  0  0  0  0  0  0
  -29.9325  -15.9696   21.4359 N   0  0  0  0  0  0  0  0  0  0  0  0
  -23.6276  -20.1560   15.9037 N   0  3  0  0  0  0  0  0  0  0  0  0
  -22.5225  -14.7243   20.7401 O   0  0  0  0  0  0  0  0  0  0  0  0
  -18.9620  -23.4746   22.0203 O   0  0  0  0  0  0  0  0  0  0  0  0
  -18.8489  -22.7078   18.3333 O   0  0  0  0  0  0  0  0  0  0  0  0
  -22.6796  -19.9145   18.5418 O   0  0  0  0  0  0  0  0  0  0  0  0
  -31.7953  -15.1104   20.4120 O   0  0  0  0  0  0  0  0  0  0  0  0
  -21.6348   -7.1141   22.1124 O   0  0  0  0  0  0  0  0  0  0  0  0
  -25.3233  -23.3949   23.7619 O   0  0  0  0  0  0  0  0  0  1  0  0
  -18.2444   -7.4822   26.4452 F   0  0  0  0  0  0  0  0  0  0  0  0
  -21.9594   -5.4699   24.3110 F   0  0  0  0  0  0  0  0  0  0  0  0
  -29.3484  -19.4762   19.9608 Cl  0  0  0  0  0  0  0  0  0  0  0  0
  1  2  1  0  0  0  0
  1  5  2  0  0  0  0
  2  6  2  0  0  0  0
  3  8  2  0  0  0  0
  3 16  1  0  0  0  0
  4  9  1  0  0  0  0
  4 16  2  0  0  0  0
  5 18  1  0  0  0  0
  6 20  1  0  0  0  0
  7 10  2  0  0  0  0
  7 19  1  0  0  0  0
  8 26  1  0  0  0  0
  9 26  2  0  0  0  0
 10 27  1  0  0  0  0
 11 12  2  0  0  0  0
 11 28  1  0  0  0  0
 12 29  1  0  0  0  0
 13 21  1  0  0  0  0
 13 27  2  0  0  0  0
 14 25  1  0  0  0  0
 14 31  2  0  0  0  0
 15 29  2  0  0  0  0
 15 30  1  0  0  0  0
 16 32  1  0  0  0  0
 17 32  1  0  0  0  0
 17 33  2  0  0  0  0
 17 34  1  0  0  0  0
 18 20  2  0  0  0  0
 18 39  1  0  0  0  0
 19 21  2  0  0  0  0
 19 40  1  0  0  0  0
 20 51  1  0  0  0  0
 21 41  1  0  0  0  0
 22 23  1  0  0  0  0
 22 24  2  0  0  0  0
 22 55  1  0  0  0  0
 23 25  2  0  0  0  0
 23 56  1  0  0  0  0
 24 31  1  0  0  0  0
 24 62  1  0  0  0  0
 25 68  1  0  0  0  0
 26 82  1  0  0  0  0
 27 83  1  0  0  0  0
 28 30  2  0  0  0  0
 28 82  1  0  0  0  0
 29 84  1  0  0  0  0
 30 85  1  0  0  0  0
 31 86  1  0  0  0  0
 32 66  2  0  0  0  0
 33 67  1  0  0  0  0
 33 71  1  0  0  0  0
 34 72  1  0  0  0  0
 34 77  2  0  0  0  0
 35 52  1  0  0  0  0
 35 73  1  0  0  0  0
 35 78  2  0  0  0  0
 36 63  1  0  0  0  0
 36 69  1  0  0  0  0
 36 79  2  0  0  0  0
 37 64  1  0  0  0  0
 37 74  1  0  0  0  0
 37 80  2  0  0  0  0
 38 70  1  0  0  0  0
 38 75  1  0  0  0  0
 38 81  2  0  0  0  0
 39 42  1  0  0  0  0
 40 52  1  0  0  0  0
 41 69  1  0  0  0  0
 42 44  1  0  0  0  0
 43 45  1  0  0  0  0
 43 47  1  0  0  0  0
 44 51  1  0  0  0  0
 45 53  1  0  0  0  0
 46 48  1  0  0  0  0
 46 54  1  0  0  0  0
 47 70  1  0  0  0  0
 48 68  1  0  0  0  0
 49 53  1  0  0  0  0
 49 70  1  0  0  0  0
 50 54  1  0  0  0  0
 50 68  1  0  0  0  0
 51 73  1  0  0  0  0
 52 69  1  0  0  0  0
 53 67  1  0  0  0  0
 54 83  1  0  0  0  0
 57 64  1  0  0  0  0
 58 65  1  0  0  0  0
 59 65  1  0  0  0  0
 60 65  1  0  0  0  0
 61 76  1  0  0  0  0
 62 75  1  0  0  0  0
 63 65  1  0  0  0  0
 63 74  1  0  0  0  0
 64 76  1  0  0  0  0
 66 67  1  0  0  0  0
M  CHG  1  76   1
M  ISO  4  38 100  54 101  75 100  83 101
M  END
> <Batch ID>
0032

> <Smiles>
CNC(C)C(=O)NC(C(=O)N1Cc2cc([101O:1][101CH:1]3CCN(c4cc(Cl)c(C[100NH:0][100C:0](=O)N5CCCC(n6nc(-c7ccc(Oc8ccc(F)cc8F)cc7)c(C(N)=O)c6N)C5)c(C)c4C)C3)ccc2CC1C(=O)NC1CCCc2ccccc21)C(C)(C)C

> <Shape>
0.229

> <Color>
0.191

> <Negative vol penalty>
0.000

$$$$

  -OEChem-04042321423D

 85 94  0     1  0  0  0  0  0999 V2000
  -18.5593  -23.6799   20.0857 C   0  0  0  0  0  0  0  0  0  0  0  0
  -19.5220  -23.5683   21.0838 C   0  0  0  0  0  0  0  0  0  0  0  0
  -22.8944  -10.2288   19.9442 C   0  0  0  0  0  0  0  0  0  0  0  0
  -23.9476   -9.6893   22.0506 C   0  0  0  0  0  0  0  0  0  0  0  0
  -18.5158  -22.7443   19.0529 C   0  0  0  0  0  0  0  0  0  0  0  0
  -20.4411  -22.5202   21.0503 C   0  0  0  0  0  0  0  0  0  0  0  0
  -26.2886  -22.6924   22.8624 C   0  0  0  0  0  0  0  0  0  0  0  0
  -22.1006   -9.0866   20.0485 C   0  0  0  0  0  0  0  0  0  0  0  0
  -23.1538   -8.5471   22.1549 C   0  0  0  0  0  0  0  0  0  0  0  0
  -26.9176  -22.2923   24.0405 C   0  0  0  0  0  0  0  0  0  0  0  0
  -19.3151   -8.1324   21.7108 C   0  0  0  0  0  0  0  0  0  0  0  0
  -17.9562   -8.2589   21.4227 C   0  0  0  0  0  0  0  0  0  0  0  0
  -27.4876  -20.1853   23.0135 C   0  0  0  0  0  0  0  0  0  0  0  0
  -30.6400  -16.5781   23.6579 C   0  0  0  0  0  0  0  0  0  0  0  0
  -32.6539  -15.7773   22.5901 C   0  0  0  0  0  0  0  0  0  0  0  0
  -18.1808   -6.6330   19.6498 C   0  0  0  0  0  0  0  0  0  0  0  0
  -23.8179  -10.5302   20.9452 C   0  0  0  0  0  0  0  0  0  0  0  0
  -24.3406  -12.9992   21.3172 C   0  0  0  0  0  0  0  0  0  0  0  0
  -19.4410  -21.6898   19.0014 C   0  0  0  0  0  0  0  0  0  0  0  0
  -26.2448  -21.8361   21.7527 C   0  0  0  0  0  0  0  0  0  0  0  0
  -20.4092  -21.5688   20.0165 C   0  0  0  0  0  0  0  0  0  0  0  0
  -26.8596  -20.5778   21.8216 C   0  0  0  0  0  0  0  0  0  0  0  0
  -31.4093  -17.2103   24.6347 C   0  0  0  0  0  0  0  0  0  0  0  0
  -31.2623  -15.8616   22.6356 C   0  0  0  0  0  0  0  0  0  0  0  0
  -22.2302   -8.2458   21.1539 C   0  0  0  0  0  0  0  0  0  0  0  0
  -27.5148  -21.0375   24.1172 C   0  0  0  0  0  0  0  0  0  0  0  0
  -20.1069   -7.2563   20.9684 C   0  0  0  0  0  0  0  0  0  0  0  0
  -17.3890   -7.5092   20.3923 C   0  0  0  0  0  0  0  0  0  0  0  0
  -19.5397   -6.5066   19.9379 C   0  0  0  0  0  0  0  0  0  0  0  0
  -32.8009  -17.1261   24.5891 C   0  0  0  0  0  0  0  0  0  0  0  0
  -33.4232  -16.4096   23.5668 C   0  0  0  0  0  0  0  0  0  0  0  0
  -24.6386  -11.7096   20.8377 C   0  0  0  0  0  0  0  0  0  0  0  0
  -25.4316  -13.7564   20.9666 C   0  0  0  0  0  0  0  0  0  0  0  0
  -30.1813  -20.1999   26.6080 C   0  0  0  0  0  0  0  0  0  0  0  0
  -30.0098  -20.2937   27.9297 C   0  0  0  0  0  0  0  0  0  0  0  0
  -23.1814  -13.4704   22.0170 C   0  0  0  0  0  0  0  0  0  0  0  0
  -23.9255  -20.4363   20.0898 C   0  0  0  0  0  0  0  0  0  0  0  0
  -26.3807  -19.5229   18.1766 C   0  0  0  0  0  0  0  0  0  0  0  0
  -29.7480  -18.3037   18.6151 C   0  0  0  0  0  0  0  0  0  0  0  0
  -30.9389  -14.4693   20.5611 C   0  0  0  0  0  0  0  0  0  0  0  0
  -19.3249  -20.6758   17.8911 C   0  0  0  0  0  0  0  0  0  0  0  0
  -25.5855  -22.2931   20.4803 C   0  0  0  0  0  0  0  0  0  0  0  0
  -26.8580  -19.6292   20.6518 C   0  0  0  0  0  0  0  0  0  0  0  0
  -20.5708  -19.8096   17.7244 C   0  0  0  0  0  0  0  0  0  0  0  0
  -29.3342  -12.6989   17.9215 C   0  0  0  0  0  0  0  0  0  0  0  0
  -21.0505  -19.2982   19.0791 C   0  0  0  0  0  0  0  0  0  0  0  0
  -27.9450  -12.3898   18.4843 C   0  0  0  0  0  0  0  0  0  0  0  0
  -30.4147  -12.6103   18.9977 C   0  0  0  0  0  0  0  0  0  0  0  0
  -28.7698  -13.1021   20.7645 C   0  0  0  0  0  0  0  0  0  0  0  0
  -30.5170  -20.1182   24.5735 C   0  0  0  0  0  0  0  0  0  0  0  0
  -21.4391  -20.4602   20.0013 C   0  0  1  0  0  0  0  0  0  0  0  0
  -29.5348  -20.9320   25.4504 C   0  0  1  0  0  0  0  0  0  1  0  0
  -25.1538  -21.1376   19.5826 C   0  0  1  0  0  0  0  0  0  0  0  0
  -27.6398  -13.2423   19.7315 C   0  0  2  0  0  0  0  0  0  0  0  0
  -31.7523  -18.4716   17.1145 C   0  0  0  0  0  0  0  0  0  0  0  0
  -25.4925  -16.7842   17.1664 C   0  0  0  0  0  0  0  0  0  0  0  0
  -27.9048  -16.1268   17.0371 C   0  0  0  0  0  0  0  0  0  0  0  0
  -27.0491  -18.0057   15.6370 C   0  0  0  0  0  0  0  0  0  0  0  0
  -31.3803  -19.5567   20.7422 C   0  0  0  0  0  0  0  0  0  0  0  0
  -30.6924  -17.9679   25.7131 C   0  0  0  0  0  0  0  0  0  0  0  0
  -27.3155  -18.3385   18.1291 C   0  0  1  0  0  0  0  0  0  0  0  0
  -31.0327  -19.0564   18.3199 C   0  0  2  0  0  0  0  0  0  0  0  0
  -26.9293  -17.3229   17.0169 C   0  0  0  0  0  0  0  0  0  0  0  0
  -25.8258  -11.6474   20.2287 N   0  0  0  0  0  0  0  0  0  0  0  0
  -26.2833  -12.9075   20.3232 N   0  0  0  0  0  0  0  0  0  0  0  0
  -26.1953  -20.1194   19.4319 N   0  0  0  0  0  0  0  0  0  0  0  0
  -30.0598  -13.4466   20.1464 N   0  0  0  0  0  0  0  0  0  0  0  0
  -25.7357  -15.0590   21.1490 N   0  0  0  0  0  0  0  0  0  0  0  0
  -22.1536  -12.5595   22.2968 N   0  0  0  0  0  0  0  0  0  0  0  0
  -30.4804  -15.2200   21.6432 N   0  0  0  0  0  0  0  0  0  0  0  0
  -22.7392  -20.9814   19.6372 N   0  0  0  0  0  0  0  0  0  0  0  0
  -28.6614  -18.8857   17.9972 N   0  0  0  0  0  0  0  0  0  0  0  0
  -31.0509  -19.4073   25.7490 N   0  3  2  0  0  0  0  0  0  0  0  0
  -31.9512  -18.9932   19.4918 N   0  3  0  0  0  0  0  0  0  0  0  0
  -23.0533  -14.6676   22.3690 O   0  0  0  0  0  0  0  0  0  0  0  0
  -24.0453  -19.4710   20.8352 O   0  0  0  0  0  0  0  0  0  0  0  0
  -25.8407  -19.9092   17.1370 O   0  0  0  0  0  0  0  0  0  0  0  0
  -29.7125  -17.2976   19.3202 O   0  0  0  0  0  0  0  0  0  0  0  0
  -32.0064  -14.6824   19.9807 O   0  0  0  0  0  0  0  0  0  0  0  0
  -21.4557   -7.1313   21.2562 O   0  0  0  0  0  0  0  0  0  0  0  0
  -28.1289  -20.6442   25.2661 O   0  0  0  0  0  0  0  0  0  1  0  0
  -16.0837   -7.6295   20.1167 F   0  0  0  0  0  0  0  0  0  0  0  0
  -20.2951   -5.6624   19.2220 F   0  0  0  0  0  0  0  0  0  0  0  0
  -33.7280  -17.9244   25.8196 Cl  0  0  0  0  0  0  0  0  0  0  0  0
  -35.3123  -16.2418   23.4263 Br  0  0  0  0  0  0  0  0  0  0  0  0
  1  2  1  0  0  0  0
  1  5  2  0  0  0  0
  2  6  2  0  0  0  0
  3  8  2  0  0  0  0
  3 17  1  0  0  0  0
  4  9  1  0  0  0  0
  4 17  2  0  0  0  0
  5 19  1  0  0  0  0
  6 21  1  0  0  0  0
  7 10  2  0  0  0  0
  7 20  1  0  0  0  0
  8 25  1  0  0  0  0
  9 25  2  0  0  0  0
 10 26  1  0  0  0  0
 11 12  2  0  0  0  0
 11 27  1  0  0  0  0
 12 28  1  0  0  0  0
 13 22  1  0  0  0  0
 13 26  2  0  0  0  0
 14 23  1  0  0  0  0
 14 24  2  0  0  0  0
 15 24  1  0  0  0  0
 15 31  2  0  0  0  0
 16 28  2  0  0  0  0
 16 29  1  0  0  0  0
 17 32  1  0  0  0  0
 18 32  1  0  0  0  0
 18 33  2  0  0  0  0
 18 36  1  0  0  0  0
 19 21  2  0  0  0  0
 19 41  1  0  0  0  0
 20 22  2  0  0  0  0
 20 42  1  0  0  0  0
 21 51  1  0  0  0  0
 22 43  1  0  0  0  0
 23 30  2  0  0  0  0
 23 60  1  0  0  0  0
 24 70  1  0  0  0  0
 25 80  1  0  0  0  0
 26 81  1  0  0  0  0
 27 29  2  0  0  0  0
 27 80  1  0  0  0  0
 28 82  1  0  0  0  0
 29 83  1  0  0  0  0
 30 31  1  0  0  0  0
 30 84  1  0  0  0  0
 31 85  1  0  0  0  0
 32 64  2  0  0  0  0
 33 65  1  0  0  0  0
 33 68  1  0  0  0  0
 34 35  2  0  0  0  0
 34 52  1  0  0  0  0
 34 73  1  0  0  0  0
 36 69  1  0  0  0  0
 36 75  2  0  0  0  0
 37 53  1  0  0  0  0
 37 71  1  0  0  0  0
 37 76  2  0  0  0  0
 38 61  1  0  0  0  0
 38 66  1  0  0  0  0
 38 77  2  0  0  0  0
 39 62  1  0  0  0  0
 39 72  1  0  0  0  0
 39 78  2  0  0  0  0
 40 67  1  0  0  0  0
 40 70  1  0  0  0  0
 40 79  2  0  0  0  0
 41 44  1  0  0  0  0
 42 53  1  0  0  0  0
 43 66  1  0  0  0  0
 44 46  1  0  0  0  0
 45 47  1  0  0  0  0
 45 48  1  0  0  0  0
 46 51  1  0  0  0  0
 47 54  1  0  0  0  0
 48 67  1  0  0  0  0
 49 54  1  0  0  0  0
 49 67  1  0  0  0  0
 50 52  1  0  0  0  0
 50 73  1  0  0  0  0
 51 71  1  0  0  0  0
 52 81  1  0  0  0  0
 53 66  1  0  0  0  0
 54 65  1  0  0  0  0
 55 62  1  0  0  0  0
 56 63  1  0  0  0  0
 57 63  1  0  0  0  0
 58 63  1  0  0  0  0
 59 74  1  0  0  0  0
 60 73  1  0  0  0  0
 61 63  1  0  0  0  0
 61 72  1  0  0  0  0
 62 74  1  0  0  0  0
 64 65  1  0  0  0  0
M  CHG  2  73   1  74   1
M  ISO  4  40 100  52 101  70 100  81 101
M  END
> <Batch ID>
0032

> <Smiles>
C=C1N(Cc2cc([100NH:0][100C:0](=O)N3CCCC(n4nc(-c5ccc(Oc6ccc(F)cc6F)cc5)c(C(N)=O)c4N)C3)cc(Br)c2Cl)C[101CH:1]1[101O:1]c1ccc2c(c1)CN(C(=O)C(NC(=O)C(C)NC)C(C)(C)C)C(C(=O)NC1CCCc3ccccc31)C2

> <Shape>
0.169

> <Color>
0.156

> <Negative vol penalty>
0.000

$$$$

  -OEChem-04042321423D

 84 93  0     1  0  0  0  0  0999 V2000
  -31.5725  -33.7373   18.6780 C   0  0  0  0  0  0  0  0  0  0  0  0
  -31.6657  -32.3900   19.0120 C   0  0  0  0  0  0  0  0  0  0  0  0
  -24.0708   -9.5979   21.3738 C   0  0  0  0  0  0  0  0  0  0  0  0
  -24.6256  -10.6164   23.4933 C   0  0  0  0  0  0  0  0  0  0  0  0
  -30.5001  -34.4971   19.1436 C   0  0  0  0  0  0  0  0  0  0  0  0
  -30.6872  -31.8020   19.8126 C   0  0  0  0  0  0  0  0  0  0  0  0
  -28.5910  -26.0595   19.4448 C   0  0  0  0  0  0  0  0  0  0  0  0
  -23.6452   -8.4475   22.0380 C   0  0  0  0  0  0  0  0  0  0  0  0
  -24.2000   -9.4660   24.1575 C   0  0  0  0  0  0  0  0  0  0  0  0
  -28.8938  -24.9027   20.1618 C   0  0  0  0  0  0  0  0  0  0  0  0
  -20.9159   -7.4273   23.7535 C   0  0  0  0  0  0  0  0  0  0  0  0
  -19.7094   -6.8550   23.3505 C   0  0  0  0  0  0  0  0  0  0  0  0
  -27.0020  -25.3078   21.6027 C   0  0  0  0  0  0  0  0  0  0  0  0
  -32.2998  -17.8419   21.8780 C   0  0  0  0  0  0  0  0  0  0  0  0
  -30.1148  -19.0201   23.1507 C   0  0  0  0  0  0  0  0  0  0  0  0
  -20.8660   -4.8079   22.7950 C   0  0  0  0  0  0  0  0  0  0  0  0
  -24.5610  -10.6823   22.1015 C   0  0  0  0  0  0  0  0  0  0  0  0
  -24.2241  -12.9952   21.0792 C   0  0  0  0  0  0  0  0  0  0  0  0
  -29.5029  -33.9158   19.9424 C   0  0  0  0  0  0  0  0  0  0  0  0
  -27.4960  -26.8563   19.8088 C   0  0  0  0  0  0  0  0  0  0  0  0
  -29.6012  -32.5551   20.2904 C   0  0  0  0  0  0  0  0  0  0  0  0
  -26.6859  -26.4728   20.8872 C   0  0  0  0  0  0  0  0  0  0  0  0
  -32.0641  -19.2093   21.7360 C   0  0  0  0  0  0  0  0  0  0  0  0
  -31.4430  -17.0635   22.6563 C   0  0  0  0  0  0  0  0  0  0  0  0
  -30.9716  -19.7984   22.3724 C   0  0  0  0  0  0  0  0  0  0  0  0
  -23.7098   -8.3816   23.4298 C   0  0  0  0  0  0  0  0  0  0  0  0
  -28.1010  -24.5283   21.2426 C   0  0  0  0  0  0  0  0  0  0  0  0
  -22.0975   -6.6900   23.6771 C   0  0  0  0  0  0  0  0  0  0  0  0
  -19.6844   -5.5453   22.8713 C   0  0  0  0  0  0  0  0  0  0  0  0
  -30.3505  -17.6527   23.2926 C   0  0  0  0  0  0  0  0  0  0  0  0
  -22.0725   -5.3802   23.1979 C   0  0  0  0  0  0  0  0  0  0  0  0
  -25.0013  -11.8707   21.4159 C   0  0  0  0  0  0  0  0  0  0  0  0
  -25.1006  -13.8408   20.4444 C   0  0  0  0  0  0  0  0  0  0  0  0
  -22.8341  -13.2523   21.3190 C   0  0  0  0  0  0  0  0  0  0  0  0
  -27.1357  -29.8521   20.8083 C   0  0  0  0  0  0  0  0  0  0  0  0
  -23.9802  -29.1527   20.5324 C   0  0  0  0  0  0  0  0  0  0  0  0
  -21.5348  -26.7730   20.4704 C   0  0  0  0  0  0  0  0  0  0  0  0
  -31.0489  -14.4812   20.6886 C   0  0  0  0  0  0  0  0  0  0  0  0
  -28.3876  -34.7887   20.4611 C   0  0  0  0  0  0  0  0  0  0  0  0
  -27.1670  -28.0868   19.0087 C   0  0  0  0  0  0  0  0  0  0  0  0
  -25.4872  -27.2828   21.3059 C   0  0  0  0  0  0  0  0  0  0  0  0
  -27.1947  -33.9998   20.9948 C   0  0  0  0  0  0  0  0  0  0  0  0
  -29.0855  -13.8043   17.7966 C   0  0  0  0  0  0  0  0  0  0  0  0
  -27.6660  -32.8690   21.9036 C   0  0  0  0  0  0  0  0  0  0  0  0
  -27.7460  -13.3335   18.3659 C   0  0  0  0  0  0  0  0  0  0  0  0
  -30.2600  -13.3232   18.6458 C   0  0  0  0  0  0  0  0  0  0  0  0
  -28.8286  -13.1908   20.6476 C   0  0  0  0  0  0  0  0  0  0  0  0
  -30.0978  -22.0093   23.1966 C   0  0  0  0  0  0  0  0  0  0  0  0
  -30.1945  -21.8267   21.1025 C   0  0  0  0  0  0  0  0  0  0  0  0
  -28.5465  -31.8752   21.1363 C   0  0  1  0  0  0  0  0  0  0  0  0
  -26.3317  -29.0993   19.7862 C   0  0  1  0  0  0  0  0  0  0  0  0
  -27.6109  -13.6983   19.8565 C   0  0  2  0  0  0  0  0  0  0  0  0
  -29.7714  -22.9659   22.0411 C   0  0  0  0  0  0  0  0  0  1  0  0
  -32.9979  -20.0192   20.8966 C   0  0  0  0  0  0  0  0  0  0  0  0
  -19.0474  -26.5093   20.2688 C   0  0  0  0  0  0  0  0  0  0  0  0
  -23.6503  -30.0801   23.4205 C   0  0  0  0  0  0  0  0  0  0  0  0
  -21.4278  -28.9282   23.4632 C   0  0  0  0  0  0  0  0  0  0  0  0
  -21.8247  -30.8107   21.8752 C   0  0  0  0  0  0  0  0  0  0  0  0
  -21.7887  -25.1699   17.9956 C   0  0  0  0  0  0  0  0  0  0  0  0
  -31.6974  -15.6016   22.8060 C   0  0  0  0  0  0  0  0  0  0  0  0
  -22.9287  -28.5764   21.4497 C   0  0  1  0  0  0  0  0  0  0  0  0
  -20.3713  -26.5488   19.5215 C   0  0  2  0  0  0  0  0  0  0  0  0
  -22.4815  -29.5844   22.5457 C   0  0  0  0  0  0  0  0  0  0  0  0
  -26.2737  -11.9882   21.0269 N   0  0  0  0  0  0  0  0  0  0  0  0
  -26.3027  -13.1964   20.4392 N   0  0  0  0  0  0  0  0  0  0  0  0
  -30.7215  -21.1600   22.2422 N   0  0  0  0  0  0  0  0  0  0  0  0
  -25.2103  -28.4808   20.4961 N   0  0  0  0  0  0  0  0  0  0  0  0
  -30.0709  -13.7026   20.0480 N   0  0  0  0  0  0  0  0  0  0  0  0
  -24.9527  -15.0653   19.8955 N   0  0  0  0  0  0  0  0  0  0  0  0
  -22.0793  -12.2768   21.9845 N   0  0  0  0  0  0  0  0  0  0  0  0
  -27.7301  -31.0008   20.3218 N   0  0  0  0  0  0  0  0  0  0  0  0
  -21.8468  -28.1108   20.5888 N   0  0  0  0  0  0  0  0  0  0  0  0
  -30.7886  -14.8017   22.0154 N   0  0  0  0  0  0  0  0  0  0  0  0
  -20.5382  -25.2597   18.7926 N   0  3  0  0  0  0  0  0  0  0  0  0
  -22.2741  -14.3086   20.9394 O   0  0  0  0  0  0  0  0  0  0  0  0
  -27.2099  -29.4234   21.9539 O   0  0  0  0  0  0  0  0  0  0  0  0
  -23.7173  -30.1576   19.8672 O   0  0  0  0  0  0  0  0  0  0  0  0
  -22.1070  -25.8536   21.0515 O   0  0  0  0  0  0  0  0  0  0  0  0
  -32.0751  -14.8670   20.1187 O   0  0  0  0  0  0  0  0  0  0  0  0
  -23.2944   -7.2593   24.0783 O   0  0  0  0  0  0  0  0  0  0  0  0
  -28.3947  -23.4000   21.9445 O   0  0  0  0  0  0  0  0  0  1  0  0
  -18.5255   -4.9953   22.4858 F   0  0  0  0  0  0  0  0  0  0  0  0
  -29.5215  -16.9128   24.0424 F   0  0  0  0  0  0  0  0  0  0  0  0
  -23.2043   -4.6665   23.1234 F   0  0  0  0  0  0  0  0  0  0  0  0
  1  2  1  0  0  0  0
  1  5  2  0  0  0  0
  2  6  2  0  0  0  0
  3  8  2  0  0  0  0
  3 17  1  0  0  0  0
  4  9  1  0  0  0  0
  4 17  2  0  0  0  0
  5 19  1  0  0  0  0
  6 21  1  0  0  0  0
  7 10  2  0  0  0  0
  7 20  1  0  0  0  0
  8 26  1  0  0  0  0
  9 26  2  0  0  0  0
 10 27  1  0  0  0  0
 11 12  2  0  0  0  0
 11 28  1  0  0  0  0
 12 29  1  0  0  0  0
 13 22  1  0  0  0  0
 13 27  2  0  0  0  0
 14 23  1  0  0  0  0
 14 24  2  0  0  0  0
 15 25  1  0  0  0  0
 15 30  2  0  0  0  0
 16 29  2  0  0  0  0
 16 31  1  0  0  0  0
 17 32  1  0  0  0  0
 18 32  1  0  0  0  0
 18 33  2  0  0  0  0
 18 34  1  0  0  0  0
 19 21  2  0  0  0  0
 19 39  1  0  0  0  0
 20 22  2  0  0  0  0
 20 40  1  0  0  0  0
 21 50  1  0  0  0  0
 22 41  1  0  0  0  0
 23 25  2  0  0  0  0
 23 54  1  0  0  0  0
 24 30  1  0  0  0  0
 24 60  1  0  0  0  0
 25 66  1  0  0  0  0
 26 80  1  0  0  0  0
 27 81  1  0  0  0  0
 28 31  2  0  0  0  0
 28 80  1  0  0  0  0
 29 82  1  0  0  0  0
 30 83  1  0  0  0  0
 31 84  1  0  0  0  0
 32 64  2  0  0  0  0
 33 65  1  0  0  0  0
 33 69  1  0  0  0  0
 34 70  1  0  0  0  0
 34 75  2  0  0  0  0
 35 51  1  0  0  0  0
 35 71  1  0  0  0  0
 35 76  2  0  0  0  0
 36 61  1  0  0  0  0
 36 67  1  0  0  0  0
 36 77  2  0  0  0  0
 37 62  1  0  0  0  0
 37 72  1  0  0  0  0
 37 78  2  0  0  0  0
 38 68  1  0  0  0  0
 38 73  1  0  0  0  0
 38 79  2  0  0  0  0
 39 42  1  0  0  0  0
 40 51  1  0  0  0  0
 41 67  1  0  0  0  0
 42 44  1  0  0  0  0
 43 45  1  0  0  0  0
 43 46  1  0  0  0  0
 44 50  1  0  0  0  0
 45 52  1  0  0  0  0
 46 68  1  0  0  0  0
 47 52  1  0  0  0  0
 47 68  1  0  0  0  0
 48 53  1  0  0  0  0
 48 66  1  0  0  0  0
 49 53  1  0  0  0  0
 49 66  1  0  0  0  0
 50 71  1  0  0  0  0
 51 67  1  0  0  0  0
 52 65  1  0  0  0  0
 53 81  1  0  0  0  0
 55 62  1  0  0  0  0
 56 63  1  0  0  0  0
 57 63  1  0  0  0  0
 58 63  1  0  0  0  0
 59 74  1  0  0  0  0
 60 73  1  0  0  0  0
 61 63  1  0  0  0  0
 61 72  1  0  0  0  0
 62 74  1  0  0  0  0
 64 65  1  0  0  0  0
M  CHG  1  74   1
M  ISO  4  38 100  53 101  73 100  81 101
M  END
> <Batch ID>
0032

> <Smiles>
CNC(C)C(=O)NC(C(=O)N1Cc2cc([101O:1][101CH:1]3CN(c4cc(F)c(C[100NH:0][100C:0](=O)N5CCCC(n6nc(-c7ccc(Oc8ccc(F)cc8F)cc7)c(C(N)=O)c6N)C5)cc4C)C3)ccc2CC1C(=O)NC1CCCc2ccccc21)C(C)(C)C

> <Shape>
0.273

> <Color>
0.139

> <Negative vol penalty>
0.000

$$$$

  -OEChem-04042321423D

 90 99  0     1  0  0  0  0  0999 V2000
  -29.0281  -25.3695   16.5813 C   0  0  0  0  0  0  0  0  0  0  0  0
  -27.6649  -25.5869   16.7540 C   0  0  0  0  0  0  0  0  0  0  0  0
  -26.3137  -14.5324   18.7559 C   0  0  0  0  0  0  0  0  0  0  0  0
  -24.2906  -14.8110   20.0468 C   0  0  0  0  0  0  0  0  0  0  0  0
  -29.9098  -25.6081   17.6347 C   0  0  0  0  0  0  0  0  0  0  0  0
  -27.1825  -26.0420   17.9806 C   0  0  0  0  0  0  0  0  0  0  0  0
  -22.4618  -29.8329   18.9025 C   0  0  0  0  0  0  0  0  0  0  0  0
  -21.2140  -25.0982   22.3633 C   0  0  0  0  0  0  0  0  0  0  0  0
  -22.2647  -24.4574   21.7069 C   0  0  0  0  0  0  0  0  0  0  0  0
  -26.5198  -13.2863   19.3479 C   0  0  0  0  0  0  0  0  0  0  0  0
  -24.4967  -13.5649   20.6388 C   0  0  0  0  0  0  0  0  0  0  0  0
  -21.1292  -29.6058   19.2436 C   0  0  0  0  0  0  0  0  0  0  0  0
  -24.0578  -10.3162   19.8182 C   0  0  0  0  0  0  0  0  0  0  0  0
  -22.9618   -9.4594   19.9199 C   0  0  0  0  0  0  0  0  0  0  0  0
  -21.6623  -29.9982   21.5633 C   0  0  0  0  0  0  0  0  0  0  0  0
  -23.1991   -9.4413   22.3242 C   0  0  0  0  0  0  0  0  0  0  0  0
  -25.1991  -15.2948   19.1054 C   0  0  0  0  0  0  0  0  0  0  0  0
  -24.2696  -16.8549   17.3138 C   0  0  0  0  0  0  0  0  0  0  0  0
  -29.4390  -26.0756   18.8719 C   0  0  0  0  0  0  0  0  0  0  0  0
  -23.4084  -30.1341   19.8923 C   0  0  0  0  0  0  0  0  0  0  0  0
  -28.0585  -26.2858   19.0520 C   0  0  0  0  0  0  0  0  0  0  0  0
  -23.0058  -30.2312   21.2319 C   0  0  0  0  0  0  0  0  0  0  0  0
  -19.9006  -24.6779   22.1533 C   0  0  0  0  0  0  0  0  0  0  0  0
  -19.6379  -23.6169   21.2867 C   0  0  0  0  0  0  0  0  0  0  0  0
  -20.6887  -22.9761   20.6302 C   0  0  0  0  0  0  0  0  0  0  0  0
  -22.0021  -23.3964   20.8403 C   0  0  0  0  0  0  0  0  0  0  0  0
  -25.6113  -12.8026   20.2893 C   0  0  0  0  0  0  0  0  0  0  0  0
  -20.7298  -29.6856   20.5745 C   0  0  0  0  0  0  0  0  0  0  0  0
  -24.7246  -10.7354   20.9695 C   0  0  0  0  0  0  0  0  0  0  0  0
  -22.5324   -9.0220   21.1729 C   0  0  0  0  0  0  0  0  0  0  0  0
  -24.2952  -10.2980   22.2225 C   0  0  0  0  0  0  0  0  0  0  0  0
  -24.9859  -16.5823   18.4947 C   0  0  0  0  0  0  0  0  0  0  0  0
  -24.3606  -18.2171   17.1638 C   0  0  0  0  0  0  0  0  0  0  0  0
  -17.3121  -27.3069   22.7410 C   0  0  0  0  0  0  0  0  0  0  0  0
  -16.1999  -27.0004   23.4181 C   0  0  0  0  0  0  0  0  0  0  0  0
  -23.5834  -15.9570   16.4314 C   0  0  0  0  0  0  0  0  0  0  0  0
  -26.0621  -28.7443   20.9553 C   0  0  0  0  0  0  0  0  0  0  0  0
  -26.3099  -31.4550   22.7197 C   0  0  0  0  0  0  0  0  0  0  0  0
  -24.7492  -34.1224   24.1674 C   0  0  0  0  0  0  0  0  0  0  0  0
  -24.4399  -23.0691   20.2962 C   0  0  0  0  0  0  0  0  0  0  0  0
  -30.4249  -26.2740   19.9958 C   0  0  0  0  0  0  0  0  0  0  0  0
  -24.8367  -30.4027   19.5048 C   0  0  0  0  0  0  0  0  0  0  0  0
  -23.9791  -30.5714   22.3298 C   0  0  0  0  0  0  0  0  0  0  0  0
  -17.9011  -28.6750   22.6030 C   0  0  0  0  0  0  0  0  0  0  0  0
  -29.8757  -27.1130   21.1468 C   0  0  0  0  0  0  0  0  0  0  0  0
  -27.4116  -21.7158   18.8768 C   0  0  0  0  0  0  0  0  0  0  0  0
  -28.4767  -26.6417   21.5307 C   0  0  0  0  0  0  0  0  0  0  0  0
  -27.0206  -20.2805   18.5174 C   0  0  0  0  0  0  0  0  0  0  0  0
  -26.7549  -22.1736   20.1779 C   0  0  0  0  0  0  0  0  0  0  0  0
  -24.9053  -20.5760   19.8683 C   0  0  0  0  0  0  0  0  0  0  0  0
  -18.8675  -27.1144   21.0394 C   0  0  0  0  0  0  0  0  0  0  0  0
  -27.4996  -26.8027   20.3598 C   0  0  1  0  0  0  0  0  0  0  0  0
  -25.8170  -30.1960   20.6553 C   0  0  1  0  0  0  0  0  0  0  0  0
  -25.4909  -20.0927   18.5315 C   0  0  2  0  0  0  0  0  0  0  0  0
  -19.1679  -28.3965   21.8041 C   0  0  1  0  0  0  0  0  0  1  0  0
  -18.2282  -23.1684   21.0636 C   0  0  0  0  0  0  0  0  0  0  0  0
  -15.6457  -25.6204   23.5310 C   0  0  0  0  0  0  0  0  0  0  0  0
  -25.2094  -36.1473   25.5763 C   0  0  0  0  0  0  0  0  0  0  0  0
  -26.5703  -29.6769   25.1856 C   0  0  0  0  0  0  0  0  0  0  0  0
  -26.0723  -31.6828   26.5987 C   0  0  0  0  0  0  0  0  0  0  0  0
  -28.1066  -31.6501   25.1553 C   0  0  0  0  0  0  0  0  0  0  0  0
  -23.7786  -35.9553   22.0561 C   0  0  0  0  0  0  0  0  0  0  0  0
  -18.7892  -25.3845   22.8720 C   0  0  0  0  0  0  0  0  0  0  0  0
  -25.8298  -31.8909   24.0829 C   0  0  1  0  0  0  0  0  0  0  0  0
  -25.0754  -35.6050   24.1619 C   0  0  2  0  0  0  0  0  0  0  0  0
  -20.4045  -21.8377   19.7008 C   0  0  0  0  0  0  0  0  0  0  0  0
  -26.6266  -31.2168   25.2354 C   0  0  0  0  0  0  0  0  0  0  0  0
  -25.4944  -17.6829   19.0550 N   0  0  0  0  0  0  0  0  0  0  0  0
  -25.0973  -18.6604   18.2225 N   0  0  0  0  0  0  0  0  0  0  0  0
  -25.3656  -30.8192   21.9012 N   0  0  0  0  0  0  0  0  0  0  0  0
  -25.3059  -21.9697   20.1167 N   0  0  0  0  0  0  0  0  0  0  0  0
  -23.8814  -19.0671   16.2308 N   0  0  0  0  0  0  0  0  0  0  0  0
  -23.5889  -14.5885   16.7340 N   0  0  0  0  0  0  0  0  0  0  0  0
  -23.0848  -22.7600   20.1842 N   0  0  0  0  0  0  0  0  0  0  0  0
  -27.0944  -28.1856   20.2262 N   0  0  0  0  0  0  0  0  0  0  0  0
  -25.8878  -33.3486   24.0893 N   0  0  0  0  0  0  0  0  0  0  0  0
  -18.0027  -26.3032   21.9812 N   0  3  1  0  0  0  0  0  0  0  0  0
  -24.0021  -36.3690   23.4654 N   0  3  0  0  0  0  0  0  0  0  0  0
  -22.9971  -16.3545   15.3962 O   0  0  0  0  0  0  0  0  0  0  0  0
  -25.3670  -28.1736   21.7878 O   0  0  0  0  0  0  0  0  0  0  0  0
  -27.4778  -31.6770   22.3904 O   0  0  0  0  0  0  0  0  0  0  0  0
  -23.5995  -33.6936   24.2379 O   0  0  0  0  0  0  0  0  0  0  0  0
  -24.8698  -24.2065   20.5049 O   0  0  0  0  0  0  0  0  0  0  0  0
  -25.8120  -11.5866   20.8670 O   0  0  0  0  0  0  0  0  0  0  0  0
  -19.4298  -29.4637   20.9102 O   0  0  0  0  0  0  0  0  0  1  0  0
  -21.4790   -8.2005   21.2704 F   0  0  0  0  0  0  0  0  0  0  0  0
  -24.9309  -10.6983   23.3321 F   0  0  0  0  0  0  0  0  0  0  0  0
  -19.0774  -21.5412   19.5967 F   0  0  0  0  0  0  0  0  0  0  0  0
  -20.8250  -22.0640   18.4234 F   0  0  0  0  0  0  0  0  0  0  0  0
  -21.0129  -20.6828   20.0925 F   0  0  0  0  0  0  0  0  0  0  0  0
  1  2  1  0  0  0  0
  1  5  2  0  0  0  0
  2  6  2  0  0  0  0
  3 10  2  0  0  0  0
  3 17  1  0  0  0  0
  4 11  1  0  0  0  0
  4 17  2  0  0  0  0
  5 19  1  0  0  0  0
  6 21  1  0  0  0  0
  7 12  2  0  0  0  0
  7 20  1  0  0  0  0
  8  9  2  0  0  0  0
  8 23  1  0  0  0  0
  9 26  1  0  0  0  0
 10 27  1  0  0  0  0
 11 27  2  0  0  0  0
 12 28  1  0  0  0  0
 13 14  2  0  0  0  0
 13 29  1  0  0  0  0
 14 30  1  0  0  0  0
 15 22  1  0  0  0  0
 15 28  2  0  0  0  0
 16 30  2  0  0  0  0
 16 31  1  0  0  0  0
 17 32  1  0  0  0  0
 18 32  1  0  0  0  0
 18 33  2  0  0  0  0
 18 36  1  0  0  0  0
 19 21  2  0  0  0  0
 19 41  1  0  0  0  0
 20 22  2  0  0  0  0
 20 42  1  0  0  0  0
 21 52  1  0  0  0  0
 22 43  1  0  0  0  0
 23 24  2  0  0  0  0
 23 63  1  0  0  0  0
 24 25  1  0  0  0  0
 24 56  1  0  0  0  0
 25 26  2  0  0  0  0
 25 66  1  0  0  0  0
 26 74  1  0  0  0  0
 27 84  1  0  0  0  0
 28 85  1  0  0  0  0
 29 31  2  0  0  0  0
 29 84  1  0  0  0  0
 30 86  1  0  0  0  0
 31 87  1  0  0  0  0
 32 68  2  0  0  0  0
 33 69  1  0  0  0  0
 33 72  1  0  0  0  0
 34 35  2  0  0  0  0
 34 44  1  0  0  0  0
 34 77  1  0  0  0  0
 35 57  1  0  0  0  0
 36 73  1  0  0  0  0
 36 79  2  0  0  0  0
 37 53  1  0  0  0  0
 37 75  1  0  0  0  0
 37 80  2  0  0  0  0
 38 64  1  0  0  0  0
 38 70  1  0  0  0  0
 38 81  2  0  0  0  0
 39 65  1  0  0  0  0
 39 76  1  0  0  0  0
 39 82  2  0  0  0  0
 40 71  1  0  0  0  0
 40 74  1  0  0  0  0
 40 83  2  0  0  0  0
 41 45  1  0  0  0  0
 42 53  1  0  0  0  0
 43 70  1  0  0  0  0
 44 55  1  0  0  0  0
 45 47  1  0  0  0  0
 46 48  1  0  0  0  0
 46 49  1  0  0  0  0
 47 52  1  0  0  0  0
 48 54  1  0  0  0  0
 49 71  1  0  0  0  0
 50 54  1  0  0  0  0
 50 71  1  0  0  0  0
 51 55  1  0  0  0  0
 51 77  1  0  0  0  0
 52 75  1  0  0  0  0
 53 70  1  0  0  0  0
 54 69  1  0  0  0  0
 55 85  1  0  0  0  0
 58 65  1  0  0  0  0
 59 67  1  0  0  0  0
 60 67  1  0  0  0  0
 61 67  1  0  0  0  0
 62 78  1  0  0  0  0
 63 77  1  0  0  0  0
 64 67  1  0  0  0  0
 64 76  1  0  0  0  0
 65 78  1  0  0  0  0
 66 88  1  0  0  0  0
 66 89  1  0  0  0  0
 66 90  1  0  0  0  0
 68 69  1  0  0  0  0
M  CHG  2  77   1  78   1
M  ISO  4  40 100  55 101  74 100  85 101
M  END
> <Batch ID>
0032

> <Smiles>
CC=C1C[101CH:1]([101O:1]c2ccc3c(c2)CN(C(=O)C(NC(=O)C(C)NC)C(C)(C)C)C(C(=O)NC2CCCc4ccccc42)C3)CN1Cc1ccc([100NH:0][100C:0](=O)N2CCCC(n3nc(-c4ccc(Oc5ccc(F)cc5F)cc4)c(C(N)=O)c3N)C2)c(C(F)(F)F)c1C

> <Shape>
0.296

> <Color>
0.076

> <Negative vol penalty>
0.000

$$$$

  -OEChem-04042321423D

 88 97  0     1  0  0  0  0  0999 V2000
  -27.7533  -24.3868   16.9748 C   0  0  0  0  0  0  0  0  0  0  0  0
  -26.6728  -25.2113   17.2673 C   0  0  0  0  0  0  0  0  0  0  0  0
  -28.1715  -14.7524   21.1482 C   0  0  0  0  0  0  0  0  0  0  0  0
  -26.1391  -15.5980   20.1526 C   0  0  0  0  0  0  0  0  0  0  0  0
  -28.8307  -24.3173   17.8555 C   0  0  0  0  0  0  0  0  0  0  0  0
  -26.6746  -25.9756   18.4347 C   0  0  0  0  0  0  0  0  0  0  0  0
  -23.0035  -29.2016   18.9994 C   0  0  0  0  0  0  0  0  0  0  0  0
  -27.6163  -13.4737   21.1958 C   0  0  0  0  0  0  0  0  0  0  0  0
  -25.5838  -14.3193   20.2001 C   0  0  0  0  0  0  0  0  0  0  0  0
  -21.6946  -28.8124   19.2806 C   0  0  0  0  0  0  0  0  0  0  0  0
  -25.7880  -11.4493   18.4274 C   0  0  0  0  0  0  0  0  0  0  0  0
  -25.1160  -10.9937   17.2933 C   0  0  0  0  0  0  0  0  0  0  0  0
  -22.0004  -29.4680   21.5819 C   0  0  0  0  0  0  0  0  0  0  0  0
  -21.9366  -23.5150   22.1382 C   0  0  0  0  0  0  0  0  0  0  0  0
  -23.7941  -23.8362   24.1948 C   0  0  0  0  0  0  0  0  0  0  0  0
  -23.0917  -10.7520   18.5898 C   0  0  0  0  0  0  0  0  0  0  0  0
  -27.4329  -15.8145   20.6266 C   0  0  0  0  0  0  0  0  0  0  0  0
  -28.7546  -17.6993   19.5273 C   0  0  0  0  0  0  0  0  0  0  0  0
  -28.8392  -25.0720   19.0402 C   0  0  0  0  0  0  0  0  0  0  0  0
  -23.8255  -29.7177   20.0115 C   0  0  0  0  0  0  0  0  0  0  0  0
  -27.7634  -25.9375   19.3245 C   0  0  0  0  0  0  0  0  0  0  0  0
  -23.3185  -29.8655   21.3104 C   0  0  0  0  0  0  0  0  0  0  0  0
  -21.5847  -24.2139   23.2929 C   0  0  0  0  0  0  0  0  0  0  0  0
  -23.2172  -22.9766   22.0119 C   0  0  0  0  0  0  0  0  0  0  0  0
  -22.5135  -24.3746   24.3211 C   0  0  0  0  0  0  0  0  0  0  0  0
  -24.1459  -23.1372   23.0401 C   0  0  0  0  0  0  0  0  0  0  0  0
  -26.3224  -13.2571   20.7217 C   0  0  0  0  0  0  0  0  0  0  0  0
  -21.1938  -28.9428   20.5726 C   0  0  0  0  0  0  0  0  0  0  0  0
  -25.1120  -11.5562   19.6429 C   0  0  0  0  0  0  0  0  0  0  0  0
  -23.7679  -10.6451   17.3744 C   0  0  0  0  0  0  0  0  0  0  0  0
  -23.7638  -11.2076   19.7240 C   0  0  0  0  0  0  0  0  0  0  0  0
  -28.0058  -17.1357   20.5778 C   0  0  0  0  0  0  0  0  0  0  0  0
  -29.0645  -18.9633   19.9662 C   0  0  0  0  0  0  0  0  0  0  0  0
  -18.3037  -25.7382   22.2309 C   0  0  0  0  0  0  0  0  0  0  0  0
  -16.2822  -22.7674   22.9854 C   0  0  0  0  0  0  0  0  0  0  0  0
  -17.2450  -24.9625   22.4894 C   0  0  0  0  0  0  0  0  0  0  0  0
  -17.3413  -23.5426   22.7269 C   0  0  0  0  0  0  0  0  0  0  0  0
  -29.1359  -17.1310   18.2674 C   0  0  0  0  0  0  0  0  0  0  0  0
  -26.5641  -28.8204   21.3526 C   0  0  0  0  0  0  0  0  0  0  0  0
  -26.3045  -31.6745   22.8721 C   0  0  0  0  0  0  0  0  0  0  0  0
  -24.2875  -34.1972   23.9739 C   0  0  0  0  0  0  0  0  0  0  0  0
  -26.4800  -22.6775   23.8689 C   0  0  0  0  0  0  0  0  0  0  0  0
  -30.0345  -24.9646   19.9540 C   0  0  0  0  0  0  0  0  0  0  0  0
  -25.2265  -30.1580   19.6860 C   0  0  0  0  0  0  0  0  0  0  0  0
  -24.1537  -30.4328   22.4280 C   0  0  0  0  0  0  0  0  0  0  0  0
  -18.2650  -27.2120   21.9772 C   0  0  0  0  0  0  0  0  0  0  0  0
  -29.7495  -25.4638   21.3667 C   0  0  0  0  0  0  0  0  0  0  0  0
  -29.8203  -21.4505   23.9883 C   0  0  0  0  0  0  0  0  0  0  0  0
  -29.0884  -26.8329   21.3107 C   0  0  0  0  0  0  0  0  0  0  0  0
  -29.8037  -20.2598   23.0270 C   0  0  0  0  0  0  0  0  0  0  0  0
  -28.5126  -21.5671   24.7693 C   0  0  0  0  0  0  0  0  0  0  0  0
  -27.2807  -20.3989   22.9841 C   0  0  0  0  0  0  0  0  0  0  0  0
  -20.3861  -26.2453   21.3603 C   0  0  0  0  0  0  0  0  0  0  0  0
  -27.7296  -26.7547   20.6033 C   0  0  1  0  0  0  0  0  0  0  0  0
  -26.1410  -30.1914   20.9066 C   0  0  1  0  0  0  0  0  0  0  0  0
  -28.5520  -20.2787   22.1279 C   0  0  2  0  0  0  0  0  0  0  0  0
  -19.7429  -27.5464   21.8210 C   0  0  1  0  0  0  0  0  0  1  0  0
  -23.5667  -22.2327   20.7639 C   0  0  0  0  0  0  0  0  0  0  0  0
  -22.1593  -25.1188   25.5666 C   0  0  0  0  0  0  0  0  0  0  0  0
  -24.3588  -36.3768   25.2157 C   0  0  0  0  0  0  0  0  0  0  0  0
  -26.6332  -30.1626   25.5020 C   0  0  0  0  0  0  0  0  0  0  0  0
  -25.7605  -32.1845   26.6929 C   0  0  0  0  0  0  0  0  0  0  0  0
  -27.8775  -32.3286   25.3814 C   0  0  0  0  0  0  0  0  0  0  0  0
  -23.2244  -35.6894   21.6496 C   0  0  0  0  0  0  0  0  0  0  0  0
  -20.2015  -24.7838   23.4064 C   0  0  0  0  0  0  0  0  0  0  0  0
  -25.6719  -32.1470   24.1588 C   0  0  1  0  0  0  0  0  0  0  0  0
  -24.4033  -35.7059   23.8516 C   0  0  2  0  0  0  0  0  0  0  0  0
  -26.4704  -31.6932   25.4134 C   0  0  0  0  0  0  0  0  0  0  0  0
  -27.8495  -17.9731   21.6066 N   0  0  0  0  0  0  0  0  0  0  0  0
  -28.5045  -19.0756   21.2048 N   0  0  0  0  0  0  0  0  0  0  0  0
  -25.5192  -30.8430   22.0611 N   0  0  0  0  0  0  0  0  0  0  0  0
  -27.3709  -21.5834   23.8522 N   0  0  0  0  0  0  0  0  0  0  0  0
  -29.7587  -19.9786   19.4097 N   0  0  0  0  0  0  0  0  0  0  0  0
  -28.7339  -15.8202   17.9766 N   0  0  0  0  0  0  0  0  0  0  0  0
  -25.4516  -22.5979   22.9304 N   0  0  0  0  0  0  0  0  0  0  0  0
  -27.2331  -28.0955   20.3849 N   0  0  0  0  0  0  0  0  0  0  0  0
  -25.5255  -33.5932   24.0346 N   0  0  0  0  0  0  0  0  0  0  0  0
  -19.6098  -25.1617   22.0786 N   0  3  1  0  0  0  0  0  0  0  0  0
  -23.2865  -36.2459   23.0257 N   0  3  0  0  0  0  0  0  0  0  0  0
  -29.8270  -17.7609   17.4313 O   0  0  0  0  0  0  0  0  0  0  0  0
  -26.3042  -28.4483   22.4909 O   0  0  0  0  0  0  0  0  0  0  0  0
  -27.4506  -32.0358   22.5934 O   0  0  0  0  0  0  0  0  0  0  0  0
  -23.2068  -33.6133   24.0155 O   0  0  0  0  0  0  0  0  0  0  0  0
  -26.6348  -23.6287   24.6390 O   0  0  0  0  0  0  0  0  0  0  0  0
  -25.7804  -12.0095   20.7678 O   0  0  0  0  0  0  0  0  0  0  0  0
  -19.9168  -28.5630   20.8499 O   0  0  0  0  0  0  0  0  0  1  0  0
  -23.1222  -10.2090   16.2849 F   0  0  0  0  0  0  0  0  0  0  0  0
  -23.1087  -11.3093   20.8886 F   0  0  0  0  0  0  0  0  0  0  0  0
  1  2  1  0  0  0  0
  1  5  2  0  0  0  0
  2  6  2  0  0  0  0
  3  8  2  0  0  0  0
  3 17  1  0  0  0  0
  4  9  1  0  0  0  0
  4 17  2  0  0  0  0
  5 19  1  0  0  0  0
  6 21  1  0  0  0  0
  7 10  2  0  0  0  0
  7 20  1  0  0  0  0
  8 27  1  0  0  0  0
  9 27  2  0  0  0  0
 10 28  1  0  0  0  0
 11 12  2  0  0  0  0
 11 29  1  0  0  0  0
 12 30  1  0  0  0  0
 13 22  1  0  0  0  0
 13 28  2  0  0  0  0
 14 23  1  0  0  0  0
 14 24  2  0  0  0  0
 15 25  1  0  0  0  0
 15 26  2  0  0  0  0
 16 30  2  0  0  0  0
 16 31  1  0  0  0  0
 17 32  1  0  0  0  0
 18 32  1  0  0  0  0
 18 33  2  0  0  0  0
 18 38  1  0  0  0  0
 19 21  2  0  0  0  0
 19 43  1  0  0  0  0
 20 22  2  0  0  0  0
 20 44  1  0  0  0  0
 21 54  1  0  0  0  0
 22 45  1  0  0  0  0
 23 25  2  0  0  0  0
 23 65  1  0  0  0  0
 24 26  1  0  0  0  0
 24 58  1  0  0  0  0
 25 59  1  0  0  0  0
 26 75  1  0  0  0  0
 27 85  1  0  0  0  0
 28 86  1  0  0  0  0
 29 31  2  0  0  0  0
 29 85  1  0  0  0  0
 30 87  1  0  0  0  0
 31 88  1  0  0  0  0
 32 69  2  0  0  0  0
 33 70  1  0  0  0  0
 33 73  1  0  0  0  0
 34 36  2  0  0  0  0
 34 46  1  0  0  0  0
 34 78  1  0  0  0  0
 35 37  2  0  0  0  0
 36 37  1  0  0  0  0
 38 74  1  0  0  0  0
 38 80  2  0  0  0  0
 39 55  1  0  0  0  0
 39 76  1  0  0  0  0
 39 81  2  0  0  0  0
 40 66  1  0  0  0  0
 40 71  1  0  0  0  0
 40 82  2  0  0  0  0
 41 67  1  0  0  0  0
 41 77  1  0  0  0  0
 41 83  2  0  0  0  0
 42 72  1  0  0  0  0
 42 75  1  0  0  0  0
 42 84  2  0  0  0  0
 43 47  1  0  0  0  0
 44 55  1  0  0  0  0
 45 71  1  0  0  0  0
 46 57  1  0  0  0  0
 47 49  1  0  0  0  0
 48 50  1  0  0  0  0
 48 51  1  0  0  0  0
 49 54  1  0  0  0  0
 50 56  1  0  0  0  0
 51 72  1  0  0  0  0
 52 56  1  0  0  0  0
 52 72  1  0  0  0  0
 53 57  1  0  0  0  0
 53 78  1  0  0  0  0
 54 76  1  0  0  0  0
 55 71  1  0  0  0  0
 56 70  1  0  0  0  0
 57 86  1  0  0  0  0
 60 67  1  0  0  0  0
 61 68  1  0  0  0  0
 62 68  1  0  0  0  0
 63 68  1  0  0  0  0
 64 79  1  0  0  0  0
 65 78  1  0  0  0  0
 66 68  1  0  0  0  0
 66 77  1  0  0  0  0
 67 79  1  0  0  0  0
 69 70  1  0  0  0  0
M  CHG  2  78   1  79   1
M  ISO  4  42 100  57 101  75 100  86 101
M  END
> <Batch ID>
0032

> <Smiles>
C=CC=C1C[101CH:1]([101O:1]c2ccc3c(c2)CN(C(=O)C(NC(=O)C(C)NC)C(C)(C)C)C(C(=O)NC2CCCc4ccccc42)C3)CN1Cc1cc(C)c([100NH:0][100C:0](=O)N2CCCC(n3nc(-c4ccc(Oc5ccc(F)cc5F)cc4)c(C(N)=O)c3N)C2)cc1C

> <Shape>
0.299

> <Color>
0.081

> <Negative vol penalty>
0.000

$$$$

  -OEChem-04042321423D

 85 94  0     1  0  0  0  0  0999 V2000
  -18.4209  -25.5358   23.6135 C   0  0  0  0  0  0  0  0  0  0  0  0
  -18.3631  -25.7081   22.2342 C   0  0  0  0  0  0  0  0  0  0  0  0
  -26.6155  -13.0366   18.8058 C   0  0  0  0  0  0  0  0  0  0  0  0
  -26.1596  -13.2037   21.1725 C   0  0  0  0  0  0  0  0  0  0  0  0
  -19.3235  -26.2813   24.3707 C   0  0  0  0  0  0  0  0  0  0  0  0
  -19.2072  -26.6269   21.6115 C   0  0  0  0  0  0  0  0  0  0  0  0
  -24.3382  -25.5760   15.8154 C   0  0  0  0  0  0  0  0  0  0  0  0
  -25.4337  -12.3172   18.6289 C   0  0  0  0  0  0  0  0  0  0  0  0
  -24.9778  -12.4842   20.9956 C   0  0  0  0  0  0  0  0  0  0  0  0
  -25.3893  -25.4825   14.9030 C   0  0  0  0  0  0  0  0  0  0  0  0
  -24.0641   -9.2543   20.5912 C   0  0  0  0  0  0  0  0  0  0  0  0
  -23.7847   -8.2335   21.4997 C   0  0  0  0  0  0  0  0  0  0  0  0
  -26.4651  -27.3889   15.9308 C   0  0  0  0  0  0  0  0  0  0  0  0
  -29.0205  -22.2337   16.0385 C   0  0  0  0  0  0  0  0  0  0  0  0
  -29.5292  -22.8633   18.7082 C   0  0  0  0  0  0  0  0  0  0  0  0
  -21.7427   -9.3578   22.1349 C   0  0  0  0  0  0  0  0  0  0  0  0
  -26.9785  -13.4798   20.0776 C   0  0  0  0  0  0  0  0  0  0  0  0
  -29.5081  -13.7920   19.9714 C   0  0  0  0  0  0  0  0  0  0  0  0
  -20.1858  -27.2027   23.7559 C   0  0  0  0  0  0  0  0  0  0  0  0
  -24.3541  -26.5679   16.7999 C   0  0  0  0  0  0  0  0  0  0  0  0
  -20.1212  -27.3864   22.3614 C   0  0  0  0  0  0  0  0  0  0  0  0
  -25.4211  -27.4796   16.8553 C   0  0  0  0  0  0  0  0  0  0  0  0
  -28.9259  -21.2455   17.0183 C   0  0  0  0  0  0  0  0  0  0  0  0
  -29.3695  -23.5367   16.3935 C   0  0  0  0  0  0  0  0  0  0  0  0
  -29.1802  -21.5603   18.3531 C   0  0  0  0  0  0  0  0  0  0  0  0
  -24.6148  -12.0410   19.7238 C   0  0  0  0  0  0  0  0  0  0  0  0
  -26.4500  -26.3869   14.9604 C   0  0  0  0  0  0  0  0  0  0  0  0
  -23.1829  -10.3269   20.4545 C   0  0  0  0  0  0  0  0  0  0  0  0
  -22.6240   -8.2852   22.2715 C   0  0  0  0  0  0  0  0  0  0  0  0
  -29.6239  -23.8515   17.7283 C   0  0  0  0  0  0  0  0  0  0  0  0
  -22.0222  -10.3787   21.2263 C   0  0  0  0  0  0  0  0  0  0  0  0
  -28.1995  -14.2225   20.2611 C   0  0  0  0  0  0  0  0  0  0  0  0
  -30.3046  -14.8552   20.3204 C   0  0  0  0  0  0  0  0  0  0  0  0
  -29.9631  -12.5427   19.4348 C   0  0  0  0  0  0  0  0  0  0  0  0
  -22.6294  -28.1187   19.7488 C   0  0  0  0  0  0  0  0  0  0  0  0
  -25.6282  -28.0726   20.3933 C   0  0  0  0  0  0  0  0  0  0  0  0
  -28.5372  -27.0095   20.9503 C   0  0  0  0  0  0  0  0  0  0  0  0
  -29.3171  -20.7342   20.7291 C   0  0  0  0  0  0  0  0  0  0  0  0
  -21.1117  -28.0199   24.6216 C   0  0  0  0  0  0  0  0  0  0  0  0
  -23.2131  -26.7443   17.7647 C   0  0  0  0  0  0  0  0  0  0  0  0
  -25.3790  -28.5518   17.9096 C   0  0  0  0  0  0  0  0  0  0  0  0
  -22.2322  -28.7018   23.8407 C   0  0  0  0  0  0  0  0  0  0  0  0
  -30.4706  -18.5834   23.3216 C   0  0  0  0  0  0  0  0  0  0  0  0
  -30.0307  -25.0897   13.0778 C   0  0  0  0  0  0  0  0  0  0  0  0
  -21.6768  -29.3796   22.5922 C   0  0  0  0  0  0  0  0  0  0  0  0
  -30.1437  -17.1816   22.8019 C   0  0  0  0  0  0  0  0  0  0  0  0
  -29.7802  -26.5621   13.3852 C   0  0  0  0  0  0  0  0  0  0  0  0
  -30.4384  -24.3178   14.3293 C   0  0  0  0  0  0  0  0  0  0  0  0
  -29.3936  -19.5963   22.9369 C   0  0  0  0  0  0  0  0  0  0  0  0
  -28.7408  -18.2408   20.9861 C   0  0  0  0  0  0  0  0  0  0  0  0
  -29.1462  -25.9201   15.7544 C   0  0  0  0  0  0  0  0  0  0  0  0
  -21.0377  -28.3555   21.6465 C   0  0  1  0  0  0  0  0  0  0  0  0
  -23.6684  -27.2111   19.1589 C   0  0  1  0  0  0  0  0  0  0  0  0
  -29.8290  -17.1990   21.2931 C   0  0  2  0  0  0  0  0  0  0  0  0
  -28.7612  -26.7216   14.5093 C   0  0  2  0  0  0  0  0  0  1  0  0
  -28.5528  -19.8576   16.6092 C   0  0  0  0  0  0  0  0  0  0  0  0
  -30.8488  -26.4203   21.7292 C   0  0  0  0  0  0  0  0  0  0  0  0
  -25.8134  -31.0228   19.6408 C   0  0  0  0  0  0  0  0  0  0  0  0
  -28.1404  -31.0392   20.5643 C   0  0  0  0  0  0  0  0  0  0  0  0
  -26.2097  -30.5365   22.0617 C   0  0  0  0  0  0  0  0  0  0  0  0
  -27.5019  -25.0550   22.9168 C   0  0  0  0  0  0  0  0  0  0  0  0
  -26.9405  -28.8144   20.3610 C   0  0  1  0  0  0  0  0  0  0  0  0
  -29.3767  -26.4915   22.1042 C   0  0  2  0  0  0  0  0  0  0  0  0
  -26.7687  -30.3350   20.6364 C   0  0  0  0  0  0  0  0  0  0  0  0
  -28.1624  -15.4625   20.7561 N   0  0  0  0  0  0  0  0  0  0  0  0
  -29.4576  -15.8202   20.7803 N   0  0  0  0  0  0  0  0  0  0  0  0
  -29.4647  -24.5278   15.4085 N   0  0  2  0  0  0  0  0  0  0  0  0
  -24.9227  -27.9824   19.1872 N   0  0  0  0  0  0  0  0  0  0  0  0
  -29.1517  -19.5595   21.4929 N   0  0  0  0  0  0  0  0  0  0  0  0
  -31.6398  -15.0494   20.2757 N   0  0  0  0  0  0  0  0  0  0  0  0
  -29.0114  -11.5595   19.1315 N   0  0  0  0  0  0  0  0  0  0  0  0
  -29.0912  -20.5702   19.3628 N   0  0  0  0  0  0  0  0  0  0  0  0
  -22.0588  -27.6393   20.9125 N   0  0  0  0  0  0  0  0  0  0  0  0
  -27.8187  -28.1317   21.3049 N   0  0  0  0  0  0  0  0  0  0  0  0
  -28.9262  -25.1275   22.5010 N   0  3  0  0  0  0  0  0  0  0  0  0
  -31.1790  -12.2992   19.2456 O   0  0  0  0  0  0  0  0  0  0  0  0
  -22.3649  -29.1773   19.1910 O   0  0  0  0  0  0  0  0  0  0  0  0
  -25.2341  -27.5903   21.4588 O   0  0  0  0  0  0  0  0  0  0  0  0
  -28.5233  -26.4746   19.8439 O   0  0  0  0  0  0  0  0  0  0  0  0
  -29.6622  -21.8005   21.2449 O   0  0  0  0  0  0  0  0  0  0  0  0
  -23.4614  -11.3392   19.5515 O   0  0  0  0  0  0  0  0  0  0  0  0
  -27.4752  -26.2872   14.0695 O   0  0  0  0  0  0  0  0  0  1  0  0
  -22.3550   -7.3041   23.1428 F   0  0  0  0  0  0  0  0  0  0  0  0
  -29.9613  -25.1001   18.0812 F   0  0  0  0  0  0  0  0  0  0  0  0
  -21.1713  -11.4060   21.0986 F   0  0  0  0  0  0  0  0  0  0  0  0
  1  2  1  0  0  0  0
  1  5  2  0  0  0  0
  2  6  2  0  0  0  0
  3  8  2  0  0  0  0
  3 17  1  0  0  0  0
  4  9  1  0  0  0  0
  4 17  2  0  0  0  0
  5 19  1  0  0  0  0
  6 21  1  0  0  0  0
  7 10  2  0  0  0  0
  7 20  1  0  0  0  0
  8 26  1  0  0  0  0
  9 26  2  0  0  0  0
 10 27  1  0  0  0  0
 11 12  2  0  0  0  0
 11 28  1  0  0  0  0
 12 29  1  0  0  0  0
 13 22  1  0  0  0  0
 13 27  2  0  0  0  0
 14 23  2  0  0  0  0
 14 24  1  0  0  0  0
 15 25  2  0  0  0  0
 15 30  1  0  0  0  0
 16 29  2  0  0  0  0
 16 31  1  0  0  0  0
 17 32  1  0  0  0  0
 18 32  1  0  0  0  0
 18 33  2  0  0  0  0
 18 34  1  0  0  0  0
 19 21  2  0  0  0  0
 19 39  1  0  0  0  0
 20 22  2  0  0  0  0
 20 40  1  0  0  0  0
 21 52  1  0  0  0  0
 22 41  1  0  0  0  0
 23 25  1  0  0  0  0
 23 56  1  0  0  0  0
 24 30  2  0  0  0  0
 24 67  1  0  0  0  0
 25 72  1  0  0  0  0
 26 81  1  0  0  0  0
 27 82  1  0  0  0  0
 28 31  2  0  0  0  0
 28 81  1  0  0  0  0
 29 83  1  0  0  0  0
 30 84  1  0  0  0  0
 31 85  1  0  0  0  0
 32 65  2  0  0  0  0
 33 66  1  0  0  0  0
 33 70  1  0  0  0  0
 34 71  1  0  0  0  0
 34 76  2  0  0  0  0
 35 53  1  0  0  0  0
 35 73  1  0  0  0  0
 35 77  2  0  0  0  0
 36 62  1  0  0  0  0
 36 68  1  0  0  0  0
 36 78  2  0  0  0  0
 37 63  1  0  0  0  0
 37 74  1  0  0  0  0
 37 79  2  0  0  0  0
 38 69  1  0  0  0  0
 38 72  1  0  0  0  0
 38 80  2  0  0  0  0
 39 42  1  0  0  0  0
 40 53  1  0  0  0  0
 41 68  1  0  0  0  0
 42 45  1  0  0  0  0
 43 46  1  0  0  0  0
 43 49  1  0  0  0  0
 44 47  1  0  0  0  0
 44 48  1  0  0  0  0
 45 52  1  0  0  0  0
 46 54  1  0  0  0  0
 47 55  1  0  0  0  0
 48 67  1  0  0  0  0
 49 69  1  0  0  0  0
 50 54  1  0  0  0  0
 50 69  1  0  0  0  0
 51 55  1  0  0  0  0
 51 67  1  0  0  0  0
 52 73  1  0  0  0  0
 53 68  1  0  0  0  0
 54 66  1  0  0  0  0
 55 82  1  0  0  0  0
 57 63  1  0  0  0  0
 58 64  1  0  0  0  0
 59 64  1  0  0  0  0
 60 64  1  0  0  0  0
 61 75  1  0  0  0  0
 62 64  1  0  0  0  0
 62 74  1  0  0  0  0
 63 75  1  0  0  0  0
 65 66  1  0  0  0  0
M  CHG  1  75   1
M  ISO  4  38 100  55 101  72 100  82 101
M  END
> <Batch ID>
0032

> <Smiles>
CNC(C)C(=O)NC(C(=O)N1Cc2cc([101O:1][101CH:1]3CCCN(c4cc(C)c([100NH:0][100C:0](=O)N5CCCC(n6nc(-c7ccc(Oc8ccc(F)cc8F)cc7)c(C(N)=O)c6N)C5)cc4F)C3)ccc2CC1C(=O)NC1CCCc2ccccc21)C(C)(C)C

> <Shape>
0.310

> <Color>
0.064

> <Negative vol penalty>
0.000

$$$$

  -OEChem-04042321423D

 87 96  0     1  0  0  0  0  0999 V2000
  -22.3283  -12.3142   19.9973 C   0  0  0  0  0  0  0  0  0  0  0  0
  -22.3250  -13.5424   20.6506 C   0  0  0  0  0  0  0  0  0  0  0  0
  -30.4663  -27.8167   22.2079 C   0  0  0  0  0  0  0  0  0  0  0  0
  -29.3252  -27.7074   24.3347 C   0  0  0  0  0  0  0  0  0  0  0  0
  -23.5284  -11.7737   19.5375 C   0  0  0  0  0  0  0  0  0  0  0  0
  -23.5221  -14.2303   20.8456 C   0  0  0  0  0  0  0  0  0  0  0  0
  -23.1259  -19.1627   19.7685 C   0  0  0  0  0  0  0  0  0  0  0  0
  -18.8257  -27.8694   21.7304 C   0  0  0  0  0  0  0  0  0  0  0  0
  -31.6774  -28.0233   22.8683 C   0  0  0  0  0  0  0  0  0  0  0  0
  -30.5363  -27.9140   24.9951 C   0  0  0  0  0  0  0  0  0  0  0  0
  -22.5123  -19.9751   20.7210 C   0  0  0  0  0  0  0  0  0  0  0  0
  -33.9689  -26.1568   24.5108 C   0  0  0  0  0  0  0  0  0  0  0  0
  -35.0763  -25.4280   24.0772 C   0  0  0  0  0  0  0  0  0  0  0  0
  -18.2853  -26.6208   21.4232 C   0  0  0  0  0  0  0  0  0  0  0  0
  -24.6806  -20.6963   21.4939 C   0  0  0  0  0  0  0  0  0  0  0  0
  -36.2339  -27.4875   23.5718 C   0  0  0  0  0  0  0  0  0  0  0  0
  -29.2901  -27.6588   22.9411 C   0  0  0  0  0  0  0  0  0  0  0  0
  -27.4703  -26.2117   21.8914 C   0  0  0  0  0  0  0  0  0  0  0  0
  -24.7396  -12.4599   19.7184 C   0  0  0  0  0  0  0  0  0  0  0  0
  -24.5240  -19.1026   19.6786 C   0  0  0  0  0  0  0  0  0  0  0  0
  -24.7398  -13.6979   20.3890 C   0  0  0  0  0  0  0  0  0  0  0  0
  -25.3095  -19.8843   20.5377 C   0  0  0  0  0  0  0  0  0  0  0  0
  -19.7319  -27.9974   22.7832 C   0  0  0  0  0  0  0  0  0  0  0  0
  -19.5571  -25.6279   23.2216 C   0  0  0  0  0  0  0  0  0  0  0  0
  -31.7124  -28.0719   24.2618 C   0  0  0  0  0  0  0  0  0  0  0  0
  -23.2897  -20.7399   21.5858 C   0  0  0  0  0  0  0  0  0  0  0  0
  -33.9940  -27.5511   24.4749 C   0  0  0  0  0  0  0  0  0  0  0  0
  -36.2088  -26.0933   23.6077 C   0  0  0  0  0  0  0  0  0  0  0  0
  -35.1265  -28.2164   24.0055 C   0  0  0  0  0  0  0  0  0  0  0  0
  -18.6510  -25.5000   22.1688 C   0  0  0  0  0  0  0  0  0  0  0  0
  -20.0975  -26.8766   23.5288 C   0  0  0  0  0  0  0  0  0  0  0  0
  -28.0387  -27.4459   22.2595 C   0  0  0  0  0  0  0  0  0  0  0  0
  -26.2893  -26.5475   21.2759 C   0  0  0  0  0  0  0  0  0  0  0  0
  -22.3320  -23.8148   24.5734 C   0  0  0  0  0  0  0  0  0  0  0  0
  -27.9657  -24.8807   22.0883 C   0  0  0  0  0  0  0  0  0  0  0  0
  -26.6981  -16.8110   20.0332 C   0  0  0  0  0  0  0  0  0  0  0  0
  -28.7326  -19.1217   19.0117 C   0  0  0  0  0  0  0  0  0  0  0  0
  -29.3963  -22.4513   18.6652 C   0  0  0  0  0  0  0  0  0  0  0  0
  -22.0041  -30.4231   21.6394 C   0  0  0  0  0  0  0  0  0  0  0  0
  -26.0178  -11.8135   19.2459 C   0  0  0  0  0  0  0  0  0  0  0  0
  -25.1701  -18.2416   18.6280 C   0  0  0  0  0  0  0  0  0  0  0  0
  -26.8140  -19.8709   20.4687 C   0  0  0  0  0  0  0  0  0  0  0  0
  -23.5477  -23.4142   23.7695 C   0  0  0  0  0  0  0  0  0  0  0  0
  -27.1947  -12.7819   19.1606 C   0  0  0  0  0  0  0  0  0  0  0  0
  -24.5185  -30.6329   19.1274 C   0  0  0  0  0  0  0  0  0  0  0  0
  -27.2776  -13.6338   20.4232 C   0  0  0  0  0  0  0  0  0  0  0  0
  -25.6297  -29.7178   19.6448 C   0  0  0  0  0  0  0  0  0  0  0  0
  -23.8287  -31.3820   20.2654 C   0  0  0  0  0  0  0  0  0  0  0  0
  -24.4294  -29.6093   21.8687 C   0  0  0  0  0  0  0  0  0  0  0  0
  -21.6499  -23.6810   22.3105 C   0  0  0  0  0  0  0  0  0  0  0  0
  -26.0147  -14.4860   20.5976 C   0  0  1  0  0  0  0  0  0  0  0  0
  -26.6093  -17.8652   18.9662 C   0  0  1  0  0  0  0  0  0  0  0  0
  -25.1172  -28.7904   20.7630 C   0  0  2  0  0  0  0  0  0  0  0  0
  -22.9617  -22.9300   22.4459 C   0  0  2  0  0  0  0  0  0  1  0  0
  -31.1558  -24.0325   17.8278 C   0  0  0  0  0  0  0  0  0  0  0  0
  -30.4080  -18.5725   21.5020 C   0  0  0  0  0  0  0  0  0  0  0  0
  -31.5722  -20.7550   21.1150 C   0  0  0  0  0  0  0  0  0  0  0  0
  -31.7333  -18.9384   19.4130 C   0  0  0  0  0  0  0  0  0  0  0  0
  -27.5604  -23.6136   16.6559 C   0  0  0  0  0  0  0  0  0  0  0  0
  -19.9475  -24.4184   24.0208 C   0  0  0  0  0  0  0  0  0  0  0  0
  -20.2845  -29.3553   23.0754 C   0  0  0  0  0  0  0  0  0  0  0  0
  -29.5558  -20.1945   19.6830 C   0  0  1  0  0  0  0  0  0  0  0  0
  -29.8915  -23.2618   17.4810 C   0  0  2  0  0  0  0  0  0  0  0  0
  -30.7890  -19.6141   20.4311 C   0  0  0  0  0  0  0  0  0  0  0  0
  -27.2811  -28.4880   21.9071 N   0  0  0  0  0  0  0  0  0  0  0  0
  -26.2246  -27.9094   21.3111 N   0  0  0  0  0  0  0  0  0  0  0  0
  -21.2736  -23.9494   23.6807 N   0  0  0  0  0  0  0  0  0  0  0  0
  -27.3988  -19.0084   19.4287 N   0  0  0  0  0  0  0  0  0  0  0  0
  -23.3649  -30.4452   21.2917 N   0  0  0  0  0  0  0  0  0  0  0  0
  -25.3101  -25.8077   20.7134 N   0  0  0  0  0  0  0  0  0  0  0  0
  -29.1959  -24.7151   22.7390 N   0  0  0  0  0  0  0  0  0  0  0  0
  -26.0522  -15.6318   19.7142 N   0  0  0  0  0  0  0  0  0  0  0  0
  -29.8885  -21.1635   18.6443 N   0  0  0  0  0  0  0  0  0  0  0  0
  -21.6478  -29.5012   22.6161 N   0  0  0  0  0  0  0  0  0  0  0  0
  -28.8504  -24.2367   17.0489 N   0  3  0  0  0  0  0  0  0  0  0  0
  -22.3344  -24.0177   25.7787 O   0  0  0  0  0  0  0  0  0  0  0  0
  -27.3438  -23.8690   21.6842 O   0  0  0  0  0  0  0  0  0  0  0  0
  -27.3087  -17.0492   21.0686 O   0  0  0  0  0  0  0  0  0  0  0  0
  -29.2519  -18.4152   18.1441 O   0  0  0  0  0  0  0  0  0  0  0  0
  -28.6507  -22.9154   19.5250 O   0  0  0  0  0  0  0  0  0  0  0  0
  -21.1678  -31.1659   21.1144 O   0  0  0  0  0  0  0  0  0  0  0  0
  -32.8941  -28.2732   24.9066 O   0  0  0  0  0  0  0  0  0  0  0  0
  -22.6933  -21.5332   22.5168 O   0  0  0  0  0  0  0  0  0  1  0  0
  -37.2727  -25.3933   23.1927 F   0  0  0  0  0  0  0  0  0  0  0  0
  -35.1569  -29.5556   23.9697 F   0  0  0  0  0  0  0  0  0  0  0  0
  -17.9572  -23.9740   21.7534 Cl  0  0  0  0  0  0  0  0  0  0  0  0
  -21.2235  -27.0425   24.8353 Cl  0  0  0  0  0  0  0  0  0  0  0  0
  1  2  1  0  0  0  0
  1  5  2  0  0  0  0
  2  6  2  0  0  0  0
  3  9  2  0  0  0  0
  3 17  1  0  0  0  0
  4 10  1  0  0  0  0
  4 17  2  0  0  0  0
  5 19  1  0  0  0  0
  6 21  1  0  0  0  0
  7 11  2  0  0  0  0
  7 20  1  0  0  0  0
  8 14  1  0  0  0  0
  8 23  2  0  0  0  0
  9 25  1  0  0  0  0
 10 25  2  0  0  0  0
 11 26  1  0  0  0  0
 12 13  2  0  0  0  0
 12 27  1  0  0  0  0
 13 28  1  0  0  0  0
 14 30  2  0  0  0  0
 15 22  1  0  0  0  0
 15 26  2  0  0  0  0
 16 28  2  0  0  0  0
 16 29  1  0  0  0  0
 17 32  1  0  0  0  0
 18 32  1  0  0  0  0
 18 33  2  0  0  0  0
 18 35  1  0  0  0  0
 19 21  2  0  0  0  0
 19 40  1  0  0  0  0
 20 22  2  0  0  0  0
 20 41  1  0  0  0  0
 21 51  1  0  0  0  0
 22 42  1  0  0  0  0
 23 31  1  0  0  0  0
 23 61  1  0  0  0  0
 24 30  1  0  0  0  0
 24 31  2  0  0  0  0
 24 60  1  0  0  0  0
 25 82  1  0  0  0  0
 26 83  1  0  0  0  0
 27 29  2  0  0  0  0
 27 82  1  0  0  0  0
 28 84  1  0  0  0  0
 29 85  1  0  0  0  0
 30 86  1  0  0  0  0
 31 87  1  0  0  0  0
 32 65  2  0  0  0  0
 33 66  1  0  0  0  0
 33 70  1  0  0  0  0
 34 43  1  0  0  0  0
 34 67  1  0  0  0  0
 34 76  2  0  0  0  0
 35 71  1  0  0  0  0
 35 77  2  0  0  0  0
 36 52  1  0  0  0  0
 36 72  1  0  0  0  0
 36 78  2  0  0  0  0
 37 62  1  0  0  0  0
 37 68  1  0  0  0  0
 37 79  2  0  0  0  0
 38 63  1  0  0  0  0
 38 73  1  0  0  0  0
 38 80  2  0  0  0  0
 39 69  1  0  0  0  0
 39 74  1  0  0  0  0
 39 81  2  0  0  0  0
 40 44  1  0  0  0  0
 41 52  1  0  0  0  0
 42 68  1  0  0  0  0
 43 54  1  0  0  0  0
 44 46  1  0  0  0  0
 45 47  1  0  0  0  0
 45 48  1  0  0  0  0
 46 51  1  0  0  0  0
 47 53  1  0  0  0  0
 48 69  1  0  0  0  0
 49 53  1  0  0  0  0
 49 69  1  0  0  0  0
 50 54  1  0  0  0  0
 50 67  1  0  0  0  0
 51 72  1  0  0  0  0
 52 68  1  0  0  0  0
 53 66  1  0  0  0  0
 54 83  1  0  0  0  0
 55 63  1  0  0  0  0
 56 64  1  0  0  0  0
 57 64  1  0  0  0  0
 58 64  1  0  0  0  0
 59 75  1  0  0  0  0
 60 67  1  0  0  0  0
 61 74  1  0  0  0  0
 62 64  1  0  0  0  0
 62 73  1  0  0  0  0
 63 75  1  0  0  0  0
 65 66  1  0  0  0  0
M  CHG  1  75   1
M  ISO  4  39 100  54 101  74 100  83 101
M  END
> <Batch ID>
0032

> <Smiles>
CNC(C)C(=O)NC(C(=O)N1Cc2cc([101O:1][101CH:1]3CC(=O)N(Cc4c(Cl)ccc(C[100NH:0][100C:0](=O)N5CCCC(n6nc(-c7ccc(Oc8ccc(F)cc8F)cc7)c(C(N)=O)c6N)C5)c4Cl)C3)ccc2CC1C(=O)NC1CCCc2ccccc21)C(C)(C)C

> <Shape>
0.212

> <Color>
0.062

> <Negative vol penalty>
0.000

$$$$

  -OEChem-04042321423D

 88 97  0     1  0  0  0  0  0999 V2000
  -23.9897   -7.6941   25.0453 C   0  0  0  0  0  0  0  0  0  0  0  0
  -25.2231   -8.2484   24.7182 C   0  0  0  0  0  0  0  0  0  0  0  0
  -26.1987  -31.0249   22.7777 C   0  0  0  0  0  0  0  0  0  0  0  0
  -26.8843  -29.8120   24.7515 C   0  0  0  0  0  0  0  0  0  0  0  0
  -22.9059   -7.8499   24.1822 C   0  0  0  0  0  0  0  0  0  0  0  0
  -25.3736   -8.9579   23.5273 C   0  0  0  0  0  0  0  0  0  0  0  0
  -28.9409  -13.8448   22.5791 C   0  0  0  0  0  0  0  0  0  0  0  0
  -25.9772  -32.1626   23.5537 C   0  0  0  0  0  0  0  0  0  0  0  0
  -26.6628  -30.9498   25.5275 C   0  0  0  0  0  0  0  0  0  0  0  0
  -30.2098  -13.9853   22.0188 C   0  0  0  0  0  0  0  0  0  0  0  0
  -27.8290  -34.6143   24.9653 C   0  0  0  0  0  0  0  0  0  0  0  0
  -28.3060  -35.8322   24.4809 C   0  0  0  0  0  0  0  0  0  0  0  0
  -29.2048  -14.5339   19.8955 C   0  0  0  0  0  0  0  0  0  0  0  0
  -31.7947  -20.6320   21.2509 C   0  0  0  0  0  0  0  0  0  0  0  0
  -29.3114  -19.8520   22.2546 C   0  0  0  0  0  0  0  0  0  0  0  0
  -26.0555  -36.7111   24.4749 C   0  0  0  0  0  0  0  0  0  0  0  0
  -26.6522  -29.8496   23.3766 C   0  0  0  0  0  0  0  0  0  0  0  0
  -27.7752  -28.5408   21.4968 C   0  0  0  0  0  0  0  0  0  0  0  0
  -23.0407   -8.5700   22.9847 C   0  0  0  0  0  0  0  0  0  0  0  0
  -27.7925  -14.0374   21.7977 C   0  0  0  0  0  0  0  0  0  0  0  0
  -24.2909   -9.1224   22.6467 C   0  0  0  0  0  0  0  0  0  0  0  0
  -27.9225  -14.3977   20.4489 C   0  0  0  0  0  0  0  0  0  0  0  0
  -31.6264  -19.3516   21.7778 C   0  0  0  0  0  0  0  0  0  0  0  0
  -29.4797  -21.1326   21.7277 C   0  0  0  0  0  0  0  0  0  0  0  0
  -26.2092  -32.1251   24.9286 C   0  0  0  0  0  0  0  0  0  0  0  0
  -30.3419  -14.3270   20.6761 C   0  0  0  0  0  0  0  0  0  0  0  0
  -26.4653  -34.4447   25.2044 C   0  0  0  0  0  0  0  0  0  0  0  0
  -27.4192  -36.8807   24.2358 C   0  0  0  0  0  0  0  0  0  0  0  0
  -30.7214  -21.5226   21.2260 C   0  0  0  0  0  0  0  0  0  0  0  0
  -25.5785  -35.4931   24.9593 C   0  0  0  0  0  0  0  0  0  0  0  0
  -30.3847  -18.9615   22.2796 C   0  0  0  0  0  0  0  0  0  0  0  0
  -26.8807  -28.6738   22.5757 C   0  0  0  0  0  0  0  0  0  0  0  0
  -27.6178  -27.2421   21.0784 C   0  0  0  0  0  0  0  0  0  0  0  0
  -34.4911  -17.4092   20.3691 C   0  0  0  0  0  0  0  0  0  0  0  0
  -35.3779  -18.1778   19.7191 C   0  0  0  0  0  0  0  0  0  0  0  0
  -28.6685  -29.5050   20.9241 C   0  0  0  0  0  0  0  0  0  0  0  0
  -25.3506  -12.2065   20.9095 C   0  0  0  0  0  0  0  0  0  0  0  0
  -24.2243  -14.9843   19.6694 C   0  0  0  0  0  0  0  0  0  0  0  0
  -25.5730  -17.7967   17.8560 C   0  0  0  0  0  0  0  0  0  0  0  0
  -27.0912  -21.8058   22.1612 C   0  0  0  0  0  0  0  0  0  0  0  0
  -21.8528   -8.6715   22.0610 C   0  0  0  0  0  0  0  0  0  0  0  0
  -26.4309  -13.9082   22.4238 C   0  0  0  0  0  0  0  0  0  0  0  0
  -26.7212  -14.6354   19.5721 C   0  0  0  0  0  0  0  0  0  0  0  0
  -34.8542  -16.0926   21.0004 C   0  0  0  0  0  0  0  0  0  0  0  0
  -21.9991   -9.7568   20.9976 C   0  0  0  0  0  0  0  0  0  0  0  0
  -33.8896  -15.0034   20.5474 C   0  0  0  0  0  0  0  0  0  0  0  0
  -24.1341  -23.7832   22.3119 C   0  0  0  0  0  0  0  0  0  0  0  0
  -23.3762   -9.6834   20.3458 C   0  0  0  0  0  0  0  0  0  0  0  0
  -24.6586  -25.2209   22.3052 C   0  0  0  0  0  0  0  0  0  0  0  0
  -25.0452  -22.8508   23.1083 C   0  0  0  0  0  0  0  0  0  0  0  0
  -26.9841  -24.3169   22.7077 C   0  0  0  0  0  0  0  0  0  0  0  0
  -32.1853  -16.7719   19.9707 C   0  0  0  0  0  0  0  0  0  0  0  0
  -24.4874   -9.9200   21.3758 C   0  0  1  0  0  0  0  0  0  0  0  0
  -25.3300  -13.6243   21.4065 C   0  0  1  0  0  0  0  0  0  0  0  0
  -26.1340  -25.2804   21.8635 C   0  0  2  0  0  0  0  0  0  0  0  0
  -32.4355  -15.4515   20.6947 C   0  0  1  0  0  0  0  0  0  1  0  0
  -35.0396  -19.4837   19.0873 C   0  0  0  0  0  0  0  0  0  0  0  0
  -24.8046  -20.1827   17.7389 C   0  0  0  0  0  0  0  0  0  0  0  0
  -22.7119  -14.0715   17.1815 C   0  0  0  0  0  0  0  0  0  0  0  0
  -23.2817  -16.2642   16.1159 C   0  0  0  0  0  0  0  0  0  0  0  0
  -21.8830  -16.2091   18.1807 C   0  0  0  0  0  0  0  0  0  0  0  0
  -28.2218  -18.8127   18.6989 C   0  0  0  0  0  0  0  0  0  0  0  0
  -32.8059  -18.4244   21.7853 C   0  0  0  0  0  0  0  0  0  0  0  0
  -24.3526  -15.6923   18.3423 C   0  0  1  0  0  0  0  0  0  0  0  0
  -25.7754  -19.2056   18.3835 C   0  0  2  0  0  0  0  0  0  0  0  0
  -23.0779  -15.5422   17.4649 C   0  0  0  0  0  0  0  0  0  0  0  0
  -26.2050  -27.5494   22.8269 N   0  0  0  0  0  0  0  0  0  0  0  0
  -26.6751  -26.6975   21.8999 N   0  0  0  0  0  0  0  0  0  0  0  0
  -25.4115  -14.4908   20.2289 N   0  0  0  0  0  0  0  0  0  0  0  0
  -26.4258  -22.9577   22.6317 N   0  0  0  0  0  0  0  0  0  0  0  0
  -28.1952  -26.5243   20.0916 N   0  0  0  0  0  0  0  0  0  0  0  0
  -29.9702  -29.5962   21.4355 N   0  0  0  0  0  0  0  0  0  0  0  0
  -28.3881  -22.0357   21.7034 N   0  0  0  0  0  0  0  0  0  0  0  0
  -24.6060  -11.3307   21.6763 N   0  0  0  0  0  0  0  0  0  0  0  0
  -24.7075  -17.0737   18.6493 N   0  0  0  0  0  0  0  0  0  0  0  0
  -33.1228  -17.8630   20.4268 N   0  3  1  0  0  0  0  0  0  0  0  0
  -27.1639  -19.6691   18.1036 N   0  3  0  0  0  0  0  0  0  0  0  0
  -28.3175  -30.2745   19.9977 O   0  0  0  0  0  0  0  0  0  0  0  0
  -25.9933  -11.9280   19.9039 O   0  0  0  0  0  0  0  0  0  0  0  0
  -23.1128  -14.8794   20.1939 O   0  0  0  0  0  0  0  0  0  0  0  0
  -26.1245  -17.3804   16.8395 O   0  0  0  0  0  0  0  0  0  0  0  0
  -26.5406  -20.7020   22.1390 O   0  0  0  0  0  0  0  0  0  0  0  0
  -25.9934  -33.2351   25.6860 O   0  0  0  0  0  0  0  0  0  0  0  0
  -31.5793  -14.4642   20.1265 O   0  0  0  0  0  0  0  0  0  1  0  0
  -27.8776  -38.0508   23.7721 F   0  0  0  0  0  0  0  0  0  0  0  0
  -30.8944  -22.7510   20.7174 F   0  0  0  0  0  0  0  0  0  0  0  0
  -24.2675  -35.3365   25.1882 F   0  0  0  0  0  0  0  0  0  0  0  0
  -30.1402  -17.3854   22.9397 Cl  0  0  0  0  0  0  0  0  0  0  0  0
  1  2  1  0  0  0  0
  1  5  2  0  0  0  0
  2  6  2  0  0  0  0
  3  8  2  0  0  0  0
  3 17  1  0  0  0  0
  4  9  1  0  0  0  0
  4 17  2  0  0  0  0
  5 19  1  0  0  0  0
  6 21  1  0  0  0  0
  7 10  2  0  0  0  0
  7 20  1  0  0  0  0
  8 25  1  0  0  0  0
  9 25  2  0  0  0  0
 10 26  1  0  0  0  0
 11 12  2  0  0  0  0
 11 27  1  0  0  0  0
 12 28  1  0  0  0  0
 13 22  1  0  0  0  0
 13 26  2  0  0  0  0
 14 23  1  0  0  0  0
 14 29  2  0  0  0  0
 15 24  2  0  0  0  0
 15 31  1  0  0  0  0
 16 28  2  0  0  0  0
 16 30  1  0  0  0  0
 17 32  1  0  0  0  0
 18 32  1  0  0  0  0
 18 33  2  0  0  0  0
 18 36  1  0  0  0  0
 19 21  2  0  0  0  0
 19 41  1  0  0  0  0
 20 22  2  0  0  0  0
 20 42  1  0  0  0  0
 21 53  1  0  0  0  0
 22 43  1  0  0  0  0
 23 31  2  0  0  0  0
 23 63  1  0  0  0  0
 24 29  1  0  0  0  0
 24 73  1  0  0  0  0
 25 83  1  0  0  0  0
 26 84  1  0  0  0  0
 27 30  2  0  0  0  0
 27 83  1  0  0  0  0
 28 85  1  0  0  0  0
 29 86  1  0  0  0  0
 30 87  1  0  0  0  0
 31 88  1  0  0  0  0
 32 67  2  0  0  0  0
 33 68  1  0  0  0  0
 33 71  1  0  0  0  0
 34 35  2  0  0  0  0
 34 44  1  0  0  0  0
 34 76  1  0  0  0  0
 35 57  1  0  0  0  0
 36 72  1  0  0  0  0
 36 78  2  0  0  0  0
 37 54  1  0  0  0  0
 37 74  1  0  0  0  0
 37 79  2  0  0  0  0
 38 64  1  0  0  0  0
 38 69  1  0  0  0  0
 38 80  2  0  0  0  0
 39 65  1  0  0  0  0
 39 75  1  0  0  0  0
 39 81  2  0  0  0  0
 40 70  1  0  0  0  0
 40 73  1  0  0  0  0
 40 82  2  0  0  0  0
 41 45  1  0  0  0  0
 42 54  1  0  0  0  0
 43 69  1  0  0  0  0
 44 46  1  0  0  0  0
 45 48  1  0  0  0  0
 46 56  1  0  0  0  0
 47 49  1  0  0  0  0
 47 50  1  0  0  0  0
 48 53  1  0  0  0  0
 49 55  1  0  0  0  0
 50 70  1  0  0  0  0
 51 55  1  0  0  0  0
 51 70  1  0  0  0  0
 52 56  1  0  0  0  0
 52 76  1  0  0  0  0
 53 74  1  0  0  0  0
 54 69  1  0  0  0  0
 55 68  1  0  0  0  0
 56 84  1  0  0  0  0
 58 65  1  0  0  0  0
 59 66  1  0  0  0  0
 60 66  1  0  0  0  0
 61 66  1  0  0  0  0
 62 77  1  0  0  0  0
 63 76  1  0  0  0  0
 64 66  1  0  0  0  0
 64 75  1  0  0  0  0
 65 77  1  0  0  0  0
 67 68  1  0  0  0  0
M  CHG  2  76   1  77   1
M  ISO  4  40 100  56 101  73 100  84 101
M  END
> <Batch ID>
0032

> <Smiles>
CC=C1CC[101CH:1]([101O:1]c2ccc3c(c2)CN(C(=O)C(NC(=O)C(C)NC)C(C)(C)C)C(C(=O)NC2CCCc4ccccc42)C3)CN1Cc1cc(F)c([100NH:0][100C:0](=O)N2CCCC(n3nc(-c4ccc(Oc5ccc(F)cc5F)cc4)c(C(N)=O)c3N)C2)cc1Cl

> <Shape>
0.242

> <Color>
0.067

> <Negative vol penalty>
0.000

$$$$

  -OEChem-04042321423D

 90100  0     1  0  0  0  0  0999 V2000
  -27.0703  -30.6343   31.7712 C   0  0  0  0  0  0  0  0  0  0  0  0
  -27.0667  -29.6310   30.8074 C   0  0  0  0  0  0  0  0  0  0  0  0
  -22.6458  -10.2119   20.2579 C   0  0  0  0  0  0  0  0  0  0  0  0
  -24.2525   -9.5421   21.9333 C   0  0  0  0  0  0  0  0  0  0  0  0
  -28.2388  -31.3512   32.0251 C   0  0  0  0  0  0  0  0  0  0  0  0
  -28.2315  -29.3448   30.0962 C   0  0  0  0  0  0  0  0  0  0  0  0
  -28.8796  -18.2544   24.9294 C   0  0  0  0  0  0  0  0  0  0  0  0
  -31.1457  -22.7588   30.2485 C   0  0  0  0  0  0  0  0  0  0  0  0
  -29.8322  -18.0957   25.9342 C   0  0  0  0  0  0  0  0  0  0  0  0
  -21.9013   -9.0599   20.5112 C   0  0  0  0  0  0  0  0  0  0  0  0
  -23.5080   -8.3900   22.1867 C   0  0  0  0  0  0  0  0  0  0  0  0
  -31.6468  -21.4709   30.0578 C   0  0  0  0  0  0  0  0  0  0  0  0
  -23.0519   -5.3560   20.7662 C   0  0  0  0  0  0  0  0  0  0  0  0
  -23.7429   -4.1497   20.8789 C   0  0  0  0  0  0  0  0  0  0  0  0
  -33.4349  -22.3573   28.6922 C   0  0  0  0  0  0  0  0  0  0  0  0
  -22.9143   -3.8856   23.1329 C   0  0  0  0  0  0  0  0  0  0  0  0
  -23.8214  -10.4530   20.9689 C   0  0  0  0  0  0  0  0  0  0  0  0
  -24.1648  -12.9776   20.8412 C   0  0  0  0  0  0  0  0  0  0  0  0
  -29.4210  -31.0672   31.3234 C   0  0  0  0  0  0  0  0  0  0  0  0
  -29.1513  -17.8841   23.5975 C   0  0  0  0  0  0  0  0  0  0  0  0
  -31.7970  -23.8537   29.6737 C   0  0  0  0  0  0  0  0  0  0  0  0
  -29.4166  -30.0595   30.3400 C   0  0  0  0  0  0  0  0  0  0  0  0
  -32.9448  -23.6509   28.8901 C   0  0  0  0  0  0  0  0  0  0  0  0
  -30.4122  -17.3392   23.2822 C   0  0  0  0  0  0  0  0  0  0  0  0
  -31.0735  -17.5573   25.6268 C   0  0  0  0  0  0  0  0  0  0  0  0
  -31.3588  -17.1809   24.3152 C   0  0  0  0  0  0  0  0  0  0  0  0
  -22.3324   -8.1490   21.4756 C   0  0  0  0  0  0  0  0  0  0  0  0
  -32.7884  -21.2706   29.2814 C   0  0  0  0  0  0  0  0  0  0  0  0
  -22.2922   -5.8273   21.8369 C   0  0  0  0  0  0  0  0  0  0  0  0
  -23.6741   -3.4144   22.0622 C   0  0  0  0  0  0  0  0  0  0  0  0
  -22.2234   -5.0921   23.0203 C   0  0  0  0  0  0  0  0  0  0  0  0
  -24.5911  -11.6426   20.7073 C   0  0  0  0  0  0  0  0  0  0  0  0
  -25.2573  -13.7253   20.4752 C   0  0  0  0  0  0  0  0  0  0  0  0
  -34.2057  -18.2117   27.6519 C   0  0  0  0  0  0  0  0  0  0  0  0
  -34.9662  -17.3204   28.2939 C   0  0  0  0  0  0  0  0  0  0  0  0
  -22.8948  -13.4955   21.2590 C   0  0  0  0  0  0  0  0  0  0  0  0
  -31.9010  -27.5739   29.1990 C   0  0  0  0  0  0  0  0  0  0  0  0
  -34.7966  -26.6461   29.6052 C   0  0  0  0  0  0  0  0  0  0  0  0
  -37.7874  -25.2764   30.5086 C   0  0  0  0  0  0  0  0  0  0  0  0
  -30.7418  -14.7414   20.6585 C   0  0  0  0  0  0  0  0  0  0  0  0
  -30.6471  -31.9010   31.5993 C   0  0  0  0  0  0  0  0  0  0  0  0
  -28.0552  -18.0675   22.5760 C   0  0  0  0  0  0  0  0  0  0  0  0
  -31.2574  -25.2524   29.8017 C   0  0  0  0  0  0  0  0  0  0  0  0
  -33.5926  -24.8549   28.2627 C   0  0  0  0  0  0  0  0  0  0  0  0
  -31.9368  -31.2827   31.0659 C   0  0  0  0  0  0  0  0  0  0  0  0
  -28.4264  -19.0047   21.4312 C   0  0  0  0  0  0  0  0  0  0  0  0
  -29.2915  -18.3504   20.3600 C   0  0  0  0  0  0  0  0  0  0  0  0
  -29.6018  -12.3504   18.2794 C   0  0  0  0  0  0  0  0  0  0  0  0
  -31.7422  -30.7937   29.6342 C   0  0  0  0  0  0  0  0  0  0  0  0
  -30.7013  -17.9958   20.8245 C   0  0  0  0  0  0  0  0  0  0  0  0
  -28.1643  -12.0589   18.7137 C   0  0  0  0  0  0  0  0  0  0  0  0
  -30.5195  -12.5742   19.4793 C   0  0  0  0  0  0  0  0  0  0  0  0
  -28.6187  -13.3107   20.8643 C   0  0  0  0  0  0  0  0  0  0  0  0
  -33.1034  -19.6037   26.6003 C   0  0  0  0  0  0  0  0  0  0  0  0
  -30.6666  -29.7029   29.5652 C   0  0  1  0  0  0  0  0  0  0  0  0
  -30.8094  -16.8956   21.8889 C   0  0  2  0  0  0  0  0  0  0  0  0
  -33.9737  -19.6914   27.8773 C   0  0  1  0  0  0  0  0  0  1  0  0
  -32.3628  -26.3205   29.8826 C   0  0  1  0  0  0  0  0  0  0  0  0
  -27.6440  -13.1332   19.6876 C   0  0  2  0  0  0  0  0  0  0  0  0
  -32.7165  -16.5957   24.0548 C   0  0  0  0  0  0  0  0  0  0  0  0
  -35.0657  -15.8798   27.9162 C   0  0  0  0  0  0  0  0  0  0  0  0
  -40.1920  -25.8787   30.8994 C   0  0  0  0  0  0  0  0  0  0  0  0
  -35.2449  -26.7964   26.5919 C   0  0  0  0  0  0  0  0  0  0  0  0
  -37.6879  -26.4414   27.0091 C   0  0  0  0  0  0  0  0  0  0  0  0
  -36.5487  -28.4627   27.9253 C   0  0  0  0  0  0  0  0  0  0  0  0
  -37.6616  -24.4233   33.3397 C   0  0  0  0  0  0  0  0  0  0  0  0
  -32.0807  -17.3921   26.7264 C   0  0  0  0  0  0  0  0  0  0  0  0
  -36.0852  -26.2029   28.9599 C   0  0  1  0  0  0  0  0  0  0  0  0
  -38.8217  -25.7023   31.5349 C   0  0  2  0  0  0  0  0  0  0  0  0
  -36.3725  -26.9570   27.6310 C   0  0  0  0  0  0  0  0  0  0  0  0
  -25.8558  -11.5447   20.2889 N   0  0  0  0  0  0  0  0  0  0  0  0
  -26.2335  -12.8277   20.1565 N   0  0  0  0  0  0  0  0  0  0  0  0
  -33.6333  -25.9640   29.2286 N   0  0  0  0  0  0  0  0  0  0  0  0
  -29.9699  -13.6058   20.3623 N   0  0  0  0  0  0  0  0  0  0  0  0
  -25.4685  -15.0564   20.3981 N   0  0  0  0  0  0  0  0  0  0  0  0
  -21.8824  -12.5880   21.5994 N   0  0  0  0  0  0  0  0  0  0  0  0
  -31.2006  -28.4371   30.0199 N   0  0  0  0  0  0  0  0  0  0  0  0
  -37.1238  -26.3596   29.9724 N   0  0  0  0  0  0  0  0  0  0  0  0
  -30.1435  -15.6731   21.4980 N   0  0  0  0  0  0  0  0  0  0  0  0
  -33.3324  -18.1521   26.4873 N   0  3  2  0  0  0  0  0  0  0  0  0
  -38.9321  -24.6802   32.6139 N   0  3  0  0  0  0  0  0  0  0  0  0
  -22.6593  -14.7264   21.3127 O   0  0  0  0  0  0  0  0  0  0  0  0
  -32.1617  -27.7470   28.0142 O   0  0  0  0  0  0  0  0  0  0  0  0
  -34.8172  -27.5754   30.4172 O   0  0  0  0  0  0  0  0  0  0  0  0
  -37.5907  -24.1006   30.2095 O   0  0  0  0  0  0  0  0  0  0  0  0
  -31.8777  -14.9147   20.2040 O   0  0  0  0  0  0  0  0  0  0  0  0
  -21.6061   -7.0248   21.7232 O   0  0  0  0  0  0  0  0  0  0  0  0
  -33.2749  -20.0112   29.1031 O   0  0  0  0  0  0  0  0  0  1  0  0
  -24.3365   -2.2552   22.1697 F   0  0  0  0  0  0  0  0  0  0  0  0
  -21.4942   -5.5391   24.0519 F   0  0  0  0  0  0  0  0  0  0  0  0
  1  2  1  0  0  0  0
  1  5  2  0  0  0  0
  2  6  2  0  0  0  0
  3 10  2  0  0  0  0
  3 17  1  0  0  0  0
  4 11  1  0  0  0  0
  4 17  2  0  0  0  0
  5 19  1  0  0  0  0
  6 22  1  0  0  0  0
  7  9  2  0  0  0  0
  7 20  1  0  0  0  0
  8 12  2  0  0  0  0
  8 21  1  0  0  0  0
  9 25  1  0  0  0  0
 10 27  1  0  0  0  0
 11 27  2  0  0  0  0
 12 28  1  0  0  0  0
 13 14  2  0  0  0  0
 13 29  1  0  0  0  0
 14 30  1  0  0  0  0
 15 23  1  0  0  0  0
 15 28  2  0  0  0  0
 16 30  2  0  0  0  0
 16 31  1  0  0  0  0
 17 32  1  0  0  0  0
 18 32  1  0  0  0  0
 18 33  2  0  0  0  0
 18 36  1  0  0  0  0
 19 22  2  0  0  0  0
 19 41  1  0  0  0  0
 20 24  2  0  0  0  0
 20 42  1  0  0  0  0
 21 23  2  0  0  0  0
 21 43  1  0  0  0  0
 22 55  1  0  0  0  0
 23 44  1  0  0  0  0
 24 26  1  0  0  0  0
 24 56  1  0  0  0  0
 25 26  2  0  0  0  0
 25 67  1  0  0  0  0
 26 60  1  0  0  0  0
 27 87  1  0  0  0  0
 28 88  1  0  0  0  0
 29 31  2  0  0  0  0
 29 87  1  0  0  0  0
 30 89  1  0  0  0  0
 31 90  1  0  0  0  0
 32 71  2  0  0  0  0
 33 72  1  0  0  0  0
 33 75  1  0  0  0  0
 34 35  2  0  0  0  0
 34 57  1  0  0  0  0
 34 80  1  0  0  0  0
 35 61  1  0  0  0  0
 36 76  1  0  0  0  0
 36 82  2  0  0  0  0
 37 58  1  0  0  0  0
 37 77  1  0  0  0  0
 37 83  2  0  0  0  0
 38 68  1  0  0  0  0
 38 73  1  0  0  0  0
 38 84  2  0  0  0  0
 39 69  1  0  0  0  0
 39 78  1  0  0  0  0
 39 85  2  0  0  0  0
 40 74  1  0  0  0  0
 40 79  1  0  0  0  0
 40 86  2  0  0  0  0
 41 45  1  0  0  0  0
 42 46  1  0  0  0  0
 43 58  1  0  0  0  0
 44 73  1  0  0  0  0
 45 49  1  0  0  0  0
 46 47  1  0  0  0  0
 47 50  1  0  0  0  0
 48 51  1  0  0  0  0
 48 52  1  0  0  0  0
 49 55  1  0  0  0  0
 50 56  1  0  0  0  0
 51 59  1  0  0  0  0
 52 74  1  0  0  0  0
 53 59  1  0  0  0  0
 53 74  1  0  0  0  0
 54 57  1  0  0  0  0
 54 80  1  0  0  0  0
 55 77  1  0  0  0  0
 56 79  1  0  0  0  0
 57 88  1  0  0  0  0
 58 73  1  0  0  0  0
 59 72  1  0  0  0  0
 62 69  1  0  0  0  0
 63 70  1  0  0  0  0
 64 70  1  0  0  0  0
 65 70  1  0  0  0  0
 66 81  1  0  0  0  0
 67 80  1  0  0  0  0
 68 70  1  0  0  0  0
 68 78  1  0  0  0  0
 69 81  1  0  0  0  0
 71 72  1  0  0  0  0
M  CHG  2  80   1  81   1
M  ISO  4  40 100  57 101  79 100  88 101
M  END
> <Batch ID>
0032

> <Smiles>
CC=C1N(Cc2ccc3c(c2C)C([100NH:0][100C:0](=O)N2CCCC(n4nc(-c5ccc(Oc6ccc(F)cc6F)cc5)c(C(N)=O)c4N)C2)CCCC3)C[101CH:1]1[101O:1]c1ccc2c(c1)CN(C(=O)C(NC(=O)C(C)NC)C(C)(C)C)C(C(=O)NC1CCCc3ccccc31)C2

> <Shape>
0.183

> <Color>
0.180

> <Negative vol penalty>
0.000

$$$$

  -OEChem-04042321423D

 85 93  0     1  0  0  0  0  0999 V2000
  -25.5855   -8.1750   26.1929 C   0  0  0  0  0  0  0  0  0  0  0  0
  -26.6027   -8.9691   25.6730 C   0  0  0  0  0  0  0  0  0  0  0  0
  -23.1223  -30.8862   21.2607 C   0  0  0  0  0  0  0  0  0  0  0  0
  -22.7741  -28.8546   22.5211 C   0  0  0  0  0  0  0  0  0  0  0  0
  -24.4356   -7.9366   25.4413 C   0  0  0  0  0  0  0  0  0  0  0  0
  -26.4710   -9.5243   24.4006 C   0  0  0  0  0  0  0  0  0  0  0  0
  -28.5558  -14.9691   22.5262 C   0  0  0  0  0  0  0  0  0  0  0  0
  -21.7513  -30.9709   21.0185 C   0  0  0  0  0  0  0  0  0  0  0  0
  -21.4030  -28.9393   22.2789 C   0  0  0  0  0  0  0  0  0  0  0  0
  -29.6971  -15.3434   21.8184 C   0  0  0  0  0  0  0  0  0  0  0  0
  -18.7643  -30.6710   23.4867 C   0  0  0  0  0  0  0  0  0  0  0  0
  -17.9029  -30.4463   24.5606 C   0  0  0  0  0  0  0  0  0  0  0  0
  -29.3779  -22.4673   20.2026 C   0  0  0  0  0  0  0  0  0  0  0  0
  -28.4240  -15.3293   19.7695 C   0  0  0  0  0  0  0  0  0  0  0  0
  -28.0771  -22.6917   22.2261 C   0  0  0  0  0  0  0  0  0  0  0  0
  -16.9076  -28.5919   23.3742 C   0  0  0  0  0  0  0  0  0  0  0  0
  -23.6337  -29.8280   22.0120 C   0  0  0  0  0  0  0  0  0  0  0  0
  -29.2524  -21.0801   20.2757 C   0  0  0  0  0  0  0  0  0  0  0  0
  -25.7577  -30.2910   23.3469 C   0  0  0  0  0  0  0  0  0  0  0  0
  -24.2856   -8.4971   24.1631 C   0  0  0  0  0  0  0  0  0  0  0  0
  -27.3404  -14.7611   21.8582 C   0  0  0  0  0  0  0  0  0  0  0  0
  -25.3186   -9.2921   23.6308 C   0  0  0  0  0  0  0  0  0  0  0  0
  -27.2680  -14.9548   20.4714 C   0  0  0  0  0  0  0  0  0  0  0  0
  -27.9516  -21.3044   22.2992 C   0  0  0  0  0  0  0  0  0  0  0  0
  -28.5393  -20.4986   21.3240 C   0  0  0  0  0  0  0  0  0  0  0  0
  -28.7903  -23.2732   21.1778 C   0  0  0  0  0  0  0  0  0  0  0  0
  -20.8916  -29.9975   21.5276 C   0  0  0  0  0  0  0  0  0  0  0  0
  -29.6321  -15.5208   20.4395 C   0  0  0  0  0  0  0  0  0  0  0  0
  -18.6973  -29.8562   22.3565 C   0  0  0  0  0  0  0  0  0  0  0  0
  -16.9746  -29.4068   24.5043 C   0  0  0  0  0  0  0  0  0  0  0  0
  -17.7690  -28.8166   22.3003 C   0  0  0  0  0  0  0  0  0  0  0  0
  -25.0500  -29.7396   22.2621 C   0  0  0  0  0  0  0  0  0  0  0  0
  -27.0637  -29.9284   23.1248 C   0  0  0  0  0  0  0  0  0  0  0  0
  -29.8821  -20.2470   19.2316 C   0  0  0  0  0  0  0  0  0  0  0  0
  -25.2775  -31.0621   24.4562 C   0  0  0  0  0  0  0  0  0  0  0  0
  -25.4002  -12.2761   21.4531 C   0  0  0  0  0  0  0  0  0  0  0  0
  -23.4964  -14.4896   20.0397 C   0  0  0  0  0  0  0  0  0  0  0  0
  -23.2407  -17.4902   18.4341 C   0  0  0  0  0  0  0  0  0  0  0  0
  -29.5955  -25.4188   20.1317 C   0  0  0  0  0  0  0  0  0  0  0  0
  -23.0450   -8.1725   23.3691 C   0  0  0  0  0  0  0  0  0  0  0  0
  -26.1120  -14.3835   22.6398 C   0  0  0  0  0  0  0  0  0  0  0  0
  -25.9826  -14.7638   19.7100 C   0  0  0  0  0  0  0  0  0  0  0  0
  -22.8210   -9.1044   22.1810 C   0  0  0  0  0  0  0  0  0  0  0  0
  -30.1127  -28.8978   19.5785 C   0  0  0  0  0  0  0  0  0  0  0  0
  -24.1153   -9.2881   21.3951 C   0  0  0  0  0  0  0  0  0  0  0  0
  -28.9409  -29.5590   20.3078 C   0  0  0  0  0  0  0  0  0  0  0  0
  -29.7004  -27.5840   18.9169 C   0  0  0  0  0  0  0  0  0  0  0  0
  -27.8691  -27.2817   20.5368 C   0  0  0  0  0  0  0  0  0  0  0  0
  -25.2019   -9.9323   22.2645 C   0  0  1  0  0  0  0  0  0  0  0  0
  -25.0486  -13.6982   21.7872 C   0  0  1  0  0  0  0  0  0  0  0  0
  -28.2513  -28.5757   21.2739 C   0  0  2  0  0  0  0  0  0  0  0  0
  -27.1842  -20.7063   23.4327 C   0  0  0  0  0  0  0  0  0  0  0  0
  -28.4032  -19.0108   21.4036 C   0  0  0  0  0  0  0  0  0  0  0  0
  -21.5588  -19.0158   17.3659 C   0  0  0  0  0  0  0  0  0  0  0  0
  -23.3775  -12.6515   17.6072 C   0  0  0  0  0  0  0  0  0  0  0  0
  -22.5194  -14.5882   16.2727 C   0  0  0  0  0  0  0  0  0  0  0  0
  -21.2018  -13.7282   18.2084 C   0  0  0  0  0  0  0  0  0  0  0  0
  -23.8417  -19.6755   20.3373 C   0  0  0  0  0  0  0  0  0  0  0  0
  -32.4399  -17.5533   19.4243 C   0  0  0  0  0  0  0  0  0  0  0  0
  -31.5030  -18.4742   18.6605 C   0  0  0  0  0  0  0  0  0  0  0  0
  -31.7085  -16.6802   20.4362 C   0  0  0  0  0  0  0  0  0  1  0  0
  -23.3332  -15.0193   18.6355 C   0  0  1  0  0  0  0  0  0  0  0  0
  -22.3068  -18.6684   18.6437 C   0  0  2  0  0  0  0  0  0  0  0  0
  -22.6328  -13.9986   17.6947 C   0  0  0  0  0  0  0  0  0  0  0  0
  -25.8408  -29.0771   21.4137 N   0  0  0  0  0  0  0  0  0  0  0  0
  -27.0591  -29.2100   21.9654 N   0  0  0  0  0  0  0  0  0  0  0  0
  -24.8105  -14.3886   20.5180 N   0  0  0  0  0  0  0  0  0  0  0  0
  -29.0580  -26.7013   19.8932 N   0  0  0  0  0  0  0  0  0  0  0  0
  -28.2041  -30.1571   23.8100 N   0  0  0  0  0  0  0  0  0  0  0  0
  -29.4961  -20.4254   17.9682 N   0  0  0  0  0  0  0  0  0  0  0  0
  -23.9066  -31.3440   24.5304 N   0  0  0  0  0  0  0  0  0  0  0  0
  -28.9201  -24.6823   21.1043 N   0  0  0  0  0  0  0  0  0  0  0  0
  -24.9710  -11.3555   22.3900 N   0  0  0  0  0  0  0  0  0  0  0  0
  -22.6355  -16.2946   18.7588 N   0  0  0  0  0  0  0  0  0  0  0  0
  -30.8073  -19.3521   19.6018 N   0  3  0  0  0  0  0  0  0  0  0  0
  -23.0761  -19.8683   19.0789 N   0  3  0  0  0  0  0  0  0  0  0  0
  -26.0439  -31.5024   25.3464 O   0  0  0  0  0  0  0  0  0  0  0  0
  -26.0141  -12.0319   20.4210 O   0  0  0  0  0  0  0  0  0  0  0  0
  -22.4943  -14.1837   20.6909 O   0  0  0  0  0  0  0  0  0  0  0  0
  -24.3909  -17.6174   18.0200 O   0  0  0  0  0  0  0  0  0  0  0  0
  -30.5987  -25.0148   19.5379 O   0  0  0  0  0  0  0  0  0  0  0  0
  -19.5537  -30.0800   21.2916 O   0  0  0  0  0  0  0  0  0  0  0  0
  -30.7448  -15.8855   19.7462 O   0  0  0  0  0  0  0  0  0  1  0  0
  -16.1485  -29.1901   25.5362 F   0  0  0  0  0  0  0  0  0  0  0  0
  -17.7008  -28.0297   21.2177 F   0  0  0  0  0  0  0  0  0  0  0  0
  1  2  1  0  0  0  0
  1  5  2  0  0  0  0
  2  6  2  0  0  0  0
  3  8  2  0  0  0  0
  3 17  1  0  0  0  0
  4  9  1  0  0  0  0
  4 17  2  0  0  0  0
  5 20  1  0  0  0  0
  6 22  1  0  0  0  0
  7 10  2  0  0  0  0
  7 21  1  0  0  0  0
  8 27  1  0  0  0  0
  9 27  2  0  0  0  0
 10 28  1  0  0  0  0
 11 12  2  0  0  0  0
 11 29  1  0  0  0  0
 12 30  1  0  0  0  0
 13 18  1  0  0  0  0
 13 26  2  0  0  0  0
 14 23  1  0  0  0  0
 14 28  2  0  0  0  0
 15 24  2  0  0  0  0
 15 26  1  0  0  0  0
 16 30  2  0  0  0  0
 16 31  1  0  0  0  0
 17 32  1  0  0  0  0
 18 25  2  0  0  0  0
 18 34  1  0  0  0  0
 19 32  1  0  0  0  0
 19 33  2  0  0  0  0
 19 35  1  0  0  0  0
 20 22  2  0  0  0  0
 20 40  1  0  0  0  0
 21 23  2  0  0  0  0
 21 41  1  0  0  0  0
 22 49  1  0  0  0  0
 23 42  1  0  0  0  0
 24 25  1  0  0  0  0
 24 52  1  0  0  0  0
 25 53  1  0  0  0  0
 26 72  1  0  0  0  0
 27 82  1  0  0  0  0
 28 83  1  0  0  0  0
 29 31  2  0  0  0  0
 29 82  1  0  0  0  0
 30 84  1  0  0  0  0
 31 85  1  0  0  0  0
 32 65  2  0  0  0  0
 33 66  1  0  0  0  0
 33 69  1  0  0  0  0
 34 70  1  0  0  0  0
 34 75  2  0  0  0  0
 35 71  1  0  0  0  0
 35 77  2  0  0  0  0
 36 50  1  0  0  0  0
 36 73  1  0  0  0  0
 36 78  2  0  0  0  0
 37 62  1  0  0  0  0
 37 67  1  0  0  0  0
 37 79  2  0  0  0  0
 38 63  1  0  0  0  0
 38 74  1  0  0  0  0
 38 80  2  0  0  0  0
 39 68  1  0  0  0  0
 39 72  1  0  0  0  0
 39 81  2  0  0  0  0
 40 43  1  0  0  0  0
 41 50  1  0  0  0  0
 42 67  1  0  0  0  0
 43 45  1  0  0  0  0
 44 46  1  0  0  0  0
 44 47  1  0  0  0  0
 45 49  1  0  0  0  0
 46 51  1  0  0  0  0
 47 68  1  0  0  0  0
 48 51  1  0  0  0  0
 48 68  1  0  0  0  0
 49 73  1  0  0  0  0
 50 67  1  0  0  0  0
 51 66  1  0  0  0  0
 54 63  1  0  0  0  0
 55 64  1  0  0  0  0
 56 64  1  0  0  0  0
 57 64  1  0  0  0  0
 58 76  1  0  0  0  0
 59 60  1  0  0  0  0
 59 61  1  0  0  0  0
 60 75  1  0  0  0  0
 61 83  1  0  0  0  0
 62 64  1  0  0  0  0
 62 74  1  0  0  0  0
 63 76  1  0  0  0  0
 65 66  1  0  0  0  0
M  CHG  2  75   1  76   1
M  ISO  4  39 100  61 101  72 100  83 101
M  END
> <Batch ID>
0032

> <Smiles>
CNC(C)C(=O)NC(C(=O)N1Cc2cc([101O:1][101CH2:1]CCNC(=N)c3cc([100NH:0][100C:0](=O)N4CCCC(n5nc(-c6ccc(Oc7ccc(F)cc7F)cc6)c(C(N)=O)c5N)C4)cc(C)c3C)ccc2CC1C(=O)NC1CCCc2ccccc21)C(C)(C)C

> <Shape>
0.277

> <Color>
0.069

> <Negative vol penalty>
0.000

$$$$

  -OEChem-04042321423D

 85 94  0     1  0  0  0  0  0999 V2000
  -16.9236  -30.4387   20.5721 C   0  0  0  0  0  0  0  0  0  0  0  0
  -18.2265  -30.6228   20.1204 C   0  0  0  0  0  0  0  0  0  0  0  0
  -23.6169   -9.9228   22.2901 C   0  0  0  0  0  0  0  0  0  0  0  0
  -23.6765   -9.5628   19.9018 C   0  0  0  0  0  0  0  0  0  0  0  0
  -16.6927  -29.7932   21.7861 C   0  0  0  0  0  0  0  0  0  0  0  0
  -19.2993  -30.1626   20.8831 C   0  0  0  0  0  0  0  0  0  0  0  0
  -23.9906  -25.4038   18.1929 C   0  0  0  0  0  0  0  0  0  0  0  0
  -31.2656  -18.7506   20.3739 C   0  0  0  0  0  0  0  0  0  0  0  0
  -30.9317  -19.8795   19.6259 C   0  0  0  0  0  0  0  0  0  0  0  0
  -22.9561   -8.7058   22.4570 C   0  0  0  0  0  0  0  0  0  0  0  0
  -23.0158   -8.3458   20.0687 C   0  0  0  0  0  0  0  0  0  0  0  0
  -25.0494  -24.6554   17.6783 C   0  0  0  0  0  0  0  0  0  0  0  0
  -19.8513   -7.2817   20.6024 C   0  0  0  0  0  0  0  0  0  0  0  0
  -18.7959   -6.9933   19.7372 C   0  0  0  0  0  0  0  0  0  0  0  0
  -26.1223  -24.6633   19.8455 C   0  0  0  0  0  0  0  0  0  0  0  0
  -28.7733  -19.9585   20.7085 C   0  0  0  0  0  0  0  0  0  0  0  0
  -19.9665   -5.0259   18.9651 C   0  0  0  0  0  0  0  0  0  0  0  0
  -23.9770  -10.3514   21.0124 C   0  0  0  0  0  0  0  0  0  0  0  0
  -24.1920  -12.8862   21.2020 C   0  0  0  0  0  0  0  0  0  0  0  0
  -17.7628  -29.3162   22.5595 C   0  0  0  0  0  0  0  0  0  0  0  0
  -23.9861  -25.7722   19.5411 C   0  0  0  0  0  0  0  0  0  0  0  0
  -19.0825  -29.5114   22.1093 C   0  0  0  0  0  0  0  0  0  0  0  0
  -25.0583  -25.4023   20.3696 C   0  0  0  0  0  0  0  0  0  0  0  0
  -30.3533  -18.2255   21.2892 C   0  0  0  0  0  0  0  0  0  0  0  0
  -29.1072  -18.8295   21.4565 C   0  0  0  0  0  0  0  0  0  0  0  0
  -29.6856  -20.4835   19.7932 C   0  0  0  0  0  0  0  0  0  0  0  0
  -22.6556   -7.9173   21.3464 C   0  0  0  0  0  0  0  0  0  0  0  0
  -26.1127  -24.2863   18.5025 C   0  0  0  0  0  0  0  0  0  0  0  0
  -20.9644   -6.4423   20.6489 C   0  0  0  0  0  0  0  0  0  0  0  0
  -18.8534   -5.8654   18.9186 C   0  0  0  0  0  0  0  0  0  0  0  0
  -21.0219   -5.3144   19.8303 C   0  0  0  0  0  0  0  0  0  0  0  0
  -24.6591  -11.6087   20.8393 C   0  0  0  0  0  0  0  0  0  0  0  0
  -25.2022  -13.7394   20.8305 C   0  0  0  0  0  0  0  0  0  0  0  0
  -29.7790  -21.9742   17.7628 C   0  0  0  0  0  0  0  0  0  0  0  0
  -30.2585  -21.2153   16.7669 C   0  0  0  0  0  0  0  0  0  0  0  0
  -22.9556  -13.2676   21.8197 C   0  0  0  0  0  0  0  0  0  0  0  0
  -22.1910  -27.5261   22.3299 C   0  0  0  0  0  0  0  0  0  0  0  0
  -23.3700  -24.9513   23.5093 C   0  0  0  0  0  0  0  0  0  0  0  0
  -24.4697  -21.8241   24.3146 C   0  0  0  0  0  0  0  0  0  0  0  0
  -30.6222  -15.0446   20.5733 C   0  0  0  0  0  0  0  0  0  0  0  0
  -17.4656  -28.6667   23.8878 C   0  0  0  0  0  0  0  0  0  0  0  0
  -22.8964  -26.6306   20.1237 C   0  0  0  0  0  0  0  0  0  0  0  0
  -25.0278  -25.8504   21.8053 C   0  0  0  0  0  0  0  0  0  0  0  0
  -29.5210  -23.4513   17.5585 C   0  0  0  0  0  0  0  0  0  0  0  0
  -18.6415  -27.8762   24.4559 C   0  0  0  0  0  0  0  0  0  0  0  0
  -29.3280  -12.9298   18.0181 C   0  0  0  0  0  0  0  0  0  0  0  0
  -19.9285  -28.6890   24.3574 C   0  0  0  0  0  0  0  0  0  0  0  0
  -27.9629  -12.4983   18.5570 C   0  0  0  0  0  0  0  0  0  0  0  0
  -30.3643  -13.0452   19.1338 C   0  0  0  0  0  0  0  0  0  0  0  0
  -28.6011  -13.4762   20.8009 C   0  0  0  0  0  0  0  0  0  0  0  0
  -28.6455  -22.7272   19.7108 C   0  0  0  0  0  0  0  0  0  0  0  0
  -20.2714  -29.0043   22.8964 C   0  0  1  0  0  0  0  0  0  0  0  0
  -22.5676  -26.2788   21.5856 C   0  0  1  0  0  0  0  0  0  0  0  0
  -27.5088  -13.4002   19.7205 C   0  0  2  0  0  0  0  0  0  0  0  0
  -28.4250  -23.7419   18.5830 C   0  0  2  0  0  0  0  0  0  1  0  0
  -28.1138  -18.2842   22.4294 C   0  0  0  0  0  0  0  0  0  0  0  0
  -24.6041  -20.2179   26.2380 C   0  0  0  0  0  0  0  0  0  0  0  0
  -25.6648  -26.5719   24.6975 C   0  0  0  0  0  0  0  0  0  0  0  0
  -26.3533  -24.5296   25.9717 C   0  0  0  0  0  0  0  0  0  0  0  0
  -24.1192  -25.5602   26.3834 C   0  0  0  0  0  0  0  0  0  0  0  0
  -22.8265  -19.8106   22.8987 C   0  0  0  0  0  0  0  0  0  0  0  0
  -30.7329  -17.0154   22.0777 C   0  0  0  0  0  0  0  0  0  0  0  0
  -24.5259  -24.3028   24.2280 C   0  0  1  0  0  0  0  0  0  0  0  0
  -23.7923  -20.6723   25.0350 C   0  0  2  0  0  0  0  0  0  0  0  0
  -25.1637  -25.2404   25.2918 C   0  0  0  0  0  0  0  0  0  0  0  0
  -25.8716  -11.6426   20.2801 N   0  0  0  0  0  0  0  0  0  0  0  0
  -26.1750  -12.9518   20.2886 N   0  0  0  0  0  0  0  0  0  0  0  0
  -29.3491  -21.6247   19.0380 N   0  0  0  0  0  0  0  0  0  0  0  0
  -23.6733  -25.6834   22.3550 N   0  0  0  0  0  0  0  0  0  0  0  0
  -29.8727  -13.9152   20.2050 N   0  0  0  0  0  0  0  0  0  0  0  0
  -25.3445  -15.0790   20.9177 N   0  0  0  0  0  0  0  0  0  0  0  0
  -21.8633  -13.5722   20.9960 N   0  0  0  0  0  0  0  0  0  0  0  0
  -20.8487  -27.8446   22.2512 N   0  0  0  0  0  0  0  0  0  0  0  0
  -24.0181  -23.0458   24.7670 N   0  0  0  0  0  0  0  0  0  0  0  0
  -30.0818  -15.8188   21.5928 N   0  0  0  0  0  0  0  0  0  0  0  0
  -23.6259  -19.5119   24.1148 N   0  3  0  0  0  0  0  0  0  0  0  0
  -22.8280  -13.3520   23.0647 O   0  0  0  0  0  0  0  0  0  0  0  0
  -23.0537  -28.1535   22.9330 O   0  0  0  0  0  0  0  0  0  0  0  0
  -22.2287  -24.8189   23.9602 O   0  0  0  0  0  0  0  0  0  0  0  0
  -25.3176  -21.6568   23.4407 O   0  0  0  0  0  0  0  0  0  0  0  0
  -31.6908  -15.3441   20.0300 O   0  0  0  0  0  0  0  0  0  0  0  0
  -22.0110   -6.7296   21.5089 O   0  0  0  0  0  0  0  0  0  0  0  0
  -27.1410  -23.5518   17.9948 O   0  0  0  0  0  0  0  0  0  1  0  0
  -17.8392   -5.5877   18.0890 F   0  0  0  0  0  0  0  0  0  0  0  0
  -22.0881   -4.5035   19.8714 F   0  0  0  0  0  0  0  0  0  0  0  0
  1  2  1  0  0  0  0
  1  5  2  0  0  0  0
  2  6  2  0  0  0  0
  3 10  2  0  0  0  0
  3 18  1  0  0  0  0
  4 11  1  0  0  0  0
  4 18  2  0  0  0  0
  5 20  1  0  0  0  0
  6 22  1  0  0  0  0
  7 12  2  0  0  0  0
  7 21  1  0  0  0  0
  8  9  2  0  0  0  0
  8 24  1  0  0  0  0
  9 26  1  0  0  0  0
 10 27  1  0  0  0  0
 11 27  2  0  0  0  0
 12 28  1  0  0  0  0
 13 14  2  0  0  0  0
 13 29  1  0  0  0  0
 14 30  1  0  0  0  0
 15 23  1  0  0  0  0
 15 28  2  0  0  0  0
 16 25  1  0  0  0  0
 16 26  2  0  0  0  0
 17 30  2  0  0  0  0
 17 31  1  0  0  0  0
 18 32  1  0  0  0  0
 19 32  1  0  0  0  0
 19 33  2  0  0  0  0
 19 36  1  0  0  0  0
 20 22  2  0  0  0  0
 20 41  1  0  0  0  0
 21 23  2  0  0  0  0
 21 42  1  0  0  0  0
 22 52  1  0  0  0  0
 23 43  1  0  0  0  0
 24 25  2  0  0  0  0
 24 62  1  0  0  0  0
 25 56  1  0  0  0  0
 26 68  1  0  0  0  0
 27 82  1  0  0  0  0
 28 83  1  0  0  0  0
 29 31  2  0  0  0  0
 29 82  1  0  0  0  0
 30 84  1  0  0  0  0
 31 85  1  0  0  0  0
 32 66  2  0  0  0  0
 33 67  1  0  0  0  0
 33 71  1  0  0  0  0
 34 35  2  0  0  0  0
 34 44  1  0  0  0  0
 34 68  1  0  0  0  0
 36 72  1  0  0  0  0
 36 77  2  0  0  0  0
 37 53  1  0  0  0  0
 37 73  1  0  0  0  0
 37 78  2  0  0  0  0
 38 63  1  0  0  0  0
 38 69  1  0  0  0  0
 38 79  2  0  0  0  0
 39 64  1  0  0  0  0
 39 74  1  0  0  0  0
 39 80  2  0  0  0  0
 40 70  1  0  0  0  0
 40 75  1  0  0  0  0
 40 81  2  0  0  0  0
 41 45  1  0  0  0  0
 42 53  1  0  0  0  0
 43 69  1  0  0  0  0
 44 55  1  0  0  0  0
 45 47  1  0  0  0  0
 46 48  1  0  0  0  0
 46 49  1  0  0  0  0
 47 52  1  0  0  0  0
 48 54  1  0  0  0  0
 49 70  1  0  0  0  0
 50 54  1  0  0  0  0
 50 70  1  0  0  0  0
 51 55  1  0  0  0  0
 51 68  1  0  0  0  0
 52 73  1  0  0  0  0
 53 69  1  0  0  0  0
 54 67  1  0  0  0  0
 55 83  1  0  0  0  0
 57 64  1  0  0  0  0
 58 65  1  0  0  0  0
 59 65  1  0  0  0  0
 60 65  1  0  0  0  0
 61 76  1  0  0  0  0
 62 75  1  0  0  0  0
 63 65  1  0  0  0  0
 63 74  1  0  0  0  0
 64 76  1  0  0  0  0
 66 67  1  0  0  0  0
M  CHG  1  76   1
M  ISO  4  40 100  55 101  75 100  83 101
M  END
> <Batch ID>
0032

> <Smiles>
C=C1C[101CH:1]([101O:1]c2ccc3c(c2)CN(C(=O)C(NC(=O)C(C)NC)C(C)(C)C)C(C(=O)NC2CCCc4ccccc42)C3)CN1c1ccc(C[100NH:0][100C:0](=O)N2CCCC(n3nc(-c4ccc(Oc5ccc(F)cc5F)cc4)c(C(N)=O)c3N)C2)c(C)c1

> <Shape>
0.247

> <Color>
0.165

> <Negative vol penalty>
0.000

$$$$

  -OEChem-04042321423D

 92101  0     1  0  0  0  0  0999 V2000
  -25.7759  -24.3494   21.0826 C   0  0  0  0  0  0  0  0  0  0  0  0
  -25.9003  -23.0960   20.4918 C   0  0  0  0  0  0  0  0  0  0  0  0
  -26.4227  -27.9161   21.4541 C   0  0  0  0  0  0  0  0  0  0  0  0
  -26.5803  -28.1474   19.0544 C   0  0  0  0  0  0  0  0  0  0  0  0
  -26.0492  -24.5090   22.4404 C   0  0  0  0  0  0  0  0  0  0  0  0
  -26.2993  -22.0017   21.2584 C   0  0  0  0  0  0  0  0  0  0  0  0
  -24.4533  -16.1964   20.6285 C   0  0  0  0  0  0  0  0  0  0  0  0
  -31.5286  -16.2835   18.5715 C   0  0  0  0  0  0  0  0  0  0  0  0
  -31.5920  -17.6393   18.2500 C   0  0  0  0  0  0  0  0  0  0  0  0
  -25.1415  -28.4668   21.4231 C   0  0  0  0  0  0  0  0  0  0  0  0
  -25.2991  -28.6980   19.0233 C   0  0  0  0  0  0  0  0  0  0  0  0
  -25.0288  -15.0919   20.0020 C   0  0  0  0  0  0  0  0  0  0  0  0
  -22.0084  -27.4442   20.6676 C   0  0  0  0  0  0  0  0  0  0  0  0
  -21.0149  -26.8172   21.4196 C   0  0  0  0  0  0  0  0  0  0  0  0
  -25.9477  -14.3792   22.1155 C   0  0  0  0  0  0  0  0  0  0  0  0
  -29.9546  -18.1213   19.9599 C   0  0  0  0  0  0  0  0  0  0  0  0
  -20.6915  -28.8490   22.6863 C   0  0  0  0  0  0  0  0  0  0  0  0
  -27.1421  -27.7565   20.2698 C   0  0  0  0  0  0  0  0  0  0  0  0
  -29.5891  -27.6875   20.9875 C   0  0  0  0  0  0  0  0  0  0  0  0
  -26.4424  -23.4142   23.2261 C   0  0  0  0  0  0  0  0  0  0  0  0
  -24.6301  -16.4069   22.0036 C   0  0  0  0  0  0  0  0  0  0  0  0
  -26.5795  -22.1471   22.6278 C   0  0  0  0  0  0  0  0  0  0  0  0
  -25.3713  -15.4858   22.7576 C   0  0  0  0  0  0  0  0  0  0  0  0
  -30.6782  -15.8466   19.5871 C   0  0  0  0  0  0  0  0  0  0  0  0
  -30.8050  -18.5582   18.9442 C   0  0  0  0  0  0  0  0  0  0  0  0
  -24.5797  -28.8577   20.2077 C   0  0  0  0  0  0  0  0  0  0  0  0
  -25.7785  -14.1846   20.7449 C   0  0  0  0  0  0  0  0  0  0  0  0
  -22.3435  -28.7735   20.9250 C   0  0  0  0  0  0  0  0  0  0  0  0
  -20.3565  -27.5196   22.4289 C   0  0  0  0  0  0  0  0  0  0  0  0
  -29.8912  -16.7654   20.2814 C   0  0  0  0  0  0  0  0  0  0  0  0
  -21.6850  -29.4759   21.9343 C   0  0  0  0  0  0  0  0  0  0  0  0
  -28.4659  -27.1883   20.3013 C   0  0  0  0  0  0  0  0  0  0  0  0
  -30.5919  -26.7939   20.7004 C   0  0  0  0  0  0  0  0  0  0  0  0
  -30.2236  -12.1845   18.9984 C   0  0  0  0  0  0  0  0  0  0  0  0
  -35.1168  -12.6613   12.0135 C   0  0  0  0  0  0  0  0  0  0  0  0
  -31.0382  -11.7000   18.0488 C   0  0  0  0  0  0  0  0  0  0  0  0
  -34.3046  -13.1440   12.9605 C   0  0  0  0  0  0  0  0  0  0  0  0
  -31.5809  -12.5094   16.9846 C   0  0  0  0  0  0  0  0  0  0  0  0
  -33.7571  -12.3351   14.0252 C   0  0  0  0  0  0  0  0  0  0  0  0
  -32.3950  -12.0175   16.0385 C   0  0  0  0  0  0  0  0  0  0  0  0
  -32.9429  -12.8267   14.9715 C   0  0  0  0  0  0  0  0  0  0  0  0
  -29.7148  -28.8545   21.8109 C   0  0  0  0  0  0  0  0  0  0  0  0
  -25.9646  -18.6874   23.7705 C   0  0  0  0  0  0  0  0  0  0  0  0
  -24.7332  -16.9637   26.2270 C   0  0  0  0  0  0  0  0  0  0  0  0
  -24.4172  -13.4771   27.0994 C   0  0  0  0  0  0  0  0  0  0  0  0
  -30.1573  -20.9870   19.2015 C   0  0  0  0  0  0  0  0  0  0  0  0
  -26.7728  -23.6451   24.6795 C   0  0  0  0  0  0  0  0  0  0  0  0
  -23.9805  -17.5888   22.6695 C   0  0  0  0  0  0  0  0  0  0  0  0
  -25.5740  -15.6554   24.2404 C   0  0  0  0  0  0  0  0  0  0  0  0
  -29.6600  -11.3369   20.1063 C   0  0  0  0  0  0  0  0  0  0  0  0
  -26.8279  -22.3609   25.5031 C   0  0  0  0  0  0  0  0  0  0  0  0
  -28.1488  -11.5132   20.1925 C   0  0  0  0  0  0  0  0  0  0  0  0
  -31.2760  -23.8583   16.9150 C   0  0  0  0  0  0  0  0  0  0  0  0
  -27.6353  -21.2925   24.7727 C   0  0  0  0  0  0  0  0  0  0  0  0
  -31.4018  -24.9730   17.9509 C   0  0  0  0  0  0  0  0  0  0  0  0
  -31.3934  -22.4737   17.5395 C   0  0  0  0  0  0  0  0  0  0  0  0
  -29.7531  -23.4408   19.1612 C   0  0  0  0  0  0  0  0  0  0  0  0
  -28.3533  -13.7285   19.0028 C   0  0  0  0  0  0  0  0  0  0  0  0
  -26.9858  -20.9309   23.4315 C   0  0  1  0  0  0  0  0  0  0  0  0
  -24.6550  -17.9814   23.9803 C   0  0  1  0  0  0  0  0  0  0  0  0
  -30.7109  -24.6358   19.2871 C   0  0  2  0  0  0  0  0  0  0  0  0
  -27.7608  -12.9917   20.2013 C   0  0  1  0  0  0  0  0  0  1  0  0
  -22.7307  -12.3018   28.5387 C   0  0  0  0  0  0  0  0  0  0  0  0
  -26.7836  -17.3617   28.4513 C   0  0  0  0  0  0  0  0  0  0  0  0
  -26.1869  -15.0879   29.3129 C   0  0  0  0  0  0  0  0  0  0  0  0
  -24.4605  -16.8873   29.2466 C   0  0  0  0  0  0  0  0  0  0  0  0
  -23.7071  -11.5930   24.9303 C   0  0  0  0  0  0  0  0  0  0  0  0
  -30.6145  -14.3876   19.9311 C   0  0  0  0  0  0  0  0  0  0  0  0
  -25.2248  -15.8227   27.0846 C   0  0  1  0  0  0  0  0  0  0  0  0
  -23.1399  -12.6570   27.1177 C   0  0  2  0  0  0  0  0  0  0  0  0
  -25.6729  -16.2933   28.4971 C   0  0  0  0  0  0  0  0  0  0  0  0
  -28.7297  -26.0648   19.6288 N   0  0  0  0  0  0  0  0  0  0  0  0
  -30.0303  -25.8508   19.8909 N   0  0  0  0  0  0  0  0  0  0  0  0
  -24.9241  -16.8303   24.8444 N   0  0  0  0  0  0  0  0  0  0  0  0
  -30.4474  -22.2561   18.6436 N   0  0  0  0  0  0  0  0  0  0  0  0
  -31.8905  -26.7309   21.0638 N   0  0  0  0  0  0  0  0  0  0  0  0
  -28.5857  -29.6626   22.0013 N   0  0  0  0  0  0  0  0  0  0  0  0
  -30.8679  -19.9357   18.6162 N   0  0  0  0  0  0  0  0  0  0  0  0
  -25.8501  -20.0582   23.6389 N   0  0  0  0  0  0  0  0  0  0  0  0
  -24.1551  -14.8308   27.0967 N   0  0  0  0  0  0  0  0  0  0  0  0
  -29.8526  -13.5766   18.9198 N   0  3  1  0  0  0  0  0  0  0  0  0
  -23.3254  -11.3921   26.3519 N   0  3  0  0  0  0  0  0  0  0  0  0
  -30.8005  -29.1802   22.3481 O   0  0  0  0  0  0  0  0  0  0  0  0
  -27.0024  -18.0368   23.7323 O   0  0  0  0  0  0  0  0  0  0  0  0
  -24.1930  -17.9343   26.7635 O   0  0  0  0  0  0  0  0  0  0  0  0
  -25.5357  -12.9678   27.0922 O   0  0  0  0  0  0  0  0  0  0  0  0
  -29.3551  -20.8548   20.1283 O   0  0  0  0  0  0  0  0  0  0  0  0
  -23.3295  -29.3948   20.1770 O   0  0  0  0  0  0  0  0  0  0  0  0
  -26.3418  -13.1061   20.1356 O   0  0  0  0  0  0  0  0  0  1  0  0
  -19.4014  -26.9179   23.1500 F   0  0  0  0  0  0  0  0  0  0  0  0
  -29.0712  -16.3552   21.2589 F   0  0  0  0  0  0  0  0  0  0  0  0
  -22.0018  -30.7536   22.1853 F   0  0  0  0  0  0  0  0  0  0  0  0
  1  2  1  0  0  0  0
  1  5  2  0  0  0  0
  2  6  2  0  0  0  0
  3 10  2  0  0  0  0
  3 18  1  0  0  0  0
  4 11  1  0  0  0  0
  4 18  2  0  0  0  0
  5 20  1  0  0  0  0
  6 22  1  0  0  0  0
  7 12  2  0  0  0  0
  7 21  1  0  0  0  0
  8  9  2  0  0  0  0
  8 24  1  0  0  0  0
  9 25  1  0  0  0  0
 10 26  1  0  0  0  0
 11 26  2  0  0  0  0
 12 27  1  0  0  0  0
 13 14  2  0  0  0  0
 13 28  1  0  0  0  0
 14 29  1  0  0  0  0
 15 23  1  0  0  0  0
 15 27  2  0  0  0  0
 16 25  2  0  0  0  0
 16 30  1  0  0  0  0
 17 29  2  0  0  0  0
 17 31  1  0  0  0  0
 18 32  1  0  0  0  0
 19 32  1  0  0  0  0
 19 33  2  0  0  0  0
 19 42  1  0  0  0  0
 20 22  2  0  0  0  0
 20 47  1  0  0  0  0
 21 23  2  0  0  0  0
 21 48  1  0  0  0  0
 22 59  1  0  0  0  0
 23 49  1  0  0  0  0
 24 30  2  0  0  0  0
 24 68  1  0  0  0  0
 25 78  1  0  0  0  0
 26 88  1  0  0  0  0
 27 89  1  0  0  0  0
 28 31  2  0  0  0  0
 28 88  1  0  0  0  0
 29 90  1  0  0  0  0
 30 91  1  0  0  0  0
 31 92  1  0  0  0  0
 32 72  2  0  0  0  0
 33 73  1  0  0  0  0
 33 76  1  0  0  0  0
 34 36  2  0  0  0  0
 34 50  1  0  0  0  0
 34 81  1  0  0  0  0
 35 37  2  0  0  0  0
 36 38  1  0  0  0  0
 37 39  1  0  0  0  0
 38 40  2  0  0  0  0
 39 41  2  0  0  0  0
 40 41  1  0  0  0  0
 42 77  1  0  0  0  0
 42 83  2  0  0  0  0
 43 60  1  0  0  0  0
 43 79  1  0  0  0  0
 43 84  2  0  0  0  0
 44 69  1  0  0  0  0
 44 74  1  0  0  0  0
 44 85  2  0  0  0  0
 45 70  1  0  0  0  0
 45 80  1  0  0  0  0
 45 86  2  0  0  0  0
 46 75  1  0  0  0  0
 46 78  1  0  0  0  0
 46 87  2  0  0  0  0
 47 51  1  0  0  0  0
 48 60  1  0  0  0  0
 49 74  1  0  0  0  0
 50 52  1  0  0  0  0
 51 54  1  0  0  0  0
 52 62  1  0  0  0  0
 53 55  1  0  0  0  0
 53 56  1  0  0  0  0
 54 59  1  0  0  0  0
 55 61  1  0  0  0  0
 56 75  1  0  0  0  0
 57 61  1  0  0  0  0
 57 75  1  0  0  0  0
 58 62  1  0  0  0  0
 58 81  1  0  0  0  0
 59 79  1  0  0  0  0
 60 74  1  0  0  0  0
 61 73  1  0  0  0  0
 62 89  1  0  0  0  0
 63 70  1  0  0  0  0
 64 71  1  0  0  0  0
 65 71  1  0  0  0  0
 66 71  1  0  0  0  0
 67 82  1  0  0  0  0
 68 81  1  0  0  0  0
 69 71  1  0  0  0  0
 69 80  1  0  0  0  0
 70 82  1  0  0  0  0
 72 73  1  0  0  0  0
M  CHG  2  81   1  82   1
M  ISO  4  46 100  62 101  78 100  89 101
M  END
> <Batch ID>
0032

> <Smiles>
C=CC=CC=CC=C1CC[101CH:1]([101O:1]c2ccc3c(c2)CN(C(=O)C(NC(=O)C(C)NC)C(C)(C)C)C(C(=O)NC2CCCc4ccccc42)C3)CN1Cc1ccc([100NH:0][100C:0](=O)N2CCCC(n3nc(-c4ccc(Oc5ccc(F)cc5F)cc4)c(C(N)=O)c3N)C2)cc1F

> <Shape>
0.234

> <Color>
0.061

> <Negative vol penalty>
0.000

$$$$

  -OEChem-04042321423D

 89 98  0     1  0  0  0  0  0999 V2000
  -27.5455  -30.9365   27.1812 C   0  0  0  0  0  0  0  0  0  0  0  0
  -27.3431  -29.7711   26.4488 C   0  0  0  0  0  0  0  0  0  0  0  0
  -21.9060  -10.0234   20.5085 C   0  0  0  0  0  0  0  0  0  0  0  0
  -23.4335   -9.6617   22.3451 C   0  0  0  0  0  0  0  0  0  0  0  0
  -26.8476  -32.0970   26.8494 C   0  0  0  0  0  0  0  0  0  0  0  0
  -26.4418  -29.7654   25.3848 C   0  0  0  0  0  0  0  0  0  0  0  0
  -28.2845  -27.4228   21.2906 C   0  0  0  0  0  0  0  0  0  0  0  0
  -30.2145  -18.1405   22.8574 C   0  0  0  0  0  0  0  0  0  0  0  0
  -21.6804   -8.6495   20.4255 C   0  0  0  0  0  0  0  0  0  0  0  0
  -23.2078   -8.2877   22.2621 C   0  0  0  0  0  0  0  0  0  0  0  0
  -28.2753  -26.0287   21.2966 C   0  0  0  0  0  0  0  0  0  0  0  0
  -22.7582   -4.7158   22.7699 C   0  0  0  0  0  0  0  0  0  0  0  0
  -22.5448   -4.0199   23.9597 C   0  0  0  0  0  0  0  0  0  0  0  0
  -30.8312  -17.0685   22.2122 C   0  0  0  0  0  0  0  0  0  0  0  0
  -26.2830  -26.0421   19.9365 C   0  0  0  0  0  0  0  0  0  0  0  0
  -20.6117   -5.3949   24.4173 C   0  0  0  0  0  0  0  0  0  0  0  0
  -22.7826  -10.5296   21.4683 C   0  0  0  0  0  0  0  0  0  0  0  0
  -22.0636  -12.9536   21.8069 C   0  0  0  0  0  0  0  0  0  0  0  0
  -25.9445  -32.1080   25.7747 C   0  0  0  0  0  0  0  0  0  0  0  0
  -27.2852  -28.1383   20.6155 C   0  0  0  0  0  0  0  0  0  0  0  0
  -25.7302  -30.9268   25.0392 C   0  0  0  0  0  0  0  0  0  0  0  0
  -26.2832  -27.4452   19.9214 C   0  0  0  0  0  0  0  0  0  0  0  0
  -29.0968  -18.7489   22.2860 C   0  0  0  0  0  0  0  0  0  0  0  0
  -28.5960  -18.2854   21.0695 C   0  0  0  0  0  0  0  0  0  0  0  0
  -29.2127  -17.2134   20.4243 C   0  0  0  0  0  0  0  0  0  0  0  0
  -22.3313   -7.7816   21.3023 C   0  0  0  0  0  0  0  0  0  0  0  0
  -27.2728  -25.3381   20.6219 C   0  0  0  0  0  0  0  0  0  0  0  0
  -21.8984   -5.7514   22.4038 C   0  0  0  0  0  0  0  0  0  0  0  0
  -21.4716   -4.3594   24.7834 C   0  0  0  0  0  0  0  0  0  0  0  0
  -20.8251   -6.0909   23.2274 C   0  0  0  0  0  0  0  0  0  0  0  0
  -30.3303  -16.6050   20.9957 C   0  0  0  0  0  0  0  0  0  0  0  0
  -23.0166  -11.9487   21.5542 C   0  0  0  0  0  0  0  0  0  0  0  0
  -22.7841  -14.1228   21.7872 C   0  0  0  0  0  0  0  0  0  0  0  0
  -27.7595  -22.0205   21.9065 C   0  0  0  0  0  0  0  0  0  0  0  0
  -20.6533  -12.8403   22.0388 C   0  0  0  0  0  0  0  0  0  0  0  0
  -25.0330  -30.2070   21.4827 C   0  0  0  0  0  0  0  0  0  0  0  0
  -24.5654  -30.4432   18.2814 C   0  0  0  0  0  0  0  0  0  0  0  0
  -24.8687  -29.0165   15.1961 C   0  0  0  0  0  0  0  0  0  0  0  0
  -27.6989  -15.7375   19.1123 C   0  0  0  0  0  0  0  0  0  0  0  0
  -25.1780  -33.3739   25.4836 C   0  0  0  0  0  0  0  0  0  0  0  0
  -27.3244  -29.6418   20.5963 C   0  0  0  0  0  0  0  0  0  0  0  0
  -25.1990  -28.1663   19.1644 C   0  0  0  0  0  0  0  0  0  0  0  0
  -24.5199  -33.3843   24.1063 C   0  0  0  0  0  0  0  0  0  0  0  0
  -30.5877  -22.2665   21.0927 C   0  0  0  0  0  0  0  0  0  0  0  0
  -27.1584  -15.8494   22.6250 C   0  0  0  0  0  0  0  0  0  0  0  0
  -23.7978  -32.0654   23.8497 C   0  0  0  0  0  0  0  0  0  0  0  0
  -29.4642  -23.0361   20.4008 C   0  0  0  0  0  0  0  0  0  0  0  0
  -25.9375  -14.9423   22.7731 C   0  0  0  0  0  0  0  0  0  0  0  0
  -30.1547  -21.6253   22.4082 C   0  0  0  0  0  0  0  0  0  0  0  0
  -28.1442  -15.3170   21.5845 C   0  0  0  0  0  0  0  0  0  0  0  0
  -26.3127  -14.1374   20.4104 C   0  0  0  0  0  0  0  0  0  0  0  0
  -24.7794  -30.8874   23.8625 C   0  0  1  0  0  0  0  0  0  0  0  0
  -28.2987  -23.3261   21.3378 C   0  0  1  0  0  0  0  0  0  1  0  0
  -25.9654  -30.2714   20.3062 C   0  0  1  0  0  0  0  0  0  0  0  0
  -25.2769  -14.6780   21.4086 C   0  0  1  0  0  0  0  0  0  0  0  0
  -27.3949  -18.9430   20.4644 C   0  0  0  0  0  0  0  0  0  0  0  0
  -30.1253  -16.8291   17.1598 C   0  0  0  0  0  0  0  0  0  0  0  0
  -24.3625  -29.4346   12.7740 C   0  0  0  0  0  0  0  0  0  0  0  0
  -21.6222  -29.8209   18.7917 C   0  0  0  0  0  0  0  0  0  0  0  0
  -21.3776  -29.3171   16.3515 C   0  0  0  0  0  0  0  0  0  0  0  0
  -22.0309  -31.6082   17.0909 C   0  0  0  0  0  0  0  0  0  0  0  0
  -27.7308  -28.8817   14.4548 C   0  0  0  0  0  0  0  0  0  0  0  0
  -28.4531  -19.9013   23.0014 C   0  0  0  0  0  0  0  0  0  0  0  0
  -29.0140  -17.4943   17.9465 C   0  0  0  0  0  0  0  0  0  0  0  0
  -23.7060  -29.7231   17.2705 C   0  0  1  0  0  0  0  0  0  0  0  0
  -25.3968  -29.5620   13.8816 C   0  0  2  0  0  0  0  0  0  0  0  0
  -22.2033  -30.1035   17.3919 C   0  0  0  0  0  0  0  0  0  0  0  0
  -24.2484  -12.4368   21.3861 N   0  0  0  0  0  0  0  0  0  0  0  0
  -24.0745  -13.7613   21.5335 N   0  0  0  0  0  0  0  0  0  0  0  0
  -28.7681  -21.1744   22.3754 N   0  0  0  0  0  0  0  0  0  0  0  0
  -25.2771  -29.6364   19.1805 N   0  0  0  0  0  0  0  0  0  0  0  0
  -27.4612  -15.0415   20.3126 N   0  0  0  0  0  0  0  0  0  0  0  0
  -22.4334  -15.4146   21.9624 N   0  0  0  0  0  0  0  0  0  0  0  0
  -20.2036  -12.6801   23.3565 N   0  0  0  0  0  0  0  0  0  0  0  0
  -25.5157  -30.8295   22.6179 N   0  0  0  0  0  0  0  0  0  0  0  0
  -24.2900  -30.0050   15.9637 N   0  0  0  0  0  0  0  0  0  0  0  0
  -28.6870  -16.7441   19.1639 N   0  0  0  0  0  0  0  0  0  0  0  0
  -26.6219  -28.8210   13.4680 N   0  3  0  0  0  0  0  0  0  0  0  0
  -26.5555  -21.7736   21.9451 O   0  0  0  0  0  0  0  0  0  0  0  0
  -19.8177  -12.8635   21.1035 O   0  0  0  0  0  0  0  0  0  0  0  0
  -23.9546  -29.6362   21.3684 O   0  0  0  0  0  0  0  0  0  0  0  0
  -24.6093  -31.6759   18.2691 O   0  0  0  0  0  0  0  0  0  0  0  0
  -24.9572  -27.8313   15.5090 O   0  0  0  0  0  0  0  0  0  0  0  0
  -27.0941  -15.4634   18.0688 O   0  0  0  0  0  0  0  0  0  0  0  0
  -22.1111   -6.4409   21.2218 O   0  0  0  0  0  0  0  0  0  0  0  0
  -27.2610  -23.9773   20.6267 O   0  0  0  0  0  0  0  0  0  1  0  0
  -21.2659   -3.6900   25.9252 F   0  0  0  0  0  0  0  0  0  0  0  0
  -19.9950   -7.0840   22.8804 F   0  0  0  0  0  0  0  0  0  0  0  0
  -31.1251  -15.2714   20.2364 Cl  0  0  0  0  0  0  0  0  0  0  0  0
  1  2  1  0  0  0  0
  1  5  2  0  0  0  0
  2  6  2  0  0  0  0
  3  9  2  0  0  0  0
  3 17  1  0  0  0  0
  4 10  1  0  0  0  0
  4 17  2  0  0  0  0
  5 19  1  0  0  0  0
  6 21  1  0  0  0  0
  7 11  2  0  0  0  0
  7 20  1  0  0  0  0
  8 14  1  0  0  0  0
  8 23  2  0  0  0  0
  9 26  1  0  0  0  0
 10 26  2  0  0  0  0
 11 27  1  0  0  0  0
 12 13  2  0  0  0  0
 12 28  1  0  0  0  0
 13 29  1  0  0  0  0
 14 31  2  0  0  0  0
 15 22  1  0  0  0  0
 15 27  2  0  0  0  0
 16 29  2  0  0  0  0
 16 30  1  0  0  0  0
 17 32  1  0  0  0  0
 18 32  1  0  0  0  0
 18 33  2  0  0  0  0
 18 35  1  0  0  0  0
 19 21  2  0  0  0  0
 19 40  1  0  0  0  0
 20 22  2  0  0  0  0
 20 41  1  0  0  0  0
 21 52  1  0  0  0  0
 22 42  1  0  0  0  0
 23 24  1  0  0  0  0
 23 63  1  0  0  0  0
 24 25  2  0  0  0  0
 24 56  1  0  0  0  0
 25 31  1  0  0  0  0
 25 77  1  0  0  0  0
 26 85  1  0  0  0  0
 27 86  1  0  0  0  0
 28 30  2  0  0  0  0
 28 85  1  0  0  0  0
 29 87  1  0  0  0  0
 30 88  1  0  0  0  0
 31 89  1  0  0  0  0
 32 68  2  0  0  0  0
 33 69  1  0  0  0  0
 33 73  1  0  0  0  0
 34 53  1  0  0  0  0
 34 70  1  0  0  0  0
 34 79  2  0  0  0  0
 35 74  1  0  0  0  0
 35 80  2  0  0  0  0
 36 54  1  0  0  0  0
 36 75  1  0  0  0  0
 36 81  2  0  0  0  0
 37 65  1  0  0  0  0
 37 71  1  0  0  0  0
 37 82  2  0  0  0  0
 38 66  1  0  0  0  0
 38 76  1  0  0  0  0
 38 83  2  0  0  0  0
 39 72  1  0  0  0  0
 39 77  1  0  0  0  0
 39 84  2  0  0  0  0
 40 43  1  0  0  0  0
 41 54  1  0  0  0  0
 42 71  1  0  0  0  0
 43 46  1  0  0  0  0
 44 47  1  0  0  0  0
 44 49  1  0  0  0  0
 45 48  1  0  0  0  0
 45 50  1  0  0  0  0
 46 52  1  0  0  0  0
 47 53  1  0  0  0  0
 48 55  1  0  0  0  0
 49 70  1  0  0  0  0
 50 72  1  0  0  0  0
 51 55  1  0  0  0  0
 51 72  1  0  0  0  0
 52 75  1  0  0  0  0
 53 86  1  0  0  0  0
 54 71  1  0  0  0  0
 55 69  1  0  0  0  0
 57 64  1  0  0  0  0
 58 66  1  0  0  0  0
 59 67  1  0  0  0  0
 60 67  1  0  0  0  0
 61 67  1  0  0  0  0
 62 78  1  0  0  0  0
 63 70  1  0  0  0  0
 64 77  1  0  0  0  0
 65 67  1  0  0  0  0
 65 76  1  0  0  0  0
 66 78  1  0  0  0  0
 68 69  1  0  0  0  0
M  CHG  1  78   1
M  ISO  4  39 100  53 101  77 100  86 101
M  END
> <Batch ID>
0032

> <Smiles>
CC[100N:0](c1c(Cl)ccc(CN2CCC[101CH:1]([101O:1]c3ccc4c(c3)CN(C(=O)C(NC(=O)C(C)NC)C(C)(C)C)C(C(=O)NC3CCCc5ccccc53)C4)C2=O)c1C)[100C:0](=O)N1CCCC(n2nc(-c3ccc(Oc4ccc(F)cc4F)cc3)c(C(N)=O)c2N)C1

> <Shape>
0.315

> <Color>
0.058

> <Negative vol penalty>
0.000

$$$$

  -OEChem-04042321423D

 86 95  0     1  0  0  0  0  0999 V2000
  -23.7392  -31.8152   21.2705 C   0  0  0  0  0  0  0  0  0  0  0  0
  -24.0282  -30.5210   21.6912 C   0  0  0  0  0  0  0  0  0  0  0  0
  -23.0633   -9.8845   19.9386 C   0  0  0  0  0  0  0  0  0  0  0  0
  -23.8355   -9.8700   22.2279 C   0  0  0  0  0  0  0  0  0  0  0  0
  -22.4718  -32.1194   20.7756 C   0  0  0  0  0  0  0  0  0  0  0  0
  -23.0494  -29.5305   21.6182 C   0  0  0  0  0  0  0  0  0  0  0  0
  -24.8270  -25.1777   19.7370 C   0  0  0  0  0  0  0  0  0  0  0  0
  -22.3149   -8.7333   20.1838 C   0  0  0  0  0  0  0  0  0  0  0  0
  -23.0870   -8.7188   22.4731 C   0  0  0  0  0  0  0  0  0  0  0  0
  -25.5706  -24.3695   20.5958 C   0  0  0  0  0  0  0  0  0  0  0  0
  -19.8581   -7.9330   23.0869 C   0  0  0  0  0  0  0  0  0  0  0  0
  -19.1072   -7.8880   24.2616 C   0  0  0  0  0  0  0  0  0  0  0  0
  -23.6286  -22.9874   20.9669 C   0  0  0  0  0  0  0  0  0  0  0  0
  -30.6625  -19.8316   21.4932 C   0  0  0  0  0  0  0  0  0  0  0  0
  -31.1868  -17.6478   20.6028 C   0  0  0  0  0  0  0  0  0  0  0  0
  -20.3425   -5.9386   24.9765 C   0  0  0  0  0  0  0  0  0  0  0  0
  -23.8237  -10.4528   20.9606 C   0  0  0  0  0  0  0  0  0  0  0  0
  -24.1779  -12.9771   20.8580 C   0  0  0  0  0  0  0  0  0  0  0  0
  -21.4800  -31.1299   20.6874 C   0  0  0  0  0  0  0  0  0  0  0  0
  -23.4734  -24.9028   19.4948 C   0  0  0  0  0  0  0  0  0  0  0  0
  -21.7671  -29.8221   21.1228 C   0  0  0  0  0  0  0  0  0  0  0  0
  -22.8707  -23.7922   20.1026 C   0  0  0  0  0  0  0  0  0  0  0  0
  -31.3761  -19.0297   20.6025 C   0  0  0  0  0  0  0  0  0  0  0  0
  -29.7597  -19.2515   22.3844 C   0  0  0  0  0  0  0  0  0  0  0  0
  -29.5704  -17.8695   22.3847 C   0  0  0  0  0  0  0  0  0  0  0  0
  -30.2840  -17.0677   21.4940 C   0  0  0  0  0  0  0  0  0  0  0  0
  -22.3267   -8.1505   21.4510 C   0  0  0  0  0  0  0  0  0  0  0  0
  -24.9707  -23.2758   21.2132 C   0  0  0  0  0  0  0  0  0  0  0  0
  -20.8511   -6.9808   22.8570 C   0  0  0  0  0  0  0  0  0  0  0  0
  -19.3494   -6.8908   25.2064 C   0  0  0  0  0  0  0  0  0  0  0  0
  -21.0934   -5.9836   23.8019 C   0  0  0  0  0  0  0  0  0  0  0  0
  -24.5975  -11.6417   20.7078 C   0  0  0  0  0  0  0  0  0  0  0  0
  -25.2719  -13.7237   20.4945 C   0  0  0  0  0  0  0  0  0  0  0  0
  -26.5153  -19.9999   23.6993 C   0  0  0  0  0  0  0  0  0  0  0  0
  -22.9123  -13.4961   21.2877 C   0  0  0  0  0  0  0  0  0  0  0  0
  -20.7451  -26.4563   19.9913 C   0  0  0  0  0  0  0  0  0  0  0  0
  -19.4793  -23.9659   18.3428 C   0  0  0  0  0  0  0  0  0  0  0  0
  -19.7589  -20.7174   17.3349 C   0  0  0  0  0  0  0  0  0  0  0  0
  -30.7443  -14.7399   20.6477 C   0  0  0  0  0  0  0  0  0  0  0  0
  -20.1101  -31.5175   20.1896 C   0  0  0  0  0  0  0  0  0  0  0  0
  -22.6922  -25.7686   18.5449 C   0  0  0  0  0  0  0  0  0  0  0  0
  -21.4260  -23.4421   19.8598 C   0  0  0  0  0  0  0  0  0  0  0  0
  -25.2937  -20.2375   22.8415 C   0  0  0  0  0  0  0  0  0  0  0  0
  -19.2449  -30.3232   19.7954 C   0  0  0  0  0  0  0  0  0  0  0  0
  -29.6048  -12.3500   18.2672 C   0  0  0  0  0  0  0  0  0  0  0  0
  -19.3090  -29.2404   20.8679 C   0  0  0  0  0  0  0  0  0  0  0  0
  -28.1660  -12.0625   18.7023 C   0  0  0  0  0  0  0  0  0  0  0  0
  -30.5275  -12.5649   19.4656 C   0  0  0  0  0  0  0  0  0  0  0  0
  -28.6317  -13.2886   20.8626 C   0  0  0  0  0  0  0  0  0  0  0  0
  -27.2872  -20.7552   21.5928 C   0  0  0  0  0  0  0  0  0  0  0  0
  -20.7396  -28.7145   21.0361 C   0  0  1  0  0  0  0  0  0  0  0  0
  -21.1853  -25.6963   18.7722 C   0  0  1  0  0  0  0  0  0  0  0  0
  -27.6517  -13.1293   19.6887 C   0  0  2  0  0  0  0  0  0  0  0  0
  -25.8160  -21.1104   21.7034 C   0  0  2  0  0  0  0  0  0  1  0  0
  -32.3424  -19.6498   19.6507 C   0  0  0  0  0  0  0  0  0  0  0  0
  -28.6012  -17.2521   23.3435 C   0  0  0  0  0  0  0  0  0  0  0  0
  -18.5491  -18.9492   16.0282 C   0  0  0  0  0  0  0  0  0  0  0  0
  -17.5543  -23.5626   20.6755 C   0  0  0  0  0  0  0  0  0  0  0  0
  -17.0476  -21.2831   19.7725 C   0  0  0  0  0  0  0  0  0  0  0  0
  -16.5197  -23.3069   18.4131 C   0  0  0  0  0  0  0  0  0  0  0  0
  -21.9705  -20.4831   15.3822 C   0  0  0  0  0  0  0  0  0  0  0  0
  -29.0060  -20.1372   23.3339 C   0  0  0  0  0  0  0  0  0  0  0  0
  -18.9312  -22.6083   18.7110 C   0  0  1  0  0  0  0  0  0  0  0  0
  -19.5805  -20.0656   15.9755 C   0  0  2  0  0  0  0  0  0  0  0  0
  -17.5399  -22.6977   19.3993 C   0  0  0  0  0  0  0  0  0  0  0  0
  -25.8596  -11.5426   20.2820 N   0  0  0  0  0  0  0  0  0  0  0  0
  -26.2424  -12.8252   20.1614 N   0  0  0  0  0  0  0  0  0  0  0  0
  -27.6287  -20.3180   22.9282 N   0  0  0  0  0  0  0  0  0  0  0  0
  -20.7025  -24.3227   18.9279 N   0  0  0  0  0  0  0  0  0  0  0  0
  -29.9785  -13.5919   20.3538 N   0  0  0  0  0  0  0  0  0  0  0  0
  -25.4888  -15.0546   20.4305 N   0  0  0  0  0  0  0  0  0  0  0  0
  -21.8976  -12.5896   21.6235 N   0  0  0  0  0  0  0  0  0  0  0  0
  -30.1061  -15.6620   21.4766 N   0  0  0  0  0  0  0  0  0  0  0  0
  -21.0707  -27.7990   19.9652 N   0  0  0  0  0  0  0  0  0  0  0  0
  -18.9416  -21.8177   17.4849 N   0  0  0  0  0  0  0  0  0  0  0  0
  -20.8717  -19.4906   15.5032 N   0  3  0  0  0  0  0  0  0  0  0  0
  -26.4863  -19.5635   24.8406 O   0  0  0  0  0  0  0  0  0  0  0  0
  -22.6828  -14.7275   21.3556 O   0  0  0  0  0  0  0  0  0  0  0  0
  -20.1526  -25.8684   20.8885 O   0  0  0  0  0  0  0  0  0  0  0  0
  -18.8491  -24.6803   17.5592 O   0  0  0  0  0  0  0  0  0  0  0  0
  -20.5421  -20.2907   18.1805 O   0  0  0  0  0  0  0  0  0  0  0  0
  -31.8717  -14.9065   20.1753 O   0  0  0  0  0  0  0  0  0  0  0  0
  -21.5962   -7.0273   21.6907 O   0  0  0  0  0  0  0  0  0  0  0  0
  -25.6940  -22.4857   22.0524 O   0  0  0  0  0  0  0  0  0  1  0  0
  -18.6294   -6.8487   26.3350 F   0  0  0  0  0  0  0  0  0  0  0  0
  -22.0469   -5.0668   23.5871 F   0  0  0  0  0  0  0  0  0  0  0  0
  1  2  1  0  0  0  0
  1  5  2  0  0  0  0
  2  6  2  0  0  0  0
  3  8  2  0  0  0  0
  3 17  1  0  0  0  0
  4  9  1  0  0  0  0
  4 17  2  0  0  0  0
  5 19  1  0  0  0  0
  6 21  1  0  0  0  0
  7 10  2  0  0  0  0
  7 20  1  0  0  0  0
  8 27  1  0  0  0  0
  9 27  2  0  0  0  0
 10 28  1  0  0  0  0
 11 12  2  0  0  0  0
 11 29  1  0  0  0  0
 12 30  1  0  0  0  0
 13 22  1  0  0  0  0
 13 28  2  0  0  0  0
 14 23  2  0  0  0  0
 14 24  1  0  0  0  0
 15 23  1  0  0  0  0
 15 26  2  0  0  0  0
 16 30  2  0  0  0  0
 16 31  1  0  0  0  0
 17 32  1  0  0  0  0
 18 32  1  0  0  0  0
 18 33  2  0  0  0  0
 18 35  1  0  0  0  0
 19 21  2  0  0  0  0
 19 40  1  0  0  0  0
 20 22  2  0  0  0  0
 20 41  1  0  0  0  0
 21 51  1  0  0  0  0
 22 42  1  0  0  0  0
 23 55  1  0  0  0  0
 24 25  2  0  0  0  0
 24 62  1  0  0  0  0
 25 26  1  0  0  0  0
 25 56  1  0  0  0  0
 26 73  1  0  0  0  0
 27 83  1  0  0  0  0
 28 84  1  0  0  0  0
 29 31  2  0  0  0  0
 29 83  1  0  0  0  0
 30 85  1  0  0  0  0
 31 86  1  0  0  0  0
 32 66  2  0  0  0  0
 33 67  1  0  0  0  0
 33 71  1  0  0  0  0
 34 43  1  0  0  0  0
 34 68  1  0  0  0  0
 34 77  2  0  0  0  0
 35 72  1  0  0  0  0
 35 78  2  0  0  0  0
 36 52  1  0  0  0  0
 36 74  1  0  0  0  0
 36 79  2  0  0  0  0
 37 63  1  0  0  0  0
 37 69  1  0  0  0  0
 37 80  2  0  0  0  0
 38 64  1  0  0  0  0
 38 75  1  0  0  0  0
 38 81  2  0  0  0  0
 39 70  1  0  0  0  0
 39 73  1  0  0  0  0
 39 82  2  0  0  0  0
 40 44  1  0  0  0  0
 41 52  1  0  0  0  0
 42 69  1  0  0  0  0
 43 54  1  0  0  0  0
 44 46  1  0  0  0  0
 45 47  1  0  0  0  0
 45 48  1  0  0  0  0
 46 51  1  0  0  0  0
 47 53  1  0  0  0  0
 48 70  1  0  0  0  0
 49 53  1  0  0  0  0
 49 70  1  0  0  0  0
 50 54  1  0  0  0  0
 50 68  1  0  0  0  0
 51 74  1  0  0  0  0
 52 69  1  0  0  0  0
 53 67  1  0  0  0  0
 54 84  1  0  0  0  0
 57 64  1  0  0  0  0
 58 65  1  0  0  0  0
 59 65  1  0  0  0  0
 60 65  1  0  0  0  0
 61 76  1  0  0  0  0
 62 68  1  0  0  0  0
 63 65  1  0  0  0  0
 63 75  1  0  0  0  0
 64 76  1  0  0  0  0
 66 67  1  0  0  0  0
M  CHG  1  76   1
M  ISO  4  39 100  54 101  73 100  84 101
M  END
> <Batch ID>
0032

> <Smiles>
CNC(C)C(=O)NC(C(=O)N1Cc2cc([101O:1][101CH:1]3CC(=O)N(Cc4cc(C)cc([100NH:0][100C:0](=O)N5CCCC(n6nc(-c7ccc(Oc8ccc(F)cc8F)cc7)c(C(N)=O)c6N)C5)c4C)C3)ccc2CC1C(=O)NC1CCCc2ccccc21)C(C)(C)C

> <Shape>
0.228

> <Color>
0.192

> <Negative vol penalty>
0.000

$$$$

  -OEChem-04042321423D

 86 95  0     1  0  0  0  0  0999 V2000
  -40.5131  -27.4614   18.7638 C   0  0  0  0  0  0  0  0  0  0  0  0
  -39.7305  -26.6205   19.5485 C   0  0  0  0  0  0  0  0  0  0  0  0
  -23.0550   -9.9700   19.8688 C   0  0  0  0  0  0  0  0  0  0  0  0
  -23.9074   -9.7689   22.1205 C   0  0  0  0  0  0  0  0  0  0  0  0
  -39.9131  -28.4752   18.0179 C   0  0  0  0  0  0  0  0  0  0  0  0
  -38.3475  -26.7935   19.5886 C   0  0  0  0  0  0  0  0  0  0  0  0
  -35.8303  -22.4156   19.2114 C   0  0  0  0  0  0  0  0  0  0  0  0
  -22.3253   -8.7937   20.0400 C   0  0  0  0  0  0  0  0  0  0  0  0
  -23.1776   -8.5925   22.2917 C   0  0  0  0  0  0  0  0  0  0  0  0
  -35.7570  -21.6225   20.3557 C   0  0  0  0  0  0  0  0  0  0  0  0
  -19.9789   -7.7206   22.9464 C   0  0  0  0  0  0  0  0  0  0  0  0
  -19.2703   -7.5670   24.1379 C   0  0  0  0  0  0  0  0  0  0  0  0
  -33.5272  -22.4424   20.7739 C   0  0  0  0  0  0  0  0  0  0  0  0
  -30.6165  -18.0755   24.4449 C   0  0  0  0  0  0  0  0  0  0  0  0
  -32.1222  -16.4863   22.7158 C   0  0  0  0  0  0  0  0  0  0  0  0
  -20.5462   -5.5778   24.6402 C   0  0  0  0  0  0  0  0  0  0  0  0
  -23.8462  -10.4576   20.9091 C   0  0  0  0  0  0  0  0  0  0  0  0
  -24.1755  -12.9852   21.0112 C   0  0  0  0  0  0  0  0  0  0  0  0
  -38.5210  -28.6546   18.0414 C   0  0  0  0  0  0  0  0  0  0  0  0
  -34.7548  -23.2376   18.8451 C   0  0  0  0  0  0  0  0  0  0  0  0
  -37.7284  -27.8114   18.8434 C   0  0  0  0  0  0  0  0  0  0  0  0
  -33.5883  -23.2430   19.6230 C   0  0  0  0  0  0  0  0  0  0  0  0
  -32.0086  -18.0746   24.5328 C   0  0  0  0  0  0  0  0  0  0  0  0
  -29.9773  -17.2818   23.4925 C   0  0  0  0  0  0  0  0  0  0  0  0
  -32.7614  -17.2800   23.6683 C   0  0  0  0  0  0  0  0  0  0  0  0
  -30.7301  -16.4872   22.6280 C   0  0  0  0  0  0  0  0  0  0  0  0
  -22.3865   -8.1050   21.2514 C   0  0  0  0  0  0  0  0  0  0  0  0
  -34.6065  -21.6381   21.1388 C   0  0  0  0  0  0  0  0  0  0  0  0
  -20.9712   -6.8028   22.6017 C   0  0  0  0  0  0  0  0  0  0  0  0
  -19.5539   -6.4956   24.9849 C   0  0  0  0  0  0  0  0  0  0  0  0
  -21.2548   -5.7314   23.4486 C   0  0  0  0  0  0  0  0  0  0  0  0
  -24.6007  -11.6724   20.7327 C   0  0  0  0  0  0  0  0  0  0  0  0
  -25.2498  -13.7725   20.6758 C   0  0  0  0  0  0  0  0  0  0  0  0
  -34.9445  -19.9656   25.1869 C   0  0  0  0  0  0  0  0  0  0  0  0
  -22.9216  -13.4514   21.5271 C   0  0  0  0  0  0  0  0  0  0  0  0
  -34.3445  -26.3698   18.4918 C   0  0  0  0  0  0  0  0  0  0  0  0
  -31.4331  -25.4690   17.3807 C   0  0  0  0  0  0  0  0  0  0  0  0
  -28.9559  -23.1225   17.3157 C   0  0  0  0  0  0  0  0  0  0  0  0
  -30.7156  -14.8337   20.7274 C   0  0  0  0  0  0  0  0  0  0  0  0
  -37.9226  -29.7941   17.2553 C   0  0  0  0  0  0  0  0  0  0  0  0
  -34.8393  -24.0669   17.5930 C   0  0  0  0  0  0  0  0  0  0  0  0
  -32.3982  -24.0926   19.2620 C   0  0  0  0  0  0  0  0  0  0  0  0
  -35.4562  -21.1912   24.4652 C   0  0  0  0  0  0  0  0  0  0  0  0
  -36.4134  -29.6732   17.0604 C   0  0  0  0  0  0  0  0  0  0  0  0
  -29.5129  -12.6431   18.1913 C   0  0  0  0  0  0  0  0  0  0  0  0
  -35.7326  -29.3095   18.3761 C   0  0  0  0  0  0  0  0  0  0  0  0
  -28.0927  -12.3033   18.6493 C   0  0  0  0  0  0  0  0  0  0  0  0
  -30.4754  -12.7653   19.3713 C   0  0  0  0  0  0  0  0  0  0  0  0
  -28.6240  -13.3455   20.8895 C   0  0  0  0  0  0  0  0  0  0  0  0
  -33.0761  -20.9902   24.1557 C   0  0  0  0  0  0  0  0  0  0  0  0
  -36.2224  -27.9517   18.8938 C   0  0  1  0  0  0  0  0  0  0  0  0
  -33.8819  -25.2546   17.5974 C   0  0  1  0  0  0  0  0  0  0  0  0
  -27.6047  -13.2760   19.7407 C   0  0  2  0  0  0  0  0  0  0  0  0
  -34.3288  -21.5365   23.4960 C   0  0  2  0  0  0  0  0  0  1  0  0
  -28.4848  -17.3026   23.4208 C   0  0  0  0  0  0  0  0  0  0  0  0
  -34.2529  -17.2626   23.7440 C   0  0  0  0  0  0  0  0  0  0  0  0
  -26.6816  -22.6852   16.3492 C   0  0  0  0  0  0  0  0  0  0  0  0
  -30.2037  -27.3837   19.4135 C   0  0  0  0  0  0  0  0  0  0  0  0
  -28.0102  -26.2256   19.0736 C   0  0  0  0  0  0  0  0  0  0  0  0
  -29.1061  -27.4022   17.1664 C   0  0  0  0  0  0  0  0  0  0  0  0
  -29.9085  -20.7306   15.8562 C   0  0  0  0  0  0  0  0  0  0  0  0
  -32.6744  -18.9367   25.5661 C   0  0  0  0  0  0  0  0  0  0  0  0
  -30.0799  -25.2244   18.0035 C   0  0  1  0  0  0  0  0  0  0  0  0
  -28.1807  -22.5078   16.1643 C   0  0  2  0  0  0  0  0  0  0  0  0
  -29.3729  -26.5443   18.4224 C   0  0  0  0  0  0  0  0  0  0  0  0
  -25.8478  -11.6243   20.2569 N   0  0  0  0  0  0  0  0  0  0  0  0
  -26.2154  -12.9167   20.2337 N   0  0  0  0  0  0  0  0  0  0  0  0
  -33.5719  -19.9022   24.9690 N   0  0  0  0  0  0  0  0  0  0  0  0
  -32.5318  -24.8907   18.0321 N   0  0  0  0  0  0  0  0  0  0  0  0
  -29.9495  -13.7064   20.3626 N   0  0  0  0  0  0  0  0  0  0  0  0
  -25.4532  -15.1063   20.7187 N   0  0  0  0  0  0  0  0  0  0  0  0
  -21.9269  -12.5080   21.8185 N   0  0  0  0  0  0  0  0  0  0  0  0
  -30.0993  -15.6743   21.6538 N   0  0  0  0  0  0  0  0  0  0  0  0
  -35.5886  -26.8742   18.1646 N   0  0  0  0  0  0  0  0  0  0  0  0
  -29.3281  -24.4222   17.0445 N   0  0  0  0  0  0  0  0  0  0  0  0
  -28.4725  -21.0498   16.0634 N   0  3  0  0  0  0  0  0  0  0  0  0
  -35.6372  -19.2206   25.8643 O   0  0  0  0  0  0  0  0  0  0  0  0
  -22.6843  -14.6697   21.7082 O   0  0  0  0  0  0  0  0  0  0  0  0
  -33.6252  -26.7458   19.4100 O   0  0  0  0  0  0  0  0  0  0  0  0
  -31.5116  -26.1422   16.3500 O   0  0  0  0  0  0  0  0  0  0  0  0
  -29.2030  -22.5121   18.3534 O   0  0  0  0  0  0  0  0  0  0  0  0
  -31.8242  -15.0527   20.2326 O   0  0  0  0  0  0  0  0  0  0  0  0
  -21.6744   -6.9572   21.4188 O   0  0  0  0  0  0  0  0  0  0  0  0
  -34.5327  -20.8655   22.2566 O   0  0  0  0  0  0  0  0  0  1  0  0
  -18.8744   -6.3490   26.1298 F   0  0  0  0  0  0  0  0  0  0  0  0
  -22.2077   -4.8472   23.1234 F   0  0  0  0  0  0  0  0  0  0  0  0
  1  2  1  0  0  0  0
  1  5  2  0  0  0  0
  2  6  2  0  0  0  0
  3  8  2  0  0  0  0
  3 17  1  0  0  0  0
  4  9  1  0  0  0  0
  4 17  2  0  0  0  0
  5 19  1  0  0  0  0
  6 21  1  0  0  0  0
  7 10  2  0  0  0  0
  7 20  1  0  0  0  0
  8 27  1  0  0  0  0
  9 27  2  0  0  0  0
 10 28  1  0  0  0  0
 11 12  2  0  0  0  0
 11 29  1  0  0  0  0
 12 30  1  0  0  0  0
 13 22  1  0  0  0  0
 13 28  2  0  0  0  0
 14 23  1  0  0  0  0
 14 24  2  0  0  0  0
 15 25  1  0  0  0  0
 15 26  2  0  0  0  0
 16 30  2  0  0  0  0
 16 31  1  0  0  0  0
 17 32  1  0  0  0  0
 18 32  1  0  0  0  0
 18 33  2  0  0  0  0
 18 35  1  0  0  0  0
 19 21  2  0  0  0  0
 19 40  1  0  0  0  0
 20 22  2  0  0  0  0
 20 41  1  0  0  0  0
 21 51  1  0  0  0  0
 22 42  1  0  0  0  0
 23 25  2  0  0  0  0
 23 62  1  0  0  0  0
 24 26  1  0  0  0  0
 24 55  1  0  0  0  0
 25 56  1  0  0  0  0
 26 73  1  0  0  0  0
 27 83  1  0  0  0  0
 28 84  1  0  0  0  0
 29 31  2  0  0  0  0
 29 83  1  0  0  0  0
 30 85  1  0  0  0  0
 31 86  1  0  0  0  0
 32 66  2  0  0  0  0
 33 67  1  0  0  0  0
 33 71  1  0  0  0  0
 34 43  1  0  0  0  0
 34 68  1  0  0  0  0
 34 77  2  0  0  0  0
 35 72  1  0  0  0  0
 35 78  2  0  0  0  0
 36 52  1  0  0  0  0
 36 74  1  0  0  0  0
 36 79  2  0  0  0  0
 37 63  1  0  0  0  0
 37 69  1  0  0  0  0
 37 80  2  0  0  0  0
 38 64  1  0  0  0  0
 38 75  1  0  0  0  0
 38 81  2  0  0  0  0
 39 70  1  0  0  0  0
 39 73  1  0  0  0  0
 39 82  2  0  0  0  0
 40 44  1  0  0  0  0
 41 52  1  0  0  0  0
 42 69  1  0  0  0  0
 43 54  1  0  0  0  0
 44 46  1  0  0  0  0
 45 47  1  0  0  0  0
 45 48  1  0  0  0  0
 46 51  1  0  0  0  0
 47 53  1  0  0  0  0
 48 70  1  0  0  0  0
 49 53  1  0  0  0  0
 49 70  1  0  0  0  0
 50 54  1  0  0  0  0
 50 68  1  0  0  0  0
 51 74  1  0  0  0  0
 52 69  1  0  0  0  0
 53 67  1  0  0  0  0
 54 84  1  0  0  0  0
 57 64  1  0  0  0  0
 58 65  1  0  0  0  0
 59 65  1  0  0  0  0
 60 65  1  0  0  0  0
 61 76  1  0  0  0  0
 62 68  1  0  0  0  0
 63 65  1  0  0  0  0
 63 75  1  0  0  0  0
 64 76  1  0  0  0  0
 66 67  1  0  0  0  0
M  CHG  1  76   1
M  ISO  4  39 100  54 101  73 100  84 101
M  END
> <Batch ID>
0032

> <Smiles>
CNC(C)C(=O)NC(C(=O)N1Cc2cc([101O:1][101CH:1]3CC(=O)N(Cc4cc(C)c([100NH:0][100C:0](=O)N5CCCC(n6nc(-c7ccc(Oc8ccc(F)cc8F)cc7)c(C(N)=O)c6N)C5)cc4C)C3)ccc2CC1C(=O)NC1CCCc2ccccc21)C(C)(C)C

> <Shape>
0.213

> <Color>
0.197

> <Negative vol penalty>
0.000

$$$$

  -OEChem-04042321423D

 82 90  0     1  0  0  0  0  0999 V2000
  -16.7136  -30.2697   24.0420 C   0  0  0  0  0  0  0  0  0  0  0  0
  -17.9004  -30.7937   24.5444 C   0  0  0  0  0  0  0  0  0  0  0  0
  -22.5861  -18.3389   15.4397 C   0  0  0  0  0  0  0  0  0  0  0  0
  -23.5740  -19.9035   13.8862 C   0  0  0  0  0  0  0  0  0  0  0  0
  -16.7398  -29.1242   23.2476 C   0  0  0  0  0  0  0  0  0  0  0  0
  -19.1141  -30.1718   24.2535 C   0  0  0  0  0  0  0  0  0  0  0  0
  -26.0249  -31.6743   23.1139 C   0  0  0  0  0  0  0  0  0  0  0  0
  -30.7270  -27.0715   24.3251 C   0  0  0  0  0  0  0  0  0  0  0  0
  -21.4626  -18.2343   14.6199 C   0  0  0  0  0  0  0  0  0  0  0  0
  -22.4504  -19.7988   13.0663 C   0  0  0  0  0  0  0  0  0  0  0  0
  -27.2947  -31.3029   23.5538 C   0  0  0  0  0  0  0  0  0  0  0  0
  -21.2246  -17.6233   10.7891 C   0  0  0  0  0  0  0  0  0  0  0  0
  -21.4360  -17.4771    9.4182 C   0  0  0  0  0  0  0  0  0  0  0  0
  -30.4683  -25.7150   24.5215 C   0  0  0  0  0  0  0  0  0  0  0  0
  -27.2260  -29.3750   22.1056 C   0  0  0  0  0  0  0  0  0  0  0  0
  -20.2120  -19.5201    9.0116 C   0  0  0  0  0  0  0  0  0  0  0  0
  -23.6419  -19.1736   15.0729 C   0  0  0  0  0  0  0  0  0  0  0  0
  -25.9689  -18.4959   15.8688 C   0  0  0  0  0  0  0  0  0  0  0  0
  -17.9554  -28.4935   22.9389 C   0  0  0  0  0  0  0  0  0  0  0  0
  -25.3405  -30.8916   22.1730 C   0  0  0  0  0  0  0  0  0  0  0  0
  -19.1565  -29.0160   23.4553 C   0  0  0  0  0  0  0  0  0  0  0  0
  -25.9487  -29.7400   21.6534 C   0  0  0  0  0  0  0  0  0  0  0  0
  -30.9538  -27.5590   23.0380 C   0  0  0  0  0  0  0  0  0  0  0  0
  -30.9221  -26.6899   21.9474 C   0  0  0  0  0  0  0  0  0  0  0  0
  -30.6635  -25.3334   22.1438 C   0  0  0  0  0  0  0  0  0  0  0  0
  -21.3947  -18.9641   13.4331 C   0  0  0  0  0  0  0  0  0  0  0  0
  -27.8942  -30.1515   23.0519 C   0  0  0  0  0  0  0  0  0  0  0  0
  -20.5069  -18.7179   11.2713 C   0  0  0  0  0  0  0  0  0  0  0  0
  -20.9297  -18.4255    8.5294 C   0  0  0  0  0  0  0  0  0  0  0  0
  -20.0006  -19.6663   10.3826 C   0  0  0  0  0  0  0  0  0  0  0  0
  -30.4366  -24.8459   23.4310 C   0  0  0  0  0  0  0  0  0  0  0  0
  -24.8026  -19.2826   15.9197 C   0  0  0  0  0  0  0  0  0  0  0  0
  -26.7627  -18.9933   16.8732 C   0  0  0  0  0  0  0  0  0  0  0  0
  -26.3047  -17.4124   14.9919 C   0  0  0  0  0  0  0  0  0  0  0  0
  -22.6127  -29.2597   22.1717 C   0  0  0  0  0  0  0  0  0  0  0  0
  -23.3109  -28.8515   19.0303 C   0  0  0  0  0  0  0  0  0  0  0  0
  -25.6824  -28.7559   16.5781 C   0  0  0  0  0  0  0  0  0  0  0  0
  -29.0127  -23.2348   19.4988 C   0  0  0  0  0  0  0  0  0  0  0  0
  -17.9291  -27.2304   22.1152 C   0  0  0  0  0  0  0  0  0  0  0  0
  -23.9826  -31.3203   21.6886 C   0  0  0  0  0  0  0  0  0  0  0  0
  -25.2645  -28.8763   20.6265 C   0  0  0  0  0  0  0  0  0  0  0  0
  -19.2920  -26.8471   21.5443 C   0  0  0  0  0  0  0  0  0  0  0  0
  -25.7088  -22.2491   20.5988 C   0  0  0  0  0  0  0  0  0  0  0  0
  -20.3688  -26.9476   22.6201 C   0  0  0  0  0  0  0  0  0  0  0  0
  -25.2758  -21.3182   19.4648 C   0  0  0  0  0  0  0  0  0  0  0  0
  -26.5163  -23.4295   20.0672 C   0  0  0  0  0  0  0  0  0  0  0  0
  -27.2787  -22.1161   18.1262 C   0  0  0  0  0  0  0  0  0  0  0  0
  -20.4953  -28.3842   23.1415 C   0  0  1  0  0  0  0  0  0  0  0  0
  -23.1636  -30.1702   21.1109 C   0  0  1  0  0  0  0  0  0  0  0  0
  -26.4773  -20.8904   18.6013 C   0  0  2  0  0  0  0  0  0  0  0  0
  -31.1658  -27.2167   20.5683 C   0  0  0  0  0  0  0  0  0  0  0  0
  -25.9541  -28.3620   14.1147 C   0  0  0  0  0  0  0  0  0  0  0  0
  -22.9855  -25.8507   19.4767 C   0  0  0  0  0  0  0  0  0  0  0  0
  -24.1703  -25.4696   17.3043 C   0  0  0  0  0  0  0  0  0  0  0  0
  -22.0008  -26.7004   17.3406 C   0  0  0  0  0  0  0  0  0  0  0  0
  -26.7537  -31.4802   16.1429 C   0  0  0  0  0  0  0  0  0  0  0  0
  -31.2288  -29.0279   22.8547 C   0  0  0  0  0  0  0  0  0  0  0  0
  -30.6329  -24.4115   20.9643 C   0  0  0  0  0  0  0  0  0  0  0  0
  -24.0810  -27.8287   18.2304 C   0  0  1  0  0  0  0  0  0  0  0  0
  -25.7378  -29.4002   15.2047 C   0  0  2  0  0  0  0  0  0  0  0  0
  -23.3218  -26.4774   18.1088 C   0  0  0  0  0  0  0  0  0  0  0  0
  -24.8472  -20.2092   16.8806 N   0  0  0  0  0  0  0  0  0  0  0  0
  -26.0512  -20.0079   17.4427 N   0  0  0  0  0  0  0  0  0  0  0  0
  -23.9353  -29.3340   20.1892 N   0  0  0  0  0  0  0  0  0  0  0  0
  -27.6555  -22.9537   19.2697 N   0  0  0  0  0  0  0  0  0  0  0  0
  -27.9929  -18.6573   17.3160 N   0  0  0  0  0  0  0  0  0  0  0  0
  -25.3744  -17.0297   14.0160 N   0  0  0  0  0  0  0  0  0  0  0  0
  -21.2325  -29.2002   22.2008 N   0  0  0  0  0  0  0  0  0  0  0  0
  -24.3887  -28.4585   16.9509 N   0  0  0  0  0  0  0  0  0  0  0  0
  -29.2841  -24.0407   20.5978 N   0  0  0  0  0  0  0  0  0  0  0  0
  -30.0623  -29.7391   22.3515 N   0  0  0  0  0  0  0  0  0  1  0  0
  -26.8517  -30.3881   15.1405 N   0  3  0  0  0  0  0  0  0  0  0  0
  -27.3907  -16.7910   15.0820 O   0  0  0  0  0  0  0  0  0  0  0  0
  -23.3829  -28.6548   22.9083 O   0  0  0  0  0  0  0  0  0  0  0  0
  -22.1993  -29.2143   18.6374 O   0  0  0  0  0  0  0  0  0  0  0  0
  -26.6867  -28.5349   17.2511 O   0  0  0  0  0  0  0  0  0  0  0  0
  -29.9168  -22.7955   18.7801 O   0  0  0  0  0  0  0  0  0  0  0  0
  -20.2986  -18.8621   12.6328 O   0  0  0  0  0  0  0  0  0  0  0  0
  -29.1332  -29.7864   23.4801 O   0  0  0  0  0  0  0  0  0  1  0  0
  -21.1341  -18.2857    7.2130 F   0  0  0  0  0  0  0  0  0  0  0  0
  -19.3113  -20.7205   10.8400 F   0  0  0  0  0  0  0  0  0  0  0  0
  -30.1132  -23.1742   23.7163 Cl  0  0  0  0  0  0  0  0  0  0  0  0
  1  2  1  0  0  0  0
  1  5  2  0  0  0  0
  2  6  2  0  0  0  0
  3  9  2  0  0  0  0
  3 17  1  0  0  0  0
  4 10  1  0  0  0  0
  4 17  2  0  0  0  0
  5 19  1  0  0  0  0
  6 21  1  0  0  0  0
  7 11  2  0  0  0  0
  7 20  1  0  0  0  0
  8 14  2  0  0  0  0
  8 23  1  0  0  0  0
  9 26  1  0  0  0  0
 10 26  2  0  0  0  0
 11 27  1  0  0  0  0
 12 13  2  0  0  0  0
 12 28  1  0  0  0  0
 13 29  1  0  0  0  0
 14 31  1  0  0  0  0
 15 22  1  0  0  0  0
 15 27  2  0  0  0  0
 16 29  2  0  0  0  0
 16 30  1  0  0  0  0
 17 32  1  0  0  0  0
 18 32  1  0  0  0  0
 18 33  2  0  0  0  0
 18 34  1  0  0  0  0
 19 21  2  0  0  0  0
 19 39  1  0  0  0  0
 20 22  2  0  0  0  0
 20 40  1  0  0  0  0
 21 48  1  0  0  0  0
 22 41  1  0  0  0  0
 23 24  2  0  0  0  0
 23 57  1  0  0  0  0
 24 25  1  0  0  0  0
 24 51  1  0  0  0  0
 25 31  2  0  0  0  0
 25 58  1  0  0  0  0
 26 78  1  0  0  0  0
 27 79  1  0  0  0  0
 28 30  2  0  0  0  0
 28 78  1  0  0  0  0
 29 80  1  0  0  0  0
 30 81  1  0  0  0  0
 31 82  1  0  0  0  0
 32 62  2  0  0  0  0
 33 63  1  0  0  0  0
 33 66  1  0  0  0  0
 34 67  1  0  0  0  0
 34 73  2  0  0  0  0
 35 49  1  0  0  0  0
 35 68  1  0  0  0  0
 35 74  2  0  0  0  0
 36 59  1  0  0  0  0
 36 64  1  0  0  0  0
 36 75  2  0  0  0  0
 37 60  1  0  0  0  0
 37 69  1  0  0  0  0
 37 76  2  0  0  0  0
 38 65  1  0  0  0  0
 38 70  1  0  0  0  0
 38 77  2  0  0  0  0
 39 42  1  0  0  0  0
 40 49  1  0  0  0  0
 41 64  1  0  0  0  0
 42 44  1  0  0  0  0
 43 45  1  0  0  0  0
 43 46  1  0  0  0  0
 44 48  1  0  0  0  0
 45 50  1  0  0  0  0
 46 65  1  0  0  0  0
 47 50  1  0  0  0  0
 47 65  1  0  0  0  0
 48 68  1  0  0  0  0
 49 64  1  0  0  0  0
 50 63  1  0  0  0  0
 52 60  1  0  0  0  0
 53 61  1  0  0  0  0
 54 61  1  0  0  0  0
 55 61  1  0  0  0  0
 56 72  1  0  0  0  0
 57 71  1  0  0  0  0
 58 70  1  0  0  0  0
 59 61  1  0  0  0  0
 59 69  1  0  0  0  0
 60 72  1  0  0  0  0
 62 63  1  0  0  0  0
 71 79  1  0  0  0  0
M  CHG  1  72   1
M  ISO  4  38 100  70 100  71 101  79 101
M  END
> <Batch ID>
0032

> <Smiles>
CNC(C)C(=O)NC(C(=O)N1Cc2cc([101O:1][101NH:1]Cc3ccc(Cl)c(C[100NH:0][100C:0](=O)N4CCCC(n5nc(-c6ccc(Oc7ccc(F)cc7F)cc6)c(C(N)=O)c5N)C4)c3C)ccc2CC1C(=O)NC1CCCc2ccccc21)C(C)(C)C

> <Shape>
0.175

> <Color>
0.102

> <Negative vol penalty>
0.000

$$$$

  -OEChem-04042321423D

 89 98  0     1  0  0  0  0  0999 V2000
  -39.4334  -26.2036   13.4542 C   0  0  0  0  0  0  0  0  0  0  0  0
  -39.1010  -25.5837   14.6545 C   0  0  0  0  0  0  0  0  0  0  0  0
  -23.1399   -9.7944   20.0366 C   0  0  0  0  0  0  0  0  0  0  0  0
  -23.8559   -9.9691   22.3374 C   0  0  0  0  0  0  0  0  0  0  0  0
  -38.5770  -27.1551   12.9019 C   0  0  0  0  0  0  0  0  0  0  0  0
  -37.9125  -25.9159   15.3038 C   0  0  0  0  0  0  0  0  0  0  0  0
  -35.4043  -21.8436   16.9681 C   0  0  0  0  0  0  0  0  0  0  0  0
  -22.4216   -8.6399   20.3478 C   0  0  0  0  0  0  0  0  0  0  0  0
  -23.1375   -8.8147   22.6487 C   0  0  0  0  0  0  0  0  0  0  0  0
  -35.8679  -21.2446   18.1386 C   0  0  0  0  0  0  0  0  0  0  0  0
  -19.9203   -7.9701   23.2459 C   0  0  0  0  0  0  0  0  0  0  0  0
  -19.1427   -7.9849   24.4038 C   0  0  0  0  0  0  0  0  0  0  0  0
  -34.1363  -22.3645   19.3903 C   0  0  0  0  0  0  0  0  0  0  0  0
  -31.6521  -18.7630   23.8779 C   0  0  0  0  0  0  0  0  0  0  0  0
  -31.9009  -16.9133   22.3437 C   0  0  0  0  0  0  0  0  0  0  0  0
  -20.4198   -6.1330   25.2852 C   0  0  0  0  0  0  0  0  0  0  0  0
  -23.8571  -10.4590   21.0314 C   0  0  0  0  0  0  0  0  0  0  0  0
  -24.1356  -12.9795   20.7542 C   0  0  0  0  0  0  0  0  0  0  0  0
  -37.3727  -27.4921   13.5397 C   0  0  0  0  0  0  0  0  0  0  0  0
  -34.3081  -22.7175   17.0016 C   0  0  0  0  0  0  0  0  0  0  0  0
  -37.0399  -26.8738   14.7601 C   0  0  0  0  0  0  0  0  0  0  0  0
  -33.6592  -22.9712   18.2184 C   0  0  0  0  0  0  0  0  0  0  0  0
  -32.4686  -17.8624   23.1938 C   0  0  0  0  0  0  0  0  0  0  0  0
  -30.2680  -18.7145   23.7119 C   0  0  0  0  0  0  0  0  0  0  0  0
  -29.7004  -17.7654   22.8618 C   0  0  0  0  0  0  0  0  0  0  0  0
  -30.5168  -16.8648   22.1777 C   0  0  0  0  0  0  0  0  0  0  0  0
  -22.4204   -8.1501   21.6538 C   0  0  0  0  0  0  0  0  0  0  0  0
  -35.2357  -21.5073   19.3504 C   0  0  0  0  0  0  0  0  0  0  0  0
  -20.9477   -7.0367   23.1076 C   0  0  0  0  0  0  0  0  0  0  0  0
  -19.3924   -7.0664   25.4234 C   0  0  0  0  0  0  0  0  0  0  0  0
  -21.1974   -6.1182   24.1273 C   0  0  0  0  0  0  0  0  0  0  0  0
  -24.5998  -11.6512   20.7105 C   0  0  0  0  0  0  0  0  0  0  0  0
  -25.2147  -13.7335   20.3621 C   0  0  0  0  0  0  0  0  0  0  0  0
  -36.0269  -19.0789   22.7991 C   0  0  0  0  0  0  0  0  0  0  0  0
  -36.5913  -19.3379   23.9846 C   0  0  0  0  0  0  0  0  0  0  0  0
  -22.8445  -13.4866   21.1170 C   0  0  0  0  0  0  0  0  0  0  0  0
  -33.8647  -25.7873   16.3063 C   0  0  0  0  0  0  0  0  0  0  0  0
  -30.7539  -25.0646   16.8747 C   0  0  0  0  0  0  0  0  0  0  0  0
  -28.4865  -23.0299   18.4127 C   0  0  0  0  0  0  0  0  0  0  0  0
  -30.6476  -14.9358   20.5628 C   0  0  0  0  0  0  0  0  0  0  0  0
  -36.5018  -28.5610   12.9285 C   0  0  0  0  0  0  0  0  0  0  0  0
  -33.8037  -23.3346   15.7261 C   0  0  0  0  0  0  0  0  0  0  0  0
  -32.4658  -23.8860   18.3050 C   0  0  0  0  0  0  0  0  0  0  0  0
  -36.7525  -18.9899   21.4929 C   0  0  0  0  0  0  0  0  0  0  0  0
  -35.0818  -28.5834   13.4882 C   0  0  0  0  0  0  0  0  0  0  0  0
  -29.6411  -12.3456   18.3367 C   0  0  0  0  0  0  0  0  0  0  0  0
  -35.1068  -28.5005   15.0111 C   0  0  0  0  0  0  0  0  0  0  0  0
  -28.2016  -12.0433   18.7594 C   0  0  0  0  0  0  0  0  0  0  0  0
  -30.5271  -12.6758   19.5366 C   0  0  0  0  0  0  0  0  0  0  0  0
  -28.5763  -13.4355   20.8352 C   0  0  0  0  0  0  0  0  0  0  0  0
  -34.3693  -19.0201   21.1457 C   0  0  0  0  0  0  0  0  0  0  0  0
  -35.7476  -27.1892   15.4817 C   0  0  1  0  0  0  0  0  0  0  0  0
  -32.9990  -24.6100   15.9568 C   0  0  1  0  0  0  0  0  0  0  0  0
  -27.6307  -13.1607   19.6545 C   0  0  2  0  0  0  0  0  0  0  0  0
  -35.6812  -19.5017   20.5426 C   0  0  1  0  0  0  0  0  0  1  0  0
  -29.4164  -19.6892   24.4576 C   0  0  0  0  0  0  0  0  0  0  0  0
  -26.0165  -22.7122   18.7221 C   0  0  0  0  0  0  0  0  0  0  0  0
  -30.7049  -27.3891   18.8505 C   0  0  0  0  0  0  0  0  0  0  0  0
  -28.5868  -26.4483   19.7976 C   0  0  0  0  0  0  0  0  0  0  0  0
  -28.6639  -27.1941   17.4184 C   0  0  0  0  0  0  0  0  0  0  0  0
  -28.5551  -20.3539   17.1504 C   0  0  0  0  0  0  0  0  0  0  0  0
  -33.9572  -17.9135   23.3735 C   0  0  0  0  0  0  0  0  0  0  0  0
  -29.8599  -25.0706   18.0911 C   0  0  1  0  0  0  0  0  0  0  0  0
  -27.2371  -22.3409   17.8944 C   0  0  2  0  0  0  0  0  0  0  0  0
  -28.2146  -17.7171   22.6879 C   0  0  0  0  0  0  0  0  0  0  0  0
  -29.4775  -26.5098   18.5384 C   0  0  0  0  0  0  0  0  0  0  0  0
  -25.8744  -11.5630   20.3211 N   0  0  0  0  0  0  0  0  0  0  0  0
  -26.2203  -12.8455   20.1165 N   0  0  0  0  0  0  0  0  0  0  0  0
  -32.0141  -24.4703   17.0313 N   0  0  0  0  0  0  0  0  0  0  0  0
  -29.9251  -13.7453   20.3358 N   0  0  0  0  0  0  0  0  0  0  0  0
  -25.3918  -15.0627   20.2068 N   0  0  0  0  0  0  0  0  0  0  0  0
  -21.8503  -12.5739   21.4949 N   0  0  0  0  0  0  0  0  0  0  0  0
  -29.9612  -15.8936   21.3084 N   0  0  0  0  0  0  0  0  0  0  0  0
  -34.8122  -26.0931   15.3481 N   0  0  0  0  0  0  0  0  0  0  0  0
  -28.7183  -24.2237   17.7629 N   0  0  0  0  0  0  0  0  0  0  0  0
  -34.5965  -19.0633   22.6546 N   0  3  1  0  0  0  0  0  0  0  0  0
  -27.4044  -20.8608   17.9415 N   0  3  0  0  0  0  0  0  0  0  0  0
  -22.5754  -14.7115   21.0906 O   0  0  0  0  0  0  0  0  0  0  0  0
  -33.6853  -26.3756   17.3662 O   0  0  0  0  0  0  0  0  0  0  0  0
  -30.3463  -25.5623   15.8222 O   0  0  0  0  0  0  0  0  0  0  0  0
  -29.1848  -22.5582   19.3074 O   0  0  0  0  0  0  0  0  0  0  0  0
  -31.7806  -15.1046   20.1047 O   0  0  0  0  0  0  0  0  0  0  0  0
  -21.7193   -7.0238   21.9579 O   0  0  0  0  0  0  0  0  0  0  0  0
  -35.6866  -20.9245   20.4945 O   0  0  0  0  0  0  0  0  0  1  0  0
  -18.6465   -7.0818   26.5359 F   0  0  0  0  0  0  0  0  0  0  0  0
  -22.1837   -5.2199   24.0007 F   0  0  0  0  0  0  0  0  0  0  0  0
  -27.5520  -18.6575   23.4205 F   0  0  0  0  0  0  0  0  0  0  0  0
  -27.8135  -17.9150   21.3995 F   0  0  0  0  0  0  0  0  0  0  0  0
  -27.6864  -16.5172   23.0604 F   0  0  0  0  0  0  0  0  0  0  0  0
  1  2  1  0  0  0  0
  1  5  2  0  0  0  0
  2  6  2  0  0  0  0
  3  8  2  0  0  0  0
  3 17  1  0  0  0  0
  4  9  1  0  0  0  0
  4 17  2  0  0  0  0
  5 19  1  0  0  0  0
  6 21  1  0  0  0  0
  7 10  2  0  0  0  0
  7 20  1  0  0  0  0
  8 27  1  0  0  0  0
  9 27  2  0  0  0  0
 10 28  1  0  0  0  0
 11 12  2  0  0  0  0
 11 29  1  0  0  0  0
 12 30  1  0  0  0  0
 13 22  1  0  0  0  0
 13 28  2  0  0  0  0
 14 23  1  0  0  0  0
 14 24  2  0  0  0  0
 15 23  2  0  0  0  0
 15 26  1  0  0  0  0
 16 30  2  0  0  0  0
 16 31  1  0  0  0  0
 17 32  1  0  0  0  0
 18 32  1  0  0  0  0
 18 33  2  0  0  0  0
 18 36  1  0  0  0  0
 19 21  2  0  0  0  0
 19 41  1  0  0  0  0
 20 22  2  0  0  0  0
 20 42  1  0  0  0  0
 21 52  1  0  0  0  0
 22 43  1  0  0  0  0
 23 62  1  0  0  0  0
 24 25  1  0  0  0  0
 24 56  1  0  0  0  0
 25 26  2  0  0  0  0
 25 65  1  0  0  0  0
 26 73  1  0  0  0  0
 27 83  1  0  0  0  0
 28 84  1  0  0  0  0
 29 31  2  0  0  0  0
 29 83  1  0  0  0  0
 30 85  1  0  0  0  0
 31 86  1  0  0  0  0
 32 67  2  0  0  0  0
 33 68  1  0  0  0  0
 33 71  1  0  0  0  0
 34 35  2  0  0  0  0
 34 44  1  0  0  0  0
 34 76  1  0  0  0  0
 36 72  1  0  0  0  0
 36 78  2  0  0  0  0
 37 53  1  0  0  0  0
 37 74  1  0  0  0  0
 37 79  2  0  0  0  0
 38 63  1  0  0  0  0
 38 69  1  0  0  0  0
 38 80  2  0  0  0  0
 39 64  1  0  0  0  0
 39 75  1  0  0  0  0
 39 81  2  0  0  0  0
 40 70  1  0  0  0  0
 40 73  1  0  0  0  0
 40 82  2  0  0  0  0
 41 45  1  0  0  0  0
 42 53  1  0  0  0  0
 43 69  1  0  0  0  0
 44 55  1  0  0  0  0
 45 47  1  0  0  0  0
 46 48  1  0  0  0  0
 46 49  1  0  0  0  0
 47 52  1  0  0  0  0
 48 54  1  0  0  0  0
 49 70  1  0  0  0  0
 50 54  1  0  0  0  0
 50 70  1  0  0  0  0
 51 55  1  0  0  0  0
 51 76  1  0  0  0  0
 52 74  1  0  0  0  0
 53 69  1  0  0  0  0
 54 68  1  0  0  0  0
 55 84  1  0  0  0  0
 57 64  1  0  0  0  0
 58 66  1  0  0  0  0
 59 66  1  0  0  0  0
 60 66  1  0  0  0  0
 61 77  1  0  0  0  0
 62 76  1  0  0  0  0
 63 66  1  0  0  0  0
 63 75  1  0  0  0  0
 64 77  1  0  0  0  0
 65 87  1  0  0  0  0
 65 88  1  0  0  0  0
 65 89  1  0  0  0  0
 67 68  1  0  0  0  0
M  CHG  2  76   1  77   1
M  ISO  4  40 100  55 101  73 100  84 101
M  END
> <Batch ID>
0032

> <Smiles>
C=C1C[101CH:1]([101O:1]c2ccc3c(c2)CN(C(=O)C(NC(=O)C(C)NC)C(C)(C)C)C(C(=O)NC2CCCc4ccccc42)C3)CN1Cc1cc(C)c(C(F)(F)F)c([100NH:0][100C:0](=O)N2CCCC(n3nc(-c4ccc(Oc5ccc(F)cc5F)cc4)c(C(N)=O)c3N)C2)c1

> <Shape>
0.220

> <Color>
0.198

> <Negative vol penalty>
0.000

$$$$

  -OEChem-04042321423D

 86 95  0     1  0  0  0  0  0999 V2000
  -30.7566  -36.7289   23.2939 C   0  0  0  0  0  0  0  0  0  0  0  0
  -30.8676  -35.5248   22.6060 C   0  0  0  0  0  0  0  0  0  0  0  0
  -24.6695   -9.0144   21.6714 C   0  0  0  0  0  0  0  0  0  0  0  0
  -23.6000  -10.7223   23.0041 C   0  0  0  0  0  0  0  0  0  0  0  0
  -29.8928  -36.8308   24.3836 C   0  0  0  0  0  0  0  0  0  0  0  0
  -30.1156  -34.4215   23.0082 C   0  0  0  0  0  0  0  0  0  0  0  0
  -27.7044  -30.0979   19.4028 C   0  0  0  0  0  0  0  0  0  0  0  0
  -24.1582   -8.0322   22.5196 C   0  0  0  0  0  0  0  0  0  0  0  0
  -23.0886   -9.7401   23.8523 C   0  0  0  0  0  0  0  0  0  0  0  0
  -28.1311  -28.8149   19.0628 C   0  0  0  0  0  0  0  0  0  0  0  0
  -21.2119   -6.4449   23.0016 C   0  0  0  0  0  0  0  0  0  0  0  0
  -20.6443   -5.3136   22.4155 C   0  0  0  0  0  0  0  0  0  0  0  0
  -26.7279  -27.8954   20.7962 C   0  0  0  0  0  0  0  0  0  0  0  0
  -27.2984  -21.1903   20.4288 C   0  0  0  0  0  0  0  0  0  0  0  0
  -22.2657   -3.9182   23.5385 C   0  0  0  0  0  0  0  0  0  0  0  0
  -24.3905  -10.3594   21.9136 C   0  0  0  0  0  0  0  0  0  0  0  0
  -24.3127  -11.8983   19.8806 C   0  0  0  0  0  0  0  0  0  0  0  0
  -29.1227  -35.7310   24.7933 C   0  0  0  0  0  0  0  0  0  0  0  0
  -26.7931  -30.2905   20.4511 C   0  0  0  0  0  0  0  0  0  0  0  0
  -29.2417  -34.5084   24.1052 C   0  0  0  0  0  0  0  0  0  0  0  0
  -26.2893  -29.1817   21.1459 C   0  0  0  0  0  0  0  0  0  0  0  0
  -26.4895  -21.6128   19.3740 C   0  0  0  0  0  0  0  0  0  0  0  0
  -26.0390  -20.6917   18.4283 C   0  0  0  0  0  0  0  0  0  0  0  0
  -27.2066  -18.9257   19.5922 C   0  0  0  0  0  0  0  0  0  0  0  0
  -23.3677   -8.3951   23.6101 C   0  0  0  0  0  0  0  0  0  0  0  0
  -27.6451  -27.7136   19.7614 C   0  0  0  0  0  0  0  0  0  0  0  0
  -22.3065   -6.3129   23.8561 C   0  0  0  0  0  0  0  0  0  0  0  0
  -21.1712   -4.0502   22.6839 C   0  0  0  0  0  0  0  0  0  0  0  0
  -22.8334   -5.0496   24.1245 C   0  0  0  0  0  0  0  0  0  0  0  0
  -27.6570  -19.8467   20.5379 C   0  0  0  0  0  0  0  0  0  0  0  0
  -26.3976  -19.3481   18.5374 C   0  0  0  0  0  0  0  0  0  0  0  0
  -24.9189  -11.3745   21.0381 C   0  0  0  0  0  0  0  0  0  0  0  0
  -25.2105  -12.8266   19.4129 C   0  0  0  0  0  0  0  0  0  0  0  0
  -23.0508  -11.5748   19.2817 C   0  0  0  0  0  0  0  0  0  0  0  0
  -26.8747  -31.8049   23.2446 C   0  0  0  0  0  0  0  0  0  0  0  0
  -23.7319  -31.0059   23.3277 C   0  0  0  0  0  0  0  0  0  0  0  0
  -21.2427  -28.9247   22.2698 C   0  0  0  0  0  0  0  0  0  0  0  0
  -28.7431  -17.0456   20.2639 C   0  0  0  0  0  0  0  0  0  0  0  0
  -28.2380  -35.8757   26.0063 C   0  0  0  0  0  0  0  0  0  0  0  0
  -26.3223  -31.6787   20.7880 C   0  0  0  0  0  0  0  0  0  0  0  0
  -25.2939  -29.3330   22.2660 C   0  0  0  0  0  0  0  0  0  0  0  0
  -27.1969  -34.7670   26.1366 C   0  0  0  0  0  0  0  0  0  0  0  0
  -29.9987  -13.7523   20.7686 C   0  0  0  0  0  0  0  0  0  0  0  0
  -27.8391  -33.4022   25.9093 C   0  0  0  0  0  0  0  0  0  0  0  0
  -28.7392  -12.8832   20.7885 C   0  0  0  0  0  0  0  0  0  0  0  0
  -28.8456  -24.9985   17.6920 C   0  0  0  0  0  0  0  0  0  0  0  0
  -29.7639  -15.1065   21.4355 C   0  0  0  0  0  0  0  0  0  0  0  0
  -27.3530  -14.9907   20.9425 C   0  0  0  0  0  0  0  0  0  0  0  0
  -28.3708  -23.7283   18.3685 C   0  0  0  0  0  0  0  0  0  0  0  0
  -26.4807  -25.2549   18.0579 C   0  0  0  0  0  0  0  0  0  0  0  0
  -28.4242  -33.2963   24.4957 C   0  0  1  0  0  0  0  0  0  0  0  0
  -25.7845  -31.7985   22.2106 C   0  0  1  0  0  0  0  0  0  0  0  0
  -27.5220  -13.6419   20.2243 C   0  0  2  0  0  0  0  0  0  0  0  0
  -27.7958  -26.0171   18.1016 C   0  0  1  0  0  0  0  0  0  1  0  0
  -25.1724  -21.1691   17.3039 C   0  0  0  0  0  0  0  0  0  0  0  0
  -18.7845  -28.4978   22.5389 C   0  0  0  0  0  0  0  0  0  0  0  0
  -24.2511  -29.7542   26.0615 C   0  0  0  0  0  0  0  0  0  0  0  0
  -22.0680  -28.5475   25.8461 C   0  0  0  0  0  0  0  0  0  0  0  0
  -22.1134  -31.0412   25.8924 C   0  0  0  0  0  0  0  0  0  0  0  0
  -20.7282  -29.3936   19.3933 C   0  0  0  0  0  0  0  0  0  0  0  0
  -26.1202  -23.0640   19.2808 C   0  0  0  0  0  0  0  0  0  0  0  0
  -22.9423  -29.8243   23.8370 C   0  0  1  0  0  0  0  0  0  0  0  0
  -19.8544  -29.2099   21.7259 C   0  0  2  0  0  0  0  0  0  0  0  0
  -22.8639  -29.7887   25.3895 C   0  0  0  0  0  0  0  0  0  0  0  0
  -26.1098  -11.9241   21.2903 N   0  0  0  0  0  0  0  0  0  0  0  0
  -26.2592  -12.8030   20.2846 N   0  0  0  0  0  0  0  0  0  0  0  0
  -24.8689  -30.7112   22.5621 N   0  0  0  0  0  0  0  0  0  0  0  0
  -28.5979  -15.7691   20.8472 N   0  0  0  0  0  0  0  0  0  0  0  0
  -25.1973  -13.6526   18.3452 N   0  0  0  0  0  0  0  0  0  0  0  0
  -22.2526  -10.5977   19.8919 N   0  0  0  0  0  0  0  0  0  0  0  0
  -27.5732  -17.5618   19.7076 N   0  0  0  0  0  0  0  0  0  0  0  0
  -27.3724  -33.0620   23.5297 N   0  0  0  0  0  0  0  0  0  0  0  0
  -21.6439  -29.8848   23.1744 N   0  0  0  0  0  0  0  0  0  0  0  0
  -26.8695  -23.7916   18.2112 N   0  3  2  0  0  0  0  0  0  0  0  0
  -19.7492  -28.7556   20.3105 N   0  3  0  0  0  0  0  0  0  0  0  0
  -22.6506  -12.1239   18.2272 O   0  0  0  0  0  0  0  0  0  0  0  0
  -27.2364  -30.7476   23.7476 O   0  0  0  0  0  0  0  0  0  0  0  0
  -23.3498  -32.1483   23.5931 O   0  0  0  0  0  0  0  0  0  0  0  0
  -21.9034  -27.9460   21.9292 O   0  0  0  0  0  0  0  0  0  0  0  0
  -29.8315  -17.6256   20.2342 O   0  0  0  0  0  0  0  0  0  0  0  0
  -22.8684   -7.4370   24.4378 O   0  0  0  0  0  0  0  0  0  0  0  0
  -28.0604  -26.4603   19.4320 O   0  0  0  0  0  0  0  0  0  1  0  0
  -20.6250   -2.9638   22.1222 F   0  0  0  0  0  0  0  0  0  0  0  0
  -23.8841   -4.9164   24.9456 F   0  0  0  0  0  0  0  0  0  0  0  0
  -28.6611  -19.3729   21.8627 Cl  0  0  0  0  0  0  0  0  0  0  0  0
  -25.8331  -18.2087   17.3563 Cl  0  0  0  0  0  0  0  0  0  0  0  0
  1  2  1  0  0  0  0
  1  5  2  0  0  0  0
  2  6  2  0  0  0  0
  3  8  2  0  0  0  0
  3 16  1  0  0  0  0
  4  9  1  0  0  0  0
  4 16  2  0  0  0  0
  5 18  1  0  0  0  0
  6 20  1  0  0  0  0
  7 10  2  0  0  0  0
  7 19  1  0  0  0  0
  8 25  1  0  0  0  0
  9 25  2  0  0  0  0
 10 26  1  0  0  0  0
 11 12  2  0  0  0  0
 11 27  1  0  0  0  0
 12 28  1  0  0  0  0
 13 21  1  0  0  0  0
 13 26  2  0  0  0  0
 14 22  1  0  0  0  0
 14 30  2  0  0  0  0
 15 28  2  0  0  0  0
 15 29  1  0  0  0  0
 16 32  1  0  0  0  0
 17 32  1  0  0  0  0
 17 33  2  0  0  0  0
 17 34  1  0  0  0  0
 18 20  2  0  0  0  0
 18 39  1  0  0  0  0
 19 21  2  0  0  0  0
 19 40  1  0  0  0  0
 20 51  1  0  0  0  0
 21 41  1  0  0  0  0
 22 23  2  0  0  0  0
 22 61  1  0  0  0  0
 23 31  1  0  0  0  0
 23 55  1  0  0  0  0
 24 30  1  0  0  0  0
 24 31  2  0  0  0  0
 24 71  1  0  0  0  0
 25 81  1  0  0  0  0
 26 82  1  0  0  0  0
 27 29  2  0  0  0  0
 27 81  1  0  0  0  0
 28 83  1  0  0  0  0
 29 84  1  0  0  0  0
 30 85  1  0  0  0  0
 31 86  1  0  0  0  0
 32 65  2  0  0  0  0
 33 66  1  0  0  0  0
 33 69  1  0  0  0  0
 34 70  1  0  0  0  0
 34 76  2  0  0  0  0
 35 52  1  0  0  0  0
 35 72  1  0  0  0  0
 35 77  2  0  0  0  0
 36 62  1  0  0  0  0
 36 67  1  0  0  0  0
 36 78  2  0  0  0  0
 37 63  1  0  0  0  0
 37 73  1  0  0  0  0
 37 79  2  0  0  0  0
 38 68  1  0  0  0  0
 38 71  1  0  0  0  0
 38 80  2  0  0  0  0
 39 42  1  0  0  0  0
 40 52  1  0  0  0  0
 41 67  1  0  0  0  0
 42 44  1  0  0  0  0
 43 45  1  0  0  0  0
 43 47  1  0  0  0  0
 44 51  1  0  0  0  0
 45 53  1  0  0  0  0
 46 49  1  0  0  0  0
 46 54  1  0  0  0  0
 47 68  1  0  0  0  0
 48 53  1  0  0  0  0
 48 68  1  0  0  0  0
 49 74  1  0  0  0  0
 50 54  1  0  0  0  0
 50 74  1  0  0  0  0
 51 72  1  0  0  0  0
 52 67  1  0  0  0  0
 53 66  1  0  0  0  0
 54 82  1  0  0  0  0
 56 63  1  0  0  0  0
 57 64  1  0  0  0  0
 58 64  1  0  0  0  0
 59 64  1  0  0  0  0
 60 75  1  0  0  0  0
 61 74  1  0  0  0  0
 62 64  1  0  0  0  0
 62 73  1  0  0  0  0
 63 75  1  0  0  0  0
 65 66  1  0  0  0  0
M  CHG  2  74   1  75   1
M  ISO  4  38 100  54 101  71 100  82 101
M  END
> <Batch ID>
0032

> <Smiles>
CNC(C)C(=O)NC(C(=O)N1Cc2cc([101O:1][101CH:1]3CCN(Cc4cc(Cl)c([100NH:0][100C:0](=O)N5CCCC(n6nc(-c7ccc(Oc8ccc(F)cc8F)cc7)c(C(N)=O)c6N)C5)c(Cl)c4C)C3)ccc2CC1C(=O)NC1CCCc2ccccc21)C(C)(C)C

> <Shape>
0.290

> <Color>
0.099

> <Negative vol penalty>
0.000

$$$$

  -OEChem-04042321423D

 88 97  0     1  0  0  0  0  0999 V2000
  -23.1329   -7.9325   21.0734 C   0  0  0  0  0  0  0  0  0  0  0  0
  -23.6807   -8.9003   20.2375 C   0  0  0  0  0  0  0  0  0  0  0  0
  -22.9037  -27.9730   22.0353 C   0  0  0  0  0  0  0  0  0  0  0  0
  -23.6169  -30.2773   21.8974 C   0  0  0  0  0  0  0  0  0  0  0  0
  -22.1408   -8.2835   21.9880 C   0  0  0  0  0  0  0  0  0  0  0  0
  -23.2359  -10.2196   20.3149 C   0  0  0  0  0  0  0  0  0  0  0  0
  -27.0425  -13.5591   20.2690 C   0  0  0  0  0  0  0  0  0  0  0  0
  -30.9220  -21.0599   17.0846 C   0  0  0  0  0  0  0  0  0  0  0  0
  -30.6403  -22.3481   17.5393 C   0  0  0  0  0  0  0  0  0  0  0  0
  -21.8125  -28.3574   22.8145 C   0  0  0  0  0  0  0  0  0  0  0  0
  -22.5256  -30.6617   22.6765 C   0  0  0  0  0  0  0  0  0  0  0  0
  -27.6306  -13.8374   19.0359 C   0  0  0  0  0  0  0  0  0  0  0  0
  -18.7662  -29.7407   22.3250 C   0  0  0  0  0  0  0  0  0  0  0  0
  -17.5220  -29.1930   22.0129 C   0  0  0  0  0  0  0  0  0  0  0  0
  -26.3373  -15.8681   18.8842 C   0  0  0  0  0  0  0  0  0  0  0  0
  -17.3921  -28.2283   24.2242 C   0  0  0  0  0  0  0  0  0  0  0  0
  -23.8060  -28.9330   21.5768 C   0  0  0  0  0  0  0  0  0  0  0  0
  -24.9839  -28.4372   19.3690 C   0  0  0  0  0  0  0  0  0  0  0  0
  -21.6905   -9.6097   22.0833 C   0  0  0  0  0  0  0  0  0  0  0  0
  -26.0878  -14.4292   20.8148 C   0  0  0  0  0  0  0  0  0  0  0  0
  -22.2359  -10.5884   21.2307 C   0  0  0  0  0  0  0  0  0  0  0  0
  -25.7405  -15.5999   20.1256 C   0  0  0  0  0  0  0  0  0  0  0  0
  -30.6672  -19.9599   17.9037 C   0  0  0  0  0  0  0  0  0  0  0  0
  -30.1308  -20.1481   19.1774 C   0  0  0  0  0  0  0  0  0  0  0  0
  -29.8492  -21.4364   19.6322 C   0  0  0  0  0  0  0  0  0  0  0  0
  -30.1039  -22.5364   18.8131 C   0  0  0  0  0  0  0  0  0  0  0  0
  -21.6234  -29.7017   23.1350 C   0  0  0  0  0  0  0  0  0  0  0  0
  -27.2759  -14.9905   18.3420 C   0  0  0  0  0  0  0  0  0  0  0  0
  -19.3235  -29.5321   23.5866 C   0  0  0  0  0  0  0  0  0  0  0  0
  -16.8349  -28.4368   22.9625 C   0  0  0  0  0  0  0  0  0  0  0  0
  -18.6364  -28.7759   24.5362 C   0  0  0  0  0  0  0  0  0  0  0  0
  -24.9337  -28.5365   20.7724 C   0  0  0  0  0  0  0  0  0  0  0  0
  -26.2661  -28.0251   19.0996 C   0  0  0  0  0  0  0  0  0  0  0  0
  -30.5143  -17.0054   15.6060 C   0  0  0  0  0  0  0  0  0  0  0  0
  -31.4062  -17.2291   14.6345 C   0  0  0  0  0  0  0  0  0  0  0  0
  -23.9628  -28.6945   18.3960 C   0  0  0  0  0  0  0  0  0  0  0  0
  -23.0214  -14.1786   21.6137 C   0  0  0  0  0  0  0  0  0  0  0  0
  -23.4857  -17.1664   22.7884 C   0  0  0  0  0  0  0  0  0  0  0  0
  -25.2848  -20.0652   22.7046 C   0  0  0  0  0  0  0  0  0  0  0  0
  -30.4409  -24.4136   20.4124 C   0  0  0  0  0  0  0  0  0  0  0  0
  -20.5825   -9.9320   23.0545 C   0  0  0  0  0  0  0  0  0  0  0  0
  -25.4824  -14.1283   22.1585 C   0  0  0  0  0  0  0  0  0  0  0  0
  -24.7358  -16.5767   20.6777 C   0  0  0  0  0  0  0  0  0  0  0  0
  -29.9011  -15.6826   15.9405 C   0  0  0  0  0  0  0  0  0  0  0  0
  -20.4322  -11.4253   23.3333 C   0  0  0  0  0  0  0  0  0  0  0  0
  -30.3337  -27.7056   22.0741 C   0  0  0  0  0  0  0  0  0  0  0  0
  -20.4598  -12.2171   22.0298 C   0  0  0  0  0  0  0  0  0  0  0  0
  -28.9004  -28.1690   21.8193 C   0  0  0  0  0  0  0  0  0  0  0  0
  -30.4336  -26.1847   22.1444 C   0  0  0  0  0  0  0  0  0  0  0  0
  -28.4404  -25.9539   20.6938 C   0  0  0  0  0  0  0  0  0  0  0  0
  -28.7332  -17.5108   16.9931 C   0  0  0  0  0  0  0  0  0  0  0  0
  -21.7972  -12.0350   21.3020 C   0  0  1  0  0  0  0  0  0  0  0  0
  -24.1423  -14.8231   22.3791 C   0  0  1  0  0  0  0  0  0  0  0  0
  -28.3140  -27.4802   20.5748 C   0  0  1  0  0  0  0  0  0  0  0  0
  -29.0410  -16.0278   17.1495 C   0  0  1  0  0  0  0  0  0  1  0  0
  -29.8586  -18.9664   20.0535 C   0  0  0  0  0  0  0  0  0  0  0  0
  -29.2736  -21.6360   20.9995 C   0  0  0  0  0  0  0  0  0  0  0  0
  -31.9940  -18.5664   14.3336 C   0  0  0  0  0  0  0  0  0  0  0  0
  -26.0399  -22.3577   23.3915 C   0  0  0  0  0  0  0  0  0  0  0  0
  -21.0919  -18.0589   21.1201 C   0  0  0  0  0  0  0  0  0  0  0  0
  -21.8343  -20.4273   21.4489 C   0  0  0  0  0  0  0  0  0  0  0  0
  -21.1858  -19.0404   23.4184 C   0  0  0  0  0  0  0  0  0  0  0  0
  -29.0648  -24.7691   18.3753 C   0  0  0  0  0  0  0  0  0  0  0  0
  -27.2503  -18.9686   24.6263 C   0  0  0  0  0  0  0  0  0  0  0  0
  -30.9794  -18.5852   17.3900 C   0  0  0  0  0  0  0  0  0  0  0  0
  -23.3668  -18.5645   22.2315 C   0  0  1  0  0  0  0  0  0  0  0  0
  -25.8965  -20.9034   23.8126 C   0  0  2  0  0  0  0  0  0  0  0  0
  -21.8873  -19.0036   22.0431 C   0  0  0  0  0  0  0  0  0  0  0  0
  -26.0919  -28.2134   21.3539 N   0  0  0  0  0  0  0  0  0  0  0  0
  -26.8819  -27.9069   20.3108 N   0  0  0  0  0  0  0  0  0  0  0  0
  -24.1671  -16.2351   21.9920 N   0  0  0  0  0  0  0  0  0  0  0  0
  -29.8284  -25.5533   20.9710 N   0  0  0  0  0  0  0  0  0  0  0  0
  -26.9157  -27.7558   17.9472 N   0  0  0  0  0  0  0  0  0  0  0  0
  -22.7020  -29.1108   18.8446 N   0  0  0  0  0  0  0  0  0  0  0  0
  -22.8239  -12.8458   21.9207 N   0  0  0  0  0  0  0  0  0  0  0  0
  -24.1369  -19.4256   23.1225 N   0  0  0  0  0  0  0  0  0  0  0  0
  -29.8202  -23.8788   19.2628 N   0  0  0  0  0  0  0  0  0  0  0  0
  -29.9856  -18.0964   16.3753 N   0  3  1  0  0  0  0  0  0  0  0  0
  -27.2460  -20.3827   24.1712 N   0  3  0  0  0  0  0  0  0  0  0  0
  -24.1577  -28.5434   17.1660 O   0  0  0  0  0  0  0  0  0  0  0  0
  -22.3820  -14.8417   20.8055 O   0  0  0  0  0  0  0  0  0  0  0  0
  -22.9983  -16.9118   23.8926 O   0  0  0  0  0  0  0  0  0  0  0  0
  -25.7741  -19.9886   21.5798 O   0  0  0  0  0  0  0  0  0  0  0  0
  -31.4766  -23.9312   20.8860 O   0  0  0  0  0  0  0  0  0  0  0  0
  -20.5586  -30.0771   23.8951 O   0  0  0  0  0  0  0  0  0  0  0  0
  -27.8479  -15.2642   17.1379 O   0  0  0  0  0  0  0  0  0  1  0  0
  -15.6393  -27.9123   22.6633 F   0  0  0  0  0  0  0  0  0  0  0  0
  -19.1662  -28.5731   25.7503 F   0  0  0  0  0  0  0  0  0  0  0  0
  1  2  1  0  0  0  0
  1  5  2  0  0  0  0
  2  6  2  0  0  0  0
  3 10  2  0  0  0  0
  3 17  1  0  0  0  0
  4 11  1  0  0  0  0
  4 17  2  0  0  0  0
  5 19  1  0  0  0  0
  6 21  1  0  0  0  0
  7 12  2  0  0  0  0
  7 20  1  0  0  0  0
  8  9  2  0  0  0  0
  8 23  1  0  0  0  0
  9 26  1  0  0  0  0
 10 27  1  0  0  0  0
 11 27  2  0  0  0  0
 12 28  1  0  0  0  0
 13 14  2  0  0  0  0
 13 29  1  0  0  0  0
 14 30  1  0  0  0  0
 15 22  1  0  0  0  0
 15 28  2  0  0  0  0
 16 30  2  0  0  0  0
 16 31  1  0  0  0  0
 17 32  1  0  0  0  0
 18 32  1  0  0  0  0
 18 33  2  0  0  0  0
 18 36  1  0  0  0  0
 19 21  2  0  0  0  0
 19 41  1  0  0  0  0
 20 22  2  0  0  0  0
 20 42  1  0  0  0  0
 21 52  1  0  0  0  0
 22 43  1  0  0  0  0
 23 24  2  0  0  0  0
 23 65  1  0  0  0  0
 24 25  1  0  0  0  0
 24 56  1  0  0  0  0
 25 26  2  0  0  0  0
 25 57  1  0  0  0  0
 26 77  1  0  0  0  0
 27 85  1  0  0  0  0
 28 86  1  0  0  0  0
 29 31  2  0  0  0  0
 29 85  1  0  0  0  0
 30 87  1  0  0  0  0
 31 88  1  0  0  0  0
 32 69  2  0  0  0  0
 33 70  1  0  0  0  0
 33 73  1  0  0  0  0
 34 35  2  0  0  0  0
 34 44  1  0  0  0  0
 34 78  1  0  0  0  0
 35 58  1  0  0  0  0
 36 74  1  0  0  0  0
 36 80  2  0  0  0  0
 37 53  1  0  0  0  0
 37 75  1  0  0  0  0
 37 81  2  0  0  0  0
 38 66  1  0  0  0  0
 38 71  1  0  0  0  0
 38 82  2  0  0  0  0
 39 67  1  0  0  0  0
 39 76  1  0  0  0  0
 39 83  2  0  0  0  0
 40 72  1  0  0  0  0
 40 77  1  0  0  0  0
 40 84  2  0  0  0  0
 41 45  1  0  0  0  0
 42 53  1  0  0  0  0
 43 71  1  0  0  0  0
 44 55  1  0  0  0  0
 45 47  1  0  0  0  0
 46 48  1  0  0  0  0
 46 49  1  0  0  0  0
 47 52  1  0  0  0  0
 48 54  1  0  0  0  0
 49 72  1  0  0  0  0
 50 54  1  0  0  0  0
 50 72  1  0  0  0  0
 51 55  1  0  0  0  0
 51 78  1  0  0  0  0
 52 75  1  0  0  0  0
 53 71  1  0  0  0  0
 54 70  1  0  0  0  0
 55 86  1  0  0  0  0
 59 67  1  0  0  0  0
 60 68  1  0  0  0  0
 61 68  1  0  0  0  0
 62 68  1  0  0  0  0
 63 77  1  0  0  0  0
 64 79  1  0  0  0  0
 65 78  1  0  0  0  0
 66 68  1  0  0  0  0
 66 76  1  0  0  0  0
 67 79  1  0  0  0  0
 69 70  1  0  0  0  0
M  CHG  2  78   1  79   1
M  ISO  4  40 100  55 101  77 100  86 101
M  END
> <Batch ID>
0032

> <Smiles>
CC=C1C[101CH:1]([101O:1]c2ccc3c(c2)CN(C(=O)C(NC(=O)C(C)NC)C(C)(C)C)C(C(=O)NC2CCCc4ccccc42)C3)CN1Cc1ccc([100N:0](C)[100C:0](=O)N2CCCC(n3nc(-c4ccc(Oc5ccc(F)cc5F)cc4)c(C(N)=O)c3N)C2)c(C)c1C

> <Shape>
0.243

> <Color>
0.076

> <Negative vol penalty>
0.000

$$$$

  -OEChem-04042321423D

 81 89  0     1  0  0  0  0  0999 V2000
  -16.7174  -28.6272   23.0027 C   0  0  0  0  0  0  0  0  0  0  0  0
  -17.6033  -27.5581   22.9148 C   0  0  0  0  0  0  0  0  0  0  0  0
  -23.4902   -9.6652   20.3395 C   0  0  0  0  0  0  0  0  0  0  0  0
  -23.9692  -10.1953   22.6475 C   0  0  0  0  0  0  0  0  0  0  0  0
  -17.2058  -29.9296   23.0985 C   0  0  0  0  0  0  0  0  0  0  0  0
  -18.9781  -27.7910   22.9215 C   0  0  0  0  0  0  0  0  0  0  0  0
  -23.3029  -24.2318   25.3983 C   0  0  0  0  0  0  0  0  0  0  0  0
  -22.8813   -8.4756   20.7391 C   0  0  0  0  0  0  0  0  0  0  0  0
  -23.3603   -9.0057   23.0471 C   0  0  0  0  0  0  0  0  0  0  0  0
  -24.1633  -23.2816   24.8499 C   0  0  0  0  0  0  0  0  0  0  0  0
  -20.2179   -7.8473   23.4988 C   0  0  0  0  0  0  0  0  0  0  0  0
  -19.3413   -7.9019   24.5824 C   0  0  0  0  0  0  0  0  0  0  0  0
  -25.8931  -24.9544   24.6811 C   0  0  0  0  0  0  0  0  0  0  0  0
  -28.2265  -19.7913   21.3556 C   0  0  0  0  0  0  0  0  0  0  0  0
  -27.5183  -19.6128   24.0481 C   0  0  0  0  0  0  0  0  0  0  0  0
  -20.7334   -6.3376   25.7875 C   0  0  0  0  0  0  0  0  0  0  0  0
  -24.0342  -10.5250   21.2937 C   0  0  0  0  0  0  0  0  0  0  0  0
  -24.0507  -13.0107   20.7202 C   0  0  0  0  0  0  0  0  0  0  0  0
  -18.5873  -30.1778   23.1161 C   0  0  0  0  0  0  0  0  0  0  0  0
  -23.7283  -25.5552   25.5825 C   0  0  0  0  0  0  0  0  0  0  0  0
  -19.4854  -29.0981   23.0163 C   0  0  0  0  0  0  0  0  0  0  0  0
  -25.0371  -25.9188   25.2344 C   0  0  0  0  0  0  0  0  0  0  0  0
  -27.2229  -20.6129   21.8687 C   0  0  0  0  0  0  0  0  0  0  0  0
  -28.8761  -18.8804   22.1888 C   0  0  0  0  0  0  0  0  0  0  0  0
  -26.8688  -20.5237   23.2149 C   0  0  0  0  0  0  0  0  0  0  0  0
  -22.8163   -8.1458   22.0929 C   0  0  0  0  0  0  0  0  0  0  0  0
  -25.4577  -23.6436   24.4885 C   0  0  0  0  0  0  0  0  0  0  0  0
  -21.3523   -7.0378   23.5595 C   0  0  0  0  0  0  0  0  0  0  0  0
  -19.5990   -7.1471   25.7267 C   0  0  0  0  0  0  0  0  0  0  0  0
  -21.6100   -6.2830   24.7038 C   0  0  0  0  0  0  0  0  0  0  0  0
  -28.5220  -18.7912   23.5350 C   0  0  0  0  0  0  0  0  0  0  0  0
  -24.6638  -11.7538   20.8815 C   0  0  0  0  0  0  0  0  0  0  0  0
  -25.0690  -13.8405   20.3191 C   0  0  0  0  0  0  0  0  0  0  0  0
  -22.6830  -13.3939   20.9156 C   0  0  0  0  0  0  0  0  0  0  0  0
  -22.8120  -28.3831   24.4569 C   0  0  0  0  0  0  0  0  0  0  0  0
  -24.9971  -29.4992   26.5788 C   0  0  0  0  0  0  0  0  0  0  0  0
  -27.8097  -28.9122   28.4203 C   0  0  0  0  0  0  0  0  0  0  0  0
  -30.3099  -15.6971   20.8007 C   0  0  0  0  0  0  0  0  0  0  0  0
  -19.0676  -31.6064   23.1734 C   0  0  0  0  0  0  0  0  0  0  0  0
  -22.7968  -26.5618   26.2000 C   0  0  0  0  0  0  0  0  0  0  0  0
  -25.5491  -27.3216   25.4305 C   0  0  0  0  0  0  0  0  0  0  0  0
  -20.5406  -31.7391   23.5514 C   0  0  0  0  0  0  0  0  0  0  0  0
  -29.7845  -12.7814   18.8260 C   0  0  0  0  0  0  0  0  0  0  0  0
  -21.3883  -30.7573   22.7487 C   0  0  0  0  0  0  0  0  0  0  0  0
  -28.3578  -12.3547   19.1761 C   0  0  0  0  0  0  0  0  0  0  0  0
  -30.5177  -13.3490   20.0394 C   0  0  0  0  0  0  0  0  0  0  0  0
  -28.3870  -14.0178   21.0819 C   0  0  0  0  0  0  0  0  0  0  0  0
  -20.9838  -29.3083   23.0454 C   0  0  1  0  0  0  0  0  0  0  0  0
  -23.1684  -28.0033   25.8663 C   0  0  1  0  0  0  0  0  0  0  0  0
  -27.5889  -13.4907   19.8771 C   0  0  2  0  0  0  0  0  0  0  0  0
  -26.5391  -21.5793   20.9581 C   0  0  0  0  0  0  0  0  0  0  0  0
  -29.3787  -30.0277   30.0300 C   0  0  0  0  0  0  0  0  0  0  0  0
  -26.2679  -31.0375   24.2704 C   0  0  0  0  0  0  0  0  0  0  0  0
  -28.3090  -31.3412   25.6881 C   0  0  0  0  0  0  0  0  0  0  0  0
  -26.1291  -32.3084   26.4198 C   0  0  0  0  0  0  0  0  0  0  0  0
  -27.1941  -26.9572   30.5552 C   0  0  0  0  0  0  0  0  0  0  0  0
  -29.9457  -18.0181   21.6004 C   0  0  0  0  0  0  0  0  0  0  0  0
  -25.7904  -21.3953   23.7882 C   0  0  0  0  0  0  0  0  0  1  0  0
  -26.4743  -29.8063   26.5303 C   0  0  1  0  0  0  0  0  0  0  0  0
  -28.1298  -29.1728   29.8811 C   0  0  2  0  0  0  0  0  0  0  0  0
  -26.7851  -31.0973   25.7215 C   0  0  0  0  0  0  0  0  0  0  0  0
  -25.9704  -11.7781   20.6052 N   0  0  0  0  0  0  0  0  0  0  0  0
  -26.1866  -13.0605   20.2662 N   0  0  0  0  0  0  0  0  0  0  0  0
  -24.5984  -28.2712   26.0321 N   0  0  0  0  0  0  0  0  0  0  0  0
  -29.7362  -14.4230   20.6571 N   0  0  0  0  0  0  0  0  0  0  0  0
  -25.1086  -15.1540   20.0099 N   0  0  0  0  0  0  0  0  0  0  0  0
  -21.7678  -12.4164   21.3293 N   0  0  0  0  0  0  0  0  0  0  0  0
  -21.5307  -28.8808   24.3152 N   0  0  0  0  0  0  0  0  0  0  0  0
  -26.9287  -29.8455   27.9161 N   0  0  0  0  0  0  0  0  0  0  0  0
  -29.4989  -16.6590   21.3903 N   0  0  0  0  0  0  0  0  0  0  0  0
  -28.3523  -27.8865   30.6001 N   0  3  0  0  0  0  0  0  0  0  0  0
  -22.2810  -14.5648   20.7130 O   0  0  0  0  0  0  0  0  0  0  0  0
  -23.6388  -28.2370   23.5643 O   0  0  0  0  0  0  0  0  0  0  0  0
  -24.2261  -30.3157   27.0894 O   0  0  0  0  0  0  0  0  0  0  0  0
  -28.2957  -27.9767   27.7885 O   0  0  0  0  0  0  0  0  0  0  0  0
  -31.4578  -15.9594   20.4259 O   0  0  0  0  0  0  0  0  0  0  0  0
  -22.2220   -6.9852   22.4832 O   0  0  0  0  0  0  0  0  0  0  0  0
  -26.2993  -22.7183   23.9524 O   0  0  0  0  0  0  0  0  0  1  0  0
  -18.7579   -7.2008   26.7678 F   0  0  0  0  0  0  0  0  0  0  0  0
  -22.6988   -5.5044   24.7685 F   0  0  0  0  0  0  0  0  0  0  0  0
  -29.3032  -17.6761   24.5959 Cl  0  0  0  0  0  0  0  0  0  0  0  0
  1  2  1  0  0  0  0
  1  5  2  0  0  0  0
  2  6  2  0  0  0  0
  3  8  2  0  0  0  0
  3 17  1  0  0  0  0
  4  9  1  0  0  0  0
  4 17  2  0  0  0  0
  5 19  1  0  0  0  0
  6 21  1  0  0  0  0
  7 10  2  0  0  0  0
  7 20  1  0  0  0  0
  8 26  1  0  0  0  0
  9 26  2  0  0  0  0
 10 27  1  0  0  0  0
 11 12  2  0  0  0  0
 11 28  1  0  0  0  0
 12 29  1  0  0  0  0
 13 22  1  0  0  0  0
 13 27  2  0  0  0  0
 14 23  1  0  0  0  0
 14 24  2  0  0  0  0
 15 25  1  0  0  0  0
 15 31  2  0  0  0  0
 16 29  2  0  0  0  0
 16 30  1  0  0  0  0
 17 32  1  0  0  0  0
 18 32  1  0  0  0  0
 18 33  2  0  0  0  0
 18 34  1  0  0  0  0
 19 21  2  0  0  0  0
 19 39  1  0  0  0  0
 20 22  2  0  0  0  0
 20 40  1  0  0  0  0
 21 48  1  0  0  0  0
 22 41  1  0  0  0  0
 23 25  2  0  0  0  0
 23 51  1  0  0  0  0
 24 31  1  0  0  0  0
 24 57  1  0  0  0  0
 25 58  1  0  0  0  0
 26 77  1  0  0  0  0
 27 78  1  0  0  0  0
 28 30  2  0  0  0  0
 28 77  1  0  0  0  0
 29 79  1  0  0  0  0
 30 80  1  0  0  0  0
 31 81  1  0  0  0  0
 32 62  2  0  0  0  0
 33 63  1  0  0  0  0
 33 66  1  0  0  0  0
 34 67  1  0  0  0  0
 34 72  2  0  0  0  0
 35 49  1  0  0  0  0
 35 68  1  0  0  0  0
 35 73  2  0  0  0  0
 36 59  1  0  0  0  0
 36 64  1  0  0  0  0
 36 74  2  0  0  0  0
 37 60  1  0  0  0  0
 37 69  1  0  0  0  0
 37 75  2  0  0  0  0
 38 65  1  0  0  0  0
 38 70  1  0  0  0  0
 38 76  2  0  0  0  0
 39 42  1  0  0  0  0
 40 49  1  0  0  0  0
 41 64  1  0  0  0  0
 42 44  1  0  0  0  0
 43 45  1  0  0  0  0
 43 46  1  0  0  0  0
 44 48  1  0  0  0  0
 45 50  1  0  0  0  0
 46 65  1  0  0  0  0
 47 50  1  0  0  0  0
 47 65  1  0  0  0  0
 48 68  1  0  0  0  0
 49 64  1  0  0  0  0
 50 63  1  0  0  0  0
 52 60  1  0  0  0  0
 53 61  1  0  0  0  0
 54 61  1  0  0  0  0
 55 61  1  0  0  0  0
 56 71  1  0  0  0  0
 57 70  1  0  0  0  0
 58 78  1  0  0  0  0
 59 61  1  0  0  0  0
 59 69  1  0  0  0  0
 60 71  1  0  0  0  0
 62 63  1  0  0  0  0
M  CHG  1  71   1
M  ISO  4  38 100  58 101  70 100  78 101
M  END
> <Batch ID>
0032

> <Smiles>
CNC(C)C(=O)NC(C(=O)N1Cc2cc([101O:1][101CH2:1]c3cc(Cl)c(C[100NH:0][100C:0](=O)N4CCCC(n5nc(-c6ccc(Oc7ccc(F)cc7F)cc6)c(C(N)=O)c5N)C4)cc3C)ccc2CC1C(=O)NC1CCCc2ccccc21)C(C)(C)C

> <Shape>
0.270

> <Color>
0.198

> <Negative vol penalty>
0.000

$$$$

  -OEChem-04042321423D

 85 94  0     1  0  0  0  0  0999 V2000
  -30.0677  -36.2568   22.7022 C   0  0  0  0  0  0  0  0  0  0  0  0
  -30.0541  -35.2744   21.7173 C   0  0  0  0  0  0  0  0  0  0  0  0
  -23.8305   -9.1108   20.1353 C   0  0  0  0  0  0  0  0  0  0  0  0
  -23.1761  -10.8967   21.6251 C   0  0  0  0  0  0  0  0  0  0  0  0
  -29.5634  -35.9768   23.9715 C   0  0  0  0  0  0  0  0  0  0  0  0
  -29.5371  -34.0109   22.0015 C   0  0  0  0  0  0  0  0  0  0  0  0
  -26.0146  -28.5950   18.9070 C   0  0  0  0  0  0  0  0  0  0  0  0
  -23.0137   -8.2252   20.8383 C   0  0  0  0  0  0  0  0  0  0  0  0
  -22.3593  -10.0111   22.3280 C   0  0  0  0  0  0  0  0  0  0  0  0
  -26.1050  -27.2157   18.7247 C   0  0  0  0  0  0  0  0  0  0  0  0
  -19.7206   -7.4784   21.0137 C   0  0  0  0  0  0  0  0  0  0  0  0
  -18.9087   -6.6188   20.2737 C   0  0  0  0  0  0  0  0  0  0  0  0
  -25.1882  -26.8703   20.9291 C   0  0  0  0  0  0  0  0  0  0  0  0
  -28.5565  -20.2321   18.4049 C   0  0  0  0  0  0  0  0  0  0  0  0
  -20.0076   -4.7161   21.2783 C   0  0  0  0  0  0  0  0  0  0  0  0
  -23.9118  -10.4466   20.5288 C   0  0  0  0  0  0  0  0  0  0  0  0
  -24.3967  -12.1539   18.6964 C   0  0  0  0  0  0  0  0  0  0  0  0
  -29.0311  -34.7122   24.2685 C   0  0  0  0  0  0  0  0  0  0  0  0
  -25.5196  -29.1232   20.1080 C   0  0  0  0  0  0  0  0  0  0  0  0
  -29.0264  -33.7133   23.2763 C   0  0  0  0  0  0  0  0  0  0  0  0
  -25.0901  -28.2566   21.1232 C   0  0  0  0  0  0  0  0  0  0  0  0
  -29.1765  -20.8744   19.4765 C   0  0  0  0  0  0  0  0  0  0  0  0
  -28.5211  -18.8386   18.3528 C   0  0  0  0  0  0  0  0  0  0  0  0
  -29.7613  -20.1234   20.4961 C   0  0  0  0  0  0  0  0  0  0  0  0
  -29.1059  -18.0875   19.3724 C   0  0  0  0  0  0  0  0  0  0  0  0
  -22.2781   -8.6753   21.9346 C   0  0  0  0  0  0  0  0  0  0  0  0
  -25.6946  -26.3532   19.7369 C   0  0  0  0  0  0  0  0  0  0  0  0
  -20.6760   -6.9568   21.8860 C   0  0  0  0  0  0  0  0  0  0  0  0
  -19.0522   -5.2377   20.4060 C   0  0  0  0  0  0  0  0  0  0  0  0
  -20.8195   -5.5757   22.0183 C   0  0  0  0  0  0  0  0  0  0  0  0
  -29.7259  -18.7299   20.4441 C   0  0  0  0  0  0  0  0  0  0  0  0
  -24.7558  -11.3618   19.8034 C   0  0  0  0  0  0  0  0  0  0  0  0
  -25.5434  -12.8401   18.3788 C   0  0  0  0  0  0  0  0  0  0  0  0
  -23.1391  -12.2600   18.0161 C   0  0  0  0  0  0  0  0  0  0  0  0
  -26.7097  -30.9697   22.4054 C   0  0  0  0  0  0  0  0  0  0  0  0
  -23.6662  -30.8718   23.5234 C   0  0  0  0  0  0  0  0  0  0  0  0
  -20.6750  -29.2331   23.6433 C   0  0  0  0  0  0  0  0  0  0  0  0
  -30.0225  -15.7938   19.8673 C   0  0  0  0  0  0  0  0  0  0  0  0
  -28.5406  -34.4418   25.6689 C   0  0  0  0  0  0  0  0  0  0  0  0
  -25.4035  -30.6131   20.2787 C   0  0  0  0  0  0  0  0  0  0  0  0
  -24.5324  -28.7730   22.4235 C   0  0  0  0  0  0  0  0  0  0  0  0
  -27.6676  -33.1943   25.7782 C   0  0  0  0  0  0  0  0  0  0  0  0
  -30.2968  -12.2469   20.0143 C   0  0  0  0  0  0  0  0  0  0  0  0
  -28.3085  -32.0273   25.0336 C   0  0  0  0  0  0  0  0  0  0  0  0
  -28.8502  -11.7656   19.8814 C   0  0  0  0  0  0  0  0  0  0  0  0
  -30.3936  -13.5339   20.8317 C   0  0  0  0  0  0  0  0  0  0  0  0
  -28.0823  -14.1467   20.2388 C   0  0  0  0  0  0  0  0  0  0  0  0
  -28.1167  -24.4084   20.3302 C   0  0  0  0  0  0  0  0  0  0  0  0
  -26.8493  -22.7713   20.0548 C   0  0  0  0  0  0  0  0  0  0  0  0
  -28.4512  -32.3384   23.5388 C   0  0  1  0  0  0  0  0  0  0  0  0
  -25.3640  -31.0457   21.7411 C   0  0  1  0  0  0  0  0  0  0  0  0
  -27.9274  -12.8887   19.3688 C   0  0  2  0  0  0  0  0  0  0  0  0
  -26.5933  -24.2332   20.4609 C   0  0  0  0  0  0  0  0  0  1  0  0
  -27.8500  -18.1774   17.1928 C   0  0  0  0  0  0  0  0  0  0  0  0
  -30.4299  -20.7928   21.6519 C   0  0  0  0  0  0  0  0  0  0  0  0
  -18.3897  -29.3772   24.6699 C   0  0  0  0  0  0  0  0  0  0  0  0
  -24.8104  -29.9428   26.1951 C   0  0  0  0  0  0  0  0  0  0  0  0
  -22.5078  -29.2054   26.8455 C   0  0  0  0  0  0  0  0  0  0  0  0
  -22.9588  -31.6139   26.3777 C   0  0  0  0  0  0  0  0  0  0  0  0
  -19.3670  -29.3838   20.9928 C   0  0  0  0  0  0  0  0  0  0  0  0
  -29.2019  -22.3742   19.5106 C   0  0  0  0  0  0  0  0  0  0  0  0
  -22.8995  -29.9686   24.4590 C   0  0  1  0  0  0  0  0  0  0  0  0
  -19.2497  -29.7239   23.4645 C   0  0  2  0  0  0  0  0  0  0  0  0
  -23.3064  -30.1726   25.9457 C   0  0  0  0  0  0  0  0  0  0  0  0
  -26.0308  -11.5283   20.1647 N   0  0  0  0  0  0  0  0  0  0  0  0
  -26.4830  -12.4328   19.2796 N   0  0  0  0  0  0  0  0  0  0  0  0
  -24.4448  -30.2376   22.5450 N   0  0  0  0  0  0  0  0  0  0  0  0
  -29.4955  -14.5535   20.2852 N   0  0  0  0  0  0  0  0  0  0  0  0
  -25.8295  -13.7459   17.4197 N   0  0  0  0  0  0  0  0  0  0  0  0
  -22.0648  -11.4844   18.4728 N   0  0  0  0  0  0  0  0  0  0  0  0
  -29.0787  -16.6713   19.3347 N   0  0  0  0  0  0  0  0  0  0  0  0
  -27.1787  -32.1849   22.8668 N   0  0  0  0  0  0  0  0  0  0  0  0
  -21.4857  -30.2062   24.1884 N   0  0  0  0  0  0  0  0  0  0  0  0
  -28.2486  -22.9480   20.4854 N   0  3  0  0  0  0  0  0  0  0  0  0
  -18.6364  -29.1044   22.2558 N   0  3  0  0  0  0  0  0  0  0  0  0
  -22.9775  -13.0079   17.0220 O   0  0  0  0  0  0  0  0  0  0  0  0
  -27.2795  -29.8885   22.4941 O   0  0  0  0  0  0  0  0  0  0  0  0
  -23.5719  -32.0951   23.6513 O   0  0  0  0  0  0  0  0  0  0  0  0
  -21.0326  -28.0986   23.3341 O   0  0  0  0  0  0  0  0  0  0  0  0
  -31.2271  -16.0477   19.9488 O   0  0  0  0  0  0  0  0  0  0  0  0
  -21.4808   -7.8115   22.6206 O   0  0  0  0  0  0  0  0  0  0  0  0
  -25.7824  -25.0065   19.5618 O   0  0  0  0  0  0  0  0  0  1  0  0
  -18.2714   -4.4124   19.6964 F   0  0  0  0  0  0  0  0  0  0  0  0
  -21.7348   -5.0687   22.8556 F   0  0  0  0  0  0  0  0  0  0  0  0
  -30.2890  -18.0091   21.4259 F   0  0  0  0  0  0  0  0  0  0  0  0
  1  2  1  0  0  0  0
  1  5  2  0  0  0  0
  2  6  2  0  0  0  0
  3  8  2  0  0  0  0
  3 16  1  0  0  0  0
  4  9  1  0  0  0  0
  4 16  2  0  0  0  0
  5 18  1  0  0  0  0
  6 20  1  0  0  0  0
  7 10  2  0  0  0  0
  7 19  1  0  0  0  0
  8 26  1  0  0  0  0
  9 26  2  0  0  0  0
 10 27  1  0  0  0  0
 11 12  2  0  0  0  0
 11 28  1  0  0  0  0
 12 29  1  0  0  0  0
 13 21  1  0  0  0  0
 13 27  2  0  0  0  0
 14 22  1  0  0  0  0
 14 23  2  0  0  0  0
 15 29  2  0  0  0  0
 15 30  1  0  0  0  0
 16 32  1  0  0  0  0
 17 32  1  0  0  0  0
 17 33  2  0  0  0  0
 17 34  1  0  0  0  0
 18 20  2  0  0  0  0
 18 39  1  0  0  0  0
 19 21  2  0  0  0  0
 19 40  1  0  0  0  0
 20 50  1  0  0  0  0
 21 41  1  0  0  0  0
 22 24  2  0  0  0  0
 22 61  1  0  0  0  0
 23 25  1  0  0  0  0
 23 54  1  0  0  0  0
 24 31  1  0  0  0  0
 24 55  1  0  0  0  0
 25 31  2  0  0  0  0
 25 71  1  0  0  0  0
 26 81  1  0  0  0  0
 27 82  1  0  0  0  0
 28 30  2  0  0  0  0
 28 81  1  0  0  0  0
 29 83  1  0  0  0  0
 30 84  1  0  0  0  0
 31 85  1  0  0  0  0
 32 65  2  0  0  0  0
 33 66  1  0  0  0  0
 33 69  1  0  0  0  0
 34 70  1  0  0  0  0
 34 76  2  0  0  0  0
 35 51  1  0  0  0  0
 35 72  1  0  0  0  0
 35 77  2  0  0  0  0
 36 62  1  0  0  0  0
 36 67  1  0  0  0  0
 36 78  2  0  0  0  0
 37 63  1  0  0  0  0
 37 73  1  0  0  0  0
 37 79  2  0  0  0  0
 38 68  1  0  0  0  0
 38 71  1  0  0  0  0
 38 80  2  0  0  0  0
 39 42  1  0  0  0  0
 40 51  1  0  0  0  0
 41 67  1  0  0  0  0
 42 44  1  0  0  0  0
 43 45  1  0  0  0  0
 43 46  1  0  0  0  0
 44 50  1  0  0  0  0
 45 52  1  0  0  0  0
 46 68  1  0  0  0  0
 47 52  1  0  0  0  0
 47 68  1  0  0  0  0
 48 53  1  0  0  0  0
 48 74  1  0  0  0  0
 49 53  1  0  0  0  0
 49 74  1  0  0  0  0
 50 72  1  0  0  0  0
 51 67  1  0  0  0  0
 52 66  1  0  0  0  0
 53 82  1  0  0  0  0
 56 63  1  0  0  0  0
 57 64  1  0  0  0  0
 58 64  1  0  0  0  0
 59 64  1  0  0  0  0
 60 75  1  0  0  0  0
 61 74  1  0  0  0  0
 62 64  1  0  0  0  0
 62 73  1  0  0  0  0
 63 75  1  0  0  0  0
 65 66  1  0  0  0  0
M  CHG  2  74   1  75   1
M  ISO  4  38 100  53 101  71 100  82 101
M  END
> <Batch ID>
0032

> <Smiles>
CNC(C)C(=O)NC(C(=O)N1Cc2cc([101O:1][101CH:1]3CN(Cc4cc(C)c([100NH:0][100C:0](=O)N5CCCC(n6nc(-c7ccc(Oc8ccc(F)cc8F)cc7)c(C(N)=O)c6N)C5)c(F)c4C)C3)ccc2CC1C(=O)NC1CCCc2ccccc21)C(C)(C)C

> <Shape>
0.299

> <Color>
0.095

> <Negative vol penalty>
0.000

$$$$

  -OEChem-04042321423D

 87 96  0     1  0  0  0  0  0999 V2000
  -15.3684  -33.9255   23.4980 C   0  0  0  0  0  0  0  0  0  0  0  0
  -16.6867  -34.2016   23.8462 C   0  0  0  0  0  0  0  0  0  0  0  0
  -26.9377  -13.0211   20.0346 C   0  0  0  0  0  0  0  0  0  0  0  0
  -24.9981  -13.6163   21.3464 C   0  0  0  0  0  0  0  0  0  0  0  0
  -14.9265  -32.6044   23.4380 C   0  0  0  0  0  0  0  0  0  0  0  0
  -17.5637  -33.1568   24.1356 C   0  0  0  0  0  0  0  0  0  0  0  0
  -24.4754  -31.3995   20.9471 C   0  0  0  0  0  0  0  0  0  0  0  0
  -26.7207  -11.6742   20.3248 C   0  0  0  0  0  0  0  0  0  0  0  0
  -24.7811  -12.2694   21.6367 C   0  0  0  0  0  0  0  0  0  0  0  0
  -25.6336  -30.8966   20.3540 C   0  0  0  0  0  0  0  0  0  0  0  0
  -23.4612   -9.5708   20.0887 C   0  0  0  0  0  0  0  0  0  0  0  0
  -22.1561   -9.0894   19.9859 C   0  0  0  0  0  0  0  0  0  0  0  0
  -25.0404  -28.6626   21.0650 C   0  0  0  0  0  0  0  0  0  0  0  0
  -26.7026  -24.1591   16.0462 C   0  0  0  0  0  0  0  0  0  0  0  0
  -28.6973  -24.1092   17.9959 C   0  0  0  0  0  0  0  0  0  0  0  0
  -22.1982   -8.4763   22.3224 C   0  0  0  0  0  0  0  0  0  0  0  0
  -26.0764  -13.9922   20.5454 C   0  0  0  0  0  0  0  0  0  0  0  0
  -27.4421  -16.1468   20.5562 C   0  0  0  0  0  0  0  0  0  0  0  0
  -15.8010  -31.5425   23.7175 C   0  0  0  0  0  0  0  0  0  0  0  0
  -23.5865  -30.5327   21.5888 C   0  0  0  0  0  0  0  0  0  0  0  0
  -17.1327  -31.8204   24.0806 C   0  0  0  0  0  0  0  0  0  0  0  0
  -23.8724  -29.1589   21.6500 C   0  0  0  0  0  0  0  0  0  0  0  0
  -26.8928  -25.2627   16.8777 C   0  0  0  0  0  0  0  0  0  0  0  0
  -27.5096  -23.0304   16.1897 C   0  0  0  0  0  0  0  0  0  0  0  0
  -27.8902  -25.2378   17.8525 C   0  0  0  0  0  0  0  0  0  0  0  0
  -25.6424  -11.2983   21.1258 C   0  0  0  0  0  0  0  0  0  0  0  0
  -25.9155  -29.5316   20.4130 C   0  0  0  0  0  0  0  0  0  0  0  0
  -24.1348   -9.5049   21.3084 C   0  0  0  0  0  0  0  0  0  0  0  0
  -21.5246   -8.5422   21.1027 C   0  0  0  0  0  0  0  0  0  0  0  0
  -23.5033   -8.9577   22.4253 C   0  0  0  0  0  0  0  0  0  0  0  0
  -28.5069  -23.0055   17.1645 C   0  0  0  0  0  0  0  0  0  0  0  0
  -26.3004  -15.3838   20.2464 C   0  0  0  0  0  0  0  0  0  0  0  0
  -27.1629  -17.3982   20.0637 C   0  0  0  0  0  0  0  0  0  0  0  0
  -29.2415  -27.1165   18.8513 C   0  0  0  0  0  0  0  0  0  0  0  0
  -30.2726  -27.3160   18.0177 C   0  0  0  0  0  0  0  0  0  0  0  0
  -28.6475  -15.7591   21.2289 C   0  0  0  0  0  0  0  0  0  0  0  0
  -20.3652  -30.1375   23.4712 C   0  0  0  0  0  0  0  0  0  0  0  0
  -20.5615  -27.7674   21.5336 C   0  0  0  0  0  0  0  0  0  0  0  0
  -20.9551  -25.5493   18.9718 C   0  0  0  0  0  0  0  0  0  0  0  0
  -25.2058  -20.7128   16.0228 C   0  0  0  0  0  0  0  0  0  0  0  0
  -15.2651  -30.1331   23.6856 C   0  0  0  0  0  0  0  0  0  0  0  0
  -22.3578  -31.0387   22.2946 C   0  0  0  0  0  0  0  0  0  0  0  0
  -22.9048  -28.2687   22.3809 C   0  0  0  0  0  0  0  0  0  0  0  0
  -29.1399  -27.8758   20.1564 C   0  0  0  0  0  0  0  0  0  0  0  0
  -16.3569  -29.0671   23.6420 C   0  0  0  0  0  0  0  0  0  0  0  0
  -22.8406  -19.3584   18.3138 C   0  0  0  0  0  0  0  0  0  0  0  0
  -17.4407  -29.3706   24.6716 C   0  0  0  0  0  0  0  0  0  0  0  0
  -23.6221  -18.2630   19.0414 C   0  0  0  0  0  0  0  0  0  0  0  0
  -23.2372  -19.4518   16.8420 C   0  0  0  0  0  0  0  0  0  0  0  0
  -25.4647  -18.5153   17.3268 C   0  0  0  0  0  0  0  0  0  0  0  0
  -27.0953  -26.6221   19.7431 C   0  0  0  0  0  0  0  0  0  0  0  0
  -18.1207  -30.7132   24.3775 C   0  0  1  0  0  0  0  0  0  0  0  0
  -21.1673  -30.0671   22.2050 C   0  0  1  0  0  0  0  0  0  0  0  0
  -25.1395  -18.4203   18.8273 C   0  0  2  0  0  0  0  0  0  0  0  0
  -27.6342  -27.8897   20.4163 C   0  0  2  0  0  0  0  0  0  1  0  0
  -26.0133  -26.4581   16.7036 C   0  0  0  0  0  0  0  0  0  0  0  0
  -30.4411  -26.6071   16.7173 C   0  0  0  0  0  0  0  0  0  0  0  0
  -19.8492  -23.5737   17.8895 C   0  0  0  0  0  0  0  0  0  0  0  0
  -21.4910  -25.9920   23.8331 C   0  0  0  0  0  0  0  0  0  0  0  0
  -21.2393  -24.0164   22.3159 C   0  0  0  0  0  0  0  0  0  0  0  0
  -19.2477  -25.4007   22.8991 C   0  0  0  0  0  0  0  0  0  0  0  0
  -20.6789  -26.9711   16.3909 C   0  0  0  0  0  0  0  0  0  0  0  0
  -27.2728  -21.8682   15.2801 C   0  0  0  0  0  0  0  0  0  0  0  0
  -20.9897  -26.3370   21.3240 C   0  0  1  0  0  0  0  0  0  0  0  0
  -20.0023  -25.0867   17.8843 C   0  0  2  0  0  0  0  0  0  0  0  0
  -20.7587  -25.4583   22.5858 C   0  0  0  0  0  0  0  0  0  0  0  0
  -25.3653  -16.0914   19.6069 N   0  0  0  0  0  0  0  0  0  0  0  0
  -25.9191  -17.3121   19.5108 N   0  0  0  0  0  0  0  0  0  0  0  0
  -28.0956  -26.3437   18.7015 N   0  0  0  0  0  0  0  0  0  0  0  0
  -21.5230  -28.6468   22.0460 N   0  0  0  0  0  0  0  0  0  0  0  0
  -24.6883  -19.6013   16.7084 N   0  0  0  0  0  0  0  0  0  0  0  0
  -27.8623  -18.5528   20.0541 N   0  0  0  0  0  0  0  0  0  0  0  0
  -28.7068  -15.8914   22.6229 N   0  0  0  0  0  0  0  0  0  0  0  0
  -19.0664  -30.5734   23.2910 N   0  0  0  0  0  0  0  0  0  0  0  0
  -20.2863  -25.8705   20.1341 N   0  0  0  0  0  0  0  0  0  0  0  0
  -26.5915  -20.7813   15.9475 N   0  0  0  0  0  0  0  0  0  0  0  0
  -20.5039  -25.5038   16.5444 N   0  3  0  0  0  0  0  0  0  0  0  0
  -29.6483  -15.3240   20.6103 O   0  0  0  0  0  0  0  0  0  0  0  0
  -20.8850  -29.8185   24.5341 O   0  0  0  0  0  0  0  0  0  0  0  0
  -19.4050  -28.0975   21.2566 O   0  0  0  0  0  0  0  0  0  0  0  0
  -22.1713  -25.6154   18.8079 O   0  0  0  0  0  0  0  0  0  0  0  0
  -24.4862  -21.5825   15.5201 O   0  0  0  0  0  0  0  0  0  0  0  0
  -25.4302   -9.9840   21.4091 O   0  0  0  0  0  0  0  0  0  0  0  0
  -27.0457  -29.0467   19.8281 O   0  0  0  0  0  0  0  0  0  1  0  0
  -20.2708   -8.0813   21.0042 F   0  0  0  0  0  0  0  0  0  0  0  0
  -24.1449   -8.8928   23.6000 F   0  0  0  0  0  0  0  0  0  0  0  0
  -29.5254  -21.6270   17.3698 Cl  0  0  0  0  0  0  0  0  0  0  0  0
  1  2  1  0  0  0  0
  1  5  2  0  0  0  0
  2  6  2  0  0  0  0
  3  8  2  0  0  0  0
  3 17  1  0  0  0  0
  4  9  1  0  0  0  0
  4 17  2  0  0  0  0
  5 19  1  0  0  0  0
  6 21  1  0  0  0  0
  7 10  2  0  0  0  0
  7 20  1  0  0  0  0
  8 26  1  0  0  0  0
  9 26  2  0  0  0  0
 10 27  1  0  0  0  0
 11 12  2  0  0  0  0
 11 28  1  0  0  0  0
 12 29  1  0  0  0  0
 13 22  1  0  0  0  0
 13 27  2  0  0  0  0
 14 23  1  0  0  0  0
 14 24  2  0  0  0  0
 15 25  1  0  0  0  0
 15 31  2  0  0  0  0
 16 29  2  0  0  0  0
 16 30  1  0  0  0  0
 17 32  1  0  0  0  0
 18 32  1  0  0  0  0
 18 33  2  0  0  0  0
 18 36  1  0  0  0  0
 19 21  2  0  0  0  0
 19 41  1  0  0  0  0
 20 22  2  0  0  0  0
 20 42  1  0  0  0  0
 21 52  1  0  0  0  0
 22 43  1  0  0  0  0
 23 25  2  0  0  0  0
 23 56  1  0  0  0  0
 24 31  1  0  0  0  0
 24 63  1  0  0  0  0
 25 69  1  0  0  0  0
 26 83  1  0  0  0  0
 27 84  1  0  0  0  0
 28 30  2  0  0  0  0
 28 83  1  0  0  0  0
 29 85  1  0  0  0  0
 30 86  1  0  0  0  0
 31 87  1  0  0  0  0
 32 67  2  0  0  0  0
 33 68  1  0  0  0  0
 33 72  1  0  0  0  0
 34 35  2  0  0  0  0
 34 44  1  0  0  0  0
 34 69  1  0  0  0  0
 35 57  1  0  0  0  0
 36 73  1  0  0  0  0
 36 78  2  0  0  0  0
 37 53  1  0  0  0  0
 37 74  1  0  0  0  0
 37 79  2  0  0  0  0
 38 64  1  0  0  0  0
 38 70  1  0  0  0  0
 38 80  2  0  0  0  0
 39 65  1  0  0  0  0
 39 75  1  0  0  0  0
 39 81  2  0  0  0  0
 40 71  1  0  0  0  0
 40 76  1  0  0  0  0
 40 82  2  0  0  0  0
 41 45  1  0  0  0  0
 42 53  1  0  0  0  0
 43 70  1  0  0  0  0
 44 55  1  0  0  0  0
 45 47  1  0  0  0  0
 46 48  1  0  0  0  0
 46 49  1  0  0  0  0
 47 52  1  0  0  0  0
 48 54  1  0  0  0  0
 49 71  1  0  0  0  0
 50 54  1  0  0  0  0
 50 71  1  0  0  0  0
 51 55  1  0  0  0  0
 51 69  1  0  0  0  0
 52 74  1  0  0  0  0
 53 70  1  0  0  0  0
 54 68  1  0  0  0  0
 55 84  1  0  0  0  0
 58 65  1  0  0  0  0
 59 66  1  0  0  0  0
 60 66  1  0  0  0  0
 61 66  1  0  0  0  0
 62 77  1  0  0  0  0
 63 76  1  0  0  0  0
 64 66  1  0  0  0  0
 64 75  1  0  0  0  0
 65 77  1  0  0  0  0
 67 68  1  0  0  0  0
M  CHG  1  77   1
M  ISO  4  40 100  55 101  76 100  84 101
M  END
> <Batch ID>
0032

> <Smiles>
CC=C1C[101CH:1]([101O:1]c2ccc3c(c2)CN(C(=O)C(NC(=O)C(C)NC)C(C)(C)C)C(C(=O)NC2CCCc4ccccc42)C3)CN1c1cc(Cl)c(C[100NH:0][100C:0](=O)N2CCCC(n3nc(-c4ccc(Oc5ccc(F)cc5F)cc4)c(C(N)=O)c3N)C2)cc1C

> <Shape>
0.255

> <Color>
0.054

> <Negative vol penalty>
0.000

$$$$

  -OEChem-04042321423D

 82 90  0     1  0  0  0  0  0999 V2000
  -33.6421  -29.3287   27.5841 C   0  0  0  0  0  0  0  0  0  0  0  0
  -33.9805  -28.0080   27.3074 C   0  0  0  0  0  0  0  0  0  0  0  0
  -23.0698   -9.8555   19.9482 C   0  0  0  0  0  0  0  0  0  0  0  0
  -23.8268   -9.8718   22.2425 C   0  0  0  0  0  0  0  0  0  0  0  0
  -32.5117  -29.8952   26.9967 C   0  0  0  0  0  0  0  0  0  0  0  0
  -33.1880  -27.2526   26.4439 C   0  0  0  0  0  0  0  0  0  0  0  0
  -35.0847  -22.9418   22.5291 C   0  0  0  0  0  0  0  0  0  0  0  0
  -29.8791  -17.4500   23.1200 C   0  0  0  0  0  0  0  0  0  0  0  0
  -22.3240   -8.7046   20.2024 C   0  0  0  0  0  0  0  0  0  0  0  0
  -23.0809   -8.7209   22.4967 C   0  0  0  0  0  0  0  0  0  0  0  0
  -35.1153  -21.5502   22.6089 C   0  0  0  0  0  0  0  0  0  0  0  0
  -19.8508   -7.9304   23.0986 C   0  0  0  0  0  0  0  0  0  0  0  0
  -19.0923   -7.8968   24.2687 C   0  0  0  0  0  0  0  0  0  0  0  0
  -30.4662  -18.3370   24.0224 C   0  0  0  0  0  0  0  0  0  0  0  0
  -33.0152  -21.4423   21.4269 C   0  0  0  0  0  0  0  0  0  0  0  0
  -32.0630  -16.5958   22.5388 C   0  0  0  0  0  0  0  0  0  0  0  0
  -20.3300   -5.9609   25.0155 C   0  0  0  0  0  0  0  0  0  0  0  0
  -23.8213  -10.4391   20.9682 C   0  0  0  0  0  0  0  0  0  0  0  0
  -24.1668  -12.9632   20.8372 C   0  0  0  0  0  0  0  0  0  0  0  0
  -31.7103  -29.1494   26.1179 C   0  0  0  0  0  0  0  0  0  0  0  0
  -34.0119  -23.5956   21.9061 C   0  0  0  0  0  0  0  0  0  0  0  0
  -32.0450  -27.8093   25.8451 C   0  0  0  0  0  0  0  0  0  0  0  0
  -32.9746  -22.8422   21.3382 C   0  0  0  0  0  0  0  0  0  0  0  0
  -32.6501  -17.4828   23.4412 C   0  0  0  0  0  0  0  0  0  0  0  0
  -30.6776  -16.5794   22.3783 C   0  0  0  0  0  0  0  0  0  0  0  0
  -22.3295   -8.1373   21.4766 C   0  0  0  0  0  0  0  0  0  0  0  0
  -34.0790  -20.8004   22.0603 C   0  0  0  0  0  0  0  0  0  0  0  0
  -20.8489   -6.9792   22.8869 C   0  0  0  0  0  0  0  0  0  0  0  0
  -19.3319   -6.9121   25.2272 C   0  0  0  0  0  0  0  0  0  0  0  0
  -21.0885   -5.9945   23.8454 C   0  0  0  0  0  0  0  0  0  0  0  0
  -31.8516  -18.3534   24.1830 C   0  0  0  0  0  0  0  0  0  0  0  0
  -24.5924  -11.6277   20.7061 C   0  0  0  0  0  0  0  0  0  0  0  0
  -25.2605  -13.7095   20.4719 C   0  0  0  0  0  0  0  0  0  0  0  0
  -22.8965  -13.4827   21.2521 C   0  0  0  0  0  0  0  0  0  0  0  0
  -31.7840  -25.6549   22.8546 C   0  0  0  0  0  0  0  0  0  0  0  0
  -31.0400  -25.7047   19.6977 C   0  0  0  0  0  0  0  0  0  0  0  0
  -31.1206  -24.1191   16.6767 C   0  0  0  0  0  0  0  0  0  0  0  0
  -30.7280  -14.7481   20.6490 C   0  0  0  0  0  0  0  0  0  0  0  0
  -30.4715  -29.7903   25.5440 C   0  0  0  0  0  0  0  0  0  0  0  0
  -34.0070  -25.0963   21.8048 C   0  0  0  0  0  0  0  0  0  0  0  0
  -31.8102  -23.4951   20.6408 C   0  0  0  0  0  0  0  0  0  0  0  0
  -29.8950  -29.0379   24.3475 C   0  0  0  0  0  0  0  0  0  0  0  0
  -29.6132  -12.3252   18.2902 C   0  0  0  0  0  0  0  0  0  0  0  0
  -29.8264  -27.5424   24.6400 C   0  0  0  0  0  0  0  0  0  0  0  0
  -28.1726  -12.0376   18.7192 C   0  0  0  0  0  0  0  0  0  0  0  0
  -30.5271  -12.5582   19.4920 C   0  0  0  0  0  0  0  0  0  0  0  0
  -28.6194  -13.2916   20.8675 C   0  0  0  0  0  0  0  0  0  0  0  0
  -31.2242  -26.9653   24.8943 C   0  0  1  0  0  0  0  0  0  0  0  0
  -32.6111  -25.6769   21.6004 C   0  0  1  0  0  0  0  0  0  0  0  0
  -27.6478  -13.1144   19.6892 C   0  0  2  0  0  0  0  0  0  0  0  0
  -30.3991  -24.3922   14.2888 C   0  0  0  0  0  0  0  0  0  0  0  0
  -34.8849  -16.4319   22.6791 C   0  0  0  0  0  0  0  0  0  0  0  0
  -34.5473  -17.1074   25.0472 C   0  0  0  0  0  0  0  0  0  0  0  0
  -28.1694  -25.0420   20.4918 C   0  0  0  0  0  0  0  0  0  0  0  0
  -27.7330  -24.4000   18.1116 C   0  0  0  0  0  0  0  0  0  0  0  0
  -28.3818  -26.7428   18.6707 C   0  0  0  0  0  0  0  0  0  0  0  0
  -33.9121  -24.0116   15.6995 C   0  0  0  0  0  0  0  0  0  0  0  0
  -34.7669  -18.8685   23.2646 C   0  0  0  0  0  0  0  0  0  1  0  0
  -30.1186  -24.9104   18.8038 C   0  0  1  0  0  0  0  0  0  0  0  0
  -31.5197  -24.6043   15.2948 C   0  0  2  0  0  0  0  0  0  0  0  0
  -34.1832  -17.4690   23.5888 C   0  0  0  0  0  0  0  0  0  0  0  0
  -28.6215  -25.2613   19.0342 C   0  0  0  0  0  0  0  0  0  0  0  0
  -25.8576  -11.5282   20.2899 N   0  0  0  0  0  0  0  0  0  0  0  0
  -26.2365  -12.8107   20.1562 N   0  0  0  0  0  0  0  0  0  0  0  0
  -31.8479  -24.9653   20.5731 N   0  0  0  0  0  0  0  0  0  0  0  0
  -29.9684  -13.5937   20.3640 N   0  0  0  0  0  0  0  0  0  0  0  0
  -25.4729  -15.0403   20.3932 N   0  0  0  0  0  0  0  0  0  0  0  0
  -21.8829  -12.5765   21.5922 N   0  0  0  0  0  0  0  0  0  0  0  0
  -30.0809  -15.6778   21.4624 N   0  0  0  0  0  0  0  0  0  0  0  0
  -31.9294  -26.7795   23.6443 N   0  0  0  0  0  0  0  0  0  0  0  0
  -30.5815  -25.1342   17.4385 N   0  0  0  0  0  0  0  0  0  0  0  0
  -32.7256  -23.8710   14.8165 N   0  3  0  0  0  0  0  0  0  0  0  0
  -22.6620  -14.7139   21.3036 O   0  0  0  0  0  0  0  0  0  0  0  0
  -31.0658  -24.6897   23.0879 O   0  0  0  0  0  0  0  0  0  0  0  0
  -31.0479  -26.9356   19.6170 O   0  0  0  0  0  0  0  0  0  0  0  0
  -31.2686  -22.9552   17.0425 O   0  0  0  0  0  0  0  0  0  0  0  0
  -31.8579  -14.9131   20.1821 O   0  0  0  0  0  0  0  0  0  0  0  0
  -21.6016   -7.0143   21.7251 O   0  0  0  0  0  0  0  0  0  0  0  0
  -34.1061  -19.4420   22.1374 O   0  0  0  0  0  0  0  0  0  1  0  0
  -18.6045   -6.8810   26.3515 F   0  0  0  0  0  0  0  0  0  0  0  0
  -22.0468   -5.0788   23.6481 F   0  0  0  0  0  0  0  0  0  0  0  0
  -32.5418  -19.4643   25.3094 Cl  0  0  0  0  0  0  0  0  0  0  0  0
  1  2  1  0  0  0  0
  1  5  2  0  0  0  0
  2  6  2  0  0  0  0
  3  9  2  0  0  0  0
  3 18  1  0  0  0  0
  4 10  1  0  0  0  0
  4 18  2  0  0  0  0
  5 20  1  0  0  0  0
  6 22  1  0  0  0  0
  7 11  2  0  0  0  0
  7 21  1  0  0  0  0
  8 14  2  0  0  0  0
  8 25  1  0  0  0  0
  9 26  1  0  0  0  0
 10 26  2  0  0  0  0
 11 27  1  0  0  0  0
 12 13  2  0  0  0  0
 12 28  1  0  0  0  0
 13 29  1  0  0  0  0
 14 31  1  0  0  0  0
 15 23  1  0  0  0  0
 15 27  2  0  0  0  0
 16 24  1  0  0  0  0
 16 25  2  0  0  0  0
 17 29  2  0  0  0  0
 17 30  1  0  0  0  0
 18 32  1  0  0  0  0
 19 32  1  0  0  0  0
 19 33  2  0  0  0  0
 19 34  1  0  0  0  0
 20 22  2  0  0  0  0
 20 39  1  0  0  0  0
 21 23  2  0  0  0  0
 21 40  1  0  0  0  0
 22 48  1  0  0  0  0
 23 41  1  0  0  0  0
 24 31  2  0  0  0  0
 24 61  1  0  0  0  0
 25 69  1  0  0  0  0
 26 78  1  0  0  0  0
 27 79  1  0  0  0  0
 28 30  2  0  0  0  0
 28 78  1  0  0  0  0
 29 80  1  0  0  0  0
 30 81  1  0  0  0  0
 31 82  1  0  0  0  0
 32 63  2  0  0  0  0
 33 64  1  0  0  0  0
 33 67  1  0  0  0  0
 34 68  1  0  0  0  0
 34 73  2  0  0  0  0
 35 49  1  0  0  0  0
 35 70  1  0  0  0  0
 35 74  2  0  0  0  0
 36 59  1  0  0  0  0
 36 65  1  0  0  0  0
 36 75  2  0  0  0  0
 37 60  1  0  0  0  0
 37 71  1  0  0  0  0
 37 76  2  0  0  0  0
 38 66  1  0  0  0  0
 38 69  1  0  0  0  0
 38 77  2  0  0  0  0
 39 42  1  0  0  0  0
 40 49  1  0  0  0  0
 41 65  1  0  0  0  0
 42 44  1  0  0  0  0
 43 45  1  0  0  0  0
 43 46  1  0  0  0  0
 44 48  1  0  0  0  0
 45 50  1  0  0  0  0
 46 66  1  0  0  0  0
 47 50  1  0  0  0  0
 47 66  1  0  0  0  0
 48 70  1  0  0  0  0
 49 65  1  0  0  0  0
 50 64  1  0  0  0  0
 51 60  1  0  0  0  0
 52 61  1  0  0  0  0
 53 61  1  0  0  0  0
 54 62  1  0  0  0  0
 55 62  1  0  0  0  0
 56 62  1  0  0  0  0
 57 72  1  0  0  0  0
 58 61  1  0  0  0  0
 58 79  1  0  0  0  0
 59 62  1  0  0  0  0
 59 71  1  0  0  0  0
 60 72  1  0  0  0  0
 63 64  1  0  0  0  0
M  CHG  1  72   1
M  ISO  4  38 100  58 101  69 100  79 101
M  END
> <Batch ID>
0032

> <Smiles>
CNC(C)C(=O)NC(C(=O)N1Cc2cc([101O:1][101CH2:1]C(C)(C)c3cc([100NH:0][100C:0](=O)N4CCCC(n5nc(-c6ccc(Oc7ccc(F)cc7F)cc6)c(C(N)=O)c5N)C4)ccc3Cl)ccc2CC1C(=O)NC1CCCc2ccccc21)C(C)(C)C

> <Shape>
0.219

> <Color>
0.197

> <Negative vol penalty>
0.000

$$$$

  -OEChem-04042321423D

 88 97  0     1  0  0  0  0  0999 V2000
  -29.1327  -18.1041   28.8814 C   0  0  0  0  0  0  0  0  0  0  0  0
  -28.9404  -18.7387   27.6584 C   0  0  0  0  0  0  0  0  0  0  0  0
  -23.3087  -10.2203   22.2410 C   0  0  0  0  0  0  0  0  0  0  0  0
  -23.6075   -9.5230   19.9471 C   0  0  0  0  0  0  0  0  0  0  0  0
  -28.6233  -18.6726   30.0481 C   0  0  0  0  0  0  0  0  0  0  0  0
  -28.2376  -19.9417   27.6013 C   0  0  0  0  0  0  0  0  0  0  0  0
  -30.5022  -23.3764   24.6484 C   0  0  0  0  0  0  0  0  0  0  0  0
  -22.5663   -9.0670   22.4948 C   0  0  0  0  0  0  0  0  0  0  0  0
  -22.8651   -8.3697   20.2010 C   0  0  0  0  0  0  0  0  0  0  0  0
  -30.3502  -23.2305   23.2702 C   0  0  0  0  0  0  0  0  0  0  0  0
  -19.4190   -7.9612   21.9507 C   0  0  0  0  0  0  0  0  0  0  0  0
  -18.2342   -8.1001   22.6736 C   0  0  0  0  0  0  0  0  0  0  0  0
  -28.6304  -24.9220   23.2869 C   0  0  0  0  0  0  0  0  0  0  0  0
  -31.4325  -19.3854   19.1073 C   0  0  0  0  0  0  0  0  0  0  0  0
  -29.1755  -19.7203   19.9013 C   0  0  0  0  0  0  0  0  0  0  0  0
  -19.1002   -6.6215   24.3769 C   0  0  0  0  0  0  0  0  0  0  0  0
  -23.8293  -10.4483   20.9671 C   0  0  0  0  0  0  0  0  0  0  0  0
  -24.1646  -12.9736   20.8328 C   0  0  0  0  0  0  0  0  0  0  0  0
  -27.9222  -19.8881   30.0065 C   0  0  0  0  0  0  0  0  0  0  0  0
  -29.7105  -24.2899   25.3590 C   0  0  0  0  0  0  0  0  0  0  0  0
  -27.7172  -20.5263   28.7684 C   0  0  0  0  0  0  0  0  0  0  0  0
  -28.7761  -25.0794   24.6736 C   0  0  0  0  0  0  0  0  0  0  0  0
  -30.2161  -20.0644   19.0385 C   0  0  0  0  0  0  0  0  0  0  0  0
  -30.5679  -18.0180   20.9016 C   0  0  0  0  0  0  0  0  0  0  0  0
  -22.3445   -8.1418   21.4749 C   0  0  0  0  0  0  0  0  0  0  0  0
  -29.4122  -24.0013   22.5897 C   0  0  0  0  0  0  0  0  0  0  0  0
  -20.4444   -7.1524   22.4408 C   0  0  0  0  0  0  0  0  0  0  0  0
  -18.0748   -7.4303   23.8867 C   0  0  0  0  0  0  0  0  0  0  0  0
  -31.6084  -18.3622   20.0388 C   0  0  0  0  0  0  0  0  0  0  0  0
  -20.2850   -6.4826   23.6539 C   0  0  0  0  0  0  0  0  0  0  0  0
  -29.3514  -18.6971   20.8329 C   0  0  0  0  0  0  0  0  0  0  0  0
  -24.5957  -11.6397   20.7041 C   0  0  0  0  0  0  0  0  0  0  0  0
  -25.2556  -13.7239   20.4676 C   0  0  0  0  0  0  0  0  0  0  0  0
  -22.8917  -13.4885   21.2456 C   0  0  0  0  0  0  0  0  0  0  0  0
  -27.5660  -24.0584   27.6938 C   0  0  0  0  0  0  0  0  0  0  0  0
  -27.6767  -27.2986   27.5883 C   0  0  0  0  0  0  0  0  0  0  0  0
  -28.3541  -30.1172   25.7874 C   0  0  0  0  0  0  0  0  0  0  0  0
  -30.7361  -14.7589   20.6630 C   0  0  0  0  0  0  0  0  0  0  0  0
  -27.3494  -20.4399   31.2879 C   0  0  0  0  0  0  0  0  0  0  0  0
  -29.9053  -24.4545   26.8414 C   0  0  0  0  0  0  0  0  0  0  0  0
  -27.9157  -26.0889   25.3871 C   0  0  0  0  0  0  0  0  0  0  0  0
  -26.9399  -21.9072   31.1899 C   0  0  0  0  0  0  0  0  0  0  0  0
  -29.6106  -12.3571   18.2878 C   0  0  0  0  0  0  0  0  0  0  0  0
  -26.1415  -22.1545   29.9138 C   0  0  0  0  0  0  0  0  0  0  0  0
  -28.1730  -12.0621   18.7190 C   0  0  0  0  0  0  0  0  0  0  0  0
  -30.1152  -25.2771   19.4760 C   0  0  0  0  0  0  0  0  0  0  0  0
  -29.0768  -24.8898   18.4295 C   0  0  0  0  0  0  0  0  0  0  0  0
  -30.5243  -12.5875   19.4895 C   0  0  0  0  0  0  0  0  0  0  0  0
  -28.6173  -13.3217   20.8672 C   0  0  0  0  0  0  0  0  0  0  0  0
  -30.7804  -22.8540   19.6887 C   0  0  0  0  0  0  0  0  0  0  0  0
  -26.9816  -21.8451   28.6688 C   0  0  1  0  0  0  0  0  0  0  0  0
  -28.6867  -25.0475   27.5420 C   0  0  1  0  0  0  0  0  0  0  0  0
  -27.6464  -13.1375   19.6883 C   0  0  2  0  0  0  0  0  0  0  0  0
  -30.4025  -24.1264   20.4322 C   0  0  2  0  0  0  0  0  0  1  0  0
  -29.4658  -23.6172   17.6677 C   0  0  2  0  0  0  0  0  0  0  0  0
  -28.3524  -23.2386   16.6929 C   0  0  0  0  0  0  0  0  0  0  0  0
  -28.3127  -32.6206   25.9569 C   0  0  0  0  0  0  0  0  0  0  0  0
  -24.6418  -27.2673   27.2748 C   0  0  0  0  0  0  0  0  0  0  0  0
  -24.7662  -29.6475   26.5084 C   0  0  0  0  0  0  0  0  0  0  0  0
  -25.5138  -29.0392   28.8092 C   0  0  0  0  0  0  0  0  0  0  0  0
  -31.2717  -30.3122   25.3310 C   0  0  0  0  0  0  0  0  0  0  0  0
  -30.7932  -16.9169   21.8871 C   0  0  0  0  0  0  0  0  0  0  0  0
  -30.0281  -21.1660   18.0374 C   0  0  0  0  0  0  0  0  0  0  0  0
  -26.9332  -28.3695   26.8271 C   0  0  1  0  0  0  0  0  0  0  0  0
  -29.1510  -31.3634   26.1287 C   0  0  2  0  0  0  0  0  0  0  0  0
  -25.4785  -28.5605   27.3414 C   0  0  0  0  0  0  0  0  0  0  0  0
  -25.8619  -11.5448   20.2894 N   0  0  0  0  0  0  0  0  0  0  0  0
  -26.2356  -12.8286   20.1543 N   0  0  0  0  0  0  0  0  0  0  0  0
  -28.1391  -26.2085   26.8374 N   0  0  0  0  0  0  0  0  0  0  0  0
  -29.9688  -13.6198   20.3680 N   0  0  0  0  0  0  0  0  0  0  0  0
  -25.4626  -15.0554   20.3872 N   0  0  0  0  0  0  0  0  0  0  0  0
  -21.8814  -12.5786   21.5859 N   0  0  0  0  0  0  0  0  0  0  0  0
  -27.9092  -22.9238   28.4041 N   0  0  0  0  0  0  0  0  0  0  0  0
  -27.7568  -29.5712   26.9038 N   0  0  0  0  0  0  0  0  0  0  0  0
  -30.1324  -15.6911   21.4980 N   0  0  0  0  0  0  0  0  0  0  0  0
  -29.7059  -22.4964   18.6751 N   0  3  1  0  0  0  0  0  0  0  0  0
  -30.3467  -31.4715   25.2458 N   0  3  0  0  0  0  0  0  0  0  0  0
  -22.6520  -14.7188   21.2950 O   0  0  0  0  0  0  0  0  0  0  0  0
  -26.4704  -24.3067   27.2041 O   0  0  0  0  0  0  0  0  0  0  0  0
  -27.8473  -27.4280   28.8031 O   0  0  0  0  0  0  0  0  0  0  0  0
  -28.2668  -29.6747   24.6441 O   0  0  0  0  0  0  0  0  0  0  0  0
  -31.8727  -14.9347   20.2110 O   0  0  0  0  0  0  0  0  0  0  0  0
  -21.6203   -7.0162   21.7223 O   0  0  0  0  0  0  0  0  0  0  0  0
  -29.2613  -23.8604   21.2446 O   0  0  0  0  0  0  0  0  0  1  0  0
  -16.9376   -7.5650   24.5815 F   0  0  0  0  0  0  0  0  0  0  0  0
  -32.7810  -17.7152   20.0957 F   0  0  0  0  0  0  0  0  0  0  0  0
  -21.2670   -5.7052   24.1304 F   0  0  0  0  0  0  0  0  0  0  0  0
  -28.0419  -18.2988   21.8847 Cl  0  0  0  0  0  0  0  0  0  0  0  0
  1  2  1  0  0  0  0
  1  5  2  0  0  0  0
  2  6  2  0  0  0  0
  3  8  2  0  0  0  0
  3 17  1  0  0  0  0
  4  9  1  0  0  0  0
  4 17  2  0  0  0  0
  5 19  1  0  0  0  0
  6 21  1  0  0  0  0
  7 10  2  0  0  0  0
  7 20  1  0  0  0  0
  8 25  1  0  0  0  0
  9 25  2  0  0  0  0
 10 26  1  0  0  0  0
 11 12  2  0  0  0  0
 11 27  1  0  0  0  0
 12 28  1  0  0  0  0
 13 22  1  0  0  0  0
 13 26  2  0  0  0  0
 14 23  1  0  0  0  0
 14 29  2  0  0  0  0
 15 23  2  0  0  0  0
 15 31  1  0  0  0  0
 16 28  2  0  0  0  0
 16 30  1  0  0  0  0
 17 32  1  0  0  0  0
 18 32  1  0  0  0  0
 18 33  2  0  0  0  0
 18 34  1  0  0  0  0
 19 21  2  0  0  0  0
 19 39  1  0  0  0  0
 20 22  2  0  0  0  0
 20 40  1  0  0  0  0
 21 51  1  0  0  0  0
 22 41  1  0  0  0  0
 23 63  1  0  0  0  0
 24 29  1  0  0  0  0
 24 31  2  0  0  0  0
 24 62  1  0  0  0  0
 25 83  1  0  0  0  0
 26 84  1  0  0  0  0
 27 30  2  0  0  0  0
 27 83  1  0  0  0  0
 28 85  1  0  0  0  0
 29 86  1  0  0  0  0
 30 87  1  0  0  0  0
 31 88  1  0  0  0  0
 32 67  2  0  0  0  0
 33 68  1  0  0  0  0
 33 71  1  0  0  0  0
 34 72  1  0  0  0  0
 34 78  2  0  0  0  0
 35 52  1  0  0  0  0
 35 73  1  0  0  0  0
 35 79  2  0  0  0  0
 36 64  1  0  0  0  0
 36 69  1  0  0  0  0
 36 80  2  0  0  0  0
 37 65  1  0  0  0  0
 37 74  1  0  0  0  0
 37 81  2  0  0  0  0
 38 70  1  0  0  0  0
 38 75  1  0  0  0  0
 38 82  2  0  0  0  0
 39 42  1  0  0  0  0
 40 52  1  0  0  0  0
 41 69  1  0  0  0  0
 42 44  1  0  0  0  0
 43 45  1  0  0  0  0
 43 48  1  0  0  0  0
 44 51  1  0  0  0  0
 45 53  1  0  0  0  0
 46 47  1  0  0  0  0
 46 54  1  0  0  0  0
 47 55  1  0  0  0  0
 48 70  1  0  0  0  0
 49 53  1  0  0  0  0
 49 70  1  0  0  0  0
 50 54  1  0  0  0  0
 50 76  1  0  0  0  0
 51 73  1  0  0  0  0
 52 69  1  0  0  0  0
 53 68  1  0  0  0  0
 54 84  1  0  0  0  0
 55 56  1  0  0  0  0
 55 76  1  0  0  0  0
 57 65  1  0  0  0  0
 58 66  1  0  0  0  0
 59 66  1  0  0  0  0
 60 66  1  0  0  0  0
 61 77  1  0  0  0  0
 62 75  1  0  0  0  0
 63 76  1  0  0  0  0
 64 66  1  0  0  0  0
 64 74  1  0  0  0  0
 65 77  1  0  0  0  0
 67 68  1  0  0  0  0
M  CHG  2  76   1  77   1
M  ISO  4  38 100  54 101  75 100  84 101
M  END
> <Batch ID>
0032

> <Smiles>
CNC(C)C(=O)NC(C(=O)N1Cc2cc([101O:1][101CH:1]3CCC(C)N(Cc4cc(F)c(C[100NH:0][100C:0](=O)N5CCCC(n6nc(-c7ccc(Oc8ccc(F)cc8F)cc7)c(C(N)=O)c6N)C5)c(Cl)c4)C3)ccc2CC1C(=O)NC1CCCc2ccccc21)C(C)(C)C

> <Shape>
0.237

> <Color>
0.187

> <Negative vol penalty>
0.000

$$$$

  -OEChem-04042321423D

 87 96  0     1  0  0  0  0  0999 V2000
  -28.8024  -26.2900   37.1833 C   0  0  0  0  0  0  0  0  0  0  0  0
  -28.6104  -25.6280   35.9748 C   0  0  0  0  0  0  0  0  0  0  0  0
  -22.6717  -10.1822   20.1918 C   0  0  0  0  0  0  0  0  0  0  0  0
  -24.3046   -9.4561   21.8176 C   0  0  0  0  0  0  0  0  0  0  0  0
  -30.0094  -26.9404   37.4364 C   0  0  0  0  0  0  0  0  0  0  0  0
  -29.6249  -25.6169   35.0183 C   0  0  0  0  0  0  0  0  0  0  0  0
  -30.3289  -21.0322   32.9862 C   0  0  0  0  0  0  0  0  0  0  0  0
  -21.9376   -9.0161   20.4082 C   0  0  0  0  0  0  0  0  0  0  0  0
  -23.5705   -8.2899   22.0341 C   0  0  0  0  0  0  0  0  0  0  0  0
  -29.4182  -20.6197   32.0145 C   0  0  0  0  0  0  0  0  0  0  0  0
  -20.8025   -7.3719   23.7418 C   0  0  0  0  0  0  0  0  0  0  0  0
  -20.6012   -6.9704   25.0623 C   0  0  0  0  0  0  0  0  0  0  0  0
  -30.9954  -21.2191   30.2904 C   0  0  0  0  0  0  0  0  0  0  0  0
  -32.0795  -16.5332   22.5847 C   0  0  0  0  0  0  0  0  0  0  0  0
  -21.7370   -4.8882   24.6023 C   0  0  0  0  0  0  0  0  0  0  0  0
  -23.8552  -10.4022   20.8965 C   0  0  0  0  0  0  0  0  0  0  0  0
  -24.1817  -12.9321   20.8661 C   0  0  0  0  0  0  0  0  0  0  0  0
  -31.0429  -26.9290   36.4864 C   0  0  0  0  0  0  0  0  0  0  0  0
  -31.5776  -21.5522   32.6164 C   0  0  0  0  0  0  0  0  0  0  0  0
  -30.8464  -26.2688   35.2584 C   0  0  0  0  0  0  0  0  0  0  0  0
  -31.9212  -21.6351   31.2595 C   0  0  0  0  0  0  0  0  0  0  0  0
  -30.5314  -18.2157   24.1832 C   0  0  0  0  0  0  0  0  0  0  0  0
  -29.9161  -17.3700   23.2602 C   0  0  0  0  0  0  0  0  0  0  0  0
  -31.9208  -18.2202   24.3070 C   0  0  0  0  0  0  0  0  0  0  0  0
  -30.6902  -16.5287   22.4610 C   0  0  0  0  0  0  0  0  0  0  0  0
  -22.3870   -8.0699   21.3293 C   0  0  0  0  0  0  0  0  0  0  0  0
  -29.7502  -20.7159   30.6663 C   0  0  0  0  0  0  0  0  0  0  0  0
  -21.4710   -6.5316   22.8514 C   0  0  0  0  0  0  0  0  0  0  0  0
  -21.0685   -5.7285   25.4926 C   0  0  0  0  0  0  0  0  0  0  0  0
  -21.9383   -5.2898   23.2817 C   0  0  0  0  0  0  0  0  0  0  0  0
  -32.6948  -17.3789   23.5078 C   0  0  0  0  0  0  0  0  0  0  0  0
  -24.6142  -11.6064   20.6730 C   0  0  0  0  0  0  0  0  0  0  0  0
  -25.2647  -13.7010   20.5163 C   0  0  0  0  0  0  0  0  0  0  0  0
  -22.9143  -13.4244   21.3210 C   0  0  0  0  0  0  0  0  0  0  0  0
  -33.0456  -24.3459   32.9960 C   0  0  0  0  0  0  0  0  0  0  0  0
  -35.5511  -22.7675   31.6717 C   0  0  0  0  0  0  0  0  0  0  0  0
  -36.0587  -20.4212   28.9782 C   0  0  0  0  0  0  0  0  0  0  0  0
  -30.7270  -14.7716   20.6561 C   0  0  0  0  0  0  0  0  0  0  0  0
  -32.3125  -27.6861   36.7858 C   0  0  0  0  0  0  0  0  0  0  0  0
  -32.5593  -21.9679   33.6775 C   0  0  0  0  0  0  0  0  0  0  0  0
  -33.2568  -22.1673   30.8107 C   0  0  0  0  0  0  0  0  0  0  0  0
  -33.4760  -27.3096   35.8722 C   0  0  0  0  0  0  0  0  0  0  0  0
  -29.5934  -12.4410   18.2148 C   0  0  0  0  0  0  0  0  0  0  0  0
  -28.6326  -16.9761   28.0252 C   0  0  0  0  0  0  0  0  0  0  0  0
  -33.0214  -27.2722   34.4166 C   0  0  0  0  0  0  0  0  0  0  0  0
  -28.1614  -12.1252   18.6526 C   0  0  0  0  0  0  0  0  0  0  0  0
  -28.3360  -18.0837   29.0276 C   0  0  0  0  0  0  0  0  0  0  0  0
  -30.5236  -12.6304   19.4117 C   0  0  0  0  0  0  0  0  0  0  0  0
  -28.6319  -13.2917   20.8446 C   0  0  0  0  0  0  0  0  0  0  0  0
  -28.6180  -17.4941   26.5941 C   0  0  0  0  0  0  0  0  0  0  0  0
  -29.2644  -19.7773   27.4060 C   0  0  0  0  0  0  0  0  0  0  0  0
  -31.9323  -26.2134   34.2059 C   0  0  1  0  0  0  0  0  0  0  0  0
  -33.6011  -22.9609   33.1716 C   0  0  1  0  0  0  0  0  0  0  0  0
  -27.6439  -13.1566   19.6743 C   0  0  2  0  0  0  0  0  0  0  0  0
  -29.2776  -19.2695   28.8418 C   0  0  1  0  0  0  0  0  0  1  0  0
  -28.4250  -17.3666   23.1288 C   0  0  0  0  0  0  0  0  0  0  0  0
  -32.5679  -19.1331   25.3018 C   0  0  0  0  0  0  0  0  0  0  0  0
  -37.8337  -18.6789   28.6451 C   0  0  0  0  0  0  0  0  0  0  0  0
  -36.9804  -24.9437   30.0807 C   0  0  0  0  0  0  0  0  0  0  0  0
  -37.7169  -23.1802   28.4634 C   0  0  0  0  0  0  0  0  0  0  0  0
  -38.4530  -23.0721   30.8444 C   0  0  0  0  0  0  0  0  0  0  0  0
  -34.0509  -18.2714   28.6528 C   0  0  0  0  0  0  0  0  0  0  0  0
  -29.6976  -19.1201   25.0422 C   0  0  0  0  0  0  0  0  0  0  0  0
  -36.0498  -22.5424   30.2647 C   0  0  1  0  0  0  0  0  0  0  0  0
  -36.4110  -18.9504   29.1086 C   0  0  2  0  0  0  0  0  0  0  0  0
  -37.2724  -23.4385   29.9188 C   0  0  0  0  0  0  0  0  0  0  0  0
  -25.8737  -11.5336   20.2344 N   0  0  0  0  0  0  0  0  0  0  0  0
  -26.2419  -12.8233   20.1489 N   0  0  0  0  0  0  0  0  0  0  0  0
  -34.1800  -22.5668   31.8857 N   0  0  0  0  0  0  0  0  0  0  0  0
  -29.9711  -13.6245   20.3343 N   0  0  0  0  0  0  0  0  0  0  0  0
  -25.4669  -15.0354   20.4901 N   0  0  0  0  0  0  0  0  0  0  0  0
  -21.9120  -12.4974   21.6377 N   0  0  0  0  0  0  0  0  0  0  0  0
  -30.0859  -15.6618   21.5171 N   0  0  0  0  0  0  0  0  0  0  0  0
  -32.5172  -24.8908   34.1507 N   0  0  0  0  0  0  0  0  0  0  0  0
  -36.3055  -21.1110   30.1464 N   0  0  0  0  0  0  0  0  0  0  0  0
  -29.5875  -18.6449   26.4648 N   0  3  2  0  0  0  0  0  0  0  0  0
  -35.4833  -18.1210   28.2886 N   0  3  0  0  0  0  0  0  0  0  0  0
  -22.6722  -14.6506   21.4273 O   0  0  0  0  0  0  0  0  0  0  0  0
  -33.0942  -24.8812   31.8947 O   0  0  0  0  0  0  0  0  0  0  0  0
  -36.3499  -23.1019   32.5502 O   0  0  0  0  0  0  0  0  0  0  0  0
  -35.6129  -20.9102   27.9425 O   0  0  0  0  0  0  0  0  0  0  0  0
  -31.8487  -14.9643   20.1800 O   0  0  0  0  0  0  0  0  0  0  0  0
  -21.6708   -6.9320   21.5409 O   0  0  0  0  0  0  0  0  0  0  0  0
  -28.8629  -20.3146   29.7158 O   0  0  0  0  0  0  0  0  0  1  0  0
  -20.8764   -5.3437   26.7611 F   0  0  0  0  0  0  0  0  0  0  0  0
  -22.5823   -4.4786   22.4313 F   0  0  0  0  0  0  0  0  0  0  0  0
  -34.4170  -17.3543   23.6301 Cl  0  0  0  0  0  0  0  0  0  0  0  0
  1  2  1  0  0  0  0
  1  5  2  0  0  0  0
  2  6  2  0  0  0  0
  3  8  2  0  0  0  0
  3 16  1  0  0  0  0
  4  9  1  0  0  0  0
  4 16  2  0  0  0  0
  5 18  1  0  0  0  0
  6 20  1  0  0  0  0
  7 10  2  0  0  0  0
  7 19  1  0  0  0  0
  8 26  1  0  0  0  0
  9 26  2  0  0  0  0
 10 27  1  0  0  0  0
 11 12  2  0  0  0  0
 11 28  1  0  0  0  0
 12 29  1  0  0  0  0
 13 21  1  0  0  0  0
 13 27  2  0  0  0  0
 14 25  2  0  0  0  0
 14 31  1  0  0  0  0
 15 29  2  0  0  0  0
 15 30  1  0  0  0  0
 16 32  1  0  0  0  0
 17 32  1  0  0  0  0
 17 33  2  0  0  0  0
 17 34  1  0  0  0  0
 18 20  2  0  0  0  0
 18 39  1  0  0  0  0
 19 21  2  0  0  0  0
 19 40  1  0  0  0  0
 20 52  1  0  0  0  0
 21 41  1  0  0  0  0
 22 23  2  0  0  0  0
 22 24  1  0  0  0  0
 22 63  1  0  0  0  0
 23 25  1  0  0  0  0
 23 56  1  0  0  0  0
 24 31  2  0  0  0  0
 24 57  1  0  0  0  0
 25 73  1  0  0  0  0
 26 83  1  0  0  0  0
 27 84  1  0  0  0  0
 28 30  2  0  0  0  0
 28 83  1  0  0  0  0
 29 85  1  0  0  0  0
 30 86  1  0  0  0  0
 31 87  1  0  0  0  0
 32 67  2  0  0  0  0
 33 68  1  0  0  0  0
 33 71  1  0  0  0  0
 34 72  1  0  0  0  0
 34 78  2  0  0  0  0
 35 53  1  0  0  0  0
 35 74  1  0  0  0  0
 35 79  2  0  0  0  0
 36 64  1  0  0  0  0
 36 69  1  0  0  0  0
 36 80  2  0  0  0  0
 37 65  1  0  0  0  0
 37 75  1  0  0  0  0
 37 81  2  0  0  0  0
 38 70  1  0  0  0  0
 38 73  1  0  0  0  0
 38 82  2  0  0  0  0
 39 42  1  0  0  0  0
 40 53  1  0  0  0  0
 41 69  1  0  0  0  0
 42 45  1  0  0  0  0
 43 46  1  0  0  0  0
 43 48  1  0  0  0  0
 44 47  1  0  0  0  0
 44 50  1  0  0  0  0
 45 52  1  0  0  0  0
 46 54  1  0  0  0  0
 47 55  1  0  0  0  0
 48 70  1  0  0  0  0
 49 54  1  0  0  0  0
 49 70  1  0  0  0  0
 50 76  1  0  0  0  0
 51 55  1  0  0  0  0
 51 76  1  0  0  0  0
 52 74  1  0  0  0  0
 53 69  1  0  0  0  0
 54 68  1  0  0  0  0
 55 84  1  0  0  0  0
 58 65  1  0  0  0  0
 59 66  1  0  0  0  0
 60 66  1  0  0  0  0
 61 66  1  0  0  0  0
 62 77  1  0  0  0  0
 63 76  1  0  0  0  0
 64 66  1  0  0  0  0
 64 75  1  0  0  0  0
 65 77  1  0  0  0  0
 67 68  1  0  0  0  0
M  CHG  2  76   1  77   1
M  ISO  4  38 100  55 101  73 100  84 101
M  END
> <Batch ID>
0032

> <Smiles>
CNC(C)C(=O)NC(C(=O)N1Cc2cc([101O:1][101CH:1]3CCCN(Cc4c(C)c(Cl)cc([100NH:0][100C:0](=O)N5CCCC(n6nc(-c7ccc(Oc8ccc(F)cc8F)cc7)c(C(N)=O)c6N)C5)c4C)C3)ccc2CC1C(=O)NC1CCCc2ccccc21)C(C)(C)C

> <Shape>
0.183

> <Color>
0.192

> <Negative vol penalty>
0.000

$$$$

  -OEChem-04042321423D

 87 96  0     1  0  0  0  0  0999 V2000
  -25.4809  -20.5458   28.1211 C   0  0  0  0  0  0  0  0  0  0  0  0
  -26.3887  -21.2973   27.3818 C   0  0  0  0  0  0  0  0  0  0  0  0
  -26.5012  -12.4662   21.1201 C   0  0  0  0  0  0  0  0  0  0  0  0
  -25.1359  -13.9527   19.7921 C   0  0  0  0  0  0  0  0  0  0  0  0
  -24.1485  -20.4700   27.7176 C   0  0  0  0  0  0  0  0  0  0  0  0
  -25.9647  -21.9727   26.2379 C   0  0  0  0  0  0  0  0  0  0  0  0
  -27.9948  -27.3744   24.1871 C   0  0  0  0  0  0  0  0  0  0  0  0
  -27.2548  -24.4087   18.9142 C   0  0  0  0  0  0  0  0  0  0  0  0
  -26.3377  -23.6112   19.5986 C   0  0  0  0  0  0  0  0  0  0  0  0
  -25.3648  -11.7390   21.4744 C   0  0  0  0  0  0  0  0  0  0  0  0
  -23.9996  -13.2255   20.1464 C   0  0  0  0  0  0  0  0  0  0  0  0
  -28.9251  -27.7159   23.2064 C   0  0  0  0  0  0  0  0  0  0  0  0
  -23.3745   -9.3902   20.0764 C   0  0  0  0  0  0  0  0  0  0  0  0
  -23.4530   -7.9986   20.0240 C   0  0  0  0  0  0  0  0  0  0  0  0
  -27.1354  -27.9886   21.6121 C   0  0  0  0  0  0  0  0  0  0  0  0
  -22.9493   -7.8813   22.3840 C   0  0  0  0  0  0  0  0  0  0  0  0
  -26.3867  -13.5731   20.2790 C   0  0  0  0  0  0  0  0  0  0  0  0
  -28.3991  -14.1052   18.8043 C   0  0  0  0  0  0  0  0  0  0  0  0
  -23.7059  -21.1527   26.5736 C   0  0  0  0  0  0  0  0  0  0  0  0
  -26.6264  -27.3267   23.8842 C   0  0  0  0  0  0  0  0  0  0  0  0
  -24.6254  -21.9049   25.8180 C   0  0  0  0  0  0  0  0  0  0  0  0
  -26.1896  -27.6487   22.5913 C   0  0  0  0  0  0  0  0  0  0  0  0
  -28.5725  -23.9787   18.7573 C   0  0  0  0  0  0  0  0  0  0  0  0
  -26.7383  -22.3837   20.1263 C   0  0  0  0  0  0  0  0  0  0  0  0
  -28.9730  -22.7512   19.2850 C   0  0  0  0  0  0  0  0  0  0  0  0
  -28.0559  -21.9536   19.9695 C   0  0  0  0  0  0  0  0  0  0  0  0
  -24.1140  -12.1186   20.9875 C   0  0  0  0  0  0  0  0  0  0  0  0
  -28.4958  -28.0202   21.9180 C   0  0  0  0  0  0  0  0  0  0  0  0
  -23.0834  -10.0275   21.2826 C   0  0  0  0  0  0  0  0  0  0  0  0
  -23.2404   -7.2441   21.1778 C   0  0  0  0  0  0  0  0  0  0  0  0
  -22.8708   -9.2730   22.4364 C   0  0  0  0  0  0  0  0  0  0  0  0
  -27.5601  -14.3250   19.9132 C   0  0  0  0  0  0  0  0  0  0  0  0
  -29.3619  -15.0797   18.9037 C   0  0  0  0  0  0  0  0  0  0  0  0
  -31.0609  -26.7268   18.2959 C   0  0  0  0  0  0  0  0  0  0  0  0
  -32.0095  -26.6100   17.3600 C   0  0  0  0  0  0  0  0  0  0  0  0
  -28.3155  -13.1093   17.7762 C   0  0  0  0  0  0  0  0  0  0  0  0
  -24.4037  -25.0545   23.8987 C   0  0  0  0  0  0  0  0  0  0  0  0
  -22.4206  -27.5334   23.2315 C   0  0  0  0  0  0  0  0  0  0  0  0
  -22.0386  -30.6760   21.9568 C   0  0  0  0  0  0  0  0  0  0  0  0
  -29.4553  -20.4805   21.4587 C   0  0  0  0  0  0  0  0  0  0  0  0
  -22.2662  -21.0025   26.1503 C   0  0  0  0  0  0  0  0  0  0  0  0
  -25.6333  -26.9826   24.9602 C   0  0  0  0  0  0  0  0  0  0  0  0
  -24.7299  -27.6319   22.2203 C   0  0  0  0  0  0  0  0  0  0  0  0
  -30.5459  -28.0125   18.8613 C   0  0  0  0  0  0  0  0  0  0  0  0
  -21.8166  -22.0519   25.1368 C   0  0  0  0  0  0  0  0  0  0  0  0
  -31.6532  -17.7637   22.1410 C   0  0  0  0  0  0  0  0  0  0  0  0
  -22.8514  -22.1986   24.0257 C   0  0  0  0  0  0  0  0  0  0  0  0
  -30.9322  -16.5545   21.5409 C   0  0  0  0  0  0  0  0  0  0  0  0
  -30.6737  -18.7547   22.7673 C   0  0  0  0  0  0  0  0  0  0  0  0
  -28.8635  -17.9835   21.2849 C   0  0  0  0  0  0  0  0  0  0  0  0
  -29.8671  -26.1109   20.1793 C   0  0  0  0  0  0  0  0  0  0  0  0
  -24.1984  -22.6718   24.5852 C   0  0  1  0  0  0  0  0  0  0  0  0
  -24.3088  -26.4652   24.4075 C   0  0  1  0  0  0  0  0  0  0  0  0
  -29.8037  -16.9886   20.5850 C   0  0  2  0  0  0  0  0  0  0  0  0
  -29.4548  -27.5289   19.8079 C   0  0  1  0  0  0  0  0  0  1  0  0
  -25.7326  -21.5521   20.8549 C   0  0  0  0  0  0  0  0  0  0  0  0
  -30.3889  -22.2967   19.1141 C   0  0  0  0  0  0  0  0  0  0  0  0
  -32.4949  -25.3061   16.8227 C   0  0  0  0  0  0  0  0  0  0  0  0
  -20.2926  -32.4230   21.5131 C   0  0  0  0  0  0  0  0  0  0  0  0
  -21.4364  -25.9353   20.8257 C   0  0  0  0  0  0  0  0  0  0  0  0
  -20.4449  -28.0469   19.9167 C   0  0  0  0  0  0  0  0  0  0  0  0
  -19.6394  -27.1282   22.0916 C   0  0  0  0  0  0  0  0  0  0  0  0
  -23.3710  -32.6264   23.7399 C   0  0  0  0  0  0  0  0  0  0  0  0
  -29.5381  -24.8565   18.0171 C   0  0  0  0  0  0  0  0  0  0  0  0
  -21.9271  -28.1977   21.9689 C   0  0  1  0  0  0  0  0  0  0  0  0
  -21.3278  -31.9031   22.4984 C   0  0  2  0  0  0  0  0  0  0  0  0
  -20.8897  -27.3256   21.2069 C   0  0  0  0  0  0  0  0  0  0  0  0
  -27.9554  -15.3580   20.6621 N   0  0  0  0  0  0  0  0  0  0  0  0
  -29.0533  -15.7958   20.0227 N   0  0  0  0  0  0  0  0  0  0  0  0
  -23.7982  -27.2831   23.3055 N   0  0  0  0  0  0  0  0  0  0  0  0
  -29.6356  -19.1240   21.8025 N   0  0  0  0  0  0  0  0  0  0  0  0
  -30.4339  -15.3852   18.1423 N   0  0  0  0  0  0  0  0  0  0  0  0
  -27.2629  -12.1852   17.8253 N   0  0  0  0  0  0  0  0  0  0  0  0
  -28.4611  -20.7070   20.5075 N   0  0  0  0  0  0  0  0  0  0  0  0
  -24.1606  -24.0922   24.8601 N   0  0  0  0  0  0  0  0  0  0  0  0
  -21.4277  -29.5096   22.3664 N   0  0  0  0  0  0  0  0  0  0  0  0
  -30.5081  -25.5595   18.9231 N   0  3  1  0  0  0  0  0  0  0  0  0
  -22.3083  -32.9925   22.7685 N   0  3  0  0  0  0  0  0  0  0  0  0
  -29.1589  -13.0308   16.8510 O   0  0  0  0  0  0  0  0  0  0  0  0
  -24.6757  -24.8541   22.7208 O   0  0  0  0  0  0  0  0  0  0  0  0
  -21.6146  -27.2535   24.1224 O   0  0  0  0  0  0  0  0  0  0  0  0
  -23.0338  -30.7452   21.2389 O   0  0  0  0  0  0  0  0  0  0  0  0
  -30.1515  -21.3725   21.9501 O   0  0  0  0  0  0  0  0  0  0  0  0
  -23.0050  -11.4091   21.3328 O   0  0  0  0  0  0  0  0  0  0  0  0
  -29.4018  -28.3533   20.9587 O   0  0  0  0  0  0  0  0  0  1  0  0
  -23.3143   -5.9077   21.1270 F   0  0  0  0  0  0  0  0  0  0  0  0
  -22.5896   -9.8795   23.5978 F   0  0  0  0  0  0  0  0  0  0  0  0
  1  2  1  0  0  0  0
  1  5  2  0  0  0  0
  2  6  2  0  0  0  0
  3 10  2  0  0  0  0
  3 17  1  0  0  0  0
  4 11  1  0  0  0  0
  4 17  2  0  0  0  0
  5 19  1  0  0  0  0
  6 21  1  0  0  0  0
  7 12  2  0  0  0  0
  7 20  1  0  0  0  0
  8  9  2  0  0  0  0
  8 23  1  0  0  0  0
  9 24  1  0  0  0  0
 10 27  1  0  0  0  0
 11 27  2  0  0  0  0
 12 28  1  0  0  0  0
 13 14  2  0  0  0  0
 13 29  1  0  0  0  0
 14 30  1  0  0  0  0
 15 22  1  0  0  0  0
 15 28  2  0  0  0  0
 16 30  2  0  0  0  0
 16 31  1  0  0  0  0
 17 32  1  0  0  0  0
 18 32  1  0  0  0  0
 18 33  2  0  0  0  0
 18 36  1  0  0  0  0
 19 21  2  0  0  0  0
 19 41  1  0  0  0  0
 20 22  2  0  0  0  0
 20 42  1  0  0  0  0
 21 52  1  0  0  0  0
 22 43  1  0  0  0  0
 23 25  2  0  0  0  0
 23 64  1  0  0  0  0
 24 26  2  0  0  0  0
 24 56  1  0  0  0  0
 25 26  1  0  0  0  0
 25 57  1  0  0  0  0
 26 74  1  0  0  0  0
 27 84  1  0  0  0  0
 28 85  1  0  0  0  0
 29 31  2  0  0  0  0
 29 84  1  0  0  0  0
 30 86  1  0  0  0  0
 31 87  1  0  0  0  0
 32 68  2  0  0  0  0
 33 69  1  0  0  0  0
 33 72  1  0  0  0  0
 34 35  2  0  0  0  0
 34 44  1  0  0  0  0
 34 77  1  0  0  0  0
 35 58  1  0  0  0  0
 36 73  1  0  0  0  0
 36 79  2  0  0  0  0
 37 53  1  0  0  0  0
 37 75  1  0  0  0  0
 37 80  2  0  0  0  0
 38 65  1  0  0  0  0
 38 70  1  0  0  0  0
 38 81  2  0  0  0  0
 39 66  1  0  0  0  0
 39 76  1  0  0  0  0
 39 82  2  0  0  0  0
 40 71  1  0  0  0  0
 40 74  1  0  0  0  0
 40 83  2  0  0  0  0
 41 45  1  0  0  0  0
 42 53  1  0  0  0  0
 43 70  1  0  0  0  0
 44 55  1  0  0  0  0
 45 47  1  0  0  0  0
 46 48  1  0  0  0  0
 46 49  1  0  0  0  0
 47 52  1  0  0  0  0
 48 54  1  0  0  0  0
 49 71  1  0  0  0  0
 50 54  1  0  0  0  0
 50 71  1  0  0  0  0
 51 55  1  0  0  0  0
 51 77  1  0  0  0  0
 52 75  1  0  0  0  0
 53 70  1  0  0  0  0
 54 69  1  0  0  0  0
 55 85  1  0  0  0  0
 59 66  1  0  0  0  0
 60 67  1  0  0  0  0
 61 67  1  0  0  0  0
 62 67  1  0  0  0  0
 63 78  1  0  0  0  0
 64 77  1  0  0  0  0
 65 67  1  0  0  0  0
 65 76  1  0  0  0  0
 66 78  1  0  0  0  0
 68 69  1  0  0  0  0
M  CHG  2  77   1  78   1
M  ISO  4  40 100  55 101  74 100  85 101
M  END
> <Batch ID>
0032

> <Smiles>
CC=C1C[101CH:1]([101O:1]c2ccc3c(c2)CN(C(=O)C(NC(=O)C(C)NC)C(C)(C)C)C(C(=O)NC2CCCc4ccccc42)C3)CN1Cc1ccc(C)c([100NH:0][100C:0](=O)N2CCCC(n3nc(-c4ccc(Oc5ccc(F)cc5F)cc4)c(C(N)=O)c3N)C2)c1C

> <Shape>
0.261

> <Color>
0.048

> <Negative vol penalty>
0.000

$$$$

  -OEChem-04042321423D

 87 96  0     1  0  0  0  0  0999 V2000
  -25.5998  -37.4508   21.1668 C   0  0  0  0  0  0  0  0  0  0  0  0
  -26.2700  -36.3251   20.6987 C   0  0  0  0  0  0  0  0  0  0  0  0
  -26.2409  -12.2239   21.4189 C   0  0  0  0  0  0  0  0  0  0  0  0
  -25.7775  -13.1387   19.2314 C   0  0  0  0  0  0  0  0  0  0  0  0
  -24.8696  -37.3830   22.3526 C   0  0  0  0  0  0  0  0  0  0  0  0
  -26.2113  -35.1312   21.4168 C   0  0  0  0  0  0  0  0  0  0  0  0
  -26.1415  -29.4539   19.1212 C   0  0  0  0  0  0  0  0  0  0  0  0
  -24.8846  -11.9477   21.5908 C   0  0  0  0  0  0  0  0  0  0  0  0
  -24.4211  -12.8625   19.4032 C   0  0  0  0  0  0  0  0  0  0  0  0
  -27.1428  -28.4991   18.9498 C   0  0  0  0  0  0  0  0  0  0  0  0
  -22.6737   -9.5970   20.5813 C   0  0  0  0  0  0  0  0  0  0  0  0
  -22.3265   -8.3476   21.0952 C   0  0  0  0  0  0  0  0  0  0  0  0
  -26.5084  -27.4679   21.0362 C   0  0  0  0  0  0  0  0  0  0  0  0
  -30.6562  -21.1678   18.0350 C   0  0  0  0  0  0  0  0  0  0  0  0
  -21.2446   -9.4196   22.9707 C   0  0  0  0  0  0  0  0  0  0  0  0
  -26.6874  -12.8194   20.2392 C   0  0  0  0  0  0  0  0  0  0  0  0
  -29.0642  -12.2597   19.5007 C   0  0  0  0  0  0  0  0  0  0  0  0
  -24.7940  -36.1851   23.0806 C   0  0  0  0  0  0  0  0  0  0  0  0
  -25.3218  -29.4293   20.2587 C   0  0  0  0  0  0  0  0  0  0  0  0
  -25.4805  -35.0478   22.6142 C   0  0  0  0  0  0  0  0  0  0  0  0
  -25.4957  -28.4220   21.2185 C   0  0  0  0  0  0  0  0  0  0  0  0
  -30.3123  -22.2463   17.2201 C   0  0  0  0  0  0  0  0  0  0  0  0
  -29.7054  -22.0211   15.9845 C   0  0  0  0  0  0  0  0  0  0  0  0
  -29.4425  -20.7174   15.5638 C   0  0  0  0  0  0  0  0  0  0  0  0
  -29.7865  -19.6389   16.3788 C   0  0  0  0  0  0  0  0  0  0  0  0
  -30.3934  -19.8641   17.6143 C   0  0  0  0  0  0  0  0  0  0  0  0
  -23.9746  -12.2670   20.5830 C   0  0  0  0  0  0  0  0  0  0  0  0
  -27.3283  -27.5076   19.9087 C   0  0  0  0  0  0  0  0  0  0  0  0
  -22.3063  -10.7578   21.2621 C   0  0  0  0  0  0  0  0  0  0  0  0
  -21.6120   -8.2589   22.2898 C   0  0  0  0  0  0  0  0  0  0  0  0
  -21.5918  -10.6690   22.4568 C   0  0  0  0  0  0  0  0  0  0  0  0
  -28.0884  -13.1055   20.0613 C   0  0  0  0  0  0  0  0  0  0  0  0
  -30.2260  -12.9900   19.5591 C   0  0  0  0  0  0  0  0  0  0  0  0
  -29.8704  -23.9294   20.0875 C   0  0  0  0  0  0  0  0  0  0  0  0
  -28.9322  -10.9327   18.9742 C   0  0  0  0  0  0  0  0  0  0  0  0
  -24.7800  -31.4203   22.6766 C   0  0  0  0  0  0  0  0  0  0  0  0
  -22.4963  -29.2479   23.4433 C   0  0  0  0  0  0  0  0  0  0  0  0
  -21.3619  -26.0368   23.2236 C   0  0  0  0  0  0  0  0  0  0  0  0
  -31.3576  -18.8552   19.7117 C   0  0  0  0  0  0  0  0  0  0  0  0
  -24.0312  -36.1732   24.3816 C   0  0  0  0  0  0  0  0  0  0  0  0
  -24.2287  -30.4505   20.4158 C   0  0  0  0  0  0  0  0  0  0  0  0
  -24.6291  -28.3395   22.4476 C   0  0  0  0  0  0  0  0  0  0  0  0
  -28.6071  -24.4066   20.7663 C   0  0  0  0  0  0  0  0  0  0  0  0
  -23.7114  -34.7688   24.8873 C   0  0  0  0  0  0  0  0  0  0  0  0
  -32.3627  -16.4294   22.1163 C   0  0  0  0  0  0  0  0  0  0  0  0
  -24.9459  -33.8769   24.8026 C   0  0  0  0  0  0  0  0  0  0  0  0
  -31.4737  -15.2226   21.8072 C   0  0  0  0  0  0  0  0  0  0  0  0
  -31.6167  -17.7481   21.9213 C   0  0  0  0  0  0  0  0  0  0  0  0
  -30.0818  -16.7016   20.3032 C   0  0  0  0  0  0  0  0  0  0  0  0
  -28.3815  -24.6080   18.3768 C   0  0  0  0  0  0  0  0  0  0  0  0
  -25.4203  -33.7279   23.3520 C   0  0  1  0  0  0  0  0  0  0  0  0
  -23.7883  -30.6364   21.8645 C   0  0  1  0  0  0  0  0  0  0  0  0
  -30.8089  -15.3522   20.4228 C   0  0  2  0  0  0  0  0  0  0  0  0
  -27.8967  -25.2121   19.6818 C   0  0  2  0  0  0  0  0  0  1  0  0
  -29.3390  -23.1802   15.1124 C   0  0  0  0  0  0  0  0  0  0  0  0
  -28.7917  -20.4766   14.2381 C   0  0  0  0  0  0  0  0  0  0  0  0
  -29.5050  -18.2407   15.9244 C   0  0  0  0  0  0  0  0  0  0  0  0
  -19.4864  -24.5537   23.9852 C   0  0  0  0  0  0  0  0  0  0  0  0
  -23.7385  -29.1105   26.2268 C   0  0  0  0  0  0  0  0  0  0  0  0
  -22.4691  -26.9873   26.6124 C   0  0  0  0  0  0  0  0  0  0  0  0
  -21.2378  -29.1171   26.1996 C   0  0  0  0  0  0  0  0  0  0  0  0
  -20.5151  -25.4837   20.4422 C   0  0  0  0  0  0  0  0  0  0  0  0
  -30.6095  -23.6393   17.6947 C   0  0  0  0  0  0  0  0  0  0  0  0
  -22.4514  -27.9961   24.2858 C   0  0  1  0  0  0  0  0  0  0  0  0
  -19.9939  -25.4727   22.8849 C   0  0  2  0  0  0  0  0  0  0  0  0
  -22.4920  -28.3052   25.8091 C   0  0  0  0  0  0  0  0  0  0  0  0
  -28.5869  -14.2829   20.4476 N   0  0  0  0  0  0  0  0  0  0  0  0
  -29.8886  -14.1822   20.1292 N   0  0  0  0  0  0  0  0  0  0  0  0
  -29.6812  -24.0728   18.7168 N   0  0  0  0  0  0  0  0  0  0  0  0
  -23.5781  -29.3645   22.5590 N   0  0  0  0  0  0  0  0  0  0  0  0
  -31.0168  -17.8018   20.5863 N   0  0  0  0  0  0  0  0  0  0  0  0
  -31.4930  -12.7222   19.1779 N   0  0  0  0  0  0  0  0  0  0  0  0
  -27.6670  -10.3300   18.9910 N   0  0  0  0  0  0  0  0  0  0  0  0
  -30.7503  -18.7834   18.4584 N   0  0  0  0  0  0  0  0  0  0  0  0
  -24.5818  -32.7873   22.6401 N   0  0  0  0  0  0  0  0  0  0  0  0
  -21.2683  -27.2578   23.8572 N   0  0  0  0  0  0  0  0  0  0  0  0
  -20.0538  -24.6962   21.6143 N   0  3  0  0  0  0  0  0  0  0  0  0
  -30.8388  -23.4665   20.6723 O   0  0  0  0  0  0  0  0  0  0  0  0
  -29.9105  -10.2938   18.5178 O   0  0  0  0  0  0  0  0  0  0  0  0
  -25.6591  -30.8286   23.2921 O   0  0  0  0  0  0  0  0  0  0  0  0
  -21.6006  -30.0880   23.5602 O   0  0  0  0  0  0  0  0  0  0  0  0
  -22.4088  -25.4509   22.9563 O   0  0  0  0  0  0  0  0  0  0  0  0
  -32.1522  -19.7400   20.0400 O   0  0  0  0  0  0  0  0  0  0  0  0
  -22.6510  -11.9974   20.7502 O   0  0  0  0  0  0  0  0  0  0  0  0
  -28.3054  -26.5749   19.7442 O   0  0  0  0  0  0  0  0  0  1  0  0
  -21.2774   -7.0591   22.7824 F   0  0  0  0  0  0  0  0  0  0  0  0
  -21.2351  -11.7807   23.1147 F   0  0  0  0  0  0  0  0  0  0  0  0
  1  2  1  0  0  0  0
  1  5  2  0  0  0  0
  2  6  2  0  0  0  0
  3  8  2  0  0  0  0
  3 16  1  0  0  0  0
  4  9  1  0  0  0  0
  4 16  2  0  0  0  0
  5 18  1  0  0  0  0
  6 20  1  0  0  0  0
  7 10  2  0  0  0  0
  7 19  1  0  0  0  0
  8 27  1  0  0  0  0
  9 27  2  0  0  0  0
 10 28  1  0  0  0  0
 11 12  2  0  0  0  0
 11 29  1  0  0  0  0
 12 30  1  0  0  0  0
 13 21  1  0  0  0  0
 13 28  2  0  0  0  0
 14 22  1  0  0  0  0
 14 26  2  0  0  0  0
 15 30  2  0  0  0  0
 15 31  1  0  0  0  0
 16 32  1  0  0  0  0
 17 32  1  0  0  0  0
 17 33  2  0  0  0  0
 17 35  1  0  0  0  0
 18 20  2  0  0  0  0
 18 40  1  0  0  0  0
 19 21  2  0  0  0  0
 19 41  1  0  0  0  0
 20 51  1  0  0  0  0
 21 42  1  0  0  0  0
 22 23  2  0  0  0  0
 22 63  1  0  0  0  0
 23 24  1  0  0  0  0
 23 55  1  0  0  0  0
 24 25  2  0  0  0  0
 24 56  1  0  0  0  0
 25 26  1  0  0  0  0
 25 57  1  0  0  0  0
 26 74  1  0  0  0  0
 27 84  1  0  0  0  0
 28 85  1  0  0  0  0
 29 31  2  0  0  0  0
 29 84  1  0  0  0  0
 30 86  1  0  0  0  0
 31 87  1  0  0  0  0
 32 67  2  0  0  0  0
 33 68  1  0  0  0  0
 33 72  1  0  0  0  0
 34 43  1  0  0  0  0
 34 69  1  0  0  0  0
 34 78  2  0  0  0  0
 35 73  1  0  0  0  0
 35 79  2  0  0  0  0
 36 52  1  0  0  0  0
 36 75  1  0  0  0  0
 36 80  2  0  0  0  0
 37 64  1  0  0  0  0
 37 70  1  0  0  0  0
 37 81  2  0  0  0  0
 38 65  1  0  0  0  0
 38 76  1  0  0  0  0
 38 82  2  0  0  0  0
 39 71  1  0  0  0  0
 39 74  1  0  0  0  0
 39 83  2  0  0  0  0
 40 44  1  0  0  0  0
 41 52  1  0  0  0  0
 42 70  1  0  0  0  0
 43 54  1  0  0  0  0
 44 46  1  0  0  0  0
 45 47  1  0  0  0  0
 45 48  1  0  0  0  0
 46 51  1  0  0  0  0
 47 53  1  0  0  0  0
 48 71  1  0  0  0  0
 49 53  1  0  0  0  0
 49 71  1  0  0  0  0
 50 54  1  0  0  0  0
 50 69  1  0  0  0  0
 51 75  1  0  0  0  0
 52 70  1  0  0  0  0
 53 68  1  0  0  0  0
 54 85  1  0  0  0  0
 58 65  1  0  0  0  0
 59 66  1  0  0  0  0
 60 66  1  0  0  0  0
 61 66  1  0  0  0  0
 62 77  1  0  0  0  0
 63 69  1  0  0  0  0
 64 66  1  0  0  0  0
 64 76  1  0  0  0  0
 65 77  1  0  0  0  0
 67 68  1  0  0  0  0
M  CHG  1  77   1
M  ISO  4  39 100  54 101  74 100  85 101
M  END
> <Batch ID>
0032

> <Smiles>
CNC(C)C(=O)NC(C(=O)N1Cc2cc([101O:1][101CH:1]3CC(=O)N(Cc4cc([100NH:0][100C:0](=O)N5CCCC(n6nc(-c7ccc(Oc8ccc(F)cc8F)cc7)c(C(N)=O)c6N)C5)c(C)c(C)c4C)C3)ccc2CC1C(=O)NC1CCCc2ccccc21)C(C)(C)C

> <Shape>
0.320

> <Color>
0.077

> <Negative vol penalty>
0.000

$$$$

  -OEChem-04042321423D

 87 96  0     1  0  0  0  0  0999 V2000
  -28.6318  -31.8189   26.6440 C   0  0  0  0  0  0  0  0  0  0  0  0
  -28.0367  -30.6459   26.1908 C   0  0  0  0  0  0  0  0  0  0  0  0
  -23.1558   -9.7424   21.3616 C   0  0  0  0  0  0  0  0  0  0  0  0
  -23.8858  -10.5922   23.5021 C   0  0  0  0  0  0  0  0  0  0  0  0
  -28.2985  -33.0396   26.0584 C   0  0  0  0  0  0  0  0  0  0  0  0
  -27.1071  -30.6930   25.1525 C   0  0  0  0  0  0  0  0  0  0  0  0
  -27.8736  -27.0749   21.6931 C   0  0  0  0  0  0  0  0  0  0  0  0
  -22.4581   -8.7204   22.0053 C   0  0  0  0  0  0  0  0  0  0  0  0
  -23.1881   -9.5702   24.1459 C   0  0  0  0  0  0  0  0  0  0  0  0
  -27.4421  -25.7880   22.0114 C   0  0  0  0  0  0  0  0  0  0  0  0
  -23.1662   -5.7471   23.4483 C   0  0  0  0  0  0  0  0  0  0  0  0
  -23.2882   -4.4563   22.9339 C   0  0  0  0  0  0  0  0  0  0  0  0
  -25.4615  -26.1286   20.6771 C   0  0  0  0  0  0  0  0  0  0  0  0
  -28.5620  -19.5760   23.0104 C   0  0  0  0  0  0  0  0  0  0  0  0
  -20.9034   -4.3824   22.5539 C   0  0  0  0  0  0  0  0  0  0  0  0
  -23.8697  -10.6783   22.1100 C   0  0  0  0  0  0  0  0  0  0  0  0
  -24.1062  -13.0107   21.1043 C   0  0  0  0  0  0  0  0  0  0  0  0
  -27.3715  -33.1005   25.0059 C   0  0  0  0  0  0  0  0  0  0  0  0
  -27.0957  -27.9037   20.8719 C   0  0  0  0  0  0  0  0  0  0  0  0
  -26.7601  -31.9157   24.5532 C   0  0  0  0  0  0  0  0  0  0  0  0
  -25.8866  -27.4247   20.3478 C   0  0  0  0  0  0  0  0  0  0  0  0
  -29.0142  -19.2552   20.2763 C   0  0  0  0  0  0  0  0  0  0  0  0
  -28.1569  -20.2584   20.7285 C   0  0  0  0  0  0  0  0  0  0  0  0
  -29.6453  -18.4124   21.1912 C   0  0  0  0  0  0  0  0  0  0  0  0
  -27.9309  -20.4188   22.0956 C   0  0  0  0  0  0  0  0  0  0  0  0
  -22.4743   -8.6343   23.3974 C   0  0  0  0  0  0  0  0  0  0  0  0
  -26.2345  -25.3156   21.5057 C   0  0  0  0  0  0  0  0  0  0  0  0
  -21.9128   -6.3555   23.5156 C   0  0  0  0  0  0  0  0  0  0  0  0
  -22.1568   -3.7740   22.4866 C   0  0  0  0  0  0  0  0  0  0  0  0
  -20.7814   -5.6732   23.0683 C   0  0  0  0  0  0  0  0  0  0  0  0
  -29.4193  -18.5728   22.5582 C   0  0  0  0  0  0  0  0  0  0  0  0
  -24.5910  -11.7339   21.4457 C   0  0  0  0  0  0  0  0  0  0  0  0
  -25.1703  -13.6308   20.4962 C   0  0  0  0  0  0  0  0  0  0  0  0
  -22.8099  -13.5850   21.3179 C   0  0  0  0  0  0  0  0  0  0  0  0
  -25.6410  -30.7049   21.2465 C   0  0  0  0  0  0  0  0  0  0  0  0
  -25.0540  -30.3841   18.0724 C   0  0  0  0  0  0  0  0  0  0  0  0
  -24.7029  -28.3084   15.3863 C   0  0  0  0  0  0  0  0  0  0  0  0
  -30.6034  -14.8903   20.2949 C   0  0  0  0  0  0  0  0  0  0  0  0
  -27.0077  -34.4487   24.4362 C   0  0  0  0  0  0  0  0  0  0  0  0
  -27.5881  -29.2798   20.5162 C   0  0  0  0  0  0  0  0  0  0  0  0
  -25.0243  -28.2675   19.4452 C   0  0  0  0  0  0  0  0  0  0  0  0
  -26.2932  -34.3682   23.0896 C   0  0  0  0  0  0  0  0  0  0  0  0
  -29.5974  -11.7690   18.9084 C   0  0  0  0  0  0  0  0  0  0  0  0
  -25.1893  -33.3163   23.1331 C   0  0  0  0  0  0  0  0  0  0  0  0
  -28.1683  -11.5843   19.4217 C   0  0  0  0  0  0  0  0  0  0  0  0
  -30.4892  -12.4398   19.9508 C   0  0  0  0  0  0  0  0  0  0  0  0
  -25.6528  -21.2208   22.7744 C   0  0  0  0  0  0  0  0  0  0  0  0
  -28.5411  -13.5292   20.9956 C   0  0  0  0  0  0  0  0  0  0  0  0
  -27.5192  -22.7642   22.8925 C   0  0  0  0  0  0  0  0  0  0  0  0
  -25.7657  -31.9230   23.4125 C   0  0  1  0  0  0  0  0  0  0  0  0
  -26.4681  -30.2231   20.0884 C   0  0  1  0  0  0  0  0  0  0  0  0
  -25.2433  -22.4604   23.5814 C   0  0  1  0  0  0  0  0  0  0  0  0
  -27.5900  -12.9074   19.9588 C   0  0  2  0  0  0  0  0  0  0  0  0
  -26.2091  -23.5347   23.0757 C   0  0  2  0  0  0  0  0  0  1  0  0
  -29.2558  -19.0843   18.8094 C   0  0  0  0  0  0  0  0  0  0  0  0
  -27.4803  -21.1622   19.7458 C   0  0  0  0  0  0  0  0  0  0  0  0
  -23.7671  -22.7923   23.4357 C   0  0  0  0  0  0  0  0  0  0  0  0
  -24.1865  -28.3347   12.9307 C   0  0  0  0  0  0  0  0  0  0  0  0
  -22.1018  -30.8316   18.7005 C   0  0  0  0  0  0  0  0  0  0  0  0
  -21.5531  -29.9190   16.4346 C   0  0  0  0  0  0  0  0  0  0  0  0
  -22.9189  -31.9959   16.6435 C   0  0  0  0  0  0  0  0  0  0  0  0
  -27.3327  -27.1356   14.7026 C   0  0  0  0  0  0  0  0  0  0  0  0
  -30.5629  -17.3398   20.6918 C   0  0  0  0  0  0  0  0  0  0  0  0
  -23.9510  -29.7680   17.2461 C   0  0  1  0  0  0  0  0  0  0  0  0
  -25.2824  -28.3683   13.9846 C   0  0  2  0  0  0  0  0  0  0  0  0
  -22.6463  -30.6132   17.2748 C   0  0  0  0  0  0  0  0  0  0  0  0
  -25.8640  -11.5522   21.0842 N   0  0  0  0  0  0  0  0  0  0  0  0
  -26.1880  -12.7229   20.5094 N   0  0  0  0  0  0  0  0  0  0  0  0
  -27.0870  -21.4047   22.5619 N   0  0  3  0  0  0  0  0  0  0  0  0
  -25.5457  -29.6081   19.1316 N   0  0  0  0  0  0  0  0  0  0  0  0
  -29.8847  -13.6897   20.4179 N   0  0  0  0  0  0  0  0  0  0  0  0
  -25.3252  -14.8585   19.9567 N   0  0  0  0  0  0  0  0  0  0  0  0
  -21.8331  -12.8101   21.9579 N   0  0  0  0  0  0  0  0  0  0  0  0
  -26.3647  -31.3743   22.2148 N   0  0  0  0  0  0  0  0  0  0  0  0
  -24.5042  -29.5680   15.9111 N   0  0  0  0  0  0  0  0  0  0  0  0
  -29.9550  -16.0294   20.7563 N   0  0  0  0  0  0  0  0  0  0  0  0
  -26.1943  -27.2128   13.7513 N   0  3  0  0  0  0  0  0  0  0  0  0
  -22.5213  -14.7449   20.9374 O   0  0  0  0  0  0  0  0  0  0  0  0
  -24.4351  -30.4870   21.2599 O   0  0  0  0  0  0  0  0  0  0  0  0
  -25.4690  -31.5094   17.7842 O   0  0  0  0  0  0  0  0  0  0  0  0
  -24.4481  -27.2502   15.9572 O   0  0  0  0  0  0  0  0  0  0  0  0
  -31.7365  -14.9439   19.8049 O   0  0  0  0  0  0  0  0  0  0  0  0
  -21.7934   -7.6373   24.0259 O   0  0  0  0  0  0  0  0  0  0  0  0
  -25.8107  -24.0601   21.8154 O   0  0  0  0  0  0  0  0  0  1  0  0
  -22.2743   -2.5351   21.9912 F   0  0  0  0  0  0  0  0  0  0  0  0
  -19.5747   -6.2529   23.1293 F   0  0  0  0  0  0  0  0  0  0  0  0
  -30.1809  -17.5506   23.7229 Cl  0  0  0  0  0  0  0  0  0  0  0  0
  1  2  1  0  0  0  0
  1  5  2  0  0  0  0
  2  6  2  0  0  0  0
  3  8  2  0  0  0  0
  3 16  1  0  0  0  0
  4  9  1  0  0  0  0
  4 16  2  0  0  0  0
  5 18  1  0  0  0  0
  6 20  1  0  0  0  0
  7 10  2  0  0  0  0
  7 19  1  0  0  0  0
  8 26  1  0  0  0  0
  9 26  2  0  0  0  0
 10 27  1  0  0  0  0
 11 12  2  0  0  0  0
 11 28  1  0  0  0  0
 12 29  1  0  0  0  0
 13 21  1  0  0  0  0
 13 27  2  0  0  0  0
 14 25  1  0  0  0  0
 14 31  2  0  0  0  0
 15 29  2  0  0  0  0
 15 30  1  0  0  0  0
 16 32  1  0  0  0  0
 17 32  1  0  0  0  0
 17 33  2  0  0  0  0
 17 34  1  0  0  0  0
 18 20  2  0  0  0  0
 18 39  1  0  0  0  0
 19 21  2  0  0  0  0
 19 40  1  0  0  0  0
 20 50  1  0  0  0  0
 21 41  1  0  0  0  0
 22 23  1  0  0  0  0
 22 24  2  0  0  0  0
 22 55  1  0  0  0  0
 23 25  2  0  0  0  0
 23 56  1  0  0  0  0
 24 31  1  0  0  0  0
 24 63  1  0  0  0  0
 25 69  1  0  0  0  0
 26 83  1  0  0  0  0
 27 84  1  0  0  0  0
 28 30  2  0  0  0  0
 28 83  1  0  0  0  0
 29 85  1  0  0  0  0
 30 86  1  0  0  0  0
 31 87  1  0  0  0  0
 32 67  2  0  0  0  0
 33 68  1  0  0  0  0
 33 72  1  0  0  0  0
 34 73  1  0  0  0  0
 34 78  2  0  0  0  0
 35 51  1  0  0  0  0
 35 74  1  0  0  0  0
 35 79  2  0  0  0  0
 36 64  1  0  0  0  0
 36 70  1  0  0  0  0
 36 80  2  0  0  0  0
 37 65  1  0  0  0  0
 37 75  1  0  0  0  0
 37 81  2  0  0  0  0
 38 71  1  0  0  0  0
 38 76  1  0  0  0  0
 38 82  2  0  0  0  0
 39 42  1  0  0  0  0
 40 51  1  0  0  0  0
 41 70  1  0  0  0  0
 42 44  1  0  0  0  0
 43 45  1  0  0  0  0
 43 46  1  0  0  0  0
 44 50  1  0  0  0  0
 45 53  1  0  0  0  0
 46 71  1  0  0  0  0
 47 52  1  0  0  0  0
 47 69  1  0  0  0  0
 48 53  1  0  0  0  0
 48 71  1  0  0  0  0
 49 54  1  0  0  0  0
 49 69  1  0  0  0  0
 50 74  1  0  0  0  0
 51 70  1  0  0  0  0
 52 54  1  0  0  0  0
 52 57  1  0  0  0  0
 53 68  1  0  0  0  0
 54 84  1  0  0  0  0
 58 65  1  0  0  0  0
 59 66  1  0  0  0  0
 60 66  1  0  0  0  0
 61 66  1  0  0  0  0
 62 77  1  0  0  0  0
 63 76  1  0  0  0  0
 64 66  1  0  0  0  0
 64 75  1  0  0  0  0
 65 77  1  0  0  0  0
 67 68  1  0  0  0  0
M  CHG  1  77   1
M  ISO  4  38 100  54 101  76 100  84 101
M  END
> <Batch ID>
0032

> <Smiles>
CNC(C)C(=O)NC(C(=O)N1Cc2cc([101O:1][101CH:1]3CN(c4cc(Cl)c(C[100NH:0][100C:0](=O)N5CCCC(n6nc(-c7ccc(Oc8ccc(F)cc8F)cc7)c(C(N)=O)c6N)C5)c(C)c4C)CC3C)ccc2CC1C(=O)NC1CCCc2ccccc21)C(C)(C)C

> <Shape>
0.316

> <Color>
0.172

> <Negative vol penalty>
0.000

$$$$

  -OEChem-04042321423D

 87 96  0     1  0  0  0  0  0999 V2000
  -36.5775  -29.3132   18.1265 C   0  0  0  0  0  0  0  0  0  0  0  0
  -36.2819  -28.3109   19.0450 C   0  0  0  0  0  0  0  0  0  0  0  0
  -23.3633  -10.0958   22.1541 C   0  0  0  0  0  0  0  0  0  0  0  0
  -23.5477   -9.6742   19.7823 C   0  0  0  0  0  0  0  0  0  0  0  0
  -35.5865  -29.7819   17.2650 C   0  0  0  0  0  0  0  0  0  0  0  0
  -34.9949  -27.7776   19.1032 C   0  0  0  0  0  0  0  0  0  0  0  0
  -34.9990  -22.7234   19.4202 C   0  0  0  0  0  0  0  0  0  0  0  0
  -22.6073   -8.9329   22.3021 C   0  0  0  0  0  0  0  0  0  0  0  0
  -22.7918   -8.5113   19.9303 C   0  0  0  0  0  0  0  0  0  0  0  0
  -35.2794  -22.1638   20.6660 C   0  0  0  0  0  0  0  0  0  0  0  0
  -19.4160   -7.9531   21.7732 C   0  0  0  0  0  0  0  0  0  0  0  0
  -18.2668   -8.0239   22.5605 C   0  0  0  0  0  0  0  0  0  0  0  0
  -32.9209  -21.8158   21.0339 C   0  0  0  0  0  0  0  0  0  0  0  0
  -30.7763  -17.8624   24.5656 C   0  0  0  0  0  0  0  0  0  0  0  0
  -32.2431  -16.2753   22.8015 C   0  0  0  0  0  0  0  0  0  0  0  0
  -19.1725   -6.3373   24.0343 C   0  0  0  0  0  0  0  0  0  0  0  0
  -23.8335  -10.4664   20.8942 C   0  0  0  0  0  0  0  0  0  0  0  0
  -24.2181  -12.9837   21.0469 C   0  0  0  0  0  0  0  0  0  0  0  0
  -34.2892  -29.2473   17.3061 C   0  0  0  0  0  0  0  0  0  0  0  0
  -33.6744  -22.8436   18.9758 C   0  0  0  0  0  0  0  0  0  0  0  0
  -33.9853  -28.2405   18.2423 C   0  0  0  0  0  0  0  0  0  0  0  0
  -32.6264  -22.3750   19.7810 C   0  0  0  0  0  0  0  0  0  0  0  0
  -30.1178  -17.1019   23.5994 C   0  0  0  0  0  0  0  0  0  0  0  0
  -32.1683  -17.8295   24.6497 C   0  0  0  0  0  0  0  0  0  0  0  0
  -30.8512  -16.3083   22.7173 C   0  0  0  0  0  0  0  0  0  0  0  0
  -22.3216   -8.1407   21.1902 C   0  0  0  0  0  0  0  0  0  0  0  0
  -34.2401  -21.7126   21.4743 C   0  0  0  0  0  0  0  0  0  0  0  0
  -20.4435   -7.0743   22.1164 C   0  0  0  0  0  0  0  0  0  0  0  0
  -18.1450   -7.2161   23.6911 C   0  0  0  0  0  0  0  0  0  0  0  0
  -20.3217   -6.2665   23.2470 C   0  0  0  0  0  0  0  0  0  0  0  0
  -32.9017  -17.0359   23.7677 C   0  0  0  0  0  0  0  0  0  0  0  0
  -24.6139  -11.6679   20.7407 C   0  0  0  0  0  0  0  0  0  0  0  0
  -25.3086  -13.7540   20.7247 C   0  0  0  0  0  0  0  0  0  0  0  0
  -22.9758  -13.4664   21.5755 C   0  0  0  0  0  0  0  0  0  0  0  0
  -31.7804  -25.2758   18.2005 C   0  0  0  0  0  0  0  0  0  0  0  0
  -29.7500  -22.9054   17.3167 C   0  0  0  0  0  0  0  0  0  0  0  0
  -28.7133  -19.7043   18.6186 C   0  0  0  0  0  0  0  0  0  0  0  0
  -30.7963  -14.6947   20.7836 C   0  0  0  0  0  0  0  0  0  0  0  0
  -33.2389  -29.8191   16.3870 C   0  0  0  0  0  0  0  0  0  0  0  0
  -33.3904  -23.4251   17.6180 C   0  0  0  0  0  0  0  0  0  0  0  0
  -31.1885  -22.4625   19.3414 C   0  0  0  0  0  0  0  0  0  0  0  0
  -31.9983  -28.9390   16.2576 C   0  0  0  0  0  0  0  0  0  0  0  0
  -29.5406  -12.5831   18.2065 C   0  0  0  0  0  0  0  0  0  0  0  0
  -31.5316  -28.4690   17.6317 C   0  0  0  0  0  0  0  0  0  0  0  0
  -28.1143  -12.2650   18.6612 C   0  0  0  0  0  0  0  0  0  0  0  0
  -35.0496  -22.2970   24.7637 C   0  0  0  0  0  0  0  0  0  0  0  0
  -35.7946  -21.1323   25.4057 C   0  0  0  0  0  0  0  0  0  0  0  0
  -30.5081  -12.6602   19.3862 C   0  0  0  0  0  0  0  0  0  0  0  0
  -28.6732  -13.2494   20.9208 C   0  0  0  0  0  0  0  0  0  0  0  0
  -33.0066  -20.8379   24.5267 C   0  0  0  0  0  0  0  0  0  0  0  0
  -32.6074  -27.6194   18.3190 C   0  0  1  0  0  0  0  0  0  0  0  0
  -31.9708  -23.9679   17.4856 C   0  0  1  0  0  0  0  0  0  0  0  0
  -27.6500  -13.2256   19.7735 C   0  0  2  0  0  0  0  0  0  0  0  0
  -33.9473  -21.8106   23.8313 C   0  0  2  0  0  0  0  0  0  1  0  0
  -34.8486  -20.1610   26.1217 C   0  0  2  0  0  0  0  0  0  0  0  0
  -28.6259  -17.1582   23.5307 C   0  0  0  0  0  0  0  0  0  0  0  0
  -35.6435  -18.9793   26.6739 C   0  0  0  0  0  0  0  0  0  0  0  0
  -27.8697  -17.3943   18.1188 C   0  0  0  0  0  0  0  0  0  0  0  0
  -27.0020  -24.0774   17.9372 C   0  0  0  0  0  0  0  0  0  0  0  0
  -26.1880  -21.7521   18.3829 C   0  0  0  0  0  0  0  0  0  0  0  0
  -27.0189  -22.3671   16.1126 C   0  0  0  0  0  0  0  0  0  0  0  0
  -31.4276  -18.5429   18.8246 C   0  0  0  0  0  0  0  0  0  0  0  0
  -32.8387  -18.6625   25.7021 C   0  0  0  0  0  0  0  0  0  0  0  0
  -28.6708  -22.1086   18.0091 C   0  0  1  0  0  0  0  0  0  0  0  0
  -29.0604  -18.3383   18.0547 C   0  0  2  0  0  0  0  0  0  0  0  0
  -27.2421  -22.5869   17.6248 C   0  0  0  0  0  0  0  0  0  0  0  0
  -25.8586  -11.6023   20.2606 N   0  0  0  0  0  0  0  0  0  0  0  0
  -26.2544  -12.8867   20.2627 N   0  0  0  0  0  0  0  0  0  0  0  0
  -30.9616  -23.0447   18.0084 N   0  0  0  0  0  0  0  0  0  0  0  0
  -30.0051  -13.5920   20.3979 N   0  0  0  0  0  0  0  0  0  0  0  0
  -25.5412  -15.0820   20.7943 N   0  0  0  0  0  0  0  0  0  0  0  0
  -21.9614  -12.5392   21.8503 N   0  0  0  0  0  0  0  0  0  0  0  0
  -30.2006  -15.5294   21.7285 N   0  0  0  0  0  0  0  0  0  0  0  0
  -32.6235  -26.2814   17.7677 N   0  0  0  0  0  0  0  0  0  0  0  0
  -28.9354  -20.7078   17.6994 N   0  0  0  0  0  0  0  0  0  0  0  0
  -33.7916  -19.6845   25.1295 N   0  3  1  0  0  0  0  0  0  0  0  0
  -30.1836  -17.7308   18.8230 N   0  3  0  0  0  0  0  0  0  0  0  0
  -22.7656  -14.6857   21.7820 O   0  0  0  0  0  0  0  0  0  0  0  0
  -30.9306  -25.3661   19.0787 O   0  0  0  0  0  0  0  0  0  0  0  0
  -29.5287  -23.3805   16.2000 O   0  0  0  0  0  0  0  0  0  0  0  0
  -28.2843  -19.8647   19.7591 O   0  0  0  0  0  0  0  0  0  0  0  0
  -31.9084  -14.8995   20.2904 O   0  0  0  0  0  0  0  0  0  0  0  0
  -21.5841   -7.0058   21.3342 O   0  0  0  0  0  0  0  0  0  0  0  0
  -34.5110  -21.1666   22.6910 O   0  0  0  0  0  0  0  0  0  1  0  0
  -17.0420   -7.2853   24.4479 F   0  0  0  0  0  0  0  0  0  0  0  0
  -21.3060   -5.4211   23.5824 F   0  0  0  0  0  0  0  0  0  0  0  0
  -34.6250  -16.9701   23.8417 Cl  0  0  0  0  0  0  0  0  0  0  0  0
  1  2  1  0  0  0  0
  1  5  2  0  0  0  0
  2  6  2  0  0  0  0
  3  8  2  0  0  0  0
  3 17  1  0  0  0  0
  4  9  1  0  0  0  0
  4 17  2  0  0  0  0
  5 19  1  0  0  0  0
  6 21  1  0  0  0  0
  7 10  2  0  0  0  0
  7 20  1  0  0  0  0
  8 26  1  0  0  0  0
  9 26  2  0  0  0  0
 10 27  1  0  0  0  0
 11 12  2  0  0  0  0
 11 28  1  0  0  0  0
 12 29  1  0  0  0  0
 13 22  1  0  0  0  0
 13 27  2  0  0  0  0
 14 23  2  0  0  0  0
 14 24  1  0  0  0  0
 15 25  2  0  0  0  0
 15 31  1  0  0  0  0
 16 29  2  0  0  0  0
 16 30  1  0  0  0  0
 17 32  1  0  0  0  0
 18 32  1  0  0  0  0
 18 33  2  0  0  0  0
 18 34  1  0  0  0  0
 19 21  2  0  0  0  0
 19 39  1  0  0  0  0
 20 22  2  0  0  0  0
 20 40  1  0  0  0  0
 21 51  1  0  0  0  0
 22 41  1  0  0  0  0
 23 25  1  0  0  0  0
 23 56  1  0  0  0  0
 24 31  2  0  0  0  0
 24 63  1  0  0  0  0
 25 73  1  0  0  0  0
 26 83  1  0  0  0  0
 27 84  1  0  0  0  0
 28 30  2  0  0  0  0
 28 83  1  0  0  0  0
 29 85  1  0  0  0  0
 30 86  1  0  0  0  0
 31 87  1  0  0  0  0
 32 67  2  0  0  0  0
 33 68  1  0  0  0  0
 33 71  1  0  0  0  0
 34 72  1  0  0  0  0
 34 78  2  0  0  0  0
 35 52  1  0  0  0  0
 35 74  1  0  0  0  0
 35 79  2  0  0  0  0
 36 64  1  0  0  0  0
 36 69  1  0  0  0  0
 36 80  2  0  0  0  0
 37 65  1  0  0  0  0
 37 75  1  0  0  0  0
 37 81  2  0  0  0  0
 38 70  1  0  0  0  0
 38 73  1  0  0  0  0
 38 82  2  0  0  0  0
 39 42  1  0  0  0  0
 40 52  1  0  0  0  0
 41 69  1  0  0  0  0
 42 44  1  0  0  0  0
 43 45  1  0  0  0  0
 43 48  1  0  0  0  0
 44 51  1  0  0  0  0
 45 53  1  0  0  0  0
 46 47  1  0  0  0  0
 46 54  1  0  0  0  0
 47 55  1  0  0  0  0
 48 70  1  0  0  0  0
 49 53  1  0  0  0  0
 49 70  1  0  0  0  0
 50 54  1  0  0  0  0
 50 76  1  0  0  0  0
 51 74  1  0  0  0  0
 52 69  1  0  0  0  0
 53 68  1  0  0  0  0
 54 84  1  0  0  0  0
 55 57  1  0  0  0  0
 55 76  1  0  0  0  0
 58 65  1  0  0  0  0
 59 66  1  0  0  0  0
 60 66  1  0  0  0  0
 61 66  1  0  0  0  0
 62 77  1  0  0  0  0
 63 76  1  0  0  0  0
 64 66  1  0  0  0  0
 64 75  1  0  0  0  0
 65 77  1  0  0  0  0
 67 68  1  0  0  0  0
M  CHG  2  76   1  77   1
M  ISO  4  38 100  54 101  73 100  84 101
M  END
> <Batch ID>
0032

> <Smiles>
CNC(C)C(=O)NC(C(=O)N1Cc2cc([101O:1][101CH:1]3CCC(C)N(Cc4cc(C)c([100NH:0][100C:0](=O)N5CCCC(n6nc(-c7ccc(Oc8ccc(F)cc8F)cc7)c(C(N)=O)c6N)C5)cc4Cl)C3)ccc2CC1C(=O)NC1CCCc2ccccc21)C(C)(C)C

> <Shape>
0.215

> <Color>
0.202

> <Negative vol penalty>
0.000

$$$$

  -OEChem-04042321423D

 86 95  0     1  0  0  0  0  0999 V2000
  -32.3585  -14.2282   20.6164 C   0  0  0  0  0  0  0  0  0  0  0  0
  -31.5201  -15.3228   20.8017 C   0  0  0  0  0  0  0  0  0  0  0  0
  -28.5749  -26.3735   20.1165 C   0  0  0  0  0  0  0  0  0  0  0  0
  -26.5076  -25.1471   20.3598 C   0  0  0  0  0  0  0  0  0  0  0  0
  -31.8368  -13.0237   20.1465 C   0  0  0  0  0  0  0  0  0  0  0  0
  -30.1596  -15.2138   20.5161 C   0  0  0  0  0  0  0  0  0  0  0  0
  -25.5472  -17.9592   23.4648 C   0  0  0  0  0  0  0  0  0  0  0  0
  -29.2913  -25.1784   20.1795 C   0  0  0  0  0  0  0  0  0  0  0  0
  -27.2240  -23.9520   20.4228 C   0  0  0  0  0  0  0  0  0  0  0  0
  -24.8091  -19.1091   23.1877 C   0  0  0  0  0  0  0  0  0  0  0  0
  -28.4852  -20.5448   20.2856 C   0  0  0  0  0  0  0  0  0  0  0  0
  -28.0157  -19.4662   19.5361 C   0  0  0  0  0  0  0  0  0  0  0  0
  -23.1013  -17.7560   22.1524 C   0  0  0  0  0  0  0  0  0  0  0  0
  -22.8793  -23.5001   21.4560 C   0  0  0  0  0  0  0  0  0  0  0  0
  -21.1749  -22.4840   22.8342 C   0  0  0  0  0  0  0  0  0  0  0  0
  -28.2720  -20.7607   17.5124 C   0  0  0  0  0  0  0  0  0  0  0  0
  -27.1830  -26.3579   20.2067 C   0  0  0  0  0  0  0  0  0  0  0  0
  -26.4238  -28.5181   19.0820 C   0  0  0  0  0  0  0  0  0  0  0  0
  -30.4676  -12.8970   19.8642 C   0  0  0  0  0  0  0  0  0  0  0  0
  -25.0723  -16.6979   23.0774 C   0  0  0  0  0  0  0  0  0  0  0  0
  -29.6193  -14.0068   20.0407 C   0  0  0  0  0  0  0  0  0  0  0  0
  -23.8341  -16.5915   22.4279 C   0  0  0  0  0  0  0  0  0  0  0  0
  -22.4687  -22.4791   22.3129 C   0  0  0  0  0  0  0  0  0  0  0  0
  -21.9961  -24.5263   21.1203 C   0  0  0  0  0  0  0  0  0  0  0  0
  -20.2917  -23.5102   22.4985 C   0  0  0  0  0  0  0  0  0  0  0  0
  -20.7023  -24.5313   21.6415 C   0  0  0  0  0  0  0  0  0  0  0  0
  -28.6159  -23.9676   20.3326 C   0  0  0  0  0  0  0  0  0  0  0  0
  -23.5873  -19.0079   22.5289 C   0  0  0  0  0  0  0  0  0  0  0  0
  -28.8480  -21.7315   19.6485 C   0  0  0  0  0  0  0  0  0  0  0  0
  -27.9091  -19.5741   18.1495 C   0  0  0  0  0  0  0  0  0  0  0  0
  -28.7414  -21.8394   18.2619 C   0  0  0  0  0  0  0  0  0  0  0  0
  -26.4424  -27.5922   20.1423 C   0  0  0  0  0  0  0  0  0  0  0  0
  -25.5749  -29.5104   19.5076 C   0  0  0  0  0  0  0  0  0  0  0  0
  -18.4005  -27.4829   22.0785 C   0  0  0  0  0  0  0  0  0  0  0  0
  -17.1387  -27.2310   21.7126 C   0  0  0  0  0  0  0  0  0  0  0  0
  -27.1122  -28.4841   17.8248 C   0  0  0  0  0  0  0  0  0  0  0  0
  -21.0772  -29.5076   23.4928 C   0  0  0  0  0  0  0  0  0  0  0  0
  -26.1118  -14.4106   21.1303 C   0  0  0  0  0  0  0  0  0  0  0  0
  -23.5808  -12.7764   22.3327 C   0  0  0  0  0  0  0  0  0  0  0  0
  -20.5101  -12.8746   23.8186 C   0  0  0  0  0  0  0  0  0  0  0  0
  -29.9580  -11.5887   19.3133 C   0  0  0  0  0  0  0  0  0  0  0  0
  -25.8678  -15.4648   23.4074 C   0  0  0  0  0  0  0  0  0  0  0  0
  -23.2703  -15.2591   22.0090 C   0  0  0  0  0  0  0  0  0  0  0  0
  -19.0140  -28.8411   22.2205 C   0  0  0  0  0  0  0  0  0  0  0  0
  -28.4402  -11.4452   19.3904 C   0  0  0  0  0  0  0  0  0  0  0  0
  -23.9671  -31.6261   23.4771 C   0  0  0  0  0  0  0  0  0  0  0  0
  -27.7579  -12.7160   18.8940 C   0  0  0  0  0  0  0  0  0  0  0  0
  -24.9384  -30.9014   22.5462 C   0  0  0  0  0  0  0  0  0  0  0  0
  -23.1273  -30.6411   24.2843 C   0  0  0  0  0  0  0  0  0  0  0  0
  -23.3530  -28.9238   22.5175 C   0  0  0  0  0  0  0  0  0  0  0  0
  -20.3873  -27.1262   23.2143 C   0  0  0  0  0  0  0  0  0  0  0  0
  -28.1337  -13.9205   19.7656 C   0  0  1  0  0  0  0  0  0  0  0  0
  -20.4608  -28.4987   22.5568 C   0  0  2  0  0  0  0  0  0  0  0  0
  -25.5308  -14.2783   22.5096 C   0  0  1  0  0  0  0  0  0  0  0  0
  -24.1993  -29.8823   21.6610 C   0  0  2  0  0  0  0  0  0  0  0  0
  -22.4601  -25.6073   20.1996 C   0  0  0  0  0  0  0  0  0  0  0  0
  -18.9115  -23.4924   23.0701 C   0  0  0  0  0  0  0  0  0  0  0  0
  -18.6724  -11.3784   24.6439 C   0  0  0  0  0  0  0  0  0  0  0  0
  -22.6876  -12.2906   19.4558 C   0  0  0  0  0  0  0  0  0  0  0  0
  -20.4320  -11.6552   20.3371 C   0  0  0  0  0  0  0  0  0  0  0  0
  -22.4394  -10.3176   20.9725 C   0  0  0  0  0  0  0  0  0  0  0  0
  -20.7945  -13.8624   26.5939 C   0  0  0  0  0  0  0  0  0  0  0  0
  -19.7554  -25.6314   21.2811 C   0  0  0  0  0  0  0  0  0  0  0  0
  -23.4190  -21.3756   22.6746 C   0  0  0  0  0  0  0  0  0  1  0  0
  -22.1272  -12.6267   21.9537 C   0  0  1  0  0  0  0  0  0  0  0  0
  -19.9442  -12.1264   25.0121 C   0  0  2  0  0  0  0  0  0  0  0  0
  -21.9328  -11.7479   20.6858 C   0  0  0  0  0  0  0  0  0  0  0  0
  -25.6671  -27.9634   21.1646 N   0  0  0  0  0  0  0  0  0  0  0  0
  -25.1534  -29.1335   20.7487 N   0  0  0  0  0  0  0  0  0  0  0  0
  -22.4594  -29.6762   23.4090 N   0  0  0  0  0  0  0  0  0  0  0  0
  -24.0885  -14.0832   22.3485 N   0  0  0  0  0  0  0  0  0  0  0  0
  -25.1555  -30.6600   18.9375 N   0  0  0  0  0  0  0  0  0  0  0  0
  -26.4813  -27.8708   16.7339 N   0  0  0  0  0  0  0  0  0  0  0  0
  -27.3892  -13.8984   21.0064 N   0  0  0  0  0  0  0  0  0  0  0  0
  -21.4458  -12.1220   23.1408 N   0  0  0  0  0  0  0  0  0  0  0  0
  -19.2740  -26.4124   22.4705 N   0  3  2  0  0  0  0  0  0  0  0  0
  -19.6281  -13.0760   26.1163 N   0  3  0  0  0  0  0  0  0  0  0  0
  -28.2600  -28.9683   17.6774 O   0  0  0  0  0  0  0  0  0  0  0  0
  -20.3499  -30.1284   24.2725 O   0  0  0  0  0  0  0  0  0  0  0  0
  -25.4496  -14.9370   20.2437 O   0  0  0  0  0  0  0  0  0  0  0  0
  -24.2396  -11.7714   22.6116 O   0  0  0  0  0  0  0  0  0  0  0  0
  -20.1548  -14.0114   23.5156 O   0  0  0  0  0  0  0  0  0  0  0  0
  -29.3147  -22.8012   20.3938 O   0  0  0  0  0  0  0  0  0  0  0  0
  -22.8651  -20.1287   22.2566 O   0  0  0  0  0  0  0  0  0  1  0  0
  -27.4597  -18.5377   17.4298 F   0  0  0  0  0  0  0  0  0  0  0  0
  -29.0896  -22.9765   17.6441 F   0  0  0  0  0  0  0  0  0  0  0  0
  1  2  1  0  0  0  0
  1  5  2  0  0  0  0
  2  6  2  0  0  0  0
  3  8  2  0  0  0  0
  3 17  1  0  0  0  0
  4  9  1  0  0  0  0
  4 17  2  0  0  0  0
  5 19  1  0  0  0  0
  6 21  1  0  0  0  0
  7 10  2  0  0  0  0
  7 20  1  0  0  0  0
  8 27  1  0  0  0  0
  9 27  2  0  0  0  0
 10 28  1  0  0  0  0
 11 12  2  0  0  0  0
 11 29  1  0  0  0  0
 12 30  1  0  0  0  0
 13 22  1  0  0  0  0
 13 28  2  0  0  0  0
 14 23  1  0  0  0  0
 14 24  2  0  0  0  0
 15 23  2  0  0  0  0
 15 25  1  0  0  0  0
 16 30  2  0  0  0  0
 16 31  1  0  0  0  0
 17 32  1  0  0  0  0
 18 32  1  0  0  0  0
 18 33  2  0  0  0  0
 18 36  1  0  0  0  0
 19 21  2  0  0  0  0
 19 41  1  0  0  0  0
 20 22  2  0  0  0  0
 20 42  1  0  0  0  0
 21 52  1  0  0  0  0
 22 43  1  0  0  0  0
 23 64  1  0  0  0  0
 24 26  1  0  0  0  0
 24 56  1  0  0  0  0
 25 26  2  0  0  0  0
 25 57  1  0  0  0  0
 26 63  1  0  0  0  0
 27 83  1  0  0  0  0
 28 84  1  0  0  0  0
 29 31  2  0  0  0  0
 29 83  1  0  0  0  0
 30 85  1  0  0  0  0
 31 86  1  0  0  0  0
 32 68  2  0  0  0  0
 33 69  1  0  0  0  0
 33 72  1  0  0  0  0
 34 35  2  0  0  0  0
 34 44  1  0  0  0  0
 34 76  1  0  0  0  0
 36 73  1  0  0  0  0
 36 78  2  0  0  0  0
 37 53  1  0  0  0  0
 37 70  1  0  0  0  0
 37 79  2  0  0  0  0
 38 54  1  0  0  0  0
 38 74  1  0  0  0  0
 38 80  2  0  0  0  0
 39 65  1  0  0  0  0
 39 71  1  0  0  0  0
 39 81  2  0  0  0  0
 40 66  1  0  0  0  0
 40 75  1  0  0  0  0
 40 82  2  0  0  0  0
 41 45  1  0  0  0  0
 42 54  1  0  0  0  0
 43 71  1  0  0  0  0
 44 53  1  0  0  0  0
 45 47  1  0  0  0  0
 46 48  1  0  0  0  0
 46 49  1  0  0  0  0
 47 52  1  0  0  0  0
 48 55  1  0  0  0  0
 49 70  1  0  0  0  0
 50 55  1  0  0  0  0
 50 70  1  0  0  0  0
 51 53  1  0  0  0  0
 51 76  1  0  0  0  0
 52 74  1  0  0  0  0
 54 71  1  0  0  0  0
 55 69  1  0  0  0  0
 58 66  1  0  0  0  0
 59 67  1  0  0  0  0
 60 67  1  0  0  0  0
 61 67  1  0  0  0  0
 62 77  1  0  0  0  0
 63 76  1  0  0  0  0
 64 84  1  0  0  0  0
 65 67  1  0  0  0  0
 65 75  1  0  0  0  0
 66 77  1  0  0  0  0
 68 69  1  0  0  0  0
M  CHG  2  76   1  77   1
M  ISO  4  37 100  53 100  64 101  84 101
M  END
> <Batch ID>
0032

> <Smiles>
C=C1C[100CH:0]([100C:0](=O)N2CCCC(n3nc(-c4ccc(Oc5ccc(F)cc5F)cc4)c(C(N)=O)c3N)C2)CN1Cc1c(C)cc([101CH2:1][101O:1]c2ccc3c(c2)CN(C(=O)C(NC(=O)C(C)NC)C(C)(C)C)C(C(=O)NC2CCCc4ccccc42)C3)cc1C

> <Shape>
0.270

> <Color>
0.077

> <Negative vol penalty>
0.000

$$$$

  -OEChem-04042321423D

 91100  0     1  0  0  0  0  0999 V2000
  -30.1764  -24.8680   14.0705 C   0  0  0  0  0  0  0  0  0  0  0  0
  -28.8243  -25.0447   14.3462 C   0  0  0  0  0  0  0  0  0  0  0  0
  -26.8078  -13.8217   20.0062 C   0  0  0  0  0  0  0  0  0  0  0  0
  -24.5879  -14.2969   20.8328 C   0  0  0  0  0  0  0  0  0  0  0  0
  -31.0851  -24.7108   15.1161 C   0  0  0  0  0  0  0  0  0  0  0  0
  -28.3800  -25.0631   15.6678 C   0  0  0  0  0  0  0  0  0  0  0  0
  -23.8002  -28.4174   17.9658 C   0  0  0  0  0  0  0  0  0  0  0  0
  -26.7119  -12.5196   20.4969 C   0  0  0  0  0  0  0  0  0  0  0  0
  -24.4919  -12.9947   21.3235 C   0  0  0  0  0  0  0  0  0  0  0  0
  -22.4678  -28.1182   18.2469 C   0  0  0  0  0  0  0  0  0  0  0  0
  -23.8590   -9.9115   20.0933 C   0  0  0  0  0  0  0  0  0  0  0  0
  -22.6722   -9.2175   19.8575 C   0  0  0  0  0  0  0  0  0  0  0  0
  -23.0574  -27.6797   20.5446 C   0  0  0  0  0  0  0  0  0  0  0  0
  -21.5619  -23.2702   23.3503 C   0  0  0  0  0  0  0  0  0  0  0  0
  -24.2324  -24.0744   23.2821 C   0  0  0  0  0  0  0  0  0  0  0  0
  -22.3309   -8.9921   22.2386 C   0  0  0  0  0  0  0  0  0  0  0  0
  -25.7459  -14.7104   20.1742 C   0  0  0  0  0  0  0  0  0  0  0  0
  -25.4671  -16.5137   18.3914 C   0  0  0  0  0  0  0  0  0  0  0  0
  -30.6531  -24.7370   16.4515 C   0  0  0  0  0  0  0  0  0  0  0  0
  -24.7747  -28.3393   18.9712 C   0  0  0  0  0  0  0  0  0  0  0  0
  -29.2836  -24.9047   16.7323 C   0  0  0  0  0  0  0  0  0  0  0  0
  -24.4010  -27.9809   20.2743 C   0  0  0  0  0  0  0  0  0  0  0  0
  -22.5437  -22.3907   22.8940 C   0  0  0  0  0  0  0  0  0  0  0  0
  -21.9154  -24.5519   23.7724 C   0  0  0  0  0  0  0  0  0  0  0  0
  -23.8789  -22.7927   22.8600 C   0  0  0  0  0  0  0  0  0  0  0  0
  -25.5539  -12.1061   21.1555 C   0  0  0  0  0  0  0  0  0  0  0  0
  -22.0967  -27.7465   19.5358 C   0  0  0  0  0  0  0  0  0  0  0  0
  -24.2818  -10.1457   21.4018 C   0  0  0  0  0  0  0  0  0  0  0  0
  -21.9082   -8.7578   20.9301 C   0  0  0  0  0  0  0  0  0  0  0  0
  -23.2506  -24.9539   23.7383 C   0  0  0  0  0  0  0  0  0  0  0  0
  -23.5177   -9.6860   22.4744 C   0  0  0  0  0  0  0  0  0  0  0  0
  -25.8447  -16.0558   19.6680 C   0  0  0  0  0  0  0  0  0  0  0  0
  -25.7595  -17.8556   18.4076 C   0  0  0  0  0  0  0  0  0  0  0  0
  -19.7731  -27.6402   24.0111 C   0  0  0  0  0  0  0  0  0  0  0  0
  -20.1690  -28.4488   25.0095 C   0  0  0  0  0  0  0  0  0  0  0  0
  -21.5154  -28.4663   25.5217 C   0  0  0  0  0  0  0  0  0  0  0  0
  -21.9057  -29.2748   26.5179 C   0  0  0  0  0  0  0  0  0  0  0  0
  -24.9026  -15.7906   17.2895 C   0  0  0  0  0  0  0  0  0  0  0  0
  -27.4028  -26.6081   19.4181 C   0  0  0  0  0  0  0  0  0  0  0  0
  -27.7700  -28.5438   21.9950 C   0  0  0  0  0  0  0  0  0  0  0  0
  -26.3226  -30.5894   24.3117 C   0  0  0  0  0  0  0  0  0  0  0  0
  -26.2259  -21.8792   22.8006 C   0  0  0  0  0  0  0  0  0  0  0  0
  -31.6661  -24.5154   17.5467 C   0  0  0  0  0  0  0  0  0  0  0  0
  -26.2031  -28.6911   18.6579 C   0  0  0  0  0  0  0  0  0  0  0  0
  -25.4054  -27.9017   21.3938 C   0  0  0  0  0  0  0  0  0  0  0  0
  -18.3563  -27.6537   23.5057 C   0  0  0  0  0  0  0  0  0  0  0  0
  -31.1658  -24.9218   18.9304 C   0  0  0  0  0  0  0  0  0  0  0  0
  -18.1982  -28.5891   22.3085 C   0  0  0  0  0  0  0  0  0  0  0  0
  -28.7369  -21.0154   20.4287 C   0  0  0  0  0  0  0  0  0  0  0  0
  -29.7601  -24.3802   19.1702 C   0  0  0  0  0  0  0  0  0  0  0  0
  -28.2427  -19.6903   19.8439 C   0  0  0  0  0  0  0  0  0  0  0  0
  -18.8567  -28.0923   21.0246 C   0  0  0  0  0  0  0  0  0  0  0  0
  -28.4250  -21.1287   21.9199 C   0  0  0  0  0  0  0  0  0  0  0  0
  -26.5252  -19.5766   21.6943 C   0  0  0  0  0  0  0  0  0  0  0  0
  -20.5699  -26.4637   21.9820 C   0  0  0  0  0  0  0  0  0  0  0  0
  -28.7665  -24.9552   18.1536 C   0  0  1  0  0  0  0  0  0  0  0  0
  -27.1981  -28.0801   19.6398 C   0  0  1  0  0  0  0  0  0  0  0  0
  -26.7589  -19.4442   20.1806 C   0  0  2  0  0  0  0  0  0  0  0  0
  -20.3374  -27.7213   21.1426 C   0  0  1  0  0  0  0  0  0  1  0  0
  -22.1365  -21.0237   22.4480 C   0  0  0  0  0  0  0  0  0  0  0  0
  -23.2961  -29.3070   27.0624 C   0  0  0  0  0  0  0  0  0  0  0  0
  -26.8736  -31.9979   26.3142 C   0  0  0  0  0  0  0  0  0  0  0  0
  -28.0211  -26.0231   23.6959 C   0  0  0  0  0  0  0  0  0  0  0  0
  -27.6140  -27.4346   25.7233 C   0  0  0  0  0  0  0  0  0  0  0  0
  -29.6182  -27.8510   24.2977 C   0  0  0  0  0  0  0  0  0  0  0  0
  -25.3704  -33.0567   22.9832 C   0  0  0  0  0  0  0  0  0  0  0  0
  -20.8572  -25.4957   24.2629 C   0  0  0  0  0  0  0  0  0  0  0  0
  -27.3301  -28.4974   23.4384 C   0  0  1  0  0  0  0  0  0  0  0  0
  -26.6954  -31.9762   24.8041 C   0  0  2  0  0  0  0  0  0  0  0  0
  -28.1270  -27.4510   24.2675 C   0  0  0  0  0  0  0  0  0  0  0  0
  -26.3392  -17.0279   20.4390 N   0  0  0  0  0  0  0  0  0  0  0  0
  -26.2746  -18.1100   19.6446 N   0  0  0  0  0  0  0  0  0  0  0  0
  -26.7906  -28.2490   21.0361 N   0  0  0  0  0  0  0  0  0  0  0  0
  -27.0009  -20.8878   22.1625 N   0  0  0  0  0  0  0  0  0  0  0  0
  -25.6237  -18.8310   17.4842 N   0  0  0  0  0  0  0  0  0  0  0  0
  -24.6663  -14.4176   17.4422 N   0  0  0  0  0  0  0  0  0  0  0  0
  -24.8907  -21.9141   22.3996 N   0  0  0  0  0  0  0  0  0  0  0  0
  -28.4028  -26.3092   18.5125 N   0  0  0  0  0  0  0  0  0  0  0  0
  -27.4344  -29.8630   23.9410 N   0  0  0  0  0  0  0  0  0  0  0  0
  -20.7716  -26.7632   23.4481 N   0  3  2  0  0  0  0  0  0  0  0  0
  -25.6337  -32.9573   24.4419 N   0  3  0  0  0  0  0  0  0  0  0  0
  -24.6314  -16.3424   16.1961 O   0  0  0  0  0  0  0  0  0  0  0  0
  -26.7061  -25.8031   20.0250 O   0  0  0  0  0  0  0  0  0  0  0  0
  -28.9378  -28.8380   21.7280 O   0  0  0  0  0  0  0  0  0  0  0  0
  -25.1615  -30.1892   24.2645 O   0  0  0  0  0  0  0  0  0  0  0  0
  -26.7171  -22.6589   23.6208 O   0  0  0  0  0  0  0  0  0  0  0  0
  -25.4598  -10.8355   21.6343 O   0  0  0  0  0  0  0  0  0  0  0  0
  -20.7970  -27.4533   19.8127 O   0  0  0  0  0  0  0  0  0  1  0  0
  -20.7677   -8.0928   20.7035 F   0  0  0  0  0  0  0  0  0  0  0  0
  -23.5998  -26.1835   24.1418 F   0  0  0  0  0  0  0  0  0  0  0  0
  -23.9181   -9.9090   23.7337 F   0  0  0  0  0  0  0  0  0  0  0  0
  1  2  1  0  0  0  0
  1  5  2  0  0  0  0
  2  6  2  0  0  0  0
  3  8  2  0  0  0  0
  3 17  1  0  0  0  0
  4  9  1  0  0  0  0
  4 17  2  0  0  0  0
  5 19  1  0  0  0  0
  6 21  1  0  0  0  0
  7 10  2  0  0  0  0
  7 20  1  0  0  0  0
  8 26  1  0  0  0  0
  9 26  2  0  0  0  0
 10 27  1  0  0  0  0
 11 12  2  0  0  0  0
 11 28  1  0  0  0  0
 12 29  1  0  0  0  0
 13 22  1  0  0  0  0
 13 27  2  0  0  0  0
 14 23  2  0  0  0  0
 14 24  1  0  0  0  0
 15 25  2  0  0  0  0
 15 30  1  0  0  0  0
 16 29  2  0  0  0  0
 16 31  1  0  0  0  0
 17 32  1  0  0  0  0
 18 32  1  0  0  0  0
 18 33  2  0  0  0  0
 18 38  1  0  0  0  0
 19 21  2  0  0  0  0
 19 43  1  0  0  0  0
 20 22  2  0  0  0  0
 20 44  1  0  0  0  0
 21 56  1  0  0  0  0
 22 45  1  0  0  0  0
 23 25  1  0  0  0  0
 23 60  1  0  0  0  0
 24 30  2  0  0  0  0
 24 67  1  0  0  0  0
 25 77  1  0  0  0  0
 26 87  1  0  0  0  0
 27 88  1  0  0  0  0
 28 31  2  0  0  0  0
 28 87  1  0  0  0  0
 29 89  1  0  0  0  0
 30 90  1  0  0  0  0
 31 91  1  0  0  0  0
 32 71  2  0  0  0  0
 33 72  1  0  0  0  0
 33 75  1  0  0  0  0
 34 35  2  0  0  0  0
 34 46  1  0  0  0  0
 34 80  1  0  0  0  0
 35 36  1  0  0  0  0
 36 37  2  0  0  0  0
 37 61  1  0  0  0  0
 38 76  1  0  0  0  0
 38 82  2  0  0  0  0
 39 57  1  0  0  0  0
 39 78  1  0  0  0  0
 39 83  2  0  0  0  0
 40 68  1  0  0  0  0
 40 73  1  0  0  0  0
 40 84  2  0  0  0  0
 41 69  1  0  0  0  0
 41 79  1  0  0  0  0
 41 85  2  0  0  0  0
 42 74  1  0  0  0  0
 42 77  1  0  0  0  0
 42 86  2  0  0  0  0
 43 47  1  0  0  0  0
 44 57  1  0  0  0  0
 45 73  1  0  0  0  0
 46 48  1  0  0  0  0
 47 50  1  0  0  0  0
 48 52  1  0  0  0  0
 49 51  1  0  0  0  0
 49 53  1  0  0  0  0
 50 56  1  0  0  0  0
 51 58  1  0  0  0  0
 52 59  1  0  0  0  0
 53 74  1  0  0  0  0
 54 58  1  0  0  0  0
 54 74  1  0  0  0  0
 55 59  1  0  0  0  0
 55 80  1  0  0  0  0
 56 78  1  0  0  0  0
 57 73  1  0  0  0  0
 58 72  1  0  0  0  0
 59 88  1  0  0  0  0
 62 69  1  0  0  0  0
 63 70  1  0  0  0  0
 64 70  1  0  0  0  0
 65 70  1  0  0  0  0
 66 81  1  0  0  0  0
 67 80  1  0  0  0  0
 68 70  1  0  0  0  0
 68 79  1  0  0  0  0
 69 81  1  0  0  0  0
 71 72  1  0  0  0  0
M  CHG  2  80   1  81   1
M  ISO  4  42 100  59 101  77 100  88 101
M  END
> <Batch ID>
0032

> <Smiles>
CC=CC=C1CCC[101CH:1]([101O:1]c2ccc3c(c2)CN(C(=O)C(NC(=O)C(C)NC)C(C)(C)C)C(C(=O)NC2CCCc4ccccc42)C3)CN1Cc1cc(C)c([100NH:0][100C:0](=O)N2CCCC(n3nc(-c4ccc(Oc5ccc(F)cc5F)cc4)c(C(N)=O)c3N)C2)cc1F

> <Shape>
0.257

> <Color>
0.071

> <Negative vol penalty>
0.000

$$$$

  -OEChem-04042321423D

 86 95  0     1  0  0  0  0  0999 V2000
  -29.3939  -36.4797   18.5283 C   0  0  0  0  0  0  0  0  0  0  0  0
  -29.5789  -35.1010   18.5500 C   0  0  0  0  0  0  0  0  0  0  0  0
  -23.1139   -9.8372   19.9872 C   0  0  0  0  0  0  0  0  0  0  0  0
  -24.3592   -9.3193   21.9917 C   0  0  0  0  0  0  0  0  0  0  0  0
  -28.5715  -37.0865   19.4766 C   0  0  0  0  0  0  0  0  0  0  0  0
  -28.9424  -34.3284   19.5208 C   0  0  0  0  0  0  0  0  0  0  0  0
  -26.7617  -28.6444   18.8558 C   0  0  0  0  0  0  0  0  0  0  0  0
  -22.5091   -8.5813   20.0384 C   0  0  0  0  0  0  0  0  0  0  0  0
  -23.7544   -8.0634   22.0430 C   0  0  0  0  0  0  0  0  0  0  0  0
  -27.2824  -27.3950   19.1896 C   0  0  0  0  0  0  0  0  0  0  0  0
  -20.7884   -6.7668   23.0135 C   0  0  0  0  0  0  0  0  0  0  0  0
  -20.3118   -6.3287   24.2490 C   0  0  0  0  0  0  0  0  0  0  0  0
  -26.0384  -27.4353   21.2560 C   0  0  0  0  0  0  0  0  0  0  0  0
  -30.9798  -18.9236   20.8449 C   0  0  0  0  0  0  0  0  0  0  0  0
  -28.5001  -19.9346   21.6270 C   0  0  0  0  0  0  0  0  0  0  0  0
  -21.7913   -4.4216   24.1436 C   0  0  0  0  0  0  0  0  0  0  0  0
  -24.0390  -10.2062   20.9638 C   0  0  0  0  0  0  0  0  0  0  0  0
  -24.2043  -12.6937   21.5048 C   0  0  0  0  0  0  0  0  0  0  0  0
  -27.9170  -36.3199   20.4536 C   0  0  0  0  0  0  0  0  0  0  0  0
  -25.8824  -29.3047   19.7260 C   0  0  0  0  0  0  0  0  0  0  0  0
  -28.1116  -34.9258   20.4839 C   0  0  0  0  0  0  0  0  0  0  0  0
  -25.5059  -28.6919   20.9297 C   0  0  0  0  0  0  0  0  0  0  0  0
  -30.5231  -20.1330   20.3211 C   0  0  0  0  0  0  0  0  0  0  0  0
  -30.1967  -18.2196   21.7597 C   0  0  0  0  0  0  0  0  0  0  0  0
  -29.2833  -20.6386   20.7122 C   0  0  0  0  0  0  0  0  0  0  0  0
  -22.8294   -7.6944   21.0663 C   0  0  0  0  0  0  0  0  0  0  0  0
  -26.9231  -26.7915   20.3912 C   0  0  0  0  0  0  0  0  0  0  0  0
  -21.7665   -6.0323   22.3430 C   0  0  0  0  0  0  0  0  0  0  0  0
  -20.8132   -5.1562   24.8141 C   0  0  0  0  0  0  0  0  0  0  0  0
  -28.9568  -18.7252   22.1508 C   0  0  0  0  0  0  0  0  0  0  0  0
  -22.2679   -4.8597   22.9080 C   0  0  0  0  0  0  0  0  0  0  0  0
  -24.6645  -11.5031   20.9110 C   0  0  0  0  0  0  0  0  0  0  0  0
  -25.1458  -13.6337   21.1637 C   0  0  0  0  0  0  0  0  0  0  0  0
  -23.0307  -12.9288   22.2941 C   0  0  0  0  0  0  0  0  0  0  0  0
  -25.9517  -32.0491   21.3282 C   0  0  0  0  0  0  0  0  0  0  0  0
  -22.8957  -31.2474   22.0634 C   0  0  0  0  0  0  0  0  0  0  0  0
  -20.5523  -28.7936   22.4295 C   0  0  0  0  0  0  0  0  0  0  0  0
  -30.4703  -15.1911   20.5560 C   0  0  0  0  0  0  0  0  0  0  0  0
  -27.0754  -37.0260   21.4870 C   0  0  0  0  0  0  0  0  0  0  0  0
  -25.3086  -30.6401   19.3390 C   0  0  0  0  0  0  0  0  0  0  0  0
  -24.5495  -29.3500   21.8893 C   0  0  0  0  0  0  0  0  0  0  0  0
  -26.1400  -36.0931   22.2517 C   0  0  0  0  0  0  0  0  0  0  0  0
  -28.9695  -13.4156   17.8594 C   0  0  0  0  0  0  0  0  0  0  0  0
  -26.8871  -34.8433   22.7065 C   0  0  0  0  0  0  0  0  0  0  0  0
  -27.6816  -12.8531   18.4636 C   0  0  0  0  0  0  0  0  0  0  0  0
  -29.2102  -24.9791   22.2235 C   0  0  0  0  0  0  0  0  0  0  0  0
  -30.1150  -13.4121   18.8692 C   0  0  0  0  0  0  0  0  0  0  0  0
  -28.5281  -13.5220   20.7516 C   0  0  0  0  0  0  0  0  0  0  0  0
  -28.9580  -23.4873   22.1376 C   0  0  0  0  0  0  0  0  0  0  0  0
  -29.3672  -24.3863   19.8962 C   0  0  0  0  0  0  0  0  0  0  0  0
  -27.4187  -34.0509   21.5060 C   0  0  1  0  0  0  0  0  0  0  0  0
  -24.8233  -31.4516   20.5362 C   0  0  1  0  0  0  0  0  0  0  0  0
  -27.3295  -13.5569   19.7880 C   0  0  2  0  0  0  0  0  0  0  0  0
  -28.8492  -25.4678   20.8313 C   0  0  1  0  0  0  0  0  0  1  0  0
  -31.3798  -20.8692   19.3441 C   0  0  0  0  0  0  0  0  0  0  0  0
  -18.1536  -28.4413   23.0772 C   0  0  0  0  0  0  0  0  0  0  0  0
  -23.6362  -31.6219   24.9997 C   0  0  0  0  0  0  0  0  0  0  0  0
  -21.5580  -30.3671   25.6117 C   0  0  0  0  0  0  0  0  0  0  0  0
  -21.3904  -32.5224   24.3670 C   0  0  0  0  0  0  0  0  0  0  0  0
  -19.8779  -27.6770   19.7729 C   0  0  0  0  0  0  0  0  0  0  0  0
  -30.6870  -16.9262   22.3172 C   0  0  0  0  0  0  0  0  0  0  0  0
  -28.7707  -21.9370   20.1626 C   0  0  0  0  0  0  0  0  0  0  0  0
  -22.2331  -30.4616   23.1691 C   0  0  1  0  0  0  0  0  0  0  0  0
  -19.1228  -28.6834   21.9306 C   0  0  2  0  0  0  0  0  0  0  0  0
  -22.2240  -31.2314   24.5199 C   0  0  0  0  0  0  0  0  0  0  0  0
  -25.8093  -11.6690   20.2433 N   0  0  0  0  0  0  0  0  0  0  0  0
  -26.0763  -12.9748   20.4153 N   0  0  0  0  0  0  0  0  0  0  0  0
  -24.0204  -30.6580   21.4689 N   0  0  0  0  0  0  0  0  0  0  0  0
  -29.7168  -14.0961   20.1019 N   0  0  0  0  0  0  0  0  0  0  0  0
  -25.2601  -14.9514   21.4340 N   0  0  0  0  0  0  0  0  0  0  0  0
  -22.1705  -11.8521   22.5495 N   0  0  0  0  0  0  0  0  0  0  0  0
  -26.3510  -33.2959   20.8860 N   0  0  0  0  0  0  0  0  0  0  0  0
  -20.9074  -30.1027   22.6769 N   0  0  0  0  0  0  0  0  0  0  0  0
  -30.0206  -15.7859   21.7285 N   0  0  0  0  0  0  0  0  0  0  0  0
  -29.4482  -23.1315   20.7534 N   0  3  2  0  0  0  0  0  0  0  0  0
  -18.9972  -27.5568   20.9632 N   0  3  0  0  0  0  0  0  0  0  0  0
  -22.7445  -14.0636   22.7455 O   0  0  0  0  0  0  0  0  0  0  0  0
  -26.4241  -31.4259   22.2717 O   0  0  0  0  0  0  0  0  0  0  0  0
  -22.4283  -32.3405   21.7344 O   0  0  0  0  0  0  0  0  0  0  0  0
  -21.2798  -27.8157   22.5877 O   0  0  0  0  0  0  0  0  0  0  0  0
  -31.4666  -15.6112   19.9578 O   0  0  0  0  0  0  0  0  0  0  0  0
  -22.2392   -6.4690   21.1168 O   0  0  0  0  0  0  0  0  0  0  0  0
  -27.4304  -25.5723   20.7198 O   0  0  0  0  0  0  0  0  0  1  0  0
  -20.3565   -4.7364   26.0012 F   0  0  0  0  0  0  0  0  0  0  0  0
  -28.1971  -18.0558   23.0292 F   0  0  0  0  0  0  0  0  0  0  0  0
  -23.2085   -4.1505   22.2691 F   0  0  0  0  0  0  0  0  0  0  0  0
  1  2  1  0  0  0  0
  1  5  2  0  0  0  0
  2  6  2  0  0  0  0
  3  8  2  0  0  0  0
  3 17  1  0  0  0  0
  4  9  1  0  0  0  0
  4 17  2  0  0  0  0
  5 19  1  0  0  0  0
  6 21  1  0  0  0  0
  7 10  2  0  0  0  0
  7 20  1  0  0  0  0
  8 26  1  0  0  0  0
  9 26  2  0  0  0  0
 10 27  1  0  0  0  0
 11 12  2  0  0  0  0
 11 28  1  0  0  0  0
 12 29  1  0  0  0  0
 13 22  1  0  0  0  0
 13 27  2  0  0  0  0
 14 23  1  0  0  0  0
 14 24  2  0  0  0  0
 15 25  1  0  0  0  0
 15 30  2  0  0  0  0
 16 29  2  0  0  0  0
 16 31  1  0  0  0  0
 17 32  1  0  0  0  0
 18 32  1  0  0  0  0
 18 33  2  0  0  0  0
 18 34  1  0  0  0  0
 19 21  2  0  0  0  0
 19 39  1  0  0  0  0
 20 22  2  0  0  0  0
 20 40  1  0  0  0  0
 21 51  1  0  0  0  0
 22 41  1  0  0  0  0
 23 25  2  0  0  0  0
 23 55  1  0  0  0  0
 24 30  1  0  0  0  0
 24 61  1  0  0  0  0
 25 62  1  0  0  0  0
 26 82  1  0  0  0  0
 27 83  1  0  0  0  0
 28 31  2  0  0  0  0
 28 82  1  0  0  0  0
 29 84  1  0  0  0  0
 30 85  1  0  0  0  0
 31 86  1  0  0  0  0
 32 66  2  0  0  0  0
 33 67  1  0  0  0  0
 33 70  1  0  0  0  0
 34 71  1  0  0  0  0
 34 77  2  0  0  0  0
 35 52  1  0  0  0  0
 35 72  1  0  0  0  0
 35 78  2  0  0  0  0
 36 63  1  0  0  0  0
 36 68  1  0  0  0  0
 36 79  2  0  0  0  0
 37 64  1  0  0  0  0
 37 73  1  0  0  0  0
 37 80  2  0  0  0  0
 38 69  1  0  0  0  0
 38 74  1  0  0  0  0
 38 81  2  0  0  0  0
 39 42  1  0  0  0  0
 40 52  1  0  0  0  0
 41 68  1  0  0  0  0
 42 44  1  0  0  0  0
 43 45  1  0  0  0  0
 43 47  1  0  0  0  0
 44 51  1  0  0  0  0
 45 53  1  0  0  0  0
 46 49  1  0  0  0  0
 46 54  1  0  0  0  0
 47 69  1  0  0  0  0
 48 53  1  0  0  0  0
 48 69  1  0  0  0  0
 49 75  1  0  0  0  0
 50 54  1  0  0  0  0
 50 75  1  0  0  0  0
 51 72  1  0  0  0  0
 52 68  1  0  0  0  0
 53 67  1  0  0  0  0
 54 83  1  0  0  0  0
 56 64  1  0  0  0  0
 57 65  1  0  0  0  0
 58 65  1  0  0  0  0
 59 65  1  0  0  0  0
 60 76  1  0  0  0  0
 61 74  1  0  0  0  0
 62 75  1  0  0  0  0
 63 65  1  0  0  0  0
 63 73  1  0  0  0  0
 64 76  1  0  0  0  0
 66 67  1  0  0  0  0
M  CHG  2  75   1  76   1
M  ISO  4  38 100  54 101  74 100  83 101
M  END
> <Batch ID>
0032

> <Smiles>
CNC(C)C(=O)NC(C(=O)N1Cc2cc([101O:1][101CH:1]3CCN(Cc4cc(F)c(C[100NH:0][100C:0](=O)N5CCCC(n6nc(-c7ccc(Oc8ccc(F)cc8F)cc7)c(C(N)=O)c6N)C5)cc4C)C3)ccc2CC1C(=O)NC1CCCc2ccccc21)C(C)(C)C

> <Shape>
0.364

> <Color>
0.161

> <Negative vol penalty>
0.000

$$$$

  -OEChem-04042321423D

 84 92  0     1  0  0  0  0  0999 V2000
  -16.5946  -30.0819   23.3941 C   0  0  0  0  0  0  0  0  0  0  0  0
  -17.6834  -30.8077   23.8665 C   0  0  0  0  0  0  0  0  0  0  0  0
  -27.9478  -16.8902   17.5639 C   0  0  0  0  0  0  0  0  0  0  0  0
  -27.3240  -17.7004   19.7528 C   0  0  0  0  0  0  0  0  0  0  0  0
  -30.7434  -27.2144   22.0659 C   0  0  0  0  0  0  0  0  0  0  0  0
  -16.7852  -28.8056   22.8662 C   0  0  0  0  0  0  0  0  0  0  0  0
  -18.9634  -30.2572   23.8121 C   0  0  0  0  0  0  0  0  0  0  0  0
  -25.8185  -32.1418   22.9330 C   0  0  0  0  0  0  0  0  0  0  0  0
  -30.4141  -26.5840   20.8660 C   0  0  0  0  0  0  0  0  0  0  0  0
  -28.3276  -15.6703   18.1236 C   0  0  0  0  0  0  0  0  0  0  0  0
  -27.7039  -16.4805   20.3126 C   0  0  0  0  0  0  0  0  0  0  0  0
  -27.0636  -31.9905   23.5416 C   0  0  0  0  0  0  0  0  0  0  0  0
  -26.4188  -13.3688   20.6062 C   0  0  0  0  0  0  0  0  0  0  0  0
  -25.5587  -12.7898   21.5392 C   0  0  0  0  0  0  0  0  0  0  0  0
  -28.9201  -26.0732   23.1659 C   0  0  0  0  0  0  0  0  0  0  0  0
  -27.2834  -29.8089   22.5358 C   0  0  0  0  0  0  0  0  0  0  0  0
  -27.3082  -12.8728   23.2034 C   0  0  0  0  0  0  0  0  0  0  0  0
  -27.4460  -17.9052   18.3785 C   0  0  0  0  0  0  0  0  0  0  0  0
  -29.9965  -26.9589   23.2159 C   0  0  0  0  0  0  0  0  0  0  0  0
  -25.7825  -19.5166   17.3090 C   0  0  0  0  0  0  0  0  0  0  0  0
  -18.0695  -28.2431   22.7964 C   0  0  0  0  0  0  0  0  0  0  0  0
  -25.2906  -31.1216   22.1287 C   0  0  0  0  0  0  0  0  0  0  0  0
  -19.1712  -28.9717   23.2839 C   0  0  0  0  0  0  0  0  0  0  0  0
  -26.0324  -29.9509   21.9160 C   0  0  0  0  0  0  0  0  0  0  0  0
  -28.5907  -25.4428   21.9660 C   0  0  0  0  0  0  0  0  0  0  0  0
  -29.3377  -25.6983   20.8160 C   0  0  0  0  0  0  0  0  0  0  0  0
  -28.2057  -15.4655   19.4979 C   0  0  0  0  0  0  0  0  0  0  0  0
  -27.7950  -30.8227   23.3454 C   0  0  0  0  0  0  0  0  0  0  0  0
  -27.7236  -13.6997   20.9716 C   0  0  0  0  0  0  0  0  0  0  0  0
  -26.0034  -12.5418   22.8378 C   0  0  0  0  0  0  0  0  0  0  0  0
  -28.1683  -13.4517   22.2703 C   0  0  0  0  0  0  0  0  0  0  0  0
  -27.0539  -19.1657   17.8010 C   0  0  0  0  0  0  0  0  0  0  0  0
  -25.9283  -20.8107   16.8726 C   0  0  0  0  0  0  0  0  0  0  0  0
  -30.3462  -27.6248   24.4866 C   0  0  0  0  0  0  0  0  0  0  0  0
  -24.5773  -18.7420   17.2518 C   0  0  0  0  0  0  0  0  0  0  0  0
  -22.7078  -29.2733   22.2573 C   0  0  0  0  0  0  0  0  0  0  0  0
  -23.7386  -28.2978   19.3404 C   0  0  0  0  0  0  0  0  0  0  0  0
  -26.3388  -27.9266   17.1614 C   0  0  0  0  0  0  0  0  0  0  0  0
  -29.6695  -25.2247   18.3641 C   0  0  0  0  0  0  0  0  0  0  0  0
  -18.2198  -26.8412   22.2608 C   0  0  0  0  0  0  0  0  0  0  0  0
  -23.9579  -31.3114   21.4577 C   0  0  0  0  0  0  0  0  0  0  0  0
  -25.5193  -28.8342   21.0452 C   0  0  0  0  0  0  0  0  0  0  0  0
  -19.6571  -26.4798   21.8949 C   0  0  0  0  0  0  0  0  0  0  0  0
  -29.2126  -23.8248   15.1224 C   0  0  0  0  0  0  0  0  0  0  0  0
  -20.6128  -26.9003   23.0069 C   0  0  0  0  0  0  0  0  0  0  0  0
  -28.4861  -22.5059   15.3962 C   0  0  0  0  0  0  0  0  0  0  0  0
  -30.2446  -24.1389   16.2042 C   0  0  0  0  0  0  0  0  0  0  0  0
  -29.0037  -22.7935   17.8531 C   0  0  0  0  0  0  0  0  0  0  0  0
  -20.5783  -28.4186   23.2193 C   0  0  1  0  0  0  0  0  0  0  0  0
  -23.2890  -29.9949   21.0744 C   0  0  1  0  0  0  0  0  0  0  0  0
  -27.9086  -22.4666   16.8247 C   0  0  2  0  0  0  0  0  0  0  0  0
  -27.4323  -24.4994   21.9415 C   0  0  0  0  0  0  0  0  0  0  0  0
  -27.5156  -27.3992   15.0086 C   0  0  0  0  0  0  0  0  0  0  0  0
  -23.5999  -25.4352   20.3874 C   0  0  0  0  0  0  0  0  0  0  0  0
  -25.0168  -24.7309   18.4471 C   0  0  0  0  0  0  0  0  0  0  0  0
  -22.7671  -25.7318   18.0480 C   0  0  0  0  0  0  0  0  0  0  0  0
  -25.9521  -30.6777   16.1412 C   0  0  0  0  0  0  0  0  0  0  0  0
  -30.1795  -30.5154   26.0285 C   0  0  0  0  0  0  0  0  0  0  0  0
  -29.6579  -29.1198   26.3273 C   0  0  0  0  0  0  0  0  0  0  0  0
  -29.2109  -31.3358   25.1860 C   0  0  0  0  0  0  0  0  0  1  0  0
  -24.6586  -27.2104   18.8402 C   0  0  1  0  0  0  0  0  0  0  0  0
  -26.4790  -28.2780   15.6913 C   0  0  2  0  0  0  0  0  0  0  0  0
  -24.0197  -25.7971   18.9487 C   0  0  0  0  0  0  0  0  0  0  0  0
  -27.9421  -20.1568   17.6878 N   0  0  0  0  0  0  0  0  0  0  0  0
  -27.2277  -21.1432   17.1197 N   0  0  0  0  0  0  0  0  0  0  0  0
  -24.2084  -29.0645   20.4161 N   0  0  0  0  0  0  0  0  0  0  0  0
  -29.6248  -24.0875   17.5301 N   0  0  0  0  0  0  0  0  0  0  0  0
  -25.0705  -21.6852   16.3052 N   0  0  0  0  0  0  0  0  0  0  0  0
  -31.5614  -27.4140   24.9926 N   0  0  0  0  0  0  0  0  0  0  0  0
  -24.6024  -17.4299   17.7438 N   0  0  0  0  0  0  0  0  0  0  0  0
  -29.0187  -25.0685   19.5875 N   0  0  0  0  0  0  0  0  0  0  0  0
  -21.3399  -29.0906   22.1883 N   0  0  0  0  0  0  0  0  0  0  0  0
  -25.0411  -27.5908   17.4847 N   0  0  0  0  0  0  0  0  0  0  0  0
  -29.4282  -28.4055   25.0712 N   0  3  0  0  0  0  0  0  0  0  0  0
  -26.8938  -29.7010   15.5361 N   0  3  0  0  0  0  0  0  0  0  0  0
  -23.5141  -19.1944   16.7634 O   0  0  0  0  0  0  0  0  0  0  0  0
  -23.4461  -28.9079   23.1646 O   0  0  0  0  0  0  0  0  0  0  0  0
  -22.6464  -28.4654   18.7920 O   0  0  0  0  0  0  0  0  0  0  0  0
  -27.2864  -27.9444   17.9438 O   0  0  0  0  0  0  0  0  0  0  0  0
  -30.2194  -26.2699   18.0074 O   0  0  0  0  0  0  0  0  0  0  0  0
  -28.5760  -14.2752   20.0444 O   0  0  0  0  0  0  0  0  0  0  0  0
  -29.0104  -30.6721   23.9388 O   0  0  0  0  0  0  0  0  0  1  0  0
  -25.1769  -11.9872   23.7342 F   0  0  0  0  0  0  0  0  0  0  0  0
  -29.4204  -13.7686   22.6276 F   0  0  0  0  0  0  0  0  0  0  0  0
  1  2  1  0  0  0  0
  1  6  2  0  0  0  0
  2  7  2  0  0  0  0
  3 10  2  0  0  0  0
  3 18  1  0  0  0  0
  4 11  1  0  0  0  0
  4 18  2  0  0  0  0
  5  9  2  0  0  0  0
  5 19  1  0  0  0  0
  6 21  1  0  0  0  0
  7 23  1  0  0  0  0
  8 12  2  0  0  0  0
  8 22  1  0  0  0  0
  9 26  1  0  0  0  0
 10 27  1  0  0  0  0
 11 27  2  0  0  0  0
 12 28  1  0  0  0  0
 13 14  2  0  0  0  0
 13 29  1  0  0  0  0
 14 30  1  0  0  0  0
 15 19  2  0  0  0  0
 15 25  1  0  0  0  0
 16 24  1  0  0  0  0
 16 28  2  0  0  0  0
 17 30  2  0  0  0  0
 17 31  1  0  0  0  0
 18 32  1  0  0  0  0
 19 34  1  0  0  0  0
 20 32  1  0  0  0  0
 20 33  2  0  0  0  0
 20 35  1  0  0  0  0
 21 23  2  0  0  0  0
 21 40  1  0  0  0  0
 22 24  2  0  0  0  0
 22 41  1  0  0  0  0
 23 49  1  0  0  0  0
 24 42  1  0  0  0  0
 25 26  2  0  0  0  0
 25 52  1  0  0  0  0
 26 71  1  0  0  0  0
 27 81  1  0  0  0  0
 28 82  1  0  0  0  0
 29 31  2  0  0  0  0
 29 81  1  0  0  0  0
 30 83  1  0  0  0  0
 31 84  1  0  0  0  0
 32 64  2  0  0  0  0
 33 65  1  0  0  0  0
 33 68  1  0  0  0  0
 34 69  1  0  0  0  0
 34 74  2  0  0  0  0
 35 70  1  0  0  0  0
 35 76  2  0  0  0  0
 36 50  1  0  0  0  0
 36 72  1  0  0  0  0
 36 77  2  0  0  0  0
 37 61  1  0  0  0  0
 37 66  1  0  0  0  0
 37 78  2  0  0  0  0
 38 62  1  0  0  0  0
 38 73  1  0  0  0  0
 38 79  2  0  0  0  0
 39 67  1  0  0  0  0
 39 71  1  0  0  0  0
 39 80  2  0  0  0  0
 40 43  1  0  0  0  0
 41 50  1  0  0  0  0
 42 66  1  0  0  0  0
 43 45  1  0  0  0  0
 44 46  1  0  0  0  0
 44 47  1  0  0  0  0
 45 49  1  0  0  0  0
 46 51  1  0  0  0  0
 47 67  1  0  0  0  0
 48 51  1  0  0  0  0
 48 67  1  0  0  0  0
 49 72  1  0  0  0  0
 50 66  1  0  0  0  0
 51 65  1  0  0  0  0
 53 62  1  0  0  0  0
 54 63  1  0  0  0  0
 55 63  1  0  0  0  0
 56 63  1  0  0  0  0
 57 75  1  0  0  0  0
 58 59  1  0  0  0  0
 58 60  1  0  0  0  0
 59 74  1  0  0  0  0
 60 82  1  0  0  0  0
 61 63  1  0  0  0  0
 61 73  1  0  0  0  0
 62 75  1  0  0  0  0
 64 65  1  0  0  0  0
M  CHG  2  74   1  75   1
M  ISO  4  39 100  60 101  71 100  82 101
M  END
> <Batch ID>
0032

> <Smiles>
CNC(C)C(=O)NC(C(=O)N1Cc2cc([101O:1][101CH2:1]CCNC(=N)c3ccc([100NH:0][100C:0](=O)N4CCCC(n5nc(-c6ccc(Oc7ccc(F)cc7F)cc6)c(C(N)=O)c5N)C4)c(C)c3)ccc2CC1C(=O)NC1CCCc2ccccc21)C(C)(C)C

> <Shape>
0.248

> <Color>
0.091

> <Negative vol penalty>
0.000

$$$$

  -OEChem-04042321423D

 88 97  0     1  0  0  0  0  0999 V2000
  -21.9798   -7.2626   23.9555 C   0  0  0  0  0  0  0  0  0  0  0  0
  -23.2845   -7.6674   24.2188 C   0  0  0  0  0  0  0  0  0  0  0  0
  -25.8463  -27.9100   21.7243 C   0  0  0  0  0  0  0  0  0  0  0  0
  -26.4634  -29.1951   19.7738 C   0  0  0  0  0  0  0  0  0  0  0  0
  -21.3678   -7.6235   22.7558 C   0  0  0  0  0  0  0  0  0  0  0  0
  -23.9784   -8.4324   23.2819 C   0  0  0  0  0  0  0  0  0  0  0  0
  -28.9089  -13.6115   22.8535 C   0  0  0  0  0  0  0  0  0  0  0  0
  -25.1997  -29.0261   22.2551 C   0  0  0  0  0  0  0  0  0  0  0  0
  -25.8167  -30.3112   20.3045 C   0  0  0  0  0  0  0  0  0  0  0  0
  -30.1226  -13.8940   22.2283 C   0  0  0  0  0  0  0  0  0  0  0  0
  -26.0607  -31.8774   23.8530 C   0  0  0  0  0  0  0  0  0  0  0  0
  -26.2794  -32.1733   25.1984 C   0  0  0  0  0  0  0  0  0  0  0  0
  -28.9368  -14.5249   20.2246 C   0  0  0  0  0  0  0  0  0  0  0  0
  -33.0201  -19.5108   15.3511 C   0  0  0  0  0  0  0  0  0  0  0  0
  -23.9152  -31.9349   25.6352 C   0  0  0  0  0  0  0  0  0  0  0  0
  -26.4783  -27.9945   20.4836 C   0  0  0  0  0  0  0  0  0  0  0  0
  -26.5740  -25.5939   19.6261 C   0  0  0  0  0  0  0  0  0  0  0  0
  -22.0512   -8.4014   21.8080 C   0  0  0  0  0  0  0  0  0  0  0  0
  -27.6986  -13.7734   22.1641 C   0  0  0  0  0  0  0  0  0  0  0  0
  -23.3755   -8.8028   22.0679 C   0  0  0  0  0  0  0  0  0  0  0  0
  -27.7089  -14.2462   20.8441 C   0  0  0  0  0  0  0  0  0  0  0  0
  -31.9278  -18.7681   15.7993 C   0  0  0  0  0  0  0  0  0  0  0  0
  -30.6430  -19.3069   15.7314 C   0  0  0  0  0  0  0  0  0  0  0  0
  -30.4504  -20.5884   15.2152 C   0  0  0  0  0  0  0  0  0  0  0  0
  -31.5428  -21.3311   14.7670 C   0  0  0  0  0  0  0  0  0  0  0  0
  -25.1848  -30.2267   21.5452 C   0  0  0  0  0  0  0  0  0  0  0  0
  -30.1369  -14.3481   20.9127 C   0  0  0  0  0  0  0  0  0  0  0  0
  -24.7692  -31.6103   23.3986 C   0  0  0  0  0  0  0  0  0  0  0  0
  -25.2067  -32.2020   26.0895 C   0  0  0  0  0  0  0  0  0  0  0  0
  -32.8276  -20.7924   14.8350 C   0  0  0  0  0  0  0  0  0  0  0  0
  -23.6965  -31.6391   24.2897 C   0  0  0  0  0  0  0  0  0  0  0  0
  -27.1469  -26.8421   19.9351 C   0  0  0  0  0  0  0  0  0  0  0  0
  -27.6185  -24.8484   19.1365 C   0  0  0  0  0  0  0  0  0  0  0  0
  -25.2187  -25.1482   19.7687 C   0  0  0  0  0  0  0  0  0  0  0  0
  -25.3420  -11.8309   21.2826 C   0  0  0  0  0  0  0  0  0  0  0  0
  -23.9329  -14.5995   20.3488 C   0  0  0  0  0  0  0  0  0  0  0  0
  -24.2957  -17.8501   19.3746 C   0  0  0  0  0  0  0  0  0  0  0  0
  -32.1405  -24.3394   15.9057 C   0  0  0  0  0  0  0  0  0  0  0  0
  -21.3648   -8.7269   20.5051 C   0  0  0  0  0  0  0  0  0  0  0  0
  -26.3964  -13.4897   22.8614 C   0  0  0  0  0  0  0  0  0  0  0  0
  -26.4360  -14.4561   20.0669 C   0  0  0  0  0  0  0  0  0  0  0  0
  -22.0377   -9.8549   19.7273 C   0  0  0  0  0  0  0  0  0  0  0  0
  -32.5954  -25.7523   19.1420 C   0  0  0  0  0  0  0  0  0  0  0  0
  -33.0721  -17.9276   20.0286 C   0  0  0  0  0  0  0  0  0  0  0  0
  -23.5475   -9.6428   19.6782 C   0  0  0  0  0  0  0  0  0  0  0  0
  -31.1723  -26.0643   19.6083 C   0  0  0  0  0  0  0  0  0  0  0  0
  -32.7155  -16.5496   20.5703 C   0  0  0  0  0  0  0  0  0  0  0  0
  -32.7634  -25.9916   17.6432 C   0  0  0  0  0  0  0  0  0  0  0  0
  -30.3603  -25.6049   17.2570 C   0  0  0  0  0  0  0  0  0  0  0  0
  -33.2823  -17.9023   18.5214 C   0  0  0  0  0  0  0  0  0  0  0  0
  -31.7292  -15.9423   18.3302 C   0  0  0  0  0  0  0  0  0  0  0  0
  -24.1523   -9.6544   21.0873 C   0  0  1  0  0  0  0  0  0  0  0  0
  -25.2519  -13.2000   21.8952 C   0  0  1  0  0  0  0  0  0  0  0  0
  -30.1268  -25.3252   18.7515 C   0  0  2  0  0  0  0  0  0  0  0  0
  -31.5156  -15.9569   19.8382 C   0  0  1  0  0  0  0  0  0  1  0  0
  -29.4739  -18.5087   16.2155 C   0  0  0  0  0  0  0  0  0  0  0  0
  -29.0730  -21.1675   15.1428 C   0  0  0  0  0  0  0  0  0  0  0  0
  -22.9646  -19.8469   18.6409 C   0  0  0  0  0  0  0  0  0  0  0  0
  -23.5516  -13.3321   17.5996 C   0  0  0  0  0  0  0  0  0  0  0  0
  -23.1150  -15.6204   16.6823 C   0  0  0  0  0  0  0  0  0  0  0  0
  -21.5974  -14.6627   18.4150 C   0  0  0  0  0  0  0  0  0  0  0  0
  -25.2325  -19.4639   21.6718 C   0  0  0  0  0  0  0  0  0  0  0  0
  -31.3604  -22.7048   14.2091 C   0  0  0  0  0  0  0  0  0  0  0  0
  -32.1632  -17.3933   16.3520 C   0  0  0  0  0  0  0  0  0  0  0  0
  -23.9176  -15.4161   19.0792 C   0  0  1  0  0  0  0  0  0  0  0  0
  -23.5923  -19.1195   19.8198 C   0  0  2  0  0  0  0  0  0  0  0  0
  -23.0697  -14.7521   17.9578 C   0  0  0  0  0  0  0  0  0  0  0  0
  -28.4540  -26.8906   19.6647 N   0  0  0  0  0  0  0  0  0  0  0  0
  -28.7111  -25.6635   19.1807 N   0  0  0  0  0  0  0  0  0  0  0  0
  -25.1886  -14.1588   20.7903 N   0  0  0  0  0  0  0  0  0  0  0  0
  -31.7425  -25.2616   16.8877 N   0  0  0  0  0  0  0  0  0  0  0  0
  -27.6998  -23.5816   18.6770 N   0  0  0  0  0  0  0  0  0  0  0  0
  -24.3367  -25.3374   18.6961 N   0  0  0  0  0  0  0  0  0  0  0  0
  -24.2687  -11.0115   21.5762 N   0  0  0  0  0  0  0  0  0  0  0  0
  -23.4671  -16.7510   19.4579 N   0  0  0  0  0  0  0  0  0  0  0  0
  -31.1099  -23.6862   15.2410 N   0  0  0  0  0  0  0  0  0  0  0  0
  -32.0541  -17.3342   17.8508 N   0  3  2  0  0  0  0  0  0  0  0  0
  -24.5579  -20.0421   20.4811 N   0  3  0  0  0  0  0  0  0  0  0  0
  -24.7980  -24.6132   20.8224 O   0  0  0  0  0  0  0  0  0  0  0  0
  -26.3125  -11.5401   20.5934 O   0  0  0  0  0  0  0  0  0  0  0  0
  -22.8707  -14.3674   20.9315 O   0  0  0  0  0  0  0  0  0  0  0  0
  -25.4622  -17.8355   18.9879 O   0  0  0  0  0  0  0  0  0  0  0  0
  -33.3265  -24.1109   15.6448 O   0  0  0  0  0  0  0  0  0  0  0  0
  -24.5537  -31.3159   22.0627 O   0  0  0  0  0  0  0  0  0  0  0  0
  -31.3202  -14.6240   20.3000 O   0  0  0  0  0  0  0  0  0  1  0  0
  -25.4172  -32.4847   27.3818 F   0  0  0  0  0  0  0  0  0  0  0  0
  -33.8838  -21.4978   14.4065 F   0  0  0  0  0  0  0  0  0  0  0  0
  -22.4536  -31.3822   23.8594 F   0  0  0  0  0  0  0  0  0  0  0  0
  1  2  1  0  0  0  0
  1  5  2  0  0  0  0
  2  6  2  0  0  0  0
  3  8  2  0  0  0  0
  3 16  1  0  0  0  0
  4  9  1  0  0  0  0
  4 16  2  0  0  0  0
  5 18  1  0  0  0  0
  6 20  1  0  0  0  0
  7 10  2  0  0  0  0
  7 19  1  0  0  0  0
  8 26  1  0  0  0  0
  9 26  2  0  0  0  0
 10 27  1  0  0  0  0
 11 12  2  0  0  0  0
 11 28  1  0  0  0  0
 12 29  1  0  0  0  0
 13 21  1  0  0  0  0
 13 27  2  0  0  0  0
 14 22  1  0  0  0  0
 14 30  2  0  0  0  0
 15 29  2  0  0  0  0
 15 31  1  0  0  0  0
 16 32  1  0  0  0  0
 17 32  1  0  0  0  0
 17 33  2  0  0  0  0
 17 34  1  0  0  0  0
 18 20  2  0  0  0  0
 18 39  1  0  0  0  0
 19 21  2  0  0  0  0
 19 40  1  0  0  0  0
 20 52  1  0  0  0  0
 21 41  1  0  0  0  0
 22 23  2  0  0  0  0
 22 64  1  0  0  0  0
 23 24  1  0  0  0  0
 23 56  1  0  0  0  0
 24 25  2  0  0  0  0
 24 57  1  0  0  0  0
 25 30  1  0  0  0  0
 25 63  1  0  0  0  0
 26 84  1  0  0  0  0
 27 85  1  0  0  0  0
 28 31  2  0  0  0  0
 28 84  1  0  0  0  0
 29 86  1  0  0  0  0
 30 87  1  0  0  0  0
 31 88  1  0  0  0  0
 32 68  2  0  0  0  0
 33 69  1  0  0  0  0
 33 72  1  0  0  0  0
 34 73  1  0  0  0  0
 34 79  2  0  0  0  0
 35 53  1  0  0  0  0
 35 74  1  0  0  0  0
 35 80  2  0  0  0  0
 36 65  1  0  0  0  0
 36 70  1  0  0  0  0
 36 81  2  0  0  0  0
 37 66  1  0  0  0  0
 37 75  1  0  0  0  0
 37 82  2  0  0  0  0
 38 71  1  0  0  0  0
 38 76  1  0  0  0  0
 38 83  2  0  0  0  0
 39 42  1  0  0  0  0
 40 53  1  0  0  0  0
 41 70  1  0  0  0  0
 42 45  1  0  0  0  0
 43 46  1  0  0  0  0
 43 48  1  0  0  0  0
 44 47  1  0  0  0  0
 44 50  1  0  0  0  0
 45 52  1  0  0  0  0
 46 54  1  0  0  0  0
 47 55  1  0  0  0  0
 48 71  1  0  0  0  0
 49 54  1  0  0  0  0
 49 71  1  0  0  0  0
 50 77  1  0  0  0  0
 51 55  1  0  0  0  0
 51 77  1  0  0  0  0
 52 74  1  0  0  0  0
 53 70  1  0  0  0  0
 54 69  1  0  0  0  0
 55 85  1  0  0  0  0
 58 66  1  0  0  0  0
 59 67  1  0  0  0  0
 60 67  1  0  0  0  0
 61 67  1  0  0  0  0
 62 78  1  0  0  0  0
 63 76  1  0  0  0  0
 64 77  1  0  0  0  0
 65 67  1  0  0  0  0
 65 75  1  0  0  0  0
 66 78  1  0  0  0  0
 68 69  1  0  0  0  0
M  CHG  2  77   1  78   1
M  ISO  4  38 100  55 101  76 100  85 101
M  END
> <Batch ID>
0032

> <Smiles>
CNC(C)C(=O)NC(C(=O)N1Cc2cc([101O:1][101CH:1]3CCCN(Cc4cc(F)c(C[100NH:0][100C:0](=O)N5CCCC(n6nc(-c7ccc(Oc8ccc(F)cc8F)cc7)c(C(N)=O)c6N)C5)c(C)c4C)C3)ccc2CC1C(=O)NC1CCCc2ccccc21)C(C)(C)C

> <Shape>
0.233

> <Color>
0.083

> <Negative vol penalty>
0.000

$$$$

  -OEChem-04042321423D

 83 91  0     1  0  0  0  0  0999 V2000
  -37.6183  -30.5862   28.2441 C   0  0  0  0  0  0  0  0  0  0  0  0
  -37.8516  -29.2600   27.8946 C   0  0  0  0  0  0  0  0  0  0  0  0
  -23.0532   -9.8646   19.9414 C   0  0  0  0  0  0  0  0  0  0  0  0
  -23.5599   -9.9558   22.3019 C   0  0  0  0  0  0  0  0  0  0  0  0
  -36.3432  -31.1306   28.0971 C   0  0  0  0  0  0  0  0  0  0  0  0
  -36.8097  -28.4771   27.3988 C   0  0  0  0  0  0  0  0  0  0  0  0
  -35.5459  -23.1154   22.8194 C   0  0  0  0  0  0  0  0  0  0  0  0
  -29.9588  -17.2979   23.5355 C   0  0  0  0  0  0  0  0  0  0  0  0
  -30.4104  -18.6174   23.5122 C   0  0  0  0  0  0  0  0  0  0  0  0
  -22.2544   -8.7415   20.1562 C   0  0  0  0  0  0  0  0  0  0  0  0
  -22.7610   -8.8327   22.5167 C   0  0  0  0  0  0  0  0  0  0  0  0
  -34.9321  -21.8646   22.7684 C   0  0  0  0  0  0  0  0  0  0  0  0
  -23.0168   -5.4833   22.1336 C   0  0  0  0  0  0  0  0  0  0  0  0
  -23.5217   -4.4768   22.9567 C   0  0  0  0  0  0  0  0  0  0  0  0
  -32.7890  -22.9346   22.4828 C   0  0  0  0  0  0  0  0  0  0  0  0
  -21.6509   -4.7661   24.4579 C   0  0  0  0  0  0  0  0  0  0  0  0
  -23.7060  -10.4717   21.0142 C   0  0  0  0  0  0  0  0  0  0  0  0
  -24.1299  -12.9803   20.8272 C   0  0  0  0  0  0  0  0  0  0  0  0
  -35.2873  -30.3568   27.5902 C   0  0  0  0  0  0  0  0  0  0  0  0
  -34.7833  -24.2873   22.7133 C   0  0  0  0  0  0  0  0  0  0  0  0
  -35.5189  -29.0113   27.2462 C   0  0  0  0  0  0  0  0  0  0  0  0
  -33.3959  -24.1990   22.5302 C   0  0  0  0  0  0  0  0  0  0  0  0
  -30.1576  -16.4731   22.4283 C   0  0  0  0  0  0  0  0  0  0  0  0
  -31.0608  -19.1121   22.3818 C   0  0  0  0  0  0  0  0  0  0  0  0
  -31.2595  -18.2873   21.2745 C   0  0  0  0  0  0  0  0  0  0  0  0
  -30.8079  -16.9678   21.2978 C   0  0  0  0  0  0  0  0  0  0  0  0
  -22.1083   -8.2256   21.4439 C   0  0  0  0  0  0  0  0  0  0  0  0
  -33.5531  -21.7741   22.6030 C   0  0  0  0  0  0  0  0  0  0  0  0
  -21.8290   -6.1313   22.4726 C   0  0  0  0  0  0  0  0  0  0  0  0
  -22.8387   -4.1181   24.1189 C   0  0  0  0  0  0  0  0  0  0  0  0
  -21.1460   -5.7726   23.6347 C   0  0  0  0  0  0  0  0  0  0  0  0
  -24.5318  -11.6315   20.7928 C   0  0  0  0  0  0  0  0  0  0  0  0
  -25.2757  -13.6870   20.5548 C   0  0  0  0  0  0  0  0  0  0  0  0
  -22.8366  -13.5439   21.0826 C   0  0  0  0  0  0  0  0  0  0  0  0
  -34.2154  -26.7737   24.6105 C   0  0  0  0  0  0  0  0  0  0  0  0
  -32.6659  -27.9157   21.9996 C   0  0  0  0  0  0  0  0  0  0  0  0
  -31.0582  -27.2511   19.0635 C   0  0  0  0  0  0  0  0  0  0  0  0
  -31.0289  -13.0418   21.8071 C   0  0  0  0  0  0  0  0  0  0  0  0
  -33.9152  -30.9754   27.4936 C   0  0  0  0  0  0  0  0  0  0  0  0
  -35.4638  -25.6284   22.7434 C   0  0  0  0  0  0  0  0  0  0  0  0
  -32.5346  -25.4267   22.3908 C   0  0  0  0  0  0  0  0  0  0  0  0
  -32.9526  -30.1873   26.6090 C   0  0  0  0  0  0  0  0  0  0  0  0
  -29.6010  -12.6523   18.4143 C   0  0  0  0  0  0  0  0  0  0  0  0
  -33.0176  -28.7001   26.9420 C   0  0  0  0  0  0  0  0  0  0  0  0
  -28.1214  -12.4033   18.7022 C   0  0  0  0  0  0  0  0  0  0  0  0
  -30.4896  -12.1763   19.5595 C   0  0  0  0  0  0  0  0  0  0  0  0
  -28.6428  -12.4978   21.1719 C   0  0  0  0  0  0  0  0  0  0  0  0
  -34.4201  -28.1373   26.6816 C   0  0  1  0  0  0  0  0  0  0  0  0
  -34.5269  -26.7650   23.1406 C   0  0  1  0  0  0  0  0  0  0  0  0
  -27.7169  -13.0084   20.0577 C   0  0  2  0  0  0  0  0  0  0  0  0
  -31.9558  -18.8201   20.0623 C   0  0  0  0  0  0  0  0  0  0  0  0
  -30.0393  -16.3804   18.9846 C   0  0  0  0  0  0  0  0  0  0  0  0
  -29.8673  -28.3866   17.1688 C   0  0  0  0  0  0  0  0  0  0  0  0
  -30.2235  -28.3237   23.7825 C   0  0  0  0  0  0  0  0  0  0  0  0
  -28.8339  -28.5384   21.7110 C   0  0  0  0  0  0  0  0  0  0  0  0
  -30.6559  -30.1809   22.1643 C   0  0  0  0  0  0  0  0  0  0  0  0
  -31.7311  -14.4715   23.6893 C   0  0  0  0  0  0  0  0  0  0  0  0
  -33.0125  -26.2474   17.0805 C   0  0  0  0  0  0  0  0  0  0  0  0
  -31.0208  -16.0806   20.1124 C   0  0  0  0  0  0  0  0  0  0  0  0
  -29.6644  -15.0639   22.4795 C   0  0  0  0  0  0  0  0  0  0  0  0
  -31.5348  -20.5357   22.3822 C   0  0  0  0  0  0  0  0  0  1  0  0
  -31.2555  -27.8253   21.4689 C   0  0  1  0  0  0  0  0  0  0  0  0
  -31.1986  -27.8569   17.6787 C   0  0  2  0  0  0  0  0  0  0  0  0
  -30.2579  -28.6938   22.2862 C   0  0  0  0  0  0  0  0  0  0  0  0
  -25.8313  -11.4875   20.5200 N   0  0  0  0  0  0  0  0  0  0  0  0
  -26.2560  -12.7549   20.3803 N   0  0  0  0  0  0  0  0  0  0  0  0
  -33.2459  -26.7151   22.4330 N   0  0  0  0  0  0  0  0  0  0  0  0
  -30.0565  -12.7322   20.8419 N   0  0  0  0  0  0  0  0  0  0  0  0
  -25.5303  -15.0086   20.4498 N   0  0  0  0  0  0  0  0  0  0  0  0
  -21.7688  -12.6747   21.3446 N   0  0  0  0  0  0  0  0  0  0  0  0
  -34.6227  -27.9204   25.2651 N   0  0  0  0  0  0  0  0  0  0  0  0
  -31.3289  -28.1718   20.0536 N   0  0  0  0  0  0  0  0  0  0  0  0
  -30.7489  -14.1050   22.6789 N   0  0  0  0  0  0  0  0  0  0  0  0
  -31.6984  -26.8360   16.7149 N   0  3  0  0  0  0  0  0  0  0  0  0
  -22.6303  -14.7811   21.0623 O   0  0  0  0  0  0  0  0  0  0  0  0
  -33.6464  -25.8118   25.1132 O   0  0  0  0  0  0  0  0  0  0  0  0
  -33.2346  -29.0101   22.0219 O   0  0  0  0  0  0  0  0  0  0  0  0
  -30.7367  -26.0793   19.2485 O   0  0  0  0  0  0  0  0  0  0  0  0
  -32.0911  -12.4105   21.8789 O   0  0  0  0  0  0  0  0  0  0  0  0
  -21.3287   -7.1298   21.6539 O   0  0  0  0  0  0  0  0  0  0  0  0
  -32.9514  -20.5546   22.5535 O   0  0  0  0  0  0  0  0  0  1  0  0
  -23.3229   -3.1505   24.9085 F   0  0  0  0  0  0  0  0  0  0  0  0
  -20.0038   -6.3908   23.9650 F   0  0  0  0  0  0  0  0  0  0  0  0
  1  2  1  0  0  0  0
  1  5  2  0  0  0  0
  2  6  2  0  0  0  0
  3 10  2  0  0  0  0
  3 17  1  0  0  0  0
  4 11  1  0  0  0  0
  4 17  2  0  0  0  0
  5 19  1  0  0  0  0
  6 21  1  0  0  0  0
  7 12  2  0  0  0  0
  7 20  1  0  0  0  0
  8  9  1  0  0  0  0
  8 23  2  0  0  0  0
  9 24  2  0  0  0  0
 10 27  1  0  0  0  0
 11 27  2  0  0  0  0
 12 28  1  0  0  0  0
 13 14  2  0  0  0  0
 13 29  1  0  0  0  0
 14 30  1  0  0  0  0
 15 22  1  0  0  0  0
 15 28  2  0  0  0  0
 16 30  2  0  0  0  0
 16 31  1  0  0  0  0
 17 32  1  0  0  0  0
 18 32  1  0  0  0  0
 18 33  2  0  0  0  0
 18 34  1  0  0  0  0
 19 21  2  0  0  0  0
 19 39  1  0  0  0  0
 20 22  2  0  0  0  0
 20 40  1  0  0  0  0
 21 48  1  0  0  0  0
 22 41  1  0  0  0  0
 23 26  1  0  0  0  0
 23 60  1  0  0  0  0
 24 25  1  0  0  0  0
 24 61  1  0  0  0  0
 25 26  2  0  0  0  0
 25 51  1  0  0  0  0
 26 59  1  0  0  0  0
 27 80  1  0  0  0  0
 28 81  1  0  0  0  0
 29 31  2  0  0  0  0
 29 80  1  0  0  0  0
 30 82  1  0  0  0  0
 31 83  1  0  0  0  0
 32 65  2  0  0  0  0
 33 66  1  0  0  0  0
 33 69  1  0  0  0  0
 34 70  1  0  0  0  0
 34 75  2  0  0  0  0
 35 49  1  0  0  0  0
 35 71  1  0  0  0  0
 35 76  2  0  0  0  0
 36 62  1  0  0  0  0
 36 67  1  0  0  0  0
 36 77  2  0  0  0  0
 37 63  1  0  0  0  0
 37 72  1  0  0  0  0
 37 78  2  0  0  0  0
 38 68  1  0  0  0  0
 38 73  1  0  0  0  0
 38 79  2  0  0  0  0
 39 42  1  0  0  0  0
 40 49  1  0  0  0  0
 41 67  1  0  0  0  0
 42 44  1  0  0  0  0
 43 45  1  0  0  0  0
 43 46  1  0  0  0  0
 44 48  1  0  0  0  0
 45 50  1  0  0  0  0
 46 68  1  0  0  0  0
 47 50  1  0  0  0  0
 47 68  1  0  0  0  0
 48 71  1  0  0  0  0
 49 67  1  0  0  0  0
 50 66  1  0  0  0  0
 52 59  1  0  0  0  0
 53 63  1  0  0  0  0
 54 64  1  0  0  0  0
 55 64  1  0  0  0  0
 56 64  1  0  0  0  0
 57 73  1  0  0  0  0
 58 74  1  0  0  0  0
 60 73  1  0  0  0  0
 61 81  1  0  0  0  0
 62 64  1  0  0  0  0
 62 72  1  0  0  0  0
 63 74  1  0  0  0  0
 65 66  1  0  0  0  0
M  CHG  1  74   1
M  ISO  4  38 100  61 101  73 100  81 101
M  END
> <Batch ID>
0032

> <Smiles>
CCc1c(C[100N:0](C)[100C:0](=O)N2CCCC(n3nc(-c4ccc(Oc5ccc(F)cc5F)cc4)c(C(N)=O)c3N)C2)ccc([101CH2:1][101O:1]c2ccc3c(c2)CN(C(=O)C(NC(=O)C(C)NC)C(C)(C)C)C(C(=O)NC2CCCc4ccccc42)C3)c1C

> <Shape>
0.211

> <Color>
0.198

> <Negative vol penalty>
0.000

$$$$

  -OEChem-04042321423D

 82 90  0     1  0  0  0  0  0999 V2000
  -30.1549  -36.6287   23.0049 C   0  0  0  0  0  0  0  0  0  0  0  0
  -30.1717  -35.6464   22.0199 C   0  0  0  0  0  0  0  0  0  0  0  0
  -24.4396   -8.8331   21.4135 C   0  0  0  0  0  0  0  0  0  0  0  0
  -24.2999  -10.4100   23.2386 C   0  0  0  0  0  0  0  0  0  0  0  0
  -29.2411  -20.5478   20.0745 C   0  0  0  0  0  0  0  0  0  0  0  0
  -29.5784  -36.3604   24.2456 C   0  0  0  0  0  0  0  0  0  0  0  0
  -29.6130  -34.3946   22.2756 C   0  0  0  0  0  0  0  0  0  0  0  0
  -26.1409  -29.0555   18.9961 C   0  0  0  0  0  0  0  0  0  0  0  0
  -29.3027  -19.1672   19.8858 C   0  0  0  0  0  0  0  0  0  0  0  0
  -24.0634   -7.8027   22.2749 C   0  0  0  0  0  0  0  0  0  0  0  0
  -23.9237   -9.3795   24.1001 C   0  0  0  0  0  0  0  0  0  0  0  0
  -26.2106  -27.6745   18.8179 C   0  0  0  0  0  0  0  0  0  0  0  0
  -21.2105   -6.6316   23.6614 C   0  0  0  0  0  0  0  0  0  0  0  0
  -20.2452   -5.7307   23.2118 C   0  0  0  0  0  0  0  0  0  0  0  0
  -26.8393  -20.4751   19.8233 C   0  0  0  0  0  0  0  0  0  0  0  0
  -25.1717  -27.3502   20.9707 C   0  0  0  0  0  0  0  0  0  0  0  0
  -21.8209   -3.9166   23.4638 C   0  0  0  0  0  0  0  0  0  0  0  0
  -24.5579  -10.1368   21.8953 C   0  0  0  0  0  0  0  0  0  0  0  0
  -28.0094  -21.2018   20.0433 C   0  0  0  0  0  0  0  0  0  0  0  0
  -24.0982  -12.0186   20.2355 C   0  0  0  0  0  0  0  0  0  0  0  0
  -29.0037  -35.1079   24.5133 C   0  0  0  0  0  0  0  0  0  0  0  0
  -25.5950  -29.5950   20.1698 C   0  0  0  0  0  0  0  0  0  0  0  0
  -29.0294  -34.1088   23.5216 C   0  0  0  0  0  0  0  0  0  0  0  0
  -25.0938  -28.7384   21.1603 C   0  0  0  0  0  0  0  0  0  0  0  0
  -26.9009  -19.0945   19.6346 C   0  0  0  0  0  0  0  0  0  0  0  0
  -28.1326  -18.4405   19.6658 C   0  0  0  0  0  0  0  0  0  0  0  0
  -23.8055   -8.0758   23.6182 C   0  0  0  0  0  0  0  0  0  0  0  0
  -25.7286  -26.8216   19.8065 C   0  0  0  0  0  0  0  0  0  0  0  0
  -22.4811   -6.1750   24.0122 C   0  0  0  0  0  0  0  0  0  0  0  0
  -20.5503   -4.3732   23.1131 C   0  0  0  0  0  0  0  0  0  0  0  0
  -22.7862   -4.8175   23.9134 C   0  0  0  0  0  0  0  0  0  0  0  0
  -24.9471  -11.2017   21.0060 C   0  0  0  0  0  0  0  0  0  0  0  0
  -24.9492  -12.8663   19.5694 C   0  0  0  0  0  0  0  0  0  0  0  0
  -27.9451  -22.6603   20.2428 C   0  0  0  0  0  0  0  0  0  0  0  0
  -26.9186  -23.4360   19.8665 C   0  0  0  0  0  0  0  0  0  0  0  0
  -22.6682  -12.0120   20.1312 C   0  0  0  0  0  0  0  0  0  0  0  0
  -26.9780  -24.8956   20.1154 C   0  0  0  0  0  0  0  0  0  1  0  0
  -26.7024  -31.4162   22.5279 C   0  0  0  0  0  0  0  0  0  0  0  0
  -23.6028  -31.3853   23.4840 C   0  0  0  0  0  0  0  0  0  0  0  0
  -20.5744  -29.8124   23.4450 C   0  0  0  0  0  0  0  0  0  0  0  0
  -29.3681  -16.2529   19.4811 C   0  0  0  0  0  0  0  0  0  0  0  0
  -28.4343  -34.8488   25.8857 C   0  0  0  0  0  0  0  0  0  0  0  0
  -25.5026  -31.0872   20.3351 C   0  0  0  0  0  0  0  0  0  0  0  0
  -24.4797  -29.2675   22.4297 C   0  0  0  0  0  0  0  0  0  0  0  0
  -27.5297  -33.6208   25.9480 C   0  0  0  0  0  0  0  0  0  0  0  0
  -29.9873  -12.7685   19.0897 C   0  0  0  0  0  0  0  0  0  0  0  0
  -28.1833  -32.4398   25.2374 C   0  0  0  0  0  0  0  0  0  0  0  0
  -28.6614  -12.1175   19.4900 C   0  0  0  0  0  0  0  0  0  0  0  0
  -30.2977  -13.9955   19.9452 C   0  0  0  0  0  0  0  0  0  0  0  0
  -27.9026  -14.3496   20.4005 C   0  0  0  0  0  0  0  0  0  0  0  0
  -28.4113  -32.7469   23.7524 C   0  0  1  0  0  0  0  0  0  0  0  0
  -25.3956  -31.5212   21.7937 C   0  0  1  0  0  0  0  0  0  0  0  0
  -27.5153  -13.1475   19.5237 C   0  0  2  0  0  0  0  0  0  0  0  0
  -25.6317  -18.3410   19.4009 C   0  0  0  0  0  0  0  0  0  0  0  0
  -18.2419  -30.0069   24.3499 C   0  0  0  0  0  0  0  0  0  0  0  0
  -24.5841  -30.4327   26.2115 C   0  0  0  0  0  0  0  0  0  0  0  0
  -22.2350  -29.7462   26.7393 C   0  0  0  0  0  0  0  0  0  0  0  0
  -22.7624  -32.1440   26.2976 C   0  0  0  0  0  0  0  0  0  0  0  0
  -19.4114  -29.9905   20.7294 C   0  0  0  0  0  0  0  0  0  0  0  0
  -22.7683  -30.4995   24.3772 C   0  0  1  0  0  0  0  0  0  0  0  0
  -19.1716  -30.3342   23.1917 C   0  0  2  0  0  0  0  0  0  0  0  0
  -23.1007  -30.6953   25.8834 C   0  0  0  0  0  0  0  0  0  0  0  0
  -26.2383  -11.5030   20.8451 N   0  0  0  0  0  0  0  0  0  0  0  0
  -26.2071  -12.5188   19.9658 N   0  0  0  0  0  0  0  0  0  0  0  0
  -24.4179  -30.7338   22.5475 N   0  0  0  0  0  0  0  0  0  0  0  0
  -29.1692  -14.9288   19.9262 N   0  0  0  0  0  0  0  0  0  0  0  0
  -24.7368  -13.8675   18.6891 N   0  0  0  0  0  0  0  0  0  0  0  0
  -21.9478  -11.0751   20.8845 N   0  0  0  0  0  0  0  0  0  0  0  0
  -28.2162  -17.0387   19.4764 N   0  0  0  0  0  0  0  0  0  0  0  0
  -27.1729  -32.6210   23.0142 N   0  0  0  0  0  0  0  0  0  0  0  0
  -21.3763  -30.7678   24.0327 N   0  0  0  0  0  0  0  0  0  0  0  0
  -18.6094  -29.7277   21.9519 N   0  3  0  0  0  0  0  0  0  0  0  0
  -22.0487  -12.8023   19.3794 O   0  0  0  0  0  0  0  0  0  0  0  0
  -27.9041  -25.4862   20.6496 O   0  0  0  0  0  0  0  0  0  0  0  0
  -27.2430  -30.3227   22.6457 O   0  0  0  0  0  0  0  0  0  0  0  0
  -23.5287  -32.6104   23.6076 O   0  0  0  0  0  0  0  0  0  0  0  0
  -20.9229  -28.6702   23.1543 O   0  0  0  0  0  0  0  0  0  0  0  0
  -30.4730  -16.6517   19.1043 O   0  0  0  0  0  0  0  0  0  0  0  0
  -23.4381   -7.0705   24.4591 O   0  0  0  0  0  0  0  0  0  0  0  0
  -25.7961  -25.4733   19.6353 O   0  0  0  0  0  0  0  0  0  1  0  0
  -19.6228   -3.5080   22.6828 F   0  0  0  0  0  0  0  0  0  0  0  0
  -24.0047   -4.3728   24.2501 F   0  0  0  0  0  0  0  0  0  0  0  0
  1  2  1  0  0  0  0
  1  6  2  0  0  0  0
  2  7  2  0  0  0  0
  3 10  2  0  0  0  0
  3 18  1  0  0  0  0
  4 11  1  0  0  0  0
  4 18  2  0  0  0  0
  5  9  2  0  0  0  0
  5 19  1  0  0  0  0
  6 21  1  0  0  0  0
  7 23  1  0  0  0  0
  8 12  2  0  0  0  0
  8 22  1  0  0  0  0
  9 26  1  0  0  0  0
 10 27  1  0  0  0  0
 11 27  2  0  0  0  0
 12 28  1  0  0  0  0
 13 14  2  0  0  0  0
 13 29  1  0  0  0  0
 14 30  1  0  0  0  0
 15 19  2  0  0  0  0
 15 25  1  0  0  0  0
 16 24  1  0  0  0  0
 16 28  2  0  0  0  0
 17 30  2  0  0  0  0
 17 31  1  0  0  0  0
 18 32  1  0  0  0  0
 19 34  1  0  0  0  0
 20 32  1  0  0  0  0
 20 33  2  0  0  0  0
 20 36  1  0  0  0  0
 21 23  2  0  0  0  0
 21 42  1  0  0  0  0
 22 24  2  0  0  0  0
 22 43  1  0  0  0  0
 23 51  1  0  0  0  0
 24 44  1  0  0  0  0
 25 26  2  0  0  0  0
 25 54  1  0  0  0  0
 26 69  1  0  0  0  0
 27 79  1  0  0  0  0
 28 80  1  0  0  0  0
 29 31  2  0  0  0  0
 29 79  1  0  0  0  0
 30 81  1  0  0  0  0
 31 82  1  0  0  0  0
 32 63  2  0  0  0  0
 33 64  1  0  0  0  0
 33 67  1  0  0  0  0
 34 35  2  0  0  0  0
 35 37  1  0  0  0  0
 36 68  1  0  0  0  0
 36 73  2  0  0  0  0
 37 74  2  0  0  0  0
 37 80  1  0  0  0  0
 38 52  1  0  0  0  0
 38 70  1  0  0  0  0
 38 75  2  0  0  0  0
 39 60  1  0  0  0  0
 39 65  1  0  0  0  0
 39 76  2  0  0  0  0
 40 61  1  0  0  0  0
 40 71  1  0  0  0  0
 40 77  2  0  0  0  0
 41 66  1  0  0  0  0
 41 69  1  0  0  0  0
 41 78  2  0  0  0  0
 42 45  1  0  0  0  0
 43 52  1  0  0  0  0
 44 65  1  0  0  0  0
 45 47  1  0  0  0  0
 46 48  1  0  0  0  0
 46 49  1  0  0  0  0
 47 51  1  0  0  0  0
 48 53  1  0  0  0  0
 49 66  1  0  0  0  0
 50 53  1  0  0  0  0
 50 66  1  0  0  0  0
 51 70  1  0  0  0  0
 52 65  1  0  0  0  0
 53 64  1  0  0  0  0
 55 61  1  0  0  0  0
 56 62  1  0  0  0  0
 57 62  1  0  0  0  0
 58 62  1  0  0  0  0
 59 72  1  0  0  0  0
 60 62  1  0  0  0  0
 60 71  1  0  0  0  0
 61 72  1  0  0  0  0
 63 64  1  0  0  0  0
M  CHG  1  72   1
M  ISO  4  37 101  41 100  69 100  80 101
M  END
> <Batch ID>
0032

> <Smiles>
CNC(C)C(=O)NC(C(=O)N1Cc2cc([101O:1][101C:1](=O)C=Cc3ccc([100NH:0][100C:0](=O)N4CCCC(n5nc(-c6ccc(Oc7ccc(F)cc7F)cc6)c(C(N)=O)c5N)C4)c(C)c3)ccc2CC1C(=O)NC1CCCc2ccccc21)C(C)(C)C

> <Shape>
0.307

> <Color>
0.117

> <Negative vol penalty>
0.000

$$$$

  -OEChem-04042321423D

 82 90  0     1  0  0  0  0  0999 V2000
  -34.5474  -28.4301   27.0590 C   0  0  0  0  0  0  0  0  0  0  0  0
  -33.8446  -27.3225   26.5953 C   0  0  0  0  0  0  0  0  0  0  0  0
  -23.1459   -9.8434   19.9359 C   0  0  0  0  0  0  0  0  0  0  0  0
  -23.6452   -9.9847   22.2955 C   0  0  0  0  0  0  0  0  0  0  0  0
  -33.9675  -29.6967   27.0005 C   0  0  0  0  0  0  0  0  0  0  0  0
  -32.5611  -27.4809   26.0739 C   0  0  0  0  0  0  0  0  0  0  0  0
  -31.8718  -24.8780   21.7849 C   0  0  0  0  0  0  0  0  0  0  0  0
  -22.3887   -8.6946   20.1649 C   0  0  0  0  0  0  0  0  0  0  0  0
  -22.8879   -8.8359   22.5245 C   0  0  0  0  0  0  0  0  0  0  0  0
  -31.6476  -23.5069   21.9013 C   0  0  0  0  0  0  0  0  0  0  0  0
  -23.2676   -5.4934   22.1865 C   0  0  0  0  0  0  0  0  0  0  0  0
  -23.8079   -4.5172   23.0236 C   0  0  0  0  0  0  0  0  0  0  0  0
  -29.2802  -23.8765   21.6224 C   0  0  0  0  0  0  0  0  0  0  0  0
  -30.1959  -18.9263   23.3554 C   0  0  0  0  0  0  0  0  0  0  0  0
  -31.0438  -18.5515   21.1244 C   0  0  0  0  0  0  0  0  0  0  0  0
  -21.9254   -4.7573   24.5187 C   0  0  0  0  0  0  0  0  0  0  0  0
  -23.7742  -10.4885   21.0012 C   0  0  0  0  0  0  0  0  0  0  0  0
  -24.1057  -13.0082   20.7811 C   0  0  0  0  0  0  0  0  0  0  0  0
  -32.6800  -29.8719   26.4692 C   0  0  0  0  0  0  0  0  0  0  0  0
  -30.7989  -25.7613   21.5971 C   0  0  0  0  0  0  0  0  0  0  0  0
  -31.9629  -28.7508   26.0095 C   0  0  0  0  0  0  0  0  0  0  0  0
  -29.4936  -25.2581   21.5015 C   0  0  0  0  0  0  0  0  0  0  0  0
  -30.8264  -19.4042   22.2067 C   0  0  0  0  0  0  0  0  0  0  0  0
  -29.7830  -17.5956   23.4220 C   0  0  0  0  0  0  0  0  0  0  0  0
  -30.6309  -17.2208   21.1910 C   0  0  0  0  0  0  0  0  0  0  0  0
  -30.0004  -16.7429   22.3398 C   0  0  0  0  0  0  0  0  0  0  0  0
  -22.2597   -8.1908   21.4592 C   0  0  0  0  0  0  0  0  0  0  0  0
  -30.3514  -23.0062   21.8229 C   0  0  0  0  0  0  0  0  0  0  0  0
  -22.0562   -6.1016   22.5155 C   0  0  0  0  0  0  0  0  0  0  0  0
  -23.1368   -4.1492   24.1897 C   0  0  0  0  0  0  0  0  0  0  0  0
  -21.3851   -5.7335   23.6816 C   0  0  0  0  0  0  0  0  0  0  0  0
  -24.5570  -11.6749   20.7653 C   0  0  0  0  0  0  0  0  0  0  0  0
  -25.2251  -13.7530   20.5006 C   0  0  0  0  0  0  0  0  0  0  0  0
  -22.7920  -13.5272   21.0276 C   0  0  0  0  0  0  0  0  0  0  0  0
  -29.5742  -28.1860   23.2476 C   0  0  0  0  0  0  0  0  0  0  0  0
  -27.7020  -28.5201   20.6198 C   0  0  0  0  0  0  0  0  0  0  0  0
  -26.2928  -27.0816   17.8645 C   0  0  0  0  0  0  0  0  0  0  0  0
  -30.9962  -13.3371   21.7675 C   0  0  0  0  0  0  0  0  0  0  0  0
  -32.0762  -31.2540   26.4703 C   0  0  0  0  0  0  0  0  0  0  0  0
  -31.0602  -27.2349   21.4467 C   0  0  0  0  0  0  0  0  0  0  0  0
  -28.3095  -26.1621   21.2802 C   0  0  0  0  0  0  0  0  0  0  0  0
  -30.8593  -31.3877   25.5583 C   0  0  0  0  0  0  0  0  0  0  0  0
  -29.5889  -12.8501   18.3787 C   0  0  0  0  0  0  0  0  0  0  0  0
  -29.9043  -30.2168   25.7674 C   0  0  0  0  0  0  0  0  0  0  0  0
  -28.1191  -12.5505   18.6683 C   0  0  0  0  0  0  0  0  0  0  0  0
  -30.4927  -12.4225   19.5311 C   0  0  0  0  0  0  0  0  0  0  0  0
  -28.6327  -12.6971   21.1372 C   0  0  0  0  0  0  0  0  0  0  0  0
  -30.5782  -28.8854   25.4141 C   0  0  1  0  0  0  0  0  0  0  0  0
  -29.8421  -28.0939   21.7720 C   0  0  1  0  0  0  0  0  0  0  0  0
  -27.6904  -13.1583   20.0152 C   0  0  2  0  0  0  0  0  0  0  0  0
  -29.1091  -17.1090   24.6633 C   0  0  0  0  0  0  0  0  0  0  0  0
  -30.8754  -16.3281   20.0184 C   0  0  0  0  0  0  0  0  0  0  0  0
  -24.7814  -27.5967   15.9286 C   0  0  0  0  0  0  0  0  0  0  0  0
  -25.2867  -28.4182   22.4815 C   0  0  0  0  0  0  0  0  0  0  0  0
  -23.8493  -27.9800   20.4790 C   0  0  0  0  0  0  0  0  0  0  0  0
  -25.1239  -30.1172   20.6536 C   0  0  0  0  0  0  0  0  0  0  0  0
  -31.6423  -14.8166   23.6312 C   0  0  0  0  0  0  0  0  0  0  0  0
  -28.4103  -26.4537   15.8944 C   0  0  0  0  0  0  0  0  0  0  0  0
  -29.5571  -15.3163   22.4113 C   0  0  0  0  0  0  0  0  0  0  0  0
  -31.2712  -20.8355   22.1353 C   0  0  0  0  0  0  0  0  0  1  0  0
  -26.3676  -27.9675   20.1805 C   0  0  1  0  0  0  0  0  0  0  0  0
  -26.2201  -27.5347   16.4175 C   0  0  2  0  0  0  0  0  0  0  0  0
  -25.1788  -28.6036   20.9548 C   0  0  0  0  0  0  0  0  0  0  0  0
  -25.8614  -11.5752   20.4958 N   0  0  0  0  0  0  0  0  0  0  0  0
  -26.2393  -12.8554   20.3396 N   0  0  0  0  0  0  0  0  0  0  0  0
  -28.6158  -27.5959   21.1457 N   0  0  0  0  0  0  0  0  0  0  0  0
  -30.0374  -12.9790   20.8056 N   0  0  0  0  0  0  0  0  0  0  0  0
  -25.4309  -15.0816   20.3782 N   0  0  0  0  0  0  0  0  0  0  0  0
  -21.7566  -12.6227   21.3000 N   0  0  0  0  0  0  0  0  0  0  0  0
  -30.6245  -28.7076   23.9786 N   0  0  0  0  0  0  0  0  0  0  0  0
  -26.3057  -28.1512   18.7346 N   0  0  0  0  0  0  0  0  0  0  0  0
  -30.6758  -14.4007   22.6247 N   0  0  0  0  0  0  0  0  0  0  0  0
  -26.9740  -26.5937   15.5416 N   0  3  0  0  0  0  0  0  0  0  0  0
  -22.5404  -14.7555   20.9906 O   0  0  0  0  0  0  0  0  0  0  0  0
  -28.4940  -27.8130   23.6900 O   0  0  0  0  0  0  0  0  0  0  0  0
  -27.9279  -29.7263   20.4941 O   0  0  0  0  0  0  0  0  0  0  0  0
  -26.3304  -25.8972   18.1905 O   0  0  0  0  0  0  0  0  0  0  0  0
  -32.0808  -12.7465   21.8489 O   0  0  0  0  0  0  0  0  0  0  0  0
  -21.5207   -7.0700   21.6830 O   0  0  0  0  0  0  0  0  0  0  0  0
  -30.1297  -21.6684   21.9368 O   0  0  0  0  0  0  0  0  0  1  0  0
  -23.6550   -3.2106   24.9927 F   0  0  0  0  0  0  0  0  0  0  0  0
  -20.2203   -6.3135   24.0024 F   0  0  0  0  0  0  0  0  0  0  0  0
  1  2  1  0  0  0  0
  1  5  2  0  0  0  0
  2  6  2  0  0  0  0
  3  8  2  0  0  0  0
  3 17  1  0  0  0  0
  4  9  1  0  0  0  0
  4 17  2  0  0  0  0
  5 19  1  0  0  0  0
  6 21  1  0  0  0  0
  7 10  2  0  0  0  0
  7 20  1  0  0  0  0
  8 27  1  0  0  0  0
  9 27  2  0  0  0  0
 10 28  1  0  0  0  0
 11 12  2  0  0  0  0
 11 29  1  0  0  0  0
 12 30  1  0  0  0  0
 13 22  1  0  0  0  0
 13 28  2  0  0  0  0
 14 23  1  0  0  0  0
 14 24  2  0  0  0  0
 15 23  2  0  0  0  0
 15 25  1  0  0  0  0
 16 30  2  0  0  0  0
 16 31  1  0  0  0  0
 17 32  1  0  0  0  0
 18 32  1  0  0  0  0
 18 33  2  0  0  0  0
 18 34  1  0  0  0  0
 19 21  2  0  0  0  0
 19 39  1  0  0  0  0
 20 22  2  0  0  0  0
 20 40  1  0  0  0  0
 21 48  1  0  0  0  0
 22 41  1  0  0  0  0
 23 60  1  0  0  0  0
 24 26  1  0  0  0  0
 24 51  1  0  0  0  0
 25 26  2  0  0  0  0
 25 52  1  0  0  0  0
 26 59  1  0  0  0  0
 27 79  1  0  0  0  0
 28 80  1  0  0  0  0
 29 31  2  0  0  0  0
 29 79  1  0  0  0  0
 30 81  1  0  0  0  0
 31 82  1  0  0  0  0
 32 64  2  0  0  0  0
 33 65  1  0  0  0  0
 33 68  1  0  0  0  0
 34 69  1  0  0  0  0
 34 74  2  0  0  0  0
 35 49  1  0  0  0  0
 35 70  1  0  0  0  0
 35 75  2  0  0  0  0
 36 61  1  0  0  0  0
 36 66  1  0  0  0  0
 36 76  2  0  0  0  0
 37 62  1  0  0  0  0
 37 71  1  0  0  0  0
 37 77  2  0  0  0  0
 38 67  1  0  0  0  0
 38 72  1  0  0  0  0
 38 78  2  0  0  0  0
 39 42  1  0  0  0  0
 40 49  1  0  0  0  0
 41 66  1  0  0  0  0
 42 44  1  0  0  0  0
 43 45  1  0  0  0  0
 43 46  1  0  0  0  0
 44 48  1  0  0  0  0
 45 50  1  0  0  0  0
 46 67  1  0  0  0  0
 47 50  1  0  0  0  0
 47 67  1  0  0  0  0
 48 70  1  0  0  0  0
 49 66  1  0  0  0  0
 50 65  1  0  0  0  0
 53 62  1  0  0  0  0
 54 63  1  0  0  0  0
 55 63  1  0  0  0  0
 56 63  1  0  0  0  0
 57 72  1  0  0  0  0
 58 73  1  0  0  0  0
 59 72  1  0  0  0  0
 60 80  1  0  0  0  0
 61 63  1  0  0  0  0
 61 71  1  0  0  0  0
 62 73  1  0  0  0  0
 64 65  1  0  0  0  0
M  CHG  1  73   1
M  ISO  4  38 100  60 101  72 100  80 101
M  END
> <Batch ID>
0032

> <Smiles>
CNC(C)C(=O)NC(C(=O)N1Cc2cc([101O:1][101CH2:1]c3cc(C)c(C[100N:0](C)[100C:0](=O)N4CCCC(n5nc(-c6ccc(Oc7ccc(F)cc7F)cc6)c(C(N)=O)c5N)C4)c(C)c3)ccc2CC1C(=O)NC1CCCc2ccccc21)C(C)(C)C

> <Shape>
0.262

> <Color>
0.192

> <Negative vol penalty>
0.000

$$$$

  -OEChem-04042321423D

 87 96  0     1  0  0  0  0  0999 V2000
  -25.8134  -11.8200   20.9272 C   0  0  0  0  0  0  0  0  0  0  0  0
  -26.4449  -12.8094   20.1822 C   0  0  0  0  0  0  0  0  0  0  0  0
  -28.9108  -26.2250   18.7944 C   0  0  0  0  0  0  0  0  0  0  0  0
  -26.8188  -25.1199   19.2838 C   0  0  0  0  0  0  0  0  0  0  0  0
  -24.5307  -12.0394   21.4248 C   0  0  0  0  0  0  0  0  0  0  0  0
  -25.7988  -14.0231   19.9446 C   0  0  0  0  0  0  0  0  0  0  0  0
  -23.7027  -21.9731   18.6010 C   0  0  0  0  0  0  0  0  0  0  0  0
  -29.5489  -24.9866   18.7255 C   0  0  0  0  0  0  0  0  0  0  0  0
  -27.4569  -23.8815   19.2149 C   0  0  0  0  0  0  0  0  0  0  0  0
  -22.6511  -22.7925   19.0092 C   0  0  0  0  0  0  0  0  0  0  0  0
  -30.7552  -22.6831   20.8850 C   0  0  0  0  0  0  0  0  0  0  0  0
  -31.9842  -22.5513   21.5314 C   0  0  0  0  0  0  0  0  0  0  0  0
  -22.7434  -21.8052   21.2083 C   0  0  0  0  0  0  0  0  0  0  0  0
  -17.7834  -27.0013   23.1167 C   0  0  0  0  0  0  0  0  0  0  0  0
  -19.5936  -28.4499   23.7963 C   0  0  0  0  0  0  0  0  0  0  0  0
  -33.0329  -22.0018   19.4253 C   0  0  0  0  0  0  0  0  0  0  0  0
  -27.5457  -26.2917   19.0736 C   0  0  0  0  0  0  0  0  0  0  0  0
  -26.7859  -28.5340   18.1238 C   0  0  0  0  0  0  0  0  0  0  0  0
  -23.8643  -13.2519   21.1822 C   0  0  0  0  0  0  0  0  0  0  0  0
  -24.2762  -21.0544   19.4918 C   0  0  0  0  0  0  0  0  0  0  0  0
  -24.5135  -14.2728   20.4587 C   0  0  0  0  0  0  0  0  0  0  0  0
  -23.8038  -20.9771   20.8097 C   0  0  0  0  0  0  0  0  0  0  0  0
  -18.3741  -26.8518   21.8620 C   0  0  0  0  0  0  0  0  0  0  0  0
  -20.1844  -28.3003   22.5416 C   0  0  0  0  0  0  0  0  0  0  0  0
  -28.8220  -23.8148   18.9358 C   0  0  0  0  0  0  0  0  0  0  0  0
  -22.1694  -22.7066   20.3121 C   0  0  0  0  0  0  0  0  0  0  0  0
  -30.6650  -22.4742   19.5088 C   0  0  0  0  0  0  0  0  0  0  0  0
  -33.1230  -22.2107   20.8015 C   0  0  0  0  0  0  0  0  0  0  0  0
  -31.8038  -22.1336   18.7789 C   0  0  0  0  0  0  0  0  0  0  0  0
  -18.3932  -27.8004   24.0838 C   0  0  0  0  0  0  0  0  0  0  0  0
  -19.5746  -27.5013   21.5744 C   0  0  0  0  0  0  0  0  0  0  0  0
  -26.8861  -27.5707   19.1454 C   0  0  0  0  0  0  0  0  0  0  0  0
  -26.0693  -29.5605   18.6889 C   0  0  0  0  0  0  0  0  0  0  0  0
  -27.2950  -28.5037   16.7838 C   0  0  0  0  0  0  0  0  0  0  0  0
  -24.5606  -17.8896   19.5757 C   0  0  0  0  0  0  0  0  0  0  0  0
  -26.3859  -18.5128   22.1838 C   0  0  0  0  0  0  0  0  0  0  0  0
  -26.2498  -20.7346   25.0233 C   0  0  0  0  0  0  0  0  0  0  0  0
  -22.1126  -29.7988   23.1603 C   0  0  0  0  0  0  0  0  0  0  0  0
  -22.4799  -13.4394   21.7511 C   0  0  0  0  0  0  0  0  0  0  0  0
  -25.4275  -20.1964   19.0437 C   0  0  0  0  0  0  0  0  0  0  0  0
  -24.3985  -20.0216   21.8106 C   0  0  0  0  0  0  0  0  0  0  0  0
  -21.7084  -14.5696   21.0776 C   0  0  0  0  0  0  0  0  0  0  0  0
  -25.1677  -31.6117   22.9214 C   0  0  0  0  0  0  0  0  0  0  0  0
  -22.5683  -15.8233   21.0196 C   0  0  0  0  0  0  0  0  0  0  0  0
  -25.9434  -30.8725   21.8287 C   0  0  0  0  0  0  0  0  0  0  0  0
  -19.3316  -22.0239   20.0877 C   0  0  0  0  0  0  0  0  0  0  0  0
  -18.8340  -22.8503   18.9074 C   0  0  0  0  0  0  0  0  0  0  0  0
  -24.3597  -30.6511   23.7921 C   0  0  0  0  0  0  0  0  0  0  0  0
  -24.2460  -29.0050   21.9627 C   0  0  0  0  0  0  0  0  0  0  0  0
  -18.9761  -24.0068   21.6046 C   0  0  0  0  0  0  0  0  0  0  0  0
  -23.8181  -15.5891   20.1617 C   0  0  1  0  0  0  0  0  0  0  0  0
  -25.5951  -18.9346   19.8847 C   0  0  1  0  0  0  0  0  0  0  0  0
  -25.0239  -29.9371   21.0194 C   0  0  2  0  0  0  0  0  0  0  0  0
  -19.9338  -22.9058   21.1743 C   0  0  2  0  0  0  0  0  0  1  0  0
  -17.8550  -23.9489   19.3385 C   0  0  2  0  0  0  0  0  0  0  0  0
  -17.4557  -24.7888   18.1268 C   0  0  0  0  0  0  0  0  0  0  0  0
  -28.0901  -21.6920   26.4353 C   0  0  0  0  0  0  0  0  0  0  0  0
  -25.8460  -16.1192   23.9975 C   0  0  0  0  0  0  0  0  0  0  0  0
  -26.2283  -17.6149   25.9685 C   0  0  0  0  0  0  0  0  0  0  0  0
  -28.0724  -17.2058   24.3392 C   0  0  0  0  0  0  0  0  0  0  0  0
  -25.3387  -23.5079   24.5357 C   0  0  0  0  0  0  0  0  0  0  0  0
  -17.6823  -25.9826   20.8535 C   0  0  0  0  0  0  0  0  0  0  0  0
  -26.1214  -18.6644   23.6624 C   0  0  1  0  0  0  0  0  0  0  0  0
  -27.1365  -21.9403   25.2770 C   0  0  2  0  0  0  0  0  0  0  0  0
  -26.5472  -17.4075   24.4725 C   0  0  0  0  0  0  0  0  0  0  0  0
  -26.2817  -27.9512   20.2741 N   0  0  0  0  0  0  0  0  0  0  0  0
  -25.7948  -29.1651   19.9650 N   0  0  0  0  0  0  0  0  0  0  0  0
  -25.5182  -19.1995   21.3228 N   0  0  0  0  0  0  0  0  0  0  0  0
  -23.5089  -29.7998   22.9576 N   0  0  0  0  0  0  0  0  0  0  0  0
  -25.6536  -30.7537   18.2138 N   0  0  0  0  0  0  0  0  0  0  0  0
  -28.0092  -27.3725   16.3658 N   0  0  0  0  0  0  0  0  0  0  0  0
  -21.4037  -28.9754   22.2862 N   0  0  0  0  0  0  0  0  0  0  0  0
  -24.7057  -16.7226   20.3012 N   0  0  0  0  0  0  0  0  0  0  0  0
  -26.7899  -19.8945   24.0726 N   0  0  0  0  0  0  0  0  0  0  0  0
  -18.5269  -24.8162   20.3992 N   0  3  1  0  0  0  0  0  0  0  0  0
  -26.3063  -23.1351   25.5996 N   0  3  0  0  0  0  0  0  0  0  0  0
  -27.1359  -29.4587   15.9862 O   0  0  0  0  0  0  0  0  0  0  0  0
  -23.6940  -18.1252   18.7419 O   0  0  0  0  0  0  0  0  0  0  0  0
  -27.3319  -17.8167   21.8070 O   0  0  0  0  0  0  0  0  0  0  0  0
  -25.1864  -20.5540   25.6124 O   0  0  0  0  0  0  0  0  0  0  0  0
  -21.5821  -30.4991   24.0263 O   0  0  0  0  0  0  0  0  0  0  0  0
  -29.4443  -22.6062   18.8684 O   0  0  0  0  0  0  0  0  0  0  0  0
  -21.1427  -23.5048   20.7130 O   0  0  0  0  0  0  0  0  0  1  0  0
  -34.3034  -22.0857   21.4221 F   0  0  0  0  0  0  0  0  0  0  0  0
  -31.7236  -21.9328   17.4564 F   0  0  0  0  0  0  0  0  0  0  0  0
  -17.6641  -27.9850   25.6319 Cl  0  0  0  0  0  0  0  0  0  0  0  0
  -20.3039  -27.3115   20.0131 Cl  0  0  0  0  0  0  0  0  0  0  0  0
  1  2  1  0  0  0  0
  1  5  2  0  0  0  0
  2  6  2  0  0  0  0
  3  8  2  0  0  0  0
  3 17  1  0  0  0  0
  4  9  1  0  0  0  0
  4 17  2  0  0  0  0
  5 19  1  0  0  0  0
  6 21  1  0  0  0  0
  7 10  2  0  0  0  0
  7 20  1  0  0  0  0
  8 25  1  0  0  0  0
  9 25  2  0  0  0  0
 10 26  1  0  0  0  0
 11 12  2  0  0  0  0
 11 27  1  0  0  0  0
 12 28  1  0  0  0  0
 13 22  1  0  0  0  0
 13 26  2  0  0  0  0
 14 23  1  0  0  0  0
 14 30  2  0  0  0  0
 15 24  2  0  0  0  0
 15 30  1  0  0  0  0
 16 28  2  0  0  0  0
 16 29  1  0  0  0  0
 17 32  1  0  0  0  0
 18 32  1  0  0  0  0
 18 33  2  0  0  0  0
 18 34  1  0  0  0  0
 19 21  2  0  0  0  0
 19 39  1  0  0  0  0
 20 22  2  0  0  0  0
 20 40  1  0  0  0  0
 21 51  1  0  0  0  0
 22 41  1  0  0  0  0
 23 31  2  0  0  0  0
 23 62  1  0  0  0  0
 24 31  1  0  0  0  0
 24 72  1  0  0  0  0
 25 82  1  0  0  0  0
 26 83  1  0  0  0  0
 27 29  2  0  0  0  0
 27 82  1  0  0  0  0
 28 84  1  0  0  0  0
 29 85  1  0  0  0  0
 30 86  1  0  0  0  0
 31 87  1  0  0  0  0
 32 66  2  0  0  0  0
 33 67  1  0  0  0  0
 33 70  1  0  0  0  0
 34 71  1  0  0  0  0
 34 77  2  0  0  0  0
 35 52  1  0  0  0  0
 35 73  1  0  0  0  0
 35 78  2  0  0  0  0
 36 63  1  0  0  0  0
 36 68  1  0  0  0  0
 36 79  2  0  0  0  0
 37 64  1  0  0  0  0
 37 74  1  0  0  0  0
 37 80  2  0  0  0  0
 38 69  1  0  0  0  0
 38 72  1  0  0  0  0
 38 81  2  0  0  0  0
 39 42  1  0  0  0  0
 40 52  1  0  0  0  0
 41 68  1  0  0  0  0
 42 44  1  0  0  0  0
 43 45  1  0  0  0  0
 43 48  1  0  0  0  0
 44 51  1  0  0  0  0
 45 53  1  0  0  0  0
 46 47  1  0  0  0  0
 46 54  1  0  0  0  0
 47 55  1  0  0  0  0
 48 69  1  0  0  0  0
 49 53  1  0  0  0  0
 49 69  1  0  0  0  0
 50 54  1  0  0  0  0
 50 75  1  0  0  0  0
 51 73  1  0  0  0  0
 52 68  1  0  0  0  0
 53 67  1  0  0  0  0
 54 83  1  0  0  0  0
 55 56  1  0  0  0  0
 55 75  1  0  0  0  0
 57 64  1  0  0  0  0
 58 65  1  0  0  0  0
 59 65  1  0  0  0  0
 60 65  1  0  0  0  0
 61 76  1  0  0  0  0
 62 75  1  0  0  0  0
 63 65  1  0  0  0  0
 63 74  1  0  0  0  0
 64 76  1  0  0  0  0
 66 67  1  0  0  0  0
M  CHG  2  75   1  76   1
M  ISO  4  38 100  54 101  72 100  83 101
M  END
> <Batch ID>
0032

> <Smiles>
CNC(C)C(=O)NC(C(=O)N1Cc2cc([101O:1][101CH:1]3CCC(C)N(Cc4cc(Cl)cc([100NH:0][100C:0](=O)N5CCCC(n6nc(-c7ccc(Oc8ccc(F)cc8F)cc7)c(C(N)=O)c6N)C5)c4Cl)C3)ccc2CC1C(=O)NC1CCCc2ccccc21)C(C)(C)C

> <Shape>
0.188

> <Color>
0.072

> <Negative vol penalty>
0.000

$$$$

  -OEChem-04042321423D

 85 94  0     1  0  0  0  0  0999 V2000
  -17.8169  -15.6443   23.5812 C   0  0  0  0  0  0  0  0  0  0  0  0
  -19.0560  -16.1992   23.8847 C   0  0  0  0  0  0  0  0  0  0  0  0
  -23.0011   -9.8917   19.9828 C   0  0  0  0  0  0  0  0  0  0  0  0
  -23.7265   -9.9488   22.2866 C   0  0  0  0  0  0  0  0  0  0  0  0
  -16.8027  -16.4482   23.0623 C   0  0  0  0  0  0  0  0  0  0  0  0
  -19.2820  -17.5580   23.6685 C   0  0  0  0  0  0  0  0  0  0  0  0
  -21.6608  -19.7737   27.5514 C   0  0  0  0  0  0  0  0  0  0  0  0
  -22.2358   -8.7570   20.2519 C   0  0  0  0  0  0  0  0  0  0  0  0
  -22.9613   -8.8141   22.5558 C   0  0  0  0  0  0  0  0  0  0  0  0
  -23.0359  -19.5691   27.6562 C   0  0  0  0  0  0  0  0  0  0  0  0
  -23.2092   -5.4744   22.0916 C   0  0  0  0  0  0  0  0  0  0  0  0
  -23.7979   -4.4596   22.8460 C   0  0  0  0  0  0  0  0  0  0  0  0
  -23.4274  -21.7321   26.6626 C   0  0  0  0  0  0  0  0  0  0  0  0
  -28.8823  -18.3121   24.7945 C   0  0  0  0  0  0  0  0  0  0  0  0
  -22.0740   -4.7045   24.5209 C   0  0  0  0  0  0  0  0  0  0  0  0
  -23.7465  -10.4876   21.0002 C   0  0  0  0  0  0  0  0  0  0  0  0
  -24.1290  -13.0032   20.8182 C   0  0  0  0  0  0  0  0  0  0  0  0
  -17.0133  -17.8195   22.8486 C   0  0  0  0  0  0  0  0  0  0  0  0
  -21.1579  -20.9565   26.9905 C   0  0  0  0  0  0  0  0  0  0  0  0
  -18.2702  -18.3807   23.1450 C   0  0  0  0  0  0  0  0  0  0  0  0
  -22.0455  -21.9504   26.5542 C   0  0  0  0  0  0  0  0  0  0  0  0
  -29.3786  -18.8805   22.1088 C   0  0  0  0  0  0  0  0  0  0  0  0
  -28.5657  -19.7274   22.8623 C   0  0  0  0  0  0  0  0  0  0  0  0
  -29.9433  -17.7494   22.6982 C   0  0  0  0  0  0  0  0  0  0  0  0
  -28.3176  -19.4432   24.2052 C   0  0  0  0  0  0  0  0  0  0  0  0
  -22.2159   -8.2182   21.5384 C   0  0  0  0  0  0  0  0  0  0  0  0
  -23.9195  -20.5471   27.2091 C   0  0  0  0  0  0  0  0  0  0  0  0
  -22.0529   -6.1043   22.5519 C   0  0  0  0  0  0  0  0  0  0  0  0
  -23.2304   -4.0746   24.0607 C   0  0  0  0  0  0  0  0  0  0  0  0
  -21.4853   -5.7194   23.7665 C   0  0  0  0  0  0  0  0  0  0  0  0
  -29.6952  -17.4652   24.0410 C   0  0  0  0  0  0  0  0  0  0  0  0
  -24.5376  -11.6594   20.7227 C   0  0  0  0  0  0  0  0  0  0  0  0
  -25.2379  -13.7261   20.4520 C   0  0  0  0  0  0  0  0  0  0  0  0
  -22.8605  -13.5491   21.2036 C   0  0  0  0  0  0  0  0  0  0  0  0
  -19.3769  -21.6548   24.4520 C   0  0  0  0  0  0  0  0  0  0  0  0
  -19.4781  -24.6509   25.6913 C   0  0  0  0  0  0  0  0  0  0  0  0
  -21.0960  -26.9165   27.6652 C   0  0  0  0  0  0  0  0  0  0  0  0
  -30.7333  -14.6673   20.6975 C   0  0  0  0  0  0  0  0  0  0  0  0
  -15.9020  -18.6387   22.2415 C   0  0  0  0  0  0  0  0  0  0  0  0
  -19.6717  -21.1734   26.9091 C   0  0  0  0  0  0  0  0  0  0  0  0
  -21.5564  -23.2464   25.9629 C   0  0  0  0  0  0  0  0  0  0  0  0
  -16.1025  -20.1444   22.3932 C   0  0  0  0  0  0  0  0  0  0  0  0
  -29.5949  -12.2369   18.3578 C   0  0  0  0  0  0  0  0  0  0  0  0
  -17.5296  -20.5332   22.0206 C   0  0  0  0  0  0  0  0  0  0  0  0
  -28.1468  -11.9766   18.7762 C   0  0  0  0  0  0  0  0  0  0  0  0
  -30.4973  -12.4761   19.5664 C   0  0  0  0  0  0  0  0  0  0  0  0
  -28.5865  -13.2727   20.9036 C   0  0  0  0  0  0  0  0  0  0  0  0
  -27.6072  -20.5062   26.3722 C   0  0  0  0  0  0  0  0  0  0  0  0
  -26.0937  -20.3811   24.9157 C   0  0  0  0  0  0  0  0  0  0  0  0
  -18.5459  -19.8556   22.9477 C   0  0  1  0  0  0  0  0  0  0  0  0
  -19.2744  -22.1967   25.8497 C   0  0  1  0  0  0  0  0  0  0  0  0
  -27.6275  -13.0812   19.7162 C   0  0  2  0  0  0  0  0  0  0  0  0
  -26.1413  -20.9609   26.3367 C   0  0  0  0  0  0  0  0  0  1  0  0
  -29.6439  -19.1867   20.6682 C   0  0  0  0  0  0  0  0  0  0  0  0
  -27.9603  -20.9409   22.2287 C   0  0  0  0  0  0  0  0  0  0  0  0
  -20.9590  -29.2951   28.4532 C   0  0  0  0  0  0  0  0  0  0  0  0
  -20.4805  -25.6066   22.9726 C   0  0  0  0  0  0  0  0  0  0  0  0
  -21.2154  -27.7339   24.0692 C   0  0  0  0  0  0  0  0  0  0  0  0
  -18.7999  -27.1111   24.0526 C   0  0  0  0  0  0  0  0  0  0  0  0
  -20.8710  -26.0873   30.4973 C   0  0  0  0  0  0  0  0  0  0  0  0
  -30.8138  -16.8491   21.8775 C   0  0  0  0  0  0  0  0  0  0  0  0
  -20.3978  -25.8388   25.5426 C   0  0  1  0  0  0  0  0  0  0  0  0
  -20.5899  -27.8500   28.7501 C   0  0  2  0  0  0  0  0  0  0  0  0
  -20.2329  -26.5475   24.1686 C   0  0  0  0  0  0  0  0  0  0  0  0
  -25.8070  -11.5334   20.3266 N   0  0  0  0  0  0  0  0  0  0  0  0
  -26.2056  -12.8072   20.1699 N   0  0  0  0  0  0  0  0  0  0  0  0
  -27.5102  -20.2753   24.9728 N   0  0  0  0  0  0  0  0  0  0  0  0
  -20.0945  -23.4088   25.8990 N   0  0  0  0  0  0  0  0  0  0  0  0
  -29.9494  -13.5362   20.4161 N   0  0  0  0  0  0  0  0  0  0  0  0
  -25.4699  -15.0519   20.3467 N   0  0  0  0  0  0  0  0  0  0  0  0
  -21.8298  -12.6647   21.5494 N   0  0  0  0  0  0  0  0  0  0  0  0
  -18.5983  -20.5363   24.2238 N   0  0  0  0  0  0  0  0  0  0  0  0
  -20.1427  -26.6990   26.6930 N   0  0  0  0  0  0  0  0  0  0  0  0
  -30.1360  -15.6273   21.5051 N   0  0  0  0  0  0  0  0  0  0  0  0
  -21.1751  -27.4769   30.0689 N   0  3  0  0  0  0  0  0  0  0  0  0
  -22.6425  -14.7842   21.2245 O   0  0  0  0  0  0  0  0  0  0  0  0
  -20.1070  -22.2113   23.6403 O   0  0  0  0  0  0  0  0  0  0  0  0
  -18.2576  -24.8199   25.6328 O   0  0  0  0  0  0  0  0  0  0  0  0
  -22.2254  -26.4319   27.6770 O   0  0  0  0  0  0  0  0  0  0  0  0
  -31.8785  -14.8134   20.2569 O   0  0  0  0  0  0  0  0  0  0  0  0
  -21.4691   -7.1111   21.8014 O   0  0  0  0  0  0  0  0  0  0  0  0
  -25.2621  -20.3496   27.3096 O   0  0  0  0  0  0  0  0  0  1  0  0
  -23.7950   -3.0991   24.7843 F   0  0  0  0  0  0  0  0  0  0  0  0
  -20.3738   -6.3201   24.2133 F   0  0  0  0  0  0  0  0  0  0  0  0
  -30.3751  -16.0756   24.8079 Cl  0  0  0  0  0  0  0  0  0  0  0  0
  1  2  1  0  0  0  0
  1  5  2  0  0  0  0
  2  6  2  0  0  0  0
  3  8  2  0  0  0  0
  3 16  1  0  0  0  0
  4  9  1  0  0  0  0
  4 16  2  0  0  0  0
  5 18  1  0  0  0  0
  6 20  1  0  0  0  0
  7 10  2  0  0  0  0
  7 19  1  0  0  0  0
  8 26  1  0  0  0  0
  9 26  2  0  0  0  0
 10 27  1  0  0  0  0
 11 12  2  0  0  0  0
 11 28  1  0  0  0  0
 12 29  1  0  0  0  0
 13 21  1  0  0  0  0
 13 27  2  0  0  0  0
 14 25  1  0  0  0  0
 14 31  2  0  0  0  0
 15 29  2  0  0  0  0
 15 30  1  0  0  0  0
 16 32  1  0  0  0  0
 17 32  1  0  0  0  0
 17 33  2  0  0  0  0
 17 34  1  0  0  0  0
 18 20  2  0  0  0  0
 18 39  1  0  0  0  0
 19 21  2  0  0  0  0
 19 40  1  0  0  0  0
 20 50  1  0  0  0  0
 21 41  1  0  0  0  0
 22 23  1  0  0  0  0
 22 24  2  0  0  0  0
 22 54  1  0  0  0  0
 23 25  2  0  0  0  0
 23 55  1  0  0  0  0
 24 31  1  0  0  0  0
 24 61  1  0  0  0  0
 25 67  1  0  0  0  0
 26 81  1  0  0  0  0
 27 82  1  0  0  0  0
 28 30  2  0  0  0  0
 28 81  1  0  0  0  0
 29 83  1  0  0  0  0
 30 84  1  0  0  0  0
 31 85  1  0  0  0  0
 32 65  2  0  0  0  0
 33 66  1  0  0  0  0
 33 70  1  0  0  0  0
 34 71  1  0  0  0  0
 34 76  2  0  0  0  0
 35 51  1  0  0  0  0
 35 72  1  0  0  0  0
 35 77  2  0  0  0  0
 36 62  1  0  0  0  0
 36 68  1  0  0  0  0
 36 78  2  0  0  0  0
 37 63  1  0  0  0  0
 37 73  1  0  0  0  0
 37 79  2  0  0  0  0
 38 69  1  0  0  0  0
 38 74  1  0  0  0  0
 38 80  2  0  0  0  0
 39 42  1  0  0  0  0
 40 51  1  0  0  0  0
 41 68  1  0  0  0  0
 42 44  1  0  0  0  0
 43 45  1  0  0  0  0
 43 46  1  0  0  0  0
 44 50  1  0  0  0  0
 45 52  1  0  0  0  0
 46 69  1  0  0  0  0
 47 52  1  0  0  0  0
 47 69  1  0  0  0  0
 48 53  1  0  0  0  0
 48 67  1  0  0  0  0
 49 53  1  0  0  0  0
 49 67  1  0  0  0  0
 50 72  1  0  0  0  0
 51 68  1  0  0  0  0
 52 66  1  0  0  0  0
 53 82  1  0  0  0  0
 56 63  1  0  0  0  0
 57 64  1  0  0  0  0
 58 64  1  0  0  0  0
 59 64  1  0  0  0  0
 60 75  1  0  0  0  0
 61 74  1  0  0  0  0
 62 64  1  0  0  0  0
 62 73  1  0  0  0  0
 63 75  1  0  0  0  0
 65 66  1  0  0  0  0
M  CHG  1  75   1
M  ISO  4  38 100  53 101  74 100  82 101
M  END
> <Batch ID>
0032

> <Smiles>
CNC(C)C(=O)NC(C(=O)N1Cc2cc([101O:1][101CH:1]3CN(c4cc(Cl)c(C[100NH:0][100C:0](=O)N5CCCC(n6nc(-c7ccc(Oc8ccc(F)cc8F)cc7)c(C(N)=O)c6N)C5)c(C)c4C)C3)ccc2CC1C(=O)NC1CCCc2ccccc21)C(C)(C)C

> <Shape>
0.199

> <Color>
0.202

> <Negative vol penalty>
0.000

$$$$

  -OEChem-04042321423D

 86 95  0     1  0  0  0  0  0999 V2000
  -42.9522  -29.6609   17.6555 C   0  0  0  0  0  0  0  0  0  0  0  0
  -41.7045  -30.2484   17.8386 C   0  0  0  0  0  0  0  0  0  0  0  0
  -23.4438   -9.9985   22.2182 C   0  0  0  0  0  0  0  0  0  0  0  0
  -23.5384   -9.6521   19.8291 C   0  0  0  0  0  0  0  0  0  0  0  0
  -43.1085  -28.6352   16.7241 C   0  0  0  0  0  0  0  0  0  0  0  0
  -40.6126  -29.8113   17.0895 C   0  0  0  0  0  0  0  0  0  0  0  0
  -33.6718  -27.1254   19.4639 C   0  0  0  0  0  0  0  0  0  0  0  0
  -22.7088   -8.8216   22.3598 C   0  0  0  0  0  0  0  0  0  0  0  0
  -22.8034   -8.4751   19.9707 C   0  0  0  0  0  0  0  0  0  0  0  0
  -32.4680  -26.4869   19.7629 C   0  0  0  0  0  0  0  0  0  0  0  0
  -19.5112   -7.8151   21.9276 C   0  0  0  0  0  0  0  0  0  0  0  0
  -18.3936   -7.8462   22.7616 C   0  0  0  0  0  0  0  0  0  0  0  0
  -32.5373  -25.3371   17.6366 C   0  0  0  0  0  0  0  0  0  0  0  0
  -31.6482  -18.3614   20.5548 C   0  0  0  0  0  0  0  0  0  0  0  0
  -29.2329  -19.7317   20.8217 C   0  0  0  0  0  0  0  0  0  0  0  0
  -19.3784   -6.1278   24.1453 C   0  0  0  0  0  0  0  0  0  0  0  0
  -23.8586  -10.4139   20.9528 C   0  0  0  0  0  0  0  0  0  0  0  0
  -24.2179  -12.9302   21.1683 C   0  0  0  0  0  0  0  0  0  0  0  0
  -42.0159  -28.1787   15.9701 C   0  0  0  0  0  0  0  0  0  0  0  0
  -34.3215  -26.8601   18.2552 C   0  0  0  0  0  0  0  0  0  0  0  0
  -40.7547  -28.7795   16.1462 C   0  0  0  0  0  0  0  0  0  0  0  0
  -33.7496  -25.9642   17.3370 C   0  0  0  0  0  0  0  0  0  0  0  0
  -31.4119  -19.5114   19.8017 C   0  0  0  0  0  0  0  0  0  0  0  0
  -30.6768  -17.8964   21.4413 C   0  0  0  0  0  0  0  0  0  0  0  0
  -30.2042  -20.1966   19.9352 C   0  0  0  0  0  0  0  0  0  0  0  0
  -22.3886   -8.0598   21.2361 C   0  0  0  0  0  0  0  0  0  0  0  0
  -31.9020  -25.5952   18.8514 C   0  0  0  0  0  0  0  0  0  0  0  0
  -20.5624   -6.9403   22.2024 C   0  0  0  0  0  0  0  0  0  0  0  0
  -18.3272   -7.0026   23.8705 C   0  0  0  0  0  0  0  0  0  0  0  0
  -20.4960   -6.0966   23.3112 C   0  0  0  0  0  0  0  0  0  0  0  0
  -29.4692  -18.5816   21.5748 C   0  0  0  0  0  0  0  0  0  0  0  0
  -24.6173  -11.6299   20.8059 C   0  0  0  0  0  0  0  0  0  0  0  0
  -25.2850  -13.7248   20.8273 C   0  0  0  0  0  0  0  0  0  0  0  0
  -22.9918  -13.3797   21.7604 C   0  0  0  0  0  0  0  0  0  0  0  0
  -37.2787  -27.5304   16.0458 C   0  0  0  0  0  0  0  0  0  0  0  0
  -36.6944  -24.5244   15.8648 C   0  0  0  0  0  0  0  0  0  0  0  0
  -35.9839  -21.2124   16.2686 C   0  0  0  0  0  0  0  0  0  0  0  0
  -30.7769  -14.7095   20.7061 C   0  0  0  0  0  0  0  0  0  0  0  0
  -42.2438  -27.0996   14.9415 C   0  0  0  0  0  0  0  0  0  0  0  0
  -35.5885  -27.5714   17.8646 C   0  0  0  0  0  0  0  0  0  0  0  0
  -34.4663  -25.7357   16.0342 C   0  0  0  0  0  0  0  0  0  0  0  0
  -40.9561  -26.4392   14.4558 C   0  0  0  0  0  0  0  0  0  0  0  0
  -29.4210  -12.6924   18.1043 C   0  0  0  0  0  0  0  0  0  0  0  0
  -28.9696  -22.3469   17.1531 C   0  0  0  0  0  0  0  0  0  0  0  0
  -39.9056  -27.4954   14.1274 C   0  0  0  0  0  0  0  0  0  0  0  0
  -28.0205  -12.3386   18.6079 C   0  0  0  0  0  0  0  0  0  0  0  0
  -29.2965  -23.7315   17.6917 C   0  0  0  0  0  0  0  0  0  0  0  0
  -28.7926  -21.3332   18.2812 C   0  0  0  0  0  0  0  0  0  0  0  0
  -30.4357  -12.7388   19.2445 C   0  0  0  0  0  0  0  0  0  0  0  0
  -28.6622  -13.2617   20.8739 C   0  0  0  0  0  0  0  0  0  0  0  0
  -30.3494  -22.6575   19.7207 C   0  0  0  0  0  0  0  0  0  0  0  0
  -39.5409  -28.3160   15.3704 C   0  0  1  0  0  0  0  0  0  0  0  0
  -36.5507  -26.6874   17.0511 C   0  0  1  0  0  0  0  0  0  0  0  0
  -27.5930  -13.2577   19.7680 C   0  0  2  0  0  0  0  0  0  0  0  0
  -30.5226  -23.6775   18.5944 C   0  0  2  0  0  0  0  0  0  1  0  0
  -32.4688  -19.9867   18.8584 C   0  0  0  0  0  0  0  0  0  0  0  0
  -36.7065  -18.9350   15.5013 C   0  0  0  0  0  0  0  0  0  0  0  0
  -35.2868  -24.9804   13.1974 C   0  0  0  0  0  0  0  0  0  0  0  0
  -35.1997  -22.4961   12.8995 C   0  0  0  0  0  0  0  0  0  0  0  0
  -37.4031  -23.6562   13.0477 C   0  0  0  0  0  0  0  0  0  0  0  0
  -36.6948  -20.3839   19.0194 C   0  0  0  0  0  0  0  0  0  0  0  0
  -30.9681  -16.6599   22.2288 C   0  0  0  0  0  0  0  0  0  0  0  0
  -35.9867  -23.4155   15.1280 C   0  0  1  0  0  0  0  0  0  0  0  0
  -36.8762  -20.0182   16.5552 C   0  0  2  0  0  0  0  0  0  0  0  0
  -35.9577  -23.6493   13.5912 C   0  0  0  0  0  0  0  0  0  0  0  0
  -25.8426  -11.5960   20.2751 N   0  0  0  0  0  0  0  0  0  0  0  0
  -26.2222  -12.8849   20.3014 N   0  0  0  0  0  0  0  0  0  0  0  0
  -29.9503  -21.3524   19.1862 N   0  0  1  0  0  0  0  0  0  0  0  0
  -35.9131  -25.6127   16.2717 N   0  0  0  0  0  0  0  0  0  0  0  0
  -29.9712  -13.6288   20.3112 N   0  0  0  0  0  0  0  0  0  0  0  0
  -25.5037  -15.0531   20.9288 N   0  0  0  0  0  0  0  0  0  0  0  0
  -21.9391  -13.7539   20.9142 N   0  0  0  0  0  0  0  0  0  0  0  0
  -38.6481  -27.5656   16.2273 N   0  0  0  0  0  0  0  0  0  0  0  0
  -36.6404  -22.1752   15.5315 N   0  0  0  0  0  0  0  0  0  0  0  0
  -30.2592  -15.5072   21.7192 N   0  0  0  0  0  0  0  0  0  0  0  0
  -36.5481  -19.4342   17.8865 N   0  3  0  0  0  0  0  0  0  0  0  0
  -22.8402  -13.4630   23.0028 O   0  0  0  0  0  0  0  0  0  0  0  0
  -36.6458  -28.1060   15.1684 O   0  0  0  0  0  0  0  0  0  0  0  0
  -37.9080  -24.4334   16.0703 O   0  0  0  0  0  0  0  0  0  0  0  0
  -34.8197  -21.2824   16.6563 O   0  0  0  0  0  0  0  0  0  0  0  0
  -31.8738  -14.9491   20.1900 O   0  0  0  0  0  0  0  0  0  0  0  0
  -21.6716   -6.9111   21.3739 O   0  0  0  0  0  0  0  0  0  0  0  0
  -30.7289  -24.9720   19.1516 O   0  0  0  0  0  0  0  0  0  1  0  0
  -17.2546   -7.0336   24.6722 F   0  0  0  0  0  0  0  0  0  0  0  0
  -21.5032   -5.2549   23.5810 F   0  0  0  0  0  0  0  0  0  0  0  0
  -28.2449  -18.0366   22.6629 Cl  0  0  0  0  0  0  0  0  0  0  0  0
  1  2  1  0  0  0  0
  1  5  2  0  0  0  0
  2  6  2  0  0  0  0
  3  8  2  0  0  0  0
  3 17  1  0  0  0  0
  4  9  1  0  0  0  0
  4 17  2  0  0  0  0
  5 19  1  0  0  0  0
  6 21  1  0  0  0  0
  7 10  2  0  0  0  0
  7 20  1  0  0  0  0
  8 26  1  0  0  0  0
  9 26  2  0  0  0  0
 10 27  1  0  0  0  0
 11 12  2  0  0  0  0
 11 28  1  0  0  0  0
 12 29  1  0  0  0  0
 13 22  1  0  0  0  0
 13 27  2  0  0  0  0
 14 23  1  0  0  0  0
 14 24  2  0  0  0  0
 15 25  1  0  0  0  0
 15 31  2  0  0  0  0
 16 29  2  0  0  0  0
 16 30  1  0  0  0  0
 17 32  1  0  0  0  0
 18 32  1  0  0  0  0
 18 33  2  0  0  0  0
 18 34  1  0  0  0  0
 19 21  2  0  0  0  0
 19 39  1  0  0  0  0
 20 22  2  0  0  0  0
 20 40  1  0  0  0  0
 21 52  1  0  0  0  0
 22 41  1  0  0  0  0
 23 25  2  0  0  0  0
 23 56  1  0  0  0  0
 24 31  1  0  0  0  0
 24 62  1  0  0  0  0
 25 68  1  0  0  0  0
 26 82  1  0  0  0  0
 27 83  1  0  0  0  0
 28 30  2  0  0  0  0
 28 82  1  0  0  0  0
 29 84  1  0  0  0  0
 30 85  1  0  0  0  0
 31 86  1  0  0  0  0
 32 66  2  0  0  0  0
 33 67  1  0  0  0  0
 33 71  1  0  0  0  0
 34 72  1  0  0  0  0
 34 77  2  0  0  0  0
 35 53  1  0  0  0  0
 35 73  1  0  0  0  0
 35 78  2  0  0  0  0
 36 63  1  0  0  0  0
 36 69  1  0  0  0  0
 36 79  2  0  0  0  0
 37 64  1  0  0  0  0
 37 74  1  0  0  0  0
 37 80  2  0  0  0  0
 38 70  1  0  0  0  0
 38 75  1  0  0  0  0
 38 81  2  0  0  0  0
 39 42  1  0  0  0  0
 40 53  1  0  0  0  0
 41 69  1  0  0  0  0
 42 45  1  0  0  0  0
 43 46  1  0  0  0  0
 43 49  1  0  0  0  0
 44 47  1  0  0  0  0
 44 48  1  0  0  0  0
 45 52  1  0  0  0  0
 46 54  1  0  0  0  0
 47 55  1  0  0  0  0
 48 68  1  0  0  0  0
 49 70  1  0  0  0  0
 50 54  1  0  0  0  0
 50 70  1  0  0  0  0
 51 55  1  0  0  0  0
 51 68  1  0  0  0  0
 52 73  1  0  0  0  0
 53 69  1  0  0  0  0
 54 67  1  0  0  0  0
 55 83  1  0  0  0  0
 57 64  1  0  0  0  0
 58 65  1  0  0  0  0
 59 65  1  0  0  0  0
 60 65  1  0  0  0  0
 61 76  1  0  0  0  0
 62 75  1  0  0  0  0
 63 65  1  0  0  0  0
 63 74  1  0  0  0  0
 64 76  1  0  0  0  0
 66 67  1  0  0  0  0
M  CHG  1  76   1
M  ISO  4  38 100  55 101  75 100  83 101
M  END
> <Batch ID>
0032

> <Smiles>
CNC(C)C(=O)NC(C(=O)N1Cc2cc([101O:1][101CH:1]3CCCN(c4cc(Cl)c(C[100NH:0][100C:0](=O)N5CCCC(n6nc(-c7ccc(Oc8ccc(F)cc8F)cc7)c(C(N)=O)c6N)C5)cc4C)C3)ccc2CC1C(=O)NC1CCCc2ccccc21)C(C)(C)C

> <Shape>
0.211

> <Color>
0.174

> <Negative vol penalty>
0.000

$$$$

  -OEChem-04042321423D

 86 95  0     1  0  0  0  0  0999 V2000
  -26.7161   -9.3278   17.5816 C   0  0  0  0  0  0  0  0  0  0  0  0
  -25.9540  -10.2108   18.3399 C   0  0  0  0  0  0  0  0  0  0  0  0
  -26.5712  -31.8595   20.0461 C   0  0  0  0  0  0  0  0  0  0  0  0
  -25.6406  -31.2465   22.1898 C   0  0  0  0  0  0  0  0  0  0  0  0
  -28.1081   -9.3953   17.6252 C   0  0  0  0  0  0  0  0  0  0  0  0
  -26.5835  -11.1611   19.1431 C   0  0  0  0  0  0  0  0  0  0  0  0
  -24.4727  -15.7470   18.7445 C   0  0  0  0  0  0  0  0  0  0  0  0
  -26.8595  -33.1335   20.5355 C   0  0  0  0  0  0  0  0  0  0  0  0
  -25.9289  -32.5205   22.6792 C   0  0  0  0  0  0  0  0  0  0  0  0
  -23.2814  -15.9619   19.4363 C   0  0  0  0  0  0  0  0  0  0  0  0
  -24.5999  -35.6232   22.4856 C   0  0  0  0  0  0  0  0  0  0  0  0
  -23.6113  -36.2724   23.2250 C   0  0  0  0  0  0  0  0  0  0  0  0
  -24.5065  -17.0846   21.1849 C   0  0  0  0  0  0  0  0  0  0  0  0
  -18.4429  -23.5251   20.6790 C   0  0  0  0  0  0  0  0  0  0  0  0
  -20.3617  -22.7089   22.5323 C   0  0  0  0  0  0  0  0  0  0  0  0
  -25.1005  -36.3769   25.1246 C   0  0  0  0  0  0  0  0  0  0  0  0
  -25.9617  -30.9160   20.8732 C   0  0  0  0  0  0  0  0  0  0  0  0
  -26.4963  -28.4659   20.4056 C   0  0  0  0  0  0  0  0  0  0  0  0
  -28.7548  -10.3532   18.4219 C   0  0  0  0  0  0  0  0  0  0  0  0
  -25.6931  -16.1904   19.2739 C   0  0  0  0  0  0  0  0  0  0  0  0
  -27.9854  -11.2405   19.1984 C   0  0  0  0  0  0  0  0  0  0  0  0
  -25.7115  -16.8764   20.4967 C   0  0  0  0  0  0  0  0  0  0  0  0
  -18.7091  -22.1673   20.8552 C   0  0  0  0  0  0  0  0  0  0  0  0
  -19.1361  -24.4749   21.4295 C   0  0  0  0  0  0  0  0  0  0  0  0
  -19.6685  -21.7592   21.7818 C   0  0  0  0  0  0  0  0  0  0  0  0
  -26.5383  -33.4639   21.8521 C   0  0  0  0  0  0  0  0  0  0  0  0
  -23.2986  -16.6283   20.6580 C   0  0  0  0  0  0  0  0  0  0  0  0
  -25.8389  -35.3508   23.0657 C   0  0  0  0  0  0  0  0  0  0  0  0
  -23.8616  -36.6493   24.5444 C   0  0  0  0  0  0  0  0  0  0  0  0
  -20.0955  -24.0667   22.3561 C   0  0  0  0  0  0  0  0  0  0  0  0
  -26.0892  -35.7276   24.3852 C   0  0  0  0  0  0  0  0  0  0  0  0
  -25.6632  -29.6000   20.3681 C   0  0  0  0  0  0  0  0  0  0  0  0
  -25.7576  -27.4771   19.8031 C   0  0  0  0  0  0  0  0  0  0  0  0
  -20.3682  -19.7356   23.0607 C   0  0  0  0  0  0  0  0  0  0  0  0
  -27.8196  -28.3192   20.9377 C   0  0  0  0  0  0  0  0  0  0  0  0
  -28.3798  -14.7726   20.2093 C   0  0  0  0  0  0  0  0  0  0  0  0
  -29.4156  -17.8280   20.5463 C   0  0  0  0  0  0  0  0  0  0  0  0
  -28.6351  -21.1156   21.0254 C   0  0  0  0  0  0  0  0  0  0  0  0
  -19.8709  -26.6434   19.0942 C   0  0  0  0  0  0  0  0  0  0  0  0
  -30.2622  -10.3567   18.4730 C   0  0  0  0  0  0  0  0  0  0  0  0
  -26.9662  -15.9743   18.5025 C   0  0  0  0  0  0  0  0  0  0  0  0
  -26.9930  -17.3903   21.0984 C   0  0  0  0  0  0  0  0  0  0  0  0
  -30.8486  -11.6377   19.0608 C   0  0  0  0  0  0  0  0  0  0  0  0
  -22.3307  -26.8324   16.5271 C   0  0  0  0  0  0  0  0  0  0  0  0
  -30.1135  -12.0231   20.3406 C   0  0  0  0  0  0  0  0  0  0  0  0
  -23.5389  -27.4608   17.2238 C   0  0  0  0  0  0  0  0  0  0  0  0
  -21.0165  -27.4179   17.0389 C   0  0  0  0  0  0  0  0  0  0  0  0
  -20.1492  -19.3500   21.0061 C   0  0  0  0  0  0  0  0  0  0  0  0
  -22.0523  -27.9949   19.1995 C   0  0  0  0  0  0  0  0  0  0  0  0
  -28.6313  -12.3015   20.0629 C   0  0  1  0  0  0  0  0  0  0  0  0
  -20.6280  -18.4815   22.1973 C   0  0  1  0  0  0  0  0  0  0  0  0
  -28.2121  -16.0155   19.3819 C   0  0  1  0  0  0  0  0  0  0  0  0
  -23.3984  -27.3965   18.7566 C   0  0  2  0  0  0  0  0  0  0  0  0
  -17.9513  -21.1717   20.0377 C   0  0  0  0  0  0  0  0  0  0  0  0
  -29.6969  -23.3732   21.2958 C   0  0  0  0  0  0  0  0  0  0  0  0
  -30.1957  -17.1156   23.4088 C   0  0  0  0  0  0  0  0  0  0  0  0
  -30.3458  -19.5653   23.9036 C   0  0  0  0  0  0  0  0  0  0  0  0
  -31.8550  -18.5440   22.2001 C   0  0  0  0  0  0  0  0  0  0  0  0
  -27.2892  -22.1666   18.6082 C   0  0  0  0  0  0  0  0  0  0  0  0
  -18.8491  -25.9261   21.2391 C   0  0  0  0  0  0  0  0  0  0  0  0
  -22.0666  -18.0037   22.1568 C   0  0  0  0  0  0  0  0  0  1  0  0
  -29.4029  -18.8442   21.6626 C   0  0  1  0  0  0  0  0  0  0  0  0
  -29.0997  -22.3749   20.3163 C   0  0  2  0  0  0  0  0  0  0  0  0
  -30.4258  -18.5060   22.7836 C   0  0  0  0  0  0  0  0  0  0  0  0
  -24.4855  -29.3557   19.7874 N   0  0  0  0  0  0  0  0  0  0  0  0
  -24.5732  -28.0566   19.4545 N   0  0  0  0  0  0  0  0  0  0  0  0
  -19.9452  -20.4242   21.9695 N   0  0  0  0  0  0  0  0  0  0  0  0
  -28.2122  -17.1489   20.3091 N   0  0  0  0  0  0  0  0  0  0  0  0
  -20.9455  -27.3246   18.4992 N   0  0  0  0  0  0  0  0  0  0  0  0
  -26.0121  -26.1772   19.5427 N   0  0  0  0  0  0  0  0  0  0  0  0
  -28.4323  -29.4360   21.5222 N   0  0  0  0  0  0  0  0  0  0  0  0
  -28.4658  -13.6101   19.4673 N   0  0  0  0  0  0  0  0  0  0  0  0
  -29.6133  -20.1438   21.0339 N   0  0  0  0  0  0  0  0  0  0  0  0
  -19.8834  -26.5963   20.4829 N   0  0  0  0  0  0  0  0  0  0  0  0
  -27.9564  -23.0279   19.6181 N   0  3  0  0  0  0  0  0  0  0  0  0
  -20.5091  -20.0373   24.2239 O   0  0  0  0  0  0  0  0  0  0  0  0
  -28.4467  -27.2343   20.8813 O   0  0  0  0  0  0  0  0  0  0  0  0
  -28.4292  -14.8618   21.4305 O   0  0  0  0  0  0  0  0  0  0  0  0
  -30.4531  -17.6487   19.9036 O   0  0  0  0  0  0  0  0  0  0  0  0
  -27.5176  -21.0063   21.5253 O   0  0  0  0  0  0  0  0  0  0  0  0
  -18.9700  -26.1115   18.4365 O   0  0  0  0  0  0  0  0  0  0  0  0
  -26.8196  -34.7069   22.3301 O   0  0  0  0  0  0  0  0  0  0  0  0
  -22.1374  -16.8388   21.3356 O   0  0  0  0  0  0  0  0  0  1  0  0
  -22.9126  -37.2741   25.2539 F   0  0  0  0  0  0  0  0  0  0  0  0
  -20.7666  -24.9720   23.0817 F   0  0  0  0  0  0  0  0  0  0  0  0
  -27.2779  -35.4696   24.9475 F   0  0  0  0  0  0  0  0  0  0  0  0
  1  2  1  0  0  0  0
  1  5  2  0  0  0  0
  2  6  2  0  0  0  0
  3  8  2  0  0  0  0
  3 17  1  0  0  0  0
  4  9  1  0  0  0  0
  4 17  2  0  0  0  0
  5 19  1  0  0  0  0
  6 21  1  0  0  0  0
  7 10  2  0  0  0  0
  7 20  1  0  0  0  0
  8 26  1  0  0  0  0
  9 26  2  0  0  0  0
 10 27  1  0  0  0  0
 11 12  2  0  0  0  0
 11 28  1  0  0  0  0
 12 29  1  0  0  0  0
 13 22  1  0  0  0  0
 13 27  2  0  0  0  0
 14 23  1  0  0  0  0
 14 24  2  0  0  0  0
 15 25  1  0  0  0  0
 15 30  2  0  0  0  0
 16 29  2  0  0  0  0
 16 31  1  0  0  0  0
 17 32  1  0  0  0  0
 18 32  1  0  0  0  0
 18 33  2  0  0  0  0
 18 35  1  0  0  0  0
 19 21  2  0  0  0  0
 19 40  1  0  0  0  0
 20 22  2  0  0  0  0
 20 41  1  0  0  0  0
 21 50  1  0  0  0  0
 22 42  1  0  0  0  0
 23 25  2  0  0  0  0
 23 54  1  0  0  0  0
 24 30  1  0  0  0  0
 24 60  1  0  0  0  0
 25 67  1  0  0  0  0
 26 82  1  0  0  0  0
 27 83  1  0  0  0  0
 28 31  2  0  0  0  0
 28 82  1  0  0  0  0
 29 84  1  0  0  0  0
 30 85  1  0  0  0  0
 31 86  1  0  0  0  0
 32 65  2  0  0  0  0
 33 66  1  0  0  0  0
 33 70  1  0  0  0  0
 34 51  1  0  0  0  0
 34 67  1  0  0  0  0
 34 76  2  0  0  0  0
 35 71  1  0  0  0  0
 35 77  2  0  0  0  0
 36 52  1  0  0  0  0
 36 72  1  0  0  0  0
 36 78  2  0  0  0  0
 37 62  1  0  0  0  0
 37 68  1  0  0  0  0
 37 79  2  0  0  0  0
 38 63  1  0  0  0  0
 38 73  1  0  0  0  0
 38 80  2  0  0  0  0
 39 69  1  0  0  0  0
 39 74  1  0  0  0  0
 39 81  2  0  0  0  0
 40 43  1  0  0  0  0
 41 52  1  0  0  0  0
 42 68  1  0  0  0  0
 43 45  1  0  0  0  0
 44 46  1  0  0  0  0
 44 47  1  0  0  0  0
 45 50  1  0  0  0  0
 46 53  1  0  0  0  0
 47 69  1  0  0  0  0
 48 51  1  0  0  0  0
 48 67  1  0  0  0  0
 49 53  1  0  0  0  0
 49 69  1  0  0  0  0
 50 72  1  0  0  0  0
 51 61  1  0  0  0  0
 52 68  1  0  0  0  0
 53 66  1  0  0  0  0
 55 63  1  0  0  0  0
 56 64  1  0  0  0  0
 57 64  1  0  0  0  0
 58 64  1  0  0  0  0
 59 75  1  0  0  0  0
 60 74  1  0  0  0  0
 61 83  1  0  0  0  0
 62 64  1  0  0  0  0
 62 73  1  0  0  0  0
 63 75  1  0  0  0  0
 65 66  1  0  0  0  0
M  CHG  1  75   1
M  ISO  4  39 100  61 101  74 100  83 101
M  END
> <Batch ID>
0032

> <Smiles>
CNC(C)C(=O)NC(C(=O)N1Cc2cc([101O:1][101CH2:1]C3CN(c4cc(F)c(C[100NH:0][100C:0](=O)N5CCCC(n6nc(-c7ccc(Oc8ccc(F)cc8F)cc7)c(C(N)=O)c6N)C5)cc4C)C3=O)ccc2CC1C(=O)NC1CCCc2ccccc21)C(C)(C)C

> <Shape>
0.247

> <Color>
0.055

> <Negative vol penalty>
0.000

$$$$

  -OEChem-04042321423D

 88 97  0     1  0  0  0  0  0999 V2000
  -22.7061  -11.3862   18.4224 C   0  0  0  0  0  0  0  0  0  0  0  0
  -22.2088  -12.6618   18.6694 C   0  0  0  0  0  0  0  0  0  0  0  0
  -30.5729  -26.6171   20.1570 C   0  0  0  0  0  0  0  0  0  0  0  0
  -30.5496  -28.2908   21.8992 C   0  0  0  0  0  0  0  0  0  0  0  0
  -23.8963  -10.9753   19.0213 C   0  0  0  0  0  0  0  0  0  0  0  0
  -22.9008  -13.5268   19.5164 C   0  0  0  0  0  0  0  0  0  0  0  0
  -23.3400  -19.6135   19.0021 C   0  0  0  0  0  0  0  0  0  0  0  0
  -31.9511  -26.7807   20.0182 C   0  0  0  0  0  0  0  0  0  0  0  0
  -31.9279  -28.4544   21.7604 C   0  0  0  0  0  0  0  0  0  0  0  0
  -22.6578  -20.6590   19.6229 C   0  0  0  0  0  0  0  0  0  0  0  0
  -34.7523  -25.7879   21.6307 C   0  0  0  0  0  0  0  0  0  0  0  0
  -35.5356  -24.6375   21.5374 C   0  0  0  0  0  0  0  0  0  0  0  0
  -24.4357  -20.8497   21.2420 C   0  0  0  0  0  0  0  0  0  0  0  0
  -18.8447  -28.5914   22.0336 C   0  0  0  0  0  0  0  0  0  0  0  0
  -36.3164  -25.3455   19.3634 C   0  0  0  0  0  0  0  0  0  0  0  0
  -29.8721  -27.3722   21.0975 C   0  0  0  0  0  0  0  0  0  0  0  0
  -27.7801  -26.3061   22.0949 C   0  0  0  0  0  0  0  0  0  0  0  0
  -24.6083  -11.8391   19.8683 C   0  0  0  0  0  0  0  0  0  0  0  0
  -24.5721  -19.1704   19.5039 C   0  0  0  0  0  0  0  0  0  0  0  0
  -24.1009  -13.1265   20.1281 C   0  0  0  0  0  0  0  0  0  0  0  0
  -25.1328  -19.8002   20.6242 C   0  0  0  0  0  0  0  0  0  0  0  0
  -18.0115  -27.5031   21.7745 C   0  0  0  0  0  0  0  0  0  0  0  0
  -19.9510  -28.4393   22.8694 C   0  0  0  0  0  0  0  0  0  0  0  0
  -19.3910  -26.1107   23.1870 C   0  0  0  0  0  0  0  0  0  0  0  0
  -32.6286  -27.6993   20.8199 C   0  0  0  0  0  0  0  0  0  0  0  0
  -23.2042  -21.2753   20.7447 C   0  0  0  0  0  0  0  0  0  0  0  0
  -34.7511  -26.7171   20.5903 C   0  0  0  0  0  0  0  0  0  0  0  0
  -36.3176  -24.4163   20.4037 C   0  0  0  0  0  0  0  0  0  0  0  0
  -35.5331  -26.4959   19.4567 C   0  0  0  0  0  0  0  0  0  0  0  0
  -18.2847  -26.2628   22.3511 C   0  0  0  0  0  0  0  0  0  0  0  0
  -20.2242  -27.1990   23.4461 C   0  0  0  0  0  0  0  0  0  0  0  0
  -28.4483  -27.2040   21.2410 C   0  0  0  0  0  0  0  0  0  0  0  0
  -26.4467  -26.5351   21.8583 C   0  0  0  0  0  0  0  0  0  0  0  0
  -21.3762  -23.0233   23.9891 C   0  0  0  0  0  0  0  0  0  0  0  0
  -22.0248  -23.3158   25.1226 C   0  0  0  0  0  0  0  0  0  0  0  0
  -28.3168  -25.3506   23.0194 C   0  0  0  0  0  0  0  0  0  0  0  0
  -25.6523  -16.4308   20.7006 C   0  0  0  0  0  0  0  0  0  0  0  0
  -28.4992  -17.9851   20.6576 C   0  0  0  0  0  0  0  0  0  0  0  0
  -30.1786  -20.9560   20.6700 C   0  0  0  0  0  0  0  0  0  0  0  0
  -22.1739  -30.0395   21.0784 C   0  0  0  0  0  0  0  0  0  0  0  0
  -25.8656  -11.3335   20.5301 C   0  0  0  0  0  0  0  0  0  0  0  0
  -25.3082  -18.0592   18.8069 C   0  0  0  0  0  0  0  0  0  0  0  0
  -26.4624  -19.3754   21.1902 C   0  0  0  0  0  0  0  0  0  0  0  0
  -21.3134  -21.6719   23.3485 C   0  0  0  0  0  0  0  0  0  0  0  0
  -26.7329  -12.4434   21.1185 C   0  0  0  0  0  0  0  0  0  0  0  0
  -24.1603  -29.2274   18.2374 C   0  0  0  0  0  0  0  0  0  0  0  0
  -25.8780  -13.4223   21.9171 C   0  0  0  0  0  0  0  0  0  0  0  0
  -25.3999  -28.5606   18.8364 C   0  0  0  0  0  0  0  0  0  0  0  0
  -23.6517  -30.3671   19.1175 C   0  0  0  0  0  0  0  0  0  0  0  0
  -24.6427  -29.3329   21.1231 C   0  0  0  0  0  0  0  0  0  0  0  0
  -20.4453  -23.3606   21.8667 C   0  0  0  0  0  0  0  0  0  0  0  0
  -24.8357  -14.1025   21.0213 C   0  0  1  0  0  0  0  0  0  0  0  0
  -26.3115  -17.3484   19.7100 C   0  0  1  0  0  0  0  0  0  0  0  0
  -25.1595  -28.1411   20.2991 C   0  0  2  0  0  0  0  0  0  0  0  0
  -21.2386  -22.0616   21.8805 C   0  0  1  0  0  0  0  0  0  1  0  0
  -16.8389  -27.7128   20.8709 C   0  0  0  0  0  0  0  0  0  0  0  0
  -32.5013  -21.9058   20.6684 C   0  0  0  0  0  0  0  0  0  0  0  0
  -28.7878  -17.2780   23.6117 C   0  0  0  0  0  0  0  0  0  0  0  0
  -30.5859  -19.0119   23.7794 C   0  0  0  0  0  0  0  0  0  0  0  0
  -30.8878  -17.0462   22.2736 C   0  0  0  0  0  0  0  0  0  0  0  0
  -29.7337  -22.3450   18.0948 C   0  0  0  0  0  0  0  0  0  0  0  0
  -20.8168  -29.6332   23.1162 C   0  0  0  0  0  0  0  0  0  0  0  0
  -19.6841  -24.7771   23.8087 C   0  0  0  0  0  0  0  0  0  0  0  0
  -29.2527  -18.8630   21.6274 C   0  0  1  0  0  0  0  0  0  0  0  0
  -31.3213  -21.4707   19.8134 C   0  0  2  0  0  0  0  0  0  0  0  0
  -29.8526  -18.0567   22.8138 C   0  0  0  0  0  0  0  0  0  0  0  0
  -27.6086  -27.9478   20.5159 N   0  0  0  0  0  0  0  0  0  0  0  0
  -26.3991  -27.5177   20.9135 N   0  0  0  0  0  0  0  0  0  0  0  0
  -27.1405  -18.2803   20.4772 N   0  0  0  0  0  0  0  0  0  0  0  0
  -23.4425  -29.9028   20.4911 N   0  0  0  0  0  0  0  0  0  0  0  0
  -25.3219  -25.9897   22.3682 N   0  0  0  0  0  0  0  0  0  0  0  0
  -29.7093  -25.2452   23.1382 N   0  0  0  0  0  0  0  0  0  0  0  0
  -25.4524  -15.1466   20.2313 N   0  0  0  0  0  0  0  0  0  0  0  0
  -30.2415  -19.5888   20.8375 N   0  0  0  0  0  0  0  0  0  0  0  0
  -22.0600  -29.5681   22.3806 N   0  0  0  0  0  0  0  0  0  0  0  0
  -20.8356  -24.0678   23.1620 N   0  3  1  0  0  0  0  0  0  0  0  0
  -30.8746  -22.6370   19.0003 N   0  3  0  0  0  0  0  0  0  0  0  0
  -27.5834  -24.6008   23.7074 O   0  0  0  0  0  0  0  0  0  0  0  0
  -25.3489  -16.8561   21.8091 O   0  0  0  0  0  0  0  0  0  0  0  0
  -29.0959  -17.0755   20.0761 O   0  0  0  0  0  0  0  0  0  0  0  0
  -29.3184  -21.6935   21.1462 O   0  0  0  0  0  0  0  0  0  0  0  0
  -21.2125  -30.5393   20.4844 O   0  0  0  0  0  0  0  0  0  0  0  0
  -33.9735  -27.8591   20.6848 O   0  0  0  0  0  0  0  0  0  0  0  0
  -22.5401  -22.2955   21.3530 O   0  0  0  0  0  0  0  0  0  1  0  0
  -37.0709  -23.3122   20.3149 F   0  0  0  0  0  0  0  0  0  0  0  0
  -35.5369  -27.3855   18.4545 F   0  0  0  0  0  0  0  0  0  0  0  0
  -17.2452  -24.9155   22.0241 Cl  0  0  0  0  0  0  0  0  0  0  0  0
  -21.6005  -27.0173   24.4839 Cl  0  0  0  0  0  0  0  0  0  0  0  0
  1  2  1  0  0  0  0
  1  5  2  0  0  0  0
  2  6  2  0  0  0  0
  3  8  2  0  0  0  0
  3 16  1  0  0  0  0
  4  9  1  0  0  0  0
  4 16  2  0  0  0  0
  5 18  1  0  0  0  0
  6 20  1  0  0  0  0
  7 10  2  0  0  0  0
  7 19  1  0  0  0  0
  8 25  1  0  0  0  0
  9 25  2  0  0  0  0
 10 26  1  0  0  0  0
 11 12  2  0  0  0  0
 11 27  1  0  0  0  0
 12 28  1  0  0  0  0
 13 21  1  0  0  0  0
 13 26  2  0  0  0  0
 14 22  1  0  0  0  0
 14 23  2  0  0  0  0
 15 28  2  0  0  0  0
 15 29  1  0  0  0  0
 16 32  1  0  0  0  0
 17 32  1  0  0  0  0
 17 33  2  0  0  0  0
 17 36  1  0  0  0  0
 18 20  2  0  0  0  0
 18 41  1  0  0  0  0
 19 21  2  0  0  0  0
 19 42  1  0  0  0  0
 20 52  1  0  0  0  0
 21 43  1  0  0  0  0
 22 30  2  0  0  0  0
 22 56  1  0  0  0  0
 23 31  1  0  0  0  0
 23 62  1  0  0  0  0
 24 30  1  0  0  0  0
 24 31  2  0  0  0  0
 24 63  1  0  0  0  0
 25 83  1  0  0  0  0
 26 84  1  0  0  0  0
 27 29  2  0  0  0  0
 27 83  1  0  0  0  0
 28 85  1  0  0  0  0
 29 86  1  0  0  0  0
 30 87  1  0  0  0  0
 31 88  1  0  0  0  0
 32 67  2  0  0  0  0
 33 68  1  0  0  0  0
 33 71  1  0  0  0  0
 34 35  2  0  0  0  0
 34 44  1  0  0  0  0
 34 76  1  0  0  0  0
 36 72  1  0  0  0  0
 36 78  2  0  0  0  0
 37 53  1  0  0  0  0
 37 73  1  0  0  0  0
 37 79  2  0  0  0  0
 38 64  1  0  0  0  0
 38 69  1  0  0  0  0
 38 80  2  0  0  0  0
 39 65  1  0  0  0  0
 39 74  1  0  0  0  0
 39 81  2  0  0  0  0
 40 70  1  0  0  0  0
 40 75  1  0  0  0  0
 40 82  2  0  0  0  0
 41 45  1  0  0  0  0
 42 53  1  0  0  0  0
 43 69  1  0  0  0  0
 44 55  1  0  0  0  0
 45 47  1  0  0  0  0
 46 48  1  0  0  0  0
 46 49  1  0  0  0  0
 47 52  1  0  0  0  0
 48 54  1  0  0  0  0
 49 70  1  0  0  0  0
 50 54  1  0  0  0  0
 50 70  1  0  0  0  0
 51 55  1  0  0  0  0
 51 76  1  0  0  0  0
 52 73  1  0  0  0  0
 53 69  1  0  0  0  0
 54 68  1  0  0  0  0
 55 84  1  0  0  0  0
 57 65  1  0  0  0  0
 58 66  1  0  0  0  0
 59 66  1  0  0  0  0
 60 66  1  0  0  0  0
 61 77  1  0  0  0  0
 62 75  1  0  0  0  0
 63 76  1  0  0  0  0
 64 66  1  0  0  0  0
 64 74  1  0  0  0  0
 65 77  1  0  0  0  0
 67 68  1  0  0  0  0
M  CHG  2  76   1  77   1
M  ISO  4  40 100  55 101  75 100  84 101
M  END
> <Batch ID>
0032

> <Smiles>
C=C1C[101CH:1]([101O:1]c2ccc3c(c2)CN(C(=O)C(NC(=O)C(C)NC)C(C)(C)C)C(C(=O)NC2CCCc4ccccc42)C3)CN1Cc1c(Cl)c(C)cc(C[100NH:0][100C:0](=O)N2CCCC(n3nc(-c4ccc(Oc5ccc(F)cc5F)cc4)c(C(N)=O)c3N)C2)c1Cl

> <Shape>
0.218

> <Color>
0.072

> <Negative vol penalty>
0.000

$$$$

  -OEChem-04042321423D

 86 95  0     1  0  0  0  0  0999 V2000
  -16.7544  -30.2595   23.9434 C   0  0  0  0  0  0  0  0  0  0  0  0
  -17.9341  -30.8038   24.4408 C   0  0  0  0  0  0  0  0  0  0  0  0
  -26.4866  -14.3893   22.4138 C   0  0  0  0  0  0  0  0  0  0  0  0
  -24.6299  -14.6068   20.8832 C   0  0  0  0  0  0  0  0  0  0  0  0
  -16.7930  -29.0906   23.1844 C   0  0  0  0  0  0  0  0  0  0  0  0
  -19.1531  -30.1788   24.1804 C   0  0  0  0  0  0  0  0  0  0  0  0
  -26.0682  -31.6768   23.0610 C   0  0  0  0  0  0  0  0  0  0  0  0
  -30.2630  -25.6763   22.7000 C   0  0  0  0  0  0  0  0  0  0  0  0
  -29.3367  -24.8400   22.0770 C   0  0  0  0  0  0  0  0  0  0  0  0
  -26.5823  -13.0325   22.1048 C   0  0  0  0  0  0  0  0  0  0  0  0
  -24.7257  -13.2500   20.5742 C   0  0  0  0  0  0  0  0  0  0  0  0
  -27.3352  -31.3246   23.5240 C   0  0  0  0  0  0  0  0  0  0  0  0
  -23.8144  -10.3073   21.9673 C   0  0  0  0  0  0  0  0  0  0  0  0
  -22.6322   -9.5685   21.9196 C   0  0  0  0  0  0  0  0  0  0  0  0
  -27.2885  -29.3533   22.1344 C   0  0  0  0  0  0  0  0  0  0  0  0
  -29.8123  -24.5997   24.8154 C   0  0  0  0  0  0  0  0  0  0  0  0
  -23.0644   -9.0264   19.6051 C   0  0  0  0  0  0  0  0  0  0  0  0
  -25.5103  -15.1765   21.8030 C   0  0  0  0  0  0  0  0  0  0  0  0
  -25.1644  -17.1465   23.3864 C   0  0  0  0  0  0  0  0  0  0  0  0
  -18.0140  -28.4563   22.9065 C   0  0  0  0  0  0  0  0  0  0  0  0
  -25.3961  -30.8629   22.1379 C   0  0  0  0  0  0  0  0  0  0  0  0
  -19.2079  -28.9995   23.4181 C   0  0  0  0  0  0  0  0  0  0  0  0
  -26.0141  -29.6988   21.6593 C   0  0  0  0  0  0  0  0  0  0  0  0
  -30.5008  -25.5561   24.0692 C   0  0  0  0  0  0  0  0  0  0  0  0
  -28.8859  -23.7634   24.1924 C   0  0  0  0  0  0  0  0  0  0  0  0
  -28.6481  -23.8835   22.8232 C   0  0  0  0  0  0  0  0  0  0  0  0
  -25.7019  -12.4628   21.1850 C   0  0  0  0  0  0  0  0  0  0  0  0
  -27.9443  -30.1612   23.0629 C   0  0  0  0  0  0  0  0  0  0  0  0
  -24.6215  -10.4057   20.8339 C   0  0  0  0  0  0  0  0  0  0  0  0
  -22.2572   -8.9280   20.7385 C   0  0  0  0  0  0  0  0  0  0  0  0
  -24.2465   -9.7653   19.6528 C   0  0  0  0  0  0  0  0  0  0  0  0
  -25.4105  -16.5780   22.1222 C   0  0  0  0  0  0  0  0  0  0  0  0
  -25.1651  -18.5012   23.1596 C   0  0  0  0  0  0  0  0  0  0  0  0
  -24.9541  -16.5073   24.6524 C   0  0  0  0  0  0  0  0  0  0  0  0
  -22.6753  -29.2196   22.1604 C   0  0  0  0  0  0  0  0  0  0  0  0
  -23.4052  -28.7194   19.0396 C   0  0  0  0  0  0  0  0  0  0  0  0
  -26.3607  -27.9569   17.1159 C   0  0  0  0  0  0  0  0  0  0  0  0
  -27.3704  -23.0470   20.8197 C   0  0  0  0  0  0  0  0  0  0  0  0
  -18.0009  -27.1686   22.1213 C   0  0  0  0  0  0  0  0  0  0  0  0
  -24.0411  -31.2707   21.6279 C   0  0  0  0  0  0  0  0  0  0  0  0
  -25.3433  -28.8013   20.6527 C   0  0  0  0  0  0  0  0  0  0  0  0
  -19.3708  -26.7742   21.5752 C   0  0  0  0  0  0  0  0  0  0  0  0
  -25.1414  -21.1155   18.8253 C   0  0  0  0  0  0  0  0  0  0  0  0
  -20.4368  -26.9122   22.6575 C   0  0  0  0  0  0  0  0  0  0  0  0
  -24.9924  -19.8096   19.6092 C   0  0  0  0  0  0  0  0  0  0  0  0
  -30.3308  -30.5856   25.5004 C   0  0  0  0  0  0  0  0  0  0  0  0
  -31.7433  -30.3038   25.0012 C   0  0  0  0  0  0  0  0  0  0  0  0
  -26.5613  -21.6718   18.9146 C   0  0  0  0  0  0  0  0  0  0  0  0
  -26.9325  -20.5242   21.0627 C   0  0  0  0  0  0  0  0  0  0  0  0
  -29.7412  -28.1586   25.1521 C   0  0  0  0  0  0  0  0  0  0  0  0
  -20.5523  -28.3644   23.1363 C   0  0  1  0  0  0  0  0  0  0  0  0
  -23.2325  -30.0999   21.0777 C   0  0  1  0  0  0  0  0  0  0  0  0
  -25.5025  -19.9594   21.0559 C   0  0  2  0  0  0  0  0  0  0  0  0
  -29.3241  -29.6026   24.9163 C   0  0  2  0  0  0  0  0  0  1  0  0
  -32.1707  -28.8532   25.2544 C   0  0  2  0  0  0  0  0  0  0  0  0
  -28.1606  -22.7498   25.0171 C   0  0  0  0  0  0  0  0  0  0  0  0
  -33.5586  -28.6135   24.6632 C   0  0  0  0  0  0  0  0  0  0  0  0
  -26.9204  -28.4507   14.7200 C   0  0  0  0  0  0  0  0  0  0  0  0
  -22.3061  -25.9229   18.5088 C   0  0  0  0  0  0  0  0  0  0  0  0
  -24.1222  -25.6064   16.8147 C   0  0  0  0  0  0  0  0  0  0  0  0
  -22.4181  -27.3996   16.4935 C   0  0  0  0  0  0  0  0  0  0  0  0
  -28.8650  -29.3444   17.8658 C   0  0  0  0  0  0  0  0  0  0  0  0
  -31.4955  -26.4573   24.7396 C   0  0  0  0  0  0  0  0  0  0  0  0
  -24.1872  -27.6763   18.2784 C   0  0  1  0  0  0  0  0  0  0  0  0
  -27.0923  -28.8883   16.1663 C   0  0  2  0  0  0  0  0  0  0  0  0
  -23.2648  -26.6579   17.5508 C   0  0  0  0  0  0  0  0  0  0  0  0
  -25.5568  -17.4964   21.1635 N   0  0  0  0  0  0  0  0  0  0  0  0
  -25.4020  -18.6557   21.8254 N   0  0  0  0  0  0  0  0  0  0  0  0
  -24.0165  -29.2396   20.1891 N   0  0  0  0  0  0  0  0  0  0  0  0
  -26.9751  -21.7903   20.3145 N   0  0  0  0  0  0  0  0  0  0  0  0
  -24.9861  -19.5633   23.9734 N   0  0  0  0  0  0  0  0  0  0  0  0
  -24.9859  -15.1072   24.7074 N   0  0  0  0  0  0  0  0  0  0  0  0
  -27.7111  -23.0435   22.1719 N   0  0  0  0  0  0  0  0  0  0  0  0
  -21.2951  -29.1548   22.1782 N   0  0  0  0  0  0  0  0  0  0  0  0
  -25.0870  -28.4067   17.3923 N   0  0  0  0  0  0  0  0  0  0  0  0
  -31.1441  -27.9209   24.6177 N   0  3  1  0  0  0  0  0  0  0  0  0
  -28.5489  -28.9093   16.4810 N   0  3  0  0  0  0  0  0  0  0  0  0
  -24.7277  -17.1579   25.7007 O   0  0  0  0  0  0  0  0  0  0  0  0
  -23.4409  -28.6407   22.9222 O   0  0  0  0  0  0  0  0  0  0  0  0
  -22.2959  -29.0652   18.6253 O   0  0  0  0  0  0  0  0  0  0  0  0
  -26.8672  -26.9308   17.5645 O   0  0  0  0  0  0  0  0  0  0  0  0
  -27.3781  -24.0576   20.1122 O   0  0  0  0  0  0  0  0  0  0  0  0
  -25.7952  -11.1389   20.8830 O   0  0  0  0  0  0  0  0  0  0  0  0
  -29.1807  -29.8148   23.5137 O   0  0  0  0  0  0  0  0  0  1  0  0
  -21.1228   -8.2173   20.6933 F   0  0  0  0  0  0  0  0  0  0  0  0
  -25.0184   -9.8552   18.5611 F   0  0  0  0  0  0  0  0  0  0  0  0
  1  2  1  0  0  0  0
  1  5  2  0  0  0  0
  2  6  2  0  0  0  0
  3 10  2  0  0  0  0
  3 18  1  0  0  0  0
  4 11  1  0  0  0  0
  4 18  2  0  0  0  0
  5 20  1  0  0  0  0
  6 22  1  0  0  0  0
  7 12  2  0  0  0  0
  7 21  1  0  0  0  0
  8  9  2  0  0  0  0
  8 24  1  0  0  0  0
  9 26  1  0  0  0  0
 10 27  1  0  0  0  0
 11 27  2  0  0  0  0
 12 28  1  0  0  0  0
 13 14  2  0  0  0  0
 13 29  1  0  0  0  0
 14 30  1  0  0  0  0
 15 23  1  0  0  0  0
 15 28  2  0  0  0  0
 16 24  2  0  0  0  0
 16 25  1  0  0  0  0
 17 30  2  0  0  0  0
 17 31  1  0  0  0  0
 18 32  1  0  0  0  0
 19 32  1  0  0  0  0
 19 33  2  0  0  0  0
 19 34  1  0  0  0  0
 20 22  2  0  0  0  0
 20 39  1  0  0  0  0
 21 23  2  0  0  0  0
 21 40  1  0  0  0  0
 22 51  1  0  0  0  0
 23 41  1  0  0  0  0
 24 63  1  0  0  0  0
 25 26  2  0  0  0  0
 25 56  1  0  0  0  0
 26 73  1  0  0  0  0
 27 83  1  0  0  0  0
 28 84  1  0  0  0  0
 29 31  2  0  0  0  0
 29 83  1  0  0  0  0
 30 85  1  0  0  0  0
 31 86  1  0  0  0  0
 32 67  2  0  0  0  0
 33 68  1  0  0  0  0
 33 71  1  0  0  0  0
 34 72  1  0  0  0  0
 34 78  2  0  0  0  0
 35 52  1  0  0  0  0
 35 74  1  0  0  0  0
 35 79  2  0  0  0  0
 36 64  1  0  0  0  0
 36 69  1  0  0  0  0
 36 80  2  0  0  0  0
 37 65  1  0  0  0  0
 37 75  1  0  0  0  0
 37 81  2  0  0  0  0
 38 70  1  0  0  0  0
 38 73  1  0  0  0  0
 38 82  2  0  0  0  0
 39 42  1  0  0  0  0
 40 52  1  0  0  0  0
 41 69  1  0  0  0  0
 42 44  1  0  0  0  0
 43 45  1  0  0  0  0
 43 48  1  0  0  0  0
 44 51  1  0  0  0  0
 45 53  1  0  0  0  0
 46 47  1  0  0  0  0
 46 54  1  0  0  0  0
 47 55  1  0  0  0  0
 48 70  1  0  0  0  0
 49 53  1  0  0  0  0
 49 70  1  0  0  0  0
 50 54  1  0  0  0  0
 50 76  1  0  0  0  0
 51 74  1  0  0  0  0
 52 69  1  0  0  0  0
 53 68  1  0  0  0  0
 54 84  1  0  0  0  0
 55 57  1  0  0  0  0
 55 76  1  0  0  0  0
 58 65  1  0  0  0  0
 59 66  1  0  0  0  0
 60 66  1  0  0  0  0
 61 66  1  0  0  0  0
 62 77  1  0  0  0  0
 63 76  1  0  0  0  0
 64 66  1  0  0  0  0
 64 75  1  0  0  0  0
 65 77  1  0  0  0  0
 67 68  1  0  0  0  0
M  CHG  2  76   1  77   1
M  ISO  4  38 100  54 101  73 100  84 101
M  END
> <Batch ID>
0032

> <Smiles>
CNC(C)C(=O)NC(C(=O)N1Cc2cc([101O:1][101CH:1]3CCC(C)N(Cc4ccc([100NH:0][100C:0](=O)N5CCCC(n6nc(-c7ccc(Oc8ccc(F)cc8F)cc7)c(C(N)=O)c6N)C5)c(C)c4)C3)ccc2CC1C(=O)NC1CCCc2ccccc21)C(C)(C)C

> <Shape>
0.217

> <Color>
0.117

> <Negative vol penalty>
0.000

$$$$

  -OEChem-04042321423D

 84 93  0     1  0  0  0  0  0999 V2000
  -18.5454   -9.7582   31.5908 C   0  0  0  0  0  0  0  0  0  0  0  0
  -19.7749   -9.6326   30.9521 C   0  0  0  0  0  0  0  0  0  0  0  0
  -23.2885   -9.7996   19.9125 C   0  0  0  0  0  0  0  0  0  0  0  0
  -23.7386   -9.9399   22.2821 C   0  0  0  0  0  0  0  0  0  0  0  0
  -18.4831  -10.2713   32.8857 C   0  0  0  0  0  0  0  0  0  0  0  0
  -20.9428  -10.0211   31.6076 C   0  0  0  0  0  0  0  0  0  0  0  0
  -26.4672   -7.4199   31.1386 C   0  0  0  0  0  0  0  0  0  0  0  0
  -29.8098  -12.8940   27.6249 C   0  0  0  0  0  0  0  0  0  0  0  0
  -22.5621   -8.6271   20.1199 C   0  0  0  0  0  0  0  0  0  0  0  0
  -23.0121   -8.7673   22.4895 C   0  0  0  0  0  0  0  0  0  0  0  0
  -27.5979   -7.7475   30.3915 C   0  0  0  0  0  0  0  0  0  0  0  0
  -19.7649   -7.8564   22.7057 C   0  0  0  0  0  0  0  0  0  0  0  0
  -18.8622   -7.8346   23.7688 C   0  0  0  0  0  0  0  0  0  0  0  0
  -30.1042  -14.1413   27.0743 C   0  0  0  0  0  0  0  0  0  0  0  0
  -28.5100   -8.9151   32.2951 C   0  0  0  0  0  0  0  0  0  0  0  0
  -20.0676   -5.9872   24.7544 C   0  0  0  0  0  0  0  0  0  0  0  0
  -23.8769  -10.4560   20.9936 C   0  0  0  0  0  0  0  0  0  0  0  0
  -24.1364  -12.9860   20.7954 C   0  0  0  0  0  0  0  0  0  0  0  0
  -19.6517  -10.6574   33.5610 C   0  0  0  0  0  0  0  0  0  0  0  0
  -26.3444   -7.8475   32.4685 C   0  0  0  0  0  0  0  0  0  0  0  0
  -20.8958  -10.5412   32.9122 C   0  0  0  0  0  0  0  0  0  0  0  0
  -27.3780   -8.5895   33.0577 C   0  0  0  0  0  0  0  0  0  0  0  0
  -30.7259  -11.8137   25.6676 C   0  0  0  0  0  0  0  0  0  0  0  0
  -31.0203  -13.0610   25.1170 C   0  0  0  0  0  0  0  0  0  0  0  0
  -30.1206  -11.7302   26.9216 C   0  0  0  0  0  0  0  0  0  0  0  0
  -22.4238   -8.1110   21.4083 C   0  0  0  0  0  0  0  0  0  0  0  0
  -28.6182   -8.4977   30.9688 C   0  0  0  0  0  0  0  0  0  0  0  0
  -20.8189   -6.9435   22.6668 C   0  0  0  0  0  0  0  0  0  0  0  0
  -19.0136   -6.9000   24.7932 C   0  0  0  0  0  0  0  0  0  0  0  0
  -20.9703   -6.0090   23.6912 C   0  0  0  0  0  0  0  0  0  0  0  0
  -30.7094  -14.2248   25.8204 C   0  0  0  0  0  0  0  0  0  0  0  0
  -24.6279  -11.6669   20.7800 C   0  0  0  0  0  0  0  0  0  0  0  0
  -25.2380  -13.7659   20.5409 C   0  0  0  0  0  0  0  0  0  0  0  0
  -22.8033  -13.4636   21.0199 C   0  0  0  0  0  0  0  0  0  0  0  0
  -24.3157   -9.7194   34.0445 C   0  0  0  0  0  0  0  0  0  0  0  0
  -26.0067   -8.7195   36.6258 C   0  0  0  0  0  0  0  0  0  0  0  0
  -28.9298   -7.4707   37.8679 C   0  0  0  0  0  0  0  0  0  0  0  0
  -31.1087  -12.9225   21.3622 C   0  0  0  0  0  0  0  0  0  0  0  0
  -19.5296  -11.2507   34.9422 C   0  0  0  0  0  0  0  0  0  0  0  0
  -25.1305   -7.4631   33.2691 C   0  0  0  0  0  0  0  0  0  0  0  0
  -27.3038   -9.0555   34.4881 C   0  0  0  0  0  0  0  0  0  0  0  0
  -20.8499  -11.2897   35.7073 C   0  0  0  0  0  0  0  0  0  0  0  0
  -29.4607  -13.6625   18.2940 C   0  0  0  0  0  0  0  0  0  0  0  0
  -21.9657  -11.8312   34.8193 C   0  0  0  0  0  0  0  0  0  0  0  0
  -27.9909  -13.3539   18.5846 C   0  0  0  0  0  0  0  0  0  0  0  0
  -30.3938  -12.6829   19.0025 C   0  0  0  0  0  0  0  0  0  0  0  0
  -28.7066  -12.2534   20.7469 C   0  0  0  0  0  0  0  0  0  0  0  0
  -28.7529  -10.2037   28.3809 C   0  0  0  0  0  0  0  0  0  0  0  0
  -30.7356   -9.5743   28.0637 C   0  0  0  0  0  0  0  0  0  0  0  0
  -22.1872  -10.9287   33.5995 C   0  0  1  0  0  0  0  0  0  0  0  0
  -24.8796   -8.3887   34.4556 C   0  0  1  0  0  0  0  0  0  0  0  0
  -27.7289  -13.2487   20.0991 C   0  0  2  0  0  0  0  0  0  0  0  0
  -29.5509   -8.9727   28.8333 C   0  0  0  0  0  0  0  0  0  1  0  0
  -31.0587  -10.5645   24.9126 C   0  0  0  0  0  0  0  0  0  0  0  0
  -30.0251   -6.7934   40.0218 C   0  0  0  0  0  0  0  0  0  0  0  0
  -26.4195  -11.6578   37.3370 C   0  0  0  0  0  0  0  0  0  0  0  0
  -28.2568  -10.9530   38.8848 C   0  0  0  0  0  0  0  0  0  0  0  0
  -25.9218  -10.1725   39.2866 C   0  0  0  0  0  0  0  0  0  0  0  0
  -29.2716   -4.6777   36.9506 C   0  0  0  0  0  0  0  0  0  0  0  0
  -31.6698  -13.1359   23.7702 C   0  0  0  0  0  0  0  0  0  0  0  0
  -27.2356   -9.2084   37.3536 C   0  0  1  0  0  0  0  0  0  0  0  0
  -29.2101   -6.3267   38.8256 C   0  0  2  0  0  0  0  0  0  0  0  0
  -26.9593  -10.4910   38.1879 C   0  0  0  0  0  0  0  0  0  0  0  0
  -25.9396  -11.6082   20.5348 N   0  0  0  0  0  0  0  0  0  0  0  0
  -26.2816  -12.9002   20.3938 N   0  0  0  0  0  0  0  0  0  0  0  0
  -29.8196  -10.4964   27.4879 N   0  0  0  0  0  0  0  0  0  0  0  0
  -26.0940   -8.6597   35.2277 N   0  0  0  0  0  0  0  0  0  0  0  0
  -30.0940  -12.6313   20.4355 N   0  0  0  0  0  0  0  0  0  0  0  0
  -25.4060  -15.1008   20.4307 N   0  0  0  0  0  0  0  0  0  0  0  0
  -21.7906  -12.5267   21.2669 N   0  0  0  0  0  0  0  0  0  0  0  0
  -22.9360   -9.7481   33.9736 N   0  0  0  0  0  0  0  0  0  0  0  0
  -27.7220   -8.0785   38.1380 N   0  0  0  0  0  0  0  0  0  0  0  0
  -30.7386  -12.8568   22.6999 N   0  0  0  0  0  0  0  0  0  0  0  0
  -29.9676   -5.2457   38.1338 N   0  3  0  0  0  0  0  0  0  0  0  0
  -22.5155  -14.6841   20.9857 O   0  0  0  0  0  0  0  0  0  0  0  0
  -25.0760  -10.6516   33.8106 O   0  0  0  0  0  0  0  0  0  0  0  0
  -25.0087   -8.3955   37.2743 O   0  0  0  0  0  0  0  0  0  0  0  0
  -29.7064   -7.7951   36.9723 O   0  0  0  0  0  0  0  0  0  0  0  0
  -32.2578  -13.2243   21.0224 O   0  0  0  0  0  0  0  0  0  0  0  0
  -21.7148   -6.9670   21.6111 O   0  0  0  0  0  0  0  0  0  0  0  0
  -29.7225   -8.8193   30.2417 O   0  0  0  0  0  0  0  0  0  1  0  0
  -18.1476   -6.8802   25.8148 F   0  0  0  0  0  0  0  0  0  0  0  0
  -21.9816   -5.1303   23.6600 F   0  0  0  0  0  0  0  0  0  0  0  0
  -31.0584  -15.7880   25.1755 Cl  0  0  0  0  0  0  0  0  0  0  0  0
  1  2  1  0  0  0  0
  1  5  2  0  0  0  0
  2  6  2  0  0  0  0
  3  9  2  0  0  0  0
  3 17  1  0  0  0  0
  4 10  1  0  0  0  0
  4 17  2  0  0  0  0
  5 19  1  0  0  0  0
  6 21  1  0  0  0  0
  7 11  2  0  0  0  0
  7 20  1  0  0  0  0
  8 14  2  0  0  0  0
  8 25  1  0  0  0  0
  9 26  1  0  0  0  0
 10 26  2  0  0  0  0
 11 27  1  0  0  0  0
 12 13  2  0  0  0  0
 12 28  1  0  0  0  0
 13 29  1  0  0  0  0
 14 31  1  0  0  0  0
 15 22  1  0  0  0  0
 15 27  2  0  0  0  0
 16 29  2  0  0  0  0
 16 30  1  0  0  0  0
 17 32  1  0  0  0  0
 18 32  1  0  0  0  0
 18 33  2  0  0  0  0
 18 34  1  0  0  0  0
 19 21  2  0  0  0  0
 19 39  1  0  0  0  0
 20 22  2  0  0  0  0
 20 40  1  0  0  0  0
 21 50  1  0  0  0  0
 22 41  1  0  0  0  0
 23 24  1  0  0  0  0
 23 25  2  0  0  0  0
 23 54  1  0  0  0  0
 24 31  2  0  0  0  0
 24 60  1  0  0  0  0
 25 66  1  0  0  0  0
 26 80  1  0  0  0  0
 27 81  1  0  0  0  0
 28 30  2  0  0  0  0
 28 80  1  0  0  0  0
 29 82  1  0  0  0  0
 30 83  1  0  0  0  0
 31 84  1  0  0  0  0
 32 64  2  0  0  0  0
 33 65  1  0  0  0  0
 33 69  1  0  0  0  0
 34 70  1  0  0  0  0
 34 75  2  0  0  0  0
 35 51  1  0  0  0  0
 35 71  1  0  0  0  0
 35 76  2  0  0  0  0
 36 61  1  0  0  0  0
 36 67  1  0  0  0  0
 36 77  2  0  0  0  0
 37 62  1  0  0  0  0
 37 72  1  0  0  0  0
 37 78  2  0  0  0  0
 38 68  1  0  0  0  0
 38 73  1  0  0  0  0
 38 79  2  0  0  0  0
 39 42  1  0  0  0  0
 40 51  1  0  0  0  0
 41 67  1  0  0  0  0
 42 44  1  0  0  0  0
 43 45  1  0  0  0  0
 43 46  1  0  0  0  0
 44 50  1  0  0  0  0
 45 52  1  0  0  0  0
 46 68  1  0  0  0  0
 47 52  1  0  0  0  0
 47 68  1  0  0  0  0
 48 53  1  0  0  0  0
 48 66  1  0  0  0  0
 49 53  1  0  0  0  0
 49 66  1  0  0  0  0
 50 71  1  0  0  0  0
 51 67  1  0  0  0  0
 52 65  1  0  0  0  0
 53 81  1  0  0  0  0
 55 62  1  0  0  0  0
 56 63  1  0  0  0  0
 57 63  1  0  0  0  0
 58 63  1  0  0  0  0
 59 74  1  0  0  0  0
 60 73  1  0  0  0  0
 61 63  1  0  0  0  0
 61 72  1  0  0  0  0
 62 74  1  0  0  0  0
 64 65  1  0  0  0  0
M  CHG  1  74   1
M  ISO  4  38 100  53 101  73 100  81 101
M  END
> <Batch ID>
0032

> <Smiles>
CNC(C)C(=O)NC(C(=O)N1Cc2cc([101O:1][101CH:1]3CN(c4ccc(Cl)c(C[100NH:0][100C:0](=O)N5CCCC(n6nc(-c7ccc(Oc8ccc(F)cc8F)cc7)c(C(N)=O)c6N)C5)c4C)C3)ccc2CC1C(=O)NC1CCCc2ccccc21)C(C)(C)C

> <Shape>
0.133

> <Color>
0.178

> <Negative vol penalty>
0.000

$$$$

  -OEChem-04042321423D

 86 95  0     1  0  0  0  0  0999 V2000
  -26.5728  -32.5179   22.6752 C   0  0  0  0  0  0  0  0  0  0  0  0
  -27.4511  -31.4765   22.9575 C   0  0  0  0  0  0  0  0  0  0  0  0
  -19.5489  -15.7253   20.2288 C   0  0  0  0  0  0  0  0  0  0  0  0
  -20.0063  -15.5412   22.5940 C   0  0  0  0  0  0  0  0  0  0  0  0
  -25.4354  -32.2795   21.9049 C   0  0  0  0  0  0  0  0  0  0  0  0
  -27.1918  -30.1959   22.4704 C   0  0  0  0  0  0  0  0  0  0  0  0
  -30.5632  -24.3234   20.1328 C   0  0  0  0  0  0  0  0  0  0  0  0
  -31.4848  -15.6793   20.3570 C   0  0  0  0  0  0  0  0  0  0  0  0
  -18.1936  -15.9056   20.5049 C   0  0  0  0  0  0  0  0  0  0  0  0
  -18.6510  -15.7215   22.8701 C   0  0  0  0  0  0  0  0  0  0  0  0
  -30.6069  -22.9473   20.3523 C   0  0  0  0  0  0  0  0  0  0  0  0
  -16.1756  -18.4102   21.5478 C   0  0  0  0  0  0  0  0  0  0  0  0
  -15.5047  -19.4254   20.8660 C   0  0  0  0  0  0  0  0  0  0  0  0
  -31.6502  -14.3511   19.9646 C   0  0  0  0  0  0  0  0  0  0  0  0
  -28.6524  -22.6702   18.9658 C   0  0  0  0  0  0  0  0  0  0  0  0
  -13.9932  -17.7932   19.9232 C   0  0  0  0  0  0  0  0  0  0  0  0
  -20.4552  -15.5430   21.2733 C   0  0  0  0  0  0  0  0  0  0  0  0
  -22.8406  -16.3552   20.8761 C   0  0  0  0  0  0  0  0  0  0  0  0
  -25.1671  -30.9974   21.4001 C   0  0  0  0  0  0  0  0  0  0  0  0
  -29.5556  -24.8854   19.3357 C   0  0  0  0  0  0  0  0  0  0  0  0
  -26.0490  -29.9399   21.6938 C   0  0  0  0  0  0  0  0  0  0  0  0
  -28.5996  -24.0535   18.7357 C   0  0  0  0  0  0  0  0  0  0  0  0
  -30.6582  -15.9898   21.4369 C   0  0  0  0  0  0  0  0  0  0  0  0
  -29.9971  -14.9720   22.1244 C   0  0  0  0  0  0  0  0  0  0  0  0
  -30.1625  -13.6437   21.7320 C   0  0  0  0  0  0  0  0  0  0  0  0
  -17.7446  -15.9037   21.8255 C   0  0  0  0  0  0  0  0  0  0  0  0
  -29.6497  -22.1208   19.7711 C   0  0  0  0  0  0  0  0  0  0  0  0
  -15.7555  -17.0865   21.4172 C   0  0  0  0  0  0  0  0  0  0  0  0
  -14.4134  -19.1169   20.0537 C   0  0  0  0  0  0  0  0  0  0  0  0
  -14.6643  -16.7780   20.6050 C   0  0  0  0  0  0  0  0  0  0  0  0
  -30.9890  -13.3333   20.6521 C   0  0  0  0  0  0  0  0  0  0  0  0
  -21.8553  -15.3561   20.9887 C   0  0  0  0  0  0  0  0  0  0  0  0
  -23.9970  -15.6675   20.5998 C   0  0  0  0  0  0  0  0  0  0  0  0
  -22.7214  -17.7778   21.0094 C   0  0  0  0  0  0  0  0  0  0  0  0
  -27.2040  -26.9663   19.8292 C   0  0  0  0  0  0  0  0  0  0  0  0
  -26.8130  -26.6923   16.6207 C   0  0  0  0  0  0  0  0  0  0  0  0
  -27.2525  -24.8260   13.7974 C   0  0  0  0  0  0  0  0  0  0  0  0
  -27.4635  -11.3971   21.5445 C   0  0  0  0  0  0  0  0  0  0  0  0
  -23.9002  -30.7781   20.6117 C   0  0  0  0  0  0  0  0  0  0  0  0
  -29.5381  -26.3687   19.0870 C   0  0  0  0  0  0  0  0  0  0  0  0
  -27.5093  -24.6049   17.8551 C   0  0  0  0  0  0  0  0  0  0  0  0
  -23.8938  -29.4731   19.8197 C   0  0  0  0  0  0  0  0  0  0  0  0
  -24.7253  -10.8223   19.3425 C   0  0  0  0  0  0  0  0  0  0  0  0
  -24.3732  -28.3171   20.6918 C   0  0  0  0  0  0  0  0  0  0  0  0
  -23.8135  -12.0293   19.5699 C   0  0  0  0  0  0  0  0  0  0  0  0
  -27.9871  -19.1035   19.7010 C   0  0  0  0  0  0  0  0  0  0  0  0
  -25.3989  -10.3721   20.6369 C   0  0  0  0  0  0  0  0  0  0  0  0
  -25.2162  -12.6399   21.5844 C   0  0  0  0  0  0  0  0  0  0  0  0
  -28.9171  -17.9326   19.9469 C   0  0  0  0  0  0  0  0  0  0  0  0
  -28.9716  -19.4488   21.8699 C   0  0  0  0  0  0  0  0  0  0  0  0
  -25.8151  -28.5423   21.1626 C   0  0  1  0  0  0  0  0  0  0  0  0
  -28.1643  -26.8895   18.6761 C   0  0  1  0  0  0  0  0  0  0  0  0
  -24.5578  -13.1652   20.2973 C   0  0  2  0  0  0  0  0  0  0  0  0
  -28.5510  -20.1844   20.6071 C   0  0  1  0  0  0  0  0  0  1  0  0
  -29.1115  -15.3091   23.2823 C   0  0  0  0  0  0  0  0  0  0  0  0
  -26.7952  -24.8486   11.3301 C   0  0  0  0  0  0  0  0  0  0  0  0
  -23.8832  -26.0328   17.1601 C   0  0  0  0  0  0  0  0  0  0  0  0
  -23.7229  -25.1533   14.8215 C   0  0  0  0  0  0  0  0  0  0  0  0
  -24.2686  -27.5555   15.2140 C   0  0  0  0  0  0  0  0  0  0  0  0
  -30.1363  -24.6993   13.1443 C   0  0  0  0  0  0  0  0  0  0  0  0
  -29.4464  -12.5610   22.4785 C   0  0  0  0  0  0  0  0  0  0  0  0
  -30.4998  -17.4267   21.8385 C   0  0  0  0  0  0  0  0  0  0  0  0
  -26.0089  -25.7913   15.7148 C   0  0  1  0  0  0  0  0  0  0  0  0
  -27.7942  -25.1864   12.4259 C   0  0  2  0  0  0  0  0  0  0  0  0
  -24.4902  -26.1227   15.7457 C   0  0  0  0  0  0  0  0  0  0  0  0
  -22.3430  -14.1272   20.7992 N   0  0  0  0  0  0  0  0  0  0  0  0
  -23.6475  -14.3496   20.5647 N   0  0  0  0  0  0  0  0  0  0  0  0
  -27.5308  -26.0623   17.6472 N   0  0  0  0  0  0  0  0  0  0  0  0
  -26.0882  -11.4956   21.2763 N   0  0  0  0  0  0  0  0  0  0  0  0
  -25.2684  -16.0675   20.3858 N   0  0  0  0  0  0  0  0  0  0  0  0
  -21.4603  -18.3187   21.2947 N   0  0  0  0  0  0  0  0  0  0  0  0
  -26.7474  -28.2427   20.0970 N   0  0  0  0  0  0  0  0  0  0  0  0
  -26.6163  -25.8949   14.3924 N   0  0  0  0  0  0  0  0  0  0  0  0
  -28.0401  -12.5089   22.1463 N   0  0  0  0  0  0  0  0  0  0  0  0
  -29.1832  -18.0066   21.4324 N   0  3  2  0  0  0  0  0  0  0  0  0
  -29.0572  -24.4428   12.1560 N   0  3  0  0  0  0  0  0  0  0  0  0
  -23.7008  -18.5477   20.8632 O   0  0  0  0  0  0  0  0  0  0  0  0
  -26.8987  -25.9431   20.4304 O   0  0  0  0  0  0  0  0  0  0  0  0
  -26.8103  -27.9094   16.4204 O   0  0  0  0  0  0  0  0  0  0  0  0
  -27.3776  -23.7070   14.2901 O   0  0  0  0  0  0  0  0  0  0  0  0
  -28.1293  -10.3948   21.2634 O   0  0  0  0  0  0  0  0  0  0  0  0
  -16.4222  -16.0799   22.0954 O   0  0  0  0  0  0  0  0  0  0  0  0
  -29.6897  -20.7773   19.9842 O   0  0  0  0  0  0  0  0  0  1  0  0
  -13.7682  -20.0920   19.4003 F   0  0  0  0  0  0  0  0  0  0  0  0
  -14.2553  -15.5084   20.4766 F   0  0  0  0  0  0  0  0  0  0  0  0
  -31.2201  -11.7023   20.1352 Cl  0  0  0  0  0  0  0  0  0  0  0  0
  1  2  1  0  0  0  0
  1  5  2  0  0  0  0
  2  6  2  0  0  0  0
  3  9  2  0  0  0  0
  3 17  1  0  0  0  0
  4 10  1  0  0  0  0
  4 17  2  0  0  0  0
  5 19  1  0  0  0  0
  6 21  1  0  0  0  0
  7 11  2  0  0  0  0
  7 20  1  0  0  0  0
  8 14  2  0  0  0  0
  8 23  1  0  0  0  0
  9 26  1  0  0  0  0
 10 26  2  0  0  0  0
 11 27  1  0  0  0  0
 12 13  2  0  0  0  0
 12 28  1  0  0  0  0
 13 29  1  0  0  0  0
 14 31  1  0  0  0  0
 15 22  1  0  0  0  0
 15 27  2  0  0  0  0
 16 29  2  0  0  0  0
 16 30  1  0  0  0  0
 17 32  1  0  0  0  0
 18 32  1  0  0  0  0
 18 33  2  0  0  0  0
 18 34  1  0  0  0  0
 19 21  2  0  0  0  0
 19 39  1  0  0  0  0
 20 22  2  0  0  0  0
 20 40  1  0  0  0  0
 21 51  1  0  0  0  0
 22 41  1  0  0  0  0
 23 24  2  0  0  0  0
 23 62  1  0  0  0  0
 24 25  1  0  0  0  0
 24 55  1  0  0  0  0
 25 31  2  0  0  0  0
 25 61  1  0  0  0  0
 26 82  1  0  0  0  0
 27 83  1  0  0  0  0
 28 30  2  0  0  0  0
 28 82  1  0  0  0  0
 29 84  1  0  0  0  0
 30 85  1  0  0  0  0
 31 86  1  0  0  0  0
 32 66  2  0  0  0  0
 33 67  1  0  0  0  0
 33 70  1  0  0  0  0
 34 71  1  0  0  0  0
 34 77  2  0  0  0  0
 35 52  1  0  0  0  0
 35 72  1  0  0  0  0
 35 78  2  0  0  0  0
 36 63  1  0  0  0  0
 36 68  1  0  0  0  0
 36 79  2  0  0  0  0
 37 64  1  0  0  0  0
 37 73  1  0  0  0  0
 37 80  2  0  0  0  0
 38 69  1  0  0  0  0
 38 74  1  0  0  0  0
 38 81  2  0  0  0  0
 39 42  1  0  0  0  0
 40 52  1  0  0  0  0
 41 68  1  0  0  0  0
 42 44  1  0  0  0  0
 43 45  1  0  0  0  0
 43 47  1  0  0  0  0
 44 51  1  0  0  0  0
 45 53  1  0  0  0  0
 46 49  1  0  0  0  0
 46 54  1  0  0  0  0
 47 69  1  0  0  0  0
 48 53  1  0  0  0  0
 48 69  1  0  0  0  0
 49 75  1  0  0  0  0
 50 54  1  0  0  0  0
 50 75  1  0  0  0  0
 51 72  1  0  0  0  0
 52 68  1  0  0  0  0
 53 67  1  0  0  0  0
 54 83  1  0  0  0  0
 56 64  1  0  0  0  0
 57 65  1  0  0  0  0
 58 65  1  0  0  0  0
 59 65  1  0  0  0  0
 60 76  1  0  0  0  0
 61 74  1  0  0  0  0
 62 75  1  0  0  0  0
 63 65  1  0  0  0  0
 63 73  1  0  0  0  0
 64 76  1  0  0  0  0
 66 67  1  0  0  0  0
M  CHG  2  75   1  76   1
M  ISO  4  38 100  54 101  74 100  83 101
M  END
> <Batch ID>
0032

> <Smiles>
CNC(C)C(=O)NC(C(=O)N1Cc2cc([101O:1][101CH:1]3CCN(Cc4ccc(Cl)c(C[100NH:0][100C:0](=O)N5CCCC(n6nc(-c7ccc(Oc8ccc(F)cc8F)cc7)c(C(N)=O)c6N)C5)c4C)C3)ccc2CC1C(=O)NC1CCCc2ccccc21)C(C)(C)C

> <Shape>
0.227

> <Color>
0.071

> <Negative vol penalty>
0.000

$$$$

  -OEChem-04042321423D

 89 98  0     1  0  0  0  0  0999 V2000
  -25.6890  -38.4913   21.0941 C   0  0  0  0  0  0  0  0  0  0  0  0
  -26.4067  -37.5126   20.4140 C   0  0  0  0  0  0  0  0  0  0  0  0
  -25.6228  -11.2895   17.4017 C   0  0  0  0  0  0  0  0  0  0  0  0
  -26.7672   -9.9812   19.0797 C   0  0  0  0  0  0  0  0  0  0  0  0
  -25.0424  -38.1764   22.2886 C   0  0  0  0  0  0  0  0  0  0  0  0
  -26.4790  -36.2186   20.9286 C   0  0  0  0  0  0  0  0  0  0  0  0
  -26.8870  -29.3856   18.8166 C   0  0  0  0  0  0  0  0  0  0  0  0
  -26.2031  -10.5121   16.3996 C   0  0  0  0  0  0  0  0  0  0  0  0
  -27.3476   -9.2036   18.0775 C   0  0  0  0  0  0  0  0  0  0  0  0
  -27.6536  -28.2391   19.0208 C   0  0  0  0  0  0  0  0  0  0  0  0
  -25.7114   -7.4699   15.0080 C   0  0  0  0  0  0  0  0  0  0  0  0
  -24.8891   -7.0302   13.9707 C   0  0  0  0  0  0  0  0  0  0  0  0
  -26.4309  -27.7904   21.0513 C   0  0  0  0  0  0  0  0  0  0  0  0
  -26.7500  -20.6952   20.2561 C   0  0  0  0  0  0  0  0  0  0  0  0
  -26.7252  -20.3734   23.0272 C   0  0  0  0  0  0  0  0  0  0  0  0
  -26.2758   -8.2003   12.3754 C   0  0  0  0  0  0  0  0  0  0  0  0
  -25.9049  -11.0241   18.7418 C   0  0  0  0  0  0  0  0  0  0  0  0
  -24.0816  -11.5954   20.4321 C   0  0  0  0  0  0  0  0  0  0  0  0
  -25.0989  -36.8755   22.8130 C   0  0  0  0  0  0  0  0  0  0  0  0
  -25.8922  -29.7497   19.7355 C   0  0  0  0  0  0  0  0  0  0  0  0
  -25.8337  -35.8863   22.1318 C   0  0  0  0  0  0  0  0  0  0  0  0
  -25.6513  -28.9406   20.8551 C   0  0  0  0  0  0  0  0  0  0  0  0
  -27.8066  -21.1839   21.0245 C   0  0  0  0  0  0  0  0  0  0  0  0
  -25.6809  -20.0457   20.8733 C   0  0  0  0  0  0  0  0  0  0  0  0
  -27.7943  -21.0230   22.4099 C   0  0  0  0  0  0  0  0  0  0  0  0
  -25.6685  -19.8848   22.2588 C   0  0  0  0  0  0  0  0  0  0  0  0
  -27.0655   -9.4691   16.7375 C   0  0  0  0  0  0  0  0  0  0  0  0
  -27.4276  -27.4429   20.1397 C   0  0  0  0  0  0  0  0  0  0  0  0
  -26.8159   -8.2749   14.7290 C   0  0  0  0  0  0  0  0  0  0  0  0
  -25.1713   -7.3953   12.6544 C   0  0  0  0  0  0  0  0  0  0  0  0
  -27.0981   -8.6400   13.4127 C   0  0  0  0  0  0  0  0  0  0  0  0
  -25.3061  -11.8273   19.7774 C   0  0  0  0  0  0  0  0  0  0  0  0
  -23.9661  -12.6347   21.3225 C   0  0  0  0  0  0  0  0  0  0  0  0
  -29.9885  -24.0276   19.8201 C   0  0  0  0  0  0  0  0  0  0  0  0
  -31.2574  -23.8745   20.2169 C   0  0  0  0  0  0  0  0  0  0  0  0
  -23.1334  -10.5352   20.2515 C   0  0  0  0  0  0  0  0  0  0  0  0
  -25.3992  -32.2509   21.6341 C   0  0  0  0  0  0  0  0  0  0  0  0
  -22.5740  -30.7643   22.2089 C   0  0  0  0  0  0  0  0  0  0  0  0
  -20.7846  -27.8585   22.2488 C   0  0  0  0  0  0  0  0  0  0  0  0
  -24.2441  -17.8758   22.6140 C   0  0  0  0  0  0  0  0  0  0  0  0
  -24.4231  -36.5944   24.1318 C   0  0  0  0  0  0  0  0  0  0  0  0
  -25.0560  -30.9749   19.4870 C   0  0  0  0  0  0  0  0  0  0  0  0
  -24.5817  -29.2766   21.8609 C   0  0  0  0  0  0  0  0  0  0  0  0
  -29.5105  -25.0136   18.8004 C   0  0  0  0  0  0  0  0  0  0  0  0
  -24.2372  -35.1062   24.4159 C   0  0  0  0  0  0  0  0  0  0  0  0
  -27.3232  -16.1071   22.7979 C   0  0  0  0  0  0  0  0  0  0  0  0
  -25.5243  -34.3418   24.1229 C   0  0  0  0  0  0  0  0  0  0  0  0
  -26.9730  -14.8114   22.0670 C   0  0  0  0  0  0  0  0  0  0  0  0
  -26.6850  -17.3285   22.1355 C   0  0  0  0  0  0  0  0  0  0  0  0
  -24.8693  -15.9187   21.2190 C   0  0  0  0  0  0  0  0  0  0  0  0
  -27.6504  -24.0083   19.9538 C   0  0  0  0  0  0  0  0  0  0  0  0
  -25.9149  -34.4651   22.6452 C   0  0  1  0  0  0  0  0  0  0  0  0
  -24.4163  -31.5293   20.7562 C   0  0  1  0  0  0  0  0  0  0  0  0
  -25.4504  -14.6679   21.8964 C   0  0  1  0  0  0  0  0  0  0  0  0
  -28.1200  -25.3176   19.3358 C   0  0  1  0  0  0  0  0  0  1  0  0
  -24.5626  -19.5322   20.0256 C   0  0  0  0  0  0  0  0  0  0  0  0
  -28.9143  -21.5381   23.2530 C   0  0  0  0  0  0  0  0  0  0  0  0
  -18.5103  -26.9531   22.8010 C   0  0  0  0  0  0  0  0  0  0  0  0
  -22.4846  -20.1664   23.8015 C   0  0  0  0  0  0  0  0  0  0  0  0
  -24.1107  -18.9906   25.3171 C   0  0  0  0  0  0  0  0  0  0  0  0
  -23.2262  -30.9470   25.1840 C   0  0  0  0  0  0  0  0  0  0  0  0
  -21.4508  -29.2334   25.6073 C   0  0  0  0  0  0  0  0  0  0  0  0
  -20.8425  -31.4359   24.6066 C   0  0  0  0  0  0  0  0  0  0  0  0
  -20.3497  -26.9361   19.4705 C   0  0  0  0  0  0  0  0  0  0  0  0
  -28.9454  -21.8794   20.3385 C   0  0  0  0  0  0  0  0  0  0  0  0
  -22.0884  -29.7398   23.2056 C   0  0  1  0  0  0  0  0  0  0  0  0
  -19.4074  -27.5162   21.7097 C   0  0  2  0  0  0  0  0  0  0  0  0
  -23.9517  -19.8623   24.0781 C   0  0  0  0  0  0  0  0  0  0  0  0
  -21.9235  -30.3335   24.6331 C   0  0  0  0  0  0  0  0  0  0  0  0
  -25.9243  -12.9277   20.2146 N   0  0  0  0  0  0  0  0  0  0  0  0
  -25.0847  -13.3965   21.1534 N   0  0  0  0  0  0  0  0  0  0  0  0
  -23.7948  -30.4881   21.5771 N   0  0  0  0  0  0  0  0  0  0  0  0
  -25.2399  -17.1288   21.9568 N   0  0  0  0  0  0  0  0  0  0  0  0
  -23.0178  -12.9623   22.2257 N   0  0  0  0  0  0  0  0  0  0  0  0
  -23.4080   -9.5491   19.2942 N   0  0  0  0  0  0  0  0  0  0  0  0
  -25.1020  -33.5857   21.8325 N   0  0  0  0  0  0  0  0  0  0  0  0
  -20.8639  -29.1760   22.6478 N   0  0  0  0  0  0  0  0  0  0  0  0
  -24.5711  -19.2151   22.9165 N   0  0  0  0  0  0  0  0  0  0  0  0
  -28.9170  -23.3678   20.5157 N   0  3  1  0  0  0  0  0  0  0  0  0
  -19.5142  -26.5046   20.6205 N   0  3  0  0  0  0  0  0  0  0  0  0
  -22.0662  -10.4735   20.9077 O   0  0  0  0  0  0  0  0  0  0  0  0
  -26.3556  -31.6414   22.0983 O   0  0  0  0  0  0  0  0  0  0  0  0
  -21.8916  -31.7691   21.9933 O   0  0  0  0  0  0  0  0  0  0  0  0
  -21.6976  -27.0382   22.3131 O   0  0  0  0  0  0  0  0  0  0  0  0
  -23.1387  -17.3919   22.8860 O   0  0  0  0  0  0  0  0  0  0  0  0
  -27.6318   -8.7100   15.7599 O   0  0  0  0  0  0  0  0  0  0  0  0
  -28.1748  -26.3237   20.3417 O   0  0  0  0  0  0  0  0  0  1  0  0
  -24.3824   -6.9717   11.6582 F   0  0  0  0  0  0  0  0  0  0  0  0
  -28.1585   -9.4122   13.1384 F   0  0  0  0  0  0  0  0  0  0  0  0
  1  2  1  0  0  0  0
  1  5  2  0  0  0  0
  2  6  2  0  0  0  0
  3  8  2  0  0  0  0
  3 17  1  0  0  0  0
  4  9  1  0  0  0  0
  4 17  2  0  0  0  0
  5 19  1  0  0  0  0
  6 21  1  0  0  0  0
  7 10  2  0  0  0  0
  7 20  1  0  0  0  0
  8 27  1  0  0  0  0
  9 27  2  0  0  0  0
 10 28  1  0  0  0  0
 11 12  2  0  0  0  0
 11 29  1  0  0  0  0
 12 30  1  0  0  0  0
 13 22  1  0  0  0  0
 13 28  2  0  0  0  0
 14 23  1  0  0  0  0
 14 24  2  0  0  0  0
 15 25  1  0  0  0  0
 15 26  2  0  0  0  0
 16 30  2  0  0  0  0
 16 31  1  0  0  0  0
 17 32  1  0  0  0  0
 18 32  1  0  0  0  0
 18 33  2  0  0  0  0
 18 36  1  0  0  0  0
 19 21  2  0  0  0  0
 19 41  1  0  0  0  0
 20 22  2  0  0  0  0
 20 42  1  0  0  0  0
 21 52  1  0  0  0  0
 22 43  1  0  0  0  0
 23 25  2  0  0  0  0
 23 65  1  0  0  0  0
 24 26  1  0  0  0  0
 24 56  1  0  0  0  0
 25 57  1  0  0  0  0
 26 78  1  0  0  0  0
 27 86  1  0  0  0  0
 28 87  1  0  0  0  0
 29 31  2  0  0  0  0
 29 86  1  0  0  0  0
 30 88  1  0  0  0  0
 31 89  1  0  0  0  0
 32 70  2  0  0  0  0
 33 71  1  0  0  0  0
 33 74  1  0  0  0  0
 34 35  2  0  0  0  0
 34 44  1  0  0  0  0
 34 79  1  0  0  0  0
 36 75  1  0  0  0  0
 36 81  2  0  0  0  0
 37 53  1  0  0  0  0
 37 76  1  0  0  0  0
 37 82  2  0  0  0  0
 38 66  1  0  0  0  0
 38 72  1  0  0  0  0
 38 83  2  0  0  0  0
 39 67  1  0  0  0  0
 39 77  1  0  0  0  0
 39 84  2  0  0  0  0
 40 73  1  0  0  0  0
 40 78  1  0  0  0  0
 40 85  2  0  0  0  0
 41 45  1  0  0  0  0
 42 53  1  0  0  0  0
 43 72  1  0  0  0  0
 44 55  1  0  0  0  0
 45 47  1  0  0  0  0
 46 48  1  0  0  0  0
 46 49  1  0  0  0  0
 47 52  1  0  0  0  0
 48 54  1  0  0  0  0
 49 73  1  0  0  0  0
 50 54  1  0  0  0  0
 50 73  1  0  0  0  0
 51 55  1  0  0  0  0
 51 79  1  0  0  0  0
 52 76  1  0  0  0  0
 53 72  1  0  0  0  0
 54 71  1  0  0  0  0
 55 87  1  0  0  0  0
 58 67  1  0  0  0  0
 59 68  1  0  0  0  0
 60 68  1  0  0  0  0
 61 69  1  0  0  0  0
 62 69  1  0  0  0  0
 63 69  1  0  0  0  0
 64 80  1  0  0  0  0
 65 79  1  0  0  0  0
 66 69  1  0  0  0  0
 66 77  1  0  0  0  0
 67 80  1  0  0  0  0
 68 78  1  0  0  0  0
 70 71  1  0  0  0  0
M  CHG  2  79   1  80   1
M  ISO  4  40 100  55 101  78 100  87 101
M  END
> <Batch ID>
0032

> <Smiles>
C=C1C[101CH:1]([101O:1]c2ccc3c(c2)CN(C(=O)C(NC(=O)C(C)NC)C(C)(C)C)C(C(=O)NC2CCCc4ccccc42)C3)CN1Cc1cc(C)c([100N:0](C(C)C)[100C:0](=O)N2CCCC(n3nc(-c4ccc(Oc5ccc(F)cc5F)cc4)c(C(N)=O)c3N)C2)cc1C

> <Shape>
0.246

> <Color>
0.081

> <Negative vol penalty>
0.000

$$$$

  -OEChem-04042321423D

 86 95  0     1  0  0  0  0  0999 V2000
  -17.7579  -26.4487   22.4135 C   0  0  0  0  0  0  0  0  0  0  0  0
  -18.8922  -25.7959   21.9417 C   0  0  0  0  0  0  0  0  0  0  0  0
  -22.8087  -11.7594   22.1851 C   0  0  0  0  0  0  0  0  0  0  0  0
  -22.5262  -13.6675   20.7303 C   0  0  0  0  0  0  0  0  0  0  0  0
  -17.8620  -27.7395   22.9301 C   0  0  0  0  0  0  0  0  0  0  0  0
  -20.1313  -26.4341   21.9852 C   0  0  0  0  0  0  0  0  0  0  0  0
  -25.5830  -23.8261   22.9769 C   0  0  0  0  0  0  0  0  0  0  0  0
  -21.6710  -12.1353   22.8991 C   0  0  0  0  0  0  0  0  0  0  0  0
  -21.3884  -14.0434   21.4443 C   0  0  0  0  0  0  0  0  0  0  0  0
  -26.5976  -23.4161   22.1131 C   0  0  0  0  0  0  0  0  0  0  0  0
  -18.1400  -13.1268   21.6131 C   0  0  0  0  0  0  0  0  0  0  0  0
  -17.0150  -13.5088   20.8823 C   0  0  0  0  0  0  0  0  0  0  0  0
  -27.7388  -25.5115   22.4687 C   0  0  0  0  0  0  0  0  0  0  0  0
  -29.1445  -19.1992   17.5868 C   0  0  0  0  0  0  0  0  0  0  0  0
  -30.9103  -17.8163   19.2458 C   0  0  0  0  0  0  0  0  0  0  0  0
  -17.0761  -15.6866   21.9267 C   0  0  0  0  0  0  0  0  0  0  0  0
  -23.2364  -12.5256   21.1007 C   0  0  0  0  0  0  0  0  0  0  0  0
  -24.4702  -11.2909   19.2404 C   0  0  0  0  0  0  0  0  0  0  0  0
  -19.1045  -28.3902   22.9888 C   0  0  0  0  0  0  0  0  0  0  0  0
  -25.6332  -25.0884   23.5856 C   0  0  0  0  0  0  0  0  0  0  0  0
  -20.2519  -27.7354   22.5018 C   0  0  0  0  0  0  0  0  0  0  0  0
  -26.7248  -25.9341   23.3418 C   0  0  0  0  0  0  0  0  0  0  0  0
  -30.2581  -19.8505   18.1172 C   0  0  0  0  0  0  0  0  0  0  0  0
  -28.9138  -17.8565   17.8859 C   0  0  0  0  0  0  0  0  0  0  0  0
  -31.1409  -19.1591   18.9467 C   0  0  0  0  0  0  0  0  0  0  0  0
  -29.7967  -17.1650   18.7154 C   0  0  0  0  0  0  0  0  0  0  0  0
  -20.9608  -13.2773   22.5287 C   0  0  0  0  0  0  0  0  0  0  0  0
  -27.6743  -24.2599   21.8566 C   0  0  0  0  0  0  0  0  0  0  0  0
  -18.7330  -14.0247   22.5008 C   0  0  0  0  0  0  0  0  0  0  0  0
  -16.4831  -14.7887   21.0391 C   0  0  0  0  0  0  0  0  0  0  0  0
  -18.2011  -15.3046   22.6575 C   0  0  0  0  0  0  0  0  0  0  0  0
  -24.4120  -12.1381   20.3631 C   0  0  0  0  0  0  0  0  0  0  0  0
  -25.8039  -11.2421   18.9159 C   0  0  0  0  0  0  0  0  0  0  0  0
  -30.3352  -23.6040   18.5681 C   0  0  0  0  0  0  0  0  0  0  0  0
  -31.5595  -24.0992   18.3513 C   0  0  0  0  0  0  0  0  0  0  0  0
  -23.4132  -10.6091   18.5521 C   0  0  0  0  0  0  0  0  0  0  0  0
  -23.8054  -27.6880   23.5133 C   0  0  0  0  0  0  0  0  0  0  0  0
  -25.8436  -28.7104   25.8204 C   0  0  0  0  0  0  0  0  0  0  0  0
  -28.9264  -28.4909   27.2678 C   0  0  0  0  0  0  0  0  0  0  0  0
  -30.3696  -14.9846   19.8397 C   0  0  0  0  0  0  0  0  0  0  0  0
  -19.1598  -29.8035   23.5123 C   0  0  0  0  0  0  0  0  0  0  0  0
  -24.5441  -25.5051   24.5357 C   0  0  0  0  0  0  0  0  0  0  0  0
  -26.8362  -27.2910   23.9860 C   0  0  0  0  0  0  0  0  0  0  0  0
  -29.0807  -24.4116   18.6892 C   0  0  0  0  0  0  0  0  0  0  0  0
  -20.5702  -30.2666   23.8680 C   0  0  0  0  0  0  0  0  0  0  0  0
  -30.1533  -11.5895   20.8900 C   0  0  0  0  0  0  0  0  0  0  0  0
  -21.5479  -29.9039   22.7547 C   0  0  0  0  0  0  0  0  0  0  0  0
  -28.6626  -11.2659   20.7661 C   0  0  0  0  0  0  0  0  0  0  0  0
  -30.3850  -13.0228   21.3648 C   0  0  0  0  0  0  0  0  0  0  0  0
  -28.2086  -13.7324   20.4542 C   0  0  0  0  0  0  0  0  0  0  0  0
  -28.6928  -22.1275   19.3475 C   0  0  0  0  0  0  0  0  0  0  0  0
  -21.6176  -28.3851   22.5549 C   0  0  1  0  0  0  0  0  0  0  0  0
  -24.4404  -27.0183   24.6991 C   0  0  1  0  0  0  0  0  0  0  0  0
  -27.9258  -12.3201   19.9167 C   0  0  2  0  0  0  0  0  0  0  0  0
  -28.2937  -23.5598   19.6729 C   0  0  1  0  0  0  0  0  0  1  0  0
  -27.7130  -17.1840   17.3037 C   0  0  0  0  0  0  0  0  0  0  0  0
  -32.3396  -19.8357   19.5263 C   0  0  0  0  0  0  0  0  0  0  0  0
  -30.3117  -29.4797   29.1119 C   0  0  0  0  0  0  0  0  0  0  0  0
  -26.3017  -31.2106   24.1324 C   0  0  0  0  0  0  0  0  0  0  0  0
  -28.3413  -31.6799   25.5066 C   0  0  0  0  0  0  0  0  0  0  0  0
  -26.0941  -31.6337   26.5885 C   0  0  0  0  0  0  0  0  0  0  0  0
  -29.1859  -25.8772   28.6316 C   0  0  0  0  0  0  0  0  0  0  0  0
  -30.4854  -21.2951   17.7818 C   0  0  0  0  0  0  0  0  0  0  0  0
  -27.1513  -29.4646   25.8341 C   0  0  1  0  0  0  0  0  0  0  0  0
  -29.3509  -28.3679   28.7201 C   0  0  2  0  0  0  0  0  0  0  0  0
  -26.9693  -30.9725   25.5016 C   0  0  0  0  0  0  0  0  0  0  0  0
  -25.6132  -12.5945   20.7276 N   0  0  0  0  0  0  0  0  0  0  0  0
  -26.4388  -12.0319   19.8287 N   0  0  0  0  0  0  0  0  0  0  0  0
  -25.7431  -27.6555   24.9024 N   0  0  0  0  0  0  0  0  0  0  0  0
  -29.6601  -13.9662   20.5107 N   0  0  0  0  0  0  0  0  0  0  0  0
  -26.4839  -10.6009   17.9417 N   0  0  0  0  0  0  0  0  0  0  0  0
  -22.1009  -10.7688   19.0176 N   0  0  0  0  0  0  0  0  0  0  0  0
  -29.5796  -15.8008   19.0307 N   0  0  0  0  0  0  0  0  0  0  0  0
  -22.4284  -27.7762   23.5876 N   0  0  0  0  0  0  0  0  0  0  0  0
  -27.7564  -29.2087   27.1367 N   0  0  0  0  0  0  0  0  0  0  0  0
  -30.1535  -22.2203   18.9139 N   0  3  1  0  0  0  0  0  0  0  0  0
  -30.0255  -27.0597   28.9535 N   0  3  0  0  0  0  0  0  0  0  0  0
  -23.6281   -9.8669   17.5640 O   0  0  0  0  0  0  0  0  0  0  0  0
  -24.5126  -28.0958   22.5993 O   0  0  0  0  0  0  0  0  0  0  0  0
  -24.9469  -29.0405   26.6007 O   0  0  0  0  0  0  0  0  0  0  0  0
  -29.5704  -28.0025   26.3419 O   0  0  0  0  0  0  0  0  0  0  0  0
  -31.5922  -15.1057   19.9515 O   0  0  0  0  0  0  0  0  0  0  0  0
  -19.8503  -13.6442   23.2250 O   0  0  0  0  0  0  0  0  0  0  0  0
  -28.6657  -23.8625   21.0134 O   0  0  0  0  0  0  0  0  0  1  0  0
  -15.4037  -15.1559   20.3361 F   0  0  0  0  0  0  0  0  0  0  0  0
  -18.7671  -16.1719   23.5079 F   0  0  0  0  0  0  0  0  0  0  0  0
  1  2  1  0  0  0  0
  1  5  2  0  0  0  0
  2  6  2  0  0  0  0
  3  8  2  0  0  0  0
  3 17  1  0  0  0  0
  4  9  1  0  0  0  0
  4 17  2  0  0  0  0
  5 19  1  0  0  0  0
  6 21  1  0  0  0  0
  7 10  2  0  0  0  0
  7 20  1  0  0  0  0
  8 27  1  0  0  0  0
  9 27  2  0  0  0  0
 10 28  1  0  0  0  0
 11 12  2  0  0  0  0
 11 29  1  0  0  0  0
 12 30  1  0  0  0  0
 13 22  1  0  0  0  0
 13 28  2  0  0  0  0
 14 23  1  0  0  0  0
 14 24  2  0  0  0  0
 15 25  1  0  0  0  0
 15 26  2  0  0  0  0
 16 30  2  0  0  0  0
 16 31  1  0  0  0  0
 17 32  1  0  0  0  0
 18 32  1  0  0  0  0
 18 33  2  0  0  0  0
 18 36  1  0  0  0  0
 19 21  2  0  0  0  0
 19 41  1  0  0  0  0
 20 22  2  0  0  0  0
 20 42  1  0  0  0  0
 21 52  1  0  0  0  0
 22 43  1  0  0  0  0
 23 25  2  0  0  0  0
 23 63  1  0  0  0  0
 24 26  1  0  0  0  0
 24 56  1  0  0  0  0
 25 57  1  0  0  0  0
 26 73  1  0  0  0  0
 27 83  1  0  0  0  0
 28 84  1  0  0  0  0
 29 31  2  0  0  0  0
 29 83  1  0  0  0  0
 30 85  1  0  0  0  0
 31 86  1  0  0  0  0
 32 67  2  0  0  0  0
 33 68  1  0  0  0  0
 33 71  1  0  0  0  0
 34 35  2  0  0  0  0
 34 44  1  0  0  0  0
 34 76  1  0  0  0  0
 36 72  1  0  0  0  0
 36 78  2  0  0  0  0
 37 53  1  0  0  0  0
 37 74  1  0  0  0  0
 37 79  2  0  0  0  0
 38 64  1  0  0  0  0
 38 69  1  0  0  0  0
 38 80  2  0  0  0  0
 39 65  1  0  0  0  0
 39 75  1  0  0  0  0
 39 81  2  0  0  0  0
 40 70  1  0  0  0  0
 40 73  1  0  0  0  0
 40 82  2  0  0  0  0
 41 45  1  0  0  0  0
 42 53  1  0  0  0  0
 43 69  1  0  0  0  0
 44 55  1  0  0  0  0
 45 47  1  0  0  0  0
 46 48  1  0  0  0  0
 46 49  1  0  0  0  0
 47 52  1  0  0  0  0
 48 54  1  0  0  0  0
 49 70  1  0  0  0  0
 50 54  1  0  0  0  0
 50 70  1  0  0  0  0
 51 55  1  0  0  0  0
 51 76  1  0  0  0  0
 52 74  1  0  0  0  0
 53 69  1  0  0  0  0
 54 68  1  0  0  0  0
 55 84  1  0  0  0  0
 58 65  1  0  0  0  0
 59 66  1  0  0  0  0
 60 66  1  0  0  0  0
 61 66  1  0  0  0  0
 62 77  1  0  0  0  0
 63 76  1  0  0  0  0
 64 66  1  0  0  0  0
 64 75  1  0  0  0  0
 65 77  1  0  0  0  0
 67 68  1  0  0  0  0
M  CHG  2  76   1  77   1
M  ISO  4  40 100  55 101  73 100  84 101
M  END
> <Batch ID>
0032

> <Smiles>
C=C1C[101CH:1]([101O:1]c2ccc3c(c2)CN(C(=O)C(NC(=O)C(C)NC)C(C)(C)C)C(C(=O)NC2CCCc4ccccc42)C3)CN1Cc1cc(C)c([100NH:0][100C:0](=O)N2CCCC(n3nc(-c4ccc(Oc5ccc(F)cc5F)cc4)c(C(N)=O)c3N)C2)cc1C

> <Shape>
0.245

> <Color>
0.065

> <Negative vol penalty>
0.000

$$$$

  -OEChem-04042321423D

 86 95  0     1  0  0  0  0  0999 V2000
  -16.8694  -18.6071   26.0738 C   0  0  0  0  0  0  0  0  0  0  0  0
  -17.0170  -19.9728   26.2945 C   0  0  0  0  0  0  0  0  0  0  0  0
  -29.0566  -17.5196   19.4268 C   0  0  0  0  0  0  0  0  0  0  0  0
  -30.6686  -18.0069   21.1592 C   0  0  0  0  0  0  0  0  0  0  0  0
  -17.8474  -17.9063   25.3694 C   0  0  0  0  0  0  0  0  0  0  0  0
  -18.1434  -20.6381   25.8117 C   0  0  0  0  0  0  0  0  0  0  0  0
  -20.1900  -26.9977   23.2265 C   0  0  0  0  0  0  0  0  0  0  0  0
  -29.5879  -16.2369   19.2931 C   0  0  0  0  0  0  0  0  0  0  0  0
  -31.2000  -16.7241   21.0255 C   0  0  0  0  0  0  0  0  0  0  0  0
  -21.1548  -27.9833   23.4303 C   0  0  0  0  0  0  0  0  0  0  0  0
  -29.4007  -13.2807   20.9236 C   0  0  0  0  0  0  0  0  0  0  0  0
  -28.5060  -12.2139   20.8404 C   0  0  0  0  0  0  0  0  0  0  0  0
  -22.7410  -26.6851   22.1583 C   0  0  0  0  0  0  0  0  0  0  0  0
  -30.0914  -29.1956   21.8631 C   0  0  0  0  0  0  0  0  0  0  0  0
  -28.3992  -28.2827   23.8845 C   0  0  0  0  0  0  0  0  0  0  0  0
  -29.3900  -11.6422   18.6658 C   0  0  0  0  0  0  0  0  0  0  0  0
  -29.5970  -18.4047   20.3598 C   0  0  0  0  0  0  0  0  0  0  0  0
  -28.0070  -20.1341   21.3542 C   0  0  0  0  0  0  0  0  0  0  0  0
  -18.9816  -18.5652   24.8694 C   0  0  0  0  0  0  0  0  0  0  0  0
  -20.4972  -25.8414   22.4950 C   0  0  0  0  0  0  0  0  0  0  0  0
  -19.1381  -19.9452   25.1011 C   0  0  0  0  0  0  0  0  0  0  0  0
  -21.7776  -25.6875   21.9444 C   0  0  0  0  0  0  0  0  0  0  0  0
  -28.9842  -29.9548   22.2416 C   0  0  0  0  0  0  0  0  0  0  0  0
  -30.3525  -27.9799   22.4953 C   0  0  0  0  0  0  0  0  0  0  0  0
  -28.1381  -29.4984   23.2523 C   0  0  0  0  0  0  0  0  0  0  0  0
  -30.6596  -15.8391   20.0924 C   0  0  0  0  0  0  0  0  0  0  0  0
  -22.4314  -27.8258   22.8986 C   0  0  0  0  0  0  0  0  0  0  0  0
  -30.2900  -13.5284   19.8779 C   0  0  0  0  0  0  0  0  0  0  0  0
  -28.5006  -11.3946   19.7115 C   0  0  0  0  0  0  0  0  0  0  0  0
  -30.2847  -12.7091   18.7490 C   0  0  0  0  0  0  0  0  0  0  0  0
  -29.5065  -27.5235   23.5060 C   0  0  0  0  0  0  0  0  0  0  0  0
  -29.0489  -19.7300   20.4981 C   0  0  0  0  0  0  0  0  0  0  0  0
  -27.8640  -21.4782   21.1105 C   0  0  0  0  0  0  0  0  0  0  0  0
  -27.2374  -19.3634   22.2866 C   0  0  0  0  0  0  0  0  0  0  0  0
  -20.5752  -22.7308   23.1447 C   0  0  0  0  0  0  0  0  0  0  0  0
  -21.1499  -22.4774   19.9622 C   0  0  0  0  0  0  0  0  0  0  0  0
  -22.3026  -23.9373   17.1010 C   0  0  0  0  0  0  0  0  0  0  0  0
  -31.0376  -26.1572   19.8656 C   0  0  0  0  0  0  0  0  0  0  0  0
  -20.0350  -17.7564   24.1547 C   0  0  0  0  0  0  0  0  0  0  0  0
  -19.4374  -24.7999   22.2614 C   0  0  0  0  0  0  0  0  0  0  0  0
  -22.1519  -24.4742   21.1344 C   0  0  0  0  0  0  0  0  0  0  0  0
  -21.0161  -18.6072   23.3524 C   0  0  0  0  0  0  0  0  0  0  0  0
  -29.0917  -24.4945   17.3907 C   0  0  0  0  0  0  0  0  0  0  0  0
  -21.5006  -19.7906   24.1842 C   0  0  0  0  0  0  0  0  0  0  0  0
  -28.7854  -23.1340   18.0192 C   0  0  0  0  0  0  0  0  0  0  0  0
  -23.6910  -30.9077   22.0107 C   0  0  0  0  0  0  0  0  0  0  0  0
  -30.4925  -24.9817   17.7543 C   0  0  0  0  0  0  0  0  0  0  0  0
  -30.4755  -23.6513   19.8288 C   0  0  0  0  0  0  0  0  0  0  0  0
  -24.7805  -31.3736   22.9554 C   0  0  0  0  0  0  0  0  0  0  0  0
  -25.4348  -29.2510   21.9227 C   0  0  0  0  0  0  0  0  0  0  0  0
  -20.3337  -20.7070   24.5717 C   0  0  1  0  0  0  0  0  0  0  0  0
  -20.0124  -23.4247   21.9366 C   0  0  1  0  0  0  0  0  0  0  0  0
  -29.0530  -23.1442   19.5363 C   0  0  2  0  0  0  0  0  0  0  0  0
  -23.9222  -29.4083   21.9349 C   0  0  1  0  0  0  0  0  0  1  0  0
  -28.7223  -31.2522   21.5497 C   0  0  0  0  0  0  0  0  0  0  0  0
  -22.6818  -23.4686   14.6650 C   0  0  0  0  0  0  0  0  0  0  0  0
  -23.6177  -20.8269   20.6664 C   0  0  0  0  0  0  0  0  0  0  0  0
  -24.4462  -21.1986   18.3332 C   0  0  0  0  0  0  0  0  0  0  0  0
  -22.3102  -19.9680   18.7152 C   0  0  0  0  0  0  0  0  0  0  0  0
  -20.4426  -26.0874   16.2787 C   0  0  0  0  0  0  0  0  0  0  0  0
  -31.5488  -27.1964   22.0606 C   0  0  0  0  0  0  0  0  0  0  0  0
  -26.9398  -30.2965   23.6741 C   0  0  0  0  0  0  0  0  0  0  0  0
  -22.3868  -22.4661   19.0968 C   0  0  1  0  0  0  0  0  0  0  0  0
  -21.7153  -24.0167   15.7034 C   0  0  2  0  0  0  0  0  0  0  0  0
  -23.1841  -21.1370   19.2197 C   0  0  0  0  0  0  0  0  0  0  0  0
  -29.5333  -20.7360   19.7650 N   0  0  0  0  0  0  0  0  0  0  0  0
  -28.7925  -21.7855   20.1598 N   0  0  0  0  0  0  0  0  0  0  0  0
  -21.0829  -23.4809   20.9391 N   0  0  0  0  0  0  0  0  0  0  0  0
  -30.6811  -24.9689   19.2070 N   0  0  0  0  0  0  0  0  0  0  0  0
  -27.0358  -22.4153   21.6186 N   0  0  0  0  0  0  0  0  0  0  0  0
  -27.5148  -17.9953   22.4122 N   0  0  0  0  0  0  0  0  0  0  0  0
  -19.9494  -21.5374   23.4505 N   0  0  0  0  0  0  0  0  0  0  0  0
  -21.9398  -22.7717   17.7420 N   0  0  0  0  0  0  0  0  0  0  0  0
  -31.1902  -26.0588   21.2432 N   0  0  0  0  0  0  0  0  0  0  0  0
  -25.9673  -30.5253   22.5620 N   0  3  2  0  0  0  0  0  0  0  0  0
  -21.4013  -25.4307   15.3531 N   0  3  0  0  0  0  0  0  0  0  0  0
  -26.3195  -19.8694   22.9757 O   0  0  0  0  0  0  0  0  0  0  0  0
  -21.5092  -23.2397   23.7533 O   0  0  0  0  0  0  0  0  0  0  0  0
  -20.2722  -21.6314   19.7736 O   0  0  0  0  0  0  0  0  0  0  0  0
  -23.0153  -24.8192   17.5751 O   0  0  0  0  0  0  0  0  0  0  0  0
  -31.2022  -27.2277   19.2708 O   0  0  0  0  0  0  0  0  0  0  0  0
  -31.1782  -14.5875   19.9624 O   0  0  0  0  0  0  0  0  0  0  0  0
  -23.3752  -28.7859   23.0966 O   0  0  0  0  0  0  0  0  0  1  0  0
  -27.6425  -10.3692   19.6324 F   0  0  0  0  0  0  0  0  0  0  0  0
  -31.1374  -12.9413   17.7417 F   0  0  0  0  0  0  0  0  0  0  0  0
  -29.7976  -26.0243   24.3105 Cl  0  0  0  0  0  0  0  0  0  0  0  0
  1  2  1  0  0  0  0
  1  5  2  0  0  0  0
  2  6  2  0  0  0  0
  3  8  2  0  0  0  0
  3 17  1  0  0  0  0
  4  9  1  0  0  0  0
  4 17  2  0  0  0  0
  5 19  1  0  0  0  0
  6 21  1  0  0  0  0
  7 10  2  0  0  0  0
  7 20  1  0  0  0  0
  8 26  1  0  0  0  0
  9 26  2  0  0  0  0
 10 27  1  0  0  0  0
 11 12  2  0  0  0  0
 11 28  1  0  0  0  0
 12 29  1  0  0  0  0
 13 22  1  0  0  0  0
 13 27  2  0  0  0  0
 14 23  1  0  0  0  0
 14 24  2  0  0  0  0
 15 25  1  0  0  0  0
 15 31  2  0  0  0  0
 16 29  2  0  0  0  0
 16 30  1  0  0  0  0
 17 32  1  0  0  0  0
 18 32  1  0  0  0  0
 18 33  2  0  0  0  0
 18 34  1  0  0  0  0
 19 21  2  0  0  0  0
 19 39  1  0  0  0  0
 20 22  2  0  0  0  0
 20 40  1  0  0  0  0
 21 51  1  0  0  0  0
 22 41  1  0  0  0  0
 23 25  2  0  0  0  0
 23 55  1  0  0  0  0
 24 31  1  0  0  0  0
 24 61  1  0  0  0  0
 25 62  1  0  0  0  0
 26 82  1  0  0  0  0
 27 83  1  0  0  0  0
 28 30  2  0  0  0  0
 28 82  1  0  0  0  0
 29 84  1  0  0  0  0
 30 85  1  0  0  0  0
 31 86  1  0  0  0  0
 32 66  2  0  0  0  0
 33 67  1  0  0  0  0
 33 70  1  0  0  0  0
 34 71  1  0  0  0  0
 34 77  2  0  0  0  0
 35 52  1  0  0  0  0
 35 72  1  0  0  0  0
 35 78  2  0  0  0  0
 36 63  1  0  0  0  0
 36 68  1  0  0  0  0
 36 79  2  0  0  0  0
 37 64  1  0  0  0  0
 37 73  1  0  0  0  0
 37 80  2  0  0  0  0
 38 69  1  0  0  0  0
 38 74  1  0  0  0  0
 38 81  2  0  0  0  0
 39 42  1  0  0  0  0
 40 52  1  0  0  0  0
 41 68  1  0  0  0  0
 42 44  1  0  0  0  0
 43 45  1  0  0  0  0
 43 47  1  0  0  0  0
 44 51  1  0  0  0  0
 45 53  1  0  0  0  0
 46 49  1  0  0  0  0
 46 54  1  0  0  0  0
 47 69  1  0  0  0  0
 48 53  1  0  0  0  0
 48 69  1  0  0  0  0
 49 75  1  0  0  0  0
 50 54  1  0  0  0  0
 50 75  1  0  0  0  0
 51 72  1  0  0  0  0
 52 68  1  0  0  0  0
 53 67  1  0  0  0  0
 54 83  1  0  0  0  0
 56 64  1  0  0  0  0
 57 65  1  0  0  0  0
 58 65  1  0  0  0  0
 59 65  1  0  0  0  0
 60 76  1  0  0  0  0
 61 74  1  0  0  0  0
 62 75  1  0  0  0  0
 63 65  1  0  0  0  0
 63 73  1  0  0  0  0
 64 76  1  0  0  0  0
 66 67  1  0  0  0  0
M  CHG  2  75   1  76   1
M  ISO  4  38 100  54 101  74 100  83 101
M  END
> <Batch ID>
0032

> <Smiles>
CNC(C)C(=O)NC(C(=O)N1Cc2cc([101O:1][101CH:1]3CCN(Cc4cc(Cl)c(C[100NH:0][100C:0](=O)N5CCCC(n6nc(-c7ccc(Oc8ccc(F)cc8F)cc7)c(C(N)=O)c6N)C5)cc4C)C3)ccc2CC1C(=O)NC1CCCc2ccccc21)C(C)(C)C

> <Shape>
0.226

> <Color>
0.065

> <Negative vol penalty>
0.000

$$$$

  -OEChem-04042321423D

 86 95  0     1  0  0  0  0  0999 V2000
  -19.2905  -30.0748   25.6598 C   0  0  0  0  0  0  0  0  0  0  0  0
  -20.5378  -29.4602   25.7038 C   0  0  0  0  0  0  0  0  0  0  0  0
  -23.0301   -9.9340   19.9631 C   0  0  0  0  0  0  0  0  0  0  0  0
  -23.8034   -9.9241   22.2520 C   0  0  0  0  0  0  0  0  0  0  0  0
  -18.3891  -29.7482   24.6475 C   0  0  0  0  0  0  0  0  0  0  0  0
  -20.8840  -28.5178   24.7360 C   0  0  0  0  0  0  0  0  0  0  0  0
  -26.4437  -27.5598   22.3532 C   0  0  0  0  0  0  0  0  0  0  0  0
  -22.2556   -8.8027   20.2199 C   0  0  0  0  0  0  0  0  0  0  0  0
  -23.0289   -8.7928   22.5088 C   0  0  0  0  0  0  0  0  0  0  0  0
  -27.4349  -26.6201   22.6329 C   0  0  0  0  0  0  0  0  0  0  0  0
  -19.2947   -8.0922   21.6901 C   0  0  0  0  0  0  0  0  0  0  0  0
  -17.9842   -8.0818   21.2126 C   0  0  0  0  0  0  0  0  0  0  0  0
  -26.6237  -25.2368   20.8308 C   0  0  0  0  0  0  0  0  0  0  0  0
  -30.3665  -19.0905   20.2987 C   0  0  0  0  0  0  0  0  0  0  0  0
  -31.0842  -18.9764   22.6028 C   0  0  0  0  0  0  0  0  0  0  0  0
  -18.4813   -6.1212   19.8912 C   0  0  0  0  0  0  0  0  0  0  0  0
  -23.8041  -10.4947   20.9792 C   0  0  0  0  0  0  0  0  0  0  0  0
  -24.2160  -13.0090   20.8519 C   0  0  0  0  0  0  0  0  0  0  0  0
  -18.7281  -28.8085   23.6613 C   0  0  0  0  0  0  0  0  0  0  0  0
  -25.5267  -27.3396   21.3154 C   0  0  0  0  0  0  0  0  0  0  0  0
  -19.9858  -28.1774   23.7104 C   0  0  0  0  0  0  0  0  0  0  0  0
  -25.6234  -26.1765   20.5383 C   0  0  0  0  0  0  0  0  0  0  0  0
  -30.8288  -19.7231   21.4527 C   0  0  0  0  0  0  0  0  0  0  0  0
  -30.1594  -17.7110   20.2949 C   0  0  0  0  0  0  0  0  0  0  0  0
  -30.8772  -17.5969   22.5990 C   0  0  0  0  0  0  0  0  0  0  0  0
  -30.4148  -16.9643   21.4450 C   0  0  0  0  0  0  0  0  0  0  0  0
  -22.2549   -8.2321   21.4927 C   0  0  0  0  0  0  0  0  0  0  0  0
  -27.5232  -25.4571   21.8736 C   0  0  0  0  0  0  0  0  0  0  0  0
  -20.1986   -7.1171   21.2680 C   0  0  0  0  0  0  0  0  0  0  0  0
  -17.5775   -7.0963   20.3131 C   0  0  0  0  0  0  0  0  0  0  0  0
  -19.7918   -6.1316   20.3686 C   0  0  0  0  0  0  0  0  0  0  0  0
  -24.6048  -11.6629   20.7145 C   0  0  0  0  0  0  0  0  0  0  0  0
  -25.3267  -13.7267   20.4806 C   0  0  0  0  0  0  0  0  0  0  0  0
  -30.0397  -22.2427   23.5212 C   0  0  0  0  0  0  0  0  0  0  0  0
  -22.9631  -13.5611   21.2771 C   0  0  0  0  0  0  0  0  0  0  0  0
  -22.3707  -27.0013   21.1449 C   0  0  0  0  0  0  0  0  0  0  0  0
  -22.9334  -27.0099   17.9502 C   0  0  0  0  0  0  0  0  0  0  0  0
  -25.1288  -26.4704   15.3937 C   0  0  0  0  0  0  0  0  0  0  0  0
  -30.8210  -14.6185   20.6212 C   0  0  0  0  0  0  0  0  0  0  0  0
  -17.7026  -28.4531   22.6140 C   0  0  0  0  0  0  0  0  0  0  0  0
  -24.4800  -28.3755   21.0091 C   0  0  0  0  0  0  0  0  0  0  0  0
  -24.6759  -25.9022   19.4001 C   0  0  0  0  0  0  0  0  0  0  0  0
  -28.7008  -22.8543   23.8647 C   0  0  0  0  0  0  0  0  0  0  0  0
  -18.2898  -27.7202   21.4105 C   0  0  0  0  0  0  0  0  0  0  0  0
  -29.6252  -12.2324   18.2645 C   0  0  0  0  0  0  0  0  0  0  0  0
  -19.2241  -26.6048   21.8685 C   0  0  0  0  0  0  0  0  0  0  0  0
  -28.1805  -11.9823   18.7031 C   0  0  0  0  0  0  0  0  0  0  0  0
  -30.5535  -12.4377   19.4603 C   0  0  0  0  0  0  0  0  0  0  0  0
  -28.6758  -13.2182   20.8512 C   0  0  0  0  0  0  0  0  0  0  0  0
  -28.7474  -22.2339   21.5379 C   0  0  0  0  0  0  0  0  0  0  0  0
  -20.4075  -27.1684   22.6643 C   0  0  1  0  0  0  0  0  0  0  0  0
  -23.2786  -27.8076   20.2598 C   0  0  1  0  0  0  0  0  0  0  0  0
  -27.6916  -13.0701   19.6794 C   0  0  2  0  0  0  0  0  0  0  0  0
  -28.1085  -23.2137   22.5047 C   0  0  2  0  0  0  0  0  0  1  0  0
  -29.6630  -17.0618   19.0435 C   0  0  0  0  0  0  0  0  0  0  0  0
  -31.1602  -16.8237   23.8465 C   0  0  0  0  0  0  0  0  0  0  0  0
  -25.2884  -26.5241   12.8899 C   0  0  0  0  0  0  0  0  0  0  0  0
  -21.3907  -24.3819   17.7980 C   0  0  0  0  0  0  0  0  0  0  0  0
  -22.3790  -24.0139   15.5272 C   0  0  0  0  0  0  0  0  0  0  0  0
  -20.9067  -25.9848   15.9403 C   0  0  0  0  0  0  0  0  0  0  0  0
  -27.2373  -28.5462   15.4567 C   0  0  0  0  0  0  0  0  0  0  0  0
  -31.0513  -21.2079   21.4569 C   0  0  0  0  0  0  0  0  0  0  0  0
  -23.2390  -25.9539   16.9157 C   0  0  1  0  0  0  0  0  0  0  0  0
  -25.4851  -27.3074   14.1784 C   0  0  2  0  0  0  0  0  0  0  0  0
  -21.9956  -25.0876   16.5679 C   0  0  0  0  0  0  0  0  0  0  0  0
  -25.8640  -11.5308   20.2890 N   0  0  0  0  0  0  0  0  0  0  0  0
  -26.2760  -12.8030   20.1558 N   0  0  0  0  0  0  0  0  0  0  0  0
  -30.0066  -21.9101   22.1708 N   0  0  0  0  0  0  0  0  0  0  0  0
  -23.6659  -26.9422   19.1439 N   0  0  0  0  0  0  0  0  0  0  0  0
  -30.0289  -13.4855   20.3388 N   0  0  0  0  0  0  0  0  0  0  0  0
  -25.5740  -15.0516   20.4036 N   0  0  0  0  0  0  0  0  0  0  0  0
  -21.9280  -12.6814   21.6222 N   0  0  0  0  0  0  0  0  0  0  0  0
  -30.2048  -15.5630   21.4414 N   0  0  0  0  0  0  0  0  0  0  0  0
  -21.3887  -27.7454   21.7705 N   0  0  0  0  0  0  0  0  0  0  0  0
  -23.8165  -26.6556   15.7744 N   0  0  0  0  0  0  0  0  0  0  0  0
  -26.9080  -27.7449   14.2499 N   0  3  0  0  0  0  0  0  0  0  0  0
  -30.9409  -22.0519   24.3245 O   0  0  0  0  0  0  0  0  0  0  0  0
  -22.7618  -14.7980   21.3333 O   0  0  0  0  0  0  0  0  0  0  0  0
  -22.5471  -25.7933   21.2510 O   0  0  0  0  0  0  0  0  0  0  0  0
  -22.0814  -27.8677   17.7054 O   0  0  0  0  0  0  0  0  0  0  0  0
  -25.9329  -25.7239   15.9474 O   0  0  0  0  0  0  0  0  0  0  0  0
  -31.9516  -14.7545   20.1466 O   0  0  0  0  0  0  0  0  0  0  0  0
  -21.4991   -7.1283   21.7436 O   0  0  0  0  0  0  0  0  0  0  0  0
  -28.4894  -24.5379   22.1449 O   0  0  0  0  0  0  0  0  0  1  0  0
  -16.3185   -7.0855   19.8559 F   0  0  0  0  0  0  0  0  0  0  0  0
  -20.6553   -5.1916   19.9605 F   0  0  0  0  0  0  0  0  0  0  0  0
  1  2  1  0  0  0  0
  1  5  2  0  0  0  0
  2  6  2  0  0  0  0
  3  8  2  0  0  0  0
  3 17  1  0  0  0  0
  4  9  1  0  0  0  0
  4 17  2  0  0  0  0
  5 19  1  0  0  0  0
  6 21  1  0  0  0  0
  7 10  2  0  0  0  0
  7 20  1  0  0  0  0
  8 27  1  0  0  0  0
  9 27  2  0  0  0  0
 10 28  1  0  0  0  0
 11 12  2  0  0  0  0
 11 29  1  0  0  0  0
 12 30  1  0  0  0  0
 13 22  1  0  0  0  0
 13 28  2  0  0  0  0
 14 23  1  0  0  0  0
 14 24  2  0  0  0  0
 15 23  2  0  0  0  0
 15 25  1  0  0  0  0
 16 30  2  0  0  0  0
 16 31  1  0  0  0  0
 17 32  1  0  0  0  0
 18 32  1  0  0  0  0
 18 33  2  0  0  0  0
 18 35  1  0  0  0  0
 19 21  2  0  0  0  0
 19 40  1  0  0  0  0
 20 22  2  0  0  0  0
 20 41  1  0  0  0  0
 21 51  1  0  0  0  0
 22 42  1  0  0  0  0
 23 62  1  0  0  0  0
 24 26  1  0  0  0  0
 24 55  1  0  0  0  0
 25 26  2  0  0  0  0
 25 56  1  0  0  0  0
 26 73  1  0  0  0  0
 27 83  1  0  0  0  0
 28 84  1  0  0  0  0
 29 31  2  0  0  0  0
 29 83  1  0  0  0  0
 30 85  1  0  0  0  0
 31 86  1  0  0  0  0
 32 66  2  0  0  0  0
 33 67  1  0  0  0  0
 33 71  1  0  0  0  0
 34 43  1  0  0  0  0
 34 68  1  0  0  0  0
 34 77  2  0  0  0  0
 35 72  1  0  0  0  0
 35 78  2  0  0  0  0
 36 52  1  0  0  0  0
 36 74  1  0  0  0  0
 36 79  2  0  0  0  0
 37 63  1  0  0  0  0
 37 69  1  0  0  0  0
 37 80  2  0  0  0  0
 38 64  1  0  0  0  0
 38 75  1  0  0  0  0
 38 81  2  0  0  0  0
 39 70  1  0  0  0  0
 39 73  1  0  0  0  0
 39 82  2  0  0  0  0
 40 44  1  0  0  0  0
 41 52  1  0  0  0  0
 42 69  1  0  0  0  0
 43 54  1  0  0  0  0
 44 46  1  0  0  0  0
 45 47  1  0  0  0  0
 45 48  1  0  0  0  0
 46 51  1  0  0  0  0
 47 53  1  0  0  0  0
 48 70  1  0  0  0  0
 49 53  1  0  0  0  0
 49 70  1  0  0  0  0
 50 54  1  0  0  0  0
 50 68  1  0  0  0  0
 51 74  1  0  0  0  0
 52 69  1  0  0  0  0
 53 67  1  0  0  0  0
 54 84  1  0  0  0  0
 57 64  1  0  0  0  0
 58 65  1  0  0  0  0
 59 65  1  0  0  0  0
 60 65  1  0  0  0  0
 61 76  1  0  0  0  0
 62 68  1  0  0  0  0
 63 65  1  0  0  0  0
 63 75  1  0  0  0  0
 64 76  1  0  0  0  0
 66 67  1  0  0  0  0
M  CHG  1  76   1
M  ISO  4  39 100  54 101  73 100  84 101
M  END
> <Batch ID>
0032

> <Smiles>
CNC(C)C(=O)NC(C(=O)N1Cc2cc([101O:1][101CH:1]3CC(=O)N(Cc4cc(C)c([100NH:0][100C:0](=O)N5CCCC(n6nc(-c7ccc(Oc8ccc(F)cc8F)cc7)c(C(N)=O)c6N)C5)c(C)c4)C3)ccc2CC1C(=O)NC1CCCc2ccccc21)C(C)(C)C

> <Shape>
0.265

> <Color>
0.214

> <Negative vol penalty>
0.000

$$$$

  -OEChem-04042321423D

 84 92  0     1  0  0  0  0  0999 V2000
  -27.9603  -23.7030   18.2371 C   0  0  0  0  0  0  0  0  0  0  0  0
  -26.8480  -23.9855   19.0235 C   0  0  0  0  0  0  0  0  0  0  0  0
  -26.5329  -13.0727   20.0706 C   0  0  0  0  0  0  0  0  0  0  0  0
  -24.2800  -13.5052   20.8287 C   0  0  0  0  0  0  0  0  0  0  0  0
  -29.1634  -24.3685   18.4684 C   0  0  0  0  0  0  0  0  0  0  0  0
  -26.9386  -24.9330   20.0426 C   0  0  0  0  0  0  0  0  0  0  0  0
  -22.9789  -28.0889   20.1186 C   0  0  0  0  0  0  0  0  0  0  0  0
  -26.4248  -11.7511   20.5036 C   0  0  0  0  0  0  0  0  0  0  0  0
  -24.1720  -12.1837   21.2617 C   0  0  0  0  0  0  0  0  0  0  0  0
  -21.7945  -27.6111   20.6780 C   0  0  0  0  0  0  0  0  0  0  0  0
  -23.6037   -9.1511   19.8827 C   0  0  0  0  0  0  0  0  0  0  0  0
  -22.4307   -8.4630   19.5726 C   0  0  0  0  0  0  0  0  0  0  0  0
  -20.5089  -22.7102   22.1311 C   0  0  0  0  0  0  0  0  0  0  0  0
  -22.2963  -28.7826   22.7262 C   0  0  0  0  0  0  0  0  0  0  0  0
  -22.9974  -23.0981   23.3310 C   0  0  0  0  0  0  0  0  0  0  0  0
  -21.9984   -8.1388   21.9275 C   0  0  0  0  0  0  0  0  0  0  0  0
  -25.4605  -13.9497   20.2332 C   0  0  0  0  0  0  0  0  0  0  0  0
  -20.6421  -23.6158   23.1836 C   0  0  0  0  0  0  0  0  0  0  0  0
  -25.2415  -15.8236   18.5162 C   0  0  0  0  0  0  0  0  0  0  0  0
  -29.2661  -25.3316   19.4845 C   0  0  0  0  0  0  0  0  0  0  0  0
  -23.8376  -28.9096   20.8639 C   0  0  0  0  0  0  0  0  0  0  0  0
  -28.1446  -25.6111   20.2886 C   0  0  0  0  0  0  0  0  0  0  0  0
  -23.4897  -29.2715   22.1731 C   0  0  0  0  0  0  0  0  0  0  0  0
  -21.6200  -21.9985   21.6786 C   0  0  0  0  0  0  0  0  0  0  0  0
  -21.8863  -23.8098   23.7835 C   0  0  0  0  0  0  0  0  0  0  0  0
  -22.8642  -22.1925   22.2785 C   0  0  0  0  0  0  0  0  0  0  0  0
  -25.2444  -11.3066   21.0991 C   0  0  0  0  0  0  0  0  0  0  0  0
  -21.4545  -27.9556   21.9829 C   0  0  0  0  0  0  0  0  0  0  0  0
  -23.9741   -9.3330   21.2152 C   0  0  0  0  0  0  0  0  0  0  0  0
  -21.6280   -7.9569   20.5950 C   0  0  0  0  0  0  0  0  0  0  0  0
  -23.1715   -8.8268   22.2375 C   0  0  0  0  0  0  0  0  0  0  0  0
  -25.5716  -15.3152   19.7867 C   0  0  0  0  0  0  0  0  0  0  0  0
  -25.5259  -17.1648   18.5986 C   0  0  0  0  0  0  0  0  0  0  0  0
  -19.4563  -24.3486   23.6368 C   0  0  0  0  0  0  0  0  0  0  0  0
  -24.7240  -15.1443   17.3645 C   0  0  0  0  0  0  0  0  0  0  0  0
  -19.0442  -25.5452   23.1721 C   0  0  0  0  0  0  0  0  0  0  0  0
  -26.8347  -28.6698   21.8952 C   0  0  0  0  0  0  0  0  0  0  0  0
  -26.3401  -31.7309   22.8477 C   0  0  0  0  0  0  0  0  0  0  0  0
  -24.1208  -34.1634   23.7444 C   0  0  0  0  0  0  0  0  0  0  0  0
  -25.3036  -21.5657   22.3326 C   0  0  0  0  0  0  0  0  0  0  0  0
  -30.6006  -25.9908   19.7277 C   0  0  0  0  0  0  0  0  0  0  0  0
  -25.0984  -29.4385   20.2369 C   0  0  0  0  0  0  0  0  0  0  0  0
  -24.3673  -30.1664   23.0083 C   0  0  0  0  0  0  0  0  0  0  0  0
  -30.5103  -27.2516   20.5836 C   0  0  0  0  0  0  0  0  0  0  0  0
  -28.3739  -19.9494   21.5342 C   0  0  0  0  0  0  0  0  0  0  0  0
  -29.6287  -27.0063   21.8040 C   0  0  0  0  0  0  0  0  0  0  0  0
  -27.9338  -18.6389   20.8777 C   0  0  0  0  0  0  0  0  0  0  0  0
  -27.4439  -20.3513   22.6776 C   0  0  0  0  0  0  0  0  0  0  0  0
  -25.5784  -19.0951   21.6721 C   0  0  0  0  0  0  0  0  0  0  0  0
  -28.1965  -26.6503   21.3875 C   0  0  1  0  0  0  0  0  0  0  0  0
  -26.1498  -29.8485   21.2634 C   0  0  1  0  0  0  0  0  0  0  0  0
  -26.4473  -18.6830   20.4726 C   0  0  2  0  0  0  0  0  0  0  0  0
  -21.4477  -21.0341   20.5501 C   0  0  0  0  0  0  0  0  0  0  0  0
  -22.0656  -24.7720   24.9138 C   0  0  0  0  0  0  0  0  0  0  0  0
  -16.5588  -25.9113   22.8783 C   0  0  0  0  0  0  0  0  0  0  0  0
  -24.0177  -36.5520   24.5070 C   0  0  0  0  0  0  0  0  0  0  0  0
  -27.2425  -30.8775   25.6346 C   0  0  0  0  0  0  0  0  0  0  0  0
  -26.2328  -32.9858   26.5312 C   0  0  0  0  0  0  0  0  0  0  0  0
  -28.1103  -33.1026   24.8929 C   0  0  0  0  0  0  0  0  0  0  0  0
  -22.5426  -34.9732   21.3753 C   0  0  0  0  0  0  0  0  0  0  0  0
  -17.8104  -26.2748   23.6654 C   0  0  0  0  0  0  0  0  0  0  0  0
  -19.8271  -26.2238   22.0736 C   0  0  0  0  0  0  0  0  0  1  0  0
  -25.8175  -32.3892   24.1017 C   0  0  1  0  0  0  0  0  0  0  0  0
  -23.9849  -35.6122   23.3119 C   0  0  2  0  0  0  0  0  0  0  0  0
  -26.8350  -32.3203   25.2753 C   0  0  0  0  0  0  0  0  0  0  0  0
  -26.0308  -16.2566   20.6155 N   0  0  0  0  0  0  0  0  0  0  0  0
  -25.9912  -17.3701   19.8641 N   0  0  0  0  0  0  0  0  0  0  0  0
  -25.5926  -30.6529   22.3528 N   0  0  0  0  0  0  0  0  0  0  0  0
  -26.0533  -20.3759   22.2188 N   0  0  0  0  0  0  0  0  0  0  0  0
  -25.4208  -18.1768   17.7112 N   0  0  0  0  0  0  0  0  0  0  0  0
  -24.4893  -13.7653   17.4515 N   0  0  0  0  0  0  0  0  0  0  0  0
  -24.0043  -21.4785   21.8336 N   0  0  0  0  0  0  0  0  0  0  0  0
  -27.4740  -27.8407   20.9934 N   0  0  0  0  0  0  0  0  0  0  0  0
  -25.4343  -33.7447   23.7218 N   0  0  0  0  0  0  0  0  0  0  0  0
  -22.6990  -35.8180   22.5873 N   0  3  0  0  0  0  0  0  0  0  0  0
  -24.4924  -15.7395   16.2848 O   0  0  0  0  0  0  0  0  0  0  0  0
  -26.7879  -28.5241   23.1111 O   0  0  0  0  0  0  0  0  0  0  0  0
  -27.3696  -32.1620   22.3224 O   0  0  0  0  0  0  0  0  0  0  0  0
  -23.1583  -33.4734   24.0733 O   0  0  0  0  0  0  0  0  0  0  0  0
  -25.7878  -22.5947   22.8108 O   0  0  0  0  0  0  0  0  0  0  0  0
  -25.1386  -10.0170   21.5214 O   0  0  0  0  0  0  0  0  0  0  0  0
  -20.2994  -27.4901   22.5315 O   0  0  0  0  0  0  0  0  0  1  0  0
  -20.5008   -7.2975   20.2971 F   0  0  0  0  0  0  0  0  0  0  0  0
  -23.5215   -8.9994   23.5195 F   0  0  0  0  0  0  0  0  0  0  0  0
  1  2  1  0  0  0  0
  1  5  2  0  0  0  0
  2  6  2  0  0  0  0
  3  8  2  0  0  0  0
  3 17  1  0  0  0  0
  4  9  1  0  0  0  0
  4 17  2  0  0  0  0
  5 20  1  0  0  0  0
  6 22  1  0  0  0  0
  7 10  2  0  0  0  0
  7 21  1  0  0  0  0
  8 27  1  0  0  0  0
  9 27  2  0  0  0  0
 10 28  1  0  0  0  0
 11 12  2  0  0  0  0
 11 29  1  0  0  0  0
 12 30  1  0  0  0  0
 13 18  1  0  0  0  0
 13 24  2  0  0  0  0
 14 23  1  0  0  0  0
 14 28  2  0  0  0  0
 15 25  1  0  0  0  0
 15 26  2  0  0  0  0
 16 30  2  0  0  0  0
 16 31  1  0  0  0  0
 17 32  1  0  0  0  0
 18 25  2  0  0  0  0
 18 34  1  0  0  0  0
 19 32  1  0  0  0  0
 19 33  2  0  0  0  0
 19 35  1  0  0  0  0
 20 22  2  0  0  0  0
 20 41  1  0  0  0  0
 21 23  2  0  0  0  0
 21 42  1  0  0  0  0
 22 50  1  0  0  0  0
 23 43  1  0  0  0  0
 24 26  1  0  0  0  0
 24 53  1  0  0  0  0
 25 54  1  0  0  0  0
 26 72  1  0  0  0  0
 27 81  1  0  0  0  0
 28 82  1  0  0  0  0
 29 31  2  0  0  0  0
 29 81  1  0  0  0  0
 30 83  1  0  0  0  0
 31 84  1  0  0  0  0
 32 66  2  0  0  0  0
 33 67  1  0  0  0  0
 33 70  1  0  0  0  0
 34 36  2  0  0  0  0
 35 71  1  0  0  0  0
 35 76  2  0  0  0  0
 36 61  1  0  0  0  0
 36 62  1  0  0  0  0
 37 51  1  0  0  0  0
 37 73  1  0  0  0  0
 37 77  2  0  0  0  0
 38 63  1  0  0  0  0
 38 68  1  0  0  0  0
 38 78  2  0  0  0  0
 39 64  1  0  0  0  0
 39 74  1  0  0  0  0
 39 79  2  0  0  0  0
 40 69  1  0  0  0  0
 40 72  1  0  0  0  0
 40 80  2  0  0  0  0
 41 44  1  0  0  0  0
 42 51  1  0  0  0  0
 43 68  1  0  0  0  0
 44 46  1  0  0  0  0
 45 47  1  0  0  0  0
 45 48  1  0  0  0  0
 46 50  1  0  0  0  0
 47 52  1  0  0  0  0
 48 69  1  0  0  0  0
 49 52  1  0  0  0  0
 49 69  1  0  0  0  0
 50 73  1  0  0  0  0
 51 68  1  0  0  0  0
 52 67  1  0  0  0  0
 55 61  1  0  0  0  0
 56 64  1  0  0  0  0
 57 65  1  0  0  0  0
 58 65  1  0  0  0  0
 59 65  1  0  0  0  0
 60 75  1  0  0  0  0
 62 82  1  0  0  0  0
 63 65  1  0  0  0  0
 63 74  1  0  0  0  0
 64 75  1  0  0  0  0
 66 67  1  0  0  0  0
M  CHG  1  75   1
M  ISO  4  40 100  62 101  72 100  82 101
M  END
> <Batch ID>
0032

> <Smiles>
CCC(=Cc1cc(C)c([100NH:0][100C:0](=O)N2CCCC(n3nc(-c4ccc(Oc5ccc(F)cc5F)cc4)c(C(N)=O)c3N)C2)cc1C)[101CH2:1][101O:1]c1ccc2c(c1)CN(C(=O)C(NC(=O)C(C)NC)C(C)(C)C)C(C(=O)NC1CCCc3ccccc31)C2

> <Shape>
0.285

> <Color>
0.069

> <Negative vol penalty>
0.000

$$$$

  -OEChem-04042321423D

 86 95  0     1  0  0  0  0  0999 V2000
  -42.9109  -29.7207   17.6195 C   0  0  0  0  0  0  0  0  0  0  0  0
  -41.6616  -30.3021   17.8108 C   0  0  0  0  0  0  0  0  0  0  0  0
  -23.4403  -10.0048   22.2179 C   0  0  0  0  0  0  0  0  0  0  0  0
  -23.5381   -9.6532   19.8296 C   0  0  0  0  0  0  0  0  0  0  0  0
  -43.0672  -28.6992   16.6836 C   0  0  0  0  0  0  0  0  0  0  0  0
  -40.5680  -29.8630   17.0654 C   0  0  0  0  0  0  0  0  0  0  0  0
  -33.6505  -27.1380   19.4631 C   0  0  0  0  0  0  0  0  0  0  0  0
  -22.7039   -8.8289   22.3609 C   0  0  0  0  0  0  0  0  0  0  0  0
  -22.8017   -8.4773   19.9726 C   0  0  0  0  0  0  0  0  0  0  0  0
  -32.4509  -26.4931   19.7656 C   0  0  0  0  0  0  0  0  0  0  0  0
  -19.5059   -7.8248   21.9260 C   0  0  0  0  0  0  0  0  0  0  0  0
  -18.3871   -7.8589   22.7582 C   0  0  0  0  0  0  0  0  0  0  0  0
  -32.5149  -25.3516   17.6347 C   0  0  0  0  0  0  0  0  0  0  0  0
  -31.6558  -18.3557   20.5490 C   0  0  0  0  0  0  0  0  0  0  0  0
  -29.2423  -19.7302   20.8113 C   0  0  0  0  0  0  0  0  0  0  0  0
  -19.3679   -6.1424   24.1470 C   0  0  0  0  0  0  0  0  0  0  0  0
  -23.8574  -10.4170   20.9522 C   0  0  0  0  0  0  0  0  0  0  0  0
  -24.2190  -12.9335   21.1629 C   0  0  0  0  0  0  0  0  0  0  0  0
  -41.9729  -28.2407   15.9332 C   0  0  0  0  0  0  0  0  0  0  0  0
  -34.2955  -26.8800   18.2503 C   0  0  0  0  0  0  0  0  0  0  0  0
  -40.7101  -28.8353   16.1176 C   0  0  0  0  0  0  0  0  0  0  0  0
  -33.7231  -25.9850   17.3315 C   0  0  0  0  0  0  0  0  0  0  0  0
  -30.6827  -17.8935   21.4350 C   0  0  0  0  0  0  0  0  0  0  0  0
  -30.2155  -20.1924   19.9252 C   0  0  0  0  0  0  0  0  0  0  0  0
  -22.3846   -8.0651   21.2382 C   0  0  0  0  0  0  0  0  0  0  0  0
  -31.8845  -25.6024   18.8535 C   0  0  0  0  0  0  0  0  0  0  0  0
  -20.5557   -6.9495   22.2042 C   0  0  0  0  0  0  0  0  0  0  0  0
  -18.3181   -7.0177   23.8688 C   0  0  0  0  0  0  0  0  0  0  0  0
  -20.4867   -6.1083   23.3147 C   0  0  0  0  0  0  0  0  0  0  0  0
  -31.4222  -19.5052   19.7941 C   0  0  0  0  0  0  0  0  0  0  0  0
  -29.4760  -18.5807   21.5662 C   0  0  0  0  0  0  0  0  0  0  0  0
  -24.6177  -11.6320   20.8038 C   0  0  0  0  0  0  0  0  0  0  0  0
  -25.2875  -13.7262   20.8217 C   0  0  0  0  0  0  0  0  0  0  0  0
  -22.9926  -13.3854   21.7521 C   0  0  0  0  0  0  0  0  0  0  0  0
  -37.2391  -27.5715   16.0293 C   0  0  0  0  0  0  0  0  0  0  0  0
  -36.6670  -24.5636   15.8398 C   0  0  0  0  0  0  0  0  0  0  0  0
  -35.9728  -21.2471   16.2346 C   0  0  0  0  0  0  0  0  0  0  0  0
  -30.7806  -14.7049   20.7067 C   0  0  0  0  0  0  0  0  0  0  0  0
  -42.2006  -27.1664   14.8994 C   0  0  0  0  0  0  0  0  0  0  0  0
  -35.5575  -27.5983   17.8563 C   0  0  0  0  0  0  0  0  0  0  0  0
  -34.4345  -25.7646   16.0245 C   0  0  0  0  0  0  0  0  0  0  0  0
  -40.9134  -26.5023   14.4175 C   0  0  0  0  0  0  0  0  0  0  0  0
  -29.4264  -12.6837   18.1072 C   0  0  0  0  0  0  0  0  0  0  0  0
  -28.9581  -22.3476   17.1572 C   0  0  0  0  0  0  0  0  0  0  0  0
  -39.8568  -27.5550   14.0981 C   0  0  0  0  0  0  0  0  0  0  0  0
  -28.0249  -12.3324   18.6094 C   0  0  0  0  0  0  0  0  0  0  0  0
  -29.2815  -23.7316   17.6994 C   0  0  0  0  0  0  0  0  0  0  0  0
  -28.7909  -21.3289   18.2823 C   0  0  0  0  0  0  0  0  0  0  0  0
  -30.4396  -12.7314   19.2488 C   0  0  0  0  0  0  0  0  0  0  0  0
  -28.6642  -13.2596   20.8745 C   0  0  0  0  0  0  0  0  0  0  0  0
  -30.3489  -22.6547   19.7192 C   0  0  0  0  0  0  0  0  0  0  0  0
  -39.4945  -28.3694   15.3459 C   0  0  1  0  0  0  0  0  0  0  0  0
  -36.5196  -26.7215   17.0349 C   0  0  1  0  0  0  0  0  0  0  0  0
  -27.5966  -13.2544   19.7669 C   0  0  2  0  0  0  0  0  0  0  0  0
  -30.5122  -23.6796   18.5959 C   0  0  2  0  0  0  0  0  0  1  0  0
  -36.7017  -18.9757   15.4554 C   0  0  0  0  0  0  0  0  0  0  0  0
  -35.2446  -25.0234   13.1810 C   0  0  0  0  0  0  0  0  0  0  0  0
  -35.1668  -22.5399   12.8742 C   0  0  0  0  0  0  0  0  0  0  0  0
  -37.3658  -23.7091   13.0161 C   0  0  0  0  0  0  0  0  0  0  0  0
  -36.7007  -20.4114   18.9789 C   0  0  0  0  0  0  0  0  0  0  0  0
  -30.9715  -16.6583   22.2256 C   0  0  0  0  0  0  0  0  0  0  0  0
  -35.9605  -23.4544   15.1023 C   0  0  1  0  0  0  0  0  0  0  0  0
  -36.8717  -20.0557   16.5125 C   0  0  2  0  0  0  0  0  0  0  0  0
  -35.9231  -23.6938   13.5665 C   0  0  0  0  0  0  0  0  0  0  0  0
  -25.8436  -11.5956   20.2749 N   0  0  0  0  0  0  0  0  0  0  0  0
  -26.2245  -12.8842   20.2991 N   0  0  0  0  0  0  0  0  0  0  0  0
  -29.9528  -21.3498   19.1818 N   0  0  1  0  0  0  0  0  0  0  0  0
  -35.8829  -25.6470   16.2545 N   0  0  0  0  0  0  0  0  0  0  0  0
  -29.9743  -13.6243   20.3130 N   0  0  0  0  0  0  0  0  0  0  0  0
  -25.5075  -15.0545   20.9208 N   0  0  0  0  0  0  0  0  0  0  0  0
  -21.9415  -13.7590   20.9036 N   0  0  0  0  0  0  0  0  0  0  0  0
  -38.6092  -27.6120   16.2043 N   0  0  0  0  0  0  0  0  0  0  0  0
  -36.6216  -22.2155   15.4980 N   0  0  0  0  0  0  0  0  0  0  0  0
  -30.2622  -15.5053   21.7173 N   0  0  0  0  0  0  0  0  0  0  0  0
  -36.5526  -19.4653   17.8431 N   0  3  0  0  0  0  0  0  0  0  0  0
  -22.8392  -13.4715   22.9941 O   0  0  0  0  0  0  0  0  0  0  0  0
  -36.5995  -28.1475   15.1571 O   0  0  0  0  0  0  0  0  0  0  0  0
  -37.8819  -24.4772   16.0392 O   0  0  0  0  0  0  0  0  0  0  0  0
  -34.8103  -21.3105   16.6282 O   0  0  0  0  0  0  0  0  0  0  0  0
  -31.8786  -14.9423   20.1918 O   0  0  0  0  0  0  0  0  0  0  0  0
  -21.6662   -6.9175   21.3774 O   0  0  0  0  0  0  0  0  0  0  0  0
  -30.7156  -24.9729   19.1570 O   0  0  0  0  0  0  0  0  0  1  0  0
  -17.2443   -7.0516   24.6688 F   0  0  0  0  0  0  0  0  0  0  0  0
  -21.4927   -5.2662   23.5878 F   0  0  0  0  0  0  0  0  0  0  0  0
  -32.6539  -20.0435   18.7089 Cl  0  0  0  0  0  0  0  0  0  0  0  0
  -28.2485  -18.0378   22.6516 Cl  0  0  0  0  0  0  0  0  0  0  0  0
  1  2  1  0  0  0  0
  1  5  2  0  0  0  0
  2  6  2  0  0  0  0
  3  8  2  0  0  0  0
  3 17  1  0  0  0  0
  4  9  1  0  0  0  0
  4 17  2  0  0  0  0
  5 19  1  0  0  0  0
  6 21  1  0  0  0  0
  7 10  2  0  0  0  0
  7 20  1  0  0  0  0
  8 25  1  0  0  0  0
  9 25  2  0  0  0  0
 10 26  1  0  0  0  0
 11 12  2  0  0  0  0
 11 27  1  0  0  0  0
 12 28  1  0  0  0  0
 13 22  1  0  0  0  0
 13 26  2  0  0  0  0
 14 23  2  0  0  0  0
 14 30  1  0  0  0  0
 15 24  1  0  0  0  0
 15 31  2  0  0  0  0
 16 28  2  0  0  0  0
 16 29  1  0  0  0  0
 17 32  1  0  0  0  0
 18 32  1  0  0  0  0
 18 33  2  0  0  0  0
 18 34  1  0  0  0  0
 19 21  2  0  0  0  0
 19 39  1  0  0  0  0
 20 22  2  0  0  0  0
 20 40  1  0  0  0  0
 21 52  1  0  0  0  0
 22 41  1  0  0  0  0
 23 31  1  0  0  0  0
 23 61  1  0  0  0  0
 24 30  2  0  0  0  0
 24 67  1  0  0  0  0
 25 81  1  0  0  0  0
 26 82  1  0  0  0  0
 27 29  2  0  0  0  0
 27 81  1  0  0  0  0
 28 83  1  0  0  0  0
 29 84  1  0  0  0  0
 30 85  1  0  0  0  0
 31 86  1  0  0  0  0
 32 65  2  0  0  0  0
 33 66  1  0  0  0  0
 33 70  1  0  0  0  0
 34 71  1  0  0  0  0
 34 76  2  0  0  0  0
 35 53  1  0  0  0  0
 35 72  1  0  0  0  0
 35 77  2  0  0  0  0
 36 62  1  0  0  0  0
 36 68  1  0  0  0  0
 36 78  2  0  0  0  0
 37 63  1  0  0  0  0
 37 73  1  0  0  0  0
 37 79  2  0  0  0  0
 38 69  1  0  0  0  0
 38 74  1  0  0  0  0
 38 80  2  0  0  0  0
 39 42  1  0  0  0  0
 40 53  1  0  0  0  0
 41 68  1  0  0  0  0
 42 45  1  0  0  0  0
 43 46  1  0  0  0  0
 43 49  1  0  0  0  0
 44 47  1  0  0  0  0
 44 48  1  0  0  0  0
 45 52  1  0  0  0  0
 46 54  1  0  0  0  0
 47 55  1  0  0  0  0
 48 67  1  0  0  0  0
 49 69  1  0  0  0  0
 50 54  1  0  0  0  0
 50 69  1  0  0  0  0
 51 55  1  0  0  0  0
 51 67  1  0  0  0  0
 52 72  1  0  0  0  0
 53 68  1  0  0  0  0
 54 66  1  0  0  0  0
 55 82  1  0  0  0  0
 56 63  1  0  0  0  0
 57 64  1  0  0  0  0
 58 64  1  0  0  0  0
 59 64  1  0  0  0  0
 60 75  1  0  0  0  0
 61 74  1  0  0  0  0
 62 64  1  0  0  0  0
 62 73  1  0  0  0  0
 63 75  1  0  0  0  0
 65 66  1  0  0  0  0
M  CHG  1  75   1
M  ISO  4  38 100  55 101  74 100  82 101
M  END
> <Batch ID>
0032

> <Smiles>
CNC(C)C(=O)NC(C(=O)N1Cc2cc([101O:1][101CH:1]3CCCN(c4cc(Cl)c(C[100NH:0][100C:0](=O)N5CCCC(n6nc(-c7ccc(Oc8ccc(F)cc8F)cc7)c(C(N)=O)c6N)C5)cc4Cl)C3)ccc2CC1C(=O)NC1CCCc2ccccc21)C(C)(C)C

> <Shape>
0.211

> <Color>
0.174

> <Negative vol penalty>
0.000

$$$$

  -OEChem-04042321423D

 88 97  0     1  0  0  0  0  0999 V2000
  -21.1078  -37.4070   19.9158 C   0  0  0  0  0  0  0  0  0  0  0  0
  -21.3071  -36.3579   19.0241 C   0  0  0  0  0  0  0  0  0  0  0  0
  -22.7319  -10.4360   20.3232 C   0  0  0  0  0  0  0  0  0  0  0  0
  -24.5721   -8.9405   20.7857 C   0  0  0  0  0  0  0  0  0  0  0  0
  -21.9956  -37.5998   20.9734 C   0  0  0  0  0  0  0  0  0  0  0  0
  -22.3952  -35.5015   19.1890 C   0  0  0  0  0  0  0  0  0  0  0  0
  -24.3202  -28.6701   18.2180 C   0  0  0  0  0  0  0  0  0  0  0  0
  -21.8344   -9.4769   20.7924 C   0  0  0  0  0  0  0  0  0  0  0  0
  -23.6746   -7.9813   21.2550 C   0  0  0  0  0  0  0  0  0  0  0  0
  -25.3223  -27.9083   17.6188 C   0  0  0  0  0  0  0  0  0  0  0  0
  -21.9053   -7.3960   24.0741 C   0  0  0  0  0  0  0  0  0  0  0  0
  -22.2215   -6.7427   25.2652 C   0  0  0  0  0  0  0  0  0  0  0  0
  -26.7459  -28.2899   19.5285 C   0  0  0  0  0  0  0  0  0  0  0  0
  -28.6396  -19.5104   20.7591 C   0  0  0  0  0  0  0  0  0  0  0  0
  -22.2140   -4.6236   24.1048 C   0  0  0  0  0  0  0  0  0  0  0  0
  -24.1008  -10.1678   20.3198 C   0  0  0  0  0  0  0  0  0  0  0  0
  -25.0738  -11.7206   18.5451 C   0  0  0  0  0  0  0  0  0  0  0  0
  -23.0896  -36.7395   21.1569 C   0  0  0  0  0  0  0  0  0  0  0  0
  -24.5277  -29.2577   19.4742 C   0  0  0  0  0  0  0  0  0  0  0  0
  -23.2993  -35.6837   20.2493 C   0  0  0  0  0  0  0  0  0  0  0  0
  -25.7439  -29.0566   20.1426 C   0  0  0  0  0  0  0  0  0  0  0  0
  -28.4494  -20.8759   20.5476 C   0  0  0  0  0  0  0  0  0  0  0  0
  -27.1052  -20.3871   18.6004 C   0  0  0  0  0  0  0  0  0  0  0  0
  -27.6822  -21.3143   19.4683 C   0  0  0  0  0  0  0  0  0  0  0  0
  -27.2956  -19.0215   18.8119 C   0  0  0  0  0  0  0  0  0  0  0  0
  -28.0628  -18.5832   19.8912 C   0  0  0  0  0  0  0  0  0  0  0  0
  -22.3058   -8.2495   21.2583 C   0  0  0  0  0  0  0  0  0  0  0  0
  -26.5365  -27.7204   18.2727 C   0  0  0  0  0  0  0  0  0  0  0  0
  -21.7434   -6.6632   22.8983 C   0  0  0  0  0  0  0  0  0  0  0  0
  -22.3759   -5.3565   25.2806 C   0  0  0  0  0  0  0  0  0  0  0  0
  -21.8978   -5.2770   22.9137 C   0  0  0  0  0  0  0  0  0  0  0  0
  -25.0283  -11.1580   19.8348 C   0  0  0  0  0  0  0  0  0  0  0  0
  -26.1263  -12.6019   18.5919 C   0  0  0  0  0  0  0  0  0  0  0  0
  -27.7290  -24.5554   17.6008 C   0  0  0  0  0  0  0  0  0  0  0  0
  -27.0509  -24.4843   16.4434 C   0  0  0  0  0  0  0  0  0  0  0  0
  -24.2393  -11.4691   17.4067 C   0  0  0  0  0  0  0  0  0  0  0  0
  -24.5992  -32.2400   20.5715 C   0  0  0  0  0  0  0  0  0  0  0  0
  -24.8519  -30.7618   23.4479 C   0  0  0  0  0  0  0  0  0  0  0  0
  -26.6261  -27.9289   24.8059 C   0  0  0  0  0  0  0  0  0  0  0  0
  -29.0051  -16.6191   21.1564 C   0  0  0  0  0  0  0  0  0  0  0  0
  -24.0490  -37.0161   22.2873 C   0  0  0  0  0  0  0  0  0  0  0  0
  -23.4269  -30.0544   20.1189 C   0  0  0  0  0  0  0  0  0  0  0  0
  -26.0092  -29.6490   21.5017 C   0  0  0  0  0  0  0  0  0  0  0  0
  -24.9654  -35.8387   22.6104 C   0  0  0  0  0  0  0  0  0  0  0  0
  -29.7181  -13.2600   22.0972 C   0  0  0  0  0  0  0  0  0  0  0  0
  -30.0239  -24.7011   19.3130 C   0  0  0  0  0  0  0  0  0  0  0  0
  -25.5559  -35.2551   21.3307 C   0  0  0  0  0  0  0  0  0  0  0  0
  -29.4445  -25.9795   18.7177 C   0  0  0  0  0  0  0  0  0  0  0  0
  -28.5653  -12.4600   21.4864 C   0  0  0  0  0  0  0  0  0  0  0  0
  -29.2534  -14.6209   22.6127 C   0  0  0  0  0  0  0  0  0  0  0  0
  -27.3698  -14.6382   21.0250 C   0  0  0  0  0  0  0  0  0  0  0  0
  -29.7657  -23.4993   18.4101 C   0  0  0  0  0  0  0  0  0  0  0  0
  -24.4538  -34.7186   20.4092 C   0  0  1  0  0  0  0  0  0  0  0  0
  -27.9596  -25.8221   18.3940 C   0  0  1  0  0  0  0  0  0  1  0  0
  -23.9360  -31.0332   21.1726 C   0  0  1  0  0  0  0  0  0  0  0  0
  -27.8015  -13.2865   20.4333 C   0  0  2  0  0  0  0  0  0  0  0  0
  -29.0811  -21.8482   21.4894 C   0  0  0  0  0  0  0  0  0  0  0  0
  -26.2825  -20.8580   17.4427 C   0  0  0  0  0  0  0  0  0  0  0  0
  -26.6768  -18.0285   17.8782 C   0  0  0  0  0  0  0  0  0  0  0  0
  -26.0699  -26.4299   26.7400 C   0  0  0  0  0  0  0  0  0  0  0  0
  -26.6103  -32.6675   25.0561 C   0  0  0  0  0  0  0  0  0  0  0  0
  -27.4832  -30.6879   26.3159 C   0  0  0  0  0  0  0  0  0  0  0  0
  -25.0597  -31.2677   26.4310 C   0  0  0  0  0  0  0  0  0  0  0  0
  -26.7988  -25.5004   23.1232 C   0  0  0  0  0  0  0  0  0  0  0  0
  -27.4806  -22.7838   19.2431 C   0  0  0  0  0  0  0  0  0  0  0  0
  -25.9970  -30.2753   24.3029 C   0  0  1  0  0  0  0  0  0  0  0  0
  -26.0276  -26.5997   25.2293 C   0  0  2  0  0  0  0  0  0  0  0  0
  -26.2896  -31.2258   25.4981 C   0  0  0  0  0  0  0  0  0  0  0  0
  -25.9765  -11.6412   20.6419 N   0  0  0  0  0  0  0  0  0  0  0  0
  -26.6279  -12.5166   19.8573 N   0  0  0  0  0  0  0  0  0  0  0  0
  -24.9041  -30.4254   22.0878 N   0  0  0  0  0  0  0  0  0  0  0  0
  -28.5419  -15.3489   21.5598 N   0  0  0  0  0  0  0  0  0  0  0  0
  -26.6624  -13.4335   17.6736 N   0  0  0  0  0  0  0  0  0  0  0  0
  -24.6156  -10.4573   16.5129 N   0  0  0  0  0  0  0  0  0  0  0  0
  -28.2683  -17.2009   20.1253 N   0  0  0  0  0  0  0  0  0  0  0  0
  -23.9798  -33.4356   20.8820 N   0  0  0  0  0  0  0  0  0  0  0  0
  -25.6635  -28.9097   24.6932 N   0  0  0  0  0  0  0  0  0  0  0  0
  -28.2970  -23.3223   18.1005 N   0  3  1  0  0  0  0  0  0  0  0  0
  -26.7787  -25.4722   24.6084 N   0  3  0  0  0  0  0  0  0  0  0  0
  -23.1997  -12.1334   17.1797 O   0  0  0  0  0  0  0  0  0  0  0  0
  -25.5998  -32.0972   19.8786 O   0  0  0  0  0  0  0  0  0  0  0  0
  -23.9410  -31.4102   23.9690 O   0  0  0  0  0  0  0  0  0  0  0  0
  -27.8279  -28.0828   24.5996 O   0  0  0  0  0  0  0  0  0  0  0  0
  -29.9997  -17.1396   21.6680 O   0  0  0  0  0  0  0  0  0  0  0  0
  -21.4303   -7.3134   21.7164 O   0  0  0  0  0  0  0  0  0  0  0  0
  -27.5166  -26.9778   17.6898 O   0  0  0  0  0  0  0  0  0  1  0  0
  -22.6810   -4.7293   26.4241 F   0  0  0  0  0  0  0  0  0  0  0  0
  -21.7447   -4.5677   21.7870 F   0  0  0  0  0  0  0  0  0  0  0  0
  1  2  1  0  0  0  0
  1  5  2  0  0  0  0
  2  6  2  0  0  0  0
  3  8  2  0  0  0  0
  3 16  1  0  0  0  0
  4  9  1  0  0  0  0
  4 16  2  0  0  0  0
  5 18  1  0  0  0  0
  6 20  1  0  0  0  0
  7 10  2  0  0  0  0
  7 19  1  0  0  0  0
  8 27  1  0  0  0  0
  9 27  2  0  0  0  0
 10 28  1  0  0  0  0
 11 12  2  0  0  0  0
 11 29  1  0  0  0  0
 12 30  1  0  0  0  0
 13 21  1  0  0  0  0
 13 28  2  0  0  0  0
 14 22  2  0  0  0  0
 14 26  1  0  0  0  0
 15 30  2  0  0  0  0
 15 31  1  0  0  0  0
 16 32  1  0  0  0  0
 17 32  1  0  0  0  0
 17 33  2  0  0  0  0
 17 36  1  0  0  0  0
 18 20  2  0  0  0  0
 18 41  1  0  0  0  0
 19 21  2  0  0  0  0
 19 42  1  0  0  0  0
 20 53  1  0  0  0  0
 21 43  1  0  0  0  0
 22 24  1  0  0  0  0
 22 57  1  0  0  0  0
 23 24  2  0  0  0  0
 23 25  1  0  0  0  0
 23 58  1  0  0  0  0
 24 65  1  0  0  0  0
 25 26  2  0  0  0  0
 25 59  1  0  0  0  0
 26 75  1  0  0  0  0
 27 85  1  0  0  0  0
 28 86  1  0  0  0  0
 29 31  2  0  0  0  0
 29 85  1  0  0  0  0
 30 87  1  0  0  0  0
 31 88  1  0  0  0  0
 32 69  2  0  0  0  0
 33 70  1  0  0  0  0
 33 73  1  0  0  0  0
 34 35  2  0  0  0  0
 34 54  1  0  0  0  0
 34 78  1  0  0  0  0
 36 74  1  0  0  0  0
 36 80  2  0  0  0  0
 37 55  1  0  0  0  0
 37 76  1  0  0  0  0
 37 81  2  0  0  0  0
 38 66  1  0  0  0  0
 38 71  1  0  0  0  0
 38 82  2  0  0  0  0
 39 67  1  0  0  0  0
 39 77  1  0  0  0  0
 39 83  2  0  0  0  0
 40 72  1  0  0  0  0
 40 75  1  0  0  0  0
 40 84  2  0  0  0  0
 41 44  1  0  0  0  0
 42 55  1  0  0  0  0
 43 71  1  0  0  0  0
 44 47  1  0  0  0  0
 45 49  1  0  0  0  0
 45 50  1  0  0  0  0
 46 48  1  0  0  0  0
 46 52  1  0  0  0  0
 47 53  1  0  0  0  0
 48 54  1  0  0  0  0
 49 56  1  0  0  0  0
 50 72  1  0  0  0  0
 51 56  1  0  0  0  0
 51 72  1  0  0  0  0
 52 78  1  0  0  0  0
 53 76  1  0  0  0  0
 54 86  1  0  0  0  0
 55 71  1  0  0  0  0
 56 70  1  0  0  0  0
 60 67  1  0  0  0  0
 61 68  1  0  0  0  0
 62 68  1  0  0  0  0
 63 68  1  0  0  0  0
 64 79  1  0  0  0  0
 65 78  1  0  0  0  0
 66 68  1  0  0  0  0
 66 77  1  0  0  0  0
 67 79  1  0  0  0  0
 69 70  1  0  0  0  0
M  CHG  2  78   1  79   1
M  ISO  4  40 100  54 101  75 100  86 101
M  END
> <Batch ID>
0032

> <Smiles>
C=C1N(Cc2c(C)cc([100NH:0][100C:0](=O)N3CCCC(n4nc(-c5ccc(Oc6ccc(F)cc6F)cc5)c(C(N)=O)c4N)C3)c(C)c2C)CCC[101CH:1]1[101O:1]c1ccc2c(c1)CN(C(=O)C(NC(=O)C(C)NC)C(C)(C)C)C(C(=O)NC1CCCc3ccccc31)C2

> <Shape>
0.312

> <Color>
0.105

> <Negative vol penalty>
0.000

$$$$

  -OEChem-04042321423D

 85 93  0     1  0  0  0  0  0999 V2000
  -18.0329  -32.7313   24.1314 C   0  0  0  0  0  0  0  0  0  0  0  0
  -19.2705  -32.9965   23.5539 C   0  0  0  0  0  0  0  0  0  0  0  0
  -25.5479  -13.6522   21.4448 C   0  0  0  0  0  0  0  0  0  0  0  0
  -25.2565  -14.1396   19.0965 C   0  0  0  0  0  0  0  0  0  0  0  0
  -17.7818  -31.4814   24.6957 C   0  0  0  0  0  0  0  0  0  0  0  0
  -20.2581  -32.0122   23.5414 C   0  0  0  0  0  0  0  0  0  0  0  0
  -25.7106  -29.6249   19.5555 C   0  0  0  0  0  0  0  0  0  0  0  0
  -24.5494  -12.6814   21.3673 C   0  0  0  0  0  0  0  0  0  0  0  0
  -24.2579  -13.1688   19.0190 C   0  0  0  0  0  0  0  0  0  0  0  0
  -27.0653  -29.3125   19.6600 C   0  0  0  0  0  0  0  0  0  0  0  0
  -24.2541   -9.4930   20.2813 C   0  0  0  0  0  0  0  0  0  0  0  0
  -24.4969   -8.2631   20.8928 C   0  0  0  0  0  0  0  0  0  0  0  0
  -28.2574  -24.2147   17.3340 C   0  0  0  0  0  0  0  0  0  0  0  0
  -26.4916  -27.1637   20.5941 C   0  0  0  0  0  0  0  0  0  0  0  0
  -29.6799  -22.5017   15.6533 C   0  0  0  0  0  0  0  0  0  0  0  0
  -22.5720   -8.5906   22.3157 C   0  0  0  0  0  0  0  0  0  0  0  0
  -25.9014  -14.3814   20.3095 C   0  0  0  0  0  0  0  0  0  0  0  0
  -29.5112  -24.5920   16.8531 C   0  0  0  0  0  0  0  0  0  0  0  0
  -28.3128  -15.2037   20.1800 C   0  0  0  0  0  0  0  0  0  0  0  0
  -18.7635  -30.4780   24.6815 C   0  0  0  0  0  0  0  0  0  0  0  0
  -24.7348  -28.7117   19.9803 C   0  0  0  0  0  0  0  0  0  0  0  0
  -20.0203  -30.7481   24.1072 C   0  0  0  0  0  0  0  0  0  0  0  0
  -25.1251  -27.4658   20.4915 C   0  0  0  0  0  0  0  0  0  0  0  0
  -27.7149  -22.9809   16.9747 C   0  0  0  0  0  0  0  0  0  0  0  0
  -30.2224  -23.7355   16.0127 C   0  0  0  0  0  0  0  0  0  0  0  0
  -28.4261  -22.1244   16.1343 C   0  0  0  0  0  0  0  0  0  0  0  0
  -23.9044  -12.4396   20.1544 C   0  0  0  0  0  0  0  0  0  0  0  0
  -27.4561  -28.0829   20.1820 C   0  0  0  0  0  0  0  0  0  0  0  0
  -23.1703  -10.2718   20.6870 C   0  0  0  0  0  0  0  0  0  0  0  0
  -23.6558   -7.8119   21.9100 C   0  0  0  0  0  0  0  0  0  0  0  0
  -22.3292   -9.8206   21.7041 C   0  0  0  0  0  0  0  0  0  0  0  0
  -26.9325  -15.3848   20.3890 C   0  0  0  0  0  0  0  0  0  0  0  0
  -28.8554  -16.4510   20.3706 C   0  0  0  0  0  0  0  0  0  0  0  0
  -30.0662  -25.9027   17.2460 C   0  0  0  0  0  0  0  0  0  0  0  0
  -29.0395  -14.0145   19.8434 C   0  0  0  0  0  0  0  0  0  0  0  0
  -22.4584  -28.7316   22.1988 C   0  0  0  0  0  0  0  0  0  0  0  0
  -21.6553  -25.8959   20.8438 C   0  0  0  0  0  0  0  0  0  0  0  0
  -22.4437  -22.7076   19.3503 C   0  0  0  0  0  0  0  0  0  0  0  0
  -26.6217  -21.9858   19.8931 C   0  0  0  0  0  0  0  0  0  0  0  0
  -18.4621  -29.1580   25.3459 C   0  0  0  0  0  0  0  0  0  0  0  0
  -23.2770  -29.0531   19.8360 C   0  0  0  0  0  0  0  0  0  0  0  0
  -24.1163  -26.4425   20.9428 C   0  0  0  0  0  0  0  0  0  0  0  0
  -19.4325  -28.0453   24.9582 C   0  0  0  0  0  0  0  0  0  0  0  0
  -28.1256  -20.5250   22.7708 C   0  0  0  0  0  0  0  0  0  0  0  0
  -20.8726  -28.5429   25.0328 C   0  0  0  0  0  0  0  0  0  0  0  0
  -28.1149  -19.0256   22.4679 C   0  0  0  0  0  0  0  0  0  0  0  0
  -26.8749  -21.2180   22.2347 C   0  0  0  0  0  0  0  0  0  0  0  0
  -26.5953  -19.4902   20.4997 C   0  0  0  0  0  0  0  0  0  0  0  0
  -21.1086  -29.6980   24.0521 C   0  0  1  0  0  0  0  0  0  0  0  0
  -22.3802  -28.2537   20.7764 C   0  0  1  0  0  0  0  0  0  0  0  0
  -27.8628  -18.7576   20.9719 C   0  0  2  0  0  0  0  0  0  0  0  0
  -31.5662  -24.1179   15.4847 C   0  0  0  0  0  0  0  0  0  0  0  0
  -27.8651  -20.7991   15.7355 C   0  0  0  0  0  0  0  0  0  0  0  0
  -21.5884  -20.6318   18.2293 C   0  0  0  0  0  0  0  0  0  0  0  0
  -21.8184  -24.6613   23.6293 C   0  0  0  0  0  0  0  0  0  0  0  0
  -21.8908  -22.4041   22.5485 C   0  0  0  0  0  0  0  0  0  0  0  0
  -19.8921  -23.8659   22.2468 C   0  0  0  0  0  0  0  0  0  0  0  0
  -23.0819  -23.7587   16.6583 C   0  0  0  0  0  0  0  0  0  0  0  0
  -26.3708  -22.5982   17.5012 C   0  0  0  0  0  0  0  0  0  0  0  0
  -30.8066  -27.4059   19.0595 C   0  0  0  0  0  0  0  0  0  0  0  0
  -29.6570  -28.3570   19.3238 C   0  0  0  0  0  0  0  0  0  1  0  0
  -22.0485  -24.4554   21.0659 C   0  0  1  0  0  0  0  0  0  0  0  0
  -21.8435  -22.1239   18.0840 C   0  0  2  0  0  0  0  0  0  0  0  0
  -21.4317  -23.8665   22.3660 C   0  0  0  0  0  0  0  0  0  0  0  0
  -26.6177  -16.6475   20.6897 N   0  0  0  0  0  0  0  0  0  0  0  0
  -27.8080  -17.2713   20.6710 N   0  0  0  0  0  0  0  0  0  0  0  0
  -22.7033  -26.8255   20.7874 N   0  0  0  0  0  0  0  0  0  0  0  0
  -26.6942  -20.9249   20.8108 N   0  0  0  0  0  0  0  0  0  0  0  0
  -30.1216  -16.9152   20.3091 N   0  0  0  0  0  0  0  0  0  0  0  0
  -30.3436  -26.7816   16.2828 N   0  0  0  0  0  0  0  0  0  0  0  0
  -28.3266  -12.8184   19.6844 N   0  0  0  0  0  0  0  0  0  0  0  0
  -21.2581  -29.1937   22.7038 N   0  0  0  0  0  0  0  0  0  0  0  0
  -21.6772  -23.7388   19.8506 N   0  0  0  0  0  0  0  0  0  0  0  0
  -26.4562  -21.6202   18.5628 N   0  0  0  0  0  0  0  0  0  0  0  0
  -30.2660  -26.1444   18.5471 N   0  3  0  0  0  0  0  0  0  0  0  0
  -22.7634  -22.3334   16.9304 N   0  3  0  0  0  0  0  0  0  0  0  0
  -30.2862  -14.0093   19.7044 O   0  0  0  0  0  0  0  0  0  0  0  0
  -23.5283  -28.6832   22.7945 O   0  0  0  0  0  0  0  0  0  0  0  0
  -20.4626  -26.1846   20.7175 O   0  0  0  0  0  0  0  0  0  0  0  0
  -23.4861  -22.2880   19.8481 O   0  0  0  0  0  0  0  0  0  0  0  0
  -26.7041  -23.1709   20.2334 O   0  0  0  0  0  0  0  0  0  0  0  0
  -22.9302  -11.4922   20.0783 O   0  0  0  0  0  0  0  0  0  0  0  0
  -28.7777  -27.7758   20.2858 O   0  0  0  0  0  0  0  0  0  1  0  0
  -23.8881   -6.6301   22.4961 F   0  0  0  0  0  0  0  0  0  0  0  0
  -21.2857  -10.5638   22.0974 F   0  0  0  0  0  0  0  0  0  0  0  0
  1  2  1  0  0  0  0
  1  5  2  0  0  0  0
  2  6  2  0  0  0  0
  3  8  2  0  0  0  0
  3 17  1  0  0  0  0
  4  9  1  0  0  0  0
  4 17  2  0  0  0  0
  5 20  1  0  0  0  0
  6 22  1  0  0  0  0
  7 10  2  0  0  0  0
  7 21  1  0  0  0  0
  8 27  1  0  0  0  0
  9 27  2  0  0  0  0
 10 28  1  0  0  0  0
 11 12  2  0  0  0  0
 11 29  1  0  0  0  0
 12 30  1  0  0  0  0
 13 18  1  0  0  0  0
 13 24  2  0  0  0  0
 14 23  1  0  0  0  0
 14 28  2  0  0  0  0
 15 25  1  0  0  0  0
 15 26  2  0  0  0  0
 16 30  2  0  0  0  0
 16 31  1  0  0  0  0
 17 32  1  0  0  0  0
 18 25  2  0  0  0  0
 18 34  1  0  0  0  0
 19 32  1  0  0  0  0
 19 33  2  0  0  0  0
 19 35  1  0  0  0  0
 20 22  2  0  0  0  0
 20 40  1  0  0  0  0
 21 23  2  0  0  0  0
 21 41  1  0  0  0  0
 22 49  1  0  0  0  0
 23 42  1  0  0  0  0
 24 26  1  0  0  0  0
 24 59  1  0  0  0  0
 25 52  1  0  0  0  0
 26 53  1  0  0  0  0
 27 82  1  0  0  0  0
 28 83  1  0  0  0  0
 29 31  2  0  0  0  0
 29 82  1  0  0  0  0
 30 84  1  0  0  0  0
 31 85  1  0  0  0  0
 32 65  2  0  0  0  0
 33 66  1  0  0  0  0
 33 69  1  0  0  0  0
 34 70  1  0  0  0  0
 34 75  2  0  0  0  0
 35 71  1  0  0  0  0
 35 77  2  0  0  0  0
 36 50  1  0  0  0  0
 36 72  1  0  0  0  0
 36 78  2  0  0  0  0
 37 62  1  0  0  0  0
 37 67  1  0  0  0  0
 37 79  2  0  0  0  0
 38 63  1  0  0  0  0
 38 73  1  0  0  0  0
 38 80  2  0  0  0  0
 39 68  1  0  0  0  0
 39 74  1  0  0  0  0
 39 81  2  0  0  0  0
 40 43  1  0  0  0  0
 41 50  1  0  0  0  0
 42 67  1  0  0  0  0
 43 45  1  0  0  0  0
 44 46  1  0  0  0  0
 44 47  1  0  0  0  0
 45 49  1  0  0  0  0
 46 51  1  0  0  0  0
 47 68  1  0  0  0  0
 48 51  1  0  0  0  0
 48 68  1  0  0  0  0
 49 72  1  0  0  0  0
 50 67  1  0  0  0  0
 51 66  1  0  0  0  0
 54 63  1  0  0  0  0
 55 64  1  0  0  0  0
 56 64  1  0  0  0  0
 57 64  1  0  0  0  0
 58 76  1  0  0  0  0
 59 74  1  0  0  0  0
 60 61  1  0  0  0  0
 60 75  1  0  0  0  0
 61 83  1  0  0  0  0
 62 64  1  0  0  0  0
 62 73  1  0  0  0  0
 63 76  1  0  0  0  0
 65 66  1  0  0  0  0
M  CHG  2  75   1  76   1
M  ISO  4  39 100  61 101  74 100  83 101
M  END
> <Batch ID>
0032

> <Smiles>
CNC(C)C(=O)NC(C(=O)N1Cc2cc([101O:1][101CH2:1]CNC(=N)c3cc(C[100NH:0][100C:0](=O)N4CCCC(n5nc(-c6ccc(Oc7ccc(F)cc7F)cc6)c(C(N)=O)c5N)C4)c(C)cc3C)ccc2CC1C(=O)NC1CCCc2ccccc21)C(C)(C)C

> <Shape>
0.234

> <Color>
0.090

> <Negative vol penalty>
0.000

$$$$

  -OEChem-04042321423D

 87 96  0     1  0  0  0  0  0999 V2000
  -19.4051  -24.4937   23.3025 C   0  0  0  0  0  0  0  0  0  0  0  0
  -20.5681  -24.6543   22.5561 C   0  0  0  0  0  0  0  0  0  0  0  0
  -25.3239  -12.8022   21.6594 C   0  0  0  0  0  0  0  0  0  0  0  0
  -25.7528  -13.0271   19.2924 C   0  0  0  0  0  0  0  0  0  0  0  0
  -18.5766  -25.5887   23.5444 C   0  0  0  0  0  0  0  0  0  0  0  0
  -20.9026  -25.9099   22.0502 C   0  0  0  0  0  0  0  0  0  0  0  0
  -25.7911  -27.0407   22.7351 C   0  0  0  0  0  0  0  0  0  0  0  0
  -24.6521  -11.6027   21.4237 C   0  0  0  0  0  0  0  0  0  0  0  0
  -25.0810  -11.8276   19.0567 C   0  0  0  0  0  0  0  0  0  0  0  0
  -26.7085  -26.4536   21.8647 C   0  0  0  0  0  0  0  0  0  0  0  0
  -25.4561   -8.3771   20.8055 C   0  0  0  0  0  0  0  0  0  0  0  0
  -25.7399   -7.2995   21.6444 C   0  0  0  0  0  0  0  0  0  0  0  0
  -26.7961  -28.4982   20.5875 C   0  0  0  0  0  0  0  0  0  0  0  0
  -31.9637  -22.2204   19.2612 C   0  0  0  0  0  0  0  0  0  0  0  0
  -29.4891  -23.1512   20.1517 C   0  0  0  0  0  0  0  0  0  0  0  0
  -23.4228   -7.2184   22.3240 C   0  0  0  0  0  0  0  0  0  0  0  0
  -25.8743  -13.5144   20.5937 C   0  0  0  0  0  0  0  0  0  0  0  0
  -27.9403  -14.9222   21.1010 C   0  0  0  0  0  0  0  0  0  0  0  0
  -18.9061  -26.8603   23.0494 C   0  0  0  0  0  0  0  0  0  0  0  0
  -25.3604  -28.3596   22.5315 C   0  0  0  0  0  0  0  0  0  0  0  0
  -20.0771  -27.0227   22.2845 C   0  0  0  0  0  0  0  0  0  0  0  0
  -25.8752  -29.1006   21.4582 C   0  0  0  0  0  0  0  0  0  0  0  0
  -31.8776  -23.4405   19.9318 C   0  0  0  0  0  0  0  0  0  0  0  0
  -30.8124  -21.4657   19.0358 C   0  0  0  0  0  0  0  0  0  0  0  0
  -30.6404  -23.9058   20.3770 C   0  0  0  0  0  0  0  0  0  0  0  0
  -29.5751  -21.9311   19.4811 C   0  0  0  0  0  0  0  0  0  0  0  0
  -24.5307  -11.1154   20.1223 C   0  0  0  0  0  0  0  0  0  0  0  0
  -27.2089  -27.1813   20.7891 C   0  0  0  0  0  0  0  0  0  0  0  0
  -24.1557   -8.8755   20.7259 C   0  0  0  0  0  0  0  0  0  0  0  0
  -24.7232   -6.7201   22.4036 C   0  0  0  0  0  0  0  0  0  0  0  0
  -23.1390   -8.2961   21.4851 C   0  0  0  0  0  0  0  0  0  0  0  0
  -26.5679  -14.7538   20.8365 C   0  0  0  0  0  0  0  0  0  0  0  0
  -28.0960  -16.2779   21.2572 C   0  0  0  0  0  0  0  0  0  0  0  0
  -32.0670  -27.1505   20.6240 C   0  0  0  0  0  0  0  0  0  0  0  0
  -28.9813  -13.9409   21.1968 C   0  0  0  0  0  0  0  0  0  0  0  0
  -22.5590  -29.7373   21.9333 C   0  0  0  0  0  0  0  0  0  0  0  0
  -24.2687  -32.4713   22.2864 C   0  0  0  0  0  0  0  0  0  0  0  0
  -27.3067  -34.0226   22.1809 C   0  0  0  0  0  0  0  0  0  0  0  0
  -27.0964  -21.5132   19.6464 C   0  0  0  0  0  0  0  0  0  0  0  0
  -17.9551  -28.0044   23.2967 C   0  0  0  0  0  0  0  0  0  0  0  0
  -24.3907  -28.9873   23.4949 C   0  0  0  0  0  0  0  0  0  0  0  0
  -25.4602  -30.5265   21.2076 C   0  0  0  0  0  0  0  0  0  0  0  0
  -32.1851  -28.1824   19.5292 C   0  0  0  0  0  0  0  0  0  0  0  0
  -18.5738  -29.3766   23.0423 C   0  0  0  0  0  0  0  0  0  0  0  0
  -31.3970  -27.5690   18.3756 C   0  0  0  0  0  0  0  0  0  0  0  0
  -24.6510  -19.9581   21.7150 C   0  0  0  0  0  0  0  0  0  0  0  0
  -19.3325  -29.3830   21.7190 C   0  0  0  0  0  0  0  0  0  0  0  0
  -25.0446  -18.4794   21.6926 C   0  0  0  0  0  0  0  0  0  0  0  0
  -24.8875  -20.6285   20.3628 C   0  0  0  0  0  0  0  0  0  0  0  0
  -26.6349  -18.9872   19.7952 C   0  0  0  0  0  0  0  0  0  0  0  0
  -20.4868  -28.3738   21.7398 C   0  0  1  0  0  0  0  0  0  0  0  0
  -23.6310  -30.1664   22.8948 C   0  0  1  0  0  0  0  0  0  0  0  0
  -26.4755  -18.2851   21.1536 C   0  0  2  0  0  0  0  0  0  0  0  0
  -30.3392  -26.7066   19.0573 C   0  0  2  0  0  0  0  0  0  0  0  0
  -33.1236  -24.2313   20.1612 C   0  0  0  0  0  0  0  0  0  0  0  0
  -30.9342  -20.1625   18.3150 C   0  0  0  0  0  0  0  0  0  0  0  0
  -28.3823  -36.2701   22.4793 C   0  0  0  0  0  0  0  0  0  0  0  0
  -23.2123  -33.3365   19.5577 C   0  0  0  0  0  0  0  0  0  0  0  0
  -25.0126  -35.0750   19.4896 C   0  0  0  0  0  0  0  0  0  0  0  0
  -23.2736  -35.1523   21.2763 C   0  0  0  0  0  0  0  0  0  0  0  0
  -28.9816  -33.0528   24.4200 C   0  0  0  0  0  0  0  0  0  0  0  0
  -30.5232  -25.2161   21.1008 C   0  0  0  0  0  0  0  0  0  0  0  0
  -29.0477  -27.4776   19.3101 C   0  0  0  0  0  0  0  0  0  1  0  0
  -25.0595  -33.3647   21.3614 C   0  0  1  0  0  0  0  0  0  0  0  0
  -27.9908  -34.9650   23.1547 C   0  0  2  0  0  0  0  0  0  0  0  0
  -24.1460  -34.2046   20.4246 C   0  0  0  0  0  0  0  0  0  0  0  0
  -25.8993  -15.9100   20.8247 N   0  0  0  0  0  0  0  0  0  0  0  0
  -26.8557  -16.8180   21.0839 N   0  0  0  0  0  0  0  0  0  0  0  0
  -30.9944  -26.3243   20.2954 N   0  0  0  0  0  0  0  0  0  0  0  0
  -24.5050  -31.0939   22.1737 N   0  0  0  0  0  0  0  0  0  0  0  0
  -26.2649  -20.4060   19.9176 N   0  0  0  0  0  0  0  0  0  0  0  0
  -29.1715  -17.0487   21.5246 N   0  0  0  0  0  0  0  0  0  0  0  0
  -28.6479  -12.5927   21.0090 N   0  0  0  0  0  0  0  0  0  0  0  0
  -28.3945  -21.1789   19.2620 N   0  0  0  0  0  0  0  0  0  0  0  0
  -21.6072  -28.9029   22.4876 N   0  0  0  0  0  0  0  0  0  0  0  0
  -25.9353  -34.1616   22.2137 N   0  0  0  0  0  0  0  0  0  0  0  0
  -29.2226  -34.3340   23.7075 N   0  3  0  0  0  0  0  0  0  0  0  0
  -32.7789  -27.1072   21.6163 O   0  0  0  0  0  0  0  0  0  0  0  0
  -30.1689  -14.2491   21.4580 O   0  0  0  0  0  0  0  0  0  0  0  0
  -22.5921  -30.1352   20.7747 O   0  0  0  0  0  0  0  0  0  0  0  0
  -23.4760  -32.9774   23.0845 O   0  0  0  0  0  0  0  0  0  0  0  0
  -27.9271  -33.2438   21.4604 O   0  0  0  0  0  0  0  0  0  0  0  0
  -26.6951  -22.6728   19.7739 O   0  0  0  0  0  0  0  0  0  0  0  0
  -23.8754   -9.9449   19.8920 O   0  0  0  0  0  0  0  0  0  0  0  0
  -28.1039  -26.6104   19.9376 O   0  0  0  0  0  0  0  0  0  1  0  0
  -24.9956   -5.6842   23.2079 F   0  0  0  0  0  0  0  0  0  0  0  0
  -21.8876   -8.7697   21.4119 F   0  0  0  0  0  0  0  0  0  0  0  0
  1  2  1  0  0  0  0
  1  5  2  0  0  0  0
  2  6  2  0  0  0  0
  3  8  2  0  0  0  0
  3 17  1  0  0  0  0
  4  9  1  0  0  0  0
  4 17  2  0  0  0  0
  5 19  1  0  0  0  0
  6 21  1  0  0  0  0
  7 10  2  0  0  0  0
  7 20  1  0  0  0  0
  8 27  1  0  0  0  0
  9 27  2  0  0  0  0
 10 28  1  0  0  0  0
 11 12  2  0  0  0  0
 11 29  1  0  0  0  0
 12 30  1  0  0  0  0
 13 22  1  0  0  0  0
 13 28  2  0  0  0  0
 14 23  1  0  0  0  0
 14 24  2  0  0  0  0
 15 25  1  0  0  0  0
 15 26  2  0  0  0  0
 16 30  2  0  0  0  0
 16 31  1  0  0  0  0
 17 32  1  0  0  0  0
 18 32  1  0  0  0  0
 18 33  2  0  0  0  0
 18 35  1  0  0  0  0
 19 21  2  0  0  0  0
 19 40  1  0  0  0  0
 20 22  2  0  0  0  0
 20 41  1  0  0  0  0
 21 51  1  0  0  0  0
 22 42  1  0  0  0  0
 23 25  2  0  0  0  0
 23 55  1  0  0  0  0
 24 26  1  0  0  0  0
 24 56  1  0  0  0  0
 25 62  1  0  0  0  0
 26 74  1  0  0  0  0
 27 84  1  0  0  0  0
 28 85  1  0  0  0  0
 29 31  2  0  0  0  0
 29 84  1  0  0  0  0
 30 86  1  0  0  0  0
 31 87  1  0  0  0  0
 32 67  2  0  0  0  0
 33 68  1  0  0  0  0
 33 72  1  0  0  0  0
 34 43  1  0  0  0  0
 34 69  1  0  0  0  0
 34 78  2  0  0  0  0
 35 73  1  0  0  0  0
 35 79  2  0  0  0  0
 36 52  1  0  0  0  0
 36 75  1  0  0  0  0
 36 80  2  0  0  0  0
 37 64  1  0  0  0  0
 37 70  1  0  0  0  0
 37 81  2  0  0  0  0
 38 65  1  0  0  0  0
 38 76  1  0  0  0  0
 38 82  2  0  0  0  0
 39 71  1  0  0  0  0
 39 74  1  0  0  0  0
 39 83  2  0  0  0  0
 40 44  1  0  0  0  0
 41 52  1  0  0  0  0
 42 70  1  0  0  0  0
 43 45  1  0  0  0  0
 44 47  1  0  0  0  0
 45 54  1  0  0  0  0
 46 48  1  0  0  0  0
 46 49  1  0  0  0  0
 47 51  1  0  0  0  0
 48 53  1  0  0  0  0
 49 71  1  0  0  0  0
 50 53  1  0  0  0  0
 50 71  1  0  0  0  0
 51 75  1  0  0  0  0
 52 70  1  0  0  0  0
 53 68  1  0  0  0  0
 54 63  1  0  0  0  0
 54 69  1  0  0  0  0
 57 65  1  0  0  0  0
 58 66  1  0  0  0  0
 59 66  1  0  0  0  0
 60 66  1  0  0  0  0
 61 77  1  0  0  0  0
 62 69  1  0  0  0  0
 63 85  1  0  0  0  0
 64 66  1  0  0  0  0
 64 76  1  0  0  0  0
 65 77  1  0  0  0  0
 67 68  1  0  0  0  0
M  CHG  1  77   1
M  ISO  4  39 100  63 101  74 100  85 101
M  END
> <Batch ID>
0032

> <Smiles>
CNC(C)C(=O)NC(C(=O)N1Cc2cc([101O:1][101CH2:1]C3CCC(=O)N3Cc3cc([100NH:0][100C:0](=O)N4CCCC(n5nc(-c6ccc(Oc7ccc(F)cc7F)cc6)c(C(N)=O)c5N)C4)c(C)cc3C)ccc2CC1C(=O)NC1CCCc2ccccc21)C(C)(C)C

> <Shape>
0.288

> <Color>
0.082

> <Negative vol penalty>
0.000

$$$$

  -OEChem-04042321423D

 89 98  0     1  0  0  0  0  0999 V2000
  -25.3174  -30.6418   20.2250 C   0  0  0  0  0  0  0  0  0  0  0  0
  -25.4440  -29.7262   21.2647 C   0  0  0  0  0  0  0  0  0  0  0  0
  -22.4784  -10.6969   20.2906 C   0  0  0  0  0  0  0  0  0  0  0  0
  -24.0763   -9.7145   21.8133 C   0  0  0  0  0  0  0  0  0  0  0  0
  -24.0680  -31.1804   19.9202 C   0  0  0  0  0  0  0  0  0  0  0  0
  -24.3213  -29.3494   22.0009 C   0  0  0  0  0  0  0  0  0  0  0  0
  -24.0950  -24.3502   22.7769 C   0  0  0  0  0  0  0  0  0  0  0  0
  -29.5368  -19.2464   23.3989 C   0  0  0  0  0  0  0  0  0  0  0  0
  -30.2151  -18.4064   22.5157 C   0  0  0  0  0  0  0  0  0  0  0  0
  -21.6213   -9.6151   20.4920 C   0  0  0  0  0  0  0  0  0  0  0  0
  -23.2191   -8.6327   22.0148 C   0  0  0  0  0  0  0  0  0  0  0  0
  -24.9161  -23.8226   23.7725 C   0  0  0  0  0  0  0  0  0  0  0  0
  -22.3566   -5.8000   20.3829 C   0  0  0  0  0  0  0  0  0  0  0  0
  -22.9114   -4.5205   20.3590 C   0  0  0  0  0  0  0  0  0  0  0  0
  -23.0376  -23.7692   25.2850 C   0  0  0  0  0  0  0  0  0  0  0  0
  -29.8100  -17.6153   25.1601 C   0  0  0  0  0  0  0  0  0  0  0  0
  -22.1654   -4.1547   22.6277 C   0  0  0  0  0  0  0  0  0  0  0  0
  -23.7060  -10.7466   20.9512 C   0  0  0  0  0  0  0  0  0  0  0  0
  -24.3261  -13.2204   21.0077 C   0  0  0  0  0  0  0  0  0  0  0  0
  -22.9278  -30.8027   20.6468 C   0  0  0  0  0  0  0  0  0  0  0  0
  -22.7392  -24.6019   23.0317 C   0  0  0  0  0  0  0  0  0  0  0  0
  -23.0557  -29.8845   21.7065 C   0  0  0  0  0  0  0  0  0  0  0  0
  -22.2009  -24.2977   24.2902 C   0  0  0  0  0  0  0  0  0  0  0  0
  -29.3343  -18.8509   24.7211 C   0  0  0  0  0  0  0  0  0  0  0  0
  -30.6907  -17.1708   22.9547 C   0  0  0  0  0  0  0  0  0  0  0  0
  -30.4882  -16.7752   24.2769 C   0  0  0  0  0  0  0  0  0  0  0  0
  -21.9916   -8.5830   21.3541 C   0  0  0  0  0  0  0  0  0  0  0  0
  -24.3881  -23.5347   25.0277 C   0  0  0  0  0  0  0  0  0  0  0  0
  -21.7063   -6.2570   21.5292 C   0  0  0  0  0  0  0  0  0  0  0  0
  -22.8158   -3.6978   21.4814 C   0  0  0  0  0  0  0  0  0  0  0  0
  -21.6107   -5.4343   22.6516 C   0  0  0  0  0  0  0  0  0  0  0  0
  -24.5921  -11.8636   20.7431 C   0  0  0  0  0  0  0  0  0  0  0  0
  -25.4777  -13.8737   20.6420 C   0  0  0  0  0  0  0  0  0  0  0  0
  -26.3190  -19.6495   24.8714 C   0  0  0  0  0  0  0  0  0  0  0  0
  -25.9352  -18.6736   24.0348 C   0  0  0  0  0  0  0  0  0  0  0  0
  -23.1439  -13.8354   21.5368 C   0  0  0  0  0  0  0  0  0  0  0  0
  -20.9044  -27.1974   23.0498 C   0  0  0  0  0  0  0  0  0  0  0  0
  -18.5287  -25.0393   23.5197 C   0  0  0  0  0  0  0  0  0  0  0  0
  -18.0383  -22.0468   25.4747 C   0  0  0  0  0  0  0  0  0  0  0  0
  -31.0443  -14.2680   20.5967 C   0  0  0  0  0  0  0  0  0  0  0  0
  -21.6065  -31.4477   20.3112 C   0  0  0  0  0  0  0  0  0  0  0  0
  -21.8608  -25.1463   21.9388 C   0  0  0  0  0  0  0  0  0  0  0  0
  -20.7472  -24.5304   24.6082 C   0  0  0  0  0  0  0  0  0  0  0  0
  -25.8463  -21.0723   24.7463 C   0  0  0  0  0  0  0  0  0  0  0  0
  -20.4036  -30.7125   20.8969 C   0  0  0  0  0  0  0  0  0  0  0  0
  -29.5305  -12.2291   18.1011 C   0  0  0  0  0  0  0  0  0  0  0  0
  -20.6508  -30.3668   22.3618 C   0  0  0  0  0  0  0  0  0  0  0  0
  -28.0914  -12.0593   18.5910 C   0  0  0  0  0  0  0  0  0  0  0  0
  -26.2568  -21.2633   27.2231 C   0  0  0  0  0  0  0  0  0  0  0  0
  -30.5232  -12.2477   19.2614 C   0  0  0  0  0  0  0  0  0  0  0  0
  -28.7852  -13.0642   20.8062 C   0  0  0  0  0  0  0  0  0  0  0  0
  -26.6430  -19.7871   27.2742 C   0  0  0  0  0  0  0  0  0  0  0  0
  -21.8572  -29.4321   22.5121 C   0  0  1  0  0  0  0  0  0  0  0  0
  -20.6112  -25.8434   22.4681 C   0  0  1  0  0  0  0  0  0  0  0  0
  -27.7423  -13.0958   19.6759 C   0  0  2  0  0  0  0  0  0  0  0  0
  -25.2861  -21.5949   26.0775 C   0  0  2  0  0  0  0  0  0  1  0  0
  -30.9882  -15.4568   24.7693 C   0  0  0  0  0  0  0  0  0  0  0  0
  -26.3920  -17.2598   24.1422 C   0  0  0  0  0  0  0  0  0  0  0  0
  -23.8802  -21.0489   26.3547 C   0  0  0  0  0  0  0  0  0  0  0  0
  -16.5410  -20.0709   25.0857 C   0  0  0  0  0  0  0  0  0  0  0  0
  -16.5571  -26.5512   25.2908 C   0  0  0  0  0  0  0  0  0  0  0  0
  -15.8986  -24.3605   26.3083 C   0  0  0  0  0  0  0  0  0  0  0  0
  -15.5292  -24.7645   23.8746 C   0  0  0  0  0  0  0  0  0  0  0  0
  -20.3035  -20.1498   25.6462 C   0  0  0  0  0  0  0  0  0  0  0  0
  -31.4130  -16.2880   21.9906 C   0  0  0  0  0  0  0  0  0  0  0  0
  -28.6044  -19.7544   25.6707 C   0  0  0  0  0  0  0  0  0  0  0  0
  -17.8819  -24.4076   24.7287 C   0  0  1  0  0  0  0  0  0  0  0  0
  -17.9514  -20.6241   24.9524 C   0  0  2  0  0  0  0  0  0  0  0  0
  -16.4938  -25.0295   25.0510 C   0  0  0  0  0  0  0  0  0  0  0  0
  -25.8164  -11.6652   20.2474 N   0  0  0  0  0  0  0  0  0  0  0  0
  -26.3300  -12.9061   20.1976 N   0  0  0  0  0  0  0  0  0  0  0  0
  -19.9304  -25.0700   23.5086 N   0  0  0  0  0  0  0  0  0  0  0  0
  -30.1360  -13.2528   20.2542 N   0  0  0  0  0  0  0  0  0  0  0  0
  -25.8341  -15.1756   20.6604 N   0  0  0  0  0  0  0  0  0  0  0  0
  -23.0334  -13.9854   22.9259 N   0  0  0  0  0  0  0  0  0  0  0  0
  -21.4930  -28.0763   22.1607 N   0  0  0  0  0  0  0  0  0  0  0  0
  -17.8481  -22.9722   24.4704 N   0  0  0  0  0  0  0  0  0  0  0  0
  -30.5955  -15.1834   21.5408 N   0  0  0  0  0  0  0  0  0  0  0  0
  -27.2005  -19.2975   25.9572 N   0  3  2  0  0  0  0  0  0  0  0  0
  -18.8780  -19.7365   25.7103 N   0  3  0  0  0  0  0  0  0  0  0  0
  -22.2059  -14.2249   20.8006 O   0  0  0  0  0  0  0  0  0  0  0  0
  -20.6164  -27.4283   24.2183 O   0  0  0  0  0  0  0  0  0  0  0  0
  -17.8166  -25.4824   22.6152 O   0  0  0  0  0  0  0  0  0  0  0  0
  -18.2499  -22.3108   26.6563 O   0  0  0  0  0  0  0  0  0  0  0  0
  -32.1698  -14.3554   20.0942 O   0  0  0  0  0  0  0  0  0  0  0  0
  -21.1554   -7.5273   21.5511 O   0  0  0  0  0  0  0  0  0  0  0  0
  -25.1875  -23.0203   26.0014 O   0  0  0  0  0  0  0  0  0  1  0  0
  -23.3472   -2.4685   21.4578 F   0  0  0  0  0  0  0  0  0  0  0  0
  -20.9861   -5.8674   23.7553 F   0  0  0  0  0  0  0  0  0  0  0  0
  1  2  1  0  0  0  0
  1  5  2  0  0  0  0
  2  6  2  0  0  0  0
  3 10  2  0  0  0  0
  3 18  1  0  0  0  0
  4 11  1  0  0  0  0
  4 18  2  0  0  0  0
  5 20  1  0  0  0  0
  6 22  1  0  0  0  0
  7 12  2  0  0  0  0
  7 21  1  0  0  0  0
  8  9  2  0  0  0  0
  8 24  1  0  0  0  0
  9 25  1  0  0  0  0
 10 27  1  0  0  0  0
 11 27  2  0  0  0  0
 12 28  1  0  0  0  0
 13 14  2  0  0  0  0
 13 29  1  0  0  0  0
 14 30  1  0  0  0  0
 15 23  1  0  0  0  0
 15 28  2  0  0  0  0
 16 24  2  0  0  0  0
 16 26  1  0  0  0  0
 17 30  2  0  0  0  0
 17 31  1  0  0  0  0
 18 32  1  0  0  0  0
 19 32  1  0  0  0  0
 19 33  2  0  0  0  0
 19 36  1  0  0  0  0
 20 22  2  0  0  0  0
 20 41  1  0  0  0  0
 21 23  2  0  0  0  0
 21 42  1  0  0  0  0
 22 53  1  0  0  0  0
 23 43  1  0  0  0  0
 24 66  1  0  0  0  0
 25 26  2  0  0  0  0
 25 65  1  0  0  0  0
 26 57  1  0  0  0  0
 27 86  1  0  0  0  0
 28 87  1  0  0  0  0
 29 31  2  0  0  0  0
 29 86  1  0  0  0  0
 30 88  1  0  0  0  0
 31 89  1  0  0  0  0
 32 70  2  0  0  0  0
 33 71  1  0  0  0  0
 33 74  1  0  0  0  0
 34 35  2  0  0  0  0
 34 44  1  0  0  0  0
 34 79  1  0  0  0  0
 35 58  1  0  0  0  0
 36 75  1  0  0  0  0
 36 81  2  0  0  0  0
 37 54  1  0  0  0  0
 37 76  1  0  0  0  0
 37 82  2  0  0  0  0
 38 67  1  0  0  0  0
 38 72  1  0  0  0  0
 38 83  2  0  0  0  0
 39 68  1  0  0  0  0
 39 77  1  0  0  0  0
 39 84  2  0  0  0  0
 40 73  1  0  0  0  0
 40 78  1  0  0  0  0
 40 85  2  0  0  0  0
 41 45  1  0  0  0  0
 42 54  1  0  0  0  0
 43 72  1  0  0  0  0
 44 56  1  0  0  0  0
 45 47  1  0  0  0  0
 46 48  1  0  0  0  0
 46 50  1  0  0  0  0
 47 53  1  0  0  0  0
 48 55  1  0  0  0  0
 49 52  1  0  0  0  0
 49 56  1  0  0  0  0
 50 73  1  0  0  0  0
 51 55  1  0  0  0  0
 51 73  1  0  0  0  0
 52 79  1  0  0  0  0
 53 76  1  0  0  0  0
 54 72  1  0  0  0  0
 55 71  1  0  0  0  0
 56 59  1  0  0  0  0
 56 87  1  0  0  0  0
 60 68  1  0  0  0  0
 61 69  1  0  0  0  0
 62 69  1  0  0  0  0
 63 69  1  0  0  0  0
 64 80  1  0  0  0  0
 65 78  1  0  0  0  0
 66 79  1  0  0  0  0
 67 69  1  0  0  0  0
 67 77  1  0  0  0  0
 68 80  1  0  0  0  0
 70 71  1  0  0  0  0
M  CHG  2  79   1  80   1
M  ISO  4  40 100  56 101  78 100  87 101
M  END
> <Batch ID>
0032

> <Smiles>
CC=C1C[101C:1](C)([101O:1]c2ccc3c(c2)CN(C(=O)C(NC(=O)C(C)NC)C(C)(C)C)C(C(=O)NC2CCCc4ccccc42)C3)CCN1Cc1ccc(C[100NH:0][100C:0](=O)N2CCCC(n3nc(-c4ccc(Oc5ccc(F)cc5F)cc4)c(C(N)=O)c3N)C2)c(C)c1

> <Shape>
0.256

> <Color>
0.166

> <Negative vol penalty>
0.000

$$$$

  -OEChem-04042321423D

 80 88  0     1  0  0  0  0  0999 V2000
  -28.0667  -37.0419   21.1534 C   0  0  0  0  0  0  0  0  0  0  0  0
  -28.4791  -35.7240   20.9844 C   0  0  0  0  0  0  0  0  0  0  0  0
  -26.8772  -12.7438   21.8095 C   0  0  0  0  0  0  0  0  0  0  0  0
  -26.2301  -14.3752   20.1492 C   0  0  0  0  0  0  0  0  0  0  0  0
  -26.9485  -37.3263   21.9362 C   0  0  0  0  0  0  0  0  0  0  0  0
  -27.7742  -34.6898   21.5992 C   0  0  0  0  0  0  0  0  0  0  0  0
  -26.8432  -29.0516   19.3971 C   0  0  0  0  0  0  0  0  0  0  0  0
  -25.5571  -12.3005   21.8885 C   0  0  0  0  0  0  0  0  0  0  0  0
  -24.9099  -13.9319   20.2282 C   0  0  0  0  0  0  0  0  0  0  0  0
  -27.4792  -27.8342   19.6366 C   0  0  0  0  0  0  0  0  0  0  0  0
  -22.4233  -10.4967   22.2633 C   0  0  0  0  0  0  0  0  0  0  0  0
  -22.2008   -9.1197   22.2693 C   0  0  0  0  0  0  0  0  0  0  0  0
  -25.7901  -27.2795   21.2671 C   0  0  0  0  0  0  0  0  0  0  0  0
  -30.3958  -22.6793   22.0136 C   0  0  0  0  0  0  0  0  0  0  0  0
  -29.5737  -21.7859   19.9248 C   0  0  0  0  0  0  0  0  0  0  0  0
  -23.2607   -8.9391   20.1056 C   0  0  0  0  0  0  0  0  0  0  0  0
  -27.2138  -13.7812   20.9399 C   0  0  0  0  0  0  0  0  0  0  0  0
  -29.5843  -13.7638   19.9976 C   0  0  0  0  0  0  0  0  0  0  0  0
  -26.2239  -36.2943   22.5530 C   0  0  0  0  0  0  0  0  0  0  0  0
  -25.6801  -29.3973   20.0999 C   0  0  0  0  0  0  0  0  0  0  0  0
  -26.6461  -34.9608   22.3921 C   0  0  0  0  0  0  0  0  0  0  0  0
  -25.1399  -28.5007   21.0329 C   0  0  0  0  0  0  0  0  0  0  0  0
  -29.9193  -23.9419   21.6611 C   0  0  0  0  0  0  0  0  0  0  0  0
  -29.0971  -23.0486   19.5724 C   0  0  0  0  0  0  0  0  0  0  0  0
  -29.2699  -24.1266   20.4406 C   0  0  0  0  0  0  0  0  0  0  0  0
  -30.2231  -21.6013   21.1454 C   0  0  0  0  0  0  0  0  0  0  0  0
  -24.5734  -12.8945   21.0978 C   0  0  0  0  0  0  0  0  0  0  0  0
  -26.9543  -26.9492   20.5738 C   0  0  0  0  0  0  0  0  0  0  0  0
  -23.0644  -11.0949   21.1785 C   0  0  0  0  0  0  0  0  0  0  0  0
  -22.6195   -8.3409   21.1905 C   0  0  0  0  0  0  0  0  0  0  0  0
  -23.4831  -10.3162   20.0997 C   0  0  0  0  0  0  0  0  0  0  0  0
  -28.5772  -14.2400   20.8583 C   0  0  0  0  0  0  0  0  0  0  0  0
  -30.6879  -14.5198   20.3090 C   0  0  0  0  0  0  0  0  0  0  0  0
  -29.5272  -12.7306   19.0052 C   0  0  0  0  0  0  0  0  0  0  0  0
  -24.8839  -31.7251   22.1127 C   0  0  0  0  0  0  0  0  0  0  0  0
  -21.9293  -30.4124   21.8490 C   0  0  0  0  0  0  0  0  0  0  0  0
  -20.0322  -27.6655   21.1404 C   0  0  0  0  0  0  0  0  0  0  0  0
  -31.3713  -19.9633   22.6767 C   0  0  0  0  0  0  0  0  0  0  0  0
  -25.0497  -36.6545   23.4284 C   0  0  0  0  0  0  0  0  0  0  0  0
  -24.9911  -30.7027   19.8107 C   0  0  0  0  0  0  0  0  0  0  0  0
  -23.8821  -28.8157   21.7992 C   0  0  0  0  0  0  0  0  0  0  0  0
  -24.1366  -35.4716   23.7398 C   0  0  0  0  0  0  0  0  0  0  0  0
  -32.6855  -16.9080   23.9477 C   0  0  0  0  0  0  0  0  0  0  0  0
  -24.9599  -34.2563   24.1546 C   0  0  0  0  0  0  0  0  0  0  0  0
  -31.8770  -15.8337   23.2168 C   0  0  0  0  0  0  0  0  0  0  0  0
  -31.8310  -18.1278   24.2876 C   0  0  0  0  0  0  0  0  0  0  0  0
  -30.2980  -17.6398   22.4219 C   0  0  0  0  0  0  0  0  0  0  0  0
  -25.8929  -33.8096   23.0226 C   0  0  1  0  0  0  0  0  0  0  0  0
  -24.0997  -31.1744   20.9554 C   0  0  1  0  0  0  0  0  0  0  0  0
  -31.1320  -16.4187   22.0010 C   0  0  2  0  0  0  0  0  0  0  0  0
  -30.1176  -25.0799   22.6082 C   0  0  0  0  0  0  0  0  0  0  0  0
  -28.4052  -23.2195   18.2597 C   0  0  0  0  0  0  0  0  0  0  0  0
  -17.6478  -26.8886   21.0485 C   0  0  0  0  0  0  0  0  0  0  0  0
  -21.8696  -30.2430   24.8949 C   0  0  0  0  0  0  0  0  0  0  0  0
  -19.9576  -28.6386   24.6987 C   0  0  0  0  0  0  0  0  0  0  0  0
  -19.7183  -30.9715   23.8483 C   0  0  0  0  0  0  0  0  0  0  0  0
  -20.2178  -27.0646   18.2485 C   0  0  0  0  0  0  0  0  0  0  0  0
  -28.7568  -25.4847   20.0618 C   0  0  0  0  0  0  0  0  0  1  0  0
  -21.1695  -29.3335   22.5822 C   0  0  1  0  0  0  0  0  0  0  0  0
  -18.8052  -27.4874   20.2645 C   0  0  2  0  0  0  0  0  0  0  0  0
  -20.7036  -29.7913   23.9931 C   0  0  0  0  0  0  0  0  0  0  0  0
  -29.0033  -15.2223   21.6567 N   0  0  0  0  0  0  0  0  0  0  0  0
  -30.2904  -15.3695   21.2990 N   0  0  0  0  0  0  0  0  0  0  0  0
  -23.2487  -30.1072   21.4856 N   0  0  0  0  0  0  0  0  0  0  0  0
  -31.1592  -18.6301   23.0871 N   0  0  0  0  0  0  0  0  0  0  0  0
  -31.9499  -14.5339   19.8299 N   0  0  0  0  0  0  0  0  0  0  0  0
  -28.3148  -12.0540   18.8140 N   0  0  0  0  0  0  0  0  0  0  0  0
  -30.7061  -20.3183   21.5037 N   0  0  0  0  0  0  0  0  0  0  0  0
  -25.1531  -33.0771   22.0173 N   0  0  0  0  0  0  0  0  0  0  0  0
  -20.0836  -28.9258   21.6974 N   0  0  0  0  0  0  0  0  0  0  0  0
  -19.1132  -26.5856   19.1187 N   0  3  0  0  0  0  0  0  0  0  0  0
  -30.5264  -12.4054   18.3200 O   0  0  0  0  0  0  0  0  0  0  0  0
  -25.2187  -30.9791   23.0254 O   0  0  0  0  0  0  0  0  0  0  0  0
  -21.3704  -31.4838   21.6013 O   0  0  0  0  0  0  0  0  0  0  0  0
  -20.8602  -26.7744   21.3162 O   0  0  0  0  0  0  0  0  0  0  0  0
  -32.1117  -20.7253   23.3038 O   0  0  0  0  0  0  0  0  0  0  0  0
  -23.2852  -12.4620   21.1745 O   0  0  0  0  0  0  0  0  0  0  0  0
  -27.5734  -25.7606   20.8100 O   0  0  0  0  0  0  0  0  0  1  0  0
  -22.4072   -7.0184   21.1970 F   0  0  0  0  0  0  0  0  0  0  0  0
  -24.1006  -10.8851   19.0552 F   0  0  0  0  0  0  0  0  0  0  0  0
  1  2  1  0  0  0  0
  1  5  2  0  0  0  0
  2  6  2  0  0  0  0
  3  8  2  0  0  0  0
  3 17  1  0  0  0  0
  4  9  1  0  0  0  0
  4 17  2  0  0  0  0
  5 19  1  0  0  0  0
  6 21  1  0  0  0  0
  7 10  2  0  0  0  0
  7 20  1  0  0  0  0
  8 27  1  0  0  0  0
  9 27  2  0  0  0  0
 10 28  1  0  0  0  0
 11 12  2  0  0  0  0
 11 29  1  0  0  0  0
 12 30  1  0  0  0  0
 13 22  1  0  0  0  0
 13 28  2  0  0  0  0
 14 23  2  0  0  0  0
 14 26  1  0  0  0  0
 15 24  1  0  0  0  0
 15 26  2  0  0  0  0
 16 30  2  0  0  0  0
 16 31  1  0  0  0  0
 17 32  1  0  0  0  0
 18 32  1  0  0  0  0
 18 33  2  0  0  0  0
 18 34  1  0  0  0  0
 19 21  2  0  0  0  0
 19 39  1  0  0  0  0
 20 22  2  0  0  0  0
 20 40  1  0  0  0  0
 21 48  1  0  0  0  0
 22 41  1  0  0  0  0
 23 25  1  0  0  0  0
 23 51  1  0  0  0  0
 24 25  2  0  0  0  0
 24 52  1  0  0  0  0
 25 58  1  0  0  0  0
 26 68  1  0  0  0  0
 27 77  1  0  0  0  0
 28 78  1  0  0  0  0
 29 31  2  0  0  0  0
 29 77  1  0  0  0  0
 30 79  1  0  0  0  0
 31 80  1  0  0  0  0
 32 62  2  0  0  0  0
 33 63  1  0  0  0  0
 33 66  1  0  0  0  0
 34 67  1  0  0  0  0
 34 72  2  0  0  0  0
 35 49  1  0  0  0  0
 35 69  1  0  0  0  0
 35 73  2  0  0  0  0
 36 59  1  0  0  0  0
 36 64  1  0  0  0  0
 36 74  2  0  0  0  0
 37 60  1  0  0  0  0
 37 70  1  0  0  0  0
 37 75  2  0  0  0  0
 38 65  1  0  0  0  0
 38 68  1  0  0  0  0
 38 76  2  0  0  0  0
 39 42  1  0  0  0  0
 40 49  1  0  0  0  0
 41 64  1  0  0  0  0
 42 44  1  0  0  0  0
 43 45  1  0  0  0  0
 43 46  1  0  0  0  0
 44 48  1  0  0  0  0
 45 50  1  0  0  0  0
 46 65  1  0  0  0  0
 47 50  1  0  0  0  0
 47 65  1  0  0  0  0
 48 69  1  0  0  0  0
 49 64  1  0  0  0  0
 50 63  1  0  0  0  0
 53 60  1  0  0  0  0
 54 61  1  0  0  0  0
 55 61  1  0  0  0  0
 56 61  1  0  0  0  0
 57 71  1  0  0  0  0
 58 78  1  0  0  0  0
 59 61  1  0  0  0  0
 59 70  1  0  0  0  0
 60 71  1  0  0  0  0
 62 63  1  0  0  0  0
M  CHG  1  71   1
M  ISO  4  38 100  58 101  68 100  78 101
M  END
> <Batch ID>
0032

> <Smiles>
CNC(C)C(=O)NC(C(=O)N1Cc2cc([101O:1][101CH2:1]c3c(C)cc([100NH:0][100C:0](=O)N4CCCC(n5nc(-c6ccc(Oc7ccc(F)cc7F)cc6)c(C(N)=O)c5N)C4)cc3C)ccc2CC1C(=O)NC1CCCc2ccccc21)C(C)(C)C

> <Shape>
0.343

> <Color>
0.078

> <Negative vol penalty>
0.000

$$$$

  -OEChem-04042321423D

 86 95  0     1  0  0  0  0  0999 V2000
  -15.3183  -21.0179   19.8712 C   0  0  0  0  0  0  0  0  0  0  0  0
  -15.9223  -19.7732   19.7253 C   0  0  0  0  0  0  0  0  0  0  0  0
  -27.6134  -23.5499   20.7062 C   0  0  0  0  0  0  0  0  0  0  0  0
  -28.8633  -23.4839   18.6397 C   0  0  0  0  0  0  0  0  0  0  0  0
  -16.0911  -22.1332   20.1919 C   0  0  0  0  0  0  0  0  0  0  0  0
  -17.2997  -19.6433   19.8991 C   0  0  0  0  0  0  0  0  0  0  0  0
  -20.2741  -14.8478   22.2786 C   0  0  0  0  0  0  0  0  0  0  0  0
  -29.6422  -12.5675   19.7424 C   0  0  0  0  0  0  0  0  0  0  0  0
  -28.6414  -11.7274   20.2302 C   0  0  0  0  0  0  0  0  0  0  0  0
  -27.6832  -24.9430   20.7039 C   0  0  0  0  0  0  0  0  0  0  0  0
  -28.9330  -24.8770   18.6373 C   0  0  0  0  0  0  0  0  0  0  0  0
  -20.9421  -13.7735   21.6927 C   0  0  0  0  0  0  0  0  0  0  0  0
  -27.2208  -28.5318   21.0533 C   0  0  0  0  0  0  0  0  0  0  0  0
  -26.0559  -29.2400   21.3483 C   0  0  0  0  0  0  0  0  0  0  0  0
  -23.0327  -14.9543   21.9254 C   0  0  0  0  0  0  0  0  0  0  0  0
  -28.7104  -12.3875   17.5206 C   0  0  0  0  0  0  0  0  0  0  0  0
  -24.9572  -28.2223   19.4524 C   0  0  0  0  0  0  0  0  0  0  0  0
  -28.2035  -22.8203   19.6741 C   0  0  0  0  0  0  0  0  0  0  0  0
  -27.1314  -20.5788   19.0963 C   0  0  0  0  0  0  0  0  0  0  0  0
  -17.4773  -22.0151   20.3791 C   0  0  0  0  0  0  0  0  0  0  0  0
  -20.9801  -15.9899   22.6831 C   0  0  0  0  0  0  0  0  0  0  0  0
  -18.0920  -20.7583   20.2212 C   0  0  0  0  0  0  0  0  0  0  0  0
  -22.3717  -16.0407   22.5186 C   0  0  0  0  0  0  0  0  0  0  0  0
  -29.6767  -12.8977   18.3875 C   0  0  0  0  0  0  0  0  0  0  0  0
  -27.6751  -11.2172   19.3632 C   0  0  0  0  0  0  0  0  0  0  0  0
  -27.7096  -11.5473   18.0084 C   0  0  0  0  0  0  0  0  0  0  0  0
  -28.3430  -25.6066   19.6695 C   0  0  0  0  0  0  0  0  0  0  0  0
  -22.3212  -13.8278   21.5133 C   0  0  0  0  0  0  0  0  0  0  0  0
  -27.2540  -27.6689   19.9578 C   0  0  0  0  0  0  0  0  0  0  0  0
  -24.9241  -29.0852   20.5479 C   0  0  0  0  0  0  0  0  0  0  0  0
  -26.1222  -27.5141   19.1574 C   0  0  0  0  0  0  0  0  0  0  0  0
  -28.1322  -21.3812   19.6762 C   0  0  0  0  0  0  0  0  0  0  0  0
  -27.5211  -19.2910   19.3722 C   0  0  0  0  0  0  0  0  0  0  0  0
  -24.2727  -10.1282   20.6024 C   0  0  0  0  0  0  0  0  0  0  0  0
  -23.8175   -9.0706   19.9204 C   0  0  0  0  0  0  0  0  0  0  0  0
  -25.9547  -20.9631   18.3729 C   0  0  0  0  0  0  0  0  0  0  0  0
  -20.9305  -19.0625   21.8706 C   0  0  0  0  0  0  0  0  0  0  0  0
  -23.0269  -19.3450   24.3298 C   0  0  0  0  0  0  0  0  0  0  0  0
  -25.3502  -17.8608   26.3413 C   0  0  0  0  0  0  0  0  0  0  0  0
  -31.4681  -15.3558   19.6564 C   0  0  0  0  0  0  0  0  0  0  0  0
  -18.2779  -23.2578   20.6784 C   0  0  0  0  0  0  0  0  0  0  0  0
  -20.2484  -17.1292   23.3380 C   0  0  0  0  0  0  0  0  0  0  0  0
  -23.1786  -17.2355   22.9542 C   0  0  0  0  0  0  0  0  0  0  0  0
  -23.6871  -10.6595   21.8734 C   0  0  0  0  0  0  0  0  0  0  0  0
  -19.6773  -22.9664   21.2140 C   0  0  0  0  0  0  0  0  0  0  0  0
  -31.1249  -17.5306   22.4544 C   0  0  0  0  0  0  0  0  0  0  0  0
  -20.3585  -21.8924   20.3718 C   0  0  0  0  0  0  0  0  0  0  0  0
  -30.2388  -18.6625   21.9314 C   0  0  0  0  0  0  0  0  0  0  0  0
  -32.0853  -17.0237   21.3808 C   0  0  0  0  0  0  0  0  0  0  0  0
  -30.5574  -17.7564   19.5913 C   0  0  0  0  0  0  0  0  0  0  0  0
  -25.3087  -12.1958   20.9728 C   0  0  0  0  0  0  0  0  0  0  0  0
  -19.5798  -20.5725   20.4261 C   0  0  1  0  0  0  0  0  0  0  0  0
  -20.9984  -18.4543   23.2429 C   0  0  1  0  0  0  0  0  0  0  0  0
  -29.5334  -18.2628   20.6215 C   0  0  2  0  0  0  0  0  0  0  0  0
  -23.9831  -12.1431   21.7190 C   0  0  1  0  0  0  0  0  0  1  0  0
  -26.6858  -11.0128   17.0614 C   0  0  0  0  0  0  0  0  0  0  0  0
  -26.9205  -18.3560   28.2351 C   0  0  0  0  0  0  0  0  0  0  0  0
  -24.9208  -20.7451   22.3900 C   0  0  0  0  0  0  0  0  0  0  0  0
  -26.7731  -20.3601   24.0299 C   0  0  0  0  0  0  0  0  0  0  0  0
  -24.8168  -21.7697   24.6690 C   0  0  0  0  0  0  0  0  0  0  0  0
  -24.0077  -15.9111   28.1176 C   0  0  0  0  0  0  0  0  0  0  0  0
  -30.7472  -13.7956   17.8661 C   0  0  0  0  0  0  0  0  0  0  0  0
  -26.6091  -10.3146   19.9109 C   0  0  0  0  0  0  0  0  0  0  0  0
  -24.5279  -19.2660   24.4695 C   0  0  1  0  0  0  0  0  0  0  0  0
  -25.5318  -17.8715   27.8484 C   0  0  2  0  0  0  0  0  0  0  0  0
  -25.2445  -20.5133   23.8795 C   0  0  0  0  0  0  0  0  0  0  0  0
  -29.0859  -20.6633   20.2754 N   0  0  0  0  0  0  0  0  0  0  0  0
  -28.6861  -19.3962   20.0736 N   0  0  0  0  0  0  0  0  0  0  0  0
  -22.4167  -18.3267   23.5837 N   0  0  0  0  0  0  0  0  0  0  0  0
  -31.3531  -16.6599   20.1653 N   0  0  0  0  0  0  0  0  0  0  0  0
  -26.9774  -18.0901   19.0810 N   0  0  0  0  0  0  0  0  0  0  0  0
  -25.7056  -22.3287   18.1794 N   0  0  0  0  0  0  0  0  0  0  0  0
  -19.8375  -19.8846   21.6731 N   0  0  0  0  0  0  0  0  0  0  0  0
  -24.7947  -19.0377   25.8855 N   0  0  0  0  0  0  0  0  0  0  0  0
  -30.7363  -15.0927   18.5049 N   0  0  0  0  0  0  0  0  0  0  0  0
  -25.2764  -10.9893   20.0381 N   0  3  1  0  0  0  0  0  0  0  0  0
  -25.3407  -16.5015   28.4029 N   0  3  0  0  0  0  0  0  0  0  0  0
  -25.1395  -20.1210   17.9258 O   0  0  0  0  0  0  0  0  0  0  0  0
  -21.8057  -18.8061   21.0522 O   0  0  0  0  0  0  0  0  0  0  0  0
  -22.4173  -20.2720   24.8691 O   0  0  0  0  0  0  0  0  0  0  0  0
  -25.6726  -16.9056   25.6383 O   0  0  0  0  0  0  0  0  0  0  0  0
  -32.1667  -14.4885   20.1918 O   0  0  0  0  0  0  0  0  0  0  0  0
  -28.4111  -26.9659   19.6668 O   0  0  0  0  0  0  0  0  0  0  0  0
  -22.9757  -12.7809   20.9410 O   0  0  0  0  0  0  0  0  0  1  0  0
  -23.8050  -29.7642   20.8321 F   0  0  0  0  0  0  0  0  0  0  0  0
  -26.1476  -26.6857   18.1044 F   0  0  0  0  0  0  0  0  0  0  0  0
  1  2  1  0  0  0  0
  1  5  2  0  0  0  0
  2  6  2  0  0  0  0
  3 10  2  0  0  0  0
  3 18  1  0  0  0  0
  4 11  1  0  0  0  0
  4 18  2  0  0  0  0
  5 20  1  0  0  0  0
  6 22  1  0  0  0  0
  7 12  2  0  0  0  0
  7 21  1  0  0  0  0
  8  9  2  0  0  0  0
  8 24  1  0  0  0  0
  9 25  1  0  0  0  0
 10 27  1  0  0  0  0
 11 27  2  0  0  0  0
 12 28  1  0  0  0  0
 13 14  2  0  0  0  0
 13 29  1  0  0  0  0
 14 30  1  0  0  0  0
 15 23  1  0  0  0  0
 15 28  2  0  0  0  0
 16 24  2  0  0  0  0
 16 26  1  0  0  0  0
 17 30  2  0  0  0  0
 17 31  1  0  0  0  0
 18 32  1  0  0  0  0
 19 32  1  0  0  0  0
 19 33  2  0  0  0  0
 19 36  1  0  0  0  0
 20 22  2  0  0  0  0
 20 41  1  0  0  0  0
 21 23  2  0  0  0  0
 21 42  1  0  0  0  0
 22 52  1  0  0  0  0
 23 43  1  0  0  0  0
 24 62  1  0  0  0  0
 25 26  2  0  0  0  0
 25 63  1  0  0  0  0
 26 56  1  0  0  0  0
 27 83  1  0  0  0  0
 28 84  1  0  0  0  0
 29 31  2  0  0  0  0
 29 83  1  0  0  0  0
 30 85  1  0  0  0  0
 31 86  1  0  0  0  0
 32 67  2  0  0  0  0
 33 68  1  0  0  0  0
 33 71  1  0  0  0  0
 34 35  2  0  0  0  0
 34 44  1  0  0  0  0
 34 76  1  0  0  0  0
 36 72  1  0  0  0  0
 36 78  2  0  0  0  0
 37 53  1  0  0  0  0
 37 73  1  0  0  0  0
 37 79  2  0  0  0  0
 38 64  1  0  0  0  0
 38 69  1  0  0  0  0
 38 80  2  0  0  0  0
 39 65  1  0  0  0  0
 39 74  1  0  0  0  0
 39 81  2  0  0  0  0
 40 70  1  0  0  0  0
 40 75  1  0  0  0  0
 40 82  2  0  0  0  0
 41 45  1  0  0  0  0
 42 53  1  0  0  0  0
 43 69  1  0  0  0  0
 44 55  1  0  0  0  0
 45 47  1  0  0  0  0
 46 48  1  0  0  0  0
 46 49  1  0  0  0  0
 47 52  1  0  0  0  0
 48 54  1  0  0  0  0
 49 70  1  0  0  0  0
 50 54  1  0  0  0  0
 50 70  1  0  0  0  0
 51 55  1  0  0  0  0
 51 76  1  0  0  0  0
 52 73  1  0  0  0  0
 53 69  1  0  0  0  0
 54 68  1  0  0  0  0
 55 84  1  0  0  0  0
 57 65  1  0  0  0  0
 58 66  1  0  0  0  0
 59 66  1  0  0  0  0
 60 66  1  0  0  0  0
 61 77  1  0  0  0  0
 62 75  1  0  0  0  0
 63 76  1  0  0  0  0
 64 66  1  0  0  0  0
 64 74  1  0  0  0  0
 65 77  1  0  0  0  0
 67 68  1  0  0  0  0
M  CHG  2  76   1  77   1
M  ISO  4  40 100  55 101  75 100  84 101
M  END
> <Batch ID>
0032

> <Smiles>
C=C1C[101CH:1]([101O:1]c2ccc3c(c2)CN(C(=O)C(NC(=O)C(C)NC)C(C)(C)C)C(C(=O)NC2CCCc4ccccc42)C3)CN1Cc1ccc(C[100NH:0][100C:0](=O)N2CCCC(n3nc(-c4ccc(Oc5ccc(F)cc5F)cc4)c(C(N)=O)c3N)C2)cc1C

> <Shape>
0.207

> <Color>
0.072

> <Negative vol penalty>
0.000

$$$$

  -OEChem-04042321423D

 92101  0     1  0  0  0  0  0999 V2000
  -23.3669  -10.6213   18.5007 C   0  0  0  0  0  0  0  0  0  0  0  0
  -22.7085  -11.8463   18.4654 C   0  0  0  0  0  0  0  0  0  0  0  0
  -29.8371  -26.4800   19.3043 C   0  0  0  0  0  0  0  0  0  0  0  0
  -29.3575  -26.5581   21.6710 C   0  0  0  0  0  0  0  0  0  0  0  0
  -24.4922  -10.4590   19.3078 C   0  0  0  0  0  0  0  0  0  0  0  0
  -23.1743  -12.9095   19.2381 C   0  0  0  0  0  0  0  0  0  0  0  0
  -23.0479  -18.8555   17.7769 C   0  0  0  0  0  0  0  0  0  0  0  0
  -31.1520  -26.1072   19.5830 C   0  0  0  0  0  0  0  0  0  0  0  0
  -30.6724  -26.1852   21.9497 C   0  0  0  0  0  0  0  0  0  0  0  0
  -22.1765  -19.8878   18.1216 C   0  0  0  0  0  0  0  0  0  0  0  0
  -34.0122  -27.6144   20.5688 C   0  0  0  0  0  0  0  0  0  0  0  0
  -35.0303  -28.2553   19.8628 C   0  0  0  0  0  0  0  0  0  0  0  0
  -23.6670  -20.5434   19.9014 C   0  0  0  0  0  0  0  0  0  0  0  0
  -18.9179  -29.0711   22.5889 C   0  0  0  0  0  0  0  0  0  0  0  0
  -18.1790  -26.8956   21.8418 C   0  0  0  0  0  0  0  0  0  0  0  0
  -35.7524  -26.1282   18.9734 C   0  0  0  0  0  0  0  0  0  0  0  0
  -28.9399  -26.7055   20.3483 C   0  0  0  0  0  0  0  0  0  0  0  0
  -26.6304  -26.3650   19.3197 C   0  0  0  0  0  0  0  0  0  0  0  0
  -24.9777  -11.5236   20.0834 C   0  0  0  0  0  0  0  0  0  0  0  0
  -24.2321  -18.6523   18.4999 C   0  0  0  0  0  0  0  0  0  0  0  0
  -24.3063  -12.7609   20.0574 C   0  0  0  0  0  0  0  0  0  0  0  0
  -24.5530  -19.5094   19.5622 C   0  0  0  0  0  0  0  0  0  0  0  0
  -19.9968  -28.4792   23.2456 C   0  0  0  0  0  0  0  0  0  0  0  0
  -19.2579  -26.3036   22.4984 C   0  0  0  0  0  0  0  0  0  0  0  0
  -20.1668  -27.0955   23.2003 C   0  0  0  0  0  0  0  0  0  0  0  0
  -31.5696  -25.9598   20.9057 C   0  0  0  0  0  0  0  0  0  0  0  0
  -22.4846  -20.7302   19.1858 C   0  0  0  0  0  0  0  0  0  0  0  0
  -33.8643  -26.2304   20.4771 C   0  0  0  0  0  0  0  0  0  0  0  0
  -35.9004  -27.5122   19.0651 C   0  0  0  0  0  0  0  0  0  0  0  0
  -34.7344  -25.4873   19.6794 C   0  0  0  0  0  0  0  0  0  0  0  0
  -18.0089  -28.2793   21.8870 C   0  0  0  0  0  0  0  0  0  0  0  0
  -27.5816  -27.0912   20.0610 C   0  0  0  0  0  0  0  0  0  0  0  0
  -25.5064  -27.1542   19.3369 C   0  0  0  0  0  0  0  0  0  0  0  0
  -20.9229  -24.5088   20.5582 C   0  0  0  0  0  0  0  0  0  0  0  0
  -21.1281  -25.5052   19.6835 C   0  0  0  0  0  0  0  0  0  0  0  0
  -20.0805  -26.3859   19.2291 C   0  0  0  0  0  0  0  0  0  0  0  0
  -20.2904  -27.3806   18.3545 C   0  0  0  0  0  0  0  0  0  0  0  0
  -26.7519  -25.0910   18.6734 C   0  0  0  0  0  0  0  0  0  0  0  0
  -25.4037  -16.2830   20.2656 C   0  0  0  0  0  0  0  0  0  0  0  0
  -28.0483  -18.1603   20.3308 C   0  0  0  0  0  0  0  0  0  0  0  0
  -29.3888  -21.2873   20.0636 C   0  0  0  0  0  0  0  0  0  0  0  0
  -22.6339  -30.7652   22.8332 C   0  0  0  0  0  0  0  0  0  0  0  0
  -26.1697  -11.2865   20.9765 C   0  0  0  0  0  0  0  0  0  0  0  0
  -25.1745  -17.5508   18.0986 C   0  0  0  0  0  0  0  0  0  0  0  0
  -25.8216  -19.3462   20.3574 C   0  0  0  0  0  0  0  0  0  0  0  0
  -22.0214  -23.5913   21.0298 C   0  0  0  0  0  0  0  0  0  0  0  0
  -26.8204  -12.5730   21.4782 C   0  0  0  0  0  0  0  0  0  0  0  0
  -24.6309  -31.9539   20.1359 C   0  0  0  0  0  0  0  0  0  0  0  0
  -25.7599  -13.5450   21.9856 C   0  0  0  0  0  0  0  0  0  0  0  0
  -25.5070  -30.7537   19.7727 C   0  0  0  0  0  0  0  0  0  0  0  0
  -20.1965  -21.8894   21.4456 C   0  0  0  0  0  0  0  0  0  0  0  0
  -24.3904  -32.0421   21.6413 C   0  0  0  0  0  0  0  0  0  0  0  0
  -24.7280  -29.6138   21.8923 C   0  0  0  0  0  0  0  0  0  0  0  0
  -19.1738  -22.8534   20.8459 C   0  0  0  0  0  0  0  0  0  0  0  0
  -24.7958  -13.9452   20.8623 C   0  0  1  0  0  0  0  0  0  0  0  0
  -26.1023  -17.1168   19.2291 C   0  0  1  0  0  0  0  0  0  0  0  0
  -24.9523  -29.4507   20.3792 C   0  0  2  0  0  0  0  0  0  0  0  0
  -21.6037  -22.1266   20.8977 C   0  0  1  0  0  0  0  0  0  1  0  0
  -19.2173  -28.3012   17.8734 C   0  0  0  0  0  0  0  0  0  0  0  0
  -20.9072  -25.7985   25.2143 C   0  0  0  0  0  0  0  0  0  0  0  0
  -31.5747  -22.5120   20.2026 C   0  0  0  0  0  0  0  0  0  0  0  0
  -27.9708  -17.9484   23.3737 C   0  0  0  0  0  0  0  0  0  0  0  0
  -29.5341  -19.9011   23.4799 C   0  0  0  0  0  0  0  0  0  0  0  0
  -30.2575  -17.7851   22.3745 C   0  0  0  0  0  0  0  0  0  0  0  0
  -29.1857  -22.2051   17.2573 C   0  0  0  0  0  0  0  0  0  0  0  0
  -21.3232  -26.4606   23.9052 C   0  0  0  0  0  0  0  0  0  0  0  0
  -20.9559  -29.3494   23.9903 C   0  0  0  0  0  0  0  0  0  0  0  0
  -19.4189  -24.8134   22.4345 C   0  0  0  0  0  0  0  0  0  0  0  0
  -28.5551  -19.2624   21.2294 C   0  0  1  0  0  0  0  0  0  0  0  0
  -30.5853  -21.8074   19.2875 C   0  0  2  0  0  0  0  0  0  0  0  0
  -29.0545  -18.7264   22.6008 C   0  0  0  0  0  0  0  0  0  0  0  0
  -27.1036  -28.2525   20.5159 N   0  0  0  0  0  0  0  0  0  0  0  0
  -25.8398  -28.2621   20.0591 N   0  0  0  0  0  0  0  0  0  0  0  0
  -26.7077  -18.2508   19.9304 N   0  0  0  0  0  0  0  0  0  0  0  0
  -23.8631  -30.7750   22.1535 N   0  0  0  0  0  0  0  0  0  0  0  0
  -24.2752  -27.0015   18.8046 N   0  0  0  0  0  0  0  0  0  0  0  0
  -26.4317  -23.9382   19.4034 N   0  0  0  0  0  0  0  0  0  0  0  0
  -25.4100  -14.9279   19.9953 N   0  0  0  0  0  0  0  0  0  0  0  0
  -29.5684  -19.9800   20.4635 N   0  0  0  0  0  0  0  0  0  0  0  0
  -22.2036  -29.5219   23.2802 N   0  0  0  0  0  0  0  0  0  0  0  0
  -19.5771  -24.2975   21.0309 N   0  3  1  0  0  0  0  0  0  0  0  0
  -30.1442  -22.7720   18.2407 N   0  3  0  0  0  0  0  0  0  0  0  0
  -27.1489  -24.9770   17.4889 O   0  0  0  0  0  0  0  0  0  0  0  0
  -24.8977  -16.8286   21.2393 O   0  0  0  0  0  0  0  0  0  0  0  0
  -28.8157  -17.2563   19.9908 O   0  0  0  0  0  0  0  0  0  0  0  0
  -28.3958  -21.9735   20.2954 O   0  0  0  0  0  0  0  0  0  0  0  0
  -21.9665  -31.7878   23.0225 O   0  0  0  0  0  0  0  0  0  0  0  0
  -32.8525  -25.5957   21.1780 O   0  0  0  0  0  0  0  0  0  0  0  0
  -21.6355  -21.7381   19.5248 O   0  0  0  0  0  0  0  0  0  1  0  0
  -36.8770  -28.1279   18.3859 F   0  0  0  0  0  0  0  0  0  0  0  0
  -34.5965  -24.1576   19.5865 F   0  0  0  0  0  0  0  0  0  0  0  0
  -16.6774  -29.0094   21.0768 Cl  0  0  0  0  0  0  0  0  0  0  0  0
  1  2  1  0  0  0  0
  1  5  2  0  0  0  0
  2  6  2  0  0  0  0
  3  8  2  0  0  0  0
  3 17  1  0  0  0  0
  4  9  1  0  0  0  0
  4 17  2  0  0  0  0
  5 19  1  0  0  0  0
  6 21  1  0  0  0  0
  7 10  2  0  0  0  0
  7 20  1  0  0  0  0
  8 26  1  0  0  0  0
  9 26  2  0  0  0  0
 10 27  1  0  0  0  0
 11 12  2  0  0  0  0
 11 28  1  0  0  0  0
 12 29  1  0  0  0  0
 13 22  1  0  0  0  0
 13 27  2  0  0  0  0
 14 23  2  0  0  0  0
 14 31  1  0  0  0  0
 15 24  1  0  0  0  0
 15 31  2  0  0  0  0
 16 29  2  0  0  0  0
 16 30  1  0  0  0  0
 17 32  1  0  0  0  0
 18 32  1  0  0  0  0
 18 33  2  0  0  0  0
 18 38  1  0  0  0  0
 19 21  2  0  0  0  0
 19 43  1  0  0  0  0
 20 22  2  0  0  0  0
 20 44  1  0  0  0  0
 21 55  1  0  0  0  0
 22 45  1  0  0  0  0
 23 25  1  0  0  0  0
 23 67  1  0  0  0  0
 24 25  2  0  0  0  0
 24 68  1  0  0  0  0
 25 66  1  0  0  0  0
 26 88  1  0  0  0  0
 27 89  1  0  0  0  0
 28 30  2  0  0  0  0
 28 88  1  0  0  0  0
 29 90  1  0  0  0  0
 30 91  1  0  0  0  0
 31 92  1  0  0  0  0
 32 72  2  0  0  0  0
 33 73  1  0  0  0  0
 33 76  1  0  0  0  0
 34 35  2  0  0  0  0
 34 46  1  0  0  0  0
 34 81  1  0  0  0  0
 35 36  1  0  0  0  0
 36 37  2  0  0  0  0
 37 59  1  0  0  0  0
 38 77  1  0  0  0  0
 38 83  2  0  0  0  0
 39 56  1  0  0  0  0
 39 78  1  0  0  0  0
 39 84  2  0  0  0  0
 40 69  1  0  0  0  0
 40 74  1  0  0  0  0
 40 85  2  0  0  0  0
 41 70  1  0  0  0  0
 41 79  1  0  0  0  0
 41 86  2  0  0  0  0
 42 75  1  0  0  0  0
 42 80  1  0  0  0  0
 42 87  2  0  0  0  0
 43 47  1  0  0  0  0
 44 56  1  0  0  0  0
 45 74  1  0  0  0  0
 46 58  1  0  0  0  0
 47 49  1  0  0  0  0
 48 50  1  0  0  0  0
 48 52  1  0  0  0  0
 49 55  1  0  0  0  0
 50 57  1  0  0  0  0
 51 54  1  0  0  0  0
 51 58  1  0  0  0  0
 52 75  1  0  0  0  0
 53 57  1  0  0  0  0
 53 75  1  0  0  0  0
 54 81  1  0  0  0  0
 55 78  1  0  0  0  0
 56 74  1  0  0  0  0
 57 73  1  0  0  0  0
 58 89  1  0  0  0  0
 60 66  1  0  0  0  0
 61 70  1  0  0  0  0
 62 71  1  0  0  0  0
 63 71  1  0  0  0  0
 64 71  1  0  0  0  0
 65 82  1  0  0  0  0
 67 80  1  0  0  0  0
 68 81  1  0  0  0  0
 69 71  1  0  0  0  0
 69 79  1  0  0  0  0
 70 82  1  0  0  0  0
 72 73  1  0  0  0  0
M  CHG  2  81   1  82   1
M  ISO  4  42 100  58 101  80 100  89 101
M  END
> <Batch ID>
0032

> <Smiles>
CC=CC=C1C[101CH:1]([101O:1]c2ccc3c(c2)CN(C(=O)C(NC(=O)C(C)NC)C(C)(C)C)C(C(=O)NC2CCCc4ccccc42)C3)CCN1Cc1cc(Cl)cc(C[100NH:0][100C:0](=O)N2CCCC(n3nc(-c4ccc(Oc5ccc(F)cc5F)cc4)c(C(N)=O)c3N)C2)c1CC

> <Shape>
0.249

> <Color>
0.075

> <Negative vol penalty>
0.000

$$$$

  -OEChem-04042321423D

 89 98  0     1  0  0  0  0  0999 V2000
  -32.8820  -21.1235   21.3836 C   0  0  0  0  0  0  0  0  0  0  0  0
  -31.8189  -21.6276   22.1260 C   0  0  0  0  0  0  0  0  0  0  0  0
  -29.1122  -25.7603   18.2057 C   0  0  0  0  0  0  0  0  0  0  0  0
  -29.0599  -25.7252   20.6209 C   0  0  0  0  0  0  0  0  0  0  0  0
  -32.6381  -20.4507   20.1870 C   0  0  0  0  0  0  0  0  0  0  0  0
  -30.5113  -21.4601   21.6716 C   0  0  0  0  0  0  0  0  0  0  0  0
  -23.8372  -20.5120   24.0952 C   0  0  0  0  0  0  0  0  0  0  0  0
  -30.3853  -25.1908   18.2249 C   0  0  0  0  0  0  0  0  0  0  0  0
  -30.3331  -25.1556   20.6401 C   0  0  0  0  0  0  0  0  0  0  0  0
  -22.5571  -21.0483   23.9633 C   0  0  0  0  0  0  0  0  0  0  0  0
  -33.5631  -26.2131   18.7553 C   0  0  0  0  0  0  0  0  0  0  0  0
  -34.5295  -26.7595   17.9110 C   0  0  0  0  0  0  0  0  0  0  0  0
  -22.2510  -19.8001   21.9219 C   0  0  0  0  0  0  0  0  0  0  0  0
  -18.8910  -27.4860   23.5568 C   0  0  0  0  0  0  0  0  0  0  0  0
  -18.8414  -26.4277   20.9760 C   0  0  0  0  0  0  0  0  0  0  0  0
  -34.7661  -24.6264   16.8013 C   0  0  0  0  0  0  0  0  0  0  0  0
  -28.4495  -26.0275   19.4037 C   0  0  0  0  0  0  0  0  0  0  0  0
  -25.9739  -26.0853   18.7906 C   0  0  0  0  0  0  0  0  0  0  0  0
  -31.3263  -20.2665   19.7226 C   0  0  0  0  0  0  0  0  0  0  0  0
  -24.3388  -19.6226   23.1340 C   0  0  0  0  0  0  0  0  0  0  0  0
  -30.2497  -20.7855   20.4670 C   0  0  0  0  0  0  0  0  0  0  0  0
  -23.5368  -19.2519   22.0452 C   0  0  0  0  0  0  0  0  0  0  0  0
  -18.2443  -26.2747   23.3121 C   0  0  0  0  0  0  0  0  0  0  0  0
  -19.5129  -28.1683   22.5110 C   0  0  0  0  0  0  0  0  0  0  0  0
  -18.2195  -25.7455   22.0218 C   0  0  0  0  0  0  0  0  0  0  0  0
  -30.9958  -24.8884   19.4422 C   0  0  0  0  0  0  0  0  0  0  0  0
  -21.7648  -20.6946   22.8750 C   0  0  0  0  0  0  0  0  0  0  0  0
  -33.1982  -24.8733   18.6228 C   0  0  0  0  0  0  0  0  0  0  0  0
  -35.1310  -25.9662   16.9339 C   0  0  0  0  0  0  0  0  0  0  0  0
  -19.4881  -27.6391   21.2207 C   0  0  0  0  0  0  0  0  0  0  0  0
  -33.7997  -24.0800   17.6458 C   0  0  0  0  0  0  0  0  0  0  0  0
  -27.1346  -26.6164   19.3844 C   0  0  0  0  0  0  0  0  0  0  0  0
  -24.9989  -27.0176   19.0486 C   0  0  0  0  0  0  0  0  0  0  0  0
  -17.9315  -22.0427   21.5285 C   0  0  0  0  0  0  0  0  0  0  0  0
  -25.7933  -24.8589   18.0702 C   0  0  0  0  0  0  0  0  0  0  0  0
  -16.7237  -21.4965   21.7126 C   0  0  0  0  0  0  0  0  0  0  0  0
  -26.7924  -19.6532   21.1135 C   0  0  0  0  0  0  0  0  0  0  0  0
  -25.8451  -16.6066   20.5278 C   0  0  0  0  0  0  0  0  0  0  0  0
  -23.3351  -14.2947   20.5677 C   0  0  0  0  0  0  0  0  0  0  0  0
  -22.4293  -30.5342   22.5380 C   0  0  0  0  0  0  0  0  0  0  0  0
  -31.1151  -19.5740   18.3995 C   0  0  0  0  0  0  0  0  0  0  0  0
  -25.7116  -19.0322   23.3049 C   0  0  0  0  0  0  0  0  0  0  0  0
  -24.0209  -18.2853   20.9965 C   0  0  0  0  0  0  0  0  0  0  0  0
  -19.0733  -21.4011   20.8038 C   0  0  0  0  0  0  0  0  0  0  0  0
  -29.6775  -19.1116   18.1767 C   0  0  0  0  0  0  0  0  0  0  0  0
  -25.3431  -31.7230   20.8727 C   0  0  0  0  0  0  0  0  0  0  0  0
  -28.6971  -20.2228   18.5387 C   0  0  0  0  0  0  0  0  0  0  0  0
  -25.9759  -30.4564   20.2938 C   0  0  0  0  0  0  0  0  0  0  0  0
  -24.7057  -31.4631   22.2359 C   0  0  0  0  0  0  0  0  0  0  0  0
  -24.3705  -29.0842   21.6861 C   0  0  0  0  0  0  0  0  0  0  0  0
  -19.8037  -23.3797   21.9667 C   0  0  0  0  0  0  0  0  0  0  0  0
  -28.8157  -20.6023   20.0197 C   0  0  1  0  0  0  0  0  0  0  0  0
  -26.3150  -18.5341   21.9952 C   0  0  1  0  0  0  0  0  0  0  0  0
  -24.9772  -29.2834   20.2866 C   0  0  2  0  0  0  0  0  0  0  0  0
  -20.2519  -21.9800   21.5707 C   0  0  1  0  0  0  0  0  0  1  0  0
  -17.5866  -25.5620   24.4479 C   0  0  0  0  0  0  0  0  0  0  0  0
  -15.6313  -22.2117   22.4541 C   0  0  0  0  0  0  0  0  0  0  0  0
  -16.3794  -20.1313   21.1907 C   0  0  0  0  0  0  0  0  0  0  0  0
  -22.8537  -11.8996   19.9939 C   0  0  0  0  0  0  0  0  0  0  0  0
  -25.7547  -17.3368   17.5666 C   0  0  0  0  0  0  0  0  0  0  0  0
  -24.3922  -15.2739   17.1711 C   0  0  0  0  0  0  0  0  0  0  0  0
  -26.7165  -15.0806   18.0559 C   0  0  0  0  0  0  0  0  0  0  0  0
  -22.6493  -13.6397   23.3712 C   0  0  0  0  0  0  0  0  0  0  0  0
  -20.2027  -29.4639   22.7753 C   0  0  0  0  0  0  0  0  0  0  0  0
  -17.5300  -24.4444   21.7339 C   0  0  0  0  0  0  0  0  0  0  0  0
  -24.8845  -15.9522   19.5645 C   0  0  1  0  0  0  0  0  0  0  0  0
  -23.2882  -12.8676   21.0833 C   0  0  2  0  0  0  0  0  0  0  0  0
  -25.4283  -15.9306   18.1081 C   0  0  0  0  0  0  0  0  0  0  0  0
  -26.9186  -27.7947   19.9751 N   0  0  0  0  0  0  0  0  0  0  0  0
  -25.6110  -28.0118   19.7536 N   0  0  0  0  0  0  0  0  0  0  0  0
  -25.3725  -17.7400   21.2045 N   0  0  0  0  0  0  0  0  0  0  0  0
  -23.7681  -30.3401   22.1601 N   0  0  0  0  0  0  0  0  0  0  0  0
  -23.6862  -27.0757   18.7389 N   0  0  0  0  0  0  0  0  0  0  0  0
  -25.4349  -23.7093   18.7873 N   0  0  0  0  0  0  0  0  0  0  0  0
  -28.1481  -19.6211   20.8479 N   0  0  0  0  0  0  0  0  0  0  0  0
  -24.5923  -14.6323   20.1129 N   0  0  0  0  0  0  0  0  0  0  0  0
  -21.6062  -29.4199   22.4299 N   0  0  0  0  0  0  0  0  0  0  0  0
  -18.3025  -23.2519   22.2121 N   0  3  1  0  0  0  0  0  0  0  0  0
  -22.3293  -12.7584   22.2189 N   0  3  0  0  0  0  0  0  0  0  0  0
  -25.9613  -24.7810   16.8295 O   0  0  0  0  0  0  0  0  0  0  0  0
  -25.9899  -20.4836   20.7033 O   0  0  0  0  0  0  0  0  0  0  0  0
  -26.9708  -16.1256   20.6796 O   0  0  0  0  0  0  0  0  0  0  0  0
  -22.3538  -15.0345   20.5650 O   0  0  0  0  0  0  0  0  0  0  0  0
  -21.9981  -31.6214   22.9367 O   0  0  0  0  0  0  0  0  0  0  0  0
  -32.2380  -24.3324   19.4613 O   0  0  0  0  0  0  0  0  0  0  0  0
  -20.5152  -21.2172   22.7436 O   0  0  0  0  0  0  0  0  0  1  0  0
  -36.0580  -26.4915   16.1222 F   0  0  0  0  0  0  0  0  0  0  0  0
  -20.0828  -28.2875   20.2094 F   0  0  0  0  0  0  0  0  0  0  0  0
  -33.4524  -22.7925   17.5129 F   0  0  0  0  0  0  0  0  0  0  0  0
  1  2  1  0  0  0  0
  1  5  2  0  0  0  0
  2  6  2  0  0  0  0
  3  8  2  0  0  0  0
  3 17  1  0  0  0  0
  4  9  1  0  0  0  0
  4 17  2  0  0  0  0
  5 19  1  0  0  0  0
  6 21  1  0  0  0  0
  7 10  2  0  0  0  0
  7 20  1  0  0  0  0
  8 26  1  0  0  0  0
  9 26  2  0  0  0  0
 10 27  1  0  0  0  0
 11 12  2  0  0  0  0
 11 28  1  0  0  0  0
 12 29  1  0  0  0  0
 13 22  1  0  0  0  0
 13 27  2  0  0  0  0
 14 23  1  0  0  0  0
 14 24  2  0  0  0  0
 15 25  1  0  0  0  0
 15 30  2  0  0  0  0
 16 29  2  0  0  0  0
 16 31  1  0  0  0  0
 17 32  1  0  0  0  0
 18 32  1  0  0  0  0
 18 33  2  0  0  0  0
 18 35  1  0  0  0  0
 19 21  2  0  0  0  0
 19 41  1  0  0  0  0
 20 22  2  0  0  0  0
 20 42  1  0  0  0  0
 21 52  1  0  0  0  0
 22 43  1  0  0  0  0
 23 25  2  0  0  0  0
 23 56  1  0  0  0  0
 24 30  1  0  0  0  0
 24 64  1  0  0  0  0
 25 65  1  0  0  0  0
 26 85  1  0  0  0  0
 27 86  1  0  0  0  0
 28 31  2  0  0  0  0
 28 85  1  0  0  0  0
 29 87  1  0  0  0  0
 30 88  1  0  0  0  0
 31 89  1  0  0  0  0
 32 69  2  0  0  0  0
 33 70  1  0  0  0  0
 33 73  1  0  0  0  0
 34 36  2  0  0  0  0
 34 44  1  0  0  0  0
 34 78  1  0  0  0  0
 35 74  1  0  0  0  0
 35 80  2  0  0  0  0
 36 57  1  0  0  0  0
 36 58  1  0  0  0  0
 37 53  1  0  0  0  0
 37 75  1  0  0  0  0
 37 81  2  0  0  0  0
 38 66  1  0  0  0  0
 38 71  1  0  0  0  0
 38 82  2  0  0  0  0
 39 67  1  0  0  0  0
 39 76  1  0  0  0  0
 39 83  2  0  0  0  0
 40 72  1  0  0  0  0
 40 77  1  0  0  0  0
 40 84  2  0  0  0  0
 41 45  1  0  0  0  0
 42 53  1  0  0  0  0
 43 71  1  0  0  0  0
 44 55  1  0  0  0  0
 45 47  1  0  0  0  0
 46 48  1  0  0  0  0
 46 49  1  0  0  0  0
 47 52  1  0  0  0  0
 48 54  1  0  0  0  0
 49 72  1  0  0  0  0
 50 54  1  0  0  0  0
 50 72  1  0  0  0  0
 51 55  1  0  0  0  0
 51 78  1  0  0  0  0
 52 75  1  0  0  0  0
 53 71  1  0  0  0  0
 54 70  1  0  0  0  0
 55 86  1  0  0  0  0
 59 67  1  0  0  0  0
 60 68  1  0  0  0  0
 61 68  1  0  0  0  0
 62 68  1  0  0  0  0
 63 79  1  0  0  0  0
 64 77  1  0  0  0  0
 65 78  1  0  0  0  0
 66 68  1  0  0  0  0
 66 76  1  0  0  0  0
 67 79  1  0  0  0  0
 69 70  1  0  0  0  0
M  CHG  2  78   1  79   1
M  ISO  4  40 100  55 101  77 100  86 101
M  END
> <Batch ID>
0032

> <Smiles>
CNC(C)C(=O)NC(C(=O)N1Cc2cc([101O:1][101CH:1]3CC(=C(C)C)N(Cc4cc(F)c(C[100NH:0][100C:0](=O)N5CCCC(n6nc(-c7ccc(Oc8ccc(F)cc8F)cc7)c(C(N)=O)c6N)C5)cc4C)C3)ccc2CC1C(=O)NC1CCCc2ccccc21)C(C)(C)C

> <Shape>
0.208

> <Color>
0.086

> <Negative vol penalty>
0.000

$$$$

  -OEChem-04042321423D

 87 96  0     1  0  0  0  0  0999 V2000
  -26.6189  -38.2225   23.6608 C   0  0  0  0  0  0  0  0  0  0  0  0
  -27.3175  -37.3620   22.8201 C   0  0  0  0  0  0  0  0  0  0  0  0
  -24.3271   -8.8558   20.1872 C   0  0  0  0  0  0  0  0  0  0  0  0
  -22.8169  -10.4733   21.1568 C   0  0  0  0  0  0  0  0  0  0  0  0
  -25.8318  -37.7046   24.6885 C   0  0  0  0  0  0  0  0  0  0  0  0
  -27.2303  -35.9830   23.0072 C   0  0  0  0  0  0  0  0  0  0  0  0
  -27.2799  -29.8357   19.3296 C   0  0  0  0  0  0  0  0  0  0  0  0
  -27.7516  -21.0941   20.9402 C   0  0  0  0  0  0  0  0  0  0  0  0
  -28.0328  -19.7316   21.0414 C   0  0  0  0  0  0  0  0  0  0  0  0
  -23.5325   -7.8197   20.6780 C   0  0  0  0  0  0  0  0  0  0  0  0
  -22.0223   -9.4372   21.6475 C   0  0  0  0  0  0  0  0  0  0  0  0
  -27.9244  -28.5996   19.3065 C   0  0  0  0  0  0  0  0  0  0  0  0
  -23.0307   -6.2495   23.6287 C   0  0  0  0  0  0  0  0  0  0  0  0
  -23.6742   -5.1767   24.2456 C   0  0  0  0  0  0  0  0  0  0  0  0
  -26.4711  -27.8158   21.0651 C   0  0  0  0  0  0  0  0  0  0  0  0
  -22.7404   -3.6717   22.6023 C   0  0  0  0  0  0  0  0  0  0  0  0
  -23.9693  -10.1826   20.4267 C   0  0  0  0  0  0  0  0  0  0  0  0
  -24.6758  -11.8949   18.6727 C   0  0  0  0  0  0  0  0  0  0  0  0
  -25.7272  -36.3182   24.8824 C   0  0  0  0  0  0  0  0  0  0  0  0
  -26.2316  -30.0751   20.2297 C   0  0  0  0  0  0  0  0  0  0  0  0
  -26.4421  -35.4460   24.0393 C   0  0  0  0  0  0  0  0  0  0  0  0
  -25.8132  -29.0549   21.0959 C   0  0  0  0  0  0  0  0  0  0  0  0
  -26.8581  -21.5518   19.9717 C   0  0  0  0  0  0  0  0  0  0  0  0
  -26.2461  -20.6470   19.1042 C   0  0  0  0  0  0  0  0  0  0  0  0
  -26.5274  -19.2845   19.2054 C   0  0  0  0  0  0  0  0  0  0  0  0
  -27.4207  -18.8269   20.1740 C   0  0  0  0  0  0  0  0  0  0  0  0
  -22.3801   -8.1104   21.4081 C   0  0  0  0  0  0  0  0  0  0  0  0
  -27.5219  -27.5904   20.1763 C   0  0  0  0  0  0  0  0  0  0  0  0
  -22.2420   -6.0335   22.4987 C   0  0  0  0  0  0  0  0  0  0  0  0
  -23.5291   -3.8878   23.7324 C   0  0  0  0  0  0  0  0  0  0  0  0
  -22.0969   -4.7446   21.9854 C   0  0  0  0  0  0  0  0  0  0  0  0
  -24.7900  -11.2532   19.9205 C   0  0  0  0  0  0  0  0  0  0  0  0
  -25.6799  -12.8320   18.6753 C   0  0  0  0  0  0  0  0  0  0  0  0
  -28.5564  -24.2085   19.0454 C   0  0  0  0  0  0  0  0  0  0  0  0
  -29.7445  -23.6594   19.3136 C   0  0  0  0  0  0  0  0  0  0  0  0
  -23.7452  -11.6644   17.6065 C   0  0  0  0  0  0  0  0  0  0  0  0
  -25.7597  -32.0962   22.6373 C   0  0  0  0  0  0  0  0  0  0  0  0
  -22.7775  -30.8202   22.6114 C   0  0  0  0  0  0  0  0  0  0  0  0
  -20.7584  -28.1905   21.8022 C   0  0  0  0  0  0  0  0  0  0  0  0
  -28.5875  -16.8484   21.2086 C   0  0  0  0  0  0  0  0  0  0  0  0
  -24.9016  -35.8067   26.0362 C   0  0  0  0  0  0  0  0  0  0  0  0
  -25.5290  -31.4050   20.2238 C   0  0  0  0  0  0  0  0  0  0  0  0
  -24.6797  -29.2545   22.0673 C   0  0  0  0  0  0  0  0  0  0  0  0
  -24.5653  -34.3213   25.9333 C   0  0  0  0  0  0  0  0  0  0  0  0
  -29.5670  -13.4860   21.8509 C   0  0  0  0  0  0  0  0  0  0  0  0
  -25.8074  -33.5171   25.5632 C   0  0  0  0  0  0  0  0  0  0  0  0
  -28.4021  -12.6582   21.3033 C   0  0  0  0  0  0  0  0  0  0  0  0
  -29.0858  -14.7834   22.4981 C   0  0  0  0  0  0  0  0  0  0  0  0
  -27.0535  -14.7864   21.1056 C   0  0  0  0  0  0  0  0  0  0  0  0
  -26.7418  -25.0503   18.5386 C   0  0  0  0  0  0  0  0  0  0  0  0
  -26.3532  -33.9434   24.1950 C   0  0  1  0  0  0  0  0  0  0  0  0
  -28.1127  -25.6521   18.9313 C   0  0  1  0  0  0  0  0  0  1  0  0
  -24.8134  -31.7086   21.5364 C   0  0  1  0  0  0  0  0  0  0  0  0
  -27.4939  -13.5009   20.3865 C   0  0  2  0  0  0  0  0  0  0  0  0
  -25.2883  -21.1409   18.0665 C   0  0  0  0  0  0  0  0  0  0  0  0
  -18.3729  -27.4236   21.9390 C   0  0  0  0  0  0  0  0  0  0  0  0
  -23.1409  -30.2276   25.5824 C   0  0  0  0  0  0  0  0  0  0  0  0
  -21.1959  -28.6580   25.4359 C   0  0  0  0  0  0  0  0  0  0  0  0
  -20.8759  -31.0855   24.9591 C   0  0  0  0  0  0  0  0  0  0  0  0
  -20.5294  -27.9993   18.8578 C   0  0  0  0  0  0  0  0  0  0  0  0
  -26.5733  -23.0222   19.8845 C   0  0  0  0  0  0  0  0  0  0  0  0
  -25.8694  -18.3154   18.2735 C   0  0  0  0  0  0  0  0  0  0  0  0
  -22.1111  -29.6463   23.2873 C   0  0  1  0  0  0  0  0  0  0  0  0
  -19.4186  -28.1309   21.0910 C   0  0  2  0  0  0  0  0  0  0  0  0
  -21.8536  -29.9009   24.7993 C   0  0  0  0  0  0  0  0  0  0  0  0
  -25.7881  -11.7414   20.6619 N   0  0  0  0  0  0  0  0  0  0  0  0
  -26.3102  -12.6997   19.8775 N   0  0  0  0  0  0  0  0  0  0  0  0
  -24.0284  -30.5743   22.0278 N   0  0  0  0  0  0  0  0  0  0  0  0
  -28.2346  -15.5309   21.5699 N   0  0  0  0  0  0  0  0  0  0  0  0
  -26.0764  -13.7481   17.7664 N   0  0  0  0  0  0  0  0  0  0  0  0
  -22.7780  -10.6631   17.7687 N   0  0  0  0  0  0  0  0  0  0  0  0
  -27.7211  -17.4474   20.2948 N   0  0  0  0  0  0  0  0  0  0  0  0
  -25.5558  -33.3703   23.1319 N   0  0  0  0  0  0  0  0  0  0  0  0
  -20.9062  -29.3611   22.5157 N   0  0  0  0  0  0  0  0  0  0  0  0
  -27.2378  -23.6757   18.7299 N   0  3  2  0  0  0  0  0  0  0  0  0
  -19.5498  -27.3989   19.7995 N   0  3  0  0  0  0  0  0  0  0  0  0
  -23.7810  -12.3157   16.5351 O   0  0  0  0  0  0  0  0  0  0  0  0
  -26.6109  -31.2978   23.0113 O   0  0  0  0  0  0  0  0  0  0  0  0
  -22.2060  -31.9132   22.5955 O   0  0  0  0  0  0  0  0  0  0  0  0
  -21.5891  -27.2872   21.7349 O   0  0  0  0  0  0  0  0  0  0  0  0
  -29.5999  -17.3944   21.6545 O   0  0  0  0  0  0  0  0  0  0  0  0
  -21.6044   -7.0997   21.8869 O   0  0  0  0  0  0  0  0  0  0  0  0
  -28.1497  -26.3832   20.1563 O   0  0  0  0  0  0  0  0  0  1  0  0
  -24.1484   -2.8579   24.3239 F   0  0  0  0  0  0  0  0  0  0  0  0
  -21.3415   -4.5310   20.8994 F   0  0  0  0  0  0  0  0  0  0  0  0
  -24.7106  -17.8515   18.8061 F   0  0  0  0  0  0  0  0  0  0  0  0
  -26.6642  -17.2347   18.0691 F   0  0  0  0  0  0  0  0  0  0  0  0
  1  2  1  0  0  0  0
  1  5  2  0  0  0  0
  2  6  2  0  0  0  0
  3 10  2  0  0  0  0
  3 17  1  0  0  0  0
  4 11  1  0  0  0  0
  4 17  2  0  0  0  0
  5 19  1  0  0  0  0
  6 21  1  0  0  0  0
  7 12  2  0  0  0  0
  7 20  1  0  0  0  0
  8  9  2  0  0  0  0
  8 23  1  0  0  0  0
  9 26  1  0  0  0  0
 10 27  1  0  0  0  0
 11 27  2  0  0  0  0
 12 28  1  0  0  0  0
 13 14  2  0  0  0  0
 13 29  1  0  0  0  0
 14 30  1  0  0  0  0
 15 22  1  0  0  0  0
 15 28  2  0  0  0  0
 16 30  2  0  0  0  0
 16 31  1  0  0  0  0
 17 32  1  0  0  0  0
 18 32  1  0  0  0  0
 18 33  2  0  0  0  0
 18 36  1  0  0  0  0
 19 21  2  0  0  0  0
 19 41  1  0  0  0  0
 20 22  2  0  0  0  0
 20 42  1  0  0  0  0
 21 51  1  0  0  0  0
 22 43  1  0  0  0  0
 23 24  2  0  0  0  0
 23 61  1  0  0  0  0
 24 25  1  0  0  0  0
 24 55  1  0  0  0  0
 25 26  2  0  0  0  0
 25 62  1  0  0  0  0
 26 72  1  0  0  0  0
 27 82  1  0  0  0  0
 28 83  1  0  0  0  0
 29 31  2  0  0  0  0
 29 82  1  0  0  0  0
 30 84  1  0  0  0  0
 31 85  1  0  0  0  0
 32 66  2  0  0  0  0
 33 67  1  0  0  0  0
 33 70  1  0  0  0  0
 34 35  2  0  0  0  0
 34 52  1  0  0  0  0
 34 75  1  0  0  0  0
 36 71  1  0  0  0  0
 36 77  2  0  0  0  0
 37 53  1  0  0  0  0
 37 73  1  0  0  0  0
 37 78  2  0  0  0  0
 38 63  1  0  0  0  0
 38 68  1  0  0  0  0
 38 79  2  0  0  0  0
 39 64  1  0  0  0  0
 39 74  1  0  0  0  0
 39 80  2  0  0  0  0
 40 69  1  0  0  0  0
 40 72  1  0  0  0  0
 40 81  2  0  0  0  0
 41 44  1  0  0  0  0
 42 53  1  0  0  0  0
 43 68  1  0  0  0  0
 44 46  1  0  0  0  0
 45 47  1  0  0  0  0
 45 48  1  0  0  0  0
 46 51  1  0  0  0  0
 47 54  1  0  0  0  0
 48 69  1  0  0  0  0
 49 54  1  0  0  0  0
 49 69  1  0  0  0  0
 50 52  1  0  0  0  0
 50 75  1  0  0  0  0
 51 73  1  0  0  0  0
 52 83  1  0  0  0  0
 53 68  1  0  0  0  0
 54 67  1  0  0  0  0
 56 64  1  0  0  0  0
 57 65  1  0  0  0  0
 58 65  1  0  0  0  0
 59 65  1  0  0  0  0
 60 76  1  0  0  0  0
 61 75  1  0  0  0  0
 62 86  1  0  0  0  0
 62 87  1  0  0  0  0
 63 65  1  0  0  0  0
 63 74  1  0  0  0  0
 64 76  1  0  0  0  0
 66 67  1  0  0  0  0
M  CHG  2  75   1  76   1
M  ISO  4  40 100  52 101  72 100  83 101
M  END
> <Batch ID>
0032

> <Smiles>
C=C1N(Cc2ccc([100NH:0][100C:0](=O)N3CCCC(n4nc(-c5ccc(Oc6ccc(F)cc6F)cc5)c(C(N)=O)c4N)C3)c(C(F)F)c2C)C[101CH:1]1[101O:1]c1ccc2c(c1)CN(C(=O)C(NC(=O)C(C)NC)C(C)(C)C)C(C(=O)NC1CCCc3ccccc31)C2

> <Shape>
0.322

> <Color>
0.118

> <Negative vol penalty>
0.000

$$$$

  -OEChem-04042321423D

 84 93  0     1  0  0  0  0  0999 V2000
  -29.5408  -32.2892   26.0225 C   0  0  0  0  0  0  0  0  0  0  0  0
  -29.1988  -31.0966   25.3931 C   0  0  0  0  0  0  0  0  0  0  0  0
  -23.4076   -9.8417   19.8181 C   0  0  0  0  0  0  0  0  0  0  0  0
  -24.4757   -9.6556   21.9771 C   0  0  0  0  0  0  0  0  0  0  0  0
  -28.5544  -33.2308   26.3126 C   0  0  0  0  0  0  0  0  0  0  0  0
  -27.8699  -30.8444   25.0543 C   0  0  0  0  0  0  0  0  0  0  0  0
  -27.3803  -28.9618   20.3788 C   0  0  0  0  0  0  0  0  0  0  0  0
  -29.4749  -20.5197   21.3533 C   0  0  0  0  0  0  0  0  0  0  0  0
  -29.6000  -19.1511   21.1145 C   0  0  0  0  0  0  0  0  0  0  0  0
  -22.9775   -8.5185   19.9168 C   0  0  0  0  0  0  0  0  0  0  0  0
  -24.0455   -8.3324   22.0759 C   0  0  0  0  0  0  0  0  0  0  0  0
  -27.6741  -27.6103   20.2026 C   0  0  0  0  0  0  0  0  0  0  0  0
  -21.1925   -6.6936   22.8473 C   0  0  0  0  0  0  0  0  0  0  0  0
  -20.6426   -6.2814   24.0611 C   0  0  0  0  0  0  0  0  0  0  0  0
  -25.3176  -27.0972   20.2568 C   0  0  0  0  0  0  0  0  0  0  0  0
  -22.3701   -4.6060   24.2749 C   0  0  0  0  0  0  0  0  0  0  0  0
  -24.1568  -10.4103   20.8482 C   0  0  0  0  0  0  0  0  0  0  0  0
  -23.9195  -12.9280   21.1836 C   0  0  0  0  0  0  0  0  0  0  0  0
  -27.2141  -32.9943   25.9686 C   0  0  0  0  0  0  0  0  0  0  0  0
  -26.0513  -29.3905   20.5065 C   0  0  0  0  0  0  0  0  0  0  0  0
  -26.8643  -31.7832   25.3413 C   0  0  0  0  0  0  0  0  0  0  0  0
  -25.0095  -28.4550   20.4320 C   0  0  0  0  0  0  0  0  0  0  0  0
  -28.7332  -20.9724   22.4445 C   0  0  0  0  0  0  0  0  0  0  0  0
  -28.1164  -20.0565   23.2967 C   0  0  0  0  0  0  0  0  0  0  0  0
  -28.2413  -18.6879   23.0579 C   0  0  0  0  0  0  0  0  0  0  0  0
  -28.9832  -18.2352   21.9668 C   0  0  0  0  0  0  0  0  0  0  0  0
  -23.2964   -7.7639   21.0457 C   0  0  0  0  0  0  0  0  0  0  0  0
  -26.6428  -26.6775   20.1445 C   0  0  0  0  0  0  0  0  0  0  0  0
  -22.3313   -6.0619   22.3473 C   0  0  0  0  0  0  0  0  0  0  0  0
  -21.2313   -5.2377   24.7749 C   0  0  0  0  0  0  0  0  0  0  0  0
  -22.9201   -5.0182   23.0611 C   0  0  0  0  0  0  0  0  0  0  0  0
  -24.6019  -11.7769   20.7465 C   0  0  0  0  0  0  0  0  0  0  0  0
  -24.7569  -13.9673   20.8598 C   0  0  0  0  0  0  0  0  0  0  0  0
  -22.6427  -13.0471   21.8250 C   0  0  0  0  0  0  0  0  0  0  0  0
  -24.3718  -30.8438   22.7805 C   0  0  0  0  0  0  0  0  0  0  0  0
  -22.0641  -30.8939   20.5015 C   0  0  0  0  0  0  0  0  0  0  0  0
  -20.7791  -29.5304   17.6490 C   0  0  0  0  0  0  0  0  0  0  0  0
  -29.8296  -16.2546   20.6602 C   0  0  0  0  0  0  0  0  0  0  0  0
  -26.1758  -34.0214   26.3450 C   0  0  0  0  0  0  0  0  0  0  0  0
  -25.7497  -30.8551   20.6693 C   0  0  0  0  0  0  0  0  0  0  0  0
  -23.5649  -28.8663   20.5434 C   0  0  0  0  0  0  0  0  0  0  0  0
  -24.8471  -33.8400   25.6158 C   0  0  0  0  0  0  0  0  0  0  0  0
  -28.9322  -14.0650   17.9998 C   0  0  0  0  0  0  0  0  0  0  0  0
  -24.4152  -32.3774   25.6490 C   0  0  0  0  0  0  0  0  0  0  0  0
  -27.6695  -13.3692   18.5132 C   0  0  0  0  0  0  0  0  0  0  0  0
  -29.9417  -14.3074   19.1205 C   0  0  0  0  0  0  0  0  0  0  0  0
  -28.1465  -14.3152   20.8077 C   0  0  0  0  0  0  0  0  0  0  0  0
  -27.2767  -24.4656   22.3139 C   0  0  0  0  0  0  0  0  0  0  0  0
  -27.0880  -22.9930   20.8448 C   0  0  0  0  0  0  0  0  0  0  0  0
  -25.4374  -31.4840   24.9359 C   0  0  1  0  0  0  0  0  0  0  0  0
  -24.3871  -31.1177   21.3032 C   0  0  1  0  0  0  0  0  0  0  0  0
  -27.0727  -14.1083   19.7270 C   0  0  2  0  0  0  0  0  0  0  0  0
  -26.5162  -24.4154   20.9769 C   0  0  0  0  0  0  0  0  0  1  0  0
  -27.3215  -20.5450   24.4662 C   0  0  0  0  0  0  0  0  0  0  0  0
  -27.5786  -17.7068   23.9738 C   0  0  0  0  0  0  0  0  0  0  0  0
  -18.8635  -29.7617   16.0446 C   0  0  0  0  0  0  0  0  0  0  0  0
  -20.2104  -29.5625   22.5266 C   0  0  0  0  0  0  0  0  0  0  0  0
  -18.6841  -28.9670   20.6334 C   0  0  0  0  0  0  0  0  0  0  0  0
  -19.1406  -31.3624   21.1589 C   0  0  0  0  0  0  0  0  0  0  0  0
  -22.5946  -30.1043   15.3832 C   0  0  0  0  0  0  0  0  0  0  0  0
  -28.6148  -22.4496   22.6784 C   0  0  0  0  0  0  0  0  0  0  0  0
  -20.9515  -29.9620   20.0859 C   0  0  1  0  0  0  0  0  0  0  0  0
  -20.2957  -30.1659   16.3579 C   0  0  2  0  0  0  0  0  0  0  0  0
  -19.7739  -29.9552   21.1010 C   0  0  0  0  0  0  0  0  0  0  0  0
  -25.7820  -12.0581   20.1876 N   0  0  0  0  0  0  0  0  0  0  0  0
  -25.8475  -13.3978   20.2711 N   0  0  0  0  0  0  0  0  0  0  0  0
  -23.3214  -30.3089   20.7079 N   0  0  0  0  0  0  0  0  0  0  0  0
  -29.3067  -15.0153   20.2343 N   0  0  0  0  0  0  0  0  0  0  0  0
  -24.6595  -15.3037   21.0240 N   0  0  0  0  0  0  0  0  0  0  0  0
  -21.9136  -11.8785   22.0841 N   0  0  0  0  0  0  0  0  0  0  0  0
  -29.1236  -16.8497   21.7052 N   0  0  0  0  0  0  0  0  0  0  0  0
  -25.2860  -31.5891   23.5004 N   0  0  0  0  0  0  0  0  0  0  0  0
  -20.5724  -30.3565   18.7335 N   0  0  0  0  0  0  0  0  0  0  0  0
  -27.2896  -22.9911   22.3056 N   0  3  0  0  0  0  0  0  0  0  0  0
  -21.1616  -29.7484   15.2191 N   0  3  0  0  0  0  0  0  0  0  0  0
  -22.1553  -14.1581   22.1436 O   0  0  0  0  0  0  0  0  0  0  0  0
  -23.5876  -30.0184   23.2339 O   0  0  0  0  0  0  0  0  0  0  0  0
  -21.8279  -32.0977   20.6310 O   0  0  0  0  0  0  0  0  0  0  0  0
  -21.2858  -28.4115   17.6917 O   0  0  0  0  0  0  0  0  0  0  0  0
  -30.8138  -16.7644   20.1185 O   0  0  0  0  0  0  0  0  0  0  0  0
  -22.8766   -6.4728   21.1425 O   0  0  0  0  0  0  0  0  0  0  0  0
  -26.9268  -25.3577   19.9732 O   0  0  0  0  0  0  0  0  0  1  0  0
  -20.7040   -4.8430   25.9412 F   0  0  0  0  0  0  0  0  0  0  0  0
  -24.0149   -4.4083   22.5864 F   0  0  0  0  0  0  0  0  0  0  0  0
  1  2  1  0  0  0  0
  1  5  2  0  0  0  0
  2  6  2  0  0  0  0
  3 10  2  0  0  0  0
  3 17  1  0  0  0  0
  4 11  1  0  0  0  0
  4 17  2  0  0  0  0
  5 19  1  0  0  0  0
  6 21  1  0  0  0  0
  7 12  2  0  0  0  0
  7 20  1  0  0  0  0
  8  9  2  0  0  0  0
  8 23  1  0  0  0  0
  9 26  1  0  0  0  0
 10 27  1  0  0  0  0
 11 27  2  0  0  0  0
 12 28  1  0  0  0  0
 13 14  2  0  0  0  0
 13 29  1  0  0  0  0
 14 30  1  0  0  0  0
 15 22  1  0  0  0  0
 15 28  2  0  0  0  0
 16 30  2  0  0  0  0
 16 31  1  0  0  0  0
 17 32  1  0  0  0  0
 18 32  1  0  0  0  0
 18 33  2  0  0  0  0
 18 34  1  0  0  0  0
 19 21  2  0  0  0  0
 19 39  1  0  0  0  0
 20 22  2  0  0  0  0
 20 40  1  0  0  0  0
 21 50  1  0  0  0  0
 22 41  1  0  0  0  0
 23 24  2  0  0  0  0
 23 61  1  0  0  0  0
 24 25  1  0  0  0  0
 24 54  1  0  0  0  0
 25 26  2  0  0  0  0
 25 55  1  0  0  0  0
 26 71  1  0  0  0  0
 27 81  1  0  0  0  0
 28 82  1  0  0  0  0
 29 31  2  0  0  0  0
 29 81  1  0  0  0  0
 30 83  1  0  0  0  0
 31 84  1  0  0  0  0
 32 65  2  0  0  0  0
 33 66  1  0  0  0  0
 33 69  1  0  0  0  0
 34 70  1  0  0  0  0
 34 76  2  0  0  0  0
 35 51  1  0  0  0  0
 35 72  1  0  0  0  0
 35 77  2  0  0  0  0
 36 62  1  0  0  0  0
 36 67  1  0  0  0  0
 36 78  2  0  0  0  0
 37 63  1  0  0  0  0
 37 73  1  0  0  0  0
 37 79  2  0  0  0  0
 38 68  1  0  0  0  0
 38 71  1  0  0  0  0
 38 80  2  0  0  0  0
 39 42  1  0  0  0  0
 40 51  1  0  0  0  0
 41 67  1  0  0  0  0
 42 44  1  0  0  0  0
 43 45  1  0  0  0  0
 43 46  1  0  0  0  0
 44 50  1  0  0  0  0
 45 52  1  0  0  0  0
 46 68  1  0  0  0  0
 47 52  1  0  0  0  0
 47 68  1  0  0  0  0
 48 53  1  0  0  0  0
 48 74  1  0  0  0  0
 49 53  1  0  0  0  0
 49 74  1  0  0  0  0
 50 72  1  0  0  0  0
 51 67  1  0  0  0  0
 52 66  1  0  0  0  0
 53 82  1  0  0  0  0
 56 63  1  0  0  0  0
 57 64  1  0  0  0  0
 58 64  1  0  0  0  0
 59 64  1  0  0  0  0
 60 75  1  0  0  0  0
 61 74  1  0  0  0  0
 62 64  1  0  0  0  0
 62 73  1  0  0  0  0
 63 75  1  0  0  0  0
 65 66  1  0  0  0  0
M  CHG  2  74   1  75   1
M  ISO  4  38 100  53 101  71 100  82 101
M  END
> <Batch ID>
0032

> <Smiles>
CNC(C)C(=O)NC(C(=O)N1Cc2cc([101O:1][101CH:1]3CN(Cc4ccc([100NH:0][100C:0](=O)N5CCCC(n6nc(-c7ccc(Oc8ccc(F)cc8F)cc7)c(C(N)=O)c6N)C5)c(C)c4C)C3)ccc2CC1C(=O)NC1CCCc2ccccc21)C(C)(C)C

> <Shape>
0.330

> <Color>
0.138

> <Negative vol penalty>
0.000

$$$$

  -OEChem-04042321423D

 85 93  0     1  0  0  0  0  0999 V2000
  -18.5389  -33.1059   24.7654 C   0  0  0  0  0  0  0  0  0  0  0  0
  -19.8511  -33.2434   24.3245 C   0  0  0  0  0  0  0  0  0  0  0  0
  -27.0910  -12.9168   21.0811 C   0  0  0  0  0  0  0  0  0  0  0  0
  -26.9616  -13.2595   18.6930 C   0  0  0  0  0  0  0  0  0  0  0  0
  -18.0087  -31.8356   24.9873 C   0  0  0  0  0  0  0  0  0  0  0  0
  -20.6344  -32.1106   24.1062 C   0  0  0  0  0  0  0  0  0  0  0  0
  -25.8816  -29.6816   19.8773 C   0  0  0  0  0  0  0  0  0  0  0  0
  -30.3328  -23.4522   15.6844 C   0  0  0  0  0  0  0  0  0  0  0  0
  -26.3366  -11.7504   20.9546 C   0  0  0  0  0  0  0  0  0  0  0  0
  -26.2073  -12.0931   18.5665 C   0  0  0  0  0  0  0  0  0  0  0  0
  -27.1390  -29.0846   19.9559 C   0  0  0  0  0  0  0  0  0  0  0  0
  -24.1392   -8.8740   21.3033 C   0  0  0  0  0  0  0  0  0  0  0  0
  -23.1026   -8.6684   22.2136 C   0  0  0  0  0  0  0  0  0  0  0  0
  -29.7094  -22.4718   14.9124 C   0  0  0  0  0  0  0  0  0  0  0  0
  -26.0920  -26.9382   20.2966 C   0  0  0  0  0  0  0  0  0  0  0  0
  -22.0459  -10.7104   21.4715 C   0  0  0  0  0  0  0  0  0  0  0  0
  -27.4035  -13.6714   19.9503 C   0  0  0  0  0  0  0  0  0  0  0  0
  -29.5838  -14.9938   20.0211 C   0  0  0  0  0  0  0  0  0  0  0  0
  -18.7828  -30.6864   24.7624 C   0  0  0  0  0  0  0  0  0  0  0  0
  -24.7181  -28.9118   20.0188 C   0  0  0  0  0  0  0  0  0  0  0  0
  -20.1146  -30.8238   24.3265 C   0  0  0  0  0  0  0  0  0  0  0  0
  -24.8210  -27.5275   20.2168 C   0  0  0  0  0  0  0  0  0  0  0  0
  -30.1425  -23.4776   17.0660 C   0  0  0  0  0  0  0  0  0  0  0  0
  -28.7053  -21.5424   16.9037 C   0  0  0  0  0  0  0  0  0  0  0  0
  -25.8948  -11.3385   19.6973 C   0  0  0  0  0  0  0  0  0  0  0  0
  -27.2444  -27.7132   20.1685 C   0  0  0  0  0  0  0  0  0  0  0  0
  -24.1293   -9.9979   20.4771 C   0  0  0  0  0  0  0  0  0  0  0  0
  -22.0559   -9.5865   22.2977 C   0  0  0  0  0  0  0  0  0  0  0  0
  -23.0827  -10.9161   20.5613 C   0  0  0  0  0  0  0  0  0  0  0  0
  -28.8956  -21.5170   15.5220 C   0  0  0  0  0  0  0  0  0  0  0  0
  -29.3287  -22.5227   17.6756 C   0  0  0  0  0  0  0  0  0  0  0  0
  -28.1822  -14.8767   20.0804 C   0  0  0  0  0  0  0  0  0  0  0  0
  -29.8243  -16.3342   20.1996 C   0  0  0  0  0  0  0  0  0  0  0  0
  -30.5794  -13.9813   19.8223 C   0  0  0  0  0  0  0  0  0  0  0  0
  -22.2949  -28.8663   22.0755 C   0  0  0  0  0  0  0  0  0  0  0  0
  -21.1015  -26.6583   20.0206 C   0  0  0  0  0  0  0  0  0  0  0  0
  -21.7054  -24.3169   17.6123 C   0  0  0  0  0  0  0  0  0  0  0  0
  -26.0241  -21.0443   19.2449 C   0  0  0  0  0  0  0  0  0  0  0  0
  -18.1814  -29.3360   25.0614 C   0  0  0  0  0  0  0  0  0  0  0  0
  -23.3688  -29.5667   19.9048 C   0  0  0  0  0  0  0  0  0  0  0  0
  -23.6022  -26.6534   20.3549 C   0  0  0  0  0  0  0  0  0  0  0  0
  -18.9577  -28.1739   24.4474 C   0  0  0  0  0  0  0  0  0  0  0  0
  -27.9984  -20.2350   22.2696 C   0  0  0  0  0  0  0  0  0  0  0  0
  -20.4527  -28.3360   24.7037 C   0  0  0  0  0  0  0  0  0  0  0  0
  -28.3228  -18.7556   22.0696 C   0  0  0  0  0  0  0  0  0  0  0  0
  -26.6933  -20.6272   21.5836 C   0  0  0  0  0  0  0  0  0  0  0  0
  -26.9710  -18.8042   19.9363 C   0  0  0  0  0  0  0  0  0  0  0  0
  -20.9879  -29.6181   24.0547 C   0  0  1  0  0  0  0  0  0  0  0  0
  -22.2574  -28.7664   20.5768 C   0  0  1  0  0  0  0  0  0  0  0  0
  -28.3037  -18.3868   20.5759 C   0  0  2  0  0  0  0  0  0  0  0  0
  -20.5337  -22.6489   16.1487 C   0  0  0  0  0  0  0  0  0  0  0  0
  -20.7791  -24.7904   22.4116 C   0  0  0  0  0  0  0  0  0  0  0  0
  -20.5256  -22.8886   20.8031 C   0  0  0  0  0  0  0  0  0  0  0  0
  -18.8708  -24.7552   20.7956 C   0  0  0  0  0  0  0  0  0  0  0  0
  -25.8865  -21.9028   16.9375 C   0  0  0  0  0  0  0  0  0  0  0  0
  -22.6245  -25.6643   15.1427 C   0  0  0  0  0  0  0  0  0  0  0  0
  -27.8301  -20.5140   17.5537 C   0  0  0  0  0  0  0  0  0  0  0  0
  -30.8332  -24.5507   17.8548 C   0  0  0  0  0  0  0  0  0  0  0  0
  -30.5550  -26.6773   19.1351 C   0  0  0  0  0  0  0  0  0  0  0  0
  -29.5261  -27.7299   19.4980 C   0  0  0  0  0  0  0  0  0  1  0  0
  -21.1969  -25.1573   19.8903 C   0  0  1  0  0  0  0  0  0  0  0  0
  -21.0586  -24.0718   16.2610 C   0  0  2  0  0  0  0  0  0  0  0  0
  -20.3663  -24.4144   20.9745 C   0  0  0  0  0  0  0  0  0  0  0  0
  -27.5749  -16.0493   20.2811 N   0  0  0  0  0  0  0  0  0  0  0  0
  -28.5998  -16.9158   20.3495 N   0  0  0  0  0  0  0  0  0  0  0  0
  -22.3056  -27.3415   20.2425 N   0  0  0  0  0  0  0  0  0  0  0  0
  -26.6848  -20.2266   20.1763 N   0  0  0  0  0  0  0  0  0  0  0  0
  -30.9616  -17.0603   20.2415 N   0  0  0  0  0  0  0  0  0  0  0  0
  -30.1593  -12.6547   19.6554 N   0  0  0  0  0  0  0  0  0  0  0  0
  -21.1615  -29.4292   22.6304 N   0  0  0  0  0  0  0  0  0  0  0  0
  -20.8094  -24.8411   18.5199 N   0  0  0  0  0  0  0  0  0  0  0  0
  -26.5304  -21.0615   17.9364 N   0  0  0  0  0  0  0  0  0  0  0  0
  -22.0445  -24.2968   15.1663 N   0  3  0  0  0  0  0  0  0  0  0  0
  -29.9121  -25.6307   18.3011 N   0  3  0  0  0  0  0  0  0  0  0  0
  -31.8062  -14.2430   19.8100 O   0  0  0  0  0  0  0  0  0  0  0  0
  -23.2787  -28.4612   22.6836 O   0  0  0  0  0  0  0  0  0  0  0  0
  -20.0002  -27.2051   19.9217 O   0  0  0  0  0  0  0  0  0  0  0  0
  -22.8864  -24.0648   17.8410 O   0  0  0  0  0  0  0  0  0  0  0  0
  -25.0438  -21.7278   19.5669 O   0  0  0  0  0  0  0  0  0  0  0  0
  -25.1589  -10.2003   19.5734 O   0  0  0  0  0  0  0  0  0  0  0  0
  -28.4706  -27.1280   20.2463 O   0  0  0  0  0  0  0  0  0  1  0  0
  -21.0597   -9.3881   23.1708 F   0  0  0  0  0  0  0  0  0  0  0  0
  -23.0671  -11.9971   19.7694 F   0  0  0  0  0  0  0  0  0  0  0  0
  -28.1437  -20.3218   14.5276 Cl  0  0  0  0  0  0  0  0  0  0  0  0
  -29.0963  -22.5601   19.3923 Cl  0  0  0  0  0  0  0  0  0  0  0  0
  1  2  1  0  0  0  0
  1  5  2  0  0  0  0
  2  6  2  0  0  0  0
  3  9  2  0  0  0  0
  3 17  1  0  0  0  0
  4 10  1  0  0  0  0
  4 17  2  0  0  0  0
  5 19  1  0  0  0  0
  6 21  1  0  0  0  0
  7 11  2  0  0  0  0
  7 20  1  0  0  0  0
  8 14  2  0  0  0  0
  8 23  1  0  0  0  0
  9 25  1  0  0  0  0
 10 25  2  0  0  0  0
 11 26  1  0  0  0  0
 12 13  2  0  0  0  0
 12 27  1  0  0  0  0
 13 28  1  0  0  0  0
 14 30  1  0  0  0  0
 15 22  1  0  0  0  0
 15 26  2  0  0  0  0
 16 28  2  0  0  0  0
 16 29  1  0  0  0  0
 17 32  1  0  0  0  0
 18 32  1  0  0  0  0
 18 33  2  0  0  0  0
 18 34  1  0  0  0  0
 19 21  2  0  0  0  0
 19 39  1  0  0  0  0
 20 22  2  0  0  0  0
 20 40  1  0  0  0  0
 21 48  1  0  0  0  0
 22 41  1  0  0  0  0
 23 31  2  0  0  0  0
 23 58  1  0  0  0  0
 24 30  2  0  0  0  0
 24 31  1  0  0  0  0
 24 57  1  0  0  0  0
 25 80  1  0  0  0  0
 26 81  1  0  0  0  0
 27 29  2  0  0  0  0
 27 80  1  0  0  0  0
 28 82  1  0  0  0  0
 29 83  1  0  0  0  0
 30 84  1  0  0  0  0
 31 85  1  0  0  0  0
 32 64  2  0  0  0  0
 33 65  1  0  0  0  0
 33 68  1  0  0  0  0
 34 69  1  0  0  0  0
 34 75  2  0  0  0  0
 35 49  1  0  0  0  0
 35 70  1  0  0  0  0
 35 76  2  0  0  0  0
 36 61  1  0  0  0  0
 36 66  1  0  0  0  0
 36 77  2  0  0  0  0
 37 62  1  0  0  0  0
 37 71  1  0  0  0  0
 37 78  2  0  0  0  0
 38 67  1  0  0  0  0
 38 72  1  0  0  0  0
 38 79  2  0  0  0  0
 39 42  1  0  0  0  0
 40 49  1  0  0  0  0
 41 66  1  0  0  0  0
 42 44  1  0  0  0  0
 43 45  1  0  0  0  0
 43 46  1  0  0  0  0
 44 48  1  0  0  0  0
 45 50  1  0  0  0  0
 46 67  1  0  0  0  0
 47 50  1  0  0  0  0
 47 67  1  0  0  0  0
 48 70  1  0  0  0  0
 49 66  1  0  0  0  0
 50 65  1  0  0  0  0
 51 62  1  0  0  0  0
 52 63  1  0  0  0  0
 53 63  1  0  0  0  0
 54 63  1  0  0  0  0
 55 72  1  0  0  0  0
 56 73  1  0  0  0  0
 57 72  1  0  0  0  0
 58 74  1  0  0  0  0
 59 60  1  0  0  0  0
 59 74  1  0  0  0  0
 60 81  1  0  0  0  0
 61 63  1  0  0  0  0
 61 71  1  0  0  0  0
 62 73  1  0  0  0  0
 64 65  1  0  0  0  0
M  CHG  2  73   1  74   1
M  ISO  4  38 100  60 101  72 100  81 101
M  END
> <Batch ID>
0032

> <Smiles>
CNC(C)C(=O)NC(C(=O)N1Cc2cc([101O:1][101CH2:1]CNCc3ccc(Cl)c(C[100N:0](C)[100C:0](=O)N4CCCC(n5nc(-c6ccc(Oc7ccc(F)cc7F)cc6)c(C(N)=O)c5N)C4)c3Cl)ccc2CC1C(=O)NC1CCCc2ccccc21)C(C)(C)C

> <Shape>
0.263

> <Color>
0.106

> <Negative vol penalty>
0.000

$$$$

  -OEChem-04042321423D

 83 91  0     1  0  0  0  0  0999 V2000
  -23.4885   -7.9168   21.4439 C   0  0  0  0  0  0  0  0  0  0  0  0
  -24.3870   -8.9714   21.3182 C   0  0  0  0  0  0  0  0  0  0  0  0
  -26.8530  -29.2799   20.0378 C   0  0  0  0  0  0  0  0  0  0  0  0
  -26.3486  -27.8216   21.8968 C   0  0  0  0  0  0  0  0  0  0  0  0
  -22.1208   -8.1470   21.3010 C   0  0  0  0  0  0  0  0  0  0  0  0
  -23.9184  -10.2568   21.0484 C   0  0  0  0  0  0  0  0  0  0  0  0
  -26.1457  -13.7801   23.9242 C   0  0  0  0  0  0  0  0  0  0  0  0
  -26.0681  -30.2809   20.6101 C   0  0  0  0  0  0  0  0  0  0  0  0
  -25.5637  -28.8226   22.4691 C   0  0  0  0  0  0  0  0  0  0  0  0
  -27.4308  -14.1800   23.5602 C   0  0  0  0  0  0  0  0  0  0  0  0
  -26.0493  -31.6567   24.2448 C   0  0  0  0  0  0  0  0  0  0  0  0
  -26.2027  -31.8973   25.6101 C   0  0  0  0  0  0  0  0  0  0  0  0
  -26.5140  -16.1477   22.5082 C   0  0  0  0  0  0  0  0  0  0  0  0
  -29.2407  -18.0634   18.8044 C   0  0  0  0  0  0  0  0  0  0  0  0
  -30.8216  -19.3631   20.0884 C   0  0  0  0  0  0  0  0  0  0  0  0
  -23.8741  -31.3610   25.9663 C   0  0  0  0  0  0  0  0  0  0  0  0
  -26.9932  -28.0502   20.6812 C   0  0  0  0  0  0  0  0  0  0  0  0
  -30.7730  -16.9577   20.3098 C   0  0  0  0  0  0  0  0  0  0  0  0
  -29.1793  -26.7947   20.2905 C   0  0  0  0  0  0  0  0  0  0  0  0
  -21.6345   -9.4375   21.0388 C   0  0  0  0  0  0  0  0  0  0  0  0
  -25.0323  -14.5568   23.5728 C   0  0  0  0  0  0  0  0  0  0  0  0
  -22.5431  -10.5042   20.9004 C   0  0  0  0  0  0  0  0  0  0  0  0
  -25.2161  -15.7568   22.8711 C   0  0  0  0  0  0  0  0  0  0  0  0
  -29.7353  -16.8931   19.3800 C   0  0  0  0  0  0  0  0  0  0  0  0
  -29.7839  -19.2984   19.1586 C   0  0  0  0  0  0  0  0  0  0  0  0
  -25.4235  -30.0523   21.8257 C   0  0  0  0  0  0  0  0  0  0  0  0
  -27.6148  -15.3625   22.8496 C   0  0  0  0  0  0  0  0  0  0  0  0
  -24.8082  -31.2683   23.7402 C   0  0  0  0  0  0  0  0  0  0  0  0
  -25.1151  -31.7495   26.4709 C   0  0  0  0  0  0  0  0  0  0  0  0
  -31.3162  -18.1927   20.6640 C   0  0  0  0  0  0  0  0  0  0  0  0
  -23.7206  -31.1204   24.6010 C   0  0  0  0  0  0  0  0  0  0  0  0
  -27.8034  -27.0156   20.0902 C   0  0  0  0  0  0  0  0  0  0  0  0
  -29.4683  -25.7008   19.5119 C   0  0  0  0  0  0  0  0  0  0  0  0
  -31.3183  -15.7204   20.9374 C   0  0  0  0  0  0  0  0  0  0  0  0
  -30.1125  -27.5140   21.1074 C   0  0  0  0  0  0  0  0  0  0  0  0
  -22.4466  -14.0907   21.7838 C   0  0  0  0  0  0  0  0  0  0  0  0
  -21.6002  -17.0014   22.9387 C   0  0  0  0  0  0  0  0  0  0  0  0
  -22.5802  -19.9863   24.2717 C   0  0  0  0  0  0  0  0  0  0  0  0
  -28.2566  -20.6003   17.6358 C   0  0  0  0  0  0  0  0  0  0  0  0
  -20.1511   -9.6289   20.8455 C   0  0  0  0  0  0  0  0  0  0  0  0
  -23.6550  -14.1252   23.9962 C   0  0  0  0  0  0  0  0  0  0  0  0
  -24.0555  -16.6368   22.4874 C   0  0  0  0  0  0  0  0  0  0  0  0
  -19.7087  -11.0874   20.9319 C   0  0  0  0  0  0  0  0  0  0  0  0
  -26.7061  -23.3467   15.9833 C   0  0  0  0  0  0  0  0  0  0  0  0
  -20.6330  -11.9754   20.1049 C   0  0  0  0  0  0  0  0  0  0  0  0
  -26.9666  -24.5279   16.9210 C   0  0  0  0  0  0  0  0  0  0  0  0
  -26.4443  -22.0556   16.7568 C   0  0  0  0  0  0  0  0  0  0  0  0
  -27.7301  -22.8883   18.6862 C   0  0  0  0  0  0  0  0  0  0  0  0
  -22.0716  -11.9170   20.6326 C   0  0  1  0  0  0  0  0  0  0  0  0
  -22.5487  -14.7321   23.1387 C   0  0  1  0  0  0  0  0  0  0  0  0
  -28.0633  -24.1975   17.9523 C   0  0  2  0  0  0  0  0  0  0  0  0
  -29.1349  -15.5839   18.9828 C   0  0  0  0  0  0  0  0  0  0  0  0
  -21.6646  -22.1797   25.0768 C   0  0  0  0  0  0  0  0  0  0  0  0
  -21.2024  -17.8937   20.0481 C   0  0  0  0  0  0  0  0  0  0  0  0
  -21.2285  -20.2654   20.8498 C   0  0  0  0  0  0  0  0  0  0  0  0
  -19.4516  -18.7030   21.6399 C   0  0  0  0  0  0  0  0  0  0  0  0
  -23.6149  -19.5456   27.0092 C   0  0  0  0  0  0  0  0  0  0  0  0
  -31.2659  -15.5354   22.4480 C   0  0  0  0  0  0  0  0  0  0  0  0
  -29.9488  -14.9068   22.8787 C   0  0  0  0  0  0  0  0  0  1  0  0
  -21.8138  -18.4296   22.4986 C   0  0  1  0  0  0  0  0  0  0  0  0
  -22.0743  -20.7689   25.4700 C   0  0  2  0  0  0  0  0  0  0  0  0
  -20.9460  -18.8056   21.2645 C   0  0  0  0  0  0  0  0  0  0  0  0
  -27.2564  -26.1330   19.2501 N   0  0  0  0  0  0  0  0  0  0  0  0
  -31.8436  -14.7931   20.1997 N   0  0  0  0  0  0  0  0  0  0  0  0
  -28.2939  -25.3469   18.9155 N   0  0  0  0  0  0  0  0  0  0  0  0
  -22.7280  -16.1687   22.9187 N   0  0  0  0  0  0  0  0  0  0  0  0
  -27.5262  -21.8051   17.7116 N   0  0  0  0  0  0  0  0  0  0  0  0
  -30.6100  -25.0167   19.2859 N   0  0  0  0  0  0  0  0  0  0  0  0
  -29.6482  -28.6131   21.8427 N   0  0  0  0  0  0  0  0  0  0  0  0
  -29.2820  -20.4877   18.5741 N   0  0  0  0  0  0  0  0  0  0  0  0
  -22.2071  -12.7303   21.8220 N   0  0  0  0  0  0  0  0  0  0  0  0
  -21.5724  -19.2594   23.6740 N   0  0  0  0  0  0  0  0  0  0  0  0
  -23.1344  -20.8610   26.5135 N   0  3  0  0  0  0  0  0  0  0  0  0
  -31.3258  -27.2016   21.1703 O   0  0  0  0  0  0  0  0  0  0  0  0
  -22.5740  -14.7793   20.7782 O   0  0  0  0  0  0  0  0  0  0  0  0
  -20.4756  -16.6400   23.2941 O   0  0  0  0  0  0  0  0  0  0  0  0
  -23.7514  -20.0197   23.9005 O   0  0  0  0  0  0  0  0  0  0  0  0
  -28.0096  -19.7442   16.7825 O   0  0  0  0  0  0  0  0  0  0  0  0
  -24.6577  -31.0290   22.3846 O   0  0  0  0  0  0  0  0  0  0  0  0
  -28.8680  -15.7548   22.4925 O   0  0  0  0  0  0  0  0  0  1  0  0
  -25.2630  -31.9791   27.7822 F   0  0  0  0  0  0  0  0  0  0  0  0
  -32.3141  -18.2680   21.5562 F   0  0  0  0  0  0  0  0  0  0  0  0
  -22.5262  -30.7464   24.1222 F   0  0  0  0  0  0  0  0  0  0  0  0
  1  2  1  0  0  0  0
  1  5  2  0  0  0  0
  2  6  2  0  0  0  0
  3  8  2  0  0  0  0
  3 17  1  0  0  0  0
  4  9  1  0  0  0  0
  4 17  2  0  0  0  0
  5 20  1  0  0  0  0
  6 22  1  0  0  0  0
  7 10  2  0  0  0  0
  7 21  1  0  0  0  0
  8 26  1  0  0  0  0
  9 26  2  0  0  0  0
 10 27  1  0  0  0  0
 11 12  2  0  0  0  0
 11 28  1  0  0  0  0
 12 29  1  0  0  0  0
 13 23  1  0  0  0  0
 13 27  2  0  0  0  0
 14 24  2  0  0  0  0
 14 25  1  0  0  0  0
 15 25  2  0  0  0  0
 15 30  1  0  0  0  0
 16 29  2  0  0  0  0
 16 31  1  0  0  0  0
 17 32  1  0  0  0  0
 18 24  1  0  0  0  0
 18 30  2  0  0  0  0
 18 34  1  0  0  0  0
 19 32  1  0  0  0  0
 19 33  2  0  0  0  0
 19 35  1  0  0  0  0
 20 22  2  0  0  0  0
 20 40  1  0  0  0  0
 21 23  2  0  0  0  0
 21 41  1  0  0  0  0
 22 49  1  0  0  0  0
 23 42  1  0  0  0  0
 24 52  1  0  0  0  0
 25 70  1  0  0  0  0
 26 79  1  0  0  0  0
 27 80  1  0  0  0  0
 28 31  2  0  0  0  0
 28 79  1  0  0  0  0
 29 81  1  0  0  0  0
 30 82  1  0  0  0  0
 31 83  1  0  0  0  0
 32 63  2  0  0  0  0
 33 65  1  0  0  0  0
 33 68  1  0  0  0  0
 34 58  1  0  0  0  0
 34 64  2  0  0  0  0
 35 69  1  0  0  0  0
 35 74  2  0  0  0  0
 36 50  1  0  0  0  0
 36 71  1  0  0  0  0
 36 75  2  0  0  0  0
 37 60  1  0  0  0  0
 37 66  1  0  0  0  0
 37 76  2  0  0  0  0
 38 61  1  0  0  0  0
 38 72  1  0  0  0  0
 38 77  2  0  0  0  0
 39 67  1  0  0  0  0
 39 70  1  0  0  0  0
 39 78  2  0  0  0  0
 40 43  1  0  0  0  0
 41 50  1  0  0  0  0
 42 66  1  0  0  0  0
 43 45  1  0  0  0  0
 44 46  1  0  0  0  0
 44 47  1  0  0  0  0
 45 49  1  0  0  0  0
 46 51  1  0  0  0  0
 47 67  1  0  0  0  0
 48 51  1  0  0  0  0
 48 67  1  0  0  0  0
 49 71  1  0  0  0  0
 50 66  1  0  0  0  0
 51 65  1  0  0  0  0
 53 61  1  0  0  0  0
 54 62  1  0  0  0  0
 55 62  1  0  0  0  0
 56 62  1  0  0  0  0
 57 73  1  0  0  0  0
 58 59  1  0  0  0  0
 59 80  1  0  0  0  0
 60 62  1  0  0  0  0
 60 72  1  0  0  0  0
 61 73  1  0  0  0  0
 63 65  1  0  0  0  0
M  CHG  1  73   1
M  ISO  4  39 100  59 101  70 100  80 101
M  END
> <Batch ID>
0032

> <Smiles>
CNC(C)C(=O)NC(C(=O)N1Cc2cc([101O:1][101CH2:1]CC(=N)c3c(C)cc([100NH:0][100C:0](=O)N4CCCC(n5nc(-c6ccc(Oc7ccc(F)cc7F)cc6)c(C(N)=O)c5N)C4)cc3F)ccc2CC1C(=O)NC1CCCc2ccccc21)C(C)(C)C

> <Shape>
0.223

> <Color>
0.097

> <Negative vol penalty>
0.000

$$$$

  -OEChem-04042321423D

 86 95  0     1  0  0  0  0  0999 V2000
  -26.7909  -37.8704   24.0187 C   0  0  0  0  0  0  0  0  0  0  0  0
  -27.5685  -36.8515   23.4779 C   0  0  0  0  0  0  0  0  0  0  0  0
  -24.1514   -9.1701   21.1321 C   0  0  0  0  0  0  0  0  0  0  0  0
  -25.5626   -9.7007   23.0200 C   0  0  0  0  0  0  0  0  0  0  0  0
  -25.5661  -37.5702   24.6134 C   0  0  0  0  0  0  0  0  0  0  0  0
  -27.1222  -35.5315   23.5324 C   0  0  0  0  0  0  0  0  0  0  0  0
  -27.3406  -29.4067   19.8236 C   0  0  0  0  0  0  0  0  0  0  0  0
  -23.9890   -7.8729   21.6181 C   0  0  0  0  0  0  0  0  0  0  0  0
  -25.4001   -8.4034   23.5060 C   0  0  0  0  0  0  0  0  0  0  0  0
  -27.6608  -28.0596   19.9868 C   0  0  0  0  0  0  0  0  0  0  0  0
  -22.1595   -6.3149   23.9969 C   0  0  0  0  0  0  0  0  0  0  0  0
  -20.8720   -5.7783   23.9944 C   0  0  0  0  0  0  0  0  0  0  0  0
  -25.4919  -27.6691   20.9679 C   0  0  0  0  0  0  0  0  0  0  0  0
  -28.7016  -20.8175   19.7033 C   0  0  0  0  0  0  0  0  0  0  0  0
  -21.6194   -3.9919   22.5496 C   0  0  0  0  0  0  0  0  0  0  0  0
  -24.9383  -10.0841   21.8330 C   0  0  0  0  0  0  0  0  0  0  0  0
  -24.3051  -12.5457   21.6156 C   0  0  0  0  0  0  0  0  0  0  0  0
  -25.1001  -36.2471   24.6666 C   0  0  0  0  0  0  0  0  0  0  0  0
  -26.0957  -29.8981   20.2421 C   0  0  0  0  0  0  0  0  0  0  0  0
  -25.8906  -35.2132   24.1296 C   0  0  0  0  0  0  0  0  0  0  0  0
  -25.1574  -29.0224   20.8066 C   0  0  0  0  0  0  0  0  0  0  0  0
  -29.1708  -21.2486   20.9441 C   0  0  0  0  0  0  0  0  0  0  0  0
  -28.5565  -19.4539   19.4479 C   0  0  0  0  0  0  0  0  0  0  0  0
  -29.4950  -20.3161   21.9295 C   0  0  0  0  0  0  0  0  0  0  0  0
  -29.3500  -18.9525   21.6741 C   0  0  0  0  0  0  0  0  0  0  0  0
  -28.8808  -18.5214   20.4333 C   0  0  0  0  0  0  0  0  0  0  0  0
  -24.6133   -7.4895   22.8051 C   0  0  0  0  0  0  0  0  0  0  0  0
  -26.7375  -27.1912   20.5616 C   0  0  0  0  0  0  0  0  0  0  0  0
  -23.1769   -5.6901   23.2757 C   0  0  0  0  0  0  0  0  0  0  0  0
  -20.6020   -4.6167   23.2708 C   0  0  0  0  0  0  0  0  0  0  0  0
  -22.9069   -4.5286   22.5521 C   0  0  0  0  0  0  0  0  0  0  0  0
  -25.1070  -11.4242   21.3312 C   0  0  0  0  0  0  0  0  0  0  0  0
  -24.8788  -13.5683   20.9004 C   0  0  0  0  0  0  0  0  0  0  0  0
  -23.1453  -12.6534   22.4517 C   0  0  0  0  0  0  0  0  0  0  0  0
  -25.1356  -32.0499   22.3755 C   0  0  0  0  0  0  0  0  0  0  0  0
  -22.2199  -31.4560   21.0840 C   0  0  0  0  0  0  0  0  0  0  0  0
  -20.1891  -29.3062   19.3806 C   0  0  0  0  0  0  0  0  0  0  0  0
  -29.3575  -16.3913   19.1755 C   0  0  0  0  0  0  0  0  0  0  0  0
  -23.7915  -35.9658   25.3617 C   0  0  0  0  0  0  0  0  0  0  0  0
  -25.7555  -31.3485   20.0347 C   0  0  0  0  0  0  0  0  0  0  0  0
  -23.7994  -29.4960   21.2538 C   0  0  0  0  0  0  0  0  0  0  0  0
  -23.2176  -34.5872   25.0449 C   0  0  0  0  0  0  0  0  0  0  0  0
  -28.4630  -13.4826   17.3272 C   0  0  0  0  0  0  0  0  0  0  0  0
  -24.3015  -33.5195   25.1552 C   0  0  0  0  0  0  0  0  0  0  0  0
  -27.4442  -12.7800   18.2275 C   0  0  0  0  0  0  0  0  0  0  0  0
  -26.0618  -24.2051   22.1427 C   0  0  0  0  0  0  0  0  0  0  0  0
  -29.5759  -14.1437   18.1385 C   0  0  0  0  0  0  0  0  0  0  0  0
  -28.0980  -14.3476   20.0989 C   0  0  0  0  0  0  0  0  0  0  0  0
  -26.8456  -23.0529   21.5473 C   0  0  0  0  0  0  0  0  0  0  0  0
  -28.3917  -24.7562   22.3888 C   0  0  0  0  0  0  0  0  0  0  0  0
  -25.4292  -33.7721   24.1472 C   0  0  1  0  0  0  0  0  0  0  0  0
  -24.6542  -31.8432   20.9673 C   0  0  1  0  0  0  0  0  0  0  0  0
  -26.9226  -13.7220   19.3303 C   0  0  2  0  0  0  0  0  0  0  0  0
  -27.0387  -25.3649   22.0549 C   0  0  1  0  0  0  0  0  0  1  0  0
  -28.0503  -19.0232   18.1092 C   0  0  0  0  0  0  0  0  0  0  0  0
  -29.9981  -20.7819   23.2592 C   0  0  0  0  0  0  0  0  0  0  0  0
  -29.6996  -17.9559   22.7350 C   0  0  0  0  0  0  0  0  0  0  0  0
  -17.8473  -29.0837   18.5065 C   0  0  0  0  0  0  0  0  0  0  0  0
  -21.2204  -30.8944   23.9116 C   0  0  0  0  0  0  0  0  0  0  0  0
  -19.2141  -29.7836   22.9070 C   0  0  0  0  0  0  0  0  0  0  0  0
  -19.6377  -32.2057   22.4870 C   0  0  0  0  0  0  0  0  0  0  0  0
  -21.1309  -29.0749   16.5845 C   0  0  0  0  0  0  0  0  0  0  0  0
  -29.3161  -22.7209   21.1935 C   0  0  0  0  0  0  0  0  0  0  0  0
  -21.1046  -30.4784   21.3661 C   0  0  1  0  0  0  0  0  0  0  0  0
  -19.2703  -29.5178   18.1909 C   0  0  2  0  0  0  0  0  0  0  0  0
  -20.3204  -30.8317   22.6614 C   0  0  0  0  0  0  0  0  0  0  0  0
  -26.1134  -11.7074   20.4999 N   0  0  0  0  0  0  0  0  0  0  0  0
  -25.9476  -13.0185   20.2559 N   0  0  0  0  0  0  0  0  0  0  0  0
  -23.5163  -30.9241   21.0356 N   0  0  0  0  0  0  0  0  0  0  0  0
  -29.0070  -15.0247   19.1608 N   0  0  0  0  0  0  0  0  0  0  0  0
  -24.5682  -14.8752   20.7662 N   0  0  0  0  0  0  0  0  0  0  0  0
  -22.6900  -11.5051   23.1138 N   0  0  0  0  0  0  0  0  0  0  0  0
  -28.7293  -17.1369   20.1726 N   0  0  0  0  0  0  0  0  0  0  0  0
  -25.0258  -33.3530   22.8221 N   0  0  0  0  0  0  0  0  0  0  0  0
  -20.2822  -30.4386   20.1618 N   0  0  0  0  0  0  0  0  0  0  0  0
  -28.2436  -23.2742   22.0758 N   0  3  2  0  0  0  0  0  0  0  0  0
  -19.7517  -28.7336   17.0186 N   0  3  0  0  0  0  0  0  0  0  0  0
  -22.5213  -13.7323   22.5940 O   0  0  0  0  0  0  0  0  0  0  0  0
  -25.5728  -31.0974   23.0105 O   0  0  0  0  0  0  0  0  0  0  0  0
  -21.9499  -32.6463   20.9058 O   0  0  0  0  0  0  0  0  0  0  0  0
  -20.7636  -28.2416   19.5975 O   0  0  0  0  0  0  0  0  0  0  0  0
  -30.1351  -16.8709   18.3465 O   0  0  0  0  0  0  0  0  0  0  0  0
  -24.4548   -6.2238   23.2798 O   0  0  0  0  0  0  0  0  0  0  0  0
  -27.0477  -25.8760   20.7226 O   0  0  0  0  0  0  0  0  0  1  0  0
  -19.3660   -4.1006   23.2697 F   0  0  0  0  0  0  0  0  0  0  0  0
  -23.8806   -3.9233   21.8582 F   0  0  0  0  0  0  0  0  0  0  0  0
  1  2  1  0  0  0  0
  1  5  2  0  0  0  0
  2  6  2  0  0  0  0
  3  8  2  0  0  0  0
  3 16  1  0  0  0  0
  4  9  1  0  0  0  0
  4 16  2  0  0  0  0
  5 18  1  0  0  0  0
  6 20  1  0  0  0  0
  7 10  2  0  0  0  0
  7 19  1  0  0  0  0
  8 27  1  0  0  0  0
  9 27  2  0  0  0  0
 10 28  1  0  0  0  0
 11 12  2  0  0  0  0
 11 29  1  0  0  0  0
 12 30  1  0  0  0  0
 13 21  1  0  0  0  0
 13 28  2  0  0  0  0
 14 22  1  0  0  0  0
 14 23  2  0  0  0  0
 15 30  2  0  0  0  0
 15 31  1  0  0  0  0
 16 32  1  0  0  0  0
 17 32  1  0  0  0  0
 17 33  2  0  0  0  0
 17 34  1  0  0  0  0
 18 20  2  0  0  0  0
 18 39  1  0  0  0  0
 19 21  2  0  0  0  0
 19 40  1  0  0  0  0
 20 51  1  0  0  0  0
 21 41  1  0  0  0  0
 22 24  2  0  0  0  0
 22 63  1  0  0  0  0
 23 26  1  0  0  0  0
 23 55  1  0  0  0  0
 24 25  1  0  0  0  0
 24 56  1  0  0  0  0
 25 26  2  0  0  0  0
 25 57  1  0  0  0  0
 26 73  1  0  0  0  0
 27 83  1  0  0  0  0
 28 84  1  0  0  0  0
 29 31  2  0  0  0  0
 29 83  1  0  0  0  0
 30 85  1  0  0  0  0
 31 86  1  0  0  0  0
 32 67  2  0  0  0  0
 33 68  1  0  0  0  0
 33 71  1  0  0  0  0
 34 72  1  0  0  0  0
 34 78  2  0  0  0  0
 35 52  1  0  0  0  0
 35 74  1  0  0  0  0
 35 79  2  0  0  0  0
 36 64  1  0  0  0  0
 36 69  1  0  0  0  0
 36 80  2  0  0  0  0
 37 65  1  0  0  0  0
 37 75  1  0  0  0  0
 37 81  2  0  0  0  0
 38 70  1  0  0  0  0
 38 73  1  0  0  0  0
 38 82  2  0  0  0  0
 39 42  1  0  0  0  0
 40 52  1  0  0  0  0
 41 69  1  0  0  0  0
 42 44  1  0  0  0  0
 43 45  1  0  0  0  0
 43 47  1  0  0  0  0
 44 51  1  0  0  0  0
 45 53  1  0  0  0  0
 46 49  1  0  0  0  0
 46 54  1  0  0  0  0
 47 70  1  0  0  0  0
 48 53  1  0  0  0  0
 48 70  1  0  0  0  0
 49 76  1  0  0  0  0
 50 54  1  0  0  0  0
 50 76  1  0  0  0  0
 51 74  1  0  0  0  0
 52 69  1  0  0  0  0
 53 68  1  0  0  0  0
 54 84  1  0  0  0  0
 58 65  1  0  0  0  0
 59 66  1  0  0  0  0
 60 66  1  0  0  0  0
 61 66  1  0  0  0  0
 62 77  1  0  0  0  0
 63 76  1  0  0  0  0
 64 66  1  0  0  0  0
 64 75  1  0  0  0  0
 65 77  1  0  0  0  0
 67 68  1  0  0  0  0
M  CHG  2  76   1  77   1
M  ISO  4  38 100  54 101  73 100  84 101
M  END
> <Batch ID>
0032

> <Smiles>
CNC(C)C(=O)NC(C(=O)N1Cc2cc([101O:1][101CH:1]3CCN(Cc4cc(C)c([100NH:0][100C:0](=O)N5CCCC(n6nc(-c7ccc(Oc8ccc(F)cc8F)cc7)c(C(N)=O)c6N)C5)c(C)c4C)C3)ccc2CC1C(=O)NC1CCCc2ccccc21)C(C)(C)C

> <Shape>
0.328

> <Color>
0.104

> <Negative vol penalty>
0.000

$$$$

  -OEChem-04042321423D

 86 95  0     1  0  0  0  0  0999 V2000
  -29.2559  -10.2193   17.0119 C   0  0  0  0  0  0  0  0  0  0  0  0
  -27.9424  -10.6570   16.8756 C   0  0  0  0  0  0  0  0  0  0  0  0
  -26.3039  -31.7180   20.1019 C   0  0  0  0  0  0  0  0  0  0  0  0
  -25.9101  -30.9069   22.3434 C   0  0  0  0  0  0  0  0  0  0  0  0
  -30.0556  -10.7259   18.0355 C   0  0  0  0  0  0  0  0  0  0  0  0
  -27.4275  -11.6007   17.7636 C   0  0  0  0  0  0  0  0  0  0  0  0
  -22.8156  -17.0755   18.0374 C   0  0  0  0  0  0  0  0  0  0  0  0
  -26.6808  -32.9583   20.6169 C   0  0  0  0  0  0  0  0  0  0  0  0
  -26.2871  -32.1472   22.8584 C   0  0  0  0  0  0  0  0  0  0  0  0
  -21.7221  -17.5266   18.7751 C   0  0  0  0  0  0  0  0  0  0  0  0
  -29.4085  -34.3258   22.0738 C   0  0  0  0  0  0  0  0  0  0  0  0
  -30.5558  -34.9229   21.5517 C   0  0  0  0  0  0  0  0  0  0  0  0
  -23.2205  -18.3905   20.4567 C   0  0  0  0  0  0  0  0  0  0  0  0
  -19.0522  -23.9882   21.9913 C   0  0  0  0  0  0  0  0  0  0  0  0
  -20.2495  -25.0676   23.7909 C   0  0  0  0  0  0  0  0  0  0  0  0
  -29.2433  -36.8220   20.8392 C   0  0  0  0  0  0  0  0  0  0  0  0
  -25.9185  -30.6923   20.9652 C   0  0  0  0  0  0  0  0  0  0  0  0
  -26.3631  -28.3060   20.1807 C   0  0  0  0  0  0  0  0  0  0  0  0
  -29.5532  -11.6835   18.9306 C   0  0  0  0  0  0  0  0  0  0  0  0
  -24.1217  -17.2691   18.5099 C   0  0  0  0  0  0  0  0  0  0  0  0
  -28.2208  -12.1196   18.8010 C   0  0  0  0  0  0  0  0  0  0  0  0
  -24.3291  -17.9430   19.7218 C   0  0  0  0  0  0  0  0  0  0  0  0
  -18.7891  -22.8978   22.8203 C   0  0  0  0  0  0  0  0  0  0  0  0
  -19.2561  -22.8922   24.1347 C   0  0  0  0  0  0  0  0  0  0  0  0
  -19.7825  -25.0731   22.4766 C   0  0  0  0  0  0  0  0  0  0  0  0
  -26.6724  -33.1729   21.9951 C   0  0  0  0  0  0  0  0  0  0  0  0
  -21.9243  -18.1817   19.9864 C   0  0  0  0  0  0  0  0  0  0  0  0
  -28.1785  -34.9767   21.9785 C   0  0  0  0  0  0  0  0  0  0  0  0
  -30.4733  -36.1710   20.9345 C   0  0  0  0  0  0  0  0  0  0  0  0
  -28.0959  -36.2248   21.3613 C   0  0  0  0  0  0  0  0  0  0  0  0
  -19.9863  -23.9771   24.6200 C   0  0  0  0  0  0  0  0  0  0  0  0
  -25.5285  -29.4111   20.4338 C   0  0  0  0  0  0  0  0  0  0  0  0
  -25.5177  -27.3437   19.6849 C   0  0  0  0  0  0  0  0  0  0  0  0
  -18.0937  -19.4606   21.4062 C   0  0  0  0  0  0  0  0  0  0  0  0
  -17.1946  -18.7990   22.1444 C   0  0  0  0  0  0  0  0  0  0  0  0
  -27.7761  -28.1621   20.3764 C   0  0  0  0  0  0  0  0  0  0  0  0
  -26.5104  -15.3483   19.3515 C   0  0  0  0  0  0  0  0  0  0  0  0
  -28.1470  -18.1374   19.6054 C   0  0  0  0  0  0  0  0  0  0  0  0
  -28.0577  -21.5167   20.0737 C   0  0  0  0  0  0  0  0  0  0  0  0
  -19.6592  -26.3442   20.3051 C   0  0  0  0  0  0  0  0  0  0  0  0
  -30.4407  -12.1668   20.0501 C   0  0  0  0  0  0  0  0  0  0  0  0
  -25.2917  -16.8000   17.6892 C   0  0  0  0  0  0  0  0  0  0  0  0
  -25.7120  -18.1939   20.2632 C   0  0  0  0  0  0  0  0  0  0  0  0
  -18.5675  -19.0549   20.0455 C   0  0  0  0  0  0  0  0  0  0  0  0
  -29.9360  -13.4421   20.7202 C   0  0  0  0  0  0  0  0  0  0  0  0
  -21.4218  -26.8499   17.2530 C   0  0  0  0  0  0  0  0  0  0  0  0
  -28.4443  -13.3334   21.0196 C   0  0  0  0  0  0  0  0  0  0  0  0
  -22.7533  -27.4579   17.6998 C   0  0  0  0  0  0  0  0  0  0  0  0
  -20.2572  -27.3434   18.1098 C   0  0  0  0  0  0  0  0  0  0  0  0
  -21.7688  -27.7846   20.0044 C   0  0  0  0  0  0  0  0  0  0  0  0
  -19.9321  -20.8313   20.9305 C   0  0  0  0  0  0  0  0  0  0  0  0
  -27.6338  -13.1606   19.7294 C   0  0  1  0  0  0  0  0  0  0  0  0
  -26.5577  -16.5960   18.5156 C   0  0  1  0  0  0  0  0  0  0  0  0
  -22.9806  -27.2672   19.2122 C   0  0  2  0  0  0  0  0  0  0  0  0
  -19.9983  -19.5687   20.0830 C   0  0  1  0  0  0  0  0  0  1  0  0
  -18.9661  -21.7135   25.0111 C   0  0  0  0  0  0  0  0  0  0  0  0
  -28.9162  -23.8699   20.2256 C   0  0  0  0  0  0  0  0  0  0  0  0
  -28.8928  -17.2966   22.4421 C   0  0  0  0  0  0  0  0  0  0  0  0
  -29.5485  -19.6694   22.8983 C   0  0  0  0  0  0  0  0  0  0  0  0
  -30.7493  -18.3601   21.1471 C   0  0  0  0  0  0  0  0  0  0  0  0
  -27.6758  -21.9666   17.1736 C   0  0  0  0  0  0  0  0  0  0  0  0
  -18.0023  -21.7438   22.2724 C   0  0  0  0  0  0  0  0  0  0  0  0
  -28.3850  -19.1408   20.7079 C   0  0  1  0  0  0  0  0  0  0  0  0
  -28.7325  -22.6549   19.3296 C   0  0  2  0  0  0  0  0  0  0  0  0
  -29.3677  -18.6105   21.7899 C   0  0  0  0  0  0  0  0  0  0  0  0
  -24.2510  -29.1740   20.1241 N   0  0  0  0  0  0  0  0  0  0  0  0
  -24.2766  -27.9090   19.6713 N   0  0  0  0  0  0  0  0  0  0  0  0
  -26.8234  -17.7108   19.4272 N   0  0  0  0  0  0  0  0  0  0  0  0
  -20.5414  -27.1264   19.5300 N   0  0  0  0  0  0  0  0  0  0  0  0
  -25.7224  -26.0776   19.2635 N   0  0  0  0  0  0  0  0  0  0  0  0
  -28.4929  -29.2492   20.8949 N   0  0  0  0  0  0  0  0  0  0  0  0
  -20.0497  -26.1803   21.6337 N   0  0  0  0  0  0  0  0  0  0  0  0
  -27.4954  -14.4286   19.0457 N   0  0  0  0  0  0  0  0  0  0  0  0
  -28.8225  -20.3695   20.0542 N   0  0  0  0  0  0  0  0  0  0  0  0
  -18.8507  -20.5455   21.9693 N   0  3  1  0  0  0  0  0  0  0  0  0
  -27.9153  -23.0596   18.1508 N   0  3  0  0  0  0  0  0  0  0  0  0
  -28.3878  -27.1066   20.0843 O   0  0  0  0  0  0  0  0  0  0  0  0
  -25.6453  -15.2294   20.2112 O   0  0  0  0  0  0  0  0  0  0  0  0
  -29.0993  -17.7520   18.9226 O   0  0  0  0  0  0  0  0  0  0  0  0
  -26.9635  -21.6347   20.6208 O   0  0  0  0  0  0  0  0  0  0  0  0
  -18.6471  -25.8332   19.8188 O   0  0  0  0  0  0  0  0  0  0  0  0
  -27.0404  -34.3830   22.4980 O   0  0  0  0  0  0  0  0  0  0  0  0
  -20.8586  -18.6225   20.7088 O   0  0  0  0  0  0  0  0  0  1  0  0
  -31.5755  -36.7450   20.4345 F   0  0  0  0  0  0  0  0  0  0  0  0
  -26.9173  -36.8556   21.2678 F   0  0  0  0  0  0  0  0  0  0  0  0
  -20.5798  -24.0101   26.2411 Cl  0  0  0  0  0  0  0  0  0  0  0  0
  1  2  1  0  0  0  0
  1  5  2  0  0  0  0
  2  6  2  0  0  0  0
  3  8  2  0  0  0  0
  3 17  1  0  0  0  0
  4  9  1  0  0  0  0
  4 17  2  0  0  0  0
  5 19  1  0  0  0  0
  6 21  1  0  0  0  0
  7 10  2  0  0  0  0
  7 20  1  0  0  0  0
  8 26  1  0  0  0  0
  9 26  2  0  0  0  0
 10 27  1  0  0  0  0
 11 12  2  0  0  0  0
 11 28  1  0  0  0  0
 12 29  1  0  0  0  0
 13 22  1  0  0  0  0
 13 27  2  0  0  0  0
 14 23  1  0  0  0  0
 14 25  2  0  0  0  0
 15 25  1  0  0  0  0
 15 31  2  0  0  0  0
 16 29  2  0  0  0  0
 16 30  1  0  0  0  0
 17 32  1  0  0  0  0
 18 32  1  0  0  0  0
 18 33  2  0  0  0  0
 18 36  1  0  0  0  0
 19 21  2  0  0  0  0
 19 41  1  0  0  0  0
 20 22  2  0  0  0  0
 20 42  1  0  0  0  0
 21 52  1  0  0  0  0
 22 43  1  0  0  0  0
 23 24  2  0  0  0  0
 23 62  1  0  0  0  0
 24 31  1  0  0  0  0
 24 56  1  0  0  0  0
 25 72  1  0  0  0  0
 26 82  1  0  0  0  0
 27 83  1  0  0  0  0
 28 30  2  0  0  0  0
 28 82  1  0  0  0  0
 29 84  1  0  0  0  0
 30 85  1  0  0  0  0
 31 86  1  0  0  0  0
 32 66  2  0  0  0  0
 33 67  1  0  0  0  0
 33 70  1  0  0  0  0
 34 35  2  0  0  0  0
 34 44  1  0  0  0  0
 34 75  1  0  0  0  0
 36 71  1  0  0  0  0
 36 77  2  0  0  0  0
 37 53  1  0  0  0  0
 37 73  1  0  0  0  0
 37 78  2  0  0  0  0
 38 63  1  0  0  0  0
 38 68  1  0  0  0  0
 38 79  2  0  0  0  0
 39 64  1  0  0  0  0
 39 74  1  0  0  0  0
 39 80  2  0  0  0  0
 40 69  1  0  0  0  0
 40 72  1  0  0  0  0
 40 81  2  0  0  0  0
 41 45  1  0  0  0  0
 42 53  1  0  0  0  0
 43 68  1  0  0  0  0
 44 55  1  0  0  0  0
 45 47  1  0  0  0  0
 46 48  1  0  0  0  0
 46 49  1  0  0  0  0
 47 52  1  0  0  0  0
 48 54  1  0  0  0  0
 49 69  1  0  0  0  0
 50 54  1  0  0  0  0
 50 69  1  0  0  0  0
 51 55  1  0  0  0  0
 51 75  1  0  0  0  0
 52 73  1  0  0  0  0
 53 68  1  0  0  0  0
 54 67  1  0  0  0  0
 55 83  1  0  0  0  0
 57 64  1  0  0  0  0
 58 65  1  0  0  0  0
 59 65  1  0  0  0  0
 60 65  1  0  0  0  0
 61 76  1  0  0  0  0
 62 75  1  0  0  0  0
 63 65  1  0  0  0  0
 63 74  1  0  0  0  0
 64 76  1  0  0  0  0
 66 67  1  0  0  0  0
M  CHG  2  75   1  76   1
M  ISO  4  40 100  55 101  72 100  83 101
M  END
> <Batch ID>
0032

> <Smiles>
C=C1C[101CH:1]([101O:1]c2ccc3c(c2)CN(C(=O)C(NC(=O)C(C)NC)C(C)(C)C)C(C(=O)NC2CCCc4ccccc42)C3)CN1Cc1cc([100NH:0][100C:0](=O)N2CCCC(n3nc(-c4ccc(Oc5ccc(F)cc5F)cc4)c(C(N)=O)c3N)C2)cc(Cl)c1C

> <Shape>
0.222

> <Color>
0.073

> <Negative vol penalty>
0.000

$$$$

  -OEChem-04042321423D

 87 96  0     1  0  0  0  0  0999 V2000
  -30.6825  -26.3547   16.8615 C   0  0  0  0  0  0  0  0  0  0  0  0
  -29.3032  -26.2270   16.9900 C   0  0  0  0  0  0  0  0  0  0  0  0
  -26.5436  -12.5944   20.9349 C   0  0  0  0  0  0  0  0  0  0  0  0
  -24.5847  -13.7584   20.1318 C   0  0  0  0  0  0  0  0  0  0  0  0
  -31.4400  -26.8306   17.9309 C   0  0  0  0  0  0  0  0  0  0  0  0
  -28.6806  -26.5742   18.1885 C   0  0  0  0  0  0  0  0  0  0  0  0
  -23.1334  -29.0795   18.8646 C   0  0  0  0  0  0  0  0  0  0  0  0
  -25.7680  -11.4626   21.1863 C   0  0  0  0  0  0  0  0  0  0  0  0
  -23.8091  -12.6266   20.3832 C   0  0  0  0  0  0  0  0  0  0  0  0
  -21.8890  -28.5331   19.1757 C   0  0  0  0  0  0  0  0  0  0  0  0
  -24.4296   -8.9153   19.4106 C   0  0  0  0  0  0  0  0  0  0  0  0
  -24.9360   -7.6798   19.0073 C   0  0  0  0  0  0  0  0  0  0  0  0
  -22.2275  -29.0992   21.4961 C   0  0  0  0  0  0  0  0  0  0  0  0
  -24.4651  -22.5867   23.5702 C   0  0  0  0  0  0  0  0  0  0  0  0
  -22.3126  -22.4715   21.7993 C   0  0  0  0  0  0  0  0  0  0  0  0
  -24.8773   -6.9086   21.2962 C   0  0  0  0  0  0  0  0  0  0  0  0
  -25.9519  -13.7423   20.4077 C   0  0  0  0  0  0  0  0  0  0  0  0
  -27.4303  -15.2309   18.9565 C   0  0  0  0  0  0  0  0  0  0  0  0
  -30.8253  -27.1929   19.1398 C   0  0  0  0  0  0  0  0  0  0  0  0
  -23.9402  -29.6309   19.8702 C   0  0  0  0  0  0  0  0  0  0  0  0
  -29.4308  -27.0541   19.2755 C   0  0  0  0  0  0  0  0  0  0  0  0
  -23.4806  -29.6542   21.1947 C   0  0  0  0  0  0  0  0  0  0  0  0
  -23.3363  -23.3753   23.7924 C   0  0  0  0  0  0  0  0  0  0  0  0
  -22.2600  -23.3176   22.9070 C   0  0  0  0  0  0  0  0  0  0  0  0
  -24.5179  -21.7406   22.4625 C   0  0  0  0  0  0  0  0  0  0  0  0
  -24.4008  -11.4787   20.9104 C   0  0  0  0  0  0  0  0  0  0  0  0
  -21.4371  -28.5403   20.4921 C   0  0  0  0  0  0  0  0  0  0  0  0
  -24.1471   -9.1476   20.7567 C   0  0  0  0  0  0  0  0  0  0  0  0
  -25.1598   -6.6765   19.9501 C   0  0  0  0  0  0  0  0  0  0  0  0
  -23.4416  -21.6829   21.5771 C   0  0  0  0  0  0  0  0  0  0  0  0
  -24.3709   -8.1442   21.6995 C   0  0  0  0  0  0  0  0  0  0  0  0
  -26.7524  -14.9119   20.1483 C   0  0  0  0  0  0  0  0  0  0  0  0
  -28.0374  -16.4348   19.2184 C   0  0  0  0  0  0  0  0  0  0  0  0
  -18.9926  -24.9532   22.0822 C   0  0  0  0  0  0  0  0  0  0  0  0
  -18.0376  -24.0523   22.3389 C   0  0  0  0  0  0  0  0  0  0  0  0
  -27.5046  -14.5039   17.7229 C   0  0  0  0  0  0  0  0  0  0  0  0
  -26.8192  -28.9757   21.0476 C   0  0  0  0  0  0  0  0  0  0  0  0
  -26.3209  -31.7011   22.7346 C   0  0  0  0  0  0  0  0  0  0  0  0
  -24.0943  -33.9238   24.0568 C   0  0  0  0  0  0  0  0  0  0  0  0
  -26.8182  -20.8793   23.0217 C   0  0  0  0  0  0  0  0  0  0  0  0
  -31.6913  -27.6578   20.2838 C   0  0  0  0  0  0  0  0  0  0  0  0
  -25.2684  -30.2404   19.5140 C   0  0  0  0  0  0  0  0  0  0  0  0
  -24.2998  -30.2525   22.3080 C   0  0  0  0  0  0  0  0  0  0  0  0
  -18.7821  -26.4246   21.9136 C   0  0  0  0  0  0  0  0  0  0  0  0
  -30.9107  -28.3580   21.3932 C   0  0  0  0  0  0  0  0  0  0  0  0
  -29.8431  -19.0111   22.8289 C   0  0  0  0  0  0  0  0  0  0  0  0
  -29.6616  -27.5597   21.7528 C   0  0  0  0  0  0  0  0  0  0  0  0
  -29.4570  -17.7799   22.0060 C   0  0  0  0  0  0  0  0  0  0  0  0
  -28.7126  -19.4495   23.7581 C   0  0  0  0  0  0  0  0  0  0  0  0
  -27.0290  -18.4257   22.2795 C   0  0  0  0  0  0  0  0  0  0  0  0
  -20.9651  -25.7328   21.1585 C   0  0  0  0  0  0  0  0  0  0  0  0
  -28.7160  -27.4438   20.5512 C   0  0  1  0  0  0  0  0  0  0  0  0
  -26.2293  -30.3123   20.6968 C   0  0  1  0  0  0  0  0  0  0  0  0
  -28.1124  -17.9855   21.2813 C   0  0  2  0  0  0  0  0  0  0  0  0
  -20.2061  -26.9288   21.7172 C   0  0  1  0  0  0  0  0  0  1  0  0
  -23.3026  -24.2740   24.9848 C   0  0  0  0  0  0  0  0  0  0  0  0
  -18.2908  -22.5914   22.5000 C   0  0  0  0  0  0  0  0  0  0  0  0
  -23.9852  -36.0309   25.4155 C   0  0  0  0  0  0  0  0  0  0  0  0
  -26.9332  -30.1016   25.2598 C   0  0  0  0  0  0  0  0  0  0  0  0
  -25.9014  -31.9499   26.5968 C   0  0  0  0  0  0  0  0  0  0  0  0
  -27.9274  -32.3959   25.2114 C   0  0  0  0  0  0  0  0  0  0  0  0
  -22.7690  -35.4063   21.8648 C   0  0  0  0  0  0  0  0  0  0  0  0
  -21.0352  -24.1563   23.1249 C   0  0  0  0  0  0  0  0  0  0  0  0
  -25.7007  -32.0334   24.0702 C   0  0  1  0  0  0  0  0  0  0  0  0
  -24.0394  -35.4403   24.0151 C   0  0  2  0  0  0  0  0  0  0  0  0
  -26.6008  -31.6071   25.2641 C   0  0  0  0  0  0  0  0  0  0  0  0
  -26.9135  -15.8384   21.0969 N   0  0  0  0  0  0  0  0  0  0  0  0
  -27.6996  -16.7513   20.5013 N   0  0  0  0  0  0  0  0  0  0  0  0
  -25.5941  -30.8304   21.9103 N   0  0  0  0  0  0  0  0  0  0  0  0
  -27.4715  -19.6288   23.0015 N   0  0  0  0  0  0  0  0  0  0  0  0
  -28.8218  -17.2429   18.4741 N   0  0  0  0  0  0  0  0  0  0  0  0
  -26.8213  -13.2843   17.6239 N   0  0  0  0  0  0  0  0  0  0  0  0
  -25.6656  -20.9403   22.2392 N   0  0  0  0  0  0  0  0  0  0  0  0
  -27.9827  -28.6775   20.3644 N   0  0  0  0  0  0  0  0  0  0  0  0
  -25.3922  -33.4589   24.0336 N   0  0  0  0  0  0  0  0  0  0  0  0
  -20.3453  -24.5340   21.8453 N   0  3  1  0  0  0  0  0  0  0  0  0
  -22.8336  -35.8946   23.2664 N   0  3  0  0  0  0  0  0  0  0  0  0
  -28.1710  -14.9156   16.7431 O   0  0  0  0  0  0  0  0  0  0  0  0
  -26.2608  -28.2679   21.8777 O   0  0  0  0  0  0  0  0  0  0  0  0
  -27.4067  -32.2015   22.4308 O   0  0  0  0  0  0  0  0  0  0  0  0
  -23.0866  -33.2220   24.1088 O   0  0  0  0  0  0  0  0  0  0  0  0
  -27.2644  -21.8343   23.6627 O   0  0  0  0  0  0  0  0  0  0  0  0
  -23.6437  -10.3745   21.1554 O   0  0  0  0  0  0  0  0  0  0  0  0
  -20.2232  -28.0071   20.7987 O   0  0  0  0  0  0  0  0  0  1  0  0
  -25.6446   -5.4895   19.5624 F   0  0  0  0  0  0  0  0  0  0  0  0
  -23.4811  -20.8731   20.5094 F   0  0  0  0  0  0  0  0  0  0  0  0
  -24.1003   -8.3610   22.9939 F   0  0  0  0  0  0  0  0  0  0  0  0
  1  2  1  0  0  0  0
  1  5  2  0  0  0  0
  2  6  2  0  0  0  0
  3  8  2  0  0  0  0
  3 17  1  0  0  0  0
  4  9  1  0  0  0  0
  4 17  2  0  0  0  0
  5 19  1  0  0  0  0
  6 21  1  0  0  0  0
  7 10  2  0  0  0  0
  7 20  1  0  0  0  0
  8 26  1  0  0  0  0
  9 26  2  0  0  0  0
 10 27  1  0  0  0  0
 11 12  2  0  0  0  0
 11 28  1  0  0  0  0
 12 29  1  0  0  0  0
 13 22  1  0  0  0  0
 13 27  2  0  0  0  0
 14 23  1  0  0  0  0
 14 25  2  0  0  0  0
 15 24  1  0  0  0  0
 15 30  2  0  0  0  0
 16 29  2  0  0  0  0
 16 31  1  0  0  0  0
 17 32  1  0  0  0  0
 18 32  1  0  0  0  0
 18 33  2  0  0  0  0
 18 36  1  0  0  0  0
 19 21  2  0  0  0  0
 19 41  1  0  0  0  0
 20 22  2  0  0  0  0
 20 42  1  0  0  0  0
 21 52  1  0  0  0  0
 22 43  1  0  0  0  0
 23 24  2  0  0  0  0
 23 56  1  0  0  0  0
 24 63  1  0  0  0  0
 25 30  1  0  0  0  0
 25 73  1  0  0  0  0
 26 83  1  0  0  0  0
 27 84  1  0  0  0  0
 28 31  2  0  0  0  0
 28 83  1  0  0  0  0
 29 85  1  0  0  0  0
 30 86  1  0  0  0  0
 31 87  1  0  0  0  0
 32 67  2  0  0  0  0
 33 68  1  0  0  0  0
 33 71  1  0  0  0  0
 34 35  2  0  0  0  0
 34 44  1  0  0  0  0
 34 76  1  0  0  0  0
 35 57  1  0  0  0  0
 36 72  1  0  0  0  0
 36 78  2  0  0  0  0
 37 53  1  0  0  0  0
 37 74  1  0  0  0  0
 37 79  2  0  0  0  0
 38 64  1  0  0  0  0
 38 69  1  0  0  0  0
 38 80  2  0  0  0  0
 39 65  1  0  0  0  0
 39 75  1  0  0  0  0
 39 81  2  0  0  0  0
 40 70  1  0  0  0  0
 40 73  1  0  0  0  0
 40 82  2  0  0  0  0
 41 45  1  0  0  0  0
 42 53  1  0  0  0  0
 43 69  1  0  0  0  0
 44 55  1  0  0  0  0
 45 47  1  0  0  0  0
 46 48  1  0  0  0  0
 46 49  1  0  0  0  0
 47 52  1  0  0  0  0
 48 54  1  0  0  0  0
 49 70  1  0  0  0  0
 50 54  1  0  0  0  0
 50 70  1  0  0  0  0
 51 55  1  0  0  0  0
 51 76  1  0  0  0  0
 52 74  1  0  0  0  0
 53 69  1  0  0  0  0
 54 68  1  0  0  0  0
 55 84  1  0  0  0  0
 58 65  1  0  0  0  0
 59 66  1  0  0  0  0
 60 66  1  0  0  0  0
 61 66  1  0  0  0  0
 62 77  1  0  0  0  0
 63 76  1  0  0  0  0
 64 66  1  0  0  0  0
 64 75  1  0  0  0  0
 65 77  1  0  0  0  0
 67 68  1  0  0  0  0
M  CHG  2  76   1  77   1
M  ISO  4  40 100  55 101  73 100  84 101
M  END
> <Batch ID>
0032

> <Smiles>
CC=C1C[101CH:1]([101O:1]c2ccc3c(c2)CN(C(=O)C(NC(=O)C(C)NC)C(C)(C)C)C(C(=O)NC2CCCc4ccccc42)C3)CN1Cc1cc(F)c([100NH:0][100C:0](=O)N2CCCC(n3nc(-c4ccc(Oc5ccc(F)cc5F)cc4)c(C(N)=O)c3N)C2)cc1C

> <Shape>
0.287

> <Color>
0.074

> <Negative vol penalty>
0.000

$$$$

  -OEChem-04042321423D

 86 95  0     1  0  0  0  0  0999 V2000
  -17.7579  -26.4487   22.4135 C   0  0  0  0  0  0  0  0  0  0  0  0
  -18.8922  -25.7959   21.9417 C   0  0  0  0  0  0  0  0  0  0  0  0
  -22.8087  -11.7594   22.1851 C   0  0  0  0  0  0  0  0  0  0  0  0
  -22.5262  -13.6675   20.7303 C   0  0  0  0  0  0  0  0  0  0  0  0
  -17.8620  -27.7395   22.9301 C   0  0  0  0  0  0  0  0  0  0  0  0
  -20.1313  -26.4341   21.9852 C   0  0  0  0  0  0  0  0  0  0  0  0
  -25.5830  -23.8261   22.9769 C   0  0  0  0  0  0  0  0  0  0  0  0
  -21.6710  -12.1353   22.8991 C   0  0  0  0  0  0  0  0  0  0  0  0
  -21.3884  -14.0434   21.4443 C   0  0  0  0  0  0  0  0  0  0  0  0
  -26.5976  -23.4161   22.1131 C   0  0  0  0  0  0  0  0  0  0  0  0
  -18.1400  -13.1268   21.6131 C   0  0  0  0  0  0  0  0  0  0  0  0
  -17.0150  -13.5088   20.8823 C   0  0  0  0  0  0  0  0  0  0  0  0
  -27.7388  -25.5115   22.4687 C   0  0  0  0  0  0  0  0  0  0  0  0
  -29.1445  -19.1992   17.5868 C   0  0  0  0  0  0  0  0  0  0  0  0
  -30.9103  -17.8163   19.2458 C   0  0  0  0  0  0  0  0  0  0  0  0
  -17.0761  -15.6866   21.9267 C   0  0  0  0  0  0  0  0  0  0  0  0
  -23.2364  -12.5256   21.1007 C   0  0  0  0  0  0  0  0  0  0  0  0
  -24.4702  -11.2909   19.2404 C   0  0  0  0  0  0  0  0  0  0  0  0
  -19.1045  -28.3902   22.9888 C   0  0  0  0  0  0  0  0  0  0  0  0
  -25.6332  -25.0884   23.5856 C   0  0  0  0  0  0  0  0  0  0  0  0
  -20.2519  -27.7354   22.5018 C   0  0  0  0  0  0  0  0  0  0  0  0
  -26.7248  -25.9341   23.3418 C   0  0  0  0  0  0  0  0  0  0  0  0
  -30.2581  -19.8505   18.1172 C   0  0  0  0  0  0  0  0  0  0  0  0
  -28.9138  -17.8565   17.8859 C   0  0  0  0  0  0  0  0  0  0  0  0
  -31.1409  -19.1591   18.9467 C   0  0  0  0  0  0  0  0  0  0  0  0
  -29.7967  -17.1650   18.7154 C   0  0  0  0  0  0  0  0  0  0  0  0
  -20.9608  -13.2773   22.5287 C   0  0  0  0  0  0  0  0  0  0  0  0
  -27.6743  -24.2599   21.8566 C   0  0  0  0  0  0  0  0  0  0  0  0
  -18.7330  -14.0247   22.5008 C   0  0  0  0  0  0  0  0  0  0  0  0
  -16.4831  -14.7887   21.0391 C   0  0  0  0  0  0  0  0  0  0  0  0
  -18.2011  -15.3046   22.6575 C   0  0  0  0  0  0  0  0  0  0  0  0
  -24.4120  -12.1381   20.3631 C   0  0  0  0  0  0  0  0  0  0  0  0
  -25.8039  -11.2421   18.9159 C   0  0  0  0  0  0  0  0  0  0  0  0
  -30.3352  -23.6040   18.5681 C   0  0  0  0  0  0  0  0  0  0  0  0
  -31.5595  -24.0992   18.3513 C   0  0  0  0  0  0  0  0  0  0  0  0
  -23.4132  -10.6091   18.5521 C   0  0  0  0  0  0  0  0  0  0  0  0
  -23.8054  -27.6880   23.5133 C   0  0  0  0  0  0  0  0  0  0  0  0
  -25.8436  -28.7104   25.8204 C   0  0  0  0  0  0  0  0  0  0  0  0
  -28.9264  -28.4909   27.2678 C   0  0  0  0  0  0  0  0  0  0  0  0
  -30.3696  -14.9846   19.8397 C   0  0  0  0  0  0  0  0  0  0  0  0
  -19.1598  -29.8035   23.5123 C   0  0  0  0  0  0  0  0  0  0  0  0
  -24.5441  -25.5051   24.5357 C   0  0  0  0  0  0  0  0  0  0  0  0
  -26.8362  -27.2910   23.9860 C   0  0  0  0  0  0  0  0  0  0  0  0
  -29.0807  -24.4116   18.6892 C   0  0  0  0  0  0  0  0  0  0  0  0
  -20.5702  -30.2666   23.8680 C   0  0  0  0  0  0  0  0  0  0  0  0
  -30.1533  -11.5895   20.8900 C   0  0  0  0  0  0  0  0  0  0  0  0
  -21.5479  -29.9039   22.7547 C   0  0  0  0  0  0  0  0  0  0  0  0
  -28.6626  -11.2659   20.7661 C   0  0  0  0  0  0  0  0  0  0  0  0
  -30.3850  -13.0228   21.3648 C   0  0  0  0  0  0  0  0  0  0  0  0
  -28.2086  -13.7324   20.4542 C   0  0  0  0  0  0  0  0  0  0  0  0
  -28.6928  -22.1275   19.3475 C   0  0  0  0  0  0  0  0  0  0  0  0
  -21.6176  -28.3851   22.5549 C   0  0  1  0  0  0  0  0  0  0  0  0
  -24.4404  -27.0183   24.6991 C   0  0  1  0  0  0  0  0  0  0  0  0
  -27.9258  -12.3201   19.9167 C   0  0  2  0  0  0  0  0  0  0  0  0
  -28.2937  -23.5598   19.6729 C   0  0  1  0  0  0  0  0  0  1  0  0
  -27.7130  -17.1840   17.3037 C   0  0  0  0  0  0  0  0  0  0  0  0
  -32.3396  -19.8357   19.5263 C   0  0  0  0  0  0  0  0  0  0  0  0
  -30.3117  -29.4797   29.1119 C   0  0  0  0  0  0  0  0  0  0  0  0
  -26.3017  -31.2106   24.1324 C   0  0  0  0  0  0  0  0  0  0  0  0
  -28.3413  -31.6799   25.5066 C   0  0  0  0  0  0  0  0  0  0  0  0
  -26.0941  -31.6337   26.5885 C   0  0  0  0  0  0  0  0  0  0  0  0
  -29.1859  -25.8772   28.6316 C   0  0  0  0  0  0  0  0  0  0  0  0
  -30.4854  -21.2951   17.7818 C   0  0  0  0  0  0  0  0  0  0  0  0
  -27.1513  -29.4646   25.8341 C   0  0  1  0  0  0  0  0  0  0  0  0
  -29.3509  -28.3679   28.7201 C   0  0  2  0  0  0  0  0  0  0  0  0
  -26.9693  -30.9725   25.5016 C   0  0  0  0  0  0  0  0  0  0  0  0
  -25.6132  -12.5945   20.7276 N   0  0  0  0  0  0  0  0  0  0  0  0
  -26.4388  -12.0319   19.8287 N   0  0  0  0  0  0  0  0  0  0  0  0
  -25.7431  -27.6555   24.9024 N   0  0  0  0  0  0  0  0  0  0  0  0
  -29.6601  -13.9662   20.5107 N   0  0  0  0  0  0  0  0  0  0  0  0
  -26.4839  -10.6009   17.9417 N   0  0  0  0  0  0  0  0  0  0  0  0
  -22.1009  -10.7688   19.0176 N   0  0  0  0  0  0  0  0  0  0  0  0
  -29.5796  -15.8008   19.0307 N   0  0  0  0  0  0  0  0  0  0  0  0
  -22.4284  -27.7762   23.5876 N   0  0  0  0  0  0  0  0  0  0  0  0
  -27.7564  -29.2087   27.1367 N   0  0  0  0  0  0  0  0  0  0  0  0
  -30.1535  -22.2203   18.9139 N   0  3  1  0  0  0  0  0  0  0  0  0
  -30.0255  -27.0597   28.9535 N   0  3  0  0  0  0  0  0  0  0  0  0
  -23.6281   -9.8669   17.5640 O   0  0  0  0  0  0  0  0  0  0  0  0
  -24.5126  -28.0958   22.5993 O   0  0  0  0  0  0  0  0  0  0  0  0
  -24.9469  -29.0405   26.6007 O   0  0  0  0  0  0  0  0  0  0  0  0
  -29.5704  -28.0025   26.3419 O   0  0  0  0  0  0  0  0  0  0  0  0
  -31.5922  -15.1057   19.9515 O   0  0  0  0  0  0  0  0  0  0  0  0
  -19.8503  -13.6442   23.2250 O   0  0  0  0  0  0  0  0  0  0  0  0
  -28.6657  -23.8625   21.0134 O   0  0  0  0  0  0  0  0  0  1  0  0
  -15.4037  -15.1559   20.3361 F   0  0  0  0  0  0  0  0  0  0  0  0
  -18.7671  -16.1719   23.5079 F   0  0  0  0  0  0  0  0  0  0  0  0
  1  2  1  0  0  0  0
  1  5  2  0  0  0  0
  2  6  2  0  0  0  0
  3  8  2  0  0  0  0
  3 17  1  0  0  0  0
  4  9  1  0  0  0  0
  4 17  2  0  0  0  0
  5 19  1  0  0  0  0
  6 21  1  0  0  0  0
  7 10  2  0  0  0  0
  7 20  1  0  0  0  0
  8 27  1  0  0  0  0
  9 27  2  0  0  0  0
 10 28  1  0  0  0  0
 11 12  2  0  0  0  0
 11 29  1  0  0  0  0
 12 30  1  0  0  0  0
 13 22  1  0  0  0  0
 13 28  2  0  0  0  0
 14 23  1  0  0  0  0
 14 24  2  0  0  0  0
 15 25  1  0  0  0  0
 15 26  2  0  0  0  0
 16 30  2  0  0  0  0
 16 31  1  0  0  0  0
 17 32  1  0  0  0  0
 18 32  1  0  0  0  0
 18 33  2  0  0  0  0
 18 36  1  0  0  0  0
 19 21  2  0  0  0  0
 19 41  1  0  0  0  0
 20 22  2  0  0  0  0
 20 42  1  0  0  0  0
 21 52  1  0  0  0  0
 22 43  1  0  0  0  0
 23 25  2  0  0  0  0
 23 63  1  0  0  0  0
 24 26  1  0  0  0  0
 24 56  1  0  0  0  0
 25 57  1  0  0  0  0
 26 73  1  0  0  0  0
 27 83  1  0  0  0  0
 28 84  1  0  0  0  0
 29 31  2  0  0  0  0
 29 83  1  0  0  0  0
 30 85  1  0  0  0  0
 31 86  1  0  0  0  0
 32 67  2  0  0  0  0
 33 68  1  0  0  0  0
 33 71  1  0  0  0  0
 34 35  2  0  0  0  0
 34 44  1  0  0  0  0
 34 76  1  0  0  0  0
 36 72  1  0  0  0  0
 36 78  2  0  0  0  0
 37 53  1  0  0  0  0
 37 74  1  0  0  0  0
 37 79  2  0  0  0  0
 38 64  1  0  0  0  0
 38 69  1  0  0  0  0
 38 80  2  0  0  0  0
 39 65  1  0  0  0  0
 39 75  1  0  0  0  0
 39 81  2  0  0  0  0
 40 70  1  0  0  0  0
 40 73  1  0  0  0  0
 40 82  2  0  0  0  0
 41 45  1  0  0  0  0
 42 53  1  0  0  0  0
 43 69  1  0  0  0  0
 44 55  1  0  0  0  0
 45 47  1  0  0  0  0
 46 48  1  0  0  0  0
 46 49  1  0  0  0  0
 47 52  1  0  0  0  0
 48 54  1  0  0  0  0
 49 70  1  0  0  0  0
 50 54  1  0  0  0  0
 50 70  1  0  0  0  0
 51 55  1  0  0  0  0
 51 76  1  0  0  0  0
 52 74  1  0  0  0  0
 53 69  1  0  0  0  0
 54 68  1  0  0  0  0
 55 84  1  0  0  0  0
 58 65  1  0  0  0  0
 59 66  1  0  0  0  0
 60 66  1  0  0  0  0
 61 66  1  0  0  0  0
 62 77  1  0  0  0  0
 63 76  1  0  0  0  0
 64 66  1  0  0  0  0
 64 75  1  0  0  0  0
 65 77  1  0  0  0  0
 67 68  1  0  0  0  0
M  CHG  2  76   1  77   1
M  ISO  4  40 100  55 101  73 100  84 101
M  END
> <Batch ID>
0032

> <Smiles>
C=C1C[101CH:1]([101O:1]c2ccc3c(c2)CN(C(=O)C(NC(=O)C(C)NC)C(C)(C)C)C(C(=O)NC2CCCc4ccccc42)C3)CN1Cc1cc(C)c([100NH:0][100C:0](=O)N2CCCC(n3nc(-c4ccc(Oc5ccc(F)cc5F)cc4)c(C(N)=O)c3N)C2)cc1C

> <Shape>
0.245

> <Color>
0.065

> <Negative vol penalty>
0.000

$$$$

  -OEChem-04042321423D

 86 95  0     1  0  0  0  0  0999 V2000
  -27.3522  -37.8114   22.7790 C   0  0  0  0  0  0  0  0  0  0  0  0
  -27.8651  -36.8423   21.9228 C   0  0  0  0  0  0  0  0  0  0  0  0
  -24.2520  -12.4552   21.0715 C   0  0  0  0  0  0  0  0  0  0  0  0
  -26.5701  -12.7403   20.4533 C   0  0  0  0  0  0  0  0  0  0  0  0
  -26.6500  -37.4295   23.9214 C   0  0  0  0  0  0  0  0  0  0  0  0
  -27.6771  -35.4906   22.2090 C   0  0  0  0  0  0  0  0  0  0  0  0
  -26.7337  -29.1751   18.9623 C   0  0  0  0  0  0  0  0  0  0  0  0
  -24.3062  -11.1234   20.6605 C   0  0  0  0  0  0  0  0  0  0  0  0
  -26.6243  -11.4085   20.0422 C   0  0  0  0  0  0  0  0  0  0  0  0
  -27.2569  -27.8829   18.9475 C   0  0  0  0  0  0  0  0  0  0  0  0
  -23.9358   -7.5492   20.1096 C   0  0  0  0  0  0  0  0  0  0  0  0
  -23.3655   -6.5889   20.9452 C   0  0  0  0  0  0  0  0  0  0  0  0
  -25.9593  -27.3415   20.9077 C   0  0  0  0  0  0  0  0  0  0  0  0
  -28.2062  -23.0097   18.1275 C   0  0  0  0  0  0  0  0  0  0  0  0
  -29.9977  -22.2210   20.1152 C   0  0  0  0  0  0  0  0  0  0  0  0
  -24.8855   -7.2241   22.7125 C   0  0  0  0  0  0  0  0  0  0  0  0
  -25.3840  -13.2637   20.9679 C   0  0  0  0  0  0  0  0  0  0  0  0
  -25.6087  -15.1458   22.6752 C   0  0  0  0  0  0  0  0  0  0  0  0
  -26.4449  -36.0725   24.2167 C   0  0  0  0  0  0  0  0  0  0  0  0
  -25.8262  -29.5642   19.9581 C   0  0  0  0  0  0  0  0  0  0  0  0
  -26.9726  -35.0901   23.3571 C   0  0  0  0  0  0  0  0  0  0  0  0
  -25.4241  -28.6385   20.9314 C   0  0  0  0  0  0  0  0  0  0  0  0
  -28.7277  -23.9545   19.0111 C   0  0  0  0  0  0  0  0  0  0  0  0
  -28.5803  -21.6704   18.2378 C   0  0  0  0  0  0  0  0  0  0  0  0
  -29.6235  -23.5602   20.0049 C   0  0  0  0  0  0  0  0  0  0  0  0
  -25.4923  -10.6000   20.1459 C   0  0  0  0  0  0  0  0  0  0  0  0
  -26.8719  -26.9667   19.9219 C   0  0  0  0  0  0  0  0  0  0  0  0
  -24.9810   -8.3469   20.5754 C   0  0  0  0  0  0  0  0  0  0  0  0
  -23.8403   -6.4264   22.2466 C   0  0  0  0  0  0  0  0  0  0  0  0
  -25.4558   -8.1844   21.8769 C   0  0  0  0  0  0  0  0  0  0  0  0
  -29.4761  -21.2761   19.2316 C   0  0  0  0  0  0  0  0  0  0  0  0
  -25.3285  -14.6397   21.3918 C   0  0  0  0  0  0  0  0  0  0  0  0
  -25.4124  -16.5003   22.5605 C   0  0  0  0  0  0  0  0  0  0  0  0
  -30.9421  -25.6415   20.5929 C   0  0  0  0  0  0  0  0  0  0  0  0
  -26.0106  -14.4534   23.8646 C   0  0  0  0  0  0  0  0  0  0  0  0
  -25.8290  -31.7506   22.2653 C   0  0  0  0  0  0  0  0  0  0  0  0
  -22.7624  -30.7706   22.6627 C   0  0  0  0  0  0  0  0  0  0  0  0
  -20.4325  -28.3091   22.2633 C   0  0  0  0  0  0  0  0  0  0  0  0
  -25.6381  -20.2745   17.9177 C   0  0  0  0  0  0  0  0  0  0  0  0
  -25.7203  -35.7077   25.4881 C   0  0  0  0  0  0  0  0  0  0  0  0
  -25.2505  -30.9537   19.9445 C   0  0  0  0  0  0  0  0  0  0  0  0
  -24.4372  -29.0002   22.0102 C   0  0  0  0  0  0  0  0  0  0  0  0
  -31.3704  -26.2809   21.8943 C   0  0  0  0  0  0  0  0  0  0  0  0
  -25.2417  -34.2586   25.5221 C   0  0  0  0  0  0  0  0  0  0  0  0
  -30.3719  -25.7380   22.8968 C   0  0  0  0  0  0  0  0  0  0  0  0
  -22.8753  -19.7206   20.0940 C   0  0  0  0  0  0  0  0  0  0  0  0
  -26.3534  -33.3184   25.0669 C   0  0  0  0  0  0  0  0  0  0  0  0
  -23.2160  -18.4013   20.7892 C   0  0  0  0  0  0  0  0  0  0  0  0
  -30.0434  -24.3623   22.3557 C   0  0  0  0  0  0  0  0  0  0  0  0
  -23.3322  -19.7251   18.6369 C   0  0  0  0  0  0  0  0  0  0  0  0
  -25.0957  -18.0751   19.1281 C   0  0  0  0  0  0  0  0  0  0  0  0
  -26.7680  -33.6140   23.6205 C   0  0  1  0  0  0  0  0  0  0  0  0
  -24.7269  -31.3969   21.3071 C   0  0  1  0  0  0  0  0  0  0  0  0
  -24.7044  -18.0440   20.6155 C   0  0  2  0  0  0  0  0  0  0  0  0
  -18.0212  -27.7861   22.7205 C   0  0  0  0  0  0  0  0  0  0  0  0
  -23.4229  -30.3095   25.6057 C   0  0  0  0  0  0  0  0  0  0  0  0
  -21.3410  -28.9305   25.7849 C   0  0  0  0  0  0  0  0  0  0  0  0
  -21.1863  -31.3478   25.1888 C   0  0  0  0  0  0  0  0  0  0  0  0
  -19.8375  -27.9797   19.3829 C   0  0  0  0  0  0  0  0  0  0  0  0
  -27.9985  -20.6886   17.2724 C   0  0  0  0  0  0  0  0  0  0  0  0
  -28.3061  -25.3876   18.8704 C   0  0  0  0  0  0  0  0  0  1  0  0
  -22.0784  -29.7059   23.4858 C   0  0  1  0  0  0  0  0  0  0  0  0
  -19.0175  -28.3409   21.7144 C   0  0  2  0  0  0  0  0  0  0  0  0
  -22.0272  -30.0669   24.9973 C   0  0  0  0  0  0  0  0  0  0  0  0
  -24.9804  -15.5949   20.5255 N   0  0  0  0  0  0  0  0  0  0  0  0
  -25.0406  -16.7148   21.2659 N   0  0  0  0  0  0  0  0  0  0  0  0
  -30.1671  -24.5112   20.9185 N   0  0  0  0  0  0  0  0  0  0  0  0
  -23.9074  -30.3728   21.9581 N   0  0  0  0  0  0  0  0  0  0  0  0
  -24.7527  -19.3802   18.5417 N   0  0  0  0  0  0  0  0  0  0  0  0
  -25.5231  -17.5169   23.4418 N   0  0  0  0  0  0  0  0  0  0  0  0
  -26.1658  -13.0616   23.8074 N   0  0  0  0  0  0  0  0  0  0  0  0
  -25.8011  -33.0636   22.6950 N   0  0  0  0  0  0  0  0  0  0  0  0
  -20.7693  -29.4972   22.8767 N   0  0  0  0  0  0  0  0  0  0  0  0
  -26.9679  -19.8734   17.8758 N   0  0  0  0  0  0  0  0  0  0  0  0
  -18.9273  -27.5299   20.4674 N   0  3  0  0  0  0  0  0  0  0  0  0
  -31.3019  -26.0631   19.5034 O   0  0  0  0  0  0  0  0  0  0  0  0
  -26.2099  -15.0492   24.9503 O   0  0  0  0  0  0  0  0  0  0  0  0
  -26.6433  -30.8951   22.5919 O   0  0  0  0  0  0  0  0  0  0  0  0
  -22.2937  -31.9115   22.6399 O   0  0  0  0  0  0  0  0  0  0  0  0
  -21.1645  -27.3271   22.1615 O   0  0  0  0  0  0  0  0  0  0  0  0
  -25.2717  -21.3529   17.4384 O   0  0  0  0  0  0  0  0  0  0  0  0
  -25.5456   -9.3004   19.7449 O   0  0  0  0  0  0  0  0  0  0  0  0
  -27.3816  -25.7050   19.9102 O   0  0  0  0  0  0  0  0  0  1  0  0
  -23.2916   -5.5052   23.0494 F   0  0  0  0  0  0  0  0  0  0  0  0
  -26.4589   -8.9486   22.3304 F   0  0  0  0  0  0  0  0  0  0  0  0
  -29.9617  -19.6281   19.3986 Cl  0  0  0  0  0  0  0  0  0  0  0  0
  1  2  1  0  0  0  0
  1  5  2  0  0  0  0
  2  6  2  0  0  0  0
  3  8  2  0  0  0  0
  3 17  1  0  0  0  0
  4  9  1  0  0  0  0
  4 17  2  0  0  0  0
  5 19  1  0  0  0  0
  6 21  1  0  0  0  0
  7 10  2  0  0  0  0
  7 20  1  0  0  0  0
  8 26  1  0  0  0  0
  9 26  2  0  0  0  0
 10 27  1  0  0  0  0
 11 12  2  0  0  0  0
 11 28  1  0  0  0  0
 12 29  1  0  0  0  0
 13 22  1  0  0  0  0
 13 27  2  0  0  0  0
 14 23  1  0  0  0  0
 14 24  2  0  0  0  0
 15 25  1  0  0  0  0
 15 31  2  0  0  0  0
 16 29  2  0  0  0  0
 16 30  1  0  0  0  0
 17 32  1  0  0  0  0
 18 32  1  0  0  0  0
 18 33  2  0  0  0  0
 18 35  1  0  0  0  0
 19 21  2  0  0  0  0
 19 40  1  0  0  0  0
 20 22  2  0  0  0  0
 20 41  1  0  0  0  0
 21 52  1  0  0  0  0
 22 42  1  0  0  0  0
 23 25  2  0  0  0  0
 23 61  1  0  0  0  0
 24 31  1  0  0  0  0
 24 60  1  0  0  0  0
 25 67  1  0  0  0  0
 26 82  1  0  0  0  0
 27 83  1  0  0  0  0
 28 30  2  0  0  0  0
 28 82  1  0  0  0  0
 29 84  1  0  0  0  0
 30 85  1  0  0  0  0
 31 86  1  0  0  0  0
 32 65  2  0  0  0  0
 33 66  1  0  0  0  0
 33 70  1  0  0  0  0
 34 43  1  0  0  0  0
 34 67  1  0  0  0  0
 34 76  2  0  0  0  0
 35 71  1  0  0  0  0
 35 77  2  0  0  0  0
 36 53  1  0  0  0  0
 36 72  1  0  0  0  0
 36 78  2  0  0  0  0
 37 62  1  0  0  0  0
 37 68  1  0  0  0  0
 37 79  2  0  0  0  0
 38 63  1  0  0  0  0
 38 73  1  0  0  0  0
 38 80  2  0  0  0  0
 39 69  1  0  0  0  0
 39 74  1  0  0  0  0
 39 81  2  0  0  0  0
 40 44  1  0  0  0  0
 41 53  1  0  0  0  0
 42 68  1  0  0  0  0
 43 45  1  0  0  0  0
 44 47  1  0  0  0  0
 45 49  1  0  0  0  0
 46 48  1  0  0  0  0
 46 50  1  0  0  0  0
 47 52  1  0  0  0  0
 48 54  1  0  0  0  0
 49 67  1  0  0  0  0
 50 69  1  0  0  0  0
 51 54  1  0  0  0  0
 51 69  1  0  0  0  0
 52 72  1  0  0  0  0
 53 68  1  0  0  0  0
 54 66  1  0  0  0  0
 55 63  1  0  0  0  0
 56 64  1  0  0  0  0
 57 64  1  0  0  0  0
 58 64  1  0  0  0  0
 59 75  1  0  0  0  0
 60 74  1  0  0  0  0
 61 83  1  0  0  0  0
 62 64  1  0  0  0  0
 62 73  1  0  0  0  0
 63 75  1  0  0  0  0
 65 66  1  0  0  0  0
M  CHG  1  75   1
M  ISO  4  39 100  61 101  74 100  83 101
M  END
> <Batch ID>
0032

> <Smiles>
CNC(C)C(=O)NC(C(=O)N1Cc2cc([101O:1][101CH2:1]c3cc(C[100NH:0][100C:0](=O)N4CCCC(n5nc(-c6ccc(Oc7ccc(F)cc7F)cc6)c(C(N)=O)c5N)C4)c(Cl)cc3N3CCCC3=O)ccc2CC1C(=O)NC1CCCc2ccccc21)C(C)(C)C

> <Shape>
0.274

> <Color>
0.083

> <Negative vol penalty>
0.000

$$$$

  -OEChem-04042321423D

 86 95  0     1  0  0  0  0  0999 V2000
  -30.5032  -32.7572   15.5155 C   0  0  0  0  0  0  0  0  0  0  0  0
  -30.5768  -31.5087   16.1248 C   0  0  0  0  0  0  0  0  0  0  0  0
  -24.4344   -8.7028   21.4861 C   0  0  0  0  0  0  0  0  0  0  0  0
  -24.3447  -10.2961   23.3001 C   0  0  0  0  0  0  0  0  0  0  0  0
  -29.7977  -33.7910   16.1299 C   0  0  0  0  0  0  0  0  0  0  0  0
  -29.9457  -31.2936   17.3495 C   0  0  0  0  0  0  0  0  0  0  0  0
  -27.2717  -26.1242   19.2553 C   0  0  0  0  0  0  0  0  0  0  0  0
  -24.0478   -7.6865   22.3596 C   0  0  0  0  0  0  0  0  0  0  0  0
  -23.9580   -9.2797   24.1736 C   0  0  0  0  0  0  0  0  0  0  0  0
  -27.7104  -25.0908   20.0820 C   0  0  0  0  0  0  0  0  0  0  0  0
  -21.1879   -6.5815   23.7855 C   0  0  0  0  0  0  0  0  0  0  0  0
  -20.2007   -5.6960   23.3533 C   0  0  0  0  0  0  0  0  0  0  0  0
  -26.6140  -26.1356   21.9597 C   0  0  0  0  0  0  0  0  0  0  0  0
  -29.3026  -18.3239   23.6921 C   0  0  0  0  0  0  0  0  0  0  0  0
  -30.6945  -17.4436   21.4403 C   0  0  0  0  0  0  0  0  0  0  0  0
  -21.7437   -3.8537   23.6030 C   0  0  0  0  0  0  0  0  0  0  0  0
  -24.5830  -10.0077   21.9563 C   0  0  0  0  0  0  0  0  0  0  0  0
  -24.1417  -11.8852   20.2866 C   0  0  0  0  0  0  0  0  0  0  0  0
  -29.1496  -33.5857   17.3581 C   0  0  0  0  0  0  0  0  0  0  0  0
  -26.5088  -27.1784   19.7777 C   0  0  0  0  0  0  0  0  0  0  0  0
  -29.2321  -32.3260   17.9816 C   0  0  0  0  0  0  0  0  0  0  0  0
  -26.1647  -27.1798   21.1370 C   0  0  0  0  0  0  0  0  0  0  0  0
  -30.0491  -19.2277   22.9362 C   0  0  0  0  0  0  0  0  0  0  0  0
  -29.9481  -16.5397   22.1963 C   0  0  0  0  0  0  0  0  0  0  0  0
  -23.8095   -7.9749   23.7034 C   0  0  0  0  0  0  0  0  0  0  0  0
  -27.3841  -25.0979   21.4350 C   0  0  0  0  0  0  0  0  0  0  0  0
  -22.4531   -6.1031   24.1264 C   0  0  0  0  0  0  0  0  0  0  0  0
  -20.4786   -4.3321   23.2621 C   0  0  0  0  0  0  0  0  0  0  0  0
  -22.7310   -4.7393   24.0351 C   0  0  0  0  0  0  0  0  0  0  0  0
  -29.2522  -16.9798   23.3222 C   0  0  0  0  0  0  0  0  0  0  0  0
  -30.7450  -18.7876   21.8103 C   0  0  0  0  0  0  0  0  0  0  0  0
  -24.9829  -11.0579   21.0546 C   0  0  0  0  0  0  0  0  0  0  0  0
  -25.0017  -12.7111   19.6049 C   0  0  0  0  0  0  0  0  0  0  0  0
  -27.7465  -21.4726   23.8894 C   0  0  0  0  0  0  0  0  0  0  0  0
  -22.7108  -11.9053   20.1976 C   0  0  0  0  0  0  0  0  0  0  0  0
  -26.9069  -30.3213   20.0377 C   0  0  0  0  0  0  0  0  0  0  0  0
  -23.8517  -30.2258   21.1235 C   0  0  0  0  0  0  0  0  0  0  0  0
  -21.3465  -28.4157   22.5706 C   0  0  0  0  0  0  0  0  0  0  0  0
  -30.5608  -14.6115   20.6954 C   0  0  0  0  0  0  0  0  0  0  0  0
  -28.4387  -34.7469   18.0068 C   0  0  0  0  0  0  0  0  0  0  0  0
  -26.0207  -28.2718   18.8673 C   0  0  0  0  0  0  0  0  0  0  0  0
  -25.3309  -28.2780   21.7428 C   0  0  0  0  0  0  0  0  0  0  0  0
  -26.6499  -22.1548   23.1042 C   0  0  0  0  0  0  0  0  0  0  0  0
  -27.4837  -34.3302   19.1224 C   0  0  0  0  0  0  0  0  0  0  0  0
  -29.4427  -12.8387   17.8172 C   0  0  0  0  0  0  0  0  0  0  0  0
  -28.1556  -33.3251   20.0525 C   0  0  0  0  0  0  0  0  0  0  0  0
  -28.0927  -12.2613   18.2488 C   0  0  0  0  0  0  0  0  0  0  0  0
  -30.4538  -12.8339   18.9623 C   0  0  0  0  0  0  0  0  0  0  0  0
  -28.6433  -12.8984   20.6317 C   0  0  0  0  0  0  0  0  0  0  0  0
  -28.6056  -21.8903   21.7235 C   0  0  0  0  0  0  0  0  0  0  0  0
  -28.5400  -32.0466   19.2981 C   0  0  1  0  0  0  0  0  0  0  0  0
  -25.6836  -29.5613   19.6095 C   0  0  1  0  0  0  0  0  0  0  0  0
  -27.5721  -12.9423   19.5297 C   0  0  2  0  0  0  0  0  0  0  0  0
  -27.3857  -22.7717   21.9177 C   0  0  2  0  0  0  0  0  0  1  0  0
  -18.9756  -28.6198   23.3672 C   0  0  0  0  0  0  0  0  0  0  0  0
  -24.8138  -31.7400   23.5916 C   0  0  0  0  0  0  0  0  0  0  0  0
  -22.6860  -31.0851   24.7370 C   0  0  0  0  0  0  0  0  0  0  0  0
  -22.6114  -32.5079   22.6894 C   0  0  0  0  0  0  0  0  0  0  0  0
  -20.4085  -26.3473   20.6730 C   0  0  0  0  0  0  0  0  0  0  0  0
  -30.0772  -20.6656   23.3673 C   0  0  0  0  0  0  0  0  0  0  0  0
  -23.2026  -30.0590   22.4762 C   0  0  1  0  0  0  0  0  0  0  0  0
  -19.8828  -28.2494   22.2042 C   0  0  2  0  0  0  0  0  0  0  0  0
  -23.3458  -31.3282   23.3628 C   0  0  0  0  0  0  0  0  0  0  0  0
  -26.2779  -11.3330   20.8776 N   0  0  0  0  0  0  0  0  0  0  0  0
  -26.2569  -12.3424   19.9906 N   0  0  0  0  0  0  0  0  0  0  0  0
  -28.8448  -21.3520   23.0441 N   0  0  0  0  0  0  0  0  0  0  0  0
  -24.8828  -29.3279   20.8130 N   0  0  0  0  0  0  0  0  0  0  0  0
  -29.8931  -13.4994   20.1402 N   0  0  0  0  0  0  0  0  0  0  0  0
  -24.7991  -13.7094   18.7190 N   0  0  0  0  0  0  0  0  0  0  0  0
  -21.9806  -10.9884   20.9658 N   0  0  0  0  0  0  0  0  0  0  0  0
  -29.9168  -15.1818   21.7929 N   0  0  0  0  0  0  0  0  0  0  0  0
  -27.3757  -31.2123   19.0913 N   0  0  0  0  0  0  0  0  0  0  0  0
  -21.8224  -29.6615   22.2204 N   0  0  0  0  0  0  0  0  0  0  0  0
  -19.6021  -26.8369   21.8205 N   0  3  0  0  0  0  0  0  0  0  0  0
  -27.6308  -21.0748   25.0393 O   0  0  0  0  0  0  0  0  0  0  0  0
  -22.0986  -12.7016   19.4461 O   0  0  0  0  0  0  0  0  0  0  0  0
  -27.3890  -30.1157   21.1455 O   0  0  0  0  0  0  0  0  0  0  0  0
  -23.4536  -31.1153   20.3672 O   0  0  0  0  0  0  0  0  0  0  0  0
  -22.0012  -27.5303   23.1166 O   0  0  0  0  0  0  0  0  0  0  0  0
  -31.6115  -15.0439   20.2148 O   0  0  0  0  0  0  0  0  0  0  0  0
  -23.4320   -6.9834   24.5560 O   0  0  0  0  0  0  0  0  0  0  0  0
  -27.8116  -24.0908   22.2443 O   0  0  0  0  0  0  0  0  0  1  0  0
  -19.5299   -3.4817   22.8485 F   0  0  0  0  0  0  0  0  0  0  0  0
  -23.9443   -4.2737   24.3624 F   0  0  0  0  0  0  0  0  0  0  0  0
  -28.3165  -15.8940   24.2865 Cl  0  0  0  0  0  0  0  0  0  0  0  0
  -31.6797  -19.8776   20.8520 Cl  0  0  0  0  0  0  0  0  0  0  0  0
  1  2  1  0  0  0  0
  1  5  2  0  0  0  0
  2  6  2  0  0  0  0
  3  8  2  0  0  0  0
  3 17  1  0  0  0  0
  4  9  1  0  0  0  0
  4 17  2  0  0  0  0
  5 19  1  0  0  0  0
  6 21  1  0  0  0  0
  7 10  2  0  0  0  0
  7 20  1  0  0  0  0
  8 25  1  0  0  0  0
  9 25  2  0  0  0  0
 10 26  1  0  0  0  0
 11 12  2  0  0  0  0
 11 27  1  0  0  0  0
 12 28  1  0  0  0  0
 13 22  1  0  0  0  0
 13 26  2  0  0  0  0
 14 23  1  0  0  0  0
 14 30  2  0  0  0  0
 15 24  2  0  0  0  0
 15 31  1  0  0  0  0
 16 28  2  0  0  0  0
 16 29  1  0  0  0  0
 17 32  1  0  0  0  0
 18 32  1  0  0  0  0
 18 33  2  0  0  0  0
 18 35  1  0  0  0  0
 19 21  2  0  0  0  0
 19 40  1  0  0  0  0
 20 22  2  0  0  0  0
 20 41  1  0  0  0  0
 21 51  1  0  0  0  0
 22 42  1  0  0  0  0
 23 31  2  0  0  0  0
 23 60  1  0  0  0  0
 24 30  1  0  0  0  0
 24 71  1  0  0  0  0
 25 81  1  0  0  0  0
 26 82  1  0  0  0  0
 27 29  2  0  0  0  0
 27 81  1  0  0  0  0
 28 83  1  0  0  0  0
 29 84  1  0  0  0  0
 30 85  1  0  0  0  0
 31 86  1  0  0  0  0
 32 64  2  0  0  0  0
 33 65  1  0  0  0  0
 33 69  1  0  0  0  0
 34 43  1  0  0  0  0
 34 66  1  0  0  0  0
 34 75  2  0  0  0  0
 35 70  1  0  0  0  0
 35 76  2  0  0  0  0
 36 52  1  0  0  0  0
 36 72  1  0  0  0  0
 36 77  2  0  0  0  0
 37 61  1  0  0  0  0
 37 67  1  0  0  0  0
 37 78  2  0  0  0  0
 38 62  1  0  0  0  0
 38 73  1  0  0  0  0
 38 79  2  0  0  0  0
 39 68  1  0  0  0  0
 39 71  1  0  0  0  0
 39 80  2  0  0  0  0
 40 44  1  0  0  0  0
 41 52  1  0  0  0  0
 42 67  1  0  0  0  0
 43 54  1  0  0  0  0
 44 46  1  0  0  0  0
 45 47  1  0  0  0  0
 45 48  1  0  0  0  0
 46 51  1  0  0  0  0
 47 53  1  0  0  0  0
 48 68  1  0  0  0  0
 49 53  1  0  0  0  0
 49 68  1  0  0  0  0
 50 54  1  0  0  0  0
 50 66  1  0  0  0  0
 51 72  1  0  0  0  0
 52 67  1  0  0  0  0
 53 65  1  0  0  0  0
 54 82  1  0  0  0  0
 55 62  1  0  0  0  0
 56 63  1  0  0  0  0
 57 63  1  0  0  0  0
 58 63  1  0  0  0  0
 59 74  1  0  0  0  0
 60 66  1  0  0  0  0
 61 63  1  0  0  0  0
 61 73  1  0  0  0  0
 62 74  1  0  0  0  0
 64 65  1  0  0  0  0
M  CHG  1  74   1
M  ISO  4  39 100  54 101  71 100  82 101
M  END
> <Batch ID>
0032

> <Smiles>
CNC(C)C(=O)NC(C(=O)N1Cc2cc([101O:1][101CH:1]3CC(=O)N(Cc4cc(Cl)c([100NH:0][100C:0](=O)N5CCCC(n6nc(-c7ccc(Oc8ccc(F)cc8F)cc7)c(C(N)=O)c6N)C5)cc4Cl)C3)ccc2CC1C(=O)NC1CCCc2ccccc21)C(C)(C)C

> <Shape>
0.288

> <Color>
0.111

> <Negative vol penalty>
0.000

$$$$

  -OEChem-04042321423D

 87 96  0     1  0  0  0  0  0999 V2000
  -21.7291  -11.6826   19.5376 C   0  0  0  0  0  0  0  0  0  0  0  0
  -21.4825  -12.9475   20.0617 C   0  0  0  0  0  0  0  0  0  0  0  0
  -29.4758  -26.6399   19.5730 C   0  0  0  0  0  0  0  0  0  0  0  0
  -28.6308  -26.3325   17.3306 C   0  0  0  0  0  0  0  0  0  0  0  0
  -23.0199  -11.1565   19.5675 C   0  0  0  0  0  0  0  0  0  0  0  0
  -22.5265  -13.6865   20.6170 C   0  0  0  0  0  0  0  0  0  0  0  0
  -23.2376  -19.7665   20.4330 C   0  0  0  0  0  0  0  0  0  0  0  0
  -18.6849  -27.5896   23.2429 C   0  0  0  0  0  0  0  0  0  0  0  0
  -30.7775  -26.6952   19.0750 C   0  0  0  0  0  0  0  0  0  0  0  0
  -29.9325  -26.3878   16.8325 C   0  0  0  0  0  0  0  0  0  0  0  0
  -22.9524  -20.7726   21.3551 C   0  0  0  0  0  0  0  0  0  0  0  0
  -32.2271  -28.7650   16.1222 C   0  0  0  0  0  0  0  0  0  0  0  0
  -32.4531  -29.5463   14.9890 C   0  0  0  0  0  0  0  0  0  0  0  0
  -18.1417  -26.3480   23.5727 C   0  0  0  0  0  0  0  0  0  0  0  0
  -25.2392  -20.7107   22.1206 C   0  0  0  0  0  0  0  0  0  0  0  0
  -33.2282  -27.5930   13.7969 C   0  0  0  0  0  0  0  0  0  0  0  0
  -28.4024  -26.4585   18.7008 C   0  0  0  0  0  0  0  0  0  0  0  0
  -26.5403  -25.4749   20.1405 C   0  0  0  0  0  0  0  0  0  0  0  0
  -24.0821  -11.8934   20.1147 C   0  0  0  0  0  0  0  0  0  0  0  0
  -24.5251  -19.2165   20.3551 C   0  0  0  0  0  0  0  0  0  0  0  0
  -23.8324  -13.1692   20.6555 C   0  0  0  0  0  0  0  0  0  0  0  0
  -25.5388  -19.6996   21.1948 C   0  0  0  0  0  0  0  0  0  0  0  0
  -19.9658  -27.9285   23.6789 C   0  0  0  0  0  0  0  0  0  0  0  0
  -20.7035  -27.0258   24.4448 C   0  0  0  0  0  0  0  0  0  0  0  0
  -20.1602  -25.7842   24.7747 C   0  0  0  0  0  0  0  0  0  0  0  0
  -31.0059  -26.5691   17.7047 C   0  0  0  0  0  0  0  0  0  0  0  0
  -23.9526  -21.2428   22.2010 C   0  0  0  0  0  0  0  0  0  0  0  0
  -32.5017  -27.3977   16.0928 C   0  0  0  0  0  0  0  0  0  0  0  0
  -32.9537  -28.9603   13.8264 C   0  0  0  0  0  0  0  0  0  0  0  0
  -33.0022  -26.8117   14.9301 C   0  0  0  0  0  0  0  0  0  0  0  0
  -18.8793  -25.4453   24.3387 C   0  0  0  0  0  0  0  0  0  0  0  0
  -27.0576  -26.4008   19.2148 C   0  0  0  0  0  0  0  0  0  0  0  0
  -25.2271  -25.8450   20.2990 C   0  0  0  0  0  0  0  0  0  0  0  0
  -23.0684  -23.5823   25.6752 C   0  0  0  0  0  0  0  0  0  0  0  0
  -23.8756  -24.3601   26.4064 C   0  0  0  0  0  0  0  0  0  0  0  0
  -27.1888  -24.3784   20.7984 C   0  0  0  0  0  0  0  0  0  0  0  0
  -25.7574  -16.3199   20.7969 C   0  0  0  0  0  0  0  0  0  0  0  0
  -28.4695  -17.7353   19.7181 C   0  0  0  0  0  0  0  0  0  0  0  0
  -30.2587  -20.6070   19.2723 C   0  0  0  0  0  0  0  0  0  0  0  0
  -21.3315  -29.7757   21.0195 C   0  0  0  0  0  0  0  0  0  0  0  0
  -25.4514  -11.2635   20.1675 C   0  0  0  0  0  0  0  0  0  0  0  0
  -24.8232  -18.1505   19.3366 C   0  0  0  0  0  0  0  0  0  0  0  0
  -26.9424  -19.1566   21.1371 C   0  0  0  0  0  0  0  0  0  0  0  0
  -23.2262  -22.1065   25.4813 C   0  0  0  0  0  0  0  0  0  0  0  0
  -26.5724  -12.2645   20.4348 C   0  0  0  0  0  0  0  0  0  0  0  0
  -22.3900  -29.1164   17.6846 C   0  0  0  0  0  0  0  0  0  0  0  0
  -26.1953  -13.1941   21.5839 C   0  0  0  0  0  0  0  0  0  0  0  0
  -23.6588  -28.2805   17.8620 C   0  0  0  0  0  0  0  0  0  0  0  0
  -22.2662  -30.1903   18.7632 C   0  0  0  0  0  0  0  0  0  0  0  0
  -23.6264  -28.8549   20.3253 C   0  0  0  0  0  0  0  0  0  0  0  0
  -21.5708  -22.9938   23.9735 C   0  0  0  0  0  0  0  0  0  0  0  0
  -24.9433  -14.0117   21.2440 C   0  0  1  0  0  0  0  0  0  0  0  0
  -26.0400  -17.3036   19.6968 C   0  0  1  0  0  0  0  0  0  0  0  0
  -23.7668  -27.7223   19.2938 C   0  0  2  0  0  0  0  0  0  0  0  0
  -22.6729  -21.9487   24.0736 C   0  0  1  0  0  0  0  0  0  1  0  0
  -22.0772  -27.3930   24.9104 C   0  0  0  0  0  0  0  0  0  0  0  0
  -32.4579  -21.4422   18.3984 C   0  0  0  0  0  0  0  0  0  0  0  0
  -29.8559  -16.7125   22.2364 C   0  0  0  0  0  0  0  0  0  0  0  0
  -31.7108  -18.3336   21.7896 C   0  0  0  0  0  0  0  0  0  0  0  0
  -31.2163  -16.5230   20.1465 C   0  0  0  0  0  0  0  0  0  0  0  0
  -28.9393  -22.2753   17.2144 C   0  0  0  0  0  0  0  0  0  0  0  0
  -20.5237  -29.2640   23.3097 C   0  0  0  0  0  0  0  0  0  0  0  0
  -20.9644  -24.8230   25.5995 C   0  0  0  0  0  0  0  0  0  0  0  0
  -29.6198  -18.4716   20.3613 C   0  0  1  0  0  0  0  0  0  0  0  0
  -31.0019  -21.1539   18.0669 C   0  0  2  0  0  0  0  0  0  0  0  0
  -30.5739  -17.5193   21.1361 C   0  0  0  0  0  0  0  0  0  0  0  0
  -26.1472  -27.2919   18.8133 N   0  0  0  0  0  0  0  0  0  0  0  0
  -25.0447  -26.9277   19.4898 N   0  0  0  0  0  0  0  0  0  0  0  0
  -27.1827  -18.1109   20.1289 N   0  0  0  0  0  0  0  0  0  0  0  0
  -22.3755  -29.5950   20.0972 N   0  0  0  0  0  0  0  0  0  0  0  0
  -24.2222  -25.3466   21.0501 N   0  0  0  0  0  0  0  0  0  0  0  0
  -27.1691  -23.1214   20.1788 N   0  0  0  0  0  0  0  0  0  0  0  0
  -25.2782  -15.1021   20.3534 N   0  0  0  0  0  0  0  0  0  0  0  0
  -30.2672  -19.2284   19.2953 N   0  0  0  0  0  0  0  0  0  0  0  0
  -21.5124  -29.1731   22.2584 N   0  0  0  0  0  0  0  0  0  0  0  0
  -22.0639  -24.1611   24.8247 N   0  3  1  0  0  0  0  0  0  0  0  0
  -30.3677  -22.4179   17.5969 N   0  3  0  0  0  0  0  0  0  0  0  0
  -27.7545  -24.5058   21.9107 O   0  0  0  0  0  0  0  0  0  0  0  0
  -25.9607  -16.6415   21.9618 O   0  0  0  0  0  0  0  0  0  0  0  0
  -28.7039  -16.8642   18.8768 O   0  0  0  0  0  0  0  0  0  0  0  0
  -29.7272  -21.3305   20.1117 O   0  0  0  0  0  0  0  0  0  0  0  0
  -20.3113  -30.4213   20.7564 O   0  0  0  0  0  0  0  0  0  0  0  0
  -32.2760  -26.6232   17.2183 O   0  0  0  0  0  0  0  0  0  0  0  0
  -23.6768  -22.2243   23.1025 O   0  0  0  0  0  0  0  0  0  1  0  0
  -33.1693  -29.7105   12.7378 F   0  0  0  0  0  0  0  0  0  0  0  0
  -33.2668  -25.4985   14.8954 F   0  0  0  0  0  0  0  0  0  0  0  0
  -18.1713  -23.9189   24.7256 Cl  0  0  0  0  0  0  0  0  0  0  0  0
  1  2  1  0  0  0  0
  1  5  2  0  0  0  0
  2  6  2  0  0  0  0
  3  9  2  0  0  0  0
  3 17  1  0  0  0  0
  4 10  1  0  0  0  0
  4 17  2  0  0  0  0
  5 19  1  0  0  0  0
  6 21  1  0  0  0  0
  7 11  2  0  0  0  0
  7 20  1  0  0  0  0
  8 14  1  0  0  0  0
  8 23  2  0  0  0  0
  9 26  1  0  0  0  0
 10 26  2  0  0  0  0
 11 27  1  0  0  0  0
 12 13  2  0  0  0  0
 12 28  1  0  0  0  0
 13 29  1  0  0  0  0
 14 31  2  0  0  0  0
 15 22  1  0  0  0  0
 15 27  2  0  0  0  0
 16 29  2  0  0  0  0
 16 30  1  0  0  0  0
 17 32  1  0  0  0  0
 18 32  1  0  0  0  0
 18 33  2  0  0  0  0
 18 36  1  0  0  0  0
 19 21  2  0  0  0  0
 19 41  1  0  0  0  0
 20 22  2  0  0  0  0
 20 42  1  0  0  0  0
 21 52  1  0  0  0  0
 22 43  1  0  0  0  0
 23 24  1  0  0  0  0
 23 62  1  0  0  0  0
 24 25  2  0  0  0  0
 24 56  1  0  0  0  0
 25 31  1  0  0  0  0
 25 63  1  0  0  0  0
 26 83  1  0  0  0  0
 27 84  1  0  0  0  0
 28 30  2  0  0  0  0
 28 83  1  0  0  0  0
 29 85  1  0  0  0  0
 30 86  1  0  0  0  0
 31 87  1  0  0  0  0
 32 67  2  0  0  0  0
 33 68  1  0  0  0  0
 33 71  1  0  0  0  0
 34 35  2  0  0  0  0
 34 44  1  0  0  0  0
 34 76  1  0  0  0  0
 36 72  1  0  0  0  0
 36 78  2  0  0  0  0
 37 53  1  0  0  0  0
 37 73  1  0  0  0  0
 37 79  2  0  0  0  0
 38 64  1  0  0  0  0
 38 69  1  0  0  0  0
 38 80  2  0  0  0  0
 39 65  1  0  0  0  0
 39 74  1  0  0  0  0
 39 81  2  0  0  0  0
 40 70  1  0  0  0  0
 40 75  1  0  0  0  0
 40 82  2  0  0  0  0
 41 45  1  0  0  0  0
 42 53  1  0  0  0  0
 43 69  1  0  0  0  0
 44 55  1  0  0  0  0
 45 47  1  0  0  0  0
 46 48  1  0  0  0  0
 46 49  1  0  0  0  0
 47 52  1  0  0  0  0
 48 54  1  0  0  0  0
 49 70  1  0  0  0  0
 50 54  1  0  0  0  0
 50 70  1  0  0  0  0
 51 55  1  0  0  0  0
 51 76  1  0  0  0  0
 52 73  1  0  0  0  0
 53 69  1  0  0  0  0
 54 68  1  0  0  0  0
 55 84  1  0  0  0  0
 57 65  1  0  0  0  0
 58 66  1  0  0  0  0
 59 66  1  0  0  0  0
 60 66  1  0  0  0  0
 61 77  1  0  0  0  0
 62 75  1  0  0  0  0
 63 76  1  0  0  0  0
 64 66  1  0  0  0  0
 64 74  1  0  0  0  0
 65 77  1  0  0  0  0
 67 68  1  0  0  0  0
M  CHG  2  76   1  77   1
M  ISO  4  40 100  55 101  75 100  84 101
M  END
> <Batch ID>
0032

> <Smiles>
C=C1C[101CH:1]([101O:1]c2ccc3c(c2)CN(C(=O)C(NC(=O)C(C)NC)C(C)(C)C)C(C(=O)NC2CCCc4ccccc42)C3)CN1Cc1c(Cl)ccc(C[100NH:0][100C:0](=O)N2CCCC(n3nc(-c4ccc(Oc5ccc(F)cc5F)cc4)c(C(N)=O)c3N)C2)c1C

> <Shape>
0.208

> <Color>
0.063

> <Negative vol penalty>
0.000

$$$$

  -OEChem-04042321423D

 86 95  0     1  0  0  0  0  0999 V2000
  -27.0102  -34.8213   26.0593 C   0  0  0  0  0  0  0  0  0  0  0  0
  -27.4898  -33.5441   25.7868 C   0  0  0  0  0  0  0  0  0  0  0  0
  -23.1471   -9.8234   19.8109 C   0  0  0  0  0  0  0  0  0  0  0  0
  -24.0924   -9.5512   22.0176 C   0  0  0  0  0  0  0  0  0  0  0  0
  -25.7095  -35.1683   25.6968 C   0  0  0  0  0  0  0  0  0  0  0  0
  -26.6684  -32.6128   25.1524 C   0  0  0  0  0  0  0  0  0  0  0  0
  -28.3905  -28.3038   21.1558 C   0  0  0  0  0  0  0  0  0  0  0  0
  -22.4814   -8.6051   19.9458 C   0  0  0  0  0  0  0  0  0  0  0  0
  -23.4266   -8.3329   22.1525 C   0  0  0  0  0  0  0  0  0  0  0  0
  -28.6558  -26.9427   21.3003 C   0  0  0  0  0  0  0  0  0  0  0  0
  -20.3002   -7.2712   22.8729 C   0  0  0  0  0  0  0  0  0  0  0  0
  -19.6452   -7.0225   24.0790 C   0  0  0  0  0  0  0  0  0  0  0  0
  -26.4040  -26.4356   20.5992 C   0  0  0  0  0  0  0  0  0  0  0  0
  -30.2616  -19.0423   20.9381 C   0  0  0  0  0  0  0  0  0  0  0  0
  -27.9875  -19.6058   22.4526 C   0  0  0  0  0  0  0  0  0  0  0  0
  -21.0327   -5.0763   24.4312 C   0  0  0  0  0  0  0  0  0  0  0  0
  -23.9527  -10.2964   20.8468 C   0  0  0  0  0  0  0  0  0  0  0  0
  -24.1644  -12.8289   21.0694 C   0  0  0  0  0  0  0  0  0  0  0  0
  -24.8749  -34.2439   25.0489 C   0  0  0  0  0  0  0  0  0  0  0  0
  -27.1245  -28.7422   20.7417 C   0  0  0  0  0  0  0  0  0  0  0  0
  -25.3547  -32.9474   24.7820 C   0  0  0  0  0  0  0  0  0  0  0  0
  -26.1260  -27.8027   20.4478 C   0  0  0  0  0  0  0  0  0  0  0  0
  -29.8625  -18.1678   21.9489 C   0  0  0  0  0  0  0  0  0  0  0  0
  -28.3867  -20.4803   21.4419 C   0  0  0  0  0  0  0  0  0  0  0  0
  -22.6211   -7.8599   21.1166 C   0  0  0  0  0  0  0  0  0  0  0  0
  -27.6616  -26.0085   21.0247 C   0  0  0  0  0  0  0  0  0  0  0  0
  -21.3215   -6.4225   22.4459 C   0  0  0  0  0  0  0  0  0  0  0  0
  -20.0114   -5.9251   24.8582 C   0  0  0  0  0  0  0  0  0  0  0  0
  -21.6878   -5.3250   23.2251 C   0  0  0  0  0  0  0  0  0  0  0  0
  -29.5237  -20.1986   20.6847 C   0  0  0  0  0  0  0  0  0  0  0  0
  -28.7255  -18.4496   22.7061 C   0  0  0  0  0  0  0  0  0  0  0  0
  -24.6411  -11.5545   20.7078 C   0  0  0  0  0  0  0  0  0  0  0  0
  -25.1865  -13.6845   20.7380 C   0  0  0  0  0  0  0  0  0  0  0  0
  -26.9550  -22.0004   20.0107 C   0  0  0  0  0  0  0  0  0  0  0  0
  -22.9100  -13.2055   21.6527 C   0  0  0  0  0  0  0  0  0  0  0  0
  -24.8379  -30.5334   22.0327 C   0  0  0  0  0  0  0  0  0  0  0  0
  -23.4728  -30.2097   19.1080 C   0  0  0  0  0  0  0  0  0  0  0  0
  -23.1903  -28.4031   16.2265 C   0  0  0  0  0  0  0  0  0  0  0  0
  -30.6131  -14.9848   20.6610 C   0  0  0  0  0  0  0  0  0  0  0  0
  -23.4605  -34.6500   24.7187 C   0  0  0  0  0  0  0  0  0  0  0  0
  -26.8625  -30.2128   20.5651 C   0  0  0  0  0  0  0  0  0  0  0  0
  -24.7566  -28.2208   19.9806 C   0  0  0  0  0  0  0  0  0  0  0  0
  -26.1781  -23.2726   20.2681 C   0  0  0  0  0  0  0  0  0  0  0  0
  -22.7801  -33.7245   23.7133 C   0  0  0  0  0  0  0  0  0  0  0  0
  -29.3958  -12.8985   18.0453 C   0  0  0  0  0  0  0  0  0  0  0  0
  -23.0089  -32.2646   24.0918 C   0  0  0  0  0  0  0  0  0  0  0  0
  -28.0143  -12.4633   18.5374 C   0  0  0  0  0  0  0  0  0  0  0  0
  -30.3975  -13.0009   19.1934 C   0  0  0  0  0  0  0  0  0  0  0  0
  -28.5844  -13.4169   20.8100 C   0  0  0  0  0  0  0  0  0  0  0  0
  -27.3407  -22.6232   22.2562 C   0  0  0  0  0  0  0  0  0  0  0  0
  -24.5024  -31.9174   24.0731 C   0  0  1  0  0  0  0  0  0  0  0  0
  -25.3804  -30.5679   20.6319 C   0  0  1  0  0  0  0  0  0  0  0  0
  -27.5256  -13.3536   19.6958 C   0  0  2  0  0  0  0  0  0  0  0  0
  -26.8216  -23.8422   21.5192 C   0  0  1  0  0  0  0  0  0  1  0  0
  -21.9671  -28.3675   14.0357 C   0  0  0  0  0  0  0  0  0  0  0  0
  -20.9633  -29.2117   20.5280 C   0  0  0  0  0  0  0  0  0  0  0  0
  -20.1616  -28.3154   18.3321 C   0  0  0  0  0  0  0  0  0  0  0  0
  -20.5321  -30.7658   18.6166 C   0  0  0  0  0  0  0  0  0  0  0  0
  -25.7078  -28.6148   14.6851 C   0  0  0  0  0  0  0  0  0  0  0  0
  -30.6797  -16.9396   22.1886 C   0  0  0  0  0  0  0  0  0  0  0  0
  -22.5269  -29.2190   18.4734 C   0  0  1  0  0  0  0  0  0  0  0  0
  -23.2201  -28.8222   14.7678 C   0  0  2  0  0  0  0  0  0  0  0  0
  -21.0711  -29.3699   18.9982 C   0  0  0  0  0  0  0  0  0  0  0  0
  -25.8702  -11.5926   20.1865 N   0  0  0  0  0  0  0  0  0  0  0  0
  -26.1745  -12.9012   20.2180 N   0  0  0  0  0  0  0  0  0  0  0  0
  -27.6088  -21.6542   21.2074 N   0  0  0  0  0  0  0  0  0  0  0  0
  -24.5473  -29.6702   19.8292 N   0  0  0  0  0  0  0  0  0  0  0  0
  -29.8742  -13.8603   20.2581 N   0  0  0  0  0  0  0  0  0  0  0  0
  -25.3274  -15.0229   20.8435 N   0  0  0  0  0  0  0  0  0  0  0  0
  -21.9732  -12.2004   21.9292 N   0  0  0  0  0  0  0  0  0  0  0  0
  -24.9607  -31.7298   22.7132 N   0  0  0  0  0  0  0  0  0  0  0  0
  -22.6630  -29.3909   17.0311 N   0  0  0  0  0  0  0  0  0  0  0  0
  -30.0425  -15.7491   21.6714 N   0  0  0  0  0  0  0  0  0  0  0  0
  -24.4048  -28.2316   14.0833 N   0  3  0  0  0  0  0  0  0  0  0  0
  -26.9134  -21.4140   18.9386 O   0  0  0  0  0  0  0  0  0  0  0  0
  -22.6218  -14.3998   21.9056 O   0  0  0  0  0  0  0  0  0  0  0  0
  -24.3432  -29.4984   22.4638 O   0  0  0  0  0  0  0  0  0  0  0  0
  -23.2700  -31.4178   18.9629 O   0  0  0  0  0  0  0  0  0  0  0  0
  -23.5909  -27.3074   16.6131 O   0  0  0  0  0  0  0  0  0  0  0  0
  -31.6983  -15.2885   20.1538 O   0  0  0  0  0  0  0  0  0  0  0  0
  -21.9714   -6.6712   21.2487 O   0  0  0  0  0  0  0  0  0  0  0  0
  -27.9177  -24.6794   21.1656 O   0  0  0  0  0  0  0  0  0  1  0  0
  -19.3833   -5.6872   26.0171 F   0  0  0  0  0  0  0  0  0  0  0  0
  -22.6690   -4.5067   22.8207 F   0  0  0  0  0  0  0  0  0  0  0  0
  -30.0533  -21.2547   19.4243 Cl  0  0  0  0  0  0  0  0  0  0  0  0
  -28.2028  -17.3909   23.9654 Cl  0  0  0  0  0  0  0  0  0  0  0  0
  1  2  1  0  0  0  0
  1  5  2  0  0  0  0
  2  6  2  0  0  0  0
  3  8  2  0  0  0  0
  3 17  1  0  0  0  0
  4  9  1  0  0  0  0
  4 17  2  0  0  0  0
  5 19  1  0  0  0  0
  6 21  1  0  0  0  0
  7 10  2  0  0  0  0
  7 20  1  0  0  0  0
  8 25  1  0  0  0  0
  9 25  2  0  0  0  0
 10 26  1  0  0  0  0
 11 12  2  0  0  0  0
 11 27  1  0  0  0  0
 12 28  1  0  0  0  0
 13 22  1  0  0  0  0
 13 26  2  0  0  0  0
 14 23  2  0  0  0  0
 14 30  1  0  0  0  0
 15 24  1  0  0  0  0
 15 31  2  0  0  0  0
 16 28  2  0  0  0  0
 16 29  1  0  0  0  0
 17 32  1  0  0  0  0
 18 32  1  0  0  0  0
 18 33  2  0  0  0  0
 18 35  1  0  0  0  0
 19 21  2  0  0  0  0
 19 40  1  0  0  0  0
 20 22  2  0  0  0  0
 20 41  1  0  0  0  0
 21 51  1  0  0  0  0
 22 42  1  0  0  0  0
 23 31  1  0  0  0  0
 23 60  1  0  0  0  0
 24 30  2  0  0  0  0
 24 66  1  0  0  0  0
 25 81  1  0  0  0  0
 26 82  1  0  0  0  0
 27 29  2  0  0  0  0
 27 81  1  0  0  0  0
 28 83  1  0  0  0  0
 29 84  1  0  0  0  0
 30 85  1  0  0  0  0
 31 86  1  0  0  0  0
 32 64  2  0  0  0  0
 33 65  1  0  0  0  0
 33 69  1  0  0  0  0
 34 43  1  0  0  0  0
 34 66  1  0  0  0  0
 34 75  2  0  0  0  0
 35 70  1  0  0  0  0
 35 76  2  0  0  0  0
 36 52  1  0  0  0  0
 36 71  1  0  0  0  0
 36 77  2  0  0  0  0
 37 61  1  0  0  0  0
 37 67  1  0  0  0  0
 37 78  2  0  0  0  0
 38 62  1  0  0  0  0
 38 72  1  0  0  0  0
 38 79  2  0  0  0  0
 39 68  1  0  0  0  0
 39 73  1  0  0  0  0
 39 80  2  0  0  0  0
 40 44  1  0  0  0  0
 41 52  1  0  0  0  0
 42 67  1  0  0  0  0
 43 54  1  0  0  0  0
 44 46  1  0  0  0  0
 45 47  1  0  0  0  0
 45 48  1  0  0  0  0
 46 51  1  0  0  0  0
 47 53  1  0  0  0  0
 48 68  1  0  0  0  0
 49 53  1  0  0  0  0
 49 68  1  0  0  0  0
 50 54  1  0  0  0  0
 50 66  1  0  0  0  0
 51 71  1  0  0  0  0
 52 67  1  0  0  0  0
 53 65  1  0  0  0  0
 54 82  1  0  0  0  0
 55 62  1  0  0  0  0
 56 63  1  0  0  0  0
 57 63  1  0  0  0  0
 58 63  1  0  0  0  0
 59 74  1  0  0  0  0
 60 73  1  0  0  0  0
 61 63  1  0  0  0  0
 61 72  1  0  0  0  0
 62 74  1  0  0  0  0
 64 65  1  0  0  0  0
M  CHG  1  74   1
M  ISO  4  39 100  54 101  73 100  82 101
M  END
> <Batch ID>
0032

> <Smiles>
CNC(C)C(=O)NC(C(=O)N1Cc2cc([101O:1][101CH:1]3CC(=O)N(c4cc(Cl)c(C[100NH:0][100C:0](=O)N5CCCC(n6nc(-c7ccc(Oc8ccc(F)cc8F)cc7)c(C(N)=O)c6N)C5)cc4Cl)C3)ccc2CC1C(=O)NC1CCCc2ccccc21)C(C)(C)C

> <Shape>
0.355

> <Color>
0.175

> <Negative vol penalty>
0.000

$$$$

  -OEChem-04042321423D

 87 96  0     1  0  0  0  0  0999 V2000
  -25.9477  -22.5283   40.8426 C   0  0  0  0  0  0  0  0  0  0  0  0
  -25.5675  -21.5895   39.8890 C   0  0  0  0  0  0  0  0  0  0  0  0
  -22.6669  -10.1986   20.1659 C   0  0  0  0  0  0  0  0  0  0  0  0
  -24.3244   -9.4115   21.7376 C   0  0  0  0  0  0  0  0  0  0  0  0
  -25.6663  -23.8789   40.6405 C   0  0  0  0  0  0  0  0  0  0  0  0
  -24.9046  -22.0006   38.7331 C   0  0  0  0  0  0  0  0  0  0  0  0
  -27.6423  -20.6481   32.2087 C   0  0  0  0  0  0  0  0  0  0  0  0
  -21.9327   -9.0276   20.3537 C   0  0  0  0  0  0  0  0  0  0  0  0
  -23.5902   -8.2405   21.9255 C   0  0  0  0  0  0  0  0  0  0  0  0
  -27.9949  -20.2429   30.9212 C   0  0  0  0  0  0  0  0  0  0  0  0
  -20.8482   -7.2707   23.6464 C   0  0  0  0  0  0  0  0  0  0  0  0
  -20.6678   -6.8237   24.9553 C   0  0  0  0  0  0  0  0  0  0  0  0
  -26.1267  -21.4782   30.0092 C   0  0  0  0  0  0  0  0  0  0  0  0
  -29.4189  -18.7464   22.5277 C   0  0  0  0  0  0  0  0  0  0  0  0
  -21.7888   -4.7558   24.4036 C   0  0  0  0  0  0  0  0  0  0  0  0
  -23.8628  -10.3906   20.8578 C   0  0  0  0  0  0  0  0  0  0  0  0
  -24.1971  -12.9190   20.9105 C   0  0  0  0  0  0  0  0  0  0  0  0
  -25.0083  -24.3078   39.4770 C   0  0  0  0  0  0  0  0  0  0  0  0
  -26.5382  -21.4835   32.4001 C   0  0  0  0  0  0  0  0  0  0  0  0
  -24.6130  -23.3579   38.5158 C   0  0  0  0  0  0  0  0  0  0  0  0
  -25.7760  -21.8975   31.2953 C   0  0  0  0  0  0  0  0  0  0  0  0
  -30.0188  -17.5754   22.9907 C   0  0  0  0  0  0  0  0  0  0  0  0
  -28.6267  -19.5103   23.3849 C   0  0  0  0  0  0  0  0  0  0  0  0
  -29.8265  -17.1682   24.3109 C   0  0  0  0  0  0  0  0  0  0  0  0
  -29.0344  -17.9319   25.1681 C   0  0  0  0  0  0  0  0  0  0  0  0
  -28.4344  -19.1030   24.7051 C   0  0  0  0  0  0  0  0  0  0  0  0
  -22.3943   -8.0485   21.2335 C   0  0  0  0  0  0  0  0  0  0  0  0
  -27.2388  -20.6567   29.8243 C   0  0  0  0  0  0  0  0  0  0  0  0
  -21.4990   -6.4603   22.7161 C   0  0  0  0  0  0  0  0  0  0  0  0
  -21.1381   -5.5663   25.3339 C   0  0  0  0  0  0  0  0  0  0  0  0
  -21.9693   -5.2029   23.0947 C   0  0  0  0  0  0  0  0  0  0  0  0
  -24.6219  -11.5998   20.6638 C   0  0  0  0  0  0  0  0  0  0  0  0
  -25.2766  -13.6968   20.5696 C   0  0  0  0  0  0  0  0  0  0  0  0
  -26.2686  -19.7953   25.8088 C   0  0  0  0  0  0  0  0  0  0  0  0
  -25.3042  -19.0739   25.2197 C   0  0  0  0  0  0  0  0  0  0  0  0
  -22.9391  -13.3986   21.4037 C   0  0  0  0  0  0  0  0  0  0  0  0
  -24.3926  -23.3755   34.8275 C   0  0  0  0  0  0  0  0  0  0  0  0
  -24.7469  -25.1699   32.3648 C   0  0  0  0  0  0  0  0  0  0  0  0
  -25.7258  -26.9990   29.6568 C   0  0  0  0  0  0  0  0  0  0  0  0
  -30.7620  -14.7197   20.6659 C   0  0  0  0  0  0  0  0  0  0  0  0
  -24.6838  -25.7728   39.3248 C   0  0  0  0  0  0  0  0  0  0  0  0
  -26.0853  -21.8946   33.7747 C   0  0  0  0  0  0  0  0  0  0  0  0
  -24.5761  -22.7677   31.5522 C   0  0  0  0  0  0  0  0  0  0  0  0
  -25.9152  -20.7854   26.9020 C   0  0  0  0  0  0  0  0  0  0  0  0
  -24.3111  -26.1691   37.8985 C   0  0  0  0  0  0  0  0  0  0  0  0
  -29.5562  -12.5096   18.1483 C   0  0  0  0  0  0  0  0  0  0  0  0
  -23.3126  -25.1761   37.3121 C   0  0  0  0  0  0  0  0  0  0  0  0
  -28.1329  -12.1801   18.6020 C   0  0  0  0  0  0  0  0  0  0  0  0
  -30.5089  -12.6465   19.3338 C   0  0  0  0  0  0  0  0  0  0  0  0
  -28.6490  -13.2685   20.8263 C   0  0  0  0  0  0  0  0  0  0  0  0
  -28.2754  -20.9317   26.3608 C   0  0  0  0  0  0  0  0  0  0  0  0
  -23.9143  -23.7676   37.2375 C   0  0  1  0  0  0  0  0  0  0  0  0
  -25.5001  -23.3176   33.8168 C   0  0  1  0  0  0  0  0  0  0  0  0
  -27.6398  -13.1759   19.6690 C   0  0  2  0  0  0  0  0  0  0  0  0
  -27.2758  -21.1464   27.4991 C   0  0  2  0  0  0  0  0  0  1  0  0
  -27.9973  -20.7600   22.8603 C   0  0  0  0  0  0  0  0  0  0  0  0
  -30.4713  -15.9115   24.8041 C   0  0  0  0  0  0  0  0  0  0  0  0
  -28.8302  -17.4912   26.5840 C   0  0  0  0  0  0  0  0  0  0  0  0
  -25.4341  -29.2526   28.5921 C   0  0  0  0  0  0  0  0  0  0  0  0
  -21.9746  -24.3482   31.3937 C   0  0  0  0  0  0  0  0  0  0  0  0
  -22.1416  -26.1237   29.6365 C   0  0  0  0  0  0  0  0  0  0  0  0
  -22.1802  -26.7526   32.0501 C   0  0  0  0  0  0  0  0  0  0  0  0
  -28.6149  -27.6038   29.8727 C   0  0  0  0  0  0  0  0  0  0  0  0
  -30.8621  -16.7755   22.0525 C   0  0  0  0  0  0  0  0  0  0  0  0
  -24.1957  -25.6142   31.0335 C   0  0  1  0  0  0  0  0  0  0  0  0
  -26.2744  -28.4095   29.5386 C   0  0  2  0  0  0  0  0  0  0  0  0
  -22.6427  -25.6892   31.0303 C   0  0  0  0  0  0  0  0  0  0  0  0
  -25.8737  -11.5390   20.2018 N   0  0  0  0  0  0  0  0  0  0  0  0
  -26.2446  -12.8299   20.1553 N   0  0  0  0  0  0  0  0  0  0  0  0
  -27.6346  -19.8745   25.5680 N   0  0  0  0  0  0  0  0  0  0  0  0
  -24.9041  -23.7919   32.5562 N   0  0  0  0  0  0  0  0  0  0  0  0
  -29.9839  -13.6063   20.3081 N   0  0  0  0  0  0  0  0  0  0  0  0
  -25.4827  -15.0308   20.5867 N   0  0  0  0  0  0  0  0  0  0  0  0
  -22.7752  -13.5422   22.7882 N   0  0  0  0  0  0  0  0  0  0  0  0
  -24.8166  -23.6625   36.1109 N   0  0  0  0  0  0  0  0  0  0  0  0
  -24.8556  -26.8768   30.7194 N   0  0  0  0  0  0  0  0  0  0  0  0
  -30.1873  -15.5831   21.5905 N   0  0  0  0  0  0  0  0  0  0  0  0
  -27.6733  -28.3800   29.0254 N   0  3  0  0  0  0  0  0  0  0  0  0
  -21.9831  -13.6755   20.6402 O   0  0  0  0  0  0  0  0  0  0  0  0
  -23.2375  -23.1761   34.4701 O   0  0  0  0  0  0  0  0  0  0  0  0
  -25.0260  -26.0192   33.2158 O   0  0  0  0  0  0  0  0  0  0  0  0
  -26.0352  -26.0968   28.8816 O   0  0  0  0  0  0  0  0  0  0  0  0
  -31.8834  -14.9316   20.1921 O   0  0  0  0  0  0  0  0  0  0  0  0
  -21.6781   -6.9058   21.4172 O   0  0  0  0  0  0  0  0  0  0  0  0
  -27.5913  -20.2611   28.5697 O   0  0  0  0  0  0  0  0  0  1  0  0
  -20.9661   -5.1378   26.5913 F   0  0  0  0  0  0  0  0  0  0  0  0
  -22.5962   -4.4203   22.2057 F   0  0  0  0  0  0  0  0  0  0  0  0
  1  2  1  0  0  0  0
  1  5  2  0  0  0  0
  2  6  2  0  0  0  0
  3  8  2  0  0  0  0
  3 16  1  0  0  0  0
  4  9  1  0  0  0  0
  4 16  2  0  0  0  0
  5 18  1  0  0  0  0
  6 20  1  0  0  0  0
  7 10  2  0  0  0  0
  7 19  1  0  0  0  0
  8 27  1  0  0  0  0
  9 27  2  0  0  0  0
 10 28  1  0  0  0  0
 11 12  2  0  0  0  0
 11 29  1  0  0  0  0
 12 30  1  0  0  0  0
 13 21  1  0  0  0  0
 13 28  2  0  0  0  0
 14 22  1  0  0  0  0
 14 23  2  0  0  0  0
 15 30  2  0  0  0  0
 15 31  1  0  0  0  0
 16 32  1  0  0  0  0
 17 32  1  0  0  0  0
 17 33  2  0  0  0  0
 17 36  1  0  0  0  0
 18 20  2  0  0  0  0
 18 41  1  0  0  0  0
 19 21  2  0  0  0  0
 19 42  1  0  0  0  0
 20 52  1  0  0  0  0
 21 43  1  0  0  0  0
 22 24  2  0  0  0  0
 22 64  1  0  0  0  0
 23 26  1  0  0  0  0
 23 56  1  0  0  0  0
 24 25  1  0  0  0  0
 24 57  1  0  0  0  0
 25 26  2  0  0  0  0
 25 58  1  0  0  0  0
 26 70  1  0  0  0  0
 27 84  1  0  0  0  0
 28 85  1  0  0  0  0
 29 31  2  0  0  0  0
 29 84  1  0  0  0  0
 30 86  1  0  0  0  0
 31 87  1  0  0  0  0
 32 68  2  0  0  0  0
 33 69  1  0  0  0  0
 33 73  1  0  0  0  0
 34 35  2  0  0  0  0
 34 44  1  0  0  0  0
 34 70  1  0  0  0  0
 36 74  1  0  0  0  0
 36 79  2  0  0  0  0
 37 53  1  0  0  0  0
 37 75  1  0  0  0  0
 37 80  2  0  0  0  0
 38 65  1  0  0  0  0
 38 71  1  0  0  0  0
 38 81  2  0  0  0  0
 39 66  1  0  0  0  0
 39 76  1  0  0  0  0
 39 82  2  0  0  0  0
 40 72  1  0  0  0  0
 40 77  1  0  0  0  0
 40 83  2  0  0  0  0
 41 45  1  0  0  0  0
 42 53  1  0  0  0  0
 43 71  1  0  0  0  0
 44 55  1  0  0  0  0
 45 47  1  0  0  0  0
 46 48  1  0  0  0  0
 46 49  1  0  0  0  0
 47 52  1  0  0  0  0
 48 54  1  0  0  0  0
 49 72  1  0  0  0  0
 50 54  1  0  0  0  0
 50 72  1  0  0  0  0
 51 55  1  0  0  0  0
 51 70  1  0  0  0  0
 52 75  1  0  0  0  0
 53 71  1  0  0  0  0
 54 69  1  0  0  0  0
 55 85  1  0  0  0  0
 59 66  1  0  0  0  0
 60 67  1  0  0  0  0
 61 67  1  0  0  0  0
 62 67  1  0  0  0  0
 63 78  1  0  0  0  0
 64 77  1  0  0  0  0
 65 67  1  0  0  0  0
 65 76  1  0  0  0  0
 66 78  1  0  0  0  0
 68 69  1  0  0  0  0
M  CHG  1  78   1
M  ISO  4  40 100  55 101  77 100  85 101
M  END
> <Batch ID>
0032

> <Smiles>
C=C1C[101CH:1]([101O:1]c2ccc3c(c2)CN(C(=O)C(NC(=O)C(C)NC)C(C)(C)C)C(C(=O)NC2CCCc4ccccc42)C3)CN1c1c(C)cc(C[100NH:0][100C:0](=O)N2CCCC(n3nc(-c4ccc(Oc5ccc(F)cc5F)cc4)c(C(N)=O)c3N)C2)c(C)c1C

> <Shape>
0.183

> <Color>
0.183

> <Negative vol penalty>
0.000

$$$$

  -OEChem-04042321423D

 82 90  0     1  0  0  0  0  0999 V2000
  -15.7123  -29.3162   23.6993 C   0  0  0  0  0  0  0  0  0  0  0  0
  -16.5599  -28.3989   23.0865 C   0  0  0  0  0  0  0  0  0  0  0  0
  -24.6712   -9.0612   21.6702 C   0  0  0  0  0  0  0  0  0  0  0  0
  -23.7675  -10.8343   23.0401 C   0  0  0  0  0  0  0  0  0  0  0  0
  -16.0401  -30.6714   23.7041 C   0  0  0  0  0  0  0  0  0  0  0  0
  -17.7353  -28.8364   22.4771 C   0  0  0  0  0  0  0  0  0  0  0  0
  -23.0799  -25.8570   22.2233 C   0  0  0  0  0  0  0  0  0  0  0  0
  -24.1703   -8.1151   22.5643 C   0  0  0  0  0  0  0  0  0  0  0  0
  -23.2665   -9.8881   23.9342 C   0  0  0  0  0  0  0  0  0  0  0  0
  -23.6719  -25.0754   21.2322 C   0  0  0  0  0  0  0  0  0  0  0  0
  -21.1909   -6.6732   23.2552 C   0  0  0  0  0  0  0  0  0  0  0  0
  -20.5362   -5.5621   22.7238 C   0  0  0  0  0  0  0  0  0  0  0  0
  -24.9142  -26.9967   20.4675 C   0  0  0  0  0  0  0  0  0  0  0  0
  -28.4498  -19.7759   19.6826 C   0  0  0  0  0  0  0  0  0  0  0  0
  -26.2879  -19.2117   18.7634 C   0  0  0  0  0  0  0  0  0  0  0  0
  -22.1601   -4.1073   23.7649 C   0  0  0  0  0  0  0  0  0  0  0  0
  -24.4699  -10.4209   21.9081 C   0  0  0  0  0  0  0  0  0  0  0  0
  -26.9098  -21.5281   19.0544 C   0  0  0  0  0  0  0  0  0  0  0  0
  -24.3339  -11.9353   19.8598 C   0  0  0  0  0  0  0  0  0  0  0  0
  -17.2249  -31.1245   23.1028 C   0  0  0  0  0  0  0  0  0  0  0  0
  -23.3929  -27.2192   22.3373 C   0  0  0  0  0  0  0  0  0  0  0  0
  -18.0786  -30.1990   22.4726 C   0  0  0  0  0  0  0  0  0  0  0  0
  -24.3267  -27.7928   21.4626 C   0  0  0  0  0  0  0  0  0  0  0  0
  -28.1438  -21.1321   19.5702 C   0  0  0  0  0  0  0  0  0  0  0  0
  -27.5219  -18.8157   19.2792 C   0  0  0  0  0  0  0  0  0  0  0  0
  -23.4679   -8.5285   23.6963 C   0  0  0  0  0  0  0  0  0  0  0  0
  -24.5870  -25.6458   20.3523 C   0  0  0  0  0  0  0  0  0  0  0  0
  -22.3303   -6.5014   24.0414 C   0  0  0  0  0  0  0  0  0  0  0  0
  -21.0207   -4.2792   22.9787 C   0  0  0  0  0  0  0  0  0  0  0  0
  -25.9818  -20.5680   18.6510 C   0  0  0  0  0  0  0  0  0  0  0  0
  -22.8148   -5.2185   24.2963 C   0  0  0  0  0  0  0  0  0  0  0  0
  -24.9876  -11.3987   20.9852 C   0  0  0  0  0  0  0  0  0  0  0  0
  -25.2417  -12.8146   19.3221 C   0  0  0  0  0  0  0  0  0  0  0  0
  -26.5608  -22.9721   18.9241 C   0  0  0  0  0  0  0  0  0  0  0  0
  -23.0231  -11.6632   19.3464 C   0  0  0  0  0  0  0  0  0  0  0  0
  -21.7448  -29.9269   22.1011 C   0  0  0  0  0  0  0  0  0  0  0  0
  -24.5404  -31.2572   23.0691 C   0  0  0  0  0  0  0  0  0  0  0  0
  -27.9364  -31.0143   23.3037 C   0  0  0  0  0  0  0  0  0  0  0  0
  -29.0103  -16.8749   19.8829 C   0  0  0  0  0  0  0  0  0  0  0  0
  -17.5134  -32.6048   23.0920 C   0  0  0  0  0  0  0  0  0  0  0  0
  -22.7658  -28.0425   23.4288 C   0  0  0  0  0  0  0  0  0  0  0  0
  -24.7121  -29.2458   21.5557 C   0  0  0  0  0  0  0  0  0  0  0  0
  -18.9630  -32.9404   22.7509 C   0  0  0  0  0  0  0  0  0  0  0  0
  -30.1435  -13.5335   20.3601 C   0  0  0  0  0  0  0  0  0  0  0  0
  -19.4258  -32.1379   21.5391 C   0  0  0  0  0  0  0  0  0  0  0  0
  -28.8494  -12.7244   20.4727 C   0  0  0  0  0  0  0  0  0  0  0  0
  -30.0136  -14.9057   21.0189 C   0  0  0  0  0  0  0  0  0  0  0  0
  -27.5735  -14.8960   20.6799 C   0  0  0  0  0  0  0  0  0  0  0  0
  -19.3749  -30.6317   21.8226 C   0  0  1  0  0  0  0  0  0  0  0  0
  -22.7712  -29.5379   23.1273 C   0  0  1  0  0  0  0  0  0  0  0  0
  -27.6348  -13.5316   19.9740 C   0  0  2  0  0  0  0  0  0  0  0  0
  -29.1559  -22.1391   20.0102 C   0  0  0  0  0  0  0  0  0  0  0  0
  -29.9505  -32.2754   24.1101 C   0  0  0  0  0  0  0  0  0  0  0  0
  -24.3743  -33.0791   20.6272 C   0  0  0  0  0  0  0  0  0  0  0  0
  -26.7973  -33.6194   20.9522 C   0  0  0  0  0  0  0  0  0  0  0  0
  -25.1413  -34.2096   22.7220 C   0  0  0  0  0  0  0  0  0  0  0  0
  -28.6364  -28.8883   25.2399 C   0  0  0  0  0  0  0  0  0  0  0  0
  -25.3505  -23.4995   19.6694 C   0  0  0  0  0  0  0  0  0  1  0  0
  -25.7706  -31.7860   22.3720 C   0  0  1  0  0  0  0  0  0  0  0  0
  -28.8853  -31.2497   24.4650 C   0  0  2  0  0  0  0  0  0  0  0  0
  -25.5124  -33.1466   21.6651 C   0  0  0  0  0  0  0  0  0  0  0  0
  -26.2160  -11.8955   21.1535 N   0  0  0  0  0  0  0  0  0  0  0  0
  -26.3414  -12.7534   20.1266 N   0  0  0  0  0  0  0  0  0  0  0  0
  -24.0669  -30.0107   22.6356 N   0  0  0  0  0  0  0  0  0  0  0  0
  -28.8441  -15.6142   20.4943 N   0  0  0  0  0  0  0  0  0  0  0  0
  -25.1987  -13.6263   18.2443 N   0  0  0  0  0  0  0  0  0  0  0  0
  -22.2213  -10.7324   20.0209 N   0  0  0  0  0  0  0  0  0  0  0  0
  -27.8323  -17.4378   19.3929 N   0  0  0  0  0  0  0  0  0  0  0  0
  -20.5058  -30.2313   22.6320 N   0  0  0  0  0  0  0  0  0  0  0  0
  -26.8250  -31.8268   23.3795 N   0  0  0  0  0  0  0  0  0  0  0  0
  -29.5646  -29.9788   24.8447 N   0  3  0  0  0  0  0  0  0  0  0  0
  -27.2551  -23.7031   18.2215 O   0  0  0  0  0  0  0  0  0  0  0  0
  -22.5824  -12.2167   18.3105 O   0  0  0  0  0  0  0  0  0  0  0  0
  -22.0544  -29.9505   20.9157 O   0  0  0  0  0  0  0  0  0  0  0  0
  -24.0230  -31.9221   23.9701 O   0  0  0  0  0  0  0  0  0  0  0  0
  -28.1607  -30.1945   22.4159 O   0  0  0  0  0  0  0  0  0  0  0  0
  -30.1201  -17.4030   19.7759 O   0  0  0  0  0  0  0  0  0  0  0  0
  -22.9787   -7.6055   24.5688 O   0  0  0  0  0  0  0  0  0  0  0  0
  -25.1659  -24.8853   19.3835 O   0  0  0  0  0  0  0  0  0  1  0  0
  -20.3910   -3.2122   22.4696 F   0  0  0  0  0  0  0  0  0  0  0  0
  -24.7925  -20.9359   18.1533 F   0  0  0  0  0  0  0  0  0  0  0  0
  -23.9082   -5.0471   25.0518 F   0  0  0  0  0  0  0  0  0  0  0  0
  1  2  1  0  0  0  0
  1  5  2  0  0  0  0
  2  6  2  0  0  0  0
  3  8  2  0  0  0  0
  3 17  1  0  0  0  0
  4  9  1  0  0  0  0
  4 17  2  0  0  0  0
  5 20  1  0  0  0  0
  6 22  1  0  0  0  0
  7 10  2  0  0  0  0
  7 21  1  0  0  0  0
  8 26  1  0  0  0  0
  9 26  2  0  0  0  0
 10 27  1  0  0  0  0
 11 12  2  0  0  0  0
 11 28  1  0  0  0  0
 12 29  1  0  0  0  0
 13 23  1  0  0  0  0
 13 27  2  0  0  0  0
 14 24  2  0  0  0  0
 14 25  1  0  0  0  0
 15 25  2  0  0  0  0
 15 30  1  0  0  0  0
 16 29  2  0  0  0  0
 16 31  1  0  0  0  0
 17 32  1  0  0  0  0
 18 24  1  0  0  0  0
 18 30  2  0  0  0  0
 18 34  1  0  0  0  0
 19 32  1  0  0  0  0
 19 33  2  0  0  0  0
 19 35  1  0  0  0  0
 20 22  2  0  0  0  0
 20 40  1  0  0  0  0
 21 23  2  0  0  0  0
 21 41  1  0  0  0  0
 22 49  1  0  0  0  0
 23 42  1  0  0  0  0
 24 52  1  0  0  0  0
 25 68  1  0  0  0  0
 26 78  1  0  0  0  0
 27 79  1  0  0  0  0
 28 31  2  0  0  0  0
 28 78  1  0  0  0  0
 29 80  1  0  0  0  0
 30 81  1  0  0  0  0
 31 82  1  0  0  0  0
 32 62  2  0  0  0  0
 33 63  1  0  0  0  0
 33 66  1  0  0  0  0
 34 58  1  0  0  0  0
 34 72  2  0  0  0  0
 35 67  1  0  0  0  0
 35 73  2  0  0  0  0
 36 50  1  0  0  0  0
 36 69  1  0  0  0  0
 36 74  2  0  0  0  0
 37 59  1  0  0  0  0
 37 64  1  0  0  0  0
 37 75  2  0  0  0  0
 38 60  1  0  0  0  0
 38 70  1  0  0  0  0
 38 76  2  0  0  0  0
 39 65  1  0  0  0  0
 39 68  1  0  0  0  0
 39 77  2  0  0  0  0
 40 43  1  0  0  0  0
 41 50  1  0  0  0  0
 42 64  1  0  0  0  0
 43 45  1  0  0  0  0
 44 46  1  0  0  0  0
 44 47  1  0  0  0  0
 45 49  1  0  0  0  0
 46 51  1  0  0  0  0
 47 65  1  0  0  0  0
 48 51  1  0  0  0  0
 48 65  1  0  0  0  0
 49 69  1  0  0  0  0
 50 64  1  0  0  0  0
 51 63  1  0  0  0  0
 53 60  1  0  0  0  0
 54 61  1  0  0  0  0
 55 61  1  0  0  0  0
 56 61  1  0  0  0  0
 57 71  1  0  0  0  0
 58 79  1  0  0  0  0
 59 61  1  0  0  0  0
 59 70  1  0  0  0  0
 60 71  1  0  0  0  0
 62 63  1  0  0  0  0
M  CHG  1  71   1
M  ISO  4  39 100  58 101  68 100  79 101
M  END
> <Batch ID>
0032

> <Smiles>
CNC(C)C(=O)NC(C(=O)N1Cc2cc([101O:1][101CH2:1]C(=O)c3c(C)cc([100NH:0][100C:0](=O)N4CCCC(n5nc(-c6ccc(Oc7ccc(F)cc7F)cc6)c(C(N)=O)c5N)C4)cc3F)ccc2CC1C(=O)NC1CCCc2ccccc21)C(C)(C)C

> <Shape>
0.282

> <Color>
0.088

> <Negative vol penalty>
0.000

$$$$

  -OEChem-04042321423D

 92101  0     1  0  0  0  0  0999 V2000
  -22.9101  -19.9732   18.2286 C   0  0  0  0  0  0  0  0  0  0  0  0
  -22.8614  -20.7051   19.4097 C   0  0  0  0  0  0  0  0  0  0  0  0
  -25.7787  -14.1590   21.6225 C   0  0  0  0  0  0  0  0  0  0  0  0
  -24.4628  -15.2823   19.9362 C   0  0  0  0  0  0  0  0  0  0  0  0
  -22.5043  -20.5604   17.0321 C   0  0  0  0  0  0  0  0  0  0  0  0
  -22.3958  -22.0203   19.3966 C   0  0  0  0  0  0  0  0  0  0  0  0
  -22.0858  -26.1572   23.8595 C   0  0  0  0  0  0  0  0  0  0  0  0
  -24.9626  -28.4087   20.2212 C   0  0  0  0  0  0  0  0  0  0  0  0
  -24.9045  -27.1189   19.6936 C   0  0  0  0  0  0  0  0  0  0  0  0
  -24.7946  -13.1771   21.7364 C   0  0  0  0  0  0  0  0  0  0  0  0
  -23.4787  -14.3004   20.0501 C   0  0  0  0  0  0  0  0  0  0  0  0
  -22.8852  -27.1762   24.3755 C   0  0  0  0  0  0  0  0  0  0  0  0
  -23.8095  -10.4281   20.0319 C   0  0  0  0  0  0  0  0  0  0  0  0
  -24.2235   -9.0967   20.0710 C   0  0  0  0  0  0  0  0  0  0  0  0
  -21.6807  -28.7873   23.0440 C   0  0  0  0  0  0  0  0  0  0  0  0
  -27.3725  -28.2634   20.3116 C   0  0  0  0  0  0  0  0  0  0  0  0
  -23.2089   -8.8450   22.2491 C   0  0  0  0  0  0  0  0  0  0  0  0
  -25.6128  -15.2116   20.7224 C   0  0  0  0  0  0  0  0  0  0  0  0
  -27.9749  -16.0430   20.2355 C   0  0  0  0  0  0  0  0  0  0  0  0
  -22.0454  -21.8877   17.0032 C   0  0  0  0  0  0  0  0  0  0  0  0
  -21.0832  -26.4447   22.9221 C   0  0  0  0  0  0  0  0  0  0  0  0
  -21.9593  -22.6229   18.2029 C   0  0  0  0  0  0  0  0  0  0  0  0
  -20.8682  -27.7705   22.5196 C   0  0  0  0  0  0  0  0  0  0  0  0
  -26.1966  -28.9810   20.5302 C   0  0  0  0  0  0  0  0  0  0  0  0
  -26.0804  -26.4012   19.4750 C   0  0  0  0  0  0  0  0  0  0  0  0
  -23.6446  -13.2478   20.9502 C   0  0  0  0  0  0  0  0  0  0  0  0
  -22.6847  -28.4911   23.9656 C   0  0  0  0  0  0  0  0  0  0  0  0
  -23.0952  -10.9680   21.1015 C   0  0  0  0  0  0  0  0  0  0  0  0
  -23.9233   -8.3051   21.1795 C   0  0  0  0  0  0  0  0  0  0  0  0
  -22.7949  -10.1765   22.2101 C   0  0  0  0  0  0  0  0  0  0  0  0
  -27.3144  -26.9734   19.7840 C   0  0  0  0  0  0  0  0  0  0  0  0
  -26.6288  -16.2265   20.6046 C   0  0  0  0  0  0  0  0  0  0  0  0
  -28.5163  -17.3048   20.2732 C   0  0  0  0  0  0  0  0  0  0  0  0
  -26.6447  -31.7459   23.0549 C   0  0  0  0  0  0  0  0  0  0  0  0
  -30.4142  -28.1371   23.6261 C   0  0  0  0  0  0  0  0  0  0  0  0
  -27.8633  -32.2540   23.2924 C   0  0  0  0  0  0  0  0  0  0  0  0
  -30.4161  -29.4297   23.2778 C   0  0  0  0  0  0  0  0  0  0  0  0
  -29.2520  -30.2815   23.4020 C   0  0  0  0  0  0  0  0  0  0  0  0
  -28.6734  -14.8397   19.8895 C   0  0  0  0  0  0  0  0  0  0  0  0
  -29.1494  -31.5891   23.0813 C   0  0  0  0  0  0  0  0  0  0  0  0
  -20.5236  -25.6054   19.9078 C   0  0  0  0  0  0  0  0  0  0  0  0
  -17.7433  -27.2061   20.3877 C   0  0  0  0  0  0  0  0  0  0  0  0
  -16.7108  -30.2676   21.9935 C   0  0  0  0  0  0  0  0  0  0  0  0
  -26.0899  -22.6471   19.6192 C   0  0  0  0  0  0  0  0  0  0  0  0
  -21.6112  -22.4711   15.6817 C   0  0  0  0  0  0  0  0  0  0  0  0
  -20.2117  -25.3378   22.3952 C   0  0  0  0  0  0  0  0  0  0  0  0
  -19.7919  -28.1345   21.5309 C   0  0  0  0  0  0  0  0  0  0  0  0
  -25.3738  -32.5114   23.3053 C   0  0  0  0  0  0  0  0  0  0  0  0
  -21.5561  -23.9953   15.6941 C   0  0  0  0  0  0  0  0  0  0  0  0
  -24.4100  -31.6796   24.1429 C   0  0  0  0  0  0  0  0  0  0  0  0
  -28.0202  -21.5286   22.4688 C   0  0  0  0  0  0  0  0  0  0  0  0
  -20.7792  -24.4773   16.9101 C   0  0  0  0  0  0  0  0  0  0  0  0
  -28.0056  -20.0119   22.2697 C   0  0  0  0  0  0  0  0  0  0  0  0
  -26.6867  -22.1518   22.0669 C   0  0  0  0  0  0  0  0  0  0  0  0
  -26.2406  -20.3255   20.4734 C   0  0  0  0  0  0  0  0  0  0  0  0
  -25.6091  -29.5827   23.4151 C   0  0  0  0  0  0  0  0  0  0  0  0
  -21.4853  -24.0650   18.2080 C   0  0  1  0  0  0  0  0  0  0  0  0
  -19.5595  -25.6759   21.0581 C   0  0  1  0  0  0  0  0  0  0  0  0
  -27.5686  -19.6386   20.8407 C   0  0  2  0  0  0  0  0  0  0  0  0
  -24.2549  -30.2687   23.5755 C   0  0  1  0  0  0  0  0  0  1  0  0
  -30.2720  -32.4233   22.5166 C   0  0  0  0  0  0  0  0  0  0  0  0
  -14.5111  -30.9129   23.0145 C   0  0  0  0  0  0  0  0  0  0  0  0
  -17.1552  -28.4137   17.6480 C   0  0  0  0  0  0  0  0  0  0  0  0
  -16.0163  -30.3173   18.8089 C   0  0  0  0  0  0  0  0  0  0  0  0
  -15.1337  -27.9977   19.0605 C   0  0  0  0  0  0  0  0  0  0  0  0
  -17.9774  -30.9374   24.5830 C   0  0  0  0  0  0  0  0  0  0  0  0
  -25.9752  -25.0219   18.9092 C   0  0  0  0  0  0  0  0  0  0  0  0
  -26.2591  -30.3684   21.0979 C   0  0  0  0  0  0  0  0  0  0  0  0
  -17.2896  -28.6357   20.2168 C   0  0  1  0  0  0  0  0  0  0  0  0
  -15.9162  -30.3954   23.2806 C   0  0  2  0  0  0  0  0  0  0  0  0
  -16.4258  -28.8347   18.9394 C   0  0  0  0  0  0  0  0  0  0  0  0
  -26.3332  -17.5041   20.8583 N   0  0  0  0  0  0  0  0  0  0  0  0
  -27.5012  -18.1349   20.6483 N   0  0  0  0  0  0  0  0  0  0  0  0
  -18.9700  -27.0161   21.0397 N   0  0  0  0  0  0  0  0  0  0  0  0
  -26.3378  -21.7728   20.6904 N   0  0  0  0  0  0  0  0  0  0  0  0
  -29.7568  -17.7740   20.0218 N   0  0  0  0  0  0  0  0  0  0  0  0
  -28.6970  -14.4439   18.5452 N   0  0  0  0  0  0  0  0  0  0  0  0
  -20.6186  -24.3541   19.3292 N   0  0  0  0  0  0  0  0  0  0  0  0
  -16.6144  -29.0008   21.4575 N   0  0  0  0  0  0  0  0  0  0  0  0
  -26.1957  -24.0017   19.9099 N   0  0  0  0  0  0  0  0  0  0  0  0
  -26.5645  -30.3894   22.5701 N   0  3  1  0  0  0  0  0  0  0  0  0
  -16.5941  -31.3364   24.2166 N   0  3  0  0  0  0  0  0  0  0  0  0
  -29.2454  -14.1276   20.7493 O   0  0  0  0  0  0  0  0  0  0  0  0
  -21.1348  -26.6121   19.5691 O   0  0  0  0  0  0  0  0  0  0  0  0
  -17.0320  -26.2912   19.9649 O   0  0  0  0  0  0  0  0  0  0  0  0
  -17.3497  -31.1994   21.5098 O   0  0  0  0  0  0  0  0  0  0  0  0
  -25.8008  -22.2498   18.4853 O   0  0  0  0  0  0  0  0  0  0  0  0
  -22.6841  -12.2897   21.0609 O   0  0  0  0  0  0  0  0  0  0  0  0
  -23.4641  -29.4875   24.4672 O   0  0  0  0  0  0  0  0  0  1  0  0
  -24.3196   -7.0262   21.2162 F   0  0  0  0  0  0  0  0  0  0  0  0
  -22.1080  -10.6892   23.2402 F   0  0  0  0  0  0  0  0  0  0  0  0
  -28.7898  -26.1149   19.5279 Cl  0  0  0  0  0  0  0  0  0  0  0  0
  1  2  1  0  0  0  0
  1  5  2  0  0  0  0
  2  6  2  0  0  0  0
  3 10  2  0  0  0  0
  3 18  1  0  0  0  0
  4 11  1  0  0  0  0
  4 18  2  0  0  0  0
  5 20  1  0  0  0  0
  6 22  1  0  0  0  0
  7 12  2  0  0  0  0
  7 21  1  0  0  0  0
  8  9  2  0  0  0  0
  8 24  1  0  0  0  0
  9 25  1  0  0  0  0
 10 26  1  0  0  0  0
 11 26  2  0  0  0  0
 12 27  1  0  0  0  0
 13 14  2  0  0  0  0
 13 28  1  0  0  0  0
 14 29  1  0  0  0  0
 15 23  1  0  0  0  0
 15 27  2  0  0  0  0
 16 24  2  0  0  0  0
 16 31  1  0  0  0  0
 17 29  2  0  0  0  0
 17 30  1  0  0  0  0
 18 32  1  0  0  0  0
 19 32  1  0  0  0  0
 19 33  2  0  0  0  0
 19 39  1  0  0  0  0
 20 22  2  0  0  0  0
 20 45  1  0  0  0  0
 21 23  2  0  0  0  0
 21 46  1  0  0  0  0
 22 57  1  0  0  0  0
 23 47  1  0  0  0  0
 24 68  1  0  0  0  0
 25 31  2  0  0  0  0
 25 67  1  0  0  0  0
 26 88  1  0  0  0  0
 27 89  1  0  0  0  0
 28 30  2  0  0  0  0
 28 88  1  0  0  0  0
 29 90  1  0  0  0  0
 30 91  1  0  0  0  0
 31 92  1  0  0  0  0
 32 72  2  0  0  0  0
 33 73  1  0  0  0  0
 33 76  1  0  0  0  0
 34 36  2  0  0  0  0
 34 48  1  0  0  0  0
 34 81  1  0  0  0  0
 35 37  2  0  0  0  0
 36 40  1  0  0  0  0
 37 38  1  0  0  0  0
 38 40  2  0  0  0  0
 39 77  1  0  0  0  0
 39 83  2  0  0  0  0
 40 61  1  0  0  0  0
 41 58  1  0  0  0  0
 41 78  1  0  0  0  0
 41 84  2  0  0  0  0
 42 69  1  0  0  0  0
 42 74  1  0  0  0  0
 42 85  2  0  0  0  0
 43 70  1  0  0  0  0
 43 79  1  0  0  0  0
 43 86  2  0  0  0  0
 44 75  1  0  0  0  0
 44 80  1  0  0  0  0
 44 87  2  0  0  0  0
 45 49  1  0  0  0  0
 46 58  1  0  0  0  0
 47 74  1  0  0  0  0
 48 50  1  0  0  0  0
 49 52  1  0  0  0  0
 50 60  1  0  0  0  0
 51 53  1  0  0  0  0
 51 54  1  0  0  0  0
 52 57  1  0  0  0  0
 53 59  1  0  0  0  0
 54 75  1  0  0  0  0
 55 59  1  0  0  0  0
 55 75  1  0  0  0  0
 56 60  1  0  0  0  0
 56 81  1  0  0  0  0
 57 78  1  0  0  0  0
 58 74  1  0  0  0  0
 59 73  1  0  0  0  0
 60 89  1  0  0  0  0
 62 70  1  0  0  0  0
 63 71  1  0  0  0  0
 64 71  1  0  0  0  0
 65 71  1  0  0  0  0
 66 82  1  0  0  0  0
 67 80  1  0  0  0  0
 68 81  1  0  0  0  0
 69 71  1  0  0  0  0
 69 79  1  0  0  0  0
 70 82  1  0  0  0  0
 72 73  1  0  0  0  0
M  CHG  2  81   1  82   1
M  ISO  4  44 100  60 101  80 100  89 101
M  END
> <Batch ID>
0032

> <Smiles>
C=CC=C(C)C=C1CC[101CH:1]([101O:1]c2ccc3c(c2)CN(C(=O)C(NC(=O)C(C)NC)C(C)(C)C)C(C(=O)NC2CCCc4ccccc42)C3)CN1Cc1ccc(C[100NH:0][100C:0](=O)N2CCCC(n3nc(-c4ccc(Oc5ccc(F)cc5F)cc4)c(C(N)=O)c3N)C2)c(Cl)c1

> <Shape>
0.255

> <Color>
0.045

> <Negative vol penalty>
0.000

$$$$

  -OEChem-04042321423D

 86 95  0     1  0  0  0  0  0999 V2000
  -30.8259  -25.6280   17.3967 C   0  0  0  0  0  0  0  0  0  0  0  0
  -29.4561  -25.4632   17.5754 C   0  0  0  0  0  0  0  0  0  0  0  0
  -16.9924  -24.9480   22.9133 C   0  0  0  0  0  0  0  0  0  0  0  0
  -27.9043  -14.0776   18.7030 C   0  0  0  0  0  0  0  0  0  0  0  0
  -28.0484  -13.3136   20.9905 C   0  0  0  0  0  0  0  0  0  0  0  0
  -31.5855  -26.2582   18.3815 C   0  0  0  0  0  0  0  0  0  0  0  0
  -28.8452  -25.9276   18.7397 C   0  0  0  0  0  0  0  0  0  0  0  0
  -23.2140  -28.2788   19.2565 C   0  0  0  0  0  0  0  0  0  0  0  0
  -17.4522  -23.6381   22.7782 C   0  0  0  0  0  0  0  0  0  0  0  0
  -17.8973  -26.0095   22.9011 C   0  0  0  0  0  0  0  0  0  0  0  0
  -29.2604  -13.8036   18.5260 C   0  0  0  0  0  0  0  0  0  0  0  0
  -29.4045  -13.0394   20.8135 C   0  0  0  0  0  0  0  0  0  0  0  0
  -22.0004  -27.7260   19.6630 C   0  0  0  0  0  0  0  0  0  0  0  0
  -31.2019  -11.0914   17.9710 C   0  0  0  0  0  0  0  0  0  0  0  0
  -31.5822  -10.4278   16.8046 C   0  0  0  0  0  0  0  0  0  0  0  0
  -22.3642  -28.5798   21.8896 C   0  0  0  0  0  0  0  0  0  0  0  0
  -19.7217  -24.4511   22.6188 C   0  0  0  0  0  0  0  0  0  0  0  0
  -32.9828  -12.3001   16.1962 C   0  0  0  0  0  0  0  0  0  0  0  0
  -27.2982  -13.8327   19.9353 C   0  0  0  0  0  0  0  0  0  0  0  0
  -24.8169  -13.2422   19.8952 C   0  0  0  0  0  0  0  0  0  0  0  0
  -30.9820  -26.7391   19.5542 C   0  0  0  0  0  0  0  0  0  0  0  0
  -24.0184  -28.9781   20.1678 C   0  0  0  0  0  0  0  0  0  0  0  0
  -29.5976  -26.5636   19.7418 C   0  0  0  0  0  0  0  0  0  0  0  0
  -23.5864  -29.1427   21.4915 C   0  0  0  0  0  0  0  0  0  0  0  0
  -18.8168  -23.3896   22.6310 C   0  0  0  0  0  0  0  0  0  0  0  0
  -19.2619  -25.7611   22.7538 C   0  0  0  0  0  0  0  0  0  0  0  0
  -30.0106  -13.2844   19.5812 C   0  0  0  0  0  0  0  0  0  0  0  0
  -21.5767  -27.8739   20.9805 C   0  0  0  0  0  0  0  0  0  0  0  0
  -31.7118  -12.3594   18.2500 C   0  0  0  0  0  0  0  0  0  0  0  0
  -32.4727  -11.0321   15.9172 C   0  0  0  0  0  0  0  0  0  0  0  0
  -32.6023  -12.9637   17.3626 C   0  0  0  0  0  0  0  0  0  0  0  0
  -25.8975  -14.1162   20.1189 C   0  0  0  0  0  0  0  0  0  0  0  0
  -23.7048  -13.9827   20.2135 C   0  0  0  0  0  0  0  0  0  0  0  0
  -20.1341  -19.8694   20.1612 C   0  0  0  0  0  0  0  0  0  0  0  0
  -19.2689  -19.9437   21.1811 C   0  0  0  0  0  0  0  0  0  0  0  0
  -24.8182  -11.8824   19.4405 C   0  0  0  0  0  0  0  0  0  0  0  0
  -20.8728  -18.6641   19.7341 C   0  0  0  0  0  0  0  0  0  0  0  0
  -26.9465  -28.5815   21.3394 C   0  0  0  0  0  0  0  0  0  0  0  0
  -26.3710  -31.4687   22.7015 C   0  0  0  0  0  0  0  0  0  0  0  0
  -24.0823  -33.7462   23.8067 C   0  0  0  0  0  0  0  0  0  0  0  0
  -31.8519  -27.3715   20.6115 C   0  0  0  0  0  0  0  0  0  0  0  0
  -25.3122  -29.5914   19.7069 C   0  0  0  0  0  0  0  0  0  0  0  0
  -24.4034  -29.9019   22.5037 C   0  0  0  0  0  0  0  0  0  0  0  0
  -20.2810  -21.1590   19.4354 C   0  0  0  0  0  0  0  0  0  0  0  0
  -31.0666  -28.1692   21.6494 C   0  0  0  0  0  0  0  0  0  0  0  0
  -23.2537  -18.4486   22.5119 C   0  0  0  0  0  0  0  0  0  0  0  0
  -29.8598  -27.3721   22.1341 C   0  0  0  0  0  0  0  0  0  0  0  0
  -24.0962  -17.2499   22.0842 C   0  0  0  0  0  0  0  0  0  0  0  0
  -22.7826  -19.2727   21.3147 C   0  0  0  0  0  0  0  0  0  0  0  0
  -22.9018  -17.2712   19.8587 C   0  0  0  0  0  0  0  0  0  0  0  0
  -19.0962  -21.9451   19.9678 C   0  0  0  0  0  0  0  0  0  0  0  0
  -28.8945  -27.0759   20.9800 C   0  0  1  0  0  0  0  0  0  0  0  0
  -26.2941  -29.8424   20.8471 C   0  0  1  0  0  0  0  0  0  0  0  0
  -23.3472  -16.4013   21.0446 C   0  0  1  0  0  0  0  0  0  0  0  0
  -18.7957  -18.8643   22.0954 C   0  0  0  0  0  0  0  0  0  0  0  0
  -23.9144  -35.9955   24.9066 C   0  0  0  0  0  0  0  0  0  0  0  0
  -27.1029  -30.2096   25.3827 C   0  0  0  0  0  0  0  0  0  0  0  0
  -26.0237  -32.1638   26.5160 C   0  0  0  0  0  0  0  0  0  0  0  0
  -27.9995  -32.5182   25.0350 C   0  0  0  0  0  0  0  0  0  0  0  0
  -22.6502  -34.9017   21.4888 C   0  0  0  0  0  0  0  0  0  0  0  0
  -19.3075  -21.9888   22.4851 C   0  0  0  0  0  0  0  0  0  0  0  0
  -25.7660  -31.9349   24.0036 C   0  0  1  0  0  0  0  0  0  0  0  0
  -23.9635  -35.2434   23.5857 C   0  0  2  0  0  0  0  0  0  0  0  0
  -20.2385  -26.9069   22.7413 C   0  0  0  0  0  0  0  0  0  1  0  0
  -26.7083  -31.6906   25.2160 C   0  0  0  0  0  0  0  0  0  0  0  0
  -25.5072  -15.3200   20.5461 N   0  0  0  0  0  0  0  0  0  0  0  0
  -24.1688  -15.2077   20.5933 N   0  0  0  0  0  0  0  0  0  0  0  0
  -22.1212  -18.4295   20.3076 N   0  0  0  0  0  0  0  0  0  0  0  0
  -25.6638  -30.4776   22.0062 N   0  0  0  0  0  0  0  0  0  0  0  0
  -22.3850  -13.6991   20.2026 N   0  0  0  0  0  0  0  0  0  0  0  0
  -26.0486  -11.2733   19.1587 N   0  0  0  0  0  0  0  0  0  0  0  0
  -28.1066  -28.2487   20.6665 N   0  0  0  0  0  0  0  0  0  0  0  0
  -25.3977  -33.3326   23.8053 N   0  0  0  0  0  0  0  0  0  0  0  0
  -18.7439  -21.2819   21.2870 N   0  3  2  0  0  0  0  0  0  0  0  0
  -22.7241  -35.5572   22.8199 N   0  3  0  0  0  0  0  0  0  0  0  0
  -23.7586  -11.2322   19.2728 O   0  0  0  0  0  0  0  0  0  0  0  0
  -20.3406  -17.9401   18.8907 O   0  0  0  0  0  0  0  0  0  0  0  0
  -26.4359  -27.9576   22.2623 O   0  0  0  0  0  0  0  0  0  0  0  0
  -27.4284  -31.9706   22.3119 O   0  0  0  0  0  0  0  0  0  0  0  0
  -23.1061  -33.0172   23.9684 O   0  0  0  0  0  0  0  0  0  0  0  0
  -31.3338  -13.0166   19.4088 O   0  0  0  0  0  0  0  0  0  0  0  0
  -20.3928  -27.3347   21.3800 O   0  0  0  0  0  0  0  0  0  1  0  0
  -32.8391  -10.3941   14.7979 F   0  0  0  0  0  0  0  0  0  0  0  0
  -33.0965  -14.1812   17.6258 F   0  0  0  0  0  0  0  0  0  0  0  0
  -21.4600  -26.5532   23.2293 F   0  0  0  0  0  0  0  0  0  0  0  0
  -19.8085  -27.9636   23.4853 F   0  0  0  0  0  0  0  0  0  0  0  0
  1  2  1  0  0  0  0
  1  6  2  0  0  0  0
  2  7  2  0  0  0  0
  3  9  2  0  0  0  0
  3 10  1  0  0  0  0
  4 11  2  0  0  0  0
  4 19  1  0  0  0  0
  5 12  1  0  0  0  0
  5 19  2  0  0  0  0
  6 21  1  0  0  0  0
  7 23  1  0  0  0  0
  8 13  2  0  0  0  0
  8 22  1  0  0  0  0
  9 25  1  0  0  0  0
 10 26  2  0  0  0  0
 11 27  1  0  0  0  0
 12 27  2  0  0  0  0
 13 28  1  0  0  0  0
 14 15  2  0  0  0  0
 14 29  1  0  0  0  0
 15 30  1  0  0  0  0
 16 24  1  0  0  0  0
 16 28  2  0  0  0  0
 17 25  2  0  0  0  0
 17 26  1  0  0  0  0
 18 30  2  0  0  0  0
 18 31  1  0  0  0  0
 19 32  1  0  0  0  0
 20 32  1  0  0  0  0
 20 33  2  0  0  0  0
 20 36  1  0  0  0  0
 21 23  2  0  0  0  0
 21 41  1  0  0  0  0
 22 24  2  0  0  0  0
 22 42  1  0  0  0  0
 23 52  1  0  0  0  0
 24 43  1  0  0  0  0
 25 61  1  0  0  0  0
 26 64  1  0  0  0  0
 27 81  1  0  0  0  0
 28 82  1  0  0  0  0
 29 31  2  0  0  0  0
 29 81  1  0  0  0  0
 30 83  1  0  0  0  0
 31 84  1  0  0  0  0
 32 66  2  0  0  0  0
 33 67  1  0  0  0  0
 33 70  1  0  0  0  0
 34 35  2  0  0  0  0
 34 37  1  0  0  0  0
 34 44  1  0  0  0  0
 35 55  1  0  0  0  0
 35 74  1  0  0  0  0
 36 71  1  0  0  0  0
 36 76  2  0  0  0  0
 37 68  1  0  0  0  0
 37 77  2  0  0  0  0
 38 53  1  0  0  0  0
 38 72  1  0  0  0  0
 38 78  2  0  0  0  0
 39 62  1  0  0  0  0
 39 69  1  0  0  0  0
 39 79  2  0  0  0  0
 40 63  1  0  0  0  0
 40 73  1  0  0  0  0
 40 80  2  0  0  0  0
 41 45  1  0  0  0  0
 42 53  1  0  0  0  0
 43 69  1  0  0  0  0
 44 51  1  0  0  0  0
 45 47  1  0  0  0  0
 46 48  1  0  0  0  0
 46 49  1  0  0  0  0
 47 52  1  0  0  0  0
 48 54  1  0  0  0  0
 49 68  1  0  0  0  0
 50 54  1  0  0  0  0
 50 68  1  0  0  0  0
 51 74  1  0  0  0  0
 52 72  1  0  0  0  0
 53 69  1  0  0  0  0
 54 67  1  0  0  0  0
 56 63  1  0  0  0  0
 57 65  1  0  0  0  0
 58 65  1  0  0  0  0
 59 65  1  0  0  0  0
 60 75  1  0  0  0  0
 61 74  1  0  0  0  0
 62 65  1  0  0  0  0
 62 73  1  0  0  0  0
 63 75  1  0  0  0  0
 64 82  1  0  0  0  0
 64 85  1  0  0  0  0
 64 86  1  0  0  0  0
 66 67  1  0  0  0  0
M  CHG  2  74   1  75   1
M  ISO  4  34 100  37 100  64 101  82 101
M  END
> <Batch ID>
0032

> <Smiles>
C=C1[100CH:0]([100C:0](=O)N2CCCC(n3nc(-c4ccc(Oc5ccc(F)cc5F)cc4)c(C(N)=O)c3N)C2)CCN1Cc1cccc([101C:1](F)(F)[101O:1]c2ccc3c(c2)CN(C(=O)C(NC(=O)C(C)NC)C(C)(C)C)C(C(=O)NC2CCCc4ccccc42)C3)c1

> <Shape>
0.297

> <Color>
0.087

> <Negative vol penalty>
0.000

$$$$

  -OEChem-04042321423D

 86 95  0     1  0  0  0  0  0999 V2000
  -24.1092  -32.1250   21.3209 C   0  0  0  0  0  0  0  0  0  0  0  0
  -24.9977  -31.2766   21.9738 C   0  0  0  0  0  0  0  0  0  0  0  0
  -22.9442  -10.0793   19.8900 C   0  0  0  0  0  0  0  0  0  0  0  0
  -23.8787   -9.7209   22.0889 C   0  0  0  0  0  0  0  0  0  0  0  0
  -23.5438  -31.7392   20.1062 C   0  0  0  0  0  0  0  0  0  0  0  0
  -25.3204  -30.0414   21.4129 C   0  0  0  0  0  0  0  0  0  0  0  0
  -30.7222  -27.1695   21.6929 C   0  0  0  0  0  0  0  0  0  0  0  0
  -32.4906  -18.3049   21.9835 C   0  0  0  0  0  0  0  0  0  0  0  0
  -31.8777  -17.1800   21.4316 C   0  0  0  0  0  0  0  0  0  0  0  0
  -22.1551   -8.9388   20.0394 C   0  0  0  0  0  0  0  0  0  0  0  0
  -23.0896   -8.5805   22.2384 C   0  0  0  0  0  0  0  0  0  0  0  0
  -31.1996  -26.1469   22.5115 C   0  0  0  0  0  0  0  0  0  0  0  0
  -19.8764   -7.8586   22.9966 C   0  0  0  0  0  0  0  0  0  0  0  0
  -19.2115   -7.6871   24.2107 C   0  0  0  0  0  0  0  0  0  0  0  0
  -30.6338  -24.5308   20.8124 C   0  0  0  0  0  0  0  0  0  0  0  0
  -20.3896   -5.6072   24.5620 C   0  0  0  0  0  0  0  0  0  0  0  0
  -23.8060  -10.4703   20.9147 C   0  0  0  0  0  0  0  0  0  0  0  0
  -24.2861  -12.9674   21.1186 C   0  0  0  0  0  0  0  0  0  0  0  0
  -23.8672  -30.5028   19.5253 C   0  0  0  0  0  0  0  0  0  0  0  0
  -30.1862  -26.8788   20.4301 C   0  0  0  0  0  0  0  0  0  0  0  0
  -24.7578  -29.6382   20.1900 C   0  0  0  0  0  0  0  0  0  0  0  0
  -30.1526  -25.5517   19.9786 C   0  0  0  0  0  0  0  0  0  0  0  0
  -32.2153  -18.6736   23.3004 C   0  0  0  0  0  0  0  0  0  0  0  0
  -31.3271  -17.9175   24.0652 C   0  0  0  0  0  0  0  0  0  0  0  0
  -30.7141  -16.7927   23.5132 C   0  0  0  0  0  0  0  0  0  0  0  0
  -30.9894  -16.4239   22.1964 C   0  0  0  0  0  0  0  0  0  0  0  0
  -22.2278   -8.1894   21.2136 C   0  0  0  0  0  0  0  0  0  0  0  0
  -31.1527  -24.8270   22.0725 C   0  0  0  0  0  0  0  0  0  0  0  0
  -20.7979   -6.9045   22.5652 C   0  0  0  0  0  0  0  0  0  0  0  0
  -19.4681   -6.5614   24.9934 C   0  0  0  0  0  0  0  0  0  0  0  0
  -21.0545   -5.7788   23.3478 C   0  0  0  0  0  0  0  0  0  0  0  0
  -24.6218  -11.6480   20.7607 C   0  0  0  0  0  0  0  0  0  0  0  0
  -25.3891  -13.7086   20.7715 C   0  0  0  0  0  0  0  0  0  0  0  0
  -31.6713  -21.7072   25.1215 C   0  0  0  0  0  0  0  0  0  0  0  0
  -23.0846  -13.4775   21.7119 C   0  0  0  0  0  0  0  0  0  0  0  0
  -27.3415  -27.2500   19.0613 C   0  0  0  0  0  0  0  0  0  0  0  0
  -28.9094  -26.2046   16.4210 C   0  0  0  0  0  0  0  0  0  0  0  0
  -31.5297  -24.4543   15.1106 C   0  0  0  0  0  0  0  0  0  0  0  0
  -30.9046  -14.4575   20.6241 C   0  0  0  0  0  0  0  0  0  0  0  0
  -23.1943  -30.1091   18.2343 C   0  0  0  0  0  0  0  0  0  0  0  0
  -29.7000  -27.9960   19.5482 C   0  0  0  0  0  0  0  0  0  0  0  0
  -29.6056  -25.1889   18.6230 C   0  0  0  0  0  0  0  0  0  0  0  0
  -30.6090  -22.7224   24.7674 C   0  0  0  0  0  0  0  0  0  0  0  0
  -23.8771  -28.9444   17.5220 C   0  0  0  0  0  0  0  0  0  0  0  0
  -29.4693  -12.4642   18.0465 C   0  0  0  0  0  0  0  0  0  0  0  0
  -24.1874  -27.8232   18.5088 C   0  0  0  0  0  0  0  0  0  0  0  0
  -28.0526  -12.1827   18.5523 C   0  0  0  0  0  0  0  0  0  0  0  0
  -30.4867  -12.4745   19.1860 C   0  0  0  0  0  0  0  0  0  0  0  0
  -28.7387  -13.0829   20.8119 C   0  0  0  0  0  0  0  0  0  0  0  0
  -31.2263  -21.4631   22.8093 C   0  0  0  0  0  0  0  0  0  0  0  0
  -25.1518  -28.3010   19.6012 C   0  0  1  0  0  0  0  0  0  0  0  0
  -28.7027  -27.5319   18.4910 C   0  0  1  0  0  0  0  0  0  0  0  0
  -27.6690  -13.1269   19.7086 C   0  0  2  0  0  0  0  0  0  0  0  0
  -30.6898  -22.8139   23.2459 C   0  0  2  0  0  0  0  0  0  1  0  0
  -31.0339  -18.3154   25.4772 C   0  0  0  0  0  0  0  0  0  0  0  0
  -29.7612  -15.9827   24.3358 C   0  0  0  0  0  0  0  0  0  0  0  0
  -32.5249  -23.7440   12.9192 C   0  0  0  0  0  0  0  0  0  0  0  0
  -26.7400  -24.0791   16.1275 C   0  0  0  0  0  0  0  0  0  0  0  0
  -28.2530  -22.8517   14.5551 C   0  0  0  0  0  0  0  0  0  0  0  0
  -27.4544  -25.1440   13.9804 C   0  0  0  0  0  0  0  0  0  0  0  0
  -34.0495  -25.9095   15.6509 C   0  0  0  0  0  0  0  0  0  0  0  0
  -32.8887  -19.8887   23.8699 C   0  0  0  0  0  0  0  0  0  0  0  0
  -29.1815  -24.8540   15.8039 C   0  0  1  0  0  0  0  0  0  0  0  0
  -32.5235  -24.7978   14.0157 C   0  0  2  0  0  0  0  0  0  0  0  0
  -27.9158  -24.2385   15.1431 C   0  0  0  0  0  0  0  0  0  0  0  0
  -25.8425  -11.5532   20.2270 N   0  0  0  0  0  0  0  0  0  0  0  0
  -26.2835  -12.8225   20.2469 N   0  0  0  0  0  0  0  0  0  0  0  0
  -31.9871  -21.0174   23.9554 N   0  0  0  0  0  0  0  0  0  0  0  0
  -29.1364  -26.3159   17.8001 N   0  0  0  0  0  0  0  0  0  0  0  0
  -30.0593  -13.3941   20.2426 N   0  0  0  0  0  0  0  0  0  0  0  0
  -25.6715  -15.0252   20.8669 N   0  0  0  0  0  0  0  0  0  0  0  0
  -22.0499  -12.5784   22.0042 N   0  0  0  0  0  0  0  0  0  0  0  0
  -30.3784  -15.2852   21.6154 N   0  0  0  0  0  0  0  0  0  0  0  0
  -26.5061  -28.3503   19.0934 N   0  0  0  0  0  0  0  0  0  0  0  0
  -30.3021  -25.0417   14.8887 N   0  0  0  0  0  0  0  0  0  0  0  0
  -33.9005  -24.8935   14.5773 N   0  3  0  0  0  0  0  0  0  0  0  0
  -32.1101  -21.5276   26.2480 O   0  0  0  0  0  0  0  0  0  0  0  0
  -22.9266  -14.6970   21.9598 O   0  0  0  0  0  0  0  0  0  0  0  0
  -27.0687  -26.1178   19.4425 O   0  0  0  0  0  0  0  0  0  0  0  0
  -28.5169  -27.1288   15.7045 O   0  0  0  0  0  0  0  0  0  0  0  0
  -31.8129  -23.7338   16.0651 O   0  0  0  0  0  0  0  0  0  0  0  0
  -32.0020  -14.6377   20.0901 O   0  0  0  0  0  0  0  0  0  0  0  0
  -21.4578   -7.0767   21.3599 O   0  0  0  0  0  0  0  0  0  0  0  0
  -31.6173  -23.8269   22.8699 O   0  0  0  0  0  0  0  0  0  1  0  0
  -18.8307   -6.3975   26.1600 F   0  0  0  0  0  0  0  0  0  0  0  0
  -21.9396   -4.8593   22.9391 F   0  0  0  0  0  0  0  0  0  0  0  0
  1  2  1  0  0  0  0
  1  5  2  0  0  0  0
  2  6  2  0  0  0  0
  3 10  2  0  0  0  0
  3 17  1  0  0  0  0
  4 11  1  0  0  0  0
  4 17  2  0  0  0  0
  5 19  1  0  0  0  0
  6 21  1  0  0  0  0
  7 12  2  0  0  0  0
  7 20  1  0  0  0  0
  8  9  2  0  0  0  0
  8 23  1  0  0  0  0
  9 26  1  0  0  0  0
 10 27  1  0  0  0  0
 11 27  2  0  0  0  0
 12 28  1  0  0  0  0
 13 14  2  0  0  0  0
 13 29  1  0  0  0  0
 14 30  1  0  0  0  0
 15 22  1  0  0  0  0
 15 28  2  0  0  0  0
 16 30  2  0  0  0  0
 16 31  1  0  0  0  0
 17 32  1  0  0  0  0
 18 32  1  0  0  0  0
 18 33  2  0  0  0  0
 18 35  1  0  0  0  0
 19 21  2  0  0  0  0
 19 40  1  0  0  0  0
 20 22  2  0  0  0  0
 20 41  1  0  0  0  0
 21 51  1  0  0  0  0
 22 42  1  0  0  0  0
 23 24  2  0  0  0  0
 23 62  1  0  0  0  0
 24 25  1  0  0  0  0
 24 55  1  0  0  0  0
 25 26  2  0  0  0  0
 25 56  1  0  0  0  0
 26 73  1  0  0  0  0
 27 83  1  0  0  0  0
 28 84  1  0  0  0  0
 29 31  2  0  0  0  0
 29 83  1  0  0  0  0
 30 85  1  0  0  0  0
 31 86  1  0  0  0  0
 32 66  2  0  0  0  0
 33 67  1  0  0  0  0
 33 71  1  0  0  0  0
 34 43  1  0  0  0  0
 34 68  1  0  0  0  0
 34 77  2  0  0  0  0
 35 72  1  0  0  0  0
 35 78  2  0  0  0  0
 36 52  1  0  0  0  0
 36 74  1  0  0  0  0
 36 79  2  0  0  0  0
 37 63  1  0  0  0  0
 37 69  1  0  0  0  0
 37 80  2  0  0  0  0
 38 64  1  0  0  0  0
 38 75  1  0  0  0  0
 38 81  2  0  0  0  0
 39 70  1  0  0  0  0
 39 73  1  0  0  0  0
 39 82  2  0  0  0  0
 40 44  1  0  0  0  0
 41 52  1  0  0  0  0
 42 69  1  0  0  0  0
 43 54  1  0  0  0  0
 44 46  1  0  0  0  0
 45 47  1  0  0  0  0
 45 48  1  0  0  0  0
 46 51  1  0  0  0  0
 47 53  1  0  0  0  0
 48 70  1  0  0  0  0
 49 53  1  0  0  0  0
 49 70  1  0  0  0  0
 50 54  1  0  0  0  0
 50 68  1  0  0  0  0
 51 74  1  0  0  0  0
 52 69  1  0  0  0  0
 53 67  1  0  0  0  0
 54 84  1  0  0  0  0
 57 64  1  0  0  0  0
 58 65  1  0  0  0  0
 59 65  1  0  0  0  0
 60 65  1  0  0  0  0
 61 76  1  0  0  0  0
 62 68  1  0  0  0  0
 63 65  1  0  0  0  0
 63 75  1  0  0  0  0
 64 76  1  0  0  0  0
 66 67  1  0  0  0  0
M  CHG  1  76   1
M  ISO  4  39 100  54 101  73 100  84 101
M  END
> <Batch ID>
0032

> <Smiles>
CNC(C)C(=O)NC(C(=O)N1Cc2cc([101O:1][101CH:1]3CC(=O)N(Cc4ccc([100NH:0][100C:0](=O)N5CCCC(n6nc(-c7ccc(Oc8ccc(F)cc8F)cc7)c(C(N)=O)c6N)C5)c(C)c4C)C3)ccc2CC1C(=O)NC1CCCc2ccccc21)C(C)(C)C

> <Shape>
0.277

> <Color>
0.186

> <Negative vol penalty>
0.000

$$$$

  -OEChem-04042321423D

 88 97  0     1  0  0  0  0  0999 V2000
  -17.9955  -33.2089   23.2828 C   0  0  0  0  0  0  0  0  0  0  0  0
  -19.3147  -33.0755   23.7040 C   0  0  0  0  0  0  0  0  0  0  0  0
  -26.5488  -12.0031   20.2049 C   0  0  0  0  0  0  0  0  0  0  0  0
  -25.2080  -13.9691   20.6224 C   0  0  0  0  0  0  0  0  0  0  0  0
  -17.2450  -32.0748   22.9754 C   0  0  0  0  0  0  0  0  0  0  0  0
  -19.8838  -31.8077   23.8190 C   0  0  0  0  0  0  0  0  0  0  0  0
  -25.7865  -30.0403   20.0872 C   0  0  0  0  0  0  0  0  0  0  0  0
  -25.3926  -11.2241   20.1599 C   0  0  0  0  0  0  0  0  0  0  0  0
  -24.0518  -13.1902   20.5773 C   0  0  0  0  0  0  0  0  0  0  0  0
  -27.0347  -29.6955   19.5684 C   0  0  0  0  0  0  0  0  0  0  0  0
  -23.2379   -9.8357   22.3630 C   0  0  0  0  0  0  0  0  0  0  0  0
  -23.2471   -8.6230   23.0521 C   0  0  0  0  0  0  0  0  0  0  0  0
  -26.8274  -27.4794   20.5138 C   0  0  0  0  0  0  0  0  0  0  0  0
  -29.8271  -22.9089   20.5689 C   0  0  0  0  0  0  0  0  0  0  0  0
  -30.0502  -22.8423   23.3489 C   0  0  0  0  0  0  0  0  0  0  0  0
  -22.8284   -7.4451   20.9846 C   0  0  0  0  0  0  0  0  0  0  0  0
  -26.4565  -13.3756   20.4362 C   0  0  0  0  0  0  0  0  0  0  0  0
  -28.5988  -14.3559   19.4577 C   0  0  0  0  0  0  0  0  0  0  0  0
  -17.8083  -30.7930   23.0775 C   0  0  0  0  0  0  0  0  0  0  0  0
  -25.0463  -29.0999   20.8091 C   0  0  0  0  0  0  0  0  0  0  0  0
  -19.1398  -30.6553   23.5140 C   0  0  0  0  0  0  0  0  0  0  0  0
  -25.5710  -27.8150   21.0252 C   0  0  0  0  0  0  0  0  0  0  0  0
  -30.8376  -23.6300   21.2049 C   0  0  0  0  0  0  0  0  0  0  0  0
  -29.0397  -22.1212   22.7128 C   0  0  0  0  0  0  0  0  0  0  0  0
  -24.1441  -11.8177   20.3461 C   0  0  0  0  0  0  0  0  0  0  0  0
  -27.5539  -28.4183   19.7814 C   0  0  0  0  0  0  0  0  0  0  0  0
  -23.0238   -9.8532   20.9848 C   0  0  0  0  0  0  0  0  0  0  0  0
  -23.0424   -7.4277   22.3629 C   0  0  0  0  0  0  0  0  0  0  0  0
  -22.8191   -8.6579   20.2956 C   0  0  0  0  0  0  0  0  0  0  0  0
  -30.9492  -23.5967   22.5949 C   0  0  0  0  0  0  0  0  0  0  0  0
  -28.9281  -22.1546   21.3228 C   0  0  0  0  0  0  0  0  0  0  0  0
  -27.6505  -14.1807   20.4834 C   0  0  0  0  0  0  0  0  0  0  0  0
  -29.5339  -15.2056   19.9962 C   0  0  0  0  0  0  0  0  0  0  0  0
  -32.4877  -26.7404   20.8435 C   0  0  0  0  0  0  0  0  0  0  0  0
  -28.6313  -13.8004   18.1364 C   0  0  0  0  0  0  0  0  0  0  0  0
  -21.8877  -28.3296   22.6815 C   0  0  0  0  0  0  0  0  0  0  0  0
  -22.5676  -25.8422   21.0200 C   0  0  0  0  0  0  0  0  0  0  0  0
  -22.4874  -22.9758   19.1721 C   0  0  0  0  0  0  0  0  0  0  0  0
  -29.2898  -19.3025   24.3559 C   0  0  0  0  0  0  0  0  0  0  0  0
  -16.9431  -29.5941   22.7796 C   0  0  0  0  0  0  0  0  0  0  0  0
  -23.7245  -29.4468   21.4387 C   0  0  0  0  0  0  0  0  0  0  0  0
  -24.7547  -26.8470   21.8373 C   0  0  0  0  0  0  0  0  0  0  0  0
  -32.0964  -28.2020   20.9538 C   0  0  0  0  0  0  0  0  0  0  0  0
  -17.7370  -28.3075   22.5681 C   0  0  0  0  0  0  0  0  0  0  0  0
  -30.9972  -28.6289   20.0042 C   0  0  0  0  0  0  0  0  0  0  0  0
  -31.4593  -16.4846   24.1852 C   0  0  0  0  0  0  0  0  0  0  0  0
  -18.7905  -28.1448   23.6591 C   0  0  0  0  0  0  0  0  0  0  0  0
  -30.8148  -15.5904   23.1246 C   0  0  0  0  0  0  0  0  0  0  0  0
  -30.4103  -17.1997   25.0338 C   0  0  0  0  0  0  0  0  0  0  0  0
  -28.7628  -17.0674   23.2057 C   0  0  0  0  0  0  0  0  0  0  0  0
  -30.2429  -26.2793   19.7993 C   0  0  0  0  0  0  0  0  0  0  0  0
  -19.8002  -29.2985   23.6274 C   0  0  1  0  0  0  0  0  0  0  0  0
  -22.7304  -28.2717   21.4414 C   0  0  1  0  0  0  0  0  0  0  0  0
  -29.7808  -16.3682   22.2885 C   0  0  2  0  0  0  0  0  0  0  0  0
  -29.8131  -27.6923   20.1527 C   0  0  2  0  0  0  0  0  0  1  0  0
  -21.6310  -20.6178   19.2308 C   0  0  0  0  0  0  0  0  0  0  0  0
  -24.7980  -25.0843   22.9578 C   0  0  0  0  0  0  0  0  0  0  0  0
  -24.5105  -22.7014   22.2455 C   0  0  0  0  0  0  0  0  0  0  0  0
  -22.6275  -23.9063   23.3525 C   0  0  0  0  0  0  0  0  0  0  0  0
  -20.8105  -23.4021   16.7710 C   0  0  0  0  0  0  0  0  0  0  0  0
  -31.7848  -24.4288   20.3571 C   0  0  0  0  0  0  0  0  0  0  0  0
  -28.0957  -21.3256   23.5558 C   0  0  0  0  0  0  0  0  0  0  0  0
  -23.2512  -24.4990   20.9751 C   0  0  1  0  0  0  0  0  0  0  0  0
  -21.3446  -22.0481   18.8008 C   0  0  2  0  0  0  0  0  0  0  0  0
  -23.8025  -24.0680   22.3636 C   0  0  0  0  0  0  0  0  0  0  0  0
  -27.9555  -14.8640   21.5898 N   0  0  0  0  0  0  0  0  0  0  0  0
  -29.1059  -15.4768   21.2624 N   0  0  0  0  0  0  0  0  0  0  0  0
  -31.4986  -25.8560   20.4165 N   0  0  0  0  0  0  0  0  0  0  0  0
  -23.3392  -26.9307   21.4447 N   0  0  0  0  0  0  0  0  0  0  0  0
  -29.4615  -17.9194   24.1807 N   0  0  0  0  0  0  0  0  0  0  0  0
  -30.6725  -15.7397   19.5054 N   0  0  0  0  0  0  0  0  0  0  0  0
  -28.0108  -14.5088   17.0983 N   0  0  0  0  0  0  0  0  0  0  0  0
  -20.7526  -29.1074   22.5546 N   0  0  0  0  0  0  0  0  0  0  0  0
  -22.2855  -23.5686   20.4006 N   0  0  0  0  0  0  0  0  0  0  0  0
  -28.3763  -19.9082   23.5019 N   0  0  0  0  0  0  0  0  0  0  0  0
  -21.1251  -22.0608   17.3269 N   0  3  0  0  0  0  0  0  0  0  0  0
  -33.6160  -26.3948   21.2050 O   0  0  0  0  0  0  0  0  0  0  0  0
  -29.1796  -12.7001   17.8867 O   0  0  0  0  0  0  0  0  0  0  0  0
  -22.2396  -27.7132   23.6805 O   0  0  0  0  0  0  0  0  0  0  0  0
  -21.3804  -25.9260   20.6933 O   0  0  0  0  0  0  0  0  0  0  0  0
  -23.4634  -23.1538   18.4467 O   0  0  0  0  0  0  0  0  0  0  0  0
  -29.9089  -19.9505   25.2067 O   0  0  0  0  0  0  0  0  0  0  0  0
  -23.0157  -11.0579   20.3020 O   0  0  0  0  0  0  0  0  0  0  0  0
  -28.7711  -28.0868   19.2682 O   0  0  0  0  0  0  0  0  0  1  0  0
  -23.0529   -6.2630   23.0245 F   0  0  0  0  0  0  0  0  0  0  0  0
  -22.6141   -8.6682   18.9713 F   0  0  0  0  0  0  0  0  0  0  0  0
  -32.1876  -24.4751   23.4157 Cl  0  0  0  0  0  0  0  0  0  0  0  0
  -27.6905  -21.2752   20.5015 Cl  0  0  0  0  0  0  0  0  0  0  0  0
  1  2  1  0  0  0  0
  1  5  2  0  0  0  0
  2  6  2  0  0  0  0
  3  8  2  0  0  0  0
  3 17  1  0  0  0  0
  4  9  1  0  0  0  0
  4 17  2  0  0  0  0
  5 19  1  0  0  0  0
  6 21  1  0  0  0  0
  7 10  2  0  0  0  0
  7 20  1  0  0  0  0
  8 25  1  0  0  0  0
  9 25  2  0  0  0  0
 10 26  1  0  0  0  0
 11 12  2  0  0  0  0
 11 27  1  0  0  0  0
 12 28  1  0  0  0  0
 13 22  1  0  0  0  0
 13 26  2  0  0  0  0
 14 23  1  0  0  0  0
 14 31  2  0  0  0  0
 15 24  2  0  0  0  0
 15 30  1  0  0  0  0
 16 28  2  0  0  0  0
 16 29  1  0  0  0  0
 17 32  1  0  0  0  0
 18 32  1  0  0  0  0
 18 33  2  0  0  0  0
 18 35  1  0  0  0  0
 19 21  2  0  0  0  0
 19 40  1  0  0  0  0
 20 22  2  0  0  0  0
 20 41  1  0  0  0  0
 21 52  1  0  0  0  0
 22 42  1  0  0  0  0
 23 30  2  0  0  0  0
 23 61  1  0  0  0  0
 24 31  1  0  0  0  0
 24 62  1  0  0  0  0
 25 83  1  0  0  0  0
 26 84  1  0  0  0  0
 27 29  2  0  0  0  0
 27 83  1  0  0  0  0
 28 85  1  0  0  0  0
 29 86  1  0  0  0  0
 30 87  1  0  0  0  0
 31 88  1  0  0  0  0
 32 66  2  0  0  0  0
 33 67  1  0  0  0  0
 33 71  1  0  0  0  0
 34 43  1  0  0  0  0
 34 68  1  0  0  0  0
 34 77  2  0  0  0  0
 35 72  1  0  0  0  0
 35 78  2  0  0  0  0
 36 53  1  0  0  0  0
 36 73  1  0  0  0  0
 36 79  2  0  0  0  0
 37 63  1  0  0  0  0
 37 69  1  0  0  0  0
 37 80  2  0  0  0  0
 38 64  1  0  0  0  0
 38 74  1  0  0  0  0
 38 81  2  0  0  0  0
 39 70  1  0  0  0  0
 39 75  1  0  0  0  0
 39 82  2  0  0  0  0
 40 44  1  0  0  0  0
 41 53  1  0  0  0  0
 42 69  1  0  0  0  0
 43 45  1  0  0  0  0
 44 47  1  0  0  0  0
 45 55  1  0  0  0  0
 46 48  1  0  0  0  0
 46 49  1  0  0  0  0
 47 52  1  0  0  0  0
 48 54  1  0  0  0  0
 49 70  1  0  0  0  0
 50 54  1  0  0  0  0
 50 70  1  0  0  0  0
 51 55  1  0  0  0  0
 51 68  1  0  0  0  0
 52 73  1  0  0  0  0
 53 69  1  0  0  0  0
 54 67  1  0  0  0  0
 55 84  1  0  0  0  0
 56 64  1  0  0  0  0
 57 65  1  0  0  0  0
 58 65  1  0  0  0  0
 59 65  1  0  0  0  0
 60 76  1  0  0  0  0
 61 68  1  0  0  0  0
 62 75  1  0  0  0  0
 63 65  1  0  0  0  0
 63 74  1  0  0  0  0
 64 76  1  0  0  0  0
 66 67  1  0  0  0  0
M  CHG  1  76   1
M  ISO  4  39 100  55 101  75 100  84 101
M  END
> <Batch ID>
0032

> <Smiles>
CNC(C)C(=O)NC(C(=O)N1Cc2cc([101O:1][101CH:1]3CCC(=O)N(Cc4cc(Cl)c(C[100NH:0][100C:0](=O)N5CCCC(n6nc(-c7ccc(Oc8ccc(F)cc8F)cc7)c(C(N)=O)c6N)C5)cc4Cl)C3)ccc2CC1C(=O)NC1CCCc2ccccc21)C(C)(C)C

> <Shape>
0.259

> <Color>
0.071

> <Negative vol penalty>
0.000

$$$$

  -OEChem-04042321423D

 87 96  0     1  0  0  0  0  0999 V2000
  -19.5342  -28.8696   16.2019 C   0  0  0  0  0  0  0  0  0  0  0  0
  -20.8038  -28.3095   16.2998 C   0  0  0  0  0  0  0  0  0  0  0  0
  -22.7760  -10.0474   20.1743 C   0  0  0  0  0  0  0  0  0  0  0  0
  -24.2489   -9.6168   22.0404 C   0  0  0  0  0  0  0  0  0  0  0  0
  -19.1709  -29.9216   17.0417 C   0  0  0  0  0  0  0  0  0  0  0  0
  -21.7115  -28.8019   17.2369 C   0  0  0  0  0  0  0  0  0  0  0  0
  -24.1087  -25.1125   19.7442 C   0  0  0  0  0  0  0  0  0  0  0  0
  -30.9957  -19.8889   22.6117 C   0  0  0  0  0  0  0  0  0  0  0  0
  -22.0641   -8.8843   20.4678 C   0  0  0  0  0  0  0  0  0  0  0  0
  -23.5370   -8.4537   22.3339 C   0  0  0  0  0  0  0  0  0  0  0  0
  -25.1527  -24.4673   19.0827 C   0  0  0  0  0  0  0  0  0  0  0  0
  -20.6351   -7.6290   23.8570 C   0  0  0  0  0  0  0  0  0  0  0  0
  -20.3071   -7.3912   25.1917 C   0  0  0  0  0  0  0  0  0  0  0  0
  -31.6851  -18.7842   23.1116 C   0  0  0  0  0  0  0  0  0  0  0  0
  -26.7449  -25.8175   20.2913 C   0  0  0  0  0  0  0  0  0  0  0  0
  -21.5579   -5.3251   25.1310 C   0  0  0  0  0  0  0  0  0  0  0  0
  -23.8684  -10.4136   20.9606 C   0  0  0  0  0  0  0  0  0  0  0  0
  -24.1077  -12.9314   20.6275 C   0  0  0  0  0  0  0  0  0  0  0  0
  -20.0712  -30.4207   17.9962 C   0  0  0  0  0  0  0  0  0  0  0  0
  -24.3750  -26.1243   20.6778 C   0  0  0  0  0  0  0  0  0  0  0  0
  -21.3604  -29.8624   18.0894 C   0  0  0  0  0  0  0  0  0  0  0  0
  -25.7026  -26.4722   20.9652 C   0  0  0  0  0  0  0  0  0  0  0  0
  -29.9149  -19.7048   21.7493 C   0  0  0  0  0  0  0  0  0  0  0  0
  -29.5237  -18.4160   21.3866 C   0  0  0  0  0  0  0  0  0  0  0  0
  -30.2131  -17.3113   21.8865 C   0  0  0  0  0  0  0  0  0  0  0  0
  -22.4446   -8.0875   21.5476 C   0  0  0  0  0  0  0  0  0  0  0  0
  -26.4709  -24.8218   19.3541 C   0  0  0  0  0  0  0  0  0  0  0  0
  -21.4245   -6.7148   23.1592 C   0  0  0  0  0  0  0  0  0  0  0  0
  -20.7684   -6.2393   25.8287 C   0  0  0  0  0  0  0  0  0  0  0  0
  -21.8859   -5.5628   23.7963 C   0  0  0  0  0  0  0  0  0  0  0  0
  -31.2938  -17.4954   22.7490 C   0  0  0  0  0  0  0  0  0  0  0  0
  -24.6046  -11.6146   20.6576 C   0  0  0  0  0  0  0  0  0  0  0  0
  -25.1945  -13.7009   20.2910 C   0  0  0  0  0  0  0  0  0  0  0  0
  -28.4745  -22.0201   19.1881 C   0  0  0  0  0  0  0  0  0  0  0  0
  -27.6256  -21.3930   18.3571 C   0  0  0  0  0  0  0  0  0  0  0  0
  -22.7823  -13.4158   20.8812 C   0  0  0  0  0  0  0  0  0  0  0  0
  -23.6843  -29.2198   20.8892 C   0  0  0  0  0  0  0  0  0  0  0  0
  -25.0305  -28.9209   23.8254 C   0  0  0  0  0  0  0  0  0  0  0  0
  -27.8961  -27.2559   25.2514 C   0  0  0  0  0  0  0  0  0  0  0  0
  -30.5693  -15.0457   20.8441 C   0  0  0  0  0  0  0  0  0  0  0  0
  -19.6497  -31.5904   18.8498 C   0  0  0  0  0  0  0  0  0  0  0  0
  -23.2386  -26.7920   21.4025 C   0  0  0  0  0  0  0  0  0  0  0  0
  -26.0426  -27.5379   21.9738 C   0  0  0  0  0  0  0  0  0  0  0  0
  -20.5404  -31.8058   20.0707 C   0  0  0  0  0  0  0  0  0  0  0  0
  -29.7870  -12.3681   18.6314 C   0  0  0  0  0  0  0  0  0  0  0  0
  -30.9023  -23.3062   20.0075 C   0  0  0  0  0  0  0  0  0  0  0  0
  -22.0123  -31.7332   19.6771 C   0  0  0  0  0  0  0  0  0  0  0  0
  -29.8160  -24.1186   19.3116 C   0  0  0  0  0  0  0  0  0  0  0  0
  -28.3281  -12.0417   18.9589 C   0  0  0  0  0  0  0  0  0  0  0  0
  -30.5759  -12.7549   19.8812 C   0  0  0  0  0  0  0  0  0  0  0  0
  -28.5190  -13.5019   21.0128 C   0  0  0  0  0  0  0  0  0  0  0  0
  -30.8704  -21.8450   19.5716 C   0  0  0  0  0  0  0  0  0  0  0  0
  -22.3644  -30.3526   19.1101 C   0  0  1  0  0  0  0  0  0  0  0  0
  -28.4356  -23.4960   19.5154 C   0  0  1  0  0  0  0  0  0  1  0  0
  -23.6076  -28.1648   21.9564 C   0  0  1  0  0  0  0  0  0  0  0  0
  -27.6681  -13.1695   19.7762 C   0  0  2  0  0  0  0  0  0  0  0  0
  -28.3615  -18.2275   20.4620 C   0  0  0  0  0  0  0  0  0  0  0  0
  -28.3031  -26.4161   27.5808 C   0  0  0  0  0  0  0  0  0  0  0  0
  -26.3571  -31.6339   24.2607 C   0  0  0  0  0  0  0  0  0  0  0  0
  -28.0900  -30.4847   25.6552 C   0  0  0  0  0  0  0  0  0  0  0  0
  -25.6976  -30.4462   26.3605 C   0  0  0  0  0  0  0  0  0  0  0  0
  -28.4998  -24.5242   24.2856 C   0  0  0  0  0  0  0  0  0  0  0  0
  -29.1917  -20.9106   21.2257 C   0  0  0  0  0  0  0  0  0  0  0  0
  -26.4283  -29.0558   24.3794 C   0  0  1  0  0  0  0  0  0  0  0  0
  -27.8811  -26.0456   26.1675 C   0  0  2  0  0  0  0  0  0  0  0  0
  -26.6386  -30.3971   25.1370 C   0  0  0  0  0  0  0  0  0  0  0  0
  -25.9057  -11.5476   20.3635 N   0  0  0  0  0  0  0  0  0  0  0  0
  -26.2356  -12.8320   20.1453 N   0  0  0  0  0  0  0  0  0  0  0  0
  -24.8964  -28.1660   22.6515 N   0  0  0  0  0  0  0  0  0  0  0  0
  -29.8930  -13.8313   20.6022 N   0  0  0  0  0  0  0  0  0  0  0  0
  -25.3516  -15.0292   20.1084 N   0  0  0  0  0  0  0  0  0  0  0  0
  -22.4411  -13.7731   22.1928 N   0  0  0  0  0  0  0  0  0  0  0  0
  -29.8086  -16.0068   21.5090 N   0  0  0  0  0  0  0  0  0  0  0  0
  -22.5105  -29.3891   20.1801 N   0  0  0  0  0  0  0  0  0  0  0  0
  -26.6616  -27.8672   25.1926 N   0  0  0  0  0  0  0  0  0  0  0  0
  -29.5146  -21.2135   19.7884 N   0  3  1  0  0  0  0  0  0  0  0  0
  -28.8118  -24.9989   25.6583 N   0  3  0  0  0  0  0  0  0  0  0  0
  -21.9208  -13.5129   19.9747 O   0  0  0  0  0  0  0  0  0  0  0  0
  -24.7306  -29.8357   20.7227 O   0  0  0  0  0  0  0  0  0  0  0  0
  -24.0912  -29.4593   24.4165 O   0  0  0  0  0  0  0  0  0  0  0  0
  -28.9032  -27.6245   24.6510 O   0  0  0  0  0  0  0  0  0  0  0  0
  -31.7283  -15.2300   20.4635 O   0  0  0  0  0  0  0  0  0  0  0  0
  -21.7500   -6.9527   21.8344 O   0  0  0  0  0  0  0  0  0  0  0  0
  -27.4918  -24.1941   18.7093 O   0  0  0  0  0  0  0  0  0  1  0  0
  -20.4546   -6.0118   27.1109 F   0  0  0  0  0  0  0  0  0  0  0  0
  -22.6456   -4.6815   23.1315 F   0  0  0  0  0  0  0  0  0  0  0  0
  -32.1755  -16.1578   23.3974 Cl  0  0  0  0  0  0  0  0  0  0  0  0
  1  2  1  0  0  0  0
  1  5  2  0  0  0  0
  2  6  2  0  0  0  0
  3  9  2  0  0  0  0
  3 17  1  0  0  0  0
  4 10  1  0  0  0  0
  4 17  2  0  0  0  0
  5 19  1  0  0  0  0
  6 21  1  0  0  0  0
  7 11  2  0  0  0  0
  7 20  1  0  0  0  0
  8 14  2  0  0  0  0
  8 23  1  0  0  0  0
  9 26  1  0  0  0  0
 10 26  2  0  0  0  0
 11 27  1  0  0  0  0
 12 13  2  0  0  0  0
 12 28  1  0  0  0  0
 13 29  1  0  0  0  0
 14 31  1  0  0  0  0
 15 22  1  0  0  0  0
 15 27  2  0  0  0  0
 16 29  2  0  0  0  0
 16 30  1  0  0  0  0
 17 32  1  0  0  0  0
 18 32  1  0  0  0  0
 18 33  2  0  0  0  0
 18 36  1  0  0  0  0
 19 21  2  0  0  0  0
 19 41  1  0  0  0  0
 20 22  2  0  0  0  0
 20 42  1  0  0  0  0
 21 53  1  0  0  0  0
 22 43  1  0  0  0  0
 23 24  2  0  0  0  0
 23 63  1  0  0  0  0
 24 25  1  0  0  0  0
 24 57  1  0  0  0  0
 25 31  2  0  0  0  0
 25 73  1  0  0  0  0
 26 83  1  0  0  0  0
 27 84  1  0  0  0  0
 28 30  2  0  0  0  0
 28 83  1  0  0  0  0
 29 85  1  0  0  0  0
 30 86  1  0  0  0  0
 31 87  1  0  0  0  0
 32 67  2  0  0  0  0
 33 68  1  0  0  0  0
 33 71  1  0  0  0  0
 34 35  2  0  0  0  0
 34 54  1  0  0  0  0
 34 76  1  0  0  0  0
 36 72  1  0  0  0  0
 36 78  2  0  0  0  0
 37 55  1  0  0  0  0
 37 74  1  0  0  0  0
 37 79  2  0  0  0  0
 38 64  1  0  0  0  0
 38 69  1  0  0  0  0
 38 80  2  0  0  0  0
 39 65  1  0  0  0  0
 39 75  1  0  0  0  0
 39 81  2  0  0  0  0
 40 70  1  0  0  0  0
 40 73  1  0  0  0  0
 40 82  2  0  0  0  0
 41 44  1  0  0  0  0
 42 55  1  0  0  0  0
 43 69  1  0  0  0  0
 44 47  1  0  0  0  0
 45 49  1  0  0  0  0
 45 50  1  0  0  0  0
 46 48  1  0  0  0  0
 46 52  1  0  0  0  0
 47 53  1  0  0  0  0
 48 54  1  0  0  0  0
 49 56  1  0  0  0  0
 50 70  1  0  0  0  0
 51 56  1  0  0  0  0
 51 70  1  0  0  0  0
 52 76  1  0  0  0  0
 53 74  1  0  0  0  0
 54 84  1  0  0  0  0
 55 69  1  0  0  0  0
 56 68  1  0  0  0  0
 58 65  1  0  0  0  0
 59 66  1  0  0  0  0
 60 66  1  0  0  0  0
 61 66  1  0  0  0  0
 62 77  1  0  0  0  0
 63 76  1  0  0  0  0
 64 66  1  0  0  0  0
 64 75  1  0  0  0  0
 65 77  1  0  0  0  0
 67 68  1  0  0  0  0
M  CHG  2  76   1  77   1
M  ISO  4  40 100  54 101  73 100  84 101
M  END
> <Batch ID>
0032

> <Smiles>
C=C1N(Cc2ccc(Cl)c([100NH:0][100C:0](=O)N3CCCC(n4nc(-c5ccc(Oc6ccc(F)cc6F)cc5)c(C(N)=O)c4N)C3)c2C)CCC[101CH:1]1[101O:1]c1ccc2c(c1)CN(C(=O)C(NC(=O)C(C)NC)C(C)(C)C)C(C(=O)NC1CCCc3ccccc31)C2

> <Shape>
0.320

> <Color>
0.172

> <Negative vol penalty>
0.000

$$$$

  -OEChem-04042321423D

 86 95  0     1  0  0  0  0  0999 V2000
  -36.2824  -30.9606   19.0083 C   0  0  0  0  0  0  0  0  0  0  0  0
  -35.7999  -29.9989   19.8903 C   0  0  0  0  0  0  0  0  0  0  0  0
  -23.0366   -9.9270   19.9030 C   0  0  0  0  0  0  0  0  0  0  0  0
  -23.8283   -9.8260   22.1833 C   0  0  0  0  0  0  0  0  0  0  0  0
  -35.5386  -31.3066   17.8809 C   0  0  0  0  0  0  0  0  0  0  0  0
  -34.5728  -29.3834   19.6458 C   0  0  0  0  0  0  0  0  0  0  0  0
  -34.7407  -24.3704   20.3439 C   0  0  0  0  0  0  0  0  0  0  0  0
  -32.8064  -17.2203   23.5794 C   0  0  0  0  0  0  0  0  0  0  0  0
  -32.1866  -16.3859   22.6491 C   0  0  0  0  0  0  0  0  0  0  0  0
  -22.2744   -8.7786   20.1167 C   0  0  0  0  0  0  0  0  0  0  0  0
  -23.0660   -8.6776   22.3971 C   0  0  0  0  0  0  0  0  0  0  0  0
  -34.7020  -23.9091   21.6590 C   0  0  0  0  0  0  0  0  0  0  0  0
  -19.8319   -7.9158   23.0140 C   0  0  0  0  0  0  0  0  0  0  0  0
  -19.0906   -7.8420   24.1932 C   0  0  0  0  0  0  0  0  0  0  0  0
  -32.3518  -23.4239   21.4132 C   0  0  0  0  0  0  0  0  0  0  0  0
  -20.3049   -5.8533   24.8320 C   0  0  0  0  0  0  0  0  0  0  0  0
  -23.8136  -10.4507   20.9363 C   0  0  0  0  0  0  0  0  0  0  0  0
  -24.2020  -12.9718   20.9140 C   0  0  0  0  0  0  0  0  0  0  0  0
  -34.3063  -30.6880   17.6174 C   0  0  0  0  0  0  0  0  0  0  0  0
  -33.5808  -24.3722   19.5558 C   0  0  0  0  0  0  0  0  0  0  0  0
  -33.8112  -29.7224   18.5145 C   0  0  0  0  0  0  0  0  0  0  0  0
  -32.3790  -23.8835   20.0876 C   0  0  0  0  0  0  0  0  0  0  0  0
  -32.0379  -18.0711   24.3740 C   0  0  0  0  0  0  0  0  0  0  0  0
  -30.6498  -18.0876   24.2382 C   0  0  0  0  0  0  0  0  0  0  0  0
  -30.7985  -16.4025   22.5133 C   0  0  0  0  0  0  0  0  0  0  0  0
  -22.2890   -8.1539   21.3638 C   0  0  0  0  0  0  0  0  0  0  0  0
  -33.5068  -23.4384   22.1947 C   0  0  0  0  0  0  0  0  0  0  0  0
  -20.8096   -6.9583   22.7436 C   0  0  0  0  0  0  0  0  0  0  0  0
  -19.3271   -6.8108   25.1023 C   0  0  0  0  0  0  0  0  0  0  0  0
  -21.0461   -5.9271   23.6527 C   0  0  0  0  0  0  0  0  0  0  0  0
  -30.0301  -17.2533   23.3078 C   0  0  0  0  0  0  0  0  0  0  0  0
  -24.6017  -11.6366   20.7159 C   0  0  0  0  0  0  0  0  0  0  0  0
  -25.3031  -13.7152   20.5655 C   0  0  0  0  0  0  0  0  0  0  0  0
  -33.4818  -21.2279   25.8731 C   0  0  0  0  0  0  0  0  0  0  0  0
  -32.9647  -21.4781   27.0818 C   0  0  0  0  0  0  0  0  0  0  0  0
  -22.9476  -13.4936   21.3721 C   0  0  0  0  0  0  0  0  0  0  0  0
  -31.8485  -26.6168   18.1190 C   0  0  0  0  0  0  0  0  0  0  0  0
  -30.2513  -24.0634   16.9144 C   0  0  0  0  0  0  0  0  0  0  0  0
  -29.0612  -20.8850   18.1388 C   0  0  0  0  0  0  0  0  0  0  0  0
  -30.7902  -14.6512   20.7024 C   0  0  0  0  0  0  0  0  0  0  0  0
  -33.5160  -31.1290   16.4109 C   0  0  0  0  0  0  0  0  0  0  0  0
  -33.6452  -24.8483   18.1304 C   0  0  0  0  0  0  0  0  0  0  0  0
  -31.1104  -23.8453   19.2766 C   0  0  0  0  0  0  0  0  0  0  0  0
  -34.6756  -21.9099   25.2811 C   0  0  0  0  0  0  0  0  0  0  0  0
  -32.4013  -30.1599   16.0255 C   0  0  0  0  0  0  0  0  0  0  0  0
  -29.5971  -12.3574   18.2546 C   0  0  0  0  0  0  0  0  0  0  0  0
  -31.6050  -29.7445   17.2584 C   0  0  0  0  0  0  0  0  0  0  0  0
  -28.1582  -12.0752   18.6930 C   0  0  0  0  0  0  0  0  0  0  0  0
  -30.5330  -12.5198   19.4510 C   0  0  0  0  0  0  0  0  0  0  0  0
  -28.6596  -13.2224   20.8884 C   0  0  0  0  0  0  0  0  0  0  0  0
  -33.5367  -20.5879   23.6209 C   0  0  0  0  0  0  0  0  0  0  0  0
  -32.4962  -29.0144   18.2705 C   0  0  1  0  0  0  0  0  0  0  0  0
  -32.2890  -25.2836   17.5840 C   0  0  1  0  0  0  0  0  0  0  0  0
  -27.6674  -13.1156   19.7189 C   0  0  2  0  0  0  0  0  0  0  0  0
  -34.3075  -21.8873   23.8058 C   0  0  1  0  0  0  0  0  0  1  0  0
  -29.8100  -18.9914   25.0802 C   0  0  0  0  0  0  0  0  0  0  0  0
  -28.6420  -18.7251   16.9320 C   0  0  0  0  0  0  0  0  0  0  0  0
  -27.3834  -25.0807   16.6901 C   0  0  0  0  0  0  0  0  0  0  0  0
  -26.5952  -22.7370   17.0827 C   0  0  0  0  0  0  0  0  0  0  0  0
  -27.9762  -23.2665   15.0740 C   0  0  0  0  0  0  0  0  0  0  0  0
  -30.8368  -19.3833   19.9694 C   0  0  0  0  0  0  0  0  0  0  0  0
  -32.7274  -18.9593   25.3673 C   0  0  0  0  0  0  0  0  0  0  0  0
  -29.0660  -23.2388   17.3551 C   0  0  1  0  0  0  0  0  0  0  0  0
  -29.6145  -19.5138   17.7951 C   0  0  2  0  0  0  0  0  0  0  0  0
  -27.7722  -23.5936   16.5693 C   0  0  0  0  0  0  0  0  0  0  0  0
  -25.8586  -11.5345   20.2756 N   0  0  0  0  0  0  0  0  0  0  0  0
  -26.2581  -12.8151   20.1940 N   0  0  0  0  0  0  0  0  0  0  0  0
  -31.2230  -24.3275   17.8901 N   0  0  0  0  0  0  0  0  0  0  0  0
  -30.0061  -13.5241   20.3776 N   0  0  0  0  0  0  0  0  0  0  0  0
  -25.5380  -15.0444   20.5436 N   0  0  0  0  0  0  0  0  0  0  0  0
  -21.9232  -12.5903   21.6870 N   0  0  0  0  0  0  0  0  0  0  0  0
  -30.1721  -15.5538   21.5672 N   0  0  0  0  0  0  0  0  0  0  0  0
  -32.7264  -27.6493   17.8488 N   0  0  0  0  0  0  0  0  0  0  0  0
  -29.4732  -21.8429   17.2366 N   0  0  0  0  0  0  0  0  0  0  0  0
  -32.7828  -20.3933   24.9338 N   0  3  1  0  0  0  0  0  0  0  0  0
  -29.8779  -18.7351   19.0381 N   0  3  0  0  0  0  0  0  0  0  0  0
  -22.7357  -14.7250   21.4829 O   0  0  0  0  0  0  0  0  0  0  0  0
  -30.7899  -26.7028   18.7302 O   0  0  0  0  0  0  0  0  0  0  0  0
  -30.3162  -24.4526   15.7457 O   0  0  0  0  0  0  0  0  0  0  0  0
  -28.3331  -21.0856   19.1084 O   0  0  0  0  0  0  0  0  0  0  0  0
  -31.9157  -14.8179   20.2255 O   0  0  0  0  0  0  0  0  0  0  0  0
  -21.5452   -7.0334   21.5728 O   0  0  0  0  0  0  0  0  0  0  0  0
  -33.4661  -22.9881   23.4783 O   0  0  0  0  0  0  0  0  0  1  0  0
  -18.6163   -6.7409   26.2354 F   0  0  0  0  0  0  0  0  0  0  0  0
  -21.9848   -5.0050   23.3990 F   0  0  0  0  0  0  0  0  0  0  0  0
  -28.6948  -17.2702   23.1779 F   0  0  0  0  0  0  0  0  0  0  0  0
  1  2  1  0  0  0  0
  1  5  2  0  0  0  0
  2  6  2  0  0  0  0
  3 10  2  0  0  0  0
  3 17  1  0  0  0  0
  4 11  1  0  0  0  0
  4 17  2  0  0  0  0
  5 19  1  0  0  0  0
  6 21  1  0  0  0  0
  7 12  2  0  0  0  0
  7 20  1  0  0  0  0
  8  9  2  0  0  0  0
  8 23  1  0  0  0  0
  9 25  1  0  0  0  0
 10 26  1  0  0  0  0
 11 26  2  0  0  0  0
 12 27  1  0  0  0  0
 13 14  2  0  0  0  0
 13 28  1  0  0  0  0
 14 29  1  0  0  0  0
 15 22  1  0  0  0  0
 15 27  2  0  0  0  0
 16 29  2  0  0  0  0
 16 30  1  0  0  0  0
 17 32  1  0  0  0  0
 18 32  1  0  0  0  0
 18 33  2  0  0  0  0
 18 36  1  0  0  0  0
 19 21  2  0  0  0  0
 19 41  1  0  0  0  0
 20 22  2  0  0  0  0
 20 42  1  0  0  0  0
 21 52  1  0  0  0  0
 22 43  1  0  0  0  0
 23 24  2  0  0  0  0
 23 62  1  0  0  0  0
 24 31  1  0  0  0  0
 24 56  1  0  0  0  0
 25 31  2  0  0  0  0
 25 72  1  0  0  0  0
 26 82  1  0  0  0  0
 27 83  1  0  0  0  0
 28 30  2  0  0  0  0
 28 82  1  0  0  0  0
 29 84  1  0  0  0  0
 30 85  1  0  0  0  0
 31 86  1  0  0  0  0
 32 66  2  0  0  0  0
 33 67  1  0  0  0  0
 33 70  1  0  0  0  0
 34 35  2  0  0  0  0
 34 44  1  0  0  0  0
 34 75  1  0  0  0  0
 36 71  1  0  0  0  0
 36 77  2  0  0  0  0
 37 53  1  0  0  0  0
 37 73  1  0  0  0  0
 37 78  2  0  0  0  0
 38 63  1  0  0  0  0
 38 68  1  0  0  0  0
 38 79  2  0  0  0  0
 39 64  1  0  0  0  0
 39 74  1  0  0  0  0
 39 80  2  0  0  0  0
 40 69  1  0  0  0  0
 40 72  1  0  0  0  0
 40 81  2  0  0  0  0
 41 45  1  0  0  0  0
 42 53  1  0  0  0  0
 43 68  1  0  0  0  0
 44 55  1  0  0  0  0
 45 47  1  0  0  0  0
 46 48  1  0  0  0  0
 46 49  1  0  0  0  0
 47 52  1  0  0  0  0
 48 54  1  0  0  0  0
 49 69  1  0  0  0  0
 50 54  1  0  0  0  0
 50 69  1  0  0  0  0
 51 55  1  0  0  0  0
 51 75  1  0  0  0  0
 52 73  1  0  0  0  0
 53 68  1  0  0  0  0
 54 67  1  0  0  0  0
 55 83  1  0  0  0  0
 57 64  1  0  0  0  0
 58 65  1  0  0  0  0
 59 65  1  0  0  0  0
 60 65  1  0  0  0  0
 61 76  1  0  0  0  0
 62 75  1  0  0  0  0
 63 65  1  0  0  0  0
 63 74  1  0  0  0  0
 64 76  1  0  0  0  0
 66 67  1  0  0  0  0
M  CHG  2  75   1  76   1
M  ISO  4  40 100  55 101  72 100  83 101
M  END
> <Batch ID>
0032

> <Smiles>
C=C1C[101CH:1]([101O:1]c2ccc3c(c2)CN(C(=O)C(NC(=O)C(C)NC)C(C)(C)C)C(C(=O)NC2CCCc4ccccc42)C3)CN1Cc1ccc([100NH:0][100C:0](=O)N2CCCC(n3nc(-c4ccc(Oc5ccc(F)cc5F)cc4)c(C(N)=O)c3N)C2)c(F)c1C

> <Shape>
0.225

> <Color>
0.191

> <Negative vol penalty>
0.000

$$$$

  -OEChem-04042321423D

 81 89  0     1  0  0  0  0  0999 V2000
  -27.2269  -30.6421   28.4414 C   0  0  0  0  0  0  0  0  0  0  0  0
  -28.0336  -29.5339   28.6789 C   0  0  0  0  0  0  0  0  0  0  0  0
  -23.2284   -9.7453   19.9502 C   0  0  0  0  0  0  0  0  0  0  0  0
  -23.5917   -9.9781   22.3274 C   0  0  0  0  0  0  0  0  0  0  0  0
  -26.2807  -30.6077   27.4179 C   0  0  0  0  0  0  0  0  0  0  0  0
  -27.8937  -28.3900   27.8937 C   0  0  0  0  0  0  0  0  0  0  0  0
  -31.7311  -23.0003   25.1473 C   0  0  0  0  0  0  0  0  0  0  0  0
  -32.7169  -16.7729   24.0868 C   0  0  0  0  0  0  0  0  0  0  0  0
  -32.6362  -15.4018   23.8436 C   0  0  0  0  0  0  0  0  0  0  0  0
  -22.4911   -8.5831   20.1767 C   0  0  0  0  0  0  0  0  0  0  0  0
  -22.8543   -8.8159   22.5539 C   0  0  0  0  0  0  0  0  0  0  0  0
  -31.7382  -21.6077   25.0809 C   0  0  0  0  0  0  0  0  0  0  0  0
  -23.3428   -5.4765   22.3517 C   0  0  0  0  0  0  0  0  0  0  0  0
  -23.8620   -4.5443   23.2500 C   0  0  0  0  0  0  0  0  0  0  0  0
  -30.1246  -21.6910   23.2896 C   0  0  0  0  0  0  0  0  0  0  0  0
  -21.8935   -4.7785   24.6310 C   0  0  0  0  0  0  0  0  0  0  0  0
  -23.7788  -10.4427   21.0256 C   0  0  0  0  0  0  0  0  0  0  0  0
  -24.0534  -12.9625   20.7377 C   0  0  0  0  0  0  0  0  0  0  0  0
  -26.1358  -29.4663   26.6136 C   0  0  0  0  0  0  0  0  0  0  0  0
  -30.9111  -23.7496   24.2913 C   0  0  0  0  0  0  0  0  0  0  0  0
  -26.9438  -28.3398   26.8594 C   0  0  0  0  0  0  0  0  0  0  0  0
  -30.1108  -23.0930   23.3455 C   0  0  0  0  0  0  0  0  0  0  0  0
  -31.6778  -17.4261   24.7496 C   0  0  0  0  0  0  0  0  0  0  0  0
  -31.5162  -14.6839   24.2631 C   0  0  0  0  0  0  0  0  0  0  0  0
  -30.5579  -16.7082   25.1691 C   0  0  0  0  0  0  0  0  0  0  0  0
  -22.3040   -8.1184   21.4785 C   0  0  0  0  0  0  0  0  0  0  0  0
  -30.9328  -20.9527   24.1539 C   0  0  0  0  0  0  0  0  0  0  0  0
  -22.0989   -6.0598   22.5931 C   0  0  0  0  0  0  0  0  0  0  0  0
  -23.1374   -4.1953   24.3897 C   0  0  0  0  0  0  0  0  0  0  0  0
  -21.3742   -5.7108   23.7327 C   0  0  0  0  0  0  0  0  0  0  0  0
  -30.4771  -15.3371   24.9259 C   0  0  0  0  0  0  0  0  0  0  0  0
  -24.5410  -11.6430   20.7922 C   0  0  0  0  0  0  0  0  0  0  0  0
  -25.1661  -13.7299   20.4934 C   0  0  0  0  0  0  0  0  0  0  0  0
  -22.7145  -13.4510   20.8941 C   0  0  0  0  0  0  0  0  0  0  0  0
  -28.4917  -25.7698   24.7025 C   0  0  0  0  0  0  0  0  0  0  0  0
  -28.7925  -26.1714   21.4978 C   0  0  0  0  0  0  0  0  0  0  0  0
  -29.8357  -24.9065   18.5047 C   0  0  0  0  0  0  0  0  0  0  0  0
  -31.0000  -12.9094   21.5625 C   0  0  0  0  0  0  0  0  0  0  0  0
  -25.0668  -29.4589   25.5497 C   0  0  0  0  0  0  0  0  0  0  0  0
  -30.9349  -25.2520   24.3575 C   0  0  0  0  0  0  0  0  0  0  0  0
  -29.2277  -23.8520   22.3902 C   0  0  0  0  0  0  0  0  0  0  0  0
  -25.2390  -28.3444   24.5210 C   0  0  0  0  0  0  0  0  0  0  0  0
  -29.4681  -13.5306   18.4091 C   0  0  0  0  0  0  0  0  0  0  0  0
  -25.5317  -27.0179   25.2149 C   0  0  0  0  0  0  0  0  0  0  0  0
  -27.9876  -13.2363   18.6574 C   0  0  0  0  0  0  0  0  0  0  0  0
  -30.3714  -12.5781   19.1894 C   0  0  0  0  0  0  0  0  0  0  0  0
  -28.6200  -12.2206   20.8861 C   0  0  0  0  0  0  0  0  0  0  0  0
  -26.8391  -27.0896   26.0131 C   0  0  1  0  0  0  0  0  0  0  0  0
  -29.6754  -25.8953   23.7855 C   0  0  1  0  0  0  0  0  0  0  0  0
  -27.6699  -13.1913   20.1641 C   0  0  2  0  0  0  0  0  0  0  0  0
  -29.4533  -17.4298   25.8772 C   0  0  0  0  0  0  0  0  0  0  0  0
  -29.9121  -25.4493   16.0558 C   0  0  0  0  0  0  0  0  0  0  0  0
  -25.8203  -25.5226   21.2637 C   0  0  0  0  0  0  0  0  0  0  0  0
  -26.1668  -25.1458   18.8129 C   0  0  0  0  0  0  0  0  0  0  0  0
  -26.5975  -27.3957   19.8003 C   0  0  0  0  0  0  0  0  0  0  0  0
  -32.7934  -24.8112   18.4574 C   0  0  0  0  0  0  0  0  0  0  0  0
  -31.4732  -13.2165   23.9793 C   0  0  0  0  0  0  0  0  0  0  0  0
  -31.7915  -18.9016   24.9973 C   0  0  0  0  0  0  0  0  0  1  0  0
  -28.2061  -25.5043   20.2770 C   0  0  1  0  0  0  0  0  0  0  0  0
  -30.6531  -25.5196   17.3820 C   0  0  2  0  0  0  0  0  0  0  0  0
  -26.7127  -25.8774   20.0576 C   0  0  0  0  0  0  0  0  0  0  0  0
  -25.8606  -11.5724   20.5979 N   0  0  0  0  0  0  0  0  0  0  0  0
  -26.2117  -12.8573   20.4189 N   0  0  0  0  0  0  0  0  0  0  0  0
  -29.2812  -25.3193   22.4983 N   0  0  0  0  0  0  0  0  0  0  0  0
  -30.0191  -12.5836   20.6113 N   0  0  0  0  0  0  0  0  0  0  0  0
  -25.3423  -15.0591   20.3370 N   0  0  0  0  0  0  0  0  0  0  0  0
  -21.6905  -12.5263   21.1404 N   0  0  0  0  0  0  0  0  0  0  0  0
  -27.9785  -26.9803   25.1276 N   0  0  0  0  0  0  0  0  0  0  0  0
  -29.0793  -25.8538   19.1618 N   0  0  0  0  0  0  0  0  0  0  0  0
  -30.5809  -12.8971   22.8872 N   0  0  0  0  0  0  0  0  0  0  0  0
  -31.9506  -24.8014   17.2340 N   0  3  0  0  0  0  0  0  0  0  0  0
  -22.4320  -14.6696   20.8013 O   0  0  0  0  0  0  0  0  0  0  0  0
  -28.0741  -24.6571   25.0011 O   0  0  0  0  0  0  0  0  0  0  0  0
  -28.8226  -27.4031   21.5581 O   0  0  0  0  0  0  0  0  0  0  0  0
  -29.8625  -23.7067   18.7696 O   0  0  0  0  0  0  0  0  0  0  0  0
  -32.1618  -13.1955   21.2536 O   0  0  0  0  0  0  0  0  0  0  0  0
  -21.5844   -6.9845   21.6999 O   0  0  0  0  0  0  0  0  0  0  0  0
  -30.9374  -19.5935   24.0874 O   0  0  0  0  0  0  0  0  0  1  0  0
  -23.6355   -3.2989   25.2514 F   0  0  0  0  0  0  0  0  0  0  0  0
  -20.1782   -6.2669   23.9693 F   0  0  0  0  0  0  0  0  0  0  0  0
  -29.0859  -14.4428   25.4416 Cl  0  0  0  0  0  0  0  0  0  0  0  0
  1  2  1  0  0  0  0
  1  5  2  0  0  0  0
  2  6  2  0  0  0  0
  3 10  2  0  0  0  0
  3 17  1  0  0  0  0
  4 11  1  0  0  0  0
  4 17  2  0  0  0  0
  5 19  1  0  0  0  0
  6 21  1  0  0  0  0
  7 12  2  0  0  0  0
  7 20  1  0  0  0  0
  8  9  2  0  0  0  0
  8 23  1  0  0  0  0
  9 24  1  0  0  0  0
 10 26  1  0  0  0  0
 11 26  2  0  0  0  0
 12 27  1  0  0  0  0
 13 14  2  0  0  0  0
 13 28  1  0  0  0  0
 14 29  1  0  0  0  0
 15 22  1  0  0  0  0
 15 27  2  0  0  0  0
 16 29  2  0  0  0  0
 16 30  1  0  0  0  0
 17 32  1  0  0  0  0
 18 32  1  0  0  0  0
 18 33  2  0  0  0  0
 18 34  1  0  0  0  0
 19 21  2  0  0  0  0
 19 39  1  0  0  0  0
 20 22  2  0  0  0  0
 20 40  1  0  0  0  0
 21 48  1  0  0  0  0
 22 41  1  0  0  0  0
 23 25  2  0  0  0  0
 23 58  1  0  0  0  0
 24 31  2  0  0  0  0
 24 57  1  0  0  0  0
 25 31  1  0  0  0  0
 25 51  1  0  0  0  0
 26 77  1  0  0  0  0
 27 78  1  0  0  0  0
 28 30  2  0  0  0  0
 28 77  1  0  0  0  0
 29 79  1  0  0  0  0
 30 80  1  0  0  0  0
 31 81  1  0  0  0  0
 32 62  2  0  0  0  0
 33 63  1  0  0  0  0
 33 66  1  0  0  0  0
 34 67  1  0  0  0  0
 34 72  2  0  0  0  0
 35 49  1  0  0  0  0
 35 68  1  0  0  0  0
 35 73  2  0  0  0  0
 36 59  1  0  0  0  0
 36 64  1  0  0  0  0
 36 74  2  0  0  0  0
 37 60  1  0  0  0  0
 37 69  1  0  0  0  0
 37 75  2  0  0  0  0
 38 65  1  0  0  0  0
 38 70  1  0  0  0  0
 38 76  2  0  0  0  0
 39 42  1  0  0  0  0
 40 49  1  0  0  0  0
 41 64  1  0  0  0  0
 42 44  1  0  0  0  0
 43 45  1  0  0  0  0
 43 46  1  0  0  0  0
 44 48  1  0  0  0  0
 45 50  1  0  0  0  0
 46 65  1  0  0  0  0
 47 50  1  0  0  0  0
 47 65  1  0  0  0  0
 48 68  1  0  0  0  0
 49 64  1  0  0  0  0
 50 63  1  0  0  0  0
 52 60  1  0  0  0  0
 53 61  1  0  0  0  0
 54 61  1  0  0  0  0
 55 61  1  0  0  0  0
 56 71  1  0  0  0  0
 57 70  1  0  0  0  0
 58 78  1  0  0  0  0
 59 61  1  0  0  0  0
 59 69  1  0  0  0  0
 60 71  1  0  0  0  0
 62 63  1  0  0  0  0
M  CHG  1  71   1
M  ISO  4  38 100  58 101  70 100  78 101
M  END
> <Batch ID>
0032

> <Smiles>
CNC(C)C(=O)NC(C(=O)N1Cc2cc([101O:1][101CH2:1]c3ccc(C[100NH:0][100C:0](=O)N4CCCC(n5nc(-c6ccc(Oc7ccc(F)cc7F)cc6)c(C(N)=O)c5N)C4)c(Cl)c3C)ccc2CC1C(=O)NC1CCCc2ccccc21)C(C)(C)C

> <Shape>
0.216

> <Color>
0.197

> <Negative vol penalty>
0.000

$$$$

  -OEChem-04042321423D

 87 96  0     1  0  0  0  0  0999 V2000
  -16.3545  -29.6401   23.6743 C   0  0  0  0  0  0  0  0  0  0  0  0
  -16.9512  -29.2304   22.4873 C   0  0  0  0  0  0  0  0  0  0  0  0
  -27.0896  -12.3957   18.4899 C   0  0  0  0  0  0  0  0  0  0  0  0
  -26.3743  -13.0274   20.7094 C   0  0  0  0  0  0  0  0  0  0  0  0
  -17.1446  -30.1105   24.7210 C   0  0  0  0  0  0  0  0  0  0  0  0
  -18.3389  -29.2797   22.3509 C   0  0  0  0  0  0  0  0  0  0  0  0
  -25.4147  -28.4921   18.8102 C   0  0  0  0  0  0  0  0  0  0  0  0
  -25.9102  -11.6714   18.3159 C   0  0  0  0  0  0  0  0  0  0  0  0
  -25.1949  -12.3032   20.5355 C   0  0  0  0  0  0  0  0  0  0  0  0
  -26.7428  -28.9116   18.8725 C   0  0  0  0  0  0  0  0  0  0  0  0
  -24.2169   -9.0690   20.6541 C   0  0  0  0  0  0  0  0  0  0  0  0
  -23.7994   -8.2489   21.7023 C   0  0  0  0  0  0  0  0  0  0  0  0
  -26.8711  -28.1463   21.1566 C   0  0  0  0  0  0  0  0  0  0  0  0
  -29.8089  -24.9118   16.8491 C   0  0  0  0  0  0  0  0  0  0  0  0
  -28.8924  -22.7702   17.4898 C   0  0  0  0  0  0  0  0  0  0  0  0
  -21.7405   -9.5028   21.8632 C   0  0  0  0  0  0  0  0  0  0  0  0
  -27.3216  -13.0736   19.6867 C   0  0  0  0  0  0  0  0  0  0  0  0
  -29.8566  -13.3251   19.8227 C   0  0  0  0  0  0  0  0  0  0  0  0
  -18.5417  -30.1769   24.5920 C   0  0  0  0  0  0  0  0  0  0  0  0
  -24.8005  -27.9055   19.9261 C   0  0  0  0  0  0  0  0  0  0  0  0
  -19.1554  -29.7288   23.4046 C   0  0  0  0  0  0  0  0  0  0  0  0
  -25.5359  -27.7179   21.1051 C   0  0  0  0  0  0  0  0  0  0  0  0
  -30.7607  -24.8079   17.8634 C   0  0  0  0  0  0  0  0  0  0  0  0
  -30.7785  -23.6852   18.6909 C   0  0  0  0  0  0  0  0  0  0  0  0
  -29.8443  -22.6663   18.5041 C   0  0  0  0  0  0  0  0  0  0  0  0
  -24.9629  -11.6252   19.3387 C   0  0  0  0  0  0  0  0  0  0  0  0
  -27.4704  -28.7414   20.0467 C   0  0  0  0  0  0  0  0  0  0  0  0
  -23.3963  -10.1060   20.2105 C   0  0  0  0  0  0  0  0  0  0  0  0
  -22.5612   -8.4658   22.3069 C   0  0  0  0  0  0  0  0  0  0  0  0
  -22.1581  -10.3229   20.8150 C   0  0  0  0  0  0  0  0  0  0  0  0
  -28.8747  -23.8929   16.6623 C   0  0  0  0  0  0  0  0  0  0  0  0
  -28.5399  -13.8214   19.8672 C   0  0  0  0  0  0  0  0  0  0  0  0
  -30.6461  -14.4252   20.0525 C   0  0  0  0  0  0  0  0  0  0  0  0
  -32.3770  -26.9008   20.2161 C   0  0  0  0  0  0  0  0  0  0  0  0
  -30.3240  -11.9891   19.5939 C   0  0  0  0  0  0  0  0  0  0  0  0
  -22.3258  -28.6526   21.7757 C   0  0  0  0  0  0  0  0  0  0  0  0
  -22.9239  -25.7449   23.0833 C   0  0  0  0  0  0  0  0  0  0  0  0
  -25.8316  -23.8399   24.0496 C   0  0  0  0  0  0  0  0  0  0  0  0
  -29.4417  -20.2214   18.9992 C   0  0  0  0  0  0  0  0  0  0  0  0
  -19.3495  -30.6870   25.7593 C   0  0  0  0  0  0  0  0  0  0  0  0
  -23.3752  -27.4339   19.8342 C   0  0  0  0  0  0  0  0  0  0  0  0
  -24.9290  -27.0751   22.3245 C   0  0  0  0  0  0  0  0  0  0  0  0
  -31.9522  -27.7195   21.4205 C   0  0  0  0  0  0  0  0  0  0  0  0
  -20.7583  -31.1178   25.3645 C   0  0  0  0  0  0  0  0  0  0  0  0
  -30.9205  -28.7861   21.1199 C   0  0  0  0  0  0  0  0  0  0  0  0
  -29.7780  -18.5464   22.4351 C   0  0  0  0  0  0  0  0  0  0  0  0
  -21.4215  -30.0285   24.5349 C   0  0  0  0  0  0  0  0  0  0  0  0
  -30.3205  -17.1864   22.0021 C   0  0  0  0  0  0  0  0  0  0  0  0
  -30.0533  -19.6331   21.4034 C   0  0  0  0  0  0  0  0  0  0  0  0
  -29.1588  -17.8977   19.8400 C   0  0  0  0  0  0  0  0  0  0  0  0
  -30.2264  -27.5599   19.0836 C   0  0  0  0  0  0  0  0  0  0  0  0
  -20.6606  -29.8022   23.2223 C   0  0  1  0  0  0  0  0  0  0  0  0
  -22.6956  -27.3171   21.1950 C   0  0  1  0  0  0  0  0  0  0  0  0
  -30.1484  -16.9205   20.4935 C   0  0  2  0  0  0  0  0  0  0  0  0
  -29.7457  -28.1583   20.3940 C   0  0  2  0  0  0  0  0  0  1  0  0
  -31.8016  -23.5780   19.7778 C   0  0  0  0  0  0  0  0  0  0  0  0
  -26.1747  -21.3598   24.2193 C   0  0  0  0  0  0  0  0  0  0  0  0
  -22.1718  -26.1336   26.0148 C   0  0  0  0  0  0  0  0  0  0  0  0
  -23.9074  -24.4314   26.6135 C   0  0  0  0  0  0  0  0  0  0  0  0
  -21.9660  -23.7823   25.1878 C   0  0  0  0  0  0  0  0  0  0  0  0
  -28.1727  -23.9230   22.2409 C   0  0  0  0  0  0  0  0  0  0  0  0
  -31.7549  -25.9186   18.0430 C   0  0  0  0  0  0  0  0  0  0  0  0
  -23.7886  -25.2377   24.2121 C   0  0  1  0  0  0  0  0  0  0  0  0
  -26.3753  -22.6001   23.3626 C   0  0  2  0  0  0  0  0  0  0  0  0
  -22.9655  -24.9195   25.4922 C   0  0  0  0  0  0  0  0  0  0  0  0
  -28.4917  -15.1346   20.1067 N   0  0  0  0  0  0  0  0  0  0  0  0
  -29.7879  -15.4727   20.2148 N   0  0  0  0  0  0  0  0  0  0  0  0
  -31.4392  -26.7516   19.1957 N   0  0  0  0  0  0  0  0  0  0  0  0
  -23.5303  -26.6365   22.1871 N   0  0  0  0  0  0  0  0  0  0  0  0
  -29.5647  -19.2907   20.0598 N   0  0  0  0  0  0  0  0  0  0  0  0
  -31.9839  -14.5890   20.1298 N   0  0  0  0  0  0  0  0  0  0  0  0
  -30.4990  -11.1442   20.6983 N   0  0  0  0  0  0  0  0  0  0  0  0
  -29.8441  -21.5171   19.3338 N   0  0  0  0  0  0  0  0  0  0  0  0
  -21.1919  -28.6284   22.5651 N   0  0  0  0  0  0  0  0  0  0  0  0
  -24.5289  -24.0991   23.6793 N   0  0  0  0  0  0  0  0  0  0  0  0
  -27.8328  -22.7545   23.0930 N   0  3  0  0  0  0  0  0  0  0  0  0
  -33.4808  -26.3488   20.2278 O   0  0  0  0  0  0  0  0  0  0  0  0
  -30.5947  -11.5627   18.4457 O   0  0  0  0  0  0  0  0  0  0  0  0
  -23.0188  -29.6323   21.5273 O   0  0  0  0  0  0  0  0  0  0  0  0
  -21.7557  -25.3586   22.9958 O   0  0  0  0  0  0  0  0  0  0  0  0
  -26.4948  -24.5090   24.8388 O   0  0  0  0  0  0  0  0  0  0  0  0
  -29.0263  -19.8861   17.8880 O   0  0  0  0  0  0  0  0  0  0  0  0
  -23.8119  -10.9188   19.1692 O   0  0  0  0  0  0  0  0  0  0  0  0
  -28.7667  -29.1506   20.1104 O   0  0  0  0  0  0  0  0  0  1  0  0
  -22.1597   -7.6772   23.3124 F   0  0  0  0  0  0  0  0  0  0  0  0
  -21.3648  -11.3169   20.3924 F   0  0  0  0  0  0  0  0  0  0  0  0
  -27.6997  -24.0219   15.4116 Cl  0  0  0  0  0  0  0  0  0  0  0  0
  1  2  1  0  0  0  0
  1  5  2  0  0  0  0
  2  6  2  0  0  0  0
  3  8  2  0  0  0  0
  3 17  1  0  0  0  0
  4  9  1  0  0  0  0
  4 17  2  0  0  0  0
  5 19  1  0  0  0  0
  6 21  1  0  0  0  0
  7 10  2  0  0  0  0
  7 20  1  0  0  0  0
  8 26  1  0  0  0  0
  9 26  2  0  0  0  0
 10 27  1  0  0  0  0
 11 12  2  0  0  0  0
 11 28  1  0  0  0  0
 12 29  1  0  0  0  0
 13 22  1  0  0  0  0
 13 27  2  0  0  0  0
 14 23  1  0  0  0  0
 14 31  2  0  0  0  0
 15 25  2  0  0  0  0
 15 31  1  0  0  0  0
 16 29  2  0  0  0  0
 16 30  1  0  0  0  0
 17 32  1  0  0  0  0
 18 32  1  0  0  0  0
 18 33  2  0  0  0  0
 18 35  1  0  0  0  0
 19 21  2  0  0  0  0
 19 40  1  0  0  0  0
 20 22  2  0  0  0  0
 20 41  1  0  0  0  0
 21 52  1  0  0  0  0
 22 42  1  0  0  0  0
 23 24  2  0  0  0  0
 23 62  1  0  0  0  0
 24 25  1  0  0  0  0
 24 56  1  0  0  0  0
 25 73  1  0  0  0  0
 26 83  1  0  0  0  0
 27 84  1  0  0  0  0
 28 30  2  0  0  0  0
 28 83  1  0  0  0  0
 29 85  1  0  0  0  0
 30 86  1  0  0  0  0
 31 87  1  0  0  0  0
 32 66  2  0  0  0  0
 33 67  1  0  0  0  0
 33 71  1  0  0  0  0
 34 43  1  0  0  0  0
 34 68  1  0  0  0  0
 34 77  2  0  0  0  0
 35 72  1  0  0  0  0
 35 78  2  0  0  0  0
 36 53  1  0  0  0  0
 36 74  1  0  0  0  0
 36 79  2  0  0  0  0
 37 63  1  0  0  0  0
 37 69  1  0  0  0  0
 37 80  2  0  0  0  0
 38 64  1  0  0  0  0
 38 75  1  0  0  0  0
 38 81  2  0  0  0  0
 39 70  1  0  0  0  0
 39 73  1  0  0  0  0
 39 82  2  0  0  0  0
 40 44  1  0  0  0  0
 41 53  1  0  0  0  0
 42 69  1  0  0  0  0
 43 45  1  0  0  0  0
 44 47  1  0  0  0  0
 45 55  1  0  0  0  0
 46 48  1  0  0  0  0
 46 49  1  0  0  0  0
 47 52  1  0  0  0  0
 48 54  1  0  0  0  0
 49 70  1  0  0  0  0
 50 54  1  0  0  0  0
 50 70  1  0  0  0  0
 51 55  1  0  0  0  0
 51 68  1  0  0  0  0
 52 74  1  0  0  0  0
 53 69  1  0  0  0  0
 54 67  1  0  0  0  0
 55 84  1  0  0  0  0
 57 64  1  0  0  0  0
 58 65  1  0  0  0  0
 59 65  1  0  0  0  0
 60 65  1  0  0  0  0
 61 76  1  0  0  0  0
 62 68  1  0  0  0  0
 63 65  1  0  0  0  0
 63 75  1  0  0  0  0
 64 76  1  0  0  0  0
 66 67  1  0  0  0  0
M  CHG  1  76   1
M  ISO  4  39 100  55 101  73 100  84 101
M  END
> <Batch ID>
0032

> <Smiles>
CNC(C)C(=O)NC(C(=O)N1Cc2cc([101O:1][101CH:1]3CCC(=O)N(Cc4cc(Cl)cc([100NH:0][100C:0](=O)N5CCCC(n6nc(-c7ccc(Oc8ccc(F)cc8F)cc7)c(C(N)=O)c6N)C5)c4C)C3)ccc2CC1C(=O)NC1CCCc2ccccc21)C(C)(C)C

> <Shape>
0.312

> <Color>
0.088

> <Negative vol penalty>
0.000

$$$$

  -OEChem-04042321423D

 81 89  0     1  0  0  0  0  0999 V2000
  -17.5462  -25.9742   21.7887 C   0  0  0  0  0  0  0  0  0  0  0  0
  -18.8362  -25.4532   21.7855 C   0  0  0  0  0  0  0  0  0  0  0  0
  -23.4882   -9.5890   20.2662 C   0  0  0  0  0  0  0  0  0  0  0  0
  -23.8848  -10.1391   22.5851 C   0  0  0  0  0  0  0  0  0  0  0  0
  -17.3423  -27.3259   22.0627 C   0  0  0  0  0  0  0  0  0  0  0  0
  -19.9231  -26.2840   22.0552 C   0  0  0  0  0  0  0  0  0  0  0  0
  -23.2317  -24.1766   25.2578 C   0  0  0  0  0  0  0  0  0  0  0  0
  -22.8568   -8.4074   20.6545 C   0  0  0  0  0  0  0  0  0  0  0  0
  -23.2534   -8.9575   22.9734 C   0  0  0  0  0  0  0  0  0  0  0  0
  -24.1016  -23.2199   24.7364 C   0  0  0  0  0  0  0  0  0  0  0  0
  -20.0886   -7.8240   23.3193 C   0  0  0  0  0  0  0  0  0  0  0  0
  -19.1727   -7.8951   24.3689 C   0  0  0  0  0  0  0  0  0  0  0  0
  -25.8453  -24.8822   24.6114 C   0  0  0  0  0  0  0  0  0  0  0  0
  -28.2452  -19.6998   21.3690 C   0  0  0  0  0  0  0  0  0  0  0  0
  -27.4562  -19.5296   24.0394 C   0  0  0  0  0  0  0  0  0  0  0  0
  -20.5084   -6.3340   25.6401 C   0  0  0  0  0  0  0  0  0  0  0  0
  -24.0023  -10.4549   21.2315 C   0  0  0  0  0  0  0  0  0  0  0  0
  -24.0570  -12.9345   20.6349 C   0  0  0  0  0  0  0  0  0  0  0  0
  -18.4264  -28.1717   22.3454 C   0  0  0  0  0  0  0  0  0  0  0  0
  -23.6596  -25.4981   25.4500 C   0  0  0  0  0  0  0  0  0  0  0  0
  -19.7336  -27.6487   22.3319 C   0  0  0  0  0  0  0  0  0  0  0  0
  -24.9797  -25.8531   25.1378 C   0  0  0  0  0  0  0  0  0  0  0  0
  -27.2303  -20.5267   21.8504 C   0  0  0  0  0  0  0  0  0  0  0  0
  -28.4711  -18.7027   23.5580 C   0  0  0  0  0  0  0  0  0  0  0  0
  -28.8656  -18.7878   22.2228 C   0  0  0  0  0  0  0  0  0  0  0  0
  -26.8357  -20.4416   23.1856 C   0  0  0  0  0  0  0  0  0  0  0  0
  -22.7393   -8.0917   22.0081 C   0  0  0  0  0  0  0  0  0  0  0  0
  -25.4077  -23.5733   24.4104 C   0  0  0  0  0  0  0  0  0  0  0  0
  -21.2143   -7.0078   23.4300 C   0  0  0  0  0  0  0  0  0  0  0  0
  -19.3826   -7.1501   25.5293 C   0  0  0  0  0  0  0  0  0  0  0  0
  -21.4243   -6.2628   24.5904 C   0  0  0  0  0  0  0  0  0  0  0  0
  -24.6551  -11.6753   20.8311 C   0  0  0  0  0  0  0  0  0  0  0  0
  -25.0952  -13.7537   20.2638 C   0  0  0  0  0  0  0  0  0  0  0  0
  -22.6856  -13.3285   20.7755 C   0  0  0  0  0  0  0  0  0  0  0  0
  -22.7917  -28.3279   24.2913 C   0  0  0  0  0  0  0  0  0  0  0  0
  -24.9229  -29.4377   26.4705 C   0  0  0  0  0  0  0  0  0  0  0  0
  -27.6794  -28.8400   28.3918 C   0  0  0  0  0  0  0  0  0  0  0  0
  -30.3271  -15.5811   20.9218 C   0  0  0  0  0  0  0  0  0  0  0  0
  -18.1604  -29.6361   22.5891 C   0  0  0  0  0  0  0  0  0  0  0  0
  -22.7170  -26.5119   26.0384 C   0  0  0  0  0  0  0  0  0  0  0  0
  -25.4942  -27.2535   25.3443 C   0  0  0  0  0  0  0  0  0  0  0  0
  -19.3340  -30.3693   23.2336 C   0  0  0  0  0  0  0  0  0  0  0  0
  -29.8555  -12.6492   18.9575 C   0  0  0  0  0  0  0  0  0  0  0  0
  -20.6386  -30.0126   22.5283 C   0  0  0  0  0  0  0  0  0  0  0  0
  -28.4139  -12.2353   19.2585 C   0  0  0  0  0  0  0  0  0  0  0  0
  -30.5470  -13.2241   20.1918 C   0  0  0  0  0  0  0  0  0  0  0  0
  -28.3837  -13.9171   21.1477 C   0  0  0  0  0  0  0  0  0  0  0  0
  -20.9361  -28.5127   22.6441 C   0  0  1  0  0  0  0  0  0  0  0  0
  -23.1062  -27.9502   25.7112 C   0  0  1  0  0  0  0  0  0  0  0  0
  -27.6272  -13.3832   19.9193 C   0  0  2  0  0  0  0  0  0  0  0  0
  -26.5810  -21.4959   20.9178 C   0  0  0  0  0  0  0  0  0  0  0  0
  -29.1203  -17.7334   24.4906 C   0  0  0  0  0  0  0  0  0  0  0  0
  -29.2091  -29.9511   30.0417 C   0  0  0  0  0  0  0  0  0  0  0  0
  -26.2669  -30.9618   24.1943 C   0  0  0  0  0  0  0  0  0  0  0  0
  -28.2691  -31.2579   25.6679 C   0  0  0  0  0  0  0  0  0  0  0  0
  -26.0753  -32.2398   26.3354 C   0  0  0  0  0  0  0  0  0  0  0  0
  -26.9928  -26.8949   30.5141 C   0  0  0  0  0  0  0  0  0  0  0  0
  -29.9494  -17.9122   21.6848 C   0  0  0  0  0  0  0  0  0  0  0  0
  -25.7468  -21.3211   23.7260 C   0  0  0  0  0  0  0  0  0  1  0  0
  -26.4027  -29.7361   26.4627 C   0  0  1  0  0  0  0  0  0  0  0  0
  -27.9599  -29.1030   29.8603 C   0  0  2  0  0  0  0  0  0  0  0  0
  -26.7435  -31.0229   25.6592 C   0  0  0  0  0  0  0  0  0  0  0  0
  -25.9712  -11.6885   20.6034 N   0  0  0  0  0  0  0  0  0  0  0  0
  -26.2086  -12.9659   20.2602 N   0  0  0  0  0  0  0  0  0  0  0  0
  -24.5326  -28.2104   25.9163 N   0  0  0  0  0  0  0  0  0  0  0  0
  -29.7504  -14.3094   20.7695 N   0  0  0  0  0  0  0  0  0  0  0  0
  -25.1551  -15.0637   19.9436 N   0  0  0  0  0  0  0  0  0  0  0  0
  -21.7491  -12.3611   21.1644 N   0  0  0  0  0  0  0  0  0  0  0  0
  -21.4568  -28.2006   23.9578 N   0  0  0  0  0  0  0  0  0  0  0  0
  -26.8183  -29.7768   27.8605 N   0  0  0  0  0  0  0  0  0  0  0  0
  -29.5014  -16.5541   21.4715 N   0  0  0  0  0  0  0  0  0  0  0  0
  -28.1547  -27.8176   30.5888 N   0  3  0  0  0  0  0  0  0  0  0  0
  -22.2994  -14.4998   20.5467 O   0  0  0  0  0  0  0  0  0  0  0  0
  -23.6931  -28.7081   23.5534 O   0  0  0  0  0  0  0  0  0  0  0  0
  -24.1427  -30.2601   26.9570 O   0  0  0  0  0  0  0  0  0  0  0  0
  -28.1774  -27.8998   27.7765 O   0  0  0  0  0  0  0  0  0  0  0  0
  -31.4899  -15.8322   20.5875 O   0  0  0  0  0  0  0  0  0  0  0  0
  -22.1231   -6.9389   22.3873 O   0  0  0  0  0  0  0  0  0  0  0  0
  -26.2586  -22.6416   23.9007 O   0  0  0  0  0  0  0  0  0  1  0  0
  -18.5039   -7.2197   26.5378 F   0  0  0  0  0  0  0  0  0  0  0  0
  -22.5045   -5.4779   24.7031 F   0  0  0  0  0  0  0  0  0  0  0  0
  1  2  1  0  0  0  0
  1  5  2  0  0  0  0
  2  6  2  0  0  0  0
  3  8  2  0  0  0  0
  3 17  1  0  0  0  0
  4  9  1  0  0  0  0
  4 17  2  0  0  0  0
  5 19  1  0  0  0  0
  6 21  1  0  0  0  0
  7 10  2  0  0  0  0
  7 20  1  0  0  0  0
  8 27  1  0  0  0  0
  9 27  2  0  0  0  0
 10 28  1  0  0  0  0
 11 12  2  0  0  0  0
 11 29  1  0  0  0  0
 12 30  1  0  0  0  0
 13 22  1  0  0  0  0
 13 28  2  0  0  0  0
 14 23  1  0  0  0  0
 14 25  2  0  0  0  0
 15 24  2  0  0  0  0
 15 26  1  0  0  0  0
 16 30  2  0  0  0  0
 16 31  1  0  0  0  0
 17 32  1  0  0  0  0
 18 32  1  0  0  0  0
 18 33  2  0  0  0  0
 18 34  1  0  0  0  0
 19 21  2  0  0  0  0
 19 39  1  0  0  0  0
 20 22  2  0  0  0  0
 20 40  1  0  0  0  0
 21 48  1  0  0  0  0
 22 41  1  0  0  0  0
 23 26  2  0  0  0  0
 23 51  1  0  0  0  0
 24 25  1  0  0  0  0
 24 52  1  0  0  0  0
 25 58  1  0  0  0  0
 26 59  1  0  0  0  0
 27 78  1  0  0  0  0
 28 79  1  0  0  0  0
 29 31  2  0  0  0  0
 29 78  1  0  0  0  0
 30 80  1  0  0  0  0
 31 81  1  0  0  0  0
 32 63  2  0  0  0  0
 33 64  1  0  0  0  0
 33 67  1  0  0  0  0
 34 68  1  0  0  0  0
 34 73  2  0  0  0  0
 35 49  1  0  0  0  0
 35 69  1  0  0  0  0
 35 74  2  0  0  0  0
 36 60  1  0  0  0  0
 36 65  1  0  0  0  0
 36 75  2  0  0  0  0
 37 61  1  0  0  0  0
 37 70  1  0  0  0  0
 37 76  2  0  0  0  0
 38 66  1  0  0  0  0
 38 71  1  0  0  0  0
 38 77  2  0  0  0  0
 39 42  1  0  0  0  0
 40 49  1  0  0  0  0
 41 65  1  0  0  0  0
 42 44  1  0  0  0  0
 43 45  1  0  0  0  0
 43 46  1  0  0  0  0
 44 48  1  0  0  0  0
 45 50  1  0  0  0  0
 46 66  1  0  0  0  0
 47 50  1  0  0  0  0
 47 66  1  0  0  0  0
 48 69  1  0  0  0  0
 49 65  1  0  0  0  0
 50 64  1  0  0  0  0
 53 61  1  0  0  0  0
 54 62  1  0  0  0  0
 55 62  1  0  0  0  0
 56 62  1  0  0  0  0
 57 72  1  0  0  0  0
 58 71  1  0  0  0  0
 59 79  1  0  0  0  0
 60 62  1  0  0  0  0
 60 70  1  0  0  0  0
 61 72  1  0  0  0  0
 63 64  1  0  0  0  0
M  CHG  1  72   1
M  ISO  4  38 100  59 101  71 100  79 101
M  END
> <Batch ID>
0032

> <Smiles>
CNC(C)C(=O)NC(C(=O)N1Cc2cc([101O:1][101CH2:1]c3cc(C)c(C[100NH:0][100C:0](=O)N4CCCC(n5nc(-c6ccc(Oc7ccc(F)cc7F)cc6)c(C(N)=O)c5N)C4)cc3C)ccc2CC1C(=O)NC1CCCc2ccccc21)C(C)(C)C

> <Shape>
0.282

> <Color>
0.199

> <Negative vol penalty>
0.000

$$$$

  -OEChem-04042321423D

 85 94  0     1  0  0  0  0  0999 V2000
  -28.3054  -31.1417   27.5718 C   0  0  0  0  0  0  0  0  0  0  0  0
  -28.2175  -30.1108   26.6418 C   0  0  0  0  0  0  0  0  0  0  0  0
  -23.5779   -9.6769   19.8012 C   0  0  0  0  0  0  0  0  0  0  0  0
  -24.4378   -9.6386   22.0586 C   0  0  0  0  0  0  0  0  0  0  0  0
  -27.1943  -31.9439   27.8286 C   0  0  0  0  0  0  0  0  0  0  0  0
  -27.0181  -29.8808   25.9688 C   0  0  0  0  0  0  0  0  0  0  0  0
  -27.6913  -29.1015   21.0105 C   0  0  0  0  0  0  0  0  0  0  0  0
  -23.0859   -8.3822   19.9666 C   0  0  0  0  0  0  0  0  0  0  0  0
  -23.9458   -8.3439   22.2241 C   0  0  0  0  0  0  0  0  0  0  0  0
  -28.1438  -27.8420   20.6196 C   0  0  0  0  0  0  0  0  0  0  0  0
  -20.9691   -6.8740   22.8560 C   0  0  0  0  0  0  0  0  0  0  0  0
  -20.2950   -6.5852   24.0425 C   0  0  0  0  0  0  0  0  0  0  0  0
  -25.8877  -27.2196   20.0348 C   0  0  0  0  0  0  0  0  0  0  0  0
  -30.0157  -18.8340   20.9020 C   0  0  0  0  0  0  0  0  0  0  0  0
  -21.9250   -4.8764   24.5526 C   0  0  0  0  0  0  0  0  0  0  0  0
  -24.2539  -10.3051   20.8472 C   0  0  0  0  0  0  0  0  0  0  0  0
  -24.0922  -12.8487   20.9529 C   0  0  0  0  0  0  0  0  0  0  0  0
  -25.9835  -31.7297   27.1513 C   0  0  0  0  0  0  0  0  0  0  0  0
  -26.3297  -29.4262   20.9266 C   0  0  0  0  0  0  0  0  0  0  0  0
  -25.8895  -30.6800   26.2177 C   0  0  0  0  0  0  0  0  0  0  0  0
  -25.4209  -28.4848   20.4229 C   0  0  0  0  0  0  0  0  0  0  0  0
  -29.9380  -20.2229   21.0041 C   0  0  0  0  0  0  0  0  0  0  0  0
  -29.1255  -20.8064   21.9762 C   0  0  0  0  0  0  0  0  0  0  0  0
  -28.3905  -20.0010   22.8461 C   0  0  0  0  0  0  0  0  0  0  0  0
  -29.2806  -18.0285   21.7719 C   0  0  0  0  0  0  0  0  0  0  0  0
  -23.2699   -7.7157   21.1780 C   0  0  0  0  0  0  0  0  0  0  0  0
  -27.2416  -26.8999   20.1343 C   0  0  0  0  0  0  0  0  0  0  0  0
  -22.1211   -6.1640   22.5178 C   0  0  0  0  0  0  0  0  0  0  0  0
  -20.7730   -5.5865   24.8908 C   0  0  0  0  0  0  0  0  0  0  0  0
  -22.5991   -5.1652   23.3661 C   0  0  0  0  0  0  0  0  0  0  0  0
  -28.4681  -18.6120   22.7439 C   0  0  0  0  0  0  0  0  0  0  0  0
  -24.7629  -11.6422   20.6767 C   0  0  0  0  0  0  0  0  0  0  0  0
  -24.9980  -13.8279   20.6254 C   0  0  0  0  0  0  0  0  0  0  0  0
  -22.7687  -13.0650   21.4602 C   0  0  0  0  0  0  0  0  0  0  0  0
  -24.0837  -30.2374   23.0245 C   0  0  0  0  0  0  0  0  0  0  0  0
  -22.3044  -30.7008   20.3522 C   0  0  0  0  0  0  0  0  0  0  0  0
  -21.7755  -29.9699   17.0608 C   0  0  0  0  0  0  0  0  0  0  0  0
  -30.1586  -15.9166   20.7157 C   0  0  0  0  0  0  0  0  0  0  0  0
  -24.7959  -32.5928   27.4969 C   0  0  0  0  0  0  0  0  0  0  0  0
  -25.8615  -30.7984   21.3272 C   0  0  0  0  0  0  0  0  0  0  0  0
  -23.9518  -28.7908   20.2939 C   0  0  0  0  0  0  0  0  0  0  0  0
  -23.6709  -32.5213   26.4677 C   0  0  0  0  0  0  0  0  0  0  0  0
  -29.4151  -13.5409   18.1701 C   0  0  0  0  0  0  0  0  0  0  0  0
  -23.3842  -31.0715   26.0900 C   0  0  0  0  0  0  0  0  0  0  0  0
  -28.0833  -12.9344   18.6180 C   0  0  0  0  0  0  0  0  0  0  0  0
  -30.3283  -13.8431   19.3568 C   0  0  0  0  0  0  0  0  0  0  0  0
  -28.3899  -14.0550   20.8624 C   0  0  0  0  0  0  0  0  0  0  0  0
  -27.6220  -24.2812   21.8661 C   0  0  0  0  0  0  0  0  0  0  0  0
  -27.8843  -23.1782   20.1119 C   0  0  0  0  0  0  0  0  0  0  0  0
  -24.6130  -30.4150   25.4492 C   0  0  1  0  0  0  0  0  0  0  0  0
  -24.3783  -30.8438   21.6817 C   0  0  1  0  0  0  0  0  0  0  0  0
  -27.4105  -13.7936   19.7065 C   0  0  2  0  0  0  0  0  0  0  0  0
  -27.1634  -24.5037   20.4139 C   0  0  0  0  0  0  0  0  0  1  0  0
  -30.7347  -21.0628   20.0597 C   0  0  0  0  0  0  0  0  0  0  0  0
  -27.5226  -20.6472   23.8816 C   0  0  0  0  0  0  0  0  0  0  0  0
  -20.2206  -30.4730   15.1564 C   0  0  0  0  0  0  0  0  0  0  0  0
  -20.2081  -28.8540   21.5790 C   0  0  0  0  0  0  0  0  0  0  0  0
  -19.1717  -28.6379   19.3102 C   0  0  0  0  0  0  0  0  0  0  0  0
  -19.2769  -30.8674   20.4242 C   0  0  0  0  0  0  0  0  0  0  0  0
  -23.9572  -31.1339   15.4347 C   0  0  0  0  0  0  0  0  0  0  0  0
  -29.0431  -22.3008   22.0806 C   0  0  0  0  0  0  0  0  0  0  0  0
  -21.3969  -29.8378   19.5090 C   0  0  1  0  0  0  0  0  0  0  0  0
  -21.5112  -30.8614   15.8609 C   0  0  2  0  0  0  0  0  0  0  0  0
  -20.0408  -29.5425   20.2097 C   0  0  0  0  0  0  0  0  0  0  0  0
  -25.9993  -11.8348   20.2096 N   0  0  0  0  0  0  0  0  0  0  0  0
  -26.1126  -13.1738   20.1896 N   0  0  0  0  0  0  0  0  0  0  0  0
  -23.5420  -30.1440   20.7044 N   0  0  0  0  0  0  0  0  0  0  0  0
  -29.6252  -14.6641   20.3450 N   0  0  0  0  0  0  0  0  0  0  0  0
  -24.9417  -15.1759   20.6705 N   0  0  0  0  0  0  0  0  0  0  0  0
  -21.9712  -11.9481   21.7443 N   0  0  0  0  0  0  0  0  0  0  0  0
  -29.3864  -16.6219   21.6382 N   0  0  0  0  0  0  0  0  0  0  0  0
  -24.7529  -30.8397   24.0728 N   0  0  0  0  0  0  0  0  0  0  0  0
  -21.2700  -30.5141   18.2226 N   0  0  0  0  0  0  0  0  0  0  0  0
  -27.7781  -22.8504   21.5457 N   0  3  0  0  0  0  0  0  0  0  0  0
  -22.6304  -30.7580   14.8822 N   0  3  0  0  0  0  0  0  0  0  0  0
  -22.3011  -14.2150   21.6404 O   0  0  0  0  0  0  0  0  0  0  0  0
  -23.3057  -29.2940   23.1039 O   0  0  0  0  0  0  0  0  0  0  0  0
  -21.9318  -31.8301   20.6800 O   0  0  0  0  0  0  0  0  0  0  0  0
  -22.3676  -28.8963   16.9755 O   0  0  0  0  0  0  0  0  0  0  0  0
  -31.2081  -16.3449   20.2288 O   0  0  0  0  0  0  0  0  0  0  0  0
  -22.7897   -6.4524   21.3398 O   0  0  0  0  0  0  0  0  0  0  0  0
  -27.6805  -25.6696   19.7527 O   0  0  0  0  0  0  0  0  0  1  0  0
  -20.1264   -5.3103   26.0309 F   0  0  0  0  0  0  0  0  0  0  0  0
  -23.7060   -4.4805   23.0471 F   0  0  0  0  0  0  0  0  0  0  0  0
  -27.5545  -17.6120   23.8273 Cl  0  0  0  0  0  0  0  0  0  0  0  0
  1  2  1  0  0  0  0
  1  5  2  0  0  0  0
  2  6  2  0  0  0  0
  3  8  2  0  0  0  0
  3 16  1  0  0  0  0
  4  9  1  0  0  0  0
  4 16  2  0  0  0  0
  5 18  1  0  0  0  0
  6 20  1  0  0  0  0
  7 10  2  0  0  0  0
  7 19  1  0  0  0  0
  8 26  1  0  0  0  0
  9 26  2  0  0  0  0
 10 27  1  0  0  0  0
 11 12  2  0  0  0  0
 11 28  1  0  0  0  0
 12 29  1  0  0  0  0
 13 21  1  0  0  0  0
 13 27  2  0  0  0  0
 14 22  2  0  0  0  0
 14 25  1  0  0  0  0
 15 29  2  0  0  0  0
 15 30  1  0  0  0  0
 16 32  1  0  0  0  0
 17 32  1  0  0  0  0
 17 33  2  0  0  0  0
 17 34  1  0  0  0  0
 18 20  2  0  0  0  0
 18 39  1  0  0  0  0
 19 21  2  0  0  0  0
 19 40  1  0  0  0  0
 20 50  1  0  0  0  0
 21 41  1  0  0  0  0
 22 23  1  0  0  0  0
 22 54  1  0  0  0  0
 23 24  2  0  0  0  0
 23 61  1  0  0  0  0
 24 31  1  0  0  0  0
 24 55  1  0  0  0  0
 25 31  2  0  0  0  0
 25 71  1  0  0  0  0
 26 81  1  0  0  0  0
 27 82  1  0  0  0  0
 28 30  2  0  0  0  0
 28 81  1  0  0  0  0
 29 83  1  0  0  0  0
 30 84  1  0  0  0  0
 31 85  1  0  0  0  0
 32 65  2  0  0  0  0
 33 66  1  0  0  0  0
 33 69  1  0  0  0  0
 34 70  1  0  0  0  0
 34 76  2  0  0  0  0
 35 51  1  0  0  0  0
 35 72  1  0  0  0  0
 35 77  2  0  0  0  0
 36 62  1  0  0  0  0
 36 67  1  0  0  0  0
 36 78  2  0  0  0  0
 37 63  1  0  0  0  0
 37 73  1  0  0  0  0
 37 79  2  0  0  0  0
 38 68  1  0  0  0  0
 38 71  1  0  0  0  0
 38 80  2  0  0  0  0
 39 42  1  0  0  0  0
 40 51  1  0  0  0  0
 41 67  1  0  0  0  0
 42 44  1  0  0  0  0
 43 45  1  0  0  0  0
 43 46  1  0  0  0  0
 44 50  1  0  0  0  0
 45 52  1  0  0  0  0
 46 68  1  0  0  0  0
 47 52  1  0  0  0  0
 47 68  1  0  0  0  0
 48 53  1  0  0  0  0
 48 74  1  0  0  0  0
 49 53  1  0  0  0  0
 49 74  1  0  0  0  0
 50 72  1  0  0  0  0
 51 67  1  0  0  0  0
 52 66  1  0  0  0  0
 53 82  1  0  0  0  0
 56 63  1  0  0  0  0
 57 64  1  0  0  0  0
 58 64  1  0  0  0  0
 59 64  1  0  0  0  0
 60 75  1  0  0  0  0
 61 74  1  0  0  0  0
 62 64  1  0  0  0  0
 62 73  1  0  0  0  0
 63 75  1  0  0  0  0
 65 66  1  0  0  0  0
M  CHG  2  74   1  75   1
M  ISO  4  38 100  53 101  71 100  82 101
M  END
> <Batch ID>
0032

> <Smiles>
CNC(C)C(=O)NC(C(=O)N1Cc2cc([101O:1][101CH:1]3CN(Cc4c(C)cc([100NH:0][100C:0](=O)N5CCCC(n6nc(-c7ccc(Oc8ccc(F)cc8F)cc7)c(C(N)=O)c6N)C5)c(Cl)c4C)C3)ccc2CC1C(=O)NC1CCCc2ccccc21)C(C)(C)C

> <Shape>
0.337

> <Color>
0.171

> <Negative vol penalty>
0.000

$$$$

  -OEChem-04042321423D

 83 91  0     1  0  0  0  0  0999 V2000
  -26.4888  -38.4618   20.3752 C   0  0  0  0  0  0  0  0  0  0  0  0
  -27.0429  -37.3651   19.7228 C   0  0  0  0  0  0  0  0  0  0  0  0
  -24.4586   -8.8333   20.9361 C   0  0  0  0  0  0  0  0  0  0  0  0
  -22.6780  -10.4572   21.1088 C   0  0  0  0  0  0  0  0  0  0  0  0
  -25.9197  -38.3056   21.6384 C   0  0  0  0  0  0  0  0  0  0  0  0
  -27.0292  -36.1117   20.3337 C   0  0  0  0  0  0  0  0  0  0  0  0
  -26.5644  -29.1386   18.7599 C   0  0  0  0  0  0  0  0  0  0  0  0
  -27.4511  -19.8820   22.3368 C   0  0  0  0  0  0  0  0  0  0  0  0
  -23.5415   -7.8048   21.1523 C   0  0  0  0  0  0  0  0  0  0  0  0
  -21.7609   -9.4286   21.3249 C   0  0  0  0  0  0  0  0  0  0  0  0
  -27.2267  -27.9347   18.9959 C   0  0  0  0  0  0  0  0  0  0  0  0
  -21.9267   -6.4192   23.7785 C   0  0  0  0  0  0  0  0  0  0  0  0
  -22.2816   -5.4140   24.6779 C   0  0  0  0  0  0  0  0  0  0  0  0
  -27.2185  -21.2182   22.0114 C   0  0  0  0  0  0  0  0  0  0  0  0
  -26.1454  -27.7684   21.1459 C   0  0  0  0  0  0  0  0  0  0  0  0
  -22.0814   -3.7696   22.9192 C   0  0  0  0  0  0  0  0  0  0  0  0
  -26.5681  -20.5614   19.7792 C   0  0  0  0  0  0  0  0  0  0  0  0
  -24.0268  -10.1596   20.9144 C   0  0  0  0  0  0  0  0  0  0  0  0
  -25.3568  -11.7744   19.4547 C   0  0  0  0  0  0  0  0  0  0  0  0
  -25.8903  -37.0478   22.2610 C   0  0  0  0  0  0  0  0  0  0  0  0
  -25.6945  -29.6728   19.7213 C   0  0  0  0  0  0  0  0  0  0  0  0
  -26.4603  -35.9388   21.6070 C   0  0  0  0  0  0  0  0  0  0  0  0
  -25.4713  -28.9779   20.9186 C   0  0  0  0  0  0  0  0  0  0  0  0
  -27.2423  -18.8854   21.3833 C   0  0  0  0  0  0  0  0  0  0  0  0
  -22.1927   -8.1024   21.3467 C   0  0  0  0  0  0  0  0  0  0  0  0
  -27.0195  -27.2509   20.1903 C   0  0  0  0  0  0  0  0  0  0  0  0
  -21.6490   -6.0997   22.4493 C   0  0  0  0  0  0  0  0  0  0  0  0
  -22.3590   -4.0892   24.2483 C   0  0  0  0  0  0  0  0  0  0  0  0
  -21.7264   -4.7749   22.0197 C   0  0  0  0  0  0  0  0  0  0  0  0
  -26.8008  -19.2252   20.1046 C   0  0  0  0  0  0  0  0  0  0  0  0
  -26.7769  -21.5580   20.7327 C   0  0  0  0  0  0  0  0  0  0  0  0
  -24.9737  -11.2225   20.6918 C   0  0  0  0  0  0  0  0  0  0  0  0
  -26.2724  -12.7450   19.7805 C   0  0  0  0  0  0  0  0  0  0  0  0
  -24.9237  -11.4398   18.1295 C   0  0  0  0  0  0  0  0  0  0  0  0
  -25.6214  -32.3441   21.4427 C   0  0  0  0  0  0  0  0  0  0  0  0
  -22.7215  -31.2137   22.3567 C   0  0  0  0  0  0  0  0  0  0  0  0
  -20.6595  -28.5265   22.7735 C   0  0  0  0  0  0  0  0  0  0  0  0
  -27.9192  -17.0239   22.9400 C   0  0  0  0  0  0  0  0  0  0  0  0
  -25.3065  -36.9374   23.6472 C   0  0  0  0  0  0  0  0  0  0  0  0
  -24.9672  -30.9591   19.4402 C   0  0  0  0  0  0  0  0  0  0  0  0
  -24.5320  -29.4986   21.9745 C   0  0  0  0  0  0  0  0  0  0  0  0
  -24.9972  -35.5022   24.0653 C   0  0  0  0  0  0  0  0  0  0  0  0
  -28.5875  -13.7495   24.1683 C   0  0  0  0  0  0  0  0  0  0  0  0
  -26.1709  -34.5854   23.7354 C   0  0  0  0  0  0  0  0  0  0  0  0
  -27.7384  -12.8456   23.2716 C   0  0  0  0  0  0  0  0  0  0  0  0
  -27.8817  -15.0694   24.4741 C   0  0  0  0  0  0  0  0  0  0  0  0
  -26.5634  -14.9061   22.3993 C   0  0  0  0  0  0  0  0  0  0  0  0
  -26.4425  -34.5582   22.2264 C   0  0  1  0  0  0  0  0  0  0  0  0
  -24.4986  -31.6696   20.7064 C   0  0  1  0  0  0  0  0  0  0  0  0
  -27.2600  -13.5917   22.0106 C   0  0  2  0  0  0  0  0  0  0  0  0
  -18.3621  -27.9119   23.5744 C   0  0  0  0  0  0  0  0  0  0  0  0
  -23.6439  -31.5420   25.2466 C   0  0  0  0  0  0  0  0  0  0  0  0
  -21.7486  -30.0632   25.9462 C   0  0  0  0  0  0  0  0  0  0  0  0
  -21.2804  -32.2394   24.8203 C   0  0  0  0  0  0  0  0  0  0  0  0
  -19.8954  -27.4559   20.1223 C   0  0  0  0  0  0  0  0  0  0  0  0
  -27.9826  -25.2726   19.2875 C   0  0  0  0  0  0  0  0  0  1  0  0
  -28.0382  -23.8156   19.7001 C   0  0  0  0  0  0  0  0  0  0  0  0
  -22.2236  -30.3223   23.4686 C   0  0  1  0  0  0  0  0  0  0  0  0
  -19.2134  -28.2949   22.3739 C   0  0  2  0  0  0  0  0  0  0  0  0
  -22.2434  -31.0326   24.8515 C   0  0  0  0  0  0  0  0  0  0  0  0
  -25.5953  -11.7948   21.7263 N   0  0  0  0  0  0  0  0  0  0  0  0
  -26.3782  -12.7163   21.1399 N   0  0  0  0  0  0  0  0  0  0  0  0
  -23.8491  -30.7633   21.6556 N   0  0  0  0  0  0  0  0  0  0  0  0
  -27.4608  -15.7219   23.2323 N   0  0  0  0  0  0  0  0  0  0  0  0
  -26.9894  -13.6116   19.0338 N   0  0  0  0  0  0  0  0  0  0  0  0
  -23.9775  -10.4176   17.9740 N   0  0  0  0  0  0  0  0  0  0  0  0
  -27.4795  -17.5288   21.7167 N   0  0  0  0  0  0  0  0  0  0  0  0
  -25.4781  -33.7139   21.5545 N   0  0  0  0  0  0  0  0  0  0  0  0
  -20.9050  -29.8535   23.0565 N   0  0  0  0  0  0  0  0  0  0  0  0
  -19.1234  -27.2011   21.3657 N   0  3  0  0  0  0  0  0  0  0  0  0
  -25.3750  -12.0185   17.1122 O   0  0  0  0  0  0  0  0  0  0  0  0
  -26.5483  -31.6713   21.8784 O   0  0  0  0  0  0  0  0  0  0  0  0
  -22.1275  -32.2673   22.1143 O   0  0  0  0  0  0  0  0  0  0  0  0
  -21.4876  -27.6202   22.8325 O   0  0  0  0  0  0  0  0  0  0  0  0
  -28.6700  -17.6346   23.7050 O   0  0  0  0  0  0  0  0  0  0  0  0
  -25.5177  -23.2627   19.2351 O   0  0  0  0  0  0  0  0  0  0  0  0
  -26.2098  -23.9717   21.5512 O   0  0  0  0  0  0  0  0  0  0  0  0
  -21.2976   -7.0990   21.5574 O   0  0  0  0  0  0  0  0  0  0  0  0
  -27.6652  -26.0759   20.4235 O   0  0  0  0  0  0  0  0  0  1  0  0
  -22.7013   -3.1241   25.1118 F   0  0  0  0  0  0  0  0  0  0  0  0
  -21.4620   -4.4620   20.7438 F   0  0  0  0  0  0  0  0  0  0  0  0
  -26.5966  -18.2757   19.1803 F   0  0  0  0  0  0  0  0  0  0  0  0
  -26.4830  -23.2515   20.3199 S   0  0  0  0  0  0  0  0  0  0  0  0
  1  2  1  0  0  0  0
  1  5  2  0  0  0  0
  2  6  2  0  0  0  0
  3  9  2  0  0  0  0
  3 18  1  0  0  0  0
  4 10  1  0  0  0  0
  4 18  2  0  0  0  0
  5 20  1  0  0  0  0
  6 22  1  0  0  0  0
  7 11  2  0  0  0  0
  7 21  1  0  0  0  0
  8 14  2  0  0  0  0
  8 24  1  0  0  0  0
  9 25  1  0  0  0  0
 10 25  2  0  0  0  0
 11 26  1  0  0  0  0
 12 13  2  0  0  0  0
 12 27  1  0  0  0  0
 13 28  1  0  0  0  0
 14 31  1  0  0  0  0
 15 23  1  0  0  0  0
 15 26  2  0  0  0  0
 16 28  2  0  0  0  0
 16 29  1  0  0  0  0
 17 30  1  0  0  0  0
 17 31  2  0  0  0  0
 18 32  1  0  0  0  0
 19 32  1  0  0  0  0
 19 33  2  0  0  0  0
 19 34  1  0  0  0  0
 20 22  2  0  0  0  0
 20 39  1  0  0  0  0
 21 23  2  0  0  0  0
 21 40  1  0  0  0  0
 22 48  1  0  0  0  0
 23 41  1  0  0  0  0
 24 30  2  0  0  0  0
 24 67  1  0  0  0  0
 25 78  1  0  0  0  0
 26 79  1  0  0  0  0
 27 29  2  0  0  0  0
 27 78  1  0  0  0  0
 28 80  1  0  0  0  0
 29 81  1  0  0  0  0
 30 82  1  0  0  0  0
 31 83  1  0  0  0  0
 32 61  2  0  0  0  0
 33 62  1  0  0  0  0
 33 65  1  0  0  0  0
 34 66  1  0  0  0  0
 34 71  2  0  0  0  0
 35 49  1  0  0  0  0
 35 68  1  0  0  0  0
 35 72  2  0  0  0  0
 36 58  1  0  0  0  0
 36 63  1  0  0  0  0
 36 73  2  0  0  0  0
 37 59  1  0  0  0  0
 37 69  1  0  0  0  0
 37 74  2  0  0  0  0
 38 64  1  0  0  0  0
 38 67  1  0  0  0  0
 38 75  2  0  0  0  0
 39 42  1  0  0  0  0
 40 49  1  0  0  0  0
 41 63  1  0  0  0  0
 42 44  1  0  0  0  0
 43 45  1  0  0  0  0
 43 46  1  0  0  0  0
 44 48  1  0  0  0  0
 45 50  1  0  0  0  0
 46 64  1  0  0  0  0
 47 50  1  0  0  0  0
 47 64  1  0  0  0  0
 48 68  1  0  0  0  0
 49 63  1  0  0  0  0
 50 62  1  0  0  0  0
 51 59  1  0  0  0  0
 52 60  1  0  0  0  0
 53 60  1  0  0  0  0
 54 60  1  0  0  0  0
 55 70  1  0  0  0  0
 56 57  1  0  0  0  0
 56 79  1  0  0  0  0
 57 83  1  0  0  0  0
 58 60  1  0  0  0  0
 58 69  1  0  0  0  0
 59 70  1  0  0  0  0
 61 62  1  0  0  0  0
 76 83  2  0  0  0  0
 77 83  2  0  0  0  0
M  CHG  1  70   1
M  ISO  4  38 100  56 101  67 100  79 101
M  END
> <Batch ID>
0032

> <Smiles>
CNC(C)C(=O)NC(C(=O)N1Cc2cc([101O:1][101CH2:1]CS(=O)(=O)c3ccc([100NH:0][100C:0](=O)N4CCCC(n5nc(-c6ccc(Oc7ccc(F)cc7F)cc6)c(C(N)=O)c5N)C4)c(F)c3)ccc2CC1C(=O)NC1CCCc2ccccc21)C(C)(C)C

> <Shape>
0.275

> <Color>
0.117

> <Negative vol penalty>
0.000

$$$$

  -OEChem-04042321423D

 84 93  0     1  0  0  0  0  0999 V2000
  -30.9620  -25.6522   23.5567 C   0  0  0  0  0  0  0  0  0  0  0  0
  -29.7020  -25.0924   23.7424 C   0  0  0  0  0  0  0  0  0  0  0  0
  -25.4132  -30.1546   20.5876 C   0  0  0  0  0  0  0  0  0  0  0  0
  -23.7004  -28.8304   21.6599 C   0  0  0  0  0  0  0  0  0  0  0  0
  -31.7051  -25.3325   22.4211 C   0  0  0  0  0  0  0  0  0  0  0  0
  -29.1839  -24.2134   22.7920 C   0  0  0  0  0  0  0  0  0  0  0  0
  -25.6104  -19.3507   23.8361 C   0  0  0  0  0  0  0  0  0  0  0  0
  -25.1138  -31.2247   21.4308 C   0  0  0  0  0  0  0  0  0  0  0  0
  -23.4010  -29.9005   22.5031 C   0  0  0  0  0  0  0  0  0  0  0  0
  -24.2312  -19.1648   23.7520 C   0  0  0  0  0  0  0  0  0  0  0  0
  -25.0454  -34.1834   23.5418 C   0  0  0  0  0  0  0  0  0  0  0  0
  -26.1119  -34.8695   24.1227 C   0  0  0  0  0  0  0  0  0  0  0  0
  -19.3737  -19.7622   19.0438 C   0  0  0  0  0  0  0  0  0  0  0  0
  -19.7871  -20.7743   18.1300 C   0  0  0  0  0  0  0  0  0  0  0  0
  -24.4942  -18.2661   21.5288 C   0  0  0  0  0  0  0  0  0  0  0  0
  -26.8365  -32.8315   25.1992 C   0  0  0  0  0  0  0  0  0  0  0  0
  -24.7065  -28.9575   20.7022 C   0  0  0  0  0  0  0  0  0  0  0  0
  -26.2477  -27.1830   19.7105 C   0  0  0  0  0  0  0  0  0  0  0  0
  -31.1999  -24.4416   21.4611 C   0  0  0  0  0  0  0  0  0  0  0  0
  -26.4421  -19.0052   22.7613 C   0  0  0  0  0  0  0  0  0  0  0  0
  -29.9204  -23.8825   21.6418 C   0  0  0  0  0  0  0  0  0  0  0  0
  -25.8838  -18.4462   21.6028 C   0  0  0  0  0  0  0  0  0  0  0  0
  -24.1077  -31.0976   22.3885 C   0  0  0  0  0  0  0  0  0  0  0  0
  -23.6726  -18.6251   22.5971 C   0  0  0  0  0  0  0  0  0  0  0  0
  -24.8743  -32.8214   23.7897 C   0  0  0  0  0  0  0  0  0  0  0  0
  -27.0075  -34.1935   24.9513 C   0  0  0  0  0  0  0  0  0  0  0  0
  -25.7699  -32.1455   24.6183 C   0  0  0  0  0  0  0  0  0  0  0  0
  -25.0149  -27.8520   19.8311 C   0  0  0  0  0  0  0  0  0  0  0  0
  -19.8146  -20.0104   20.3250 C   0  0  0  0  0  0  0  0  0  0  0  0
  -26.0232  -26.2184   18.7588 C   0  0  0  0  0  0  0  0  0  0  0  0
  -20.5282  -21.7577   18.7479 C   0  0  0  0  0  0  0  0  0  0  0  0
  -27.4850  -27.4129   20.3973 C   0  0  0  0  0  0  0  0  0  0  0  0
  -28.4159  -20.6022   20.8488 C   0  0  0  0  0  0  0  0  0  0  0  0
  -29.1323  -17.6337   19.7547 C   0  0  0  0  0  0  0  0  0  0  0  0
  -27.3240  -14.6189   18.9432 C   0  0  0  0  0  0  0  0  0  0  0  0
  -21.1030  -23.3782   16.9067 C   0  0  0  0  0  0  0  0  0  0  0  0
  -32.0201  -24.1631   20.2265 C   0  0  0  0  0  0  0  0  0  0  0  0
  -27.9306  -19.1871   22.8781 C   0  0  0  0  0  0  0  0  0  0  0  0
  -26.7352  -18.0399   20.4287 C   0  0  0  0  0  0  0  0  0  0  0  0
  -31.5561  -22.9323   19.4518 C   0  0  0  0  0  0  0  0  0  0  0  0
  -17.5764  -17.2562   23.5308 C   0  0  0  0  0  0  0  0  0  0  0  0
  -17.7706  -18.7560   23.3469 C   0  0  0  0  0  0  0  0  0  0  0  0
  -18.5086  -16.3533   22.7328 C   0  0  0  0  0  0  0  0  0  0  0  0
  -23.3244  -25.3137   14.9076 C   0  0  0  0  0  0  0  0  0  0  0  0
  -30.0400  -22.9470   19.2847 C   0  0  0  0  0  0  0  0  0  0  0  0
  -18.0806  -19.1849   21.9154 C   0  0  0  0  0  0  0  0  0  0  0  0
  -19.9549  -16.8339   22.6649 C   0  0  0  0  0  0  0  0  0  0  0  0
  -24.1263  -26.1189   15.9326 C   0  0  0  0  0  0  0  0  0  0  0  0
  -21.8673  -25.1439   15.3342 C   0  0  0  0  0  0  0  0  0  0  0  0
  -22.4771  -25.3997   17.7073 C   0  0  0  0  0  0  0  0  0  0  0  0
  -29.3345  -22.9056   20.6456 C   0  0  1  0  0  0  0  0  0  0  0  0
  -19.5907  -19.1768   21.5866 C   0  0  1  0  0  0  0  0  0  0  0  0
  -28.6296  -19.2775   21.5251 C   0  0  1  0  0  0  0  0  0  0  0  0
  -20.2367  -17.7651   21.4672 C   0  0  1  0  0  0  0  0  0  0  0  0
  -23.9663  -25.5416   17.3527 C   0  0  2  0  0  0  0  0  0  0  0  0
  -28.0630  -12.2207   18.9521 C   0  0  0  0  0  0  0  0  0  0  0  0
  -29.7227  -18.1067   16.7987 C   0  0  0  0  0  0  0  0  0  0  0  0
  -28.8822  -15.7948   16.3326 C   0  0  0  0  0  0  0  0  0  0  0  0
  -30.8802  -16.1235   17.7894 C   0  0  0  0  0  0  0  0  0  0  0  0
  -25.1222  -13.8261   20.7550 C   0  0  0  0  0  0  0  0  0  0  0  0
  -21.7644  -17.8809   21.3034 C   0  0  0  0  0  0  0  0  0  1  0  0
  -28.5904  -16.7345   18.6698 C   0  0  1  0  0  0  0  0  0  0  0  0
  -27.3370  -13.3145   19.7197 C   0  0  2  0  0  0  0  0  0  0  0  0
  -29.5023  -16.7089   17.4108 C   0  0  0  0  0  0  0  0  0  0  0  0
  -24.0768  -27.3545   19.0207 N   0  0  0  0  0  0  0  0  0  0  0  0
  -24.7204  -26.3628   18.3817 N   0  0  0  0  0  0  0  0  0  0  0  0
  -28.1845  -18.2434   20.5888 N   0  0  0  0  0  0  0  0  0  0  0  0
  -21.7938  -24.5887   16.6874 N   0  0  0  0  0  0  0  0  0  0  0  0
  -26.8151  -25.2693   18.2161 N   0  0  0  0  0  0  0  0  0  0  0  0
  -27.5419  -28.4447   21.3441 N   0  0  0  0  0  0  0  0  0  0  0  0
  -21.1281  -22.9311   18.2273 N   0  0  0  0  0  0  0  0  0  0  0  0
  -29.3520  -21.5621   21.1833 N   0  0  0  0  0  0  0  0  0  0  0  0
  -28.3863  -15.4282   19.2865 N   0  0  0  0  0  0  0  0  0  0  0  0
  -25.9441  -12.8564   19.9861 N   0  3  0  0  0  0  0  0  0  0  0  0
  -28.5145  -26.7345   20.1660 O   0  0  0  0  0  0  0  0  0  0  0  0
  -27.4726  -20.7425   20.0793 O   0  0  0  0  0  0  0  0  0  0  0  0
  -30.3519  -17.7837   19.8626 O   0  0  0  0  0  0  0  0  0  0  0  0
  -26.4602  -14.8909   18.1123 O   0  0  0  0  0  0  0  0  0  0  0  0
  -20.5544  -22.7679   15.9855 O   0  0  0  0  0  0  0  0  0  0  0  0
  -23.8154  -32.1415   23.2116 O   0  0  0  0  0  0  0  0  0  0  0  0
  -22.3267  -18.4433   22.5120 O   0  0  0  0  0  0  0  0  0  1  0  0
  -28.0325  -34.8522   25.5078 F   0  0  0  0  0  0  0  0  0  0  0  0
  -25.6115  -30.8368   24.8592 F   0  0  0  0  0  0  0  0  0  0  0  0
  -20.7230  -21.4587   20.4227 S   0  0  0  0  0  0  0  0  0  0  0  0
  1  2  1  0  0  0  0
  1  5  2  0  0  0  0
  2  6  2  0  0  0  0
  3  8  2  0  0  0  0
  3 17  1  0  0  0  0
  4  9  1  0  0  0  0
  4 17  2  0  0  0  0
  5 19  1  0  0  0  0
  6 21  1  0  0  0  0
  7 10  2  0  0  0  0
  7 20  1  0  0  0  0
  8 23  1  0  0  0  0
  9 23  2  0  0  0  0
 10 24  1  0  0  0  0
 11 12  2  0  0  0  0
 11 25  1  0  0  0  0
 12 26  1  0  0  0  0
 13 14  1  0  0  0  0
 13 29  2  0  0  0  0
 14 31  2  0  0  0  0
 15 22  1  0  0  0  0
 15 24  2  0  0  0  0
 16 26  2  0  0  0  0
 16 27  1  0  0  0  0
 17 28  1  0  0  0  0
 18 28  1  0  0  0  0
 18 30  2  0  0  0  0
 18 32  1  0  0  0  0
 19 21  2  0  0  0  0
 19 37  1  0  0  0  0
 20 22  2  0  0  0  0
 20 38  1  0  0  0  0
 21 51  1  0  0  0  0
 22 39  1  0  0  0  0
 23 80  1  0  0  0  0
 24 81  1  0  0  0  0
 25 27  2  0  0  0  0
 25 80  1  0  0  0  0
 26 82  1  0  0  0  0
 27 83  1  0  0  0  0
 28 65  2  0  0  0  0
 29 52  1  0  0  0  0
 29 84  1  0  0  0  0
 30 66  1  0  0  0  0
 30 69  1  0  0  0  0
 31 71  1  0  0  0  0
 31 84  1  0  0  0  0
 32 70  1  0  0  0  0
 32 75  2  0  0  0  0
 33 53  1  0  0  0  0
 33 72  1  0  0  0  0
 33 76  2  0  0  0  0
 34 62  1  0  0  0  0
 34 67  1  0  0  0  0
 34 77  2  0  0  0  0
 35 63  1  0  0  0  0
 35 73  1  0  0  0  0
 35 78  2  0  0  0  0
 36 68  1  0  0  0  0
 36 71  1  0  0  0  0
 36 79  2  0  0  0  0
 37 40  1  0  0  0  0
 38 53  1  0  0  0  0
 39 67  1  0  0  0  0
 40 45  1  0  0  0  0
 41 42  1  0  0  0  0
 41 43  1  0  0  0  0
 42 46  1  0  0  0  0
 43 47  1  0  0  0  0
 44 48  1  0  0  0  0
 44 49  1  0  0  0  0
 45 51  1  0  0  0  0
 46 52  1  0  0  0  0
 47 54  1  0  0  0  0
 48 55  1  0  0  0  0
 49 68  1  0  0  0  0
 50 55  1  0  0  0  0
 50 68  1  0  0  0  0
 51 72  1  0  0  0  0
 52 54  1  0  0  0  0
 53 67  1  0  0  0  0
 54 61  1  0  0  0  0
 55 66  1  0  0  0  0
 56 63  1  0  0  0  0
 57 64  1  0  0  0  0
 58 64  1  0  0  0  0
 59 64  1  0  0  0  0
 60 74  1  0  0  0  0
 61 81  1  0  0  0  0
 62 64  1  0  0  0  0
 62 73  1  0  0  0  0
 63 74  1  0  0  0  0
 65 66  1  0  0  0  0
M  CHG  1  74   1
M  ISO  4  36 100  61 101  71 100  81 101
M  END
> <Batch ID>
0032

> <Smiles>
CNC(C)C(=O)NC(C(=O)N1Cc2cc([101O:1][101CH2:1]C3CCCCCC3c3ccc([100NH:0][100C:0](=O)N4CCCC(n5nc(-c6ccc(Oc7ccc(F)cc7F)cc6)c(C(N)=O)c5N)C4)s3)ccc2CC1C(=O)NC1CCCc2ccccc21)C(C)(C)C

> <Shape>
0.217

> <Color>
0.065

> <Negative vol penalty>
0.000

$$$$

  -OEChem-04042321423D

 85 94  0     1  0  0  0  0  0999 V2000
  -16.5976  -28.8254   23.2692 C   0  0  0  0  0  0  0  0  0  0  0  0
  -17.3113  -28.5816   22.1002 C   0  0  0  0  0  0  0  0  0  0  0  0
  -26.7849  -13.9690   22.5124 C   0  0  0  0  0  0  0  0  0  0  0  0
  -26.2856  -13.4704   20.2018 C   0  0  0  0  0  0  0  0  0  0  0  0
  -17.2341  -29.4073   24.3647 C   0  0  0  0  0  0  0  0  0  0  0  0
  -18.6619  -28.9206   22.0256 C   0  0  0  0  0  0  0  0  0  0  0  0
  -21.4680  -25.2691   19.9191 C   0  0  0  0  0  0  0  0  0  0  0  0
  -26.7538  -22.4262   14.0650 C   0  0  0  0  0  0  0  0  0  0  0  0
  -27.9593  -21.8368   14.4457 C   0  0  0  0  0  0  0  0  0  0  0  0
  -25.5754  -13.3913   22.8985 C   0  0  0  0  0  0  0  0  0  0  0  0
  -25.0761  -12.8927   20.5878 C   0  0  0  0  0  0  0  0  0  0  0  0
  -21.4272  -25.1560   18.5301 C   0  0  0  0  0  0  0  0  0  0  0  0
  -24.0259   -9.9663   21.9122 C   0  0  0  0  0  0  0  0  0  0  0  0
  -23.6812   -8.7430   21.3375 C   0  0  0  0  0  0  0  0  0  0  0  0
  -23.5219  -26.3426   18.3779 C   0  0  0  0  0  0  0  0  0  0  0  0
  -27.2450  -24.3343   15.4632 C   0  0  0  0  0  0  0  0  0  0  0  0
  -21.6783   -9.7372   20.4225 C   0  0  0  0  0  0  0  0  0  0  0  0
  -27.1400  -14.0086   21.1641 C   0  0  0  0  0  0  0  0  0  0  0  0
  -29.6348  -13.9635   20.6337 C   0  0  0  0  0  0  0  0  0  0  0  0
  -18.5956  -29.7447   24.3069 C   0  0  0  0  0  0  0  0  0  0  0  0
  -22.5324  -25.9305   20.5484 C   0  0  0  0  0  0  0  0  0  0  0  0
  -19.3169  -29.5087   23.1210 C   0  0  0  0  0  0  0  0  0  0  0  0
  -23.5752  -26.4605   19.7752 C   0  0  0  0  0  0  0  0  0  0  0  0
  -26.3967  -23.6749   14.5736 C   0  0  0  0  0  0  0  0  0  0  0  0
  -28.8077  -22.4961   15.3352 C   0  0  0  0  0  0  0  0  0  0  0  0
  -28.4506  -23.7449   15.8440 C   0  0  0  0  0  0  0  0  0  0  0  0
  -24.7210  -12.8531   21.9362 C   0  0  0  0  0  0  0  0  0  0  0  0
  -22.4527  -25.6953   17.7591 C   0  0  0  0  0  0  0  0  0  0  0  0
  -23.1968  -11.0751   21.7421 C   0  0  0  0  0  0  0  0  0  0  0  0
  -22.5074   -8.6284   20.5927 C   0  0  0  0  0  0  0  0  0  0  0  0
  -22.0231  -10.9606   20.9972 C   0  0  0  0  0  0  0  0  0  0  0  0
  -28.3890  -14.6057   20.7646 C   0  0  0  0  0  0  0  0  0  0  0  0
  -30.4933  -14.9579   20.2328 C   0  0  0  0  0  0  0  0  0  0  0  0
  -22.6521  -24.1994   14.3667 C   0  0  0  0  0  0  0  0  0  0  0  0
  -21.9419  -24.6236   13.3176 C   0  0  0  0  0  0  0  0  0  0  0  0
  -29.9848  -12.5908   20.8547 C   0  0  0  0  0  0  0  0  0  0  0  0
  -22.7978  -28.5089   22.3883 C   0  0  0  0  0  0  0  0  0  0  0  0
  -25.8859  -27.5444   22.6237 C   0  0  0  0  0  0  0  0  0  0  0  0
  -28.4853  -25.7934   21.2732 C   0  0  0  0  0  0  0  0  0  0  0  0
  -29.5748  -20.0066   17.3136 C   0  0  0  0  0  0  0  0  0  0  0  0
  -19.2286  -30.4151   25.5004 C   0  0  0  0  0  0  0  0  0  0  0  0
  -22.5751  -26.0206   22.0492 C   0  0  0  0  0  0  0  0  0  0  0  0
  -24.7505  -27.1623   20.4033 C   0  0  0  0  0  0  0  0  0  0  0  0
  -20.7547  -30.4007   25.4687 C   0  0  0  0  0  0  0  0  0  0  0  0
  -31.1564  -19.6870   20.5530 C   0  0  0  0  0  0  0  0  0  0  0  0
  -21.2641  -30.8167   24.0923 C   0  0  0  0  0  0  0  0  0  0  0  0
  -30.7365  -18.2730   20.9583 C   0  0  0  0  0  0  0  0  0  0  0  0
  -30.0346  -20.4047   19.8082 C   0  0  0  0  0  0  0  0  0  0  0  0
  -29.1069  -18.2644   19.0130 C   0  0  0  0  0  0  0  0  0  0  0  0
  -23.7069  -23.4593   15.9786 C   0  0  0  0  0  0  0  0  0  0  0  0
  -20.7894  -29.8396   23.0099 C   0  0  1  0  0  0  0  0  0  0  0  0
  -22.3930  -24.2686   15.8574 C   0  0  1  0  0  0  0  0  0  1  0  0
  -23.4486  -27.1648   22.5545 C   0  0  1  0  0  0  0  0  0  0  0  0
  -30.2060  -17.4781   19.7504 C   0  0  2  0  0  0  0  0  0  0  0  0
  -29.3427  -24.4693   16.7978 C   0  0  0  0  0  0  0  0  0  0  0  0
  -30.7666  -24.7590   21.1212 C   0  0  0  0  0  0  0  0  0  0  0  0
  -26.6981  -30.3450   21.7254 C   0  0  0  0  0  0  0  0  0  0  0  0
  -28.9838  -29.4490   21.2344 C   0  0  0  0  0  0  0  0  0  0  0  0
  -28.0983  -29.3926   23.5658 C   0  0  0  0  0  0  0  0  0  0  0  0
  -27.5736  -23.3077   22.5959 C   0  0  0  0  0  0  0  0  0  0  0  0
  -30.0927  -21.8448   15.7292 C   0  0  0  0  0  0  0  0  0  0  0  0
  -25.0997  -24.3084   14.1643 C   0  0  0  0  0  0  0  0  0  0  0  0
  -27.1501  -27.8056   21.8412 C   0  0  1  0  0  0  0  0  0  0  0  0
  -29.4508  -24.7932   21.8830 C   0  0  2  0  0  0  0  0  0  0  0  0
  -27.7096  -29.2366   22.0794 C   0  0  0  0  0  0  0  0  0  0  0  0
  -28.4465  -15.9074   20.4708 N   0  0  0  0  0  0  0  0  0  0  0  0
  -29.7389  -16.0912   20.1514 N   0  0  0  0  0  0  0  0  0  0  0  0
  -24.7435  -27.2304   21.8740 N   0  0  0  0  0  0  0  0  0  0  0  0
  -29.5879  -19.6041   18.6594 N   0  0  0  0  0  0  0  0  0  0  0  0
  -31.8123  -14.9646   19.9455 N   0  0  0  0  0  0  0  0  0  0  0  0
  -28.9807  -11.7028   21.2641 N   0  0  0  0  0  0  0  0  0  0  0  0
  -21.5838  -28.6303   23.0372 N   0  0  0  0  0  0  0  0  0  0  0  0
  -28.0769  -26.7354   22.1935 N   0  0  0  0  0  0  0  0  0  0  0  0
  -30.0400  -21.2920   17.0644 N   0  0  0  0  0  0  0  0  0  0  0  0
  -23.9148  -23.4892   14.5199 N   0  3  2  0  0  0  0  0  0  0  0  0
  -28.8605  -23.4249   21.8630 N   0  3  0  0  0  0  0  0  0  0  0  0
  -31.1568  -12.1677   20.7098 O   0  0  0  0  0  0  0  0  0  0  0  0
  -23.3563  -29.3724   21.7219 O   0  0  0  0  0  0  0  0  0  0  0  0
  -25.9127  -27.6093   23.8553 O   0  0  0  0  0  0  0  0  0  0  0  0
  -28.1318  -25.7460   20.0970 O   0  0  0  0  0  0  0  0  0  0  0  0
  -29.1825  -19.2725   16.4002 O   0  0  0  0  0  0  0  0  0  0  0  0
  -23.5409  -12.2891   22.3125 O   0  0  0  0  0  0  0  0  0  0  0  0
  -22.4150  -25.5869   16.4031 O   0  0  0  0  0  0  0  0  0  1  0  0
  -22.1773   -7.4540   20.0396 F   0  0  0  0  0  0  0  0  0  0  0  0
  -21.2232  -12.0226   20.8293 F   0  0  0  0  0  0  0  0  0  0  0  0
  1  2  1  0  0  0  0
  1  5  2  0  0  0  0
  2  6  2  0  0  0  0
  3 10  2  0  0  0  0
  3 18  1  0  0  0  0
  4 11  1  0  0  0  0
  4 18  2  0  0  0  0
  5 20  1  0  0  0  0
  6 22  1  0  0  0  0
  7 12  2  0  0  0  0
  7 21  1  0  0  0  0
  8  9  2  0  0  0  0
  8 24  1  0  0  0  0
  9 25  1  0  0  0  0
 10 27  1  0  0  0  0
 11 27  2  0  0  0  0
 12 28  1  0  0  0  0
 13 14  2  0  0  0  0
 13 29  1  0  0  0  0
 14 30  1  0  0  0  0
 15 23  1  0  0  0  0
 15 28  2  0  0  0  0
 16 24  2  0  0  0  0
 16 26  1  0  0  0  0
 17 30  2  0  0  0  0
 17 31  1  0  0  0  0
 18 32  1  0  0  0  0
 19 32  1  0  0  0  0
 19 33  2  0  0  0  0
 19 36  1  0  0  0  0
 20 22  2  0  0  0  0
 20 41  1  0  0  0  0
 21 23  2  0  0  0  0
 21 42  1  0  0  0  0
 22 51  1  0  0  0  0
 23 43  1  0  0  0  0
 24 62  1  0  0  0  0
 25 26  2  0  0  0  0
 25 61  1  0  0  0  0
 26 55  1  0  0  0  0
 27 82  1  0  0  0  0
 28 83  1  0  0  0  0
 29 31  2  0  0  0  0
 29 82  1  0  0  0  0
 30 84  1  0  0  0  0
 31 85  1  0  0  0  0
 32 66  2  0  0  0  0
 33 67  1  0  0  0  0
 33 70  1  0  0  0  0
 34 35  2  0  0  0  0
 34 52  1  0  0  0  0
 34 75  1  0  0  0  0
 36 71  1  0  0  0  0
 36 77  2  0  0  0  0
 37 53  1  0  0  0  0
 37 72  1  0  0  0  0
 37 78  2  0  0  0  0
 38 63  1  0  0  0  0
 38 68  1  0  0  0  0
 38 79  2  0  0  0  0
 39 64  1  0  0  0  0
 39 73  1  0  0  0  0
 39 80  2  0  0  0  0
 40 69  1  0  0  0  0
 40 74  1  0  0  0  0
 40 81  2  0  0  0  0
 41 44  1  0  0  0  0
 42 53  1  0  0  0  0
 43 68  1  0  0  0  0
 44 46  1  0  0  0  0
 45 47  1  0  0  0  0
 45 48  1  0  0  0  0
 46 51  1  0  0  0  0
 47 54  1  0  0  0  0
 48 69  1  0  0  0  0
 49 54  1  0  0  0  0
 49 69  1  0  0  0  0
 50 52  1  0  0  0  0
 50 75  1  0  0  0  0
 51 72  1  0  0  0  0
 52 83  1  0  0  0  0
 53 68  1  0  0  0  0
 54 67  1  0  0  0  0
 56 64  1  0  0  0  0
 57 65  1  0  0  0  0
 58 65  1  0  0  0  0
 59 65  1  0  0  0  0
 60 76  1  0  0  0  0
 61 74  1  0  0  0  0
 62 75  1  0  0  0  0
 63 65  1  0  0  0  0
 63 73  1  0  0  0  0
 64 76  1  0  0  0  0
 66 67  1  0  0  0  0
M  CHG  2  75   1  76   1
M  ISO  4  40 100  52 101  74 100  83 101
M  END
> <Batch ID>
0032

> <Smiles>
C=C1N(Cc2ccc(C[100NH:0][100C:0](=O)N3CCCC(n4nc(-c5ccc(Oc6ccc(F)cc6F)cc5)c(C(N)=O)c4N)C3)c(C)c2)C[101CH:1]1[101O:1]c1ccc2c(c1)CN(C(=O)C(NC(=O)C(C)NC)C(C)(C)C)C(C(=O)NC1CCCc3ccccc31)C2

> <Shape>
0.235

> <Color>
0.062

> <Negative vol penalty>
0.000

$$$$

  -OEChem-04042321423D

 83 91  0     1  0  0  0  0  0999 V2000
  -29.3978  -24.7997   16.6034 C   0  0  0  0  0  0  0  0  0  0  0  0
  -28.1608  -25.3331   16.9471 C   0  0  0  0  0  0  0  0  0  0  0  0
  -25.8058  -16.5419   21.5599 C   0  0  0  0  0  0  0  0  0  0  0  0
  -27.5084  -17.7911   22.7336 C   0  0  0  0  0  0  0  0  0  0  0  0
  -30.4929  -24.9915   17.4431 C   0  0  0  0  0  0  0  0  0  0  0  0
  -28.0212  -26.0685   18.1246 C   0  0  0  0  0  0  0  0  0  0  0  0
  -23.6977  -28.2947   18.8698 C   0  0  0  0  0  0  0  0  0  0  0  0
  -20.1775  -20.4920   20.4776 C   0  0  0  0  0  0  0  0  0  0  0  0
  -20.7190  -19.5600   19.5924 C   0  0  0  0  0  0  0  0  0  0  0  0
  -26.6537  -15.4356   21.5074 C   0  0  0  0  0  0  0  0  0  0  0  0
  -28.3563  -16.6848   22.6812 C   0  0  0  0  0  0  0  0  0  0  0  0
  -22.5357  -27.5954   19.1929 C   0  0  0  0  0  0  0  0  0  0  0  0
  -29.3022  -14.4124   19.6736 C   0  0  0  0  0  0  0  0  0  0  0  0
  -29.4005  -13.7290   18.4617 C   0  0  0  0  0  0  0  0  0  0  0  0
  -22.7613  -28.2940   21.4908 C   0  0  0  0  0  0  0  0  0  0  0  0
  -21.0414  -22.2894   19.1137 C   0  0  0  0  0  0  0  0  0  0  0  0
  -28.6023  -11.7156   19.5323 C   0  0  0  0  0  0  0  0  0  0  0  0
  -26.2332  -17.7197   22.1729 C   0  0  0  0  0  0  0  0  0  0  0  0
  -24.4307  -19.1768   23.2385 C   0  0  0  0  0  0  0  0  0  0  0  0
  -30.3629  -25.7192   18.6375 C   0  0  0  0  0  0  0  0  0  0  0  0
  -24.4075  -28.9911   19.8586 C   0  0  0  0  0  0  0  0  0  0  0  0
  -29.1200  -26.2934   18.9734 C   0  0  0  0  0  0  0  0  0  0  0  0
  -23.9307  -29.0035   21.1772 C   0  0  0  0  0  0  0  0  0  0  0  0
  -20.3387  -21.8567   20.2383 C   0  0  0  0  0  0  0  0  0  0  0  0
  -21.4217  -19.9926   18.4678 C   0  0  0  0  0  0  0  0  0  0  0  0
  -21.5829  -21.3573   18.2284 C   0  0  0  0  0  0  0  0  0  0  0  0
  -27.9289  -15.5070   22.0681 C   0  0  0  0  0  0  0  0  0  0  0  0
  -22.0689  -27.5926   20.5041 C   0  0  0  0  0  0  0  0  0  0  0  0
  -28.8541  -13.7474   20.8150 C   0  0  0  0  0  0  0  0  0  0  0  0
  -29.0505  -12.3806   18.3910 C   0  0  0  0  0  0  0  0  0  0  0  0
  -28.5042  -12.3990   20.7443 C   0  0  0  0  0  0  0  0  0  0  0  0
  -25.3581  -18.8631   22.2269 C   0  0  0  0  0  0  0  0  0  0  0  0
  -23.8550  -20.3528   22.8239 C   0  0  0  0  0  0  0  0  0  0  0  0
  -24.1179  -18.4686   24.4453 C   0  0  0  0  0  0  0  0  0  0  0  0
  -27.3324  -28.7845   21.0857 C   0  0  0  0  0  0  0  0  0  0  0  0
  -26.4425  -31.4804   22.6550 C   0  0  0  0  0  0  0  0  0  0  0  0
  -23.9145  -33.4268   23.8663 C   0  0  0  0  0  0  0  0  0  0  0  0
  -23.4615  -22.6243   17.1529 C   0  0  0  0  0  0  0  0  0  0  0  0
  -31.5828  -25.9029   19.5055 C   0  0  0  0  0  0  0  0  0  0  0  0
  -25.6446  -29.7626   19.4887 C   0  0  0  0  0  0  0  0  0  0  0  0
  -24.6448  -29.7522   22.2717 C   0  0  0  0  0  0  0  0  0  0  0  0
  -31.2396  -26.3098   20.9348 C   0  0  0  0  0  0  0  0  0  0  0  0
  -24.7301  -24.2635   20.2183 C   0  0  0  0  0  0  0  0  0  0  0  0
  -30.2623  -27.4757   20.9228 C   0  0  0  0  0  0  0  0  0  0  0  0
  -25.0346  -23.0799   21.1348 C   0  0  0  0  0  0  0  0  0  0  0  0
  -24.8692  -23.8900   18.7456 C   0  0  0  0  0  0  0  0  0  0  0  0
  -24.3454  -21.5246   19.2673 C   0  0  0  0  0  0  0  0  0  0  0  0
  -28.9373  -27.0709   20.2644 C   0  0  1  0  0  0  0  0  0  0  0  0
  -26.5700  -30.0126   20.6754 C   0  0  1  0  0  0  0  0  0  0  0  0
  -24.1729  -21.8644   20.7553 C   0  0  1  0  0  0  0  0  0  0  0  0
  -21.9916  -18.9717   17.5372 C   0  0  0  0  0  0  0  0  0  0  0  0
  -23.4992  -35.5510   25.1362 C   0  0  0  0  0  0  0  0  0  0  0  0
  -27.2329  -30.0814   25.2489 C   0  0  0  0  0  0  0  0  0  0  0  0
  -25.9395  -31.8219   26.5002 C   0  0  0  0  0  0  0  0  0  0  0  0
  -27.9043  -32.4867   25.1145 C   0  0  0  0  0  0  0  0  0  0  0  0
  -21.6698  -21.6811   15.7630 C   0  0  0  0  0  0  0  0  0  0  0  0
  -22.4293  -34.6254   21.6043 C   0  0  0  0  0  0  0  0  0  0  0  0
  -19.7557  -22.8585   21.1909 C   0  0  0  0  0  0  0  0  0  0  0  0
  -19.9488  -25.1596   22.1431 C   0  0  0  0  0  0  0  0  0  0  0  0
  -20.8444  -26.3827   22.1450 C   0  0  0  0  0  0  0  0  0  1  0  0
  -25.7642  -31.7770   23.9707 C   0  0  1  0  0  0  0  0  0  0  0  0
  -23.6532  -34.9186   23.7618 C   0  0  2  0  0  0  0  0  0  0  0  0
  -26.6976  -31.5259   25.1885 C   0  0  0  0  0  0  0  0  0  0  0  0
  -25.3737  -19.7668   21.2434 N   0  0  0  0  0  0  0  0  0  0  0  0
  -24.4490  -20.6599   21.6352 N   0  0  0  0  0  0  0  0  0  0  0  0
  -25.8532  -30.4862   21.8612 N   0  0  0  0  0  0  0  0  0  0  0  0
  -24.0909  -22.6958   18.4127 N   0  0  0  0  0  0  0  0  0  0  0  0
  -22.9035  -21.1438   23.3637 N   0  0  0  0  0  0  0  0  0  0  0  0
  -24.8035  -17.2769   24.7175 N   0  0  0  0  0  0  0  0  0  0  0  0
  -28.1201  -28.2505   20.0838 N   0  0  0  0  0  0  0  0  0  0  0  0
  -25.2640  -33.1440   23.8730 N   0  0  0  0  0  0  0  0  0  0  0  0
  -22.3056  -21.8247   17.0708 N   0  0  0  0  0  0  0  0  0  0  0  0
  -22.4070  -35.1730   22.9851 N   0  3  0  0  0  0  0  0  0  0  0  0
  -20.5341  -24.1251   21.2534 N   0  3  0  0  0  0  0  0  0  0  0  0
  -23.2441  -18.8717   25.2500 O   0  0  0  0  0  0  0  0  0  0  0  0
  -27.2159  -28.3543   22.2272 O   0  0  0  0  0  0  0  0  0  0  0  0
  -27.4537  -32.1127   22.3399 O   0  0  0  0  0  0  0  0  0  0  0  0
  -23.0118  -32.5959   23.9388 O   0  0  0  0  0  0  0  0  0  0  0  0
  -23.9277  -23.1886   16.1555 O   0  0  0  0  0  0  0  0  0  0  0  0
  -28.7564  -14.4275   22.0173 O   0  0  0  0  0  0  0  0  0  0  0  0
  -20.9352  -26.9103   20.8222 O   0  0  0  0  0  0  0  0  0  1  0  0
  -29.1434  -11.7249   17.2267 F   0  0  0  0  0  0  0  0  0  0  0  0
  -28.0719  -11.7551   21.8372 F   0  0  0  0  0  0  0  0  0  0  0  0
  1  2  1  0  0  0  0
  1  5  2  0  0  0  0
  2  6  2  0  0  0  0
  3 10  2  0  0  0  0
  3 18  1  0  0  0  0
  4 11  1  0  0  0  0
  4 18  2  0  0  0  0
  5 20  1  0  0  0  0
  6 22  1  0  0  0  0
  7 12  2  0  0  0  0
  7 21  1  0  0  0  0
  8  9  2  0  0  0  0
  8 24  1  0  0  0  0
  9 25  1  0  0  0  0
 10 27  1  0  0  0  0
 11 27  2  0  0  0  0
 12 28  1  0  0  0  0
 13 14  2  0  0  0  0
 13 29  1  0  0  0  0
 14 30  1  0  0  0  0
 15 23  1  0  0  0  0
 15 28  2  0  0  0  0
 16 24  2  0  0  0  0
 16 26  1  0  0  0  0
 17 30  2  0  0  0  0
 17 31  1  0  0  0  0
 18 32  1  0  0  0  0
 19 32  1  0  0  0  0
 19 33  2  0  0  0  0
 19 34  1  0  0  0  0
 20 22  2  0  0  0  0
 20 39  1  0  0  0  0
 21 23  2  0  0  0  0
 21 40  1  0  0  0  0
 22 48  1  0  0  0  0
 23 41  1  0  0  0  0
 24 58  1  0  0  0  0
 25 26  2  0  0  0  0
 25 51  1  0  0  0  0
 26 72  1  0  0  0  0
 27 80  1  0  0  0  0
 28 81  1  0  0  0  0
 29 31  2  0  0  0  0
 29 80  1  0  0  0  0
 30 82  1  0  0  0  0
 31 83  1  0  0  0  0
 32 64  2  0  0  0  0
 33 65  1  0  0  0  0
 33 68  1  0  0  0  0
 34 69  1  0  0  0  0
 34 75  2  0  0  0  0
 35 49  1  0  0  0  0
 35 70  1  0  0  0  0
 35 76  2  0  0  0  0
 36 61  1  0  0  0  0
 36 66  1  0  0  0  0
 36 77  2  0  0  0  0
 37 62  1  0  0  0  0
 37 71  1  0  0  0  0
 37 78  2  0  0  0  0
 38 67  1  0  0  0  0
 38 72  1  0  0  0  0
 38 79  2  0  0  0  0
 39 42  1  0  0  0  0
 40 49  1  0  0  0  0
 41 66  1  0  0  0  0
 42 44  1  0  0  0  0
 43 45  1  0  0  0  0
 43 46  1  0  0  0  0
 44 48  1  0  0  0  0
 45 50  1  0  0  0  0
 46 67  1  0  0  0  0
 47 50  1  0  0  0  0
 47 67  1  0  0  0  0
 48 70  1  0  0  0  0
 49 66  1  0  0  0  0
 50 65  1  0  0  0  0
 52 62  1  0  0  0  0
 53 63  1  0  0  0  0
 54 63  1  0  0  0  0
 55 63  1  0  0  0  0
 56 72  1  0  0  0  0
 57 73  1  0  0  0  0
 58 74  1  0  0  0  0
 59 60  1  0  0  0  0
 59 74  1  0  0  0  0
 60 81  1  0  0  0  0
 61 63  1  0  0  0  0
 61 71  1  0  0  0  0
 62 73  1  0  0  0  0
 64 65  1  0  0  0  0
M  CHG  2  73   1  74   1
M  ISO  4  38 100  60 101  72 100  81 101
M  END
> <Batch ID>
0032

> <Smiles>
CNC(C)C(=O)NC(C(=O)N1Cc2cc([101O:1][101CH2:1]CNCc3ccc(C)c([100N:0](C)[100C:0](=O)N4CCCC(n5nc(-c6ccc(Oc7ccc(F)cc7F)cc6)c(C(N)=O)c5N)C4)c3)ccc2CC1C(=O)NC1CCCc2ccccc21)C(C)(C)C

> <Shape>
0.230

> <Color>
0.069

> <Negative vol penalty>
0.000

$$$$
