
  -OEChem-04042321453D

 92102  0     1  0  0  0  0  0999 V2000
  -27.1951  -28.7180   34.2616 C   0  0  0  0  0  0  0  0  0  0  0  0
  -27.4823  -28.1976   33.0038 C   0  0  0  0  0  0  0  0  0  0  0  0
  -32.3867  -18.5456   21.9820 C   0  0  0  0  0  0  0  0  0  0  0  0
  -23.3067  -10.2180   22.2394 C   0  0  0  0  0  0  0  0  0  0  0  0
  -23.5999   -9.5291   19.9424 C   0  0  0  0  0  0  0  0  0  0  0  0
  -28.0133  -28.4069   35.3468 C   0  0  0  0  0  0  0  0  0  0  0  0
  -28.5885  -27.3666   32.8302 C   0  0  0  0  0  0  0  0  0  0  0  0
  -27.5335  -23.2891   30.0185 C   0  0  0  0  0  0  0  0  0  0  0  0
  -31.6193  -19.3756   22.7991 C   0  0  0  0  0  0  0  0  0  0  0  0
  -31.8702  -17.3255   21.5457 C   0  0  0  0  0  0  0  0  0  0  0  0
  -22.5609   -9.0662   22.4897 C   0  0  0  0  0  0  0  0  0  0  0  0
  -22.8541   -8.3772   20.1927 C   0  0  0  0  0  0  0  0  0  0  0  0
  -27.4611  -23.4690   28.6379 C   0  0  0  0  0  0  0  0  0  0  0  0
  -19.4092   -7.9729   21.9456 C   0  0  0  0  0  0  0  0  0  0  0  0
  -18.2259   -8.1127   22.6708 C   0  0  0  0  0  0  0  0  0  0  0  0
  -29.6958  -22.5889   28.4121 C   0  0  0  0  0  0  0  0  0  0  0  0
  -19.0894   -6.6244   24.3668 C   0  0  0  0  0  0  0  0  0  0  0  0
  -23.8262  -10.4495   20.9657 C   0  0  0  0  0  0  0  0  0  0  0  0
  -24.1696  -12.9742   20.8412 C   0  0  0  0  0  0  0  0  0  0  0  0
  -29.1246  -27.5640   35.1884 C   0  0  0  0  0  0  0  0  0  0  0  0
  -28.6936  -22.7670   30.6084 C   0  0  0  0  0  0  0  0  0  0  0  0
  -29.4232  -27.0451   33.9141 C   0  0  0  0  0  0  0  0  0  0  0  0
  -29.7794  -22.4009   29.8002 C   0  0  0  0  0  0  0  0  0  0  0  0
  -30.3354  -18.9855   23.1801 C   0  0  0  0  0  0  0  0  0  0  0  0
  -29.8189  -17.7654   22.7438 C   0  0  0  0  0  0  0  0  0  0  0  0
  -30.5863  -16.9354   21.9266 C   0  0  0  0  0  0  0  0  0  0  0  0
  -22.3346   -8.1458   21.4664 C   0  0  0  0  0  0  0  0  0  0  0  0
  -28.5434  -23.1217   27.8348 C   0  0  0  0  0  0  0  0  0  0  0  0
  -20.4326   -7.1588   22.4310 C   0  0  0  0  0  0  0  0  0  0  0  0
  -18.0660   -7.4385   23.8814 C   0  0  0  0  0  0  0  0  0  0  0  0
  -20.2727   -6.4846   23.6416 C   0  0  0  0  0  0  0  0  0  0  0  0
  -24.5962  -11.6394   20.7064 C   0  0  0  0  0  0  0  0  0  0  0  0
  -25.2625  -13.7224   20.4775 C   0  0  0  0  0  0  0  0  0  0  0  0
  -22.8990  -13.4916   21.2579 C   0  0  0  0  0  0  0  0  0  0  0  0
  -30.8230  -23.8454   32.7075 C   0  0  0  0  0  0  0  0  0  0  0  0
  -31.9778  -20.8211   32.5020 C   0  0  0  0  0  0  0  0  0  0  0  0
  -32.5673  -18.3991   29.8937 C   0  0  0  0  0  0  0  0  0  0  0  0
  -30.7291  -14.7652   20.6554 C   0  0  0  0  0  0  0  0  0  0  0  0
  -30.0071  -27.2943   36.3814 C   0  0  0  0  0  0  0  0  0  0  0  0
  -28.7458  -22.5540   32.0965 C   0  0  0  0  0  0  0  0  0  0  0  0
  -31.0400  -21.8175   30.3823 C   0  0  0  0  0  0  0  0  0  0  0  0
  -30.9443  -26.1047   36.1893 C   0  0  0  0  0  0  0  0  0  0  0  0
  -27.4616  -14.3370   26.1567 C   0  0  0  0  0  0  0  0  0  0  0  0
  -27.0240  -15.7766   26.4079 C   0  0  0  0  0  0  0  0  0  0  0  0
  -28.8325  -14.2755   25.4904 C   0  0  0  0  0  0  0  0  0  0  0  0
  -27.7380  -23.4275   22.2523 C   0  0  0  0  0  0  0  0  0  0  0  0
  -29.6156  -12.3474   18.2907 C   0  0  0  0  0  0  0  0  0  0  0  0
  -28.5047  -22.4327   21.3950 C   0  0  0  0  0  0  0  0  0  0  0  0
  -31.6276  -26.1779   34.8275 C   0  0  0  0  0  0  0  0  0  0  0  0
  -27.0623  -16.6085   25.1280 C   0  0  0  0  0  0  0  0  0  0  0  0
  -28.8740  -15.1050   24.2090 C   0  0  0  0  0  0  0  0  0  0  0  0
  -28.1754  -12.0575   18.7195 C   0  0  0  0  0  0  0  0  0  0  0  0
  -28.3713  -23.5592   23.6306 C   0  0  0  0  0  0  0  0  0  0  0  0
  -30.5297  -12.5780   19.4928 C   0  0  0  0  0  0  0  0  0  0  0  0
  -28.6218  -13.3062   20.8708 C   0  0  0  0  0  0  0  0  0  0  0  0
  -28.6274  -21.0843   22.0840 C   0  0  0  0  0  0  0  0  0  0  0  0
  -30.5999  -26.1202   33.6908 C   0  0  1  0  0  0  0  0  0  0  0  0
  -30.1692  -22.4942   32.6420 C   0  0  1  0  0  0  0  0  0  0  0  0
  -28.4427  -16.5564   24.4594 C   0  0  0  0  0  0  0  0  0  0  0  0
  -27.6500  -13.1313   19.6924 C   0  0  2  0  0  0  0  0  0  0  0  0
  -28.5079  -22.2071   24.3421 C   0  0  2  0  0  0  0  0  0  0  0  0
  -32.6311  -15.8919   29.9794 C   0  0  0  0  0  0  0  0  0  0  0  0
  -34.9834  -21.1989   32.8670 C   0  0  0  0  0  0  0  0  0  0  0  0
  -35.3419  -19.1963   31.4078 C   0  0  0  0  0  0  0  0  0  0  0  0
  -34.1206  -18.9594   33.5700 C   0  0  0  0  0  0  0  0  0  0  0  0
  -30.5158  -18.1587   27.7741 C   0  0  0  0  0  0  0  0  0  0  0  0
  -28.4407  -17.3512   23.1550 C   0  0  0  0  0  0  0  0  0  0  0  0
  -29.5314  -19.8972   24.0594 C   0  0  0  0  0  0  0  0  0  0  0  0
  -29.2276  -22.3949   25.6761 C   0  0  0  0  0  0  0  0  0  1  0  0
  -32.9908  -20.1206   31.6291 C   0  0  1  0  0  0  0  0  0  0  0  0
  -31.7915  -17.1169   29.6519 C   0  0  2  0  0  0  0  0  0  0  0  0
  -34.3443  -19.8911   32.3590 C   0  0  0  0  0  0  0  0  0  0  0  0
  -25.8614  -11.5421   20.2896 N   0  0  0  0  0  0  0  0  0  0  0  0
  -26.2391  -12.8252   20.1591 N   0  0  0  0  0  0  0  0  0  0  0  0
  -31.0450  -21.6345   31.8431 N   0  0  0  0  0  0  0  0  0  0  0  0
  -29.9704  -13.6109   20.3677 N   0  0  0  0  0  0  0  0  0  0  0  0
  -25.4737  -15.0536   20.4021 N   0  0  0  0  0  0  0  0  0  0  0  0
  -21.8862  -12.5836   21.5959 N   0  0  0  0  0  0  0  0  0  0  0  0
  -30.0815  -15.6922   21.4714 N   0  0  0  0  0  0  0  0  0  0  0  0
  -30.1450  -24.7611   33.4894 N   0  0  0  0  0  0  0  0  0  0  0  0
  -32.3493  -18.8967   31.1610 N   0  0  0  0  0  0  0  0  0  0  0  0
  -29.2856  -21.2518   23.4397 N   0  3  1  0  0  0  0  0  0  0  0  0
  -31.3680  -17.0287   28.2257 N   0  3  0  0  0  0  0  0  0  0  0  0
  -22.6634  -14.7224   21.3126 O   0  0  0  0  0  0  0  0  0  0  0  0
  -31.8662  -24.0423   32.0954 O   0  0  0  0  0  0  0  0  0  0  0  0
  -32.0084  -20.6473   33.7229 O   0  0  0  0  0  0  0  0  0  0  0  0
  -33.2969  -18.9063   29.0446 O   0  0  0  0  0  0  0  0  0  0  0  0
  -31.8587  -14.9323   20.1885 O   0  0  0  0  0  0  0  0  0  0  0  0
  -21.6071   -7.0216   21.7103 O   0  0  0  0  0  0  0  0  0  0  0  0
  -28.4757  -23.2969   26.4870 O   0  0  0  0  0  0  0  0  0  1  0  0
  -16.9303   -7.5741   24.5784 F   0  0  0  0  0  0  0  0  0  0  0  0
  -21.2528   -5.7020   24.1136 F   0  0  0  0  0  0  0  0  0  0  0  0
  1  2  1  0  0  0  0
  1  6  2  0  0  0  0
  2  7  2  0  0  0  0
  3  9  2  0  0  0  0
  3 10  1  0  0  0  0
  4 11  2  0  0  0  0
  4 18  1  0  0  0  0
  5 12  1  0  0  0  0
  5 18  2  0  0  0  0
  6 20  1  0  0  0  0
  7 22  1  0  0  0  0
  8 13  2  0  0  0  0
  8 21  1  0  0  0  0
  9 24  1  0  0  0  0
 10 26  2  0  0  0  0
 11 27  1  0  0  0  0
 12 27  2  0  0  0  0
 13 28  1  0  0  0  0
 14 15  2  0  0  0  0
 14 29  1  0  0  0  0
 15 30  1  0  0  0  0
 16 23  1  0  0  0  0
 16 28  2  0  0  0  0
 17 30  2  0  0  0  0
 17 31  1  0  0  0  0
 18 32  1  0  0  0  0
 19 32  1  0  0  0  0
 19 33  2  0  0  0  0
 19 34  1  0  0  0  0
 20 22  2  0  0  0  0
 20 39  1  0  0  0  0
 21 23  2  0  0  0  0
 21 40  1  0  0  0  0
 22 57  1  0  0  0  0
 23 41  1  0  0  0  0
 24 25  2  0  0  0  0
 24 68  1  0  0  0  0
 25 26  1  0  0  0  0
 25 67  1  0  0  0  0
 26 79  1  0  0  0  0
 27 89  1  0  0  0  0
 28 90  1  0  0  0  0
 29 31  2  0  0  0  0
 29 89  1  0  0  0  0
 30 91  1  0  0  0  0
 31 92  1  0  0  0  0
 32 73  2  0  0  0  0
 33 74  1  0  0  0  0
 33 77  1  0  0  0  0
 34 78  1  0  0  0  0
 34 84  2  0  0  0  0
 35 58  1  0  0  0  0
 35 80  1  0  0  0  0
 35 85  2  0  0  0  0
 36 70  1  0  0  0  0
 36 75  1  0  0  0  0
 36 86  2  0  0  0  0
 37 71  1  0  0  0  0
 37 81  1  0  0  0  0
 37 87  2  0  0  0  0
 38 76  1  0  0  0  0
 38 79  1  0  0  0  0
 38 88  2  0  0  0  0
 39 42  1  0  0  0  0
 40 58  1  0  0  0  0
 41 75  1  0  0  0  0
 42 49  1  0  0  0  0
 43 44  1  0  0  0  0
 43 45  1  0  0  0  0
 44 50  1  0  0  0  0
 45 51  1  0  0  0  0
 46 48  1  0  0  0  0
 46 53  1  0  0  0  0
 47 52  1  0  0  0  0
 47 54  1  0  0  0  0
 48 56  1  0  0  0  0
 49 57  1  0  0  0  0
 50 59  1  0  0  0  0
 51 59  1  0  0  0  0
 52 60  1  0  0  0  0
 53 61  1  0  0  0  0
 54 76  1  0  0  0  0
 55 60  1  0  0  0  0
 55 76  1  0  0  0  0
 56 82  1  0  0  0  0
 57 80  1  0  0  0  0
 58 75  1  0  0  0  0
 59 67  1  0  0  0  0
 60 74  1  0  0  0  0
 61 69  1  0  0  0  0
 61 82  1  0  0  0  0
 62 71  1  0  0  0  0
 63 72  1  0  0  0  0
 64 72  1  0  0  0  0
 65 72  1  0  0  0  0
 66 83  1  0  0  0  0
 68 82  1  0  0  0  0
 69 90  1  0  0  0  0
 70 72  1  0  0  0  0
 70 81  1  0  0  0  0
 71 83  1  0  0  0  0
 73 74  1  0  0  0  0
M  CHG  2  82   1  83   1
M  ISO  4  38 100  69 101  79 100  90 101
M  END
> <Batch ID>
0033

> <Smiles>
CNC(C)C(=O)NC(C(=O)N1Cc2cc([101O:1][101CH2:1]C3CCCCN3Cc3cccc([100NH:0][100C:0](=O)N4CCCC(n5nc(-c6ccc(Oc7ccc(F)cc7F)cc6)c(C(N)=O)c5N)C4)c3CC3CCCCC3)ccc2CC1C(=O)NC1CCCc2ccccc21)C(C)(C)C

> <Shape>
0.163

> <Color>
0.184

> <Negative vol penalty>
0.000

$$$$

  -OEChem-04042321453D

 85 94  0     1  0  0  0  0  0999 V2000
  -32.0322  -34.0818   26.6463 C   0  0  0  0  0  0  0  0  0  0  0  0
  -31.9183  -32.7002   26.7629 C   0  0  0  0  0  0  0  0  0  0  0  0
  -32.6779  -17.4506   23.4519 C   0  0  0  0  0  0  0  0  0  0  0  0
  -23.0737   -9.8709   19.9328 C   0  0  0  0  0  0  0  0  0  0  0  0
  -23.8379   -9.8641   22.2248 C   0  0  0  0  0  0  0  0  0  0  0  0
  -31.1990  -34.7775   25.7712 C   0  0  0  0  0  0  0  0  0  0  0  0
  -30.9703  -32.0135   26.0052 C   0  0  0  0  0  0  0  0  0  0  0  0
  -31.5248  -26.3976   23.6263 C   0  0  0  0  0  0  0  0  0  0  0  0
  -31.8999  -18.3212   24.2150 C   0  0  0  0  0  0  0  0  0  0  0  0
  -32.0679  -16.5796   22.5491 C   0  0  0  0  0  0  0  0  0  0  0  0
  -22.3302   -8.7163   20.1773 C   0  0  0  0  0  0  0  0  0  0  0  0
  -23.0943   -8.7095   22.4693 C   0  0  0  0  0  0  0  0  0  0  0  0
  -31.0763  -25.1489   24.0547 C   0  0  0  0  0  0  0  0  0  0  0  0
  -19.8672   -7.9083   23.0731 C   0  0  0  0  0  0  0  0  0  0  0  0
  -19.1125   -7.8614   24.2451 C   0  0  0  0  0  0  0  0  0  0  0  0
  -29.1400  -25.3629   22.6319 C   0  0  0  0  0  0  0  0  0  0  0  0
  -20.3551   -5.9195   24.9676 C   0  0  0  0  0  0  0  0  0  0  0  0
  -23.8276  -10.4447   20.9566 C   0  0  0  0  0  0  0  0  0  0  0  0
  -24.1694  -12.9705   20.8510 C   0  0  0  0  0  0  0  0  0  0  0  0
  -30.2469  -34.0978   24.9952 C   0  0  0  0  0  0  0  0  0  0  0  0
  -30.7775  -27.1443   22.7041 C   0  0  0  0  0  0  0  0  0  0  0  0
  -30.1227  -32.7009   25.1199 C   0  0  0  0  0  0  0  0  0  0  0  0
  -29.5825  -26.6196   22.1914 C   0  0  0  0  0  0  0  0  0  0  0  0
  -30.5121  -18.3209   24.0754 C   0  0  0  0  0  0  0  0  0  0  0  0
  -29.9021  -17.4499   23.1726 C   0  0  0  0  0  0  0  0  0  0  0  0
  -30.6801  -16.5792   22.4095 C   0  0  0  0  0  0  0  0  0  0  0  0
  -22.3405   -8.1356   21.4455 C   0  0  0  0  0  0  0  0  0  0  0  0
  -29.8823  -24.6327   23.5597 C   0  0  0  0  0  0  0  0  0  0  0  0
  -20.8659   -6.9607   22.8482 C   0  0  0  0  0  0  0  0  0  0  0  0
  -19.3564   -6.8671   25.1924 C   0  0  0  0  0  0  0  0  0  0  0  0
  -21.1099   -5.9664   23.7955 C   0  0  0  0  0  0  0  0  0  0  0  0
  -24.5963  -11.6371   20.7045 C   0  0  0  0  0  0  0  0  0  0  0  0
  -25.2609  -13.7221   20.4902 C   0  0  0  0  0  0  0  0  0  0  0  0
  -27.8798  -20.7451   23.9780 C   0  0  0  0  0  0  0  0  0  0  0  0
  -22.8997  -13.4839   21.2754 C   0  0  0  0  0  0  0  0  0  0  0  0
  -29.3277  -29.9725   22.7582 C   0  0  0  0  0  0  0  0  0  0  0  0
  -28.8376  -29.3451   19.6136 C   0  0  0  0  0  0  0  0  0  0  0  0
  -28.5582  -27.0183   17.1328 C   0  0  0  0  0  0  0  0  0  0  0  0
  -30.7275  -14.7663   20.6609 C   0  0  0  0  0  0  0  0  0  0  0  0
  -29.3364  -34.8982   24.0980 C   0  0  0  0  0  0  0  0  0  0  0  0
  -31.2884  -28.4778   22.2318 C   0  0  0  0  0  0  0  0  0  0  0  0
  -28.7534  -27.3726   21.1844 C   0  0  0  0  0  0  0  0  0  0  0  0
  -27.8333  -21.8982   23.0019 C   0  0  0  0  0  0  0  0  0  0  0  0
  -28.6124  -34.0521   23.0540 C   0  0  0  0  0  0  0  0  0  0  0  0
  -29.6084  -12.3668   18.2803 C   0  0  0  0  0  0  0  0  0  0  0  0
  -28.0226  -32.8007   23.6966 C   0  0  0  0  0  0  0  0  0  0  0  0
  -28.1696  -12.0727   18.7109 C   0  0  0  0  0  0  0  0  0  0  0  0
  -30.5258  -12.5883   19.4816 C   0  0  0  0  0  0  0  0  0  0  0  0
  -28.6215  -13.3046   20.8708 C   0  0  0  0  0  0  0  0  0  0  0  0
  -30.1139  -21.2029   23.3431 C   0  0  0  0  0  0  0  0  0  0  0  0
  -29.1234  -31.9175   24.2965 C   0  0  1  0  0  0  0  0  0  0  0  0
  -30.1876  -29.3778   21.6791 C   0  0  1  0  0  0  0  0  0  0  0  0
  -27.6465  -13.1385   19.6938 C   0  0  2  0  0  0  0  0  0  0  0  0
  -29.2706  -22.4114   22.9805 C   0  0  2  0  0  0  0  0  0  1  0  0
  -28.4127  -17.4532   23.0262 C   0  0  0  0  0  0  0  0  0  0  0  0
  -28.1184  -26.8063   14.6713 C   0  0  0  0  0  0  0  0  0  0  0  0
  -25.8700  -29.8596   20.1021 C   0  0  0  0  0  0  0  0  0  0  0  0
  -25.3867  -28.7317   17.9197 C   0  0  0  0  0  0  0  0  0  0  0  0
  -26.7571  -30.8155   17.9681 C   0  0  0  0  0  0  0  0  0  0  0  0
  -31.2013  -25.7774   16.6496 C   0  0  0  0  0  0  0  0  0  0  0  0
  -29.6986  -19.2682   24.9090 C   0  0  0  0  0  0  0  0  0  0  0  0
  -27.7573  -28.6543   18.8170 C   0  0  1  0  0  0  0  0  0  0  0  0
  -29.1813  -26.9396   15.7508 C   0  0  2  0  0  0  0  0  0  0  0  0
  -26.4572  -29.5017   18.7222 C   0  0  0  0  0  0  0  0  0  0  0  0
  -25.8603  -11.5437   20.2833 N   0  0  0  0  0  0  0  0  0  0  0  0
  -26.2371  -12.8280   20.1620 N   0  0  0  0  0  0  0  0  0  0  0  0
  -29.2163  -20.3925   24.1360 N   0  0  0  0  0  0  0  0  0  0  0  0
  -29.2919  -28.6749   20.7583 N   0  0  0  0  0  0  0  0  0  0  0  0
  -29.9686  -13.6139   20.3662 N   0  0  0  0  0  0  0  0  0  0  0  0
  -25.4712  -15.0540   20.4248 N   0  0  0  0  0  0  0  0  0  0  0  0
  -21.8883  -12.5728   21.6091 N   0  0  0  0  0  0  0  0  0  0  0  0
  -30.0817  -15.6865   21.4861 N   0  0  0  0  0  0  0  0  0  0  0  0
  -29.7981  -31.1733   23.2547 N   0  0  0  0  0  0  0  0  0  0  0  0
  -28.3505  -28.3235   17.5259 N   0  0  0  0  0  0  0  0  0  0  0  0
  -30.0934  -25.7645   15.6599 N   0  3  0  0  0  0  0  0  0  0  0  0
  -26.8956  -20.2196   24.4772 O   0  0  0  0  0  0  0  0  0  0  0  0
  -22.6636  -14.7142   21.3406 O   0  0  0  0  0  0  0  0  0  0  0  0
  -28.3118  -29.3862   23.1131 O   0  0  0  0  0  0  0  0  0  0  0  0
  -29.2678  -30.4359   19.2303 O   0  0  0  0  0  0  0  0  0  0  0  0
  -28.2799  -26.0215   17.7958 O   0  0  0  0  0  0  0  0  0  0  0  0
  -31.8557  -14.9377   20.1922 O   0  0  0  0  0  0  0  0  0  0  0  0
  -21.6149   -7.0091   21.6845 O   0  0  0  0  0  0  0  0  0  0  0  0
  -29.4420  -23.4145   23.9767 O   0  0  0  0  0  0  0  0  0  1  0  0
  -18.6326   -6.8231   26.3186 F   0  0  0  0  0  0  0  0  0  0  0  0
  -22.0687   -5.0541   23.5856 F   0  0  0  0  0  0  0  0  0  0  0  0
  1  2  1  0  0  0  0
  1  6  2  0  0  0  0
  2  7  2  0  0  0  0
  3  9  2  0  0  0  0
  3 10  1  0  0  0  0
  4 11  2  0  0  0  0
  4 18  1  0  0  0  0
  5 12  1  0  0  0  0
  5 18  2  0  0  0  0
  6 20  1  0  0  0  0
  7 22  1  0  0  0  0
  8 13  2  0  0  0  0
  8 21  1  0  0  0  0
  9 24  1  0  0  0  0
 10 26  2  0  0  0  0
 11 27  1  0  0  0  0
 12 27  2  0  0  0  0
 13 28  1  0  0  0  0
 14 15  2  0  0  0  0
 14 29  1  0  0  0  0
 15 30  1  0  0  0  0
 16 23  1  0  0  0  0
 16 28  2  0  0  0  0
 17 30  2  0  0  0  0
 17 31  1  0  0  0  0
 18 32  1  0  0  0  0
 19 32  1  0  0  0  0
 19 33  2  0  0  0  0
 19 35  1  0  0  0  0
 20 22  2  0  0  0  0
 20 40  1  0  0  0  0
 21 23  2  0  0  0  0
 21 41  1  0  0  0  0
 22 51  1  0  0  0  0
 23 42  1  0  0  0  0
 24 25  2  0  0  0  0
 24 61  1  0  0  0  0
 25 26  1  0  0  0  0
 25 55  1  0  0  0  0
 26 72  1  0  0  0  0
 27 82  1  0  0  0  0
 28 83  1  0  0  0  0
 29 31  2  0  0  0  0
 29 82  1  0  0  0  0
 30 84  1  0  0  0  0
 31 85  1  0  0  0  0
 32 65  2  0  0  0  0
 33 66  1  0  0  0  0
 33 70  1  0  0  0  0
 34 43  1  0  0  0  0
 34 67  1  0  0  0  0
 34 76  2  0  0  0  0
 35 71  1  0  0  0  0
 35 77  2  0  0  0  0
 36 52  1  0  0  0  0
 36 73  1  0  0  0  0
 36 78  2  0  0  0  0
 37 62  1  0  0  0  0
 37 68  1  0  0  0  0
 37 79  2  0  0  0  0
 38 63  1  0  0  0  0
 38 74  1  0  0  0  0
 38 80  2  0  0  0  0
 39 69  1  0  0  0  0
 39 72  1  0  0  0  0
 39 81  2  0  0  0  0
 40 44  1  0  0  0  0
 41 52  1  0  0  0  0
 42 68  1  0  0  0  0
 43 54  1  0  0  0  0
 44 46  1  0  0  0  0
 45 47  1  0  0  0  0
 45 48  1  0  0  0  0
 46 51  1  0  0  0  0
 47 53  1  0  0  0  0
 48 69  1  0  0  0  0
 49 53  1  0  0  0  0
 49 69  1  0  0  0  0
 50 54  1  0  0  0  0
 50 67  1  0  0  0  0
 51 73  1  0  0  0  0
 52 68  1  0  0  0  0
 53 66  1  0  0  0  0
 54 83  1  0  0  0  0
 56 63  1  0  0  0  0
 57 64  1  0  0  0  0
 58 64  1  0  0  0  0
 59 64  1  0  0  0  0
 60 75  1  0  0  0  0
 61 67  1  0  0  0  0
 62 64  1  0  0  0  0
 62 74  1  0  0  0  0
 63 75  1  0  0  0  0
 65 66  1  0  0  0  0
M  CHG  1  75   1
M  ISO  4  39 100  54 101  72 100  83 101
M  END
> <Batch ID>
0033

> <Smiles>
CNC(C)C(=O)NC(C(=O)N1Cc2cc([101O:1][101CH:1]3CC(=O)N(Cc4cccc([100NH:0][100C:0](=O)N5CCCC(n6nc(-c7ccc(Oc8ccc(F)cc8F)cc7)c(C(N)=O)c6N)C5)c4C)C3)ccc2CC1C(=O)NC1CCCc2ccccc21)C(C)(C)C

> <Shape>
0.224

> <Color>
0.192

> <Negative vol penalty>
0.000

$$$$

  -OEChem-04042321453D

 85 94  0     1  0  0  0  0  0999 V2000
  -38.3691  -26.0831    7.5035 C   0  0  0  0  0  0  0  0  0  0  0  0
  -37.0052  -25.8473    7.3636 C   0  0  0  0  0  0  0  0  0  0  0  0
  -23.2901   -9.7953   19.9036 C   0  0  0  0  0  0  0  0  0  0  0  0
  -23.7140   -9.9353   22.2780 C   0  0  0  0  0  0  0  0  0  0  0  0
  -39.0667  -25.5205    8.5716 C   0  0  0  0  0  0  0  0  0  0  0  0
  -36.3382  -25.0479    8.2912 C   0  0  0  0  0  0  0  0  0  0  0  0
  -29.9645  -24.3290   11.4811 C   0  0  0  0  0  0  0  0  0  0  0  0
  -22.5579   -8.6251   20.1033 C   0  0  0  0  0  0  0  0  0  0  0  0
  -22.9817   -8.7651   22.4777 C   0  0  0  0  0  0  0  0  0  0  0  0
  -28.9817  -23.3694   11.7198 C   0  0  0  0  0  0  0  0  0  0  0  0
  -19.4614   -7.7743   21.1621 C   0  0  0  0  0  0  0  0  0  0  0  0
  -18.2396   -7.6533   20.5003 C   0  0  0  0  0  0  0  0  0  0  0  0
  -28.4114  -15.4744   15.8415 C   0  0  0  0  0  0  0  0  0  0  0  0
  -30.2736  -22.5149   13.5691 C   0  0  0  0  0  0  0  0  0  0  0  0
  -27.5478  -17.6845   17.3084 C   0  0  0  0  0  0  0  0  0  0  0  0
  -19.0482   -5.6778   19.3687 C   0  0  0  0  0  0  0  0  0  0  0  0
  -23.8683  -10.4504   20.9909 C   0  0  0  0  0  0  0  0  0  0  0  0
  -28.9168  -15.7028   17.1213 C   0  0  0  0  0  0  0  0  0  0  0  0
  -24.1376  -12.9796   20.7946 C   0  0  0  0  0  0  0  0  0  0  0  0
  -38.4060  -24.7217    9.5182 C   0  0  0  0  0  0  0  0  0  0  0  0
  -31.1163  -24.3819   12.2791 C   0  0  0  0  0  0  0  0  0  0  0  0
  -37.0279  -24.4730    9.3723 C   0  0  0  0  0  0  0  0  0  0  0  0
  -31.2684  -23.4778   13.3401 C   0  0  0  0  0  0  0  0  0  0  0  0
  -27.4740  -16.3510   15.2951 C   0  0  0  0  0  0  0  0  0  0  0  0
  -28.4850  -16.8079   17.8548 C   0  0  0  0  0  0  0  0  0  0  0  0
  -27.0422  -17.4561   16.0285 C   0  0  0  0  0  0  0  0  0  0  0  0
  -22.4036   -8.1100   21.3903 C   0  0  0  0  0  0  0  0  0  0  0  0
  -29.1375  -22.4603   12.7621 C   0  0  0  0  0  0  0  0  0  0  0  0
  -20.4767   -6.8471   20.9272 C   0  0  0  0  0  0  0  0  0  0  0  0
  -18.0329   -6.6050   19.6037 C   0  0  0  0  0  0  0  0  0  0  0  0
  -20.2701   -5.7988   20.0305 C   0  0  0  0  0  0  0  0  0  0  0  0
  -24.6253  -11.6590   20.7852 C   0  0  0  0  0  0  0  0  0  0  0  0
  -25.2443  -13.7561   20.5521 C   0  0  0  0  0  0  0  0  0  0  0  0
  -25.6484  -20.2637   13.9138 C   0  0  0  0  0  0  0  0  0  0  0  0
  -24.6173  -19.8505   13.1674 C   0  0  0  0  0  0  0  0  0  0  0  0
  -29.9027  -14.7641   17.6724 C   0  0  0  0  0  0  0  0  0  0  0  0
  -22.8035  -13.4613   21.0039 C   0  0  0  0  0  0  0  0  0  0  0  0
  -34.2313  -24.0377   11.7476 C   0  0  0  0  0  0  0  0  0  0  0  0
  -34.4644  -24.9310   14.8573 C   0  0  0  0  0  0  0  0  0  0  0  0
  -32.9871  -25.1566   17.9254 C   0  0  0  0  0  0  0  0  0  0  0  0
  -39.2116  -24.0965   10.6294 C   0  0  0  0  0  0  0  0  0  0  0  0
  -32.1547  -25.4401   12.0254 C   0  0  0  0  0  0  0  0  0  0  0  0
  -32.4768  -23.5055   14.2386 C   0  0  0  0  0  0  0  0  0  0  0  0
  -26.0452  -21.6903   14.1328 C   0  0  0  0  0  0  0  0  0  0  0  0
  -38.3568  -23.5678   11.7784 C   0  0  0  0  0  0  0  0  0  0  0  0
  -30.1611  -12.5740   20.4792 C   0  0  0  0  0  0  0  0  0  0  0  0
  -37.1797  -22.7604   11.2404 C   0  0  0  0  0  0  0  0  0  0  0  0
  -28.7051  -12.2315   20.8003 C   0  0  0  0  0  0  0  0  0  0  0  0
  -30.3873  -12.7211   18.9766 C   0  0  0  0  0  0  0  0  0  0  0  0
  -28.0199  -13.3382   18.6308 C   0  0  0  0  0  0  0  0  0  0  0  0
  -27.7449  -20.1952   14.9554 C   0  0  0  0  0  0  0  0  0  0  0  0
  -36.2642  -23.6316   10.3718 C   0  0  1  0  0  0  0  0  0  0  0  0
  -33.5286  -25.0739   12.5784 C   0  0  1  0  0  0  0  0  0  0  0  0
  -27.7380  -13.2311   20.1385 C   0  0  1  0  0  0  0  0  0  0  0  0
  -27.5521  -21.5428   14.2744 C   0  0  1  0  0  0  0  0  0  1  0  0
  -26.9468  -16.0860   13.9231 C   0  0  0  0  0  0  0  0  0  0  0  0
  -29.0105  -17.0760   19.2274 C   0  0  0  0  0  0  0  0  0  0  0  0
  -33.4400  -25.8960   20.2803 C   0  0  0  0  0  0  0  0  0  0  0  0
  -36.1230  -22.4133   15.3262 C   0  0  0  0  0  0  0  0  0  0  0  0
  -35.7369  -22.7007   17.7832 C   0  0  0  0  0  0  0  0  0  0  0  0
  -36.9670  -24.4526   16.5023 C   0  0  0  0  0  0  0  0  0  0  0  0
  -30.8288  -27.1794   17.8286 C   0  0  0  0  0  0  0  0  0  0  0  0
  -26.0350  -18.4127   15.4617 C   0  0  0  0  0  0  0  0  0  0  0  0
  -34.4716  -24.2046   16.1806 C   0  0  1  0  0  0  0  0  0  0  0  0
  -32.8975  -26.3012   18.9186 C   0  0  2  0  0  0  0  0  0  0  0  0
  -35.8027  -23.4408   16.4301 C   0  0  0  0  0  0  0  0  0  0  0  0
  -25.9395  -11.5963   20.5548 N   0  0  0  0  0  0  0  0  0  0  0  0
  -26.2869  -12.8872   20.4171 N   0  0  0  0  0  0  0  0  0  0  0  0
  -29.4334  -13.6679   18.4000 N   0  0  0  0  0  0  0  0  0  0  0  0
  -33.4672  -24.5548   13.9462 N   0  0  0  0  0  0  0  0  0  0  0  0
  -25.4175  -15.0904   20.4433 N   0  0  0  0  0  0  0  0  0  0  0  0
  -21.7853  -12.5275   21.2400 N   0  0  0  0  0  0  0  0  0  0  0  0
  -35.4258  -24.4687   11.2028 N   0  0  0  0  0  0  0  0  0  0  0  0
  -34.1564  -25.2034   17.1963 N   0  0  0  0  0  0  0  0  0  0  0  0
  -26.6116  -19.3239   14.4201 N   0  3  1  0  0  0  0  0  0  0  0  0
  -31.4807  -26.7318   19.0863 N   0  3  0  0  0  0  0  0  0  0  0  0
  -31.0845  -15.0282   17.4562 O   0  0  0  0  0  0  0  0  0  0  0  0
  -22.5197  -14.6826   20.9660 O   0  0  0  0  0  0  0  0  0  0  0  0
  -33.7278  -22.9287   11.6122 O   0  0  0  0  0  0  0  0  0  0  0  0
  -35.3078  -25.8052   14.6427 O   0  0  0  0  0  0  0  0  0  0  0  0
  -32.1093  -24.3040   17.8107 O   0  0  0  0  0  0  0  0  0  0  0  0
  -21.6889   -6.9682   21.5856 O   0  0  0  0  0  0  0  0  0  0  0  0
  -28.1800  -21.5222   12.9968 O   0  0  0  0  0  0  0  0  0  1  0  0
  -16.8590   -6.4880   18.9694 F   0  0  0  0  0  0  0  0  0  0  0  0
  -21.2413   -4.9043   19.8016 F   0  0  0  0  0  0  0  0  0  0  0  0
  1  2  1  0  0  0  0
  1  5  2  0  0  0  0
  2  6  2  0  0  0  0
  3  8  2  0  0  0  0
  3 17  1  0  0  0  0
  4  9  1  0  0  0  0
  4 17  2  0  0  0  0
  5 20  1  0  0  0  0
  6 22  1  0  0  0  0
  7 10  2  0  0  0  0
  7 21  1  0  0  0  0
  8 27  1  0  0  0  0
  9 27  2  0  0  0  0
 10 28  1  0  0  0  0
 11 12  2  0  0  0  0
 11 29  1  0  0  0  0
 12 30  1  0  0  0  0
 13 18  2  0  0  0  0
 13 24  1  0  0  0  0
 14 23  1  0  0  0  0
 14 28  2  0  0  0  0
 15 25  2  0  0  0  0
 15 26  1  0  0  0  0
 16 30  2  0  0  0  0
 16 31  1  0  0  0  0
 17 32  1  0  0  0  0
 18 25  1  0  0  0  0
 18 36  1  0  0  0  0
 19 32  1  0  0  0  0
 19 33  2  0  0  0  0
 19 37  1  0  0  0  0
 20 22  2  0  0  0  0
 20 41  1  0  0  0  0
 21 23  2  0  0  0  0
 21 42  1  0  0  0  0
 22 52  1  0  0  0  0
 23 43  1  0  0  0  0
 24 26  2  0  0  0  0
 24 56  1  0  0  0  0
 25 57  1  0  0  0  0
 26 63  1  0  0  0  0
 27 82  1  0  0  0  0
 28 83  1  0  0  0  0
 29 31  2  0  0  0  0
 29 82  1  0  0  0  0
 30 84  1  0  0  0  0
 31 85  1  0  0  0  0
 32 67  2  0  0  0  0
 33 68  1  0  0  0  0
 33 71  1  0  0  0  0
 34 35  2  0  0  0  0
 34 44  1  0  0  0  0
 34 75  1  0  0  0  0
 36 69  1  0  0  0  0
 36 77  2  0  0  0  0
 37 72  1  0  0  0  0
 37 78  2  0  0  0  0
 38 53  1  0  0  0  0
 38 73  1  0  0  0  0
 38 79  2  0  0  0  0
 39 64  1  0  0  0  0
 39 70  1  0  0  0  0
 39 80  2  0  0  0  0
 40 65  1  0  0  0  0
 40 74  1  0  0  0  0
 40 81  2  0  0  0  0
 41 45  1  0  0  0  0
 42 53  1  0  0  0  0
 43 70  1  0  0  0  0
 44 55  1  0  0  0  0
 45 47  1  0  0  0  0
 46 48  1  0  0  0  0
 46 49  1  0  0  0  0
 47 52  1  0  0  0  0
 48 54  1  0  0  0  0
 49 69  1  0  0  0  0
 50 54  1  0  0  0  0
 50 69  1  0  0  0  0
 51 55  1  0  0  0  0
 51 75  1  0  0  0  0
 52 73  1  0  0  0  0
 53 70  1  0  0  0  0
 54 68  1  0  0  0  0
 55 83  1  0  0  0  0
 58 65  1  0  0  0  0
 59 66  1  0  0  0  0
 60 66  1  0  0  0  0
 61 66  1  0  0  0  0
 62 76  1  0  0  0  0
 63 75  1  0  0  0  0
 64 66  1  0  0  0  0
 64 74  1  0  0  0  0
 65 76  1  0  0  0  0
 67 68  1  0  0  0  0
M  CHG  2  75   1  76   1
M  ISO  4  18 100  36 100  55 101  83 101
M  END
> <Batch ID>
0033

> <Smiles>
C=C1C[101CH:1]([101O:1]c2ccc3c(c2)CN(C(=O)C(NC(=O)C(C)NC)C(C)(C)C)C(C(=O)NC2CCCc4ccccc42)C3)CN1Cc1cc(C)[100c:0]([100C:0](=O)N2CCCC(n3nc(-c4ccc(Oc5ccc(F)cc5F)cc4)c(C(N)=O)c3N)C2)cc1C

> <Shape>
0.134

> <Color>
0.173

> <Negative vol penalty>
0.000

$$$$

  -OEChem-04042321453D

 87 96  0     1  0  0  0  0  0999 V2000
  -17.6305  -26.7983   22.5959 C   0  0  0  0  0  0  0  0  0  0  0  0
  -18.8106  -26.4275   21.9594 C   0  0  0  0  0  0  0  0  0  0  0  0
  -24.3900  -13.3625   21.2051 C   0  0  0  0  0  0  0  0  0  0  0  0
  -26.3233  -12.9965   19.8031 C   0  0  0  0  0  0  0  0  0  0  0  0
  -17.5653  -28.0033   23.2943 C   0  0  0  0  0  0  0  0  0  0  0  0
  -19.9261  -27.2621   22.0200 C   0  0  0  0  0  0  0  0  0  0  0  0
  -25.8000  -25.5454   22.2559 C   0  0  0  0  0  0  0  0  0  0  0  0
  -23.9526  -12.0647   20.9407 C   0  0  0  0  0  0  0  0  0  0  0  0
  -25.8859  -11.6986   19.5387 C   0  0  0  0  0  0  0  0  0  0  0  0
  -26.7877  -25.4442   21.2771 C   0  0  0  0  0  0  0  0  0  0  0  0
  -24.6761   -8.9311   21.9845 C   0  0  0  0  0  0  0  0  0  0  0  0
  -24.2225   -8.1681   23.0605 C   0  0  0  0  0  0  0  0  0  0  0  0
  -27.5939  -27.6384   21.8725 C   0  0  0  0  0  0  0  0  0  0  0  0
  -31.6939  -21.1442   17.3268 C   0  0  0  0  0  0  0  0  0  0  0  0
  -29.5841  -22.4097   16.0114 C   0  0  0  0  0  0  0  0  0  0  0  0
  -22.0604   -7.9615   22.0023 C   0  0  0  0  0  0  0  0  0  0  0  0
  -25.5754  -13.8285   20.6362 C   0  0  0  0  0  0  0  0  0  0  0  0
  -26.8679  -15.5863   21.9580 C   0  0  0  0  0  0  0  0  0  0  0  0
  -18.6834  -28.8485   23.3716 C   0  0  0  0  0  0  0  0  0  0  0  0
  -25.6948  -26.7003   23.0443 C   0  0  0  0  0  0  0  0  0  0  0  0
  -19.8754  -28.4802   22.7189 C   0  0  0  0  0  0  0  0  0  0  0  0
  -26.6056  -27.7507   22.8623 C   0  0  0  0  0  0  0  0  0  0  0  0
  -30.6606  -20.3863   16.7759 C   0  0  0  0  0  0  0  0  0  0  0  0
  -31.6723  -22.5348   17.2201 C   0  0  0  0  0  0  0  0  0  0  0  0
  -29.6057  -21.0190   16.1181 C   0  0  0  0  0  0  0  0  0  0  0  0
  -30.6174  -23.1676   16.5623 C   0  0  0  0  0  0  0  0  0  0  0  0
  -24.7005  -11.2328   20.1076 C   0  0  0  0  0  0  0  0  0  0  0  0
  -27.6830  -26.4920   21.0833 C   0  0  0  0  0  0  0  0  0  0  0  0
  -23.8219   -9.2093   20.9174 C   0  0  0  0  0  0  0  0  0  0  0  0
  -22.9146   -7.6833   23.0693 C   0  0  0  0  0  0  0  0  0  0  0  0
  -22.5140   -8.7245   20.9263 C   0  0  0  0  0  0  0  0  0  0  0  0
  -26.0275  -15.1692   20.9084 C   0  0  0  0  0  0  0  0  0  0  0  0
  -26.9951  -16.9420   21.7780 C   0  0  0  0  0  0  0  0  0  0  0  0
  -30.1130  -26.7768   17.5706 C   0  0  0  0  0  0  0  0  0  0  0  0
  -31.2145  -27.5054   17.3537 C   0  0  0  0  0  0  0  0  0  0  0  0
  -27.4790  -14.8170   23.0023 C   0  0  0  0  0  0  0  0  0  0  0  0
  -23.4635  -28.9212   23.4831 C   0  0  0  0  0  0  0  0  0  0  0  0
  -25.5014  -29.9583   25.7839 C   0  0  0  0  0  0  0  0  0  0  0  0
  -28.6943  -30.0882   26.9819 C   0  0  0  0  0  0  0  0  0  0  0  0
  -26.4944  -20.4821   16.9751 C   0  0  0  0  0  0  0  0  0  0  0  0
  -18.5507  -30.1633   24.0984 C   0  0  0  0  0  0  0  0  0  0  0  0
  -24.6406  -26.7828   24.1139 C   0  0  0  0  0  0  0  0  0  0  0  0
  -26.5480  -29.0036   23.6962 C   0  0  0  0  0  0  0  0  0  0  0  0
  -28.7581  -27.3257   17.8923 C   0  0  0  0  0  0  0  0  0  0  0  0
  -19.8911  -30.8143   24.4296 C   0  0  0  0  0  0  0  0  0  0  0  0
  -24.6516  -20.7209   20.0121 C   0  0  0  0  0  0  0  0  0  0  0  0
  -20.8125  -30.7872   23.2142 C   0  0  0  0  0  0  0  0  0  0  0  0
  -24.8711  -19.3628   20.6809 C   0  0  0  0  0  0  0  0  0  0  0  0
  -24.5410  -20.5914   18.4945 C   0  0  0  0  0  0  0  0  0  0  0  0
  -25.8814  -18.5234   18.5191 C   0  0  0  0  0  0  0  0  0  0  0  0
  -28.8130  -24.9403   18.2204 C   0  0  0  0  0  0  0  0  0  0  0  0
  -21.1142  -29.3469   22.7827 C   0  0  1  0  0  0  0  0  0  0  0  0
  -24.3032  -28.2167   24.5109 C   0  0  1  0  0  0  0  0  0  0  0  0
  -26.0549  -18.6095   20.0451 C   0  0  2  0  0  0  0  0  0  0  0  0
  -28.2132  -26.2208   18.7838 C   0  0  1  0  0  0  0  0  0  1  0  0
  -30.7055  -18.8988   16.9019 C   0  0  0  0  0  0  0  0  0  0  0  0
  -32.7891  -23.3255   17.8185 C   0  0  0  0  0  0  0  0  0  0  0  0
  -30.0554  -31.0414   28.8624 C   0  0  0  0  0  0  0  0  0  0  0  0
  -25.3884  -32.7090   24.4683 C   0  0  0  0  0  0  0  0  0  0  0  0
  -27.4362  -33.3363   25.7649 C   0  0  0  0  0  0  0  0  0  0  0  0
  -25.3326  -32.7452   26.9683 C   0  0  0  0  0  0  0  0  0  0  0  0
  -29.5022  -27.3983   27.9148 C   0  0  0  0  0  0  0  0  0  0  0  0
  -28.4888  -20.2284   15.5200 C   0  0  0  0  0  0  0  0  0  0  0  0
  -30.5722  -24.6619   16.4358 C   0  0  0  0  0  0  0  0  0  0  0  0
  -26.6625  -30.9221   25.8283 C   0  0  1  0  0  0  0  0  0  0  0  0
  -29.2605  -29.8425   28.3688 C   0  0  2  0  0  0  0  0  0  0  0  0
  -26.2051  -32.4055   25.7402 C   0  0  0  0  0  0  0  0  0  0  0  0
  -25.6475  -16.1783   20.1201 N   0  0  0  0  0  0  0  0  0  0  0  0
  -26.2518  -17.2428   20.6747 N   0  0  0  0  0  0  0  0  0  0  0  0
  -25.4955  -29.0394   24.7249 N   0  0  0  0  0  0  0  0  0  0  0  0
  -25.6952  -19.8691   17.9541 N   0  0  0  0  0  0  0  0  0  0  0  0
  -27.6690  -17.8941   22.4574 N   0  0  0  0  0  0  0  0  0  0  0  0
  -27.2438  -13.4359   23.0398 N   0  0  0  0  0  0  0  0  0  0  0  0
  -22.1030  -28.7539   23.6575 N   0  0  0  0  0  0  0  0  0  0  0  0
  -27.4148  -30.5994   27.0359 N   0  0  0  0  0  0  0  0  0  0  0  0
  -27.5719  -19.7311   16.5213 N   0  0  0  0  0  0  0  0  0  0  0  0
  -30.1939  -25.3484   17.7137 N   0  3  1  0  0  0  0  0  0  0  0  0
  -30.1601  -28.6544   28.3580 N   0  3  0  0  0  0  0  0  0  0  0  0
  -28.1986  -15.3415   23.8858 O   0  0  0  0  0  0  0  0  0  0  0  0
  -24.0095  -29.5697   22.5983 O   0  0  0  0  0  0  0  0  0  0  0  0
  -24.6354  -30.0139   26.6606 O   0  0  0  0  0  0  0  0  0  0  0  0
  -29.3253  -29.8539   25.9537 O   0  0  0  0  0  0  0  0  0  0  0  0
  -26.2680  -21.6169   16.5416 O   0  0  0  0  0  0  0  0  0  0  0  0
  -24.2740   -9.9662   19.8496 O   0  0  0  0  0  0  0  0  0  0  0  0
  -28.6476  -26.3961   20.1282 O   0  0  0  0  0  0  0  0  0  1  0  0
  -22.4796   -6.9494   24.1019 F   0  0  0  0  0  0  0  0  0  0  0  0
  -21.6891   -8.9875   19.9035 F   0  0  0  0  0  0  0  0  0  0  0  0
  1  2  1  0  0  0  0
  1  5  2  0  0  0  0
  2  6  2  0  0  0  0
  3  8  2  0  0  0  0
  3 17  1  0  0  0  0
  4  9  1  0  0  0  0
  4 17  2  0  0  0  0
  5 19  1  0  0  0  0
  6 21  1  0  0  0  0
  7 10  2  0  0  0  0
  7 20  1  0  0  0  0
  8 27  1  0  0  0  0
  9 27  2  0  0  0  0
 10 28  1  0  0  0  0
 11 12  2  0  0  0  0
 11 29  1  0  0  0  0
 12 30  1  0  0  0  0
 13 22  1  0  0  0  0
 13 28  2  0  0  0  0
 14 23  2  0  0  0  0
 14 24  1  0  0  0  0
 15 25  2  0  0  0  0
 15 26  1  0  0  0  0
 16 30  2  0  0  0  0
 16 31  1  0  0  0  0
 17 32  1  0  0  0  0
 18 32  1  0  0  0  0
 18 33  2  0  0  0  0
 18 36  1  0  0  0  0
 19 21  2  0  0  0  0
 19 41  1  0  0  0  0
 20 22  2  0  0  0  0
 20 42  1  0  0  0  0
 21 52  1  0  0  0  0
 22 43  1  0  0  0  0
 23 25  1  0  0  0  0
 23 56  1  0  0  0  0
 24 26  2  0  0  0  0
 24 57  1  0  0  0  0
 25 63  1  0  0  0  0
 26 64  1  0  0  0  0
 27 84  1  0  0  0  0
 28 85  1  0  0  0  0
 29 31  2  0  0  0  0
 29 84  1  0  0  0  0
 30 86  1  0  0  0  0
 31 87  1  0  0  0  0
 32 68  2  0  0  0  0
 33 69  1  0  0  0  0
 33 72  1  0  0  0  0
 34 35  2  0  0  0  0
 34 44  1  0  0  0  0
 34 77  1  0  0  0  0
 36 73  1  0  0  0  0
 36 79  2  0  0  0  0
 37 53  1  0  0  0  0
 37 74  1  0  0  0  0
 37 80  2  0  0  0  0
 38 65  1  0  0  0  0
 38 70  1  0  0  0  0
 38 81  2  0  0  0  0
 39 66  1  0  0  0  0
 39 75  1  0  0  0  0
 39 82  2  0  0  0  0
 40 71  1  0  0  0  0
 40 76  1  0  0  0  0
 40 83  2  0  0  0  0
 41 45  1  0  0  0  0
 42 53  1  0  0  0  0
 43 70  1  0  0  0  0
 44 55  1  0  0  0  0
 45 47  1  0  0  0  0
 46 48  1  0  0  0  0
 46 49  1  0  0  0  0
 47 52  1  0  0  0  0
 48 54  1  0  0  0  0
 49 71  1  0  0  0  0
 50 54  1  0  0  0  0
 50 71  1  0  0  0  0
 51 55  1  0  0  0  0
 51 77  1  0  0  0  0
 52 74  1  0  0  0  0
 53 70  1  0  0  0  0
 54 69  1  0  0  0  0
 55 85  1  0  0  0  0
 58 66  1  0  0  0  0
 59 67  1  0  0  0  0
 60 67  1  0  0  0  0
 61 67  1  0  0  0  0
 62 78  1  0  0  0  0
 63 76  1  0  0  0  0
 64 77  1  0  0  0  0
 65 67  1  0  0  0  0
 65 75  1  0  0  0  0
 66 78  1  0  0  0  0
 68 69  1  0  0  0  0
M  CHG  2  77   1  78   1
M  ISO  4  40 100  55 101  76 100  85 101
M  END
> <Batch ID>
0033

> <Smiles>
C=C1C[101CH:1]([101O:1]c2ccc3c(c2)CN(C(=O)C(NC(=O)C(C)NC)C(C)(C)C)C(C(=O)NC2CCCc4ccccc42)C3)CN1Cc1cc(C[100NH:0][100C:0](=O)N2CCCC(n3nc(-c4ccc(Oc5ccc(F)cc5F)cc4)c(C(N)=O)c3N)C2)c(C)cc1C

> <Shape>
0.250

> <Color>
0.065

> <Negative vol penalty>
0.000

$$$$

  -OEChem-04042321453D

 87 96  0     1  0  0  0  0  0999 V2000
  -18.6125  -32.7647   20.5217 C   0  0  0  0  0  0  0  0  0  0  0  0
  -19.9229  -32.5102   20.1298 C   0  0  0  0  0  0  0  0  0  0  0  0
  -31.7038  -23.3643   25.6428 C   0  0  0  0  0  0  0  0  0  0  0  0
  -26.5118  -13.0838   20.2176 C   0  0  0  0  0  0  0  0  0  0  0  0
  -25.0939  -14.8533   21.0516 C   0  0  0  0  0  0  0  0  0  0  0  0
  -18.1361  -32.2562   21.7293 C   0  0  0  0  0  0  0  0  0  0  0  0
  -20.7580  -31.7480   20.9460 C   0  0  0  0  0  0  0  0  0  0  0  0
  -25.1204  -27.8510   19.1327 C   0  0  0  0  0  0  0  0  0  0  0  0
  -31.3865  -24.2461   24.6097 C   0  0  0  0  0  0  0  0  0  0  0  0
  -31.6430  -21.9873   25.4278 C   0  0  0  0  0  0  0  0  0  0  0  0
  -25.3983  -12.2544   20.0842 C   0  0  0  0  0  0  0  0  0  0  0  0
  -23.9803  -14.0238   20.9182 C   0  0  0  0  0  0  0  0  0  0  0  0
  -26.5034  -27.9808   19.0127 C   0  0  0  0  0  0  0  0  0  0  0  0
  -23.4513  -10.3572   22.0927 C   0  0  0  0  0  0  0  0  0  0  0  0
  -23.5651   -9.0429   22.5458 C   0  0  0  0  0  0  0  0  0  0  0  0
  -26.7797  -26.9902   21.1948 C   0  0  0  0  0  0  0  0  0  0  0  0
  -23.0920   -8.2342   20.3189 C   0  0  0  0  0  0  0  0  0  0  0  0
  -26.3596  -14.3833   20.7013 C   0  0  0  0  0  0  0  0  0  0  0  0
  -28.0366  -16.1183   19.8740 C   0  0  0  0  0  0  0  0  0  0  0  0
  -18.9628  -31.4793   22.5561 C   0  0  0  0  0  0  0  0  0  0  0  0
  -24.5553  -27.2988   20.2912 C   0  0  0  0  0  0  0  0  0  0  0  0
  -20.2926  -31.2298   22.1664 C   0  0  0  0  0  0  0  0  0  0  0  0
  -25.3894  -26.8521   21.3260 C   0  0  0  0  0  0  0  0  0  0  0  0
  -31.0083  -23.7511   23.3617 C   0  0  0  0  0  0  0  0  0  0  0  0
  -30.9475  -22.3742   23.1467 C   0  0  0  0  0  0  0  0  0  0  0  0
  -31.2648  -21.4923   24.1798 C   0  0  0  0  0  0  0  0  0  0  0  0
  -24.1326  -12.7244   20.4345 C   0  0  0  0  0  0  0  0  0  0  0  0
  -27.3331  -27.5531   20.0450 C   0  0  0  0  0  0  0  0  0  0  0  0
  -23.1577  -10.6100   20.7527 C   0  0  0  0  0  0  0  0  0  0  0  0
  -23.3855   -7.9814   21.6589 C   0  0  0  0  0  0  0  0  0  0  0  0
  -22.9781   -9.5485   19.8658 C   0  0  0  0  0  0  0  0  0  0  0  0
  -27.5095  -15.2404   20.8399 C   0  0  0  0  0  0  0  0  0  0  0  0
  -29.1194  -16.6967   20.4901 C   0  0  0  0  0  0  0  0  0  0  0  0
  -32.9510  -25.4302   19.4989 C   0  0  0  0  0  0  0  0  0  0  0  0
  -33.6869  -24.5037   20.1235 C   0  0  0  0  0  0  0  0  0  0  0  0
  -31.7140  -25.6589   20.1960 C   0  0  0  0  0  0  0  0  0  0  0  0
  -32.9080  -24.0761   21.3122 C   0  0  0  0  0  0  0  0  0  0  0  0
  -30.7521  -26.5184   19.8424 C   0  0  0  0  0  0  0  0  0  0  0  0
  -27.5877  -16.3872   18.5391 C   0  0  0  0  0  0  0  0  0  0  0  0
  -22.5852  -28.3575   22.5499 C   0  0  0  0  0  0  0  0  0  0  0  0
  -22.7132  -25.2773   23.5590 C   0  0  0  0  0  0  0  0  0  0  0  0
  -24.4205  -22.3234   23.6390 C   0  0  0  0  0  0  0  0  0  0  0  0
  -31.4983  -19.0946   24.9166 C   0  0  0  0  0  0  0  0  0  0  0  0
  -18.4177  -30.9909   23.8748 C   0  0  0  0  0  0  0  0  0  0  0  0
  -23.0629  -27.1411   20.3939 C   0  0  0  0  0  0  0  0  0  0  0  0
  -24.8335  -26.2338   22.5818 C   0  0  0  0  0  0  0  0  0  0  0  0
  -19.2522  -29.8783   24.5043 C   0  0  0  0  0  0  0  0  0  0  0  0
  -31.4469  -15.5355   24.8325 C   0  0  0  0  0  0  0  0  0  0  0  0
  -20.7352  -30.2325   24.4589 C   0  0  0  0  0  0  0  0  0  0  0  0
  -30.4613  -15.2137   23.7068 C   0  0  0  0  0  0  0  0  0  0  0  0
  -31.0146  -16.7642   25.6307 C   0  0  0  0  0  0  0  0  0  0  0  0
  -29.7586  -17.6412   23.7014 C   0  0  0  0  0  0  0  0  0  0  0  0
  -21.2215  -30.3866   23.0127 C   0  0  1  0  0  0  0  0  0  0  0  0
  -22.5709  -27.0364   21.8342 C   0  0  1  0  0  0  0  0  0  0  0  0
  -30.1857  -16.4499   22.8285 C   0  0  2  0  0  0  0  0  0  0  0  0
  -30.5413  -21.8478   21.8058 C   0  0  0  0  0  0  0  0  0  0  0  0
  -24.2914  -19.9983   24.5743 C   0  0  0  0  0  0  0  0  0  0  0  0
  -23.5009  -26.3419   26.3078 C   0  0  0  0  0  0  0  0  0  0  0  0
  -24.2684  -24.0346   26.9044 C   0  0  0  0  0  0  0  0  0  0  0  0
  -21.8709  -24.4457   26.3513 C   0  0  0  0  0  0  0  0  0  0  0  0
  -24.4134  -21.1128   20.9384 C   0  0  0  0  0  0  0  0  0  0  0  0
  -30.6721  -24.7223   22.2672 C   0  0  0  0  0  0  0  0  0  0  0  0
  -29.4855  -26.7130   20.6082 C   0  0  0  0  0  0  0  0  0  1  0  0
  -23.5957  -24.4976   24.5035 C   0  0  1  0  0  0  0  0  0  0  0  0
  -23.9737  -20.8946   23.3875 C   0  0  2  0  0  0  0  0  0  0  0  0
  -23.3197  -24.8433   25.9940 C   0  0  0  0  0  0  0  0  0  0  0  0
  -28.2005  -15.2561   21.9828 N   0  0  0  0  0  0  0  0  0  0  0  0
  -29.1731  -16.1510   21.7389 N   0  0  0  0  0  0  0  0  0  0  0  0
  -31.7301  -24.8194   21.2859 N   0  0  0  0  0  0  0  0  0  0  0  0
  -23.3678  -26.1070   22.6376 N   0  0  0  0  0  0  0  0  0  0  0  0
  -30.7756  -17.8967   24.7335 N   0  0  0  0  0  0  0  0  0  0  0  0
  -30.0213  -17.6137   20.0801 N   0  0  0  0  0  0  0  0  0  0  0  0
  -26.4590  -15.7057   18.0638 N   0  0  0  0  0  0  0  0  0  0  0  0
  -31.2103  -20.0901   23.9835 N   0  0  0  0  0  0  0  0  0  0  0  0
  -21.4212  -29.0881   22.4056 N   0  0  0  0  0  0  0  0  0  0  0  0
  -23.4053  -23.0897   24.1715 N   0  0  0  0  0  0  0  0  0  0  0  0
  -24.6582  -20.3420   22.1846 N   0  3  0  0  0  0  0  0  0  0  0  0
  -33.2844  -23.2358   22.1111 O   0  0  0  0  0  0  0  0  0  0  0  0
  -28.1799  -17.1952   17.7843 O   0  0  0  0  0  0  0  0  0  0  0  0
  -23.5781  -28.6888   23.1871 O   0  0  0  0  0  0  0  0  0  0  0  0
  -21.4884  -25.1494   23.6311 O   0  0  0  0  0  0  0  0  0  0  0  0
  -25.5575  -22.7191   23.3917 O   0  0  0  0  0  0  0  0  0  0  0  0
  -32.3325  -19.2181   25.8171 O   0  0  0  0  0  0  0  0  0  0  0  0
  -23.0458  -11.9154   20.3042 O   0  0  0  0  0  0  0  0  0  0  0  0
  -28.6832  -27.6793   19.9308 O   0  0  0  0  0  0  0  0  0  1  0  0
  -23.4964   -6.7194   22.0939 F   0  0  0  0  0  0  0  0  0  0  0  0
  -22.6971   -9.7851   18.5771 F   0  0  0  0  0  0  0  0  0  0  0  0
  1  2  1  0  0  0  0
  1  6  2  0  0  0  0
  2  7  2  0  0  0  0
  3  9  2  0  0  0  0
  3 10  1  0  0  0  0
  4 11  2  0  0  0  0
  4 18  1  0  0  0  0
  5 12  1  0  0  0  0
  5 18  2  0  0  0  0
  6 20  1  0  0  0  0
  7 22  1  0  0  0  0
  8 13  2  0  0  0  0
  8 21  1  0  0  0  0
  9 24  1  0  0  0  0
 10 26  2  0  0  0  0
 11 27  1  0  0  0  0
 12 27  2  0  0  0  0
 13 28  1  0  0  0  0
 14 15  2  0  0  0  0
 14 29  1  0  0  0  0
 15 30  1  0  0  0  0
 16 23  1  0  0  0  0
 16 28  2  0  0  0  0
 17 30  2  0  0  0  0
 17 31  1  0  0  0  0
 18 32  1  0  0  0  0
 19 32  1  0  0  0  0
 19 33  2  0  0  0  0
 19 39  1  0  0  0  0
 20 22  2  0  0  0  0
 20 44  1  0  0  0  0
 21 23  2  0  0  0  0
 21 45  1  0  0  0  0
 22 53  1  0  0  0  0
 23 46  1  0  0  0  0
 24 25  2  0  0  0  0
 24 62  1  0  0  0  0
 25 26  1  0  0  0  0
 25 56  1  0  0  0  0
 26 74  1  0  0  0  0
 27 84  1  0  0  0  0
 28 85  1  0  0  0  0
 29 31  2  0  0  0  0
 29 84  1  0  0  0  0
 30 86  1  0  0  0  0
 31 87  1  0  0  0  0
 32 67  2  0  0  0  0
 33 68  1  0  0  0  0
 33 72  1  0  0  0  0
 34 35  2  0  0  0  0
 34 36  1  0  0  0  0
 35 37  1  0  0  0  0
 36 38  2  0  0  0  0
 36 69  1  0  0  0  0
 37 69  1  0  0  0  0
 37 78  2  0  0  0  0
 38 63  1  0  0  0  0
 39 73  1  0  0  0  0
 39 79  2  0  0  0  0
 40 54  1  0  0  0  0
 40 75  1  0  0  0  0
 40 80  2  0  0  0  0
 41 64  1  0  0  0  0
 41 70  1  0  0  0  0
 41 81  2  0  0  0  0
 42 65  1  0  0  0  0
 42 76  1  0  0  0  0
 42 82  2  0  0  0  0
 43 71  1  0  0  0  0
 43 74  1  0  0  0  0
 43 83  2  0  0  0  0
 44 47  1  0  0  0  0
 45 54  1  0  0  0  0
 46 70  1  0  0  0  0
 47 49  1  0  0  0  0
 48 50  1  0  0  0  0
 48 51  1  0  0  0  0
 49 53  1  0  0  0  0
 50 55  1  0  0  0  0
 51 71  1  0  0  0  0
 52 55  1  0  0  0  0
 52 71  1  0  0  0  0
 53 75  1  0  0  0  0
 54 70  1  0  0  0  0
 55 68  1  0  0  0  0
 57 65  1  0  0  0  0
 58 66  1  0  0  0  0
 59 66  1  0  0  0  0
 60 66  1  0  0  0  0
 61 77  1  0  0  0  0
 62 69  1  0  0  0  0
 63 85  1  0  0  0  0
 64 66  1  0  0  0  0
 64 76  1  0  0  0  0
 65 77  1  0  0  0  0
 67 68  1  0  0  0  0
M  CHG  1  77   1
M  ISO  4  43 100  63 101  74 100  85 101
M  END
> <Batch ID>
0033

> <Smiles>
CNC(C)C(=O)NC(C(=O)N1Cc2cc([101O:1][101CH2:1]C=C3C=CC(=O)N3Cc3cccc([100NH:0][100C:0](=O)N4CCCC(n5nc(-c6ccc(Oc7ccc(F)cc7F)cc6)c(C(N)=O)c5N)C4)c3C)ccc2CC1C(=O)NC1CCCc2ccccc21)C(C)(C)C

> <Shape>
0.189

> <Color>
0.099

> <Negative vol penalty>
0.000

$$$$

  -OEChem-04042321453D

 87 96  0     1  0  0  0  0  0999 V2000
  -21.2666   -8.6608   24.2661 C   0  0  0  0  0  0  0  0  0  0  0  0
  -22.3814   -9.3694   24.7026 C   0  0  0  0  0  0  0  0  0  0  0  0
  -25.8502  -30.3319   22.6330 C   0  0  0  0  0  0  0  0  0  0  0  0
  -23.8490  -30.0725   21.3044 C   0  0  0  0  0  0  0  0  0  0  0  0
  -21.1127   -8.3713   22.9110 C   0  0  0  0  0  0  0  0  0  0  0  0
  -23.3435   -9.7880   23.7842 C   0  0  0  0  0  0  0  0  0  0  0  0
  -24.8051  -14.5760   24.5479 C   0  0  0  0  0  0  0  0  0  0  0  0
  -27.5505  -21.4309   25.7510 C   0  0  0  0  0  0  0  0  0  0  0  0
  -27.3668  -22.1510   24.5707 C   0  0  0  0  0  0  0  0  0  0  0  0
  -25.2281  -31.3369   23.3737 C   0  0  0  0  0  0  0  0  0  0  0  0
  -23.2269  -31.0774   22.0451 C   0  0  0  0  0  0  0  0  0  0  0  0
  -25.7056  -14.8089   25.5865 C   0  0  0  0  0  0  0  0  0  0  0  0
  -24.2887  -34.2203   25.3804 C   0  0  0  0  0  0  0  0  0  0  0  0
  -25.0180  -35.3798   25.6439 C   0  0  0  0  0  0  0  0  0  0  0  0
  -27.5125  -14.9015   23.9910 C   0  0  0  0  0  0  0  0  0  0  0  0
  -25.8241  -20.4667   23.7831 C   0  0  0  0  0  0  0  0  0  0  0  0
  -25.2375  -35.7807   23.2715 C   0  0  0  0  0  0  0  0  0  0  0  0
  -25.1606  -29.6997   21.5982 C   0  0  0  0  0  0  0  0  0  0  0  0
  -26.9760  -28.7758   20.0624 C   0  0  0  0  0  0  0  0  0  0  0  0
  -22.0686   -8.7949   21.9743 C   0  0  0  0  0  0  0  0  0  0  0  0
  -25.2539  -14.4931   23.2219 C   0  0  0  0  0  0  0  0  0  0  0  0
  -23.2030   -9.5027   22.4154 C   0  0  0  0  0  0  0  0  0  0  0  0
  -26.6154  -14.6700   22.9371 C   0  0  0  0  0  0  0  0  0  0  0  0
  -26.8710  -20.2286   25.9475 C   0  0  0  0  0  0  0  0  0  0  0  0
  -26.5036  -21.6689   23.5867 C   0  0  0  0  0  0  0  0  0  0  0  0
  -23.9165  -31.7096   23.0798 C   0  0  0  0  0  0  0  0  0  0  0  0
  -27.0599  -14.9688   25.3085 C   0  0  0  0  0  0  0  0  0  0  0  0
  -24.0339  -33.8410   24.0625 C   0  0  0  0  0  0  0  0  0  0  0  0
  -25.4923  -36.1600   24.5894 C   0  0  0  0  0  0  0  0  0  0  0  0
  -24.5083  -34.6212   23.0080 C   0  0  0  0  0  0  0  0  0  0  0  0
  -26.0078  -19.7465   24.9635 C   0  0  0  0  0  0  0  0  0  0  0  0
  -25.8029  -28.6619   20.8323 C   0  0  0  0  0  0  0  0  0  0  0  0
  -27.1663  -27.5204   19.5389 C   0  0  0  0  0  0  0  0  0  0  0  0
  -28.8124  -18.5197   28.6446 C   0  0  0  0  0  0  0  0  0  0  0  0
  -29.7567  -19.3022   29.1886 C   0  0  0  0  0  0  0  0  0  0  0  0
  -27.8183  -29.9146   19.8404 C   0  0  0  0  0  0  0  0  0  0  0  0
  -25.2422  -12.2329   20.9870 C   0  0  0  0  0  0  0  0  0  0  0  0
  -26.3974  -14.6200   19.1190 C   0  0  0  0  0  0  0  0  0  0  0  0
  -28.7882  -17.3016   19.4514 C   0  0  0  0  0  0  0  0  0  0  0  0
  -25.4985  -22.0628   21.3105 C   0  0  0  0  0  0  0  0  0  0  0  0
  -21.8828   -8.4172   20.5260 C   0  0  0  0  0  0  0  0  0  0  0  0
  -24.2661  -14.2680   22.1102 C   0  0  0  0  0  0  0  0  0  0  0  0
  -27.1452  -14.6102   21.5285 C   0  0  0  0  0  0  0  0  0  0  0  0
  -28.1761  -17.3709   29.3788 C   0  0  0  0  0  0  0  0  0  0  0  0
  -22.7595   -9.2215   19.5695 C   0  0  0  0  0  0  0  0  0  0  0  0
  -28.2320  -16.1047   28.5327 C   0  0  0  0  0  0  0  0  0  0  0  0
  -24.7405  -23.6152   18.1973 C   0  0  0  0  0  0  0  0  0  0  0  0
  -24.1927   -9.2882   20.0873 C   0  0  0  0  0  0  0  0  0  0  0  0
  -25.0395  -25.0951   18.4478 C   0  0  0  0  0  0  0  0  0  0  0  0
  -24.1355  -22.9426   19.4282 C   0  0  0  0  0  0  0  0  0  0  0  0
  -25.2046  -24.5877   20.9181 C   0  0  0  0  0  0  0  0  0  0  0  0
  -28.4912  -17.5183   26.4592 C   0  0  0  0  0  0  0  0  0  0  0  0
  -24.2559   -9.9952   21.4465 C   0  0  1  0  0  0  0  0  0  0  0  0
  -24.9052  -13.6908   20.8509 C   0  0  1  0  0  0  0  0  0  0  0  0
  -25.8754  -25.2924   19.7276 C   0  0  2  0  0  0  0  0  0  0  0  0
  -27.7347  -16.3634   27.1106 C   0  0  1  0  0  0  0  0  0  1  0  0
  -30.3992  -20.4439   28.4796 C   0  0  0  0  0  0  0  0  0  0  0  0
  -28.9293  -19.5161   18.2796 C   0  0  0  0  0  0  0  0  0  0  0  0
  -28.2645  -13.1579   17.1990 C   0  0  0  0  0  0  0  0  0  0  0  0
  -29.6625  -15.2320   17.0895 C   0  0  0  0  0  0  0  0  0  0  0  0
  -27.2970  -15.2813   16.2991 C   0  0  0  0  0  0  0  0  0  0  0  0
  -28.8177  -18.7856   22.0118 C   0  0  0  0  0  0  0  0  0  0  0  0
  -27.0960  -19.4848   27.2308 C   0  0  0  0  0  0  0  0  0  0  0  0
  -27.7728  -15.1405   18.7782 C   0  0  1  0  0  0  0  0  0  0  0  0
  -28.4827  -18.7861   19.5367 C   0  0  2  0  0  0  0  0  0  0  0  0
  -28.2438  -14.6904   17.3664 C   0  0  0  0  0  0  0  0  0  0  0  0
  -25.2844  -27.4314   20.8031 N   0  0  0  0  0  0  0  0  0  0  0  0
  -26.1356  -26.7605   20.0085 N   0  0  0  0  0  0  0  0  0  0  0  0
  -26.1409  -14.3816   20.4766 N   0  0  0  0  0  0  0  0  0  0  0  0
  -24.9835  -23.1681   20.6008 N   0  0  0  0  0  0  0  0  0  0  0  0
  -28.1130  -27.0033   18.7272 N   0  0  0  0  0  0  0  0  0  0  0  0
  -27.5355  -30.7531   18.7536 N   0  0  0  0  0  0  0  0  0  0  0  0
  -26.3181  -22.4000   22.3872 N   0  0  0  0  0  0  0  0  0  0  0  0
  -24.1561  -11.4289   21.2756 N   0  0  0  0  0  0  0  0  0  0  0  0
  -27.7175  -16.5874   18.9566 N   0  0  0  0  0  0  0  0  0  0  0  0
  -28.4250  -18.7831   27.2800 N   0  3  1  0  0  0  0  0  0  0  0  0
  -29.1809  -19.3924   20.7054 N   0  3  0  0  0  0  0  0  0  0  0  0
  -28.8027  -30.1716   20.5742 O   0  0  0  0  0  0  0  0  0  0  0  0
  -26.4017  -11.8645   20.8396 O   0  0  0  0  0  0  0  0  0  0  0  0
  -25.5782  -14.4386   18.2147 O   0  0  0  0  0  0  0  0  0  0  0  0
  -29.8698  -16.8238   19.7865 O   0  0  0  0  0  0  0  0  0  0  0  0
  -25.2543  -20.9023   20.9706 O   0  0  0  0  0  0  0  0  0  0  0  0
  -23.3091  -32.6900   23.8026 O   0  0  0  0  0  0  0  0  0  0  0  0
  -27.9410  -15.1956   26.3204 O   0  0  0  0  0  0  0  0  0  1  0  0
  -26.1913  -37.2743   24.8426 F   0  0  0  0  0  0  0  0  0  0  0  0
  -24.2656  -34.2626   21.7398 F   0  0  0  0  0  0  0  0  0  0  0  0
  -25.1507  -18.2626   25.1714 Cl  0  0  0  0  0  0  0  0  0  0  0  0
  1  2  1  0  0  0  0
  1  5  2  0  0  0  0
  2  6  2  0  0  0  0
  3 10  2  0  0  0  0
  3 18  1  0  0  0  0
  4 11  1  0  0  0  0
  4 18  2  0  0  0  0
  5 20  1  0  0  0  0
  6 22  1  0  0  0  0
  7 12  2  0  0  0  0
  7 21  1  0  0  0  0
  8  9  2  0  0  0  0
  8 24  1  0  0  0  0
  9 25  1  0  0  0  0
 10 26  1  0  0  0  0
 11 26  2  0  0  0  0
 12 27  1  0  0  0  0
 13 14  2  0  0  0  0
 13 28  1  0  0  0  0
 14 29  1  0  0  0  0
 15 23  1  0  0  0  0
 15 27  2  0  0  0  0
 16 25  2  0  0  0  0
 16 31  1  0  0  0  0
 17 29  2  0  0  0  0
 17 30  1  0  0  0  0
 18 32  1  0  0  0  0
 19 32  1  0  0  0  0
 19 33  2  0  0  0  0
 19 36  1  0  0  0  0
 20 22  2  0  0  0  0
 20 41  1  0  0  0  0
 21 23  2  0  0  0  0
 21 42  1  0  0  0  0
 22 53  1  0  0  0  0
 23 43  1  0  0  0  0
 24 31  2  0  0  0  0
 24 63  1  0  0  0  0
 25 73  1  0  0  0  0
 26 83  1  0  0  0  0
 27 84  1  0  0  0  0
 28 30  2  0  0  0  0
 28 83  1  0  0  0  0
 29 85  1  0  0  0  0
 30 86  1  0  0  0  0
 31 87  1  0  0  0  0
 32 67  2  0  0  0  0
 33 68  1  0  0  0  0
 33 71  1  0  0  0  0
 34 35  2  0  0  0  0
 34 44  1  0  0  0  0
 34 76  1  0  0  0  0
 35 57  1  0  0  0  0
 36 72  1  0  0  0  0
 36 78  2  0  0  0  0
 37 54  1  0  0  0  0
 37 74  1  0  0  0  0
 37 79  2  0  0  0  0
 38 64  1  0  0  0  0
 38 69  1  0  0  0  0
 38 80  2  0  0  0  0
 39 65  1  0  0  0  0
 39 75  1  0  0  0  0
 39 81  2  0  0  0  0
 40 70  1  0  0  0  0
 40 73  1  0  0  0  0
 40 82  2  0  0  0  0
 41 45  1  0  0  0  0
 42 54  1  0  0  0  0
 43 69  1  0  0  0  0
 44 46  1  0  0  0  0
 45 48  1  0  0  0  0
 46 56  1  0  0  0  0
 47 49  1  0  0  0  0
 47 50  1  0  0  0  0
 48 53  1  0  0  0  0
 49 55  1  0  0  0  0
 50 70  1  0  0  0  0
 51 55  1  0  0  0  0
 51 70  1  0  0  0  0
 52 56  1  0  0  0  0
 52 76  1  0  0  0  0
 53 74  1  0  0  0  0
 54 69  1  0  0  0  0
 55 68  1  0  0  0  0
 56 84  1  0  0  0  0
 58 65  1  0  0  0  0
 59 66  1  0  0  0  0
 60 66  1  0  0  0  0
 61 66  1  0  0  0  0
 62 77  1  0  0  0  0
 63 76  1  0  0  0  0
 64 66  1  0  0  0  0
 64 75  1  0  0  0  0
 65 77  1  0  0  0  0
 67 68  1  0  0  0  0
M  CHG  2  76   1  77   1
M  ISO  4  40 100  56 101  73 100  84 101
M  END
> <Batch ID>
0033

> <Smiles>
CC=C1CC[101CH:1]([101O:1]c2ccc3c(c2)CN(C(=O)C(NC(=O)C(C)NC)C(C)(C)C)C(C(=O)NC2CCCc4ccccc42)C3)CN1Cc1ccc([100NH:0][100C:0](=O)N2CCCC(n3nc(-c4ccc(Oc5ccc(F)cc5F)cc4)c(C(N)=O)c3N)C2)cc1Cl

> <Shape>
0.207

> <Color>
0.071

> <Negative vol penalty>
0.000

$$$$

  -OEChem-04042321453D

 87 96  0     1  0  0  0  0  0999 V2000
  -18.3885  -24.1895   21.0924 C   0  0  0  0  0  0  0  0  0  0  0  0
  -19.4829  -24.5349   20.3059 C   0  0  0  0  0  0  0  0  0  0  0  0
  -27.9089  -12.6690   20.4434 C   0  0  0  0  0  0  0  0  0  0  0  0
  -25.8820  -13.9704   20.2567 C   0  0  0  0  0  0  0  0  0  0  0  0
  -17.9755  -25.0360   22.1205 C   0  0  0  0  0  0  0  0  0  0  0  0
  -20.1642  -25.7275   20.5463 C   0  0  0  0  0  0  0  0  0  0  0  0
  -25.1936  -25.1399   20.4767 C   0  0  0  0  0  0  0  0  0  0  0  0
  -31.2430  -24.5718   21.5236 C   0  0  0  0  0  0  0  0  0  0  0  0
  -30.2873  -23.6475   21.9453 C   0  0  0  0  0  0  0  0  0  0  0  0
  -27.1714  -11.4966   20.2788 C   0  0  0  0  0  0  0  0  0  0  0  0
  -25.1444  -12.7980   20.0921 C   0  0  0  0  0  0  0  0  0  0  0  0
  -25.8068  -25.0497   19.2279 C   0  0  0  0  0  0  0  0  0  0  0  0
  -23.9141  -10.3328   22.0517 C   0  0  0  0  0  0  0  0  0  0  0  0
  -22.7273  -10.2071   22.7737 C   0  0  0  0  0  0  0  0  0  0  0  0
  -26.4510  -27.3692   19.3834 C   0  0  0  0  0  0  0  0  0  0  0  0
  -29.9472  -22.9547   19.6559 C   0  0  0  0  0  0  0  0  0  0  0  0
  -21.4921  -10.0016   20.7074 C   0  0  0  0  0  0  0  0  0  0  0  0
  -27.2642  -13.9059   20.4324 C   0  0  0  0  0  0  0  0  0  0  0  0
  -29.0707  -15.5868   19.7851 C   0  0  0  0  0  0  0  0  0  0  0  0
  -18.6580  -26.2349   22.3798 C   0  0  0  0  0  0  0  0  0  0  0  0
  -25.1950  -26.3504   21.1846 C   0  0  0  0  0  0  0  0  0  0  0  0
  -19.7591  -26.5915   21.5779 C   0  0  0  0  0  0  0  0  0  0  0  0
  -25.8393  -27.4714   20.6422 C   0  0  0  0  0  0  0  0  0  0  0  0
  -31.5507  -24.6877   20.1680 C   0  0  0  0  0  0  0  0  0  0  0  0
  -30.9029  -23.8791   19.2342 C   0  0  0  0  0  0  0  0  0  0  0  0
  -29.6394  -22.8389   21.0115 C   0  0  0  0  0  0  0  0  0  0  0  0
  -25.7892  -11.5611   20.1031 C   0  0  0  0  0  0  0  0  0  0  0  0
  -26.4332  -26.1652   18.6798 C   0  0  0  0  0  0  0  0  0  0  0  0
  -23.8899  -10.2931   20.6576 C   0  0  0  0  0  0  0  0  0  0  0  0
  -21.5163  -10.0414   22.1016 C   0  0  0  0  0  0  0  0  0  0  0  0
  -22.6790  -10.1274   19.9855 C   0  0  0  0  0  0  0  0  0  0  0  0
  -28.0255  -15.1173   20.6030 C   0  0  0  0  0  0  0  0  0  0  0  0
  -29.4590  -16.7681   20.3683 C   0  0  0  0  0  0  0  0  0  0  0  0
  -29.6397  -15.0069   18.6037 C   0  0  0  0  0  0  0  0  0  0  0  0
  -22.9476  -28.3427   22.2256 C   0  0  0  0  0  0  0  0  0  0  0  0
  -25.4654  -29.8294   23.6302 C   0  0  0  0  0  0  0  0  0  0  0  0
  -28.8517  -30.6902   22.7306 C   0  0  0  0  0  0  0  0  0  0  0  0
  -28.2485  -21.6550   22.7465 C   0  0  0  0  0  0  0  0  0  0  0  0
  -18.1455  -27.1404   23.4716 C   0  0  0  0  0  0  0  0  0  0  0  0
  -24.5521  -26.4241   22.5424 C   0  0  0  0  0  0  0  0  0  0  0  0
  -25.8864  -28.7888   21.3708 C   0  0  0  0  0  0  0  0  0  0  0  0
  -19.1511  -28.2053   23.9019 C   0  0  0  0  0  0  0  0  0  0  0  0
  -30.0936  -27.9299   16.1895 C   0  0  0  0  0  0  0  0  0  0  0  0
  -28.2473  -18.7830   24.8509 C   0  0  0  0  0  0  0  0  0  0  0  0
  -19.7714  -28.8779   22.6814 C   0  0  0  0  0  0  0  0  0  0  0  0
  -28.2754  -17.6119   23.8661 C   0  0  0  0  0  0  0  0  0  0  0  0
  -28.6416  -27.5788   16.5060 C   0  0  0  0  0  0  0  0  0  0  0  0
  -30.7458  -26.9191   15.2476 C   0  0  0  0  0  0  0  0  0  0  0  0
  -27.3969  -19.9408   24.3312 C   0  0  0  0  0  0  0  0  0  0  0  0
  -27.7734  -19.2401   21.9995 C   0  0  0  0  0  0  0  0  0  0  0  0
  -29.1297  -25.0841   16.9370 C   0  0  0  0  0  0  0  0  0  0  0  0
  -20.5391  -27.8648   21.8237 C   0  0  1  0  0  0  0  0  0  0  0  0
  -24.1687  -27.8446   22.9457 C   0  0  1  0  0  0  0  0  0  0  0  0
  -28.6704  -18.0756   22.4502 C   0  0  2  0  0  0  0  0  0  0  0  0
  -28.4339  -26.3592   17.4030 C   0  0  2  0  0  0  0  0  0  1  0  0
  -31.4038  -25.7022   15.9163 C   0  0  2  0  0  0  0  0  0  0  0  0
  -32.5769  -25.6850   19.7404 C   0  0  0  0  0  0  0  0  0  0  0  0
  -31.6330  -24.5874   14.8943 C   0  0  0  0  0  0  0  0  0  0  0  0
  -30.8831  -31.0344   24.1631 C   0  0  0  0  0  0  0  0  0  0  0  0
  -24.6674  -32.7733   23.5489 C   0  0  0  0  0  0  0  0  0  0  0  0
  -27.0975  -33.3559   23.3964 C   0  0  0  0  0  0  0  0  0  0  0  0
  -26.2258  -32.1659   25.4081 C   0  0  0  0  0  0  0  0  0  0  0  0
  -30.4061  -28.6814   21.2115 C   0  0  0  0  0  0  0  0  0  0  0  0
  -31.2190  -23.9845   17.7714 C   0  0  0  0  0  0  0  0  0  0  0  0
  -26.4301  -30.9157   23.2201 C   0  0  1  0  0  0  0  0  0  0  0  0
  -30.1234  -30.0632   23.2729 C   0  0  2  0  0  0  0  0  0  0  0  0
  -26.0932  -32.2854   23.8742 C   0  0  0  0  0  0  0  0  0  0  0  0
  -27.7663  -15.9337   21.6278 N   0  0  0  0  0  0  0  0  0  0  0  0
  -28.6544  -16.9280   21.4579 N   0  0  0  0  0  0  0  0  0  0  0  0
  -25.2382  -28.8122   22.6924 N   0  0  0  0  0  0  0  0  0  0  0  0
  -27.8311  -20.3289   22.9874 N   0  0  0  0  0  0  0  0  0  0  0  0
  -30.4069  -17.6752   20.0504 N   0  0  0  0  0  0  0  0  0  0  0  0
  -29.0889  -15.3469   17.3606 N   0  0  0  0  0  0  0  0  0  0  0  0
  -28.6699  -21.8984   21.4397 N   0  0  0  0  0  0  0  0  0  0  0  0
  -21.8222  -27.5653   22.4222 N   0  0  0  0  0  0  0  0  0  0  0  0
  -27.7645  -30.4161   23.5332 N   0  0  0  0  0  0  0  0  0  0  0  0
  -30.6243  -25.2124   17.1246 N   0  3  2  0  0  0  0  0  0  0  0  0
  -31.0176  -29.6542   22.1531 N   0  3  0  0  0  0  0  0  0  0  0  0
  -30.5974  -14.1980   18.6503 O   0  0  0  0  0  0  0  0  0  0  0  0
  -23.0206  -29.3581   21.5434 O   0  0  0  0  0  0  0  0  0  0  0  0
  -24.9384  -29.8777   24.7445 O   0  0  0  0  0  0  0  0  0  0  0  0
  -28.8260  -31.3595   21.7001 O   0  0  0  0  0  0  0  0  0  0  0  0
  -28.2590  -22.5047   23.6409 O   0  0  0  0  0  0  0  0  0  0  0  0
  -25.0692  -10.4173   19.9423 O   0  0  0  0  0  0  0  0  0  0  0  0
  -27.0320  -26.0800   17.4607 O   0  0  0  0  0  0  0  0  0  1  0  0
  -20.3769   -9.9191   22.7950 F   0  0  0  0  0  0  0  0  0  0  0  0
  -22.6496  -10.0872   18.6463 F   0  0  0  0  0  0  0  0  0  0  0  0
  1  2  1  0  0  0  0
  1  5  2  0  0  0  0
  2  6  2  0  0  0  0
  3 10  2  0  0  0  0
  3 18  1  0  0  0  0
  4 11  1  0  0  0  0
  4 18  2  0  0  0  0
  5 20  1  0  0  0  0
  6 22  1  0  0  0  0
  7 12  2  0  0  0  0
  7 21  1  0  0  0  0
  8  9  2  0  0  0  0
  8 24  1  0  0  0  0
  9 26  1  0  0  0  0
 10 27  1  0  0  0  0
 11 27  2  0  0  0  0
 12 28  1  0  0  0  0
 13 14  2  0  0  0  0
 13 29  1  0  0  0  0
 14 30  1  0  0  0  0
 15 23  1  0  0  0  0
 15 28  2  0  0  0  0
 16 25  1  0  0  0  0
 16 26  2  0  0  0  0
 17 30  2  0  0  0  0
 17 31  1  0  0  0  0
 18 32  1  0  0  0  0
 19 32  1  0  0  0  0
 19 33  2  0  0  0  0
 19 34  1  0  0  0  0
 20 22  2  0  0  0  0
 20 39  1  0  0  0  0
 21 23  2  0  0  0  0
 21 40  1  0  0  0  0
 22 52  1  0  0  0  0
 23 41  1  0  0  0  0
 24 25  2  0  0  0  0
 24 57  1  0  0  0  0
 25 64  1  0  0  0  0
 26 74  1  0  0  0  0
 27 84  1  0  0  0  0
 28 85  1  0  0  0  0
 29 31  2  0  0  0  0
 29 84  1  0  0  0  0
 30 86  1  0  0  0  0
 31 87  1  0  0  0  0
 32 68  2  0  0  0  0
 33 69  1  0  0  0  0
 33 72  1  0  0  0  0
 34 73  1  0  0  0  0
 34 79  2  0  0  0  0
 35 53  1  0  0  0  0
 35 75  1  0  0  0  0
 35 80  2  0  0  0  0
 36 65  1  0  0  0  0
 36 70  1  0  0  0  0
 36 81  2  0  0  0  0
 37 66  1  0  0  0  0
 37 76  1  0  0  0  0
 37 82  2  0  0  0  0
 38 71  1  0  0  0  0
 38 74  1  0  0  0  0
 38 83  2  0  0  0  0
 39 42  1  0  0  0  0
 40 53  1  0  0  0  0
 41 70  1  0  0  0  0
 42 45  1  0  0  0  0
 43 47  1  0  0  0  0
 43 48  1  0  0  0  0
 44 46  1  0  0  0  0
 44 49  1  0  0  0  0
 45 52  1  0  0  0  0
 46 54  1  0  0  0  0
 47 55  1  0  0  0  0
 48 56  1  0  0  0  0
 49 71  1  0  0  0  0
 50 54  1  0  0  0  0
 50 71  1  0  0  0  0
 51 55  1  0  0  0  0
 51 77  1  0  0  0  0
 52 75  1  0  0  0  0
 53 70  1  0  0  0  0
 54 69  1  0  0  0  0
 55 85  1  0  0  0  0
 56 58  1  0  0  0  0
 56 77  1  0  0  0  0
 59 66  1  0  0  0  0
 60 67  1  0  0  0  0
 61 67  1  0  0  0  0
 62 67  1  0  0  0  0
 63 78  1  0  0  0  0
 64 77  1  0  0  0  0
 65 67  1  0  0  0  0
 65 76  1  0  0  0  0
 66 78  1  0  0  0  0
 68 69  1  0  0  0  0
M  CHG  2  77   1  78   1
M  ISO  4  38 100  55 101  74 100  85 101
M  END
> <Batch ID>
0033

> <Smiles>
CNC(C)C(=O)NC(C(=O)N1Cc2cc([101O:1][101CH:1]3CCCC(C)N(Cc4cc([100NH:0][100C:0](=O)N5CCCC(n6nc(-c7ccc(Oc8ccc(F)cc8F)cc7)c(C(N)=O)c6N)C5)ccc4C)C3)ccc2CC1C(=O)NC1CCCc2ccccc21)C(C)(C)C

> <Shape>
0.279

> <Color>
0.049

> <Negative vol penalty>
0.000

$$$$

  -OEChem-04042321453D

 89 98  0     1  0  0  0  0  0999 V2000
  -29.2687  -37.2606   23.4358 C   0  0  0  0  0  0  0  0  0  0  0  0
  -29.5985  -36.0008   22.9463 C   0  0  0  0  0  0  0  0  0  0  0  0
  -23.3746   -8.6282   19.0315 C   0  0  0  0  0  0  0  0  0  0  0  0
  -23.6741   -9.7208   21.1654 C   0  0  0  0  0  0  0  0  0  0  0  0
  -28.1742  -37.4122   24.2861 C   0  0  0  0  0  0  0  0  0  0  0  0
  -28.8346  -34.8917   23.3077 C   0  0  0  0  0  0  0  0  0  0  0  0
  -27.5479  -30.0169   19.8312 C   0  0  0  0  0  0  0  0  0  0  0  0
  -22.5677   -7.6654   19.6378 C   0  0  0  0  0  0  0  0  0  0  0  0
  -22.8671   -8.7581   21.7717 C   0  0  0  0  0  0  0  0  0  0  0  0
  -28.1091  -28.7427   19.7577 C   0  0  0  0  0  0  0  0  0  0  0  0
  -23.1775   -5.5702   22.8542 C   0  0  0  0  0  0  0  0  0  0  0  0
  -23.6157   -5.0233   24.0602 C   0  0  0  0  0  0  0  0  0  0  0  0
  -26.3975  -27.9100   21.2397 C   0  0  0  0  0  0  0  0  0  0  0  0
  -30.0154  -18.0769   20.1225 C   0  0  0  0  0  0  0  0  0  0  0  0
  -21.6199   -5.8348   25.1535 C   0  0  0  0  0  0  0  0  0  0  0  0
  -23.9279   -9.6559   19.7954 C   0  0  0  0  0  0  0  0  0  0  0  0
  -24.4016  -11.5326   18.1337 C   0  0  0  0  0  0  0  0  0  0  0  0
  -27.3907  -36.3058   24.6504 C   0  0  0  0  0  0  0  0  0  0  0  0
  -26.4118  -30.2498   20.6194 C   0  0  0  0  0  0  0  0  0  0  0  0
  -27.7294  -35.0284   24.1647 C   0  0  0  0  0  0  0  0  0  0  0  0
  -25.8223  -29.1875   21.3194 C   0  0  0  0  0  0  0  0  0  0  0  0
  -30.0306  -19.4605   20.2989 C   0  0  0  0  0  0  0  0  0  0  0  0
  -27.9559  -19.6394   19.0739 C   0  0  0  0  0  0  0  0  0  0  0  0
  -29.0008  -20.2417   19.7747 C   0  0  0  0  0  0  0  0  0  0  0  0
  -27.9407  -18.2558   18.8974 C   0  0  0  0  0  0  0  0  0  0  0  0
  -28.9705  -17.4746   19.4217 C   0  0  0  0  0  0  0  0  0  0  0  0
  -22.3139   -7.7303   21.0078 C   0  0  0  0  0  0  0  0  0  0  0  0
  -27.5356  -27.6897   20.4643 C   0  0  0  0  0  0  0  0  0  0  0  0
  -21.9604   -6.2495   22.7979 C   0  0  0  0  0  0  0  0  0  0  0  0
  -22.8370   -5.1555   25.2098 C   0  0  0  0  0  0  0  0  0  0  0  0
  -21.1817   -6.3817   23.9475 C   0  0  0  0  0  0  0  0  0  0  0  0
  -24.7620  -10.6504   19.1699 C   0  0  0  0  0  0  0  0  0  0  0  0
  -25.5375  -12.2680   17.8983 C   0  0  0  0  0  0  0  0  0  0  0  0
  -28.9408  -23.8492   18.7751 C   0  0  0  0  0  0  0  0  0  0  0  0
  -27.8660  -24.1433   18.0240 C   0  0  0  0  0  0  0  0  0  0  0  0
  -23.1518  -11.6746   17.4456 C   0  0  0  0  0  0  0  0  0  0  0  0
  -25.7704  -32.0647   23.1490 C   0  0  0  0  0  0  0  0  0  0  0  0
  -22.7395  -31.0293   22.6354 C   0  0  0  0  0  0  0  0  0  0  0  0
  -20.6736  -28.6506   21.3237 C   0  0  0  0  0  0  0  0  0  0  0  0
  -29.9297  -15.1644   19.7209 C   0  0  0  0  0  0  0  0  0  0  0  0
  -26.2454  -36.5117   25.6098 C   0  0  0  0  0  0  0  0  0  0  0  0
  -25.8028  -31.6244   20.6668 C   0  0  0  0  0  0  0  0  0  0  0  0
  -24.5902  -29.3808   22.1638 C   0  0  0  0  0  0  0  0  0  0  0  0
  -25.2629  -35.3439   25.6451 C   0  0  0  0  0  0  0  0  0  0  0  0
  -30.2790  -11.6253   19.5496 C   0  0  0  0  0  0  0  0  0  0  0  0
  -31.7051  -23.3121   19.3073 C   0  0  0  0  0  0  0  0  0  0  0  0
  -26.0122  -34.0185   25.7386 C   0  0  0  0  0  0  0  0  0  0  0  0
  -31.2029  -24.7537   19.3018 C   0  0  0  0  0  0  0  0  0  0  0  0
  -28.8452  -11.1287   19.3503 C   0  0  0  0  0  0  0  0  0  0  0  0
  -30.3361  -12.8341   20.4819 C   0  0  0  0  0  0  0  0  0  0  0  0
  -28.0207  -13.4512   19.9100 C   0  0  0  0  0  0  0  0  0  0  0  0
  -30.8763  -22.4275   18.3843 C   0  0  0  0  0  0  0  0  0  0  0  0
  -26.9101  -33.8049   24.5141 C   0  0  1  0  0  0  0  0  0  0  0  0
  -29.7080  -24.8315   19.6466 C   0  0  1  0  0  0  0  0  0  0  0  0
  -24.9479  -31.8566   21.9089 C   0  0  1  0  0  0  0  0  0  0  0  0
  -27.9056  -12.2748   18.9269 C   0  0  2  0  0  0  0  0  0  0  0  0
  -31.1629  -20.0810   21.0500 C   0  0  0  0  0  0  0  0  0  0  0  0
  -26.8516  -20.4782   18.5116 C   0  0  0  0  0  0  0  0  0  0  0  0
  -26.8192  -17.6120   18.1436 C   0  0  0  0  0  0  0  0  0  0  0  0
  -18.2455  -28.0595   21.0945 C   0  0  0  0  0  0  0  0  0  0  0  0
  -22.6850  -30.1327   25.5514 C   0  0  0  0  0  0  0  0  0  0  0  0
  -20.6771  -28.7377   25.0123 C   0  0  0  0  0  0  0  0  0  0  0  0
  -20.5772  -31.2168   24.7539 C   0  0  0  0  0  0  0  0  0  0  0  0
  -20.8072  -28.7565   18.3691 C   0  0  0  0  0  0  0  0  0  0  0  0
  -29.0209  -21.7297   19.9652 C   0  0  0  0  0  0  0  0  0  0  0  0
  -29.2422  -26.2897   19.5791 C   0  0  0  0  0  0  0  0  0  1  0  0
  -21.9186  -29.8514   23.1020 C   0  0  1  0  0  0  0  0  0  0  0  0
  -19.4335  -28.7613   20.4552 C   0  0  2  0  0  0  0  0  0  0  0  0
  -21.4888  -29.9811   24.5906 C   0  0  0  0  0  0  0  0  0  0  0  0
  -26.0279  -10.8092   19.5653 N   0  0  0  0  0  0  0  0  0  0  0  0
  -26.4729  -11.7996   18.7734 N   0  0  0  0  0  0  0  0  0  0  0  0
  -24.0357  -30.7445   22.1832 N   0  0  0  0  0  0  0  0  0  0  0  0
  -29.4239  -13.8808   20.0159 N   0  0  0  0  0  0  0  0  0  0  0  0
  -25.8174  -13.2632   17.0301 N   0  0  0  0  0  0  0  0  0  0  0  0
  -22.2047  -12.5712   17.9589 N   0  0  0  0  0  0  0  0  0  0  0  0
  -28.9747  -16.0675   19.2551 N   0  0  0  0  0  0  0  0  0  0  0  0
  -26.1216  -33.3816   23.3768 N   0  0  0  0  0  0  0  0  0  0  0  0
  -20.8051  -29.7338   22.1667 N   0  0  0  0  0  0  0  0  0  0  0  0
  -29.4051  -22.4783   18.7187 N   0  3  1  0  0  0  0  0  0  0  0  0
  -19.6797  -28.1467   19.1200 N   0  3  0  0  0  0  0  0  0  0  0  0
  -22.8764  -11.0136   16.4157 O   0  0  0  0  0  0  0  0  0  0  0  0
  -26.0634  -31.1019   23.8483 O   0  0  0  0  0  0  0  0  0  0  0  0
  -22.2462  -32.1596   22.6642 O   0  0  0  0  0  0  0  0  0  0  0  0
  -21.4462  -27.6966   21.2632 O   0  0  0  0  0  0  0  0  0  0  0  0
  -31.1272  -15.4343   19.8446 O   0  0  0  0  0  0  0  0  0  0  0  0
  -21.5263   -6.7912   21.5996 O   0  0  0  0  0  0  0  0  0  0  0  0
  -28.0818  -26.4452   20.3949 O   0  0  0  0  0  0  0  0  0  1  0  0
  -23.2573   -4.6290   26.3675 F   0  0  0  0  0  0  0  0  0  0  0  0
  -20.0111   -7.0322   23.8993 F   0  0  0  0  0  0  0  0  0  0  0  0
  1  2  1  0  0  0  0
  1  5  2  0  0  0  0
  2  6  2  0  0  0  0
  3  8  2  0  0  0  0
  3 16  1  0  0  0  0
  4  9  1  0  0  0  0
  4 16  2  0  0  0  0
  5 18  1  0  0  0  0
  6 20  1  0  0  0  0
  7 10  2  0  0  0  0
  7 19  1  0  0  0  0
  8 27  1  0  0  0  0
  9 27  2  0  0  0  0
 10 28  1  0  0  0  0
 11 12  2  0  0  0  0
 11 29  1  0  0  0  0
 12 30  1  0  0  0  0
 13 21  1  0  0  0  0
 13 28  2  0  0  0  0
 14 22  2  0  0  0  0
 14 26  1  0  0  0  0
 15 30  2  0  0  0  0
 15 31  1  0  0  0  0
 16 32  1  0  0  0  0
 17 32  1  0  0  0  0
 17 33  2  0  0  0  0
 17 36  1  0  0  0  0
 18 20  2  0  0  0  0
 18 41  1  0  0  0  0
 19 21  2  0  0  0  0
 19 42  1  0  0  0  0
 20 53  1  0  0  0  0
 21 43  1  0  0  0  0
 22 24  1  0  0  0  0
 22 57  1  0  0  0  0
 23 24  2  0  0  0  0
 23 25  1  0  0  0  0
 23 58  1  0  0  0  0
 24 65  1  0  0  0  0
 25 26  2  0  0  0  0
 25 59  1  0  0  0  0
 26 76  1  0  0  0  0
 27 86  1  0  0  0  0
 28 87  1  0  0  0  0
 29 31  2  0  0  0  0
 29 86  1  0  0  0  0
 30 88  1  0  0  0  0
 31 89  1  0  0  0  0
 32 70  2  0  0  0  0
 33 71  1  0  0  0  0
 33 74  1  0  0  0  0
 34 35  2  0  0  0  0
 34 54  1  0  0  0  0
 34 79  1  0  0  0  0
 36 75  1  0  0  0  0
 36 81  2  0  0  0  0
 37 55  1  0  0  0  0
 37 77  1  0  0  0  0
 37 82  2  0  0  0  0
 38 67  1  0  0  0  0
 38 72  1  0  0  0  0
 38 83  2  0  0  0  0
 39 68  1  0  0  0  0
 39 78  1  0  0  0  0
 39 84  2  0  0  0  0
 40 73  1  0  0  0  0
 40 76  1  0  0  0  0
 40 85  2  0  0  0  0
 41 44  1  0  0  0  0
 42 55  1  0  0  0  0
 43 72  1  0  0  0  0
 44 47  1  0  0  0  0
 45 49  1  0  0  0  0
 45 50  1  0  0  0  0
 46 48  1  0  0  0  0
 46 52  1  0  0  0  0
 47 53  1  0  0  0  0
 48 54  1  0  0  0  0
 49 56  1  0  0  0  0
 50 73  1  0  0  0  0
 51 56  1  0  0  0  0
 51 73  1  0  0  0  0
 52 79  1  0  0  0  0
 53 77  1  0  0  0  0
 54 66  1  0  0  0  0
 55 72  1  0  0  0  0
 56 71  1  0  0  0  0
 60 68  1  0  0  0  0
 61 69  1  0  0  0  0
 62 69  1  0  0  0  0
 63 69  1  0  0  0  0
 64 80  1  0  0  0  0
 65 79  1  0  0  0  0
 66 87  1  0  0  0  0
 67 69  1  0  0  0  0
 67 78  1  0  0  0  0
 68 80  1  0  0  0  0
 70 71  1  0  0  0  0
M  CHG  2  79   1  80   1
M  ISO  4  40 100  66 101  76 100  87 101
M  END
> <Batch ID>
0033

> <Smiles>
C=C1C([101CH2:1][101O:1]c2ccc3c(c2)CN(C(=O)C(NC(=O)C(C)NC)C(C)(C)C)C(C(=O)NC2CCCc4ccccc42)C3)CCCN1Cc1c(C)cc([100NH:0][100C:0](=O)N2CCCC(n3nc(-c4ccc(Oc5ccc(F)cc5F)cc4)c(C(N)=O)c3N)C2)c(C)c1C

> <Shape>
0.348

> <Color>
0.107

> <Negative vol penalty>
0.000

$$$$

  -OEChem-04042321453D

 86 95  0     1  0  0  0  0  0999 V2000
  -25.5702  -36.1505   23.2987 C   0  0  0  0  0  0  0  0  0  0  0  0
  -26.5924  -35.5244   22.5926 C   0  0  0  0  0  0  0  0  0  0  0  0
  -23.5683  -13.0644   22.7842 C   0  0  0  0  0  0  0  0  0  0  0  0
  -23.3150  -13.6277   20.4485 C   0  0  0  0  0  0  0  0  0  0  0  0
  -24.7013  -35.3934   24.0834 C   0  0  0  0  0  0  0  0  0  0  0  0
  -26.7469  -34.1408   22.6717 C   0  0  0  0  0  0  0  0  0  0  0  0
  -28.8264  -28.5220   18.7448 C   0  0  0  0  0  0  0  0  0  0  0  0
  -26.0962  -18.4805   19.7209 C   0  0  0  0  0  0  0  0  0  0  0  0
  -26.6765  -17.2615   19.3705 C   0  0  0  0  0  0  0  0  0  0  0  0
  -22.5940  -14.0055   23.1168 C   0  0  0  0  0  0  0  0  0  0  0  0
  -22.3407  -14.5689   20.7811 C   0  0  0  0  0  0  0  0  0  0  0  0
  -29.6965  -27.4339   18.7977 C   0  0  0  0  0  0  0  0  0  0  0  0
  -22.2342  -17.7152   22.0140 C   0  0  0  0  0  0  0  0  0  0  0  0
  -22.3092  -18.9683   21.4060 C   0  0  0  0  0  0  0  0  0  0  0  0
  -28.0873  -26.2191   20.1220 C   0  0  0  0  0  0  0  0  0  0  0  0
  -20.1211  -18.6302   20.4392 C   0  0  0  0  0  0  0  0  0  0  0  0
  -23.9288  -12.8755   21.4500 C   0  0  0  0  0  0  0  0  0  0  0  0
  -24.9010  -10.5189   21.3556 C   0  0  0  0  0  0  0  0  0  0  0  0
  -24.8393  -33.9988   24.1645 C   0  0  0  0  0  0  0  0  0  0  0  0
  -27.5826  -28.4707   19.3904 C   0  0  0  0  0  0  0  0  0  0  0  0
  -25.8798  -33.3645   23.4593 C   0  0  0  0  0  0  0  0  0  0  0  0
  -27.2021  -27.3069   20.0736 C   0  0  0  0  0  0  0  0  0  0  0  0
  -26.9023  -19.5501   20.1109 C   0  0  0  0  0  0  0  0  0  0  0  0
  -28.2885  -19.4005   20.1505 C   0  0  0  0  0  0  0  0  0  0  0  0
  -28.0627  -17.1119   19.4101 C   0  0  0  0  0  0  0  0  0  0  0  0
  -21.9802  -14.7577   22.1153 C   0  0  0  0  0  0  0  0  0  0  0  0
  -29.3282  -26.2833   19.4887 C   0  0  0  0  0  0  0  0  0  0  0  0
  -21.1026  -16.9195   21.8346 C   0  0  0  0  0  0  0  0  0  0  0  0
  -21.2527  -19.4258   20.6186 C   0  0  0  0  0  0  0  0  0  0  0  0
  -20.0461  -17.3770   21.0472 C   0  0  0  0  0  0  0  0  0  0  0  0
  -28.8688  -18.1814   19.8001 C   0  0  0  0  0  0  0  0  0  0  0  0
  -24.9356  -11.9039   21.1057 C   0  0  0  0  0  0  0  0  0  0  0  0
  -26.0830  -10.0472   20.8390 C   0  0  0  0  0  0  0  0  0  0  0  0
  -23.8907   -9.7293   21.9971 C   0  0  0  0  0  0  0  0  0  0  0  0
  -26.2055  -30.1103   21.7397 C   0  0  0  0  0  0  0  0  0  0  0  0
  -23.6191  -28.3198   20.9478 C   0  0  0  0  0  0  0  0  0  0  0  0
  -22.9674  -24.8855   20.0547 C   0  0  0  0  0  0  0  0  0  0  0  0
  -27.9996  -14.7044   18.6424 C   0  0  0  0  0  0  0  0  0  0  0  0
  -23.9050  -33.2280   25.0632 C   0  0  0  0  0  0  0  0  0  0  0  0
  -26.6443  -29.6430   19.3014 C   0  0  0  0  0  0  0  0  0  0  0  0
  -25.8696  -27.1938   20.7664 C   0  0  0  0  0  0  0  0  0  0  0  0
  -23.9055  -31.7249   24.7966 C   0  0  0  0  0  0  0  0  0  0  0  0
  -30.4067  -12.0673   20.0976 C   0  0  0  0  0  0  0  0  0  0  0  0
  -30.2628  -22.2129   17.3051 C   0  0  0  0  0  0  0  0  0  0  0  0
  -25.3343  -31.2044   24.6767 C   0  0  0  0  0  0  0  0  0  0  0  0
  -29.2338  -11.2771   20.6642 C   0  0  0  0  0  0  0  0  0  0  0  0
  -30.6194  -23.5912   17.8460 C   0  0  0  0  0  0  0  0  0  0  0  0
  -29.9606  -13.4761   19.7162 C   0  0  0  0  0  0  0  0  0  0  0  0
  -28.1568  -12.2250   18.5274 C   0  0  0  0  0  0  0  0  0  0  0  0
  -30.2502  -21.1624   18.4065 C   0  0  0  0  0  0  0  0  0  0  0  0
  -29.6923  -22.9299   20.0961 C   0  0  0  0  0  0  0  0  0  0  0  0
  -26.0645  -31.8631   23.5000 C   0  0  1  0  0  0  0  0  0  0  0  0
  -25.6166  -29.6726   20.4285 C   0  0  1  0  0  0  0  0  0  0  0  0
  -28.0835  -11.1634   19.6440 C   0  0  2  0  0  0  0  0  0  0  0  0
  -29.7066  -23.9890   19.0017 C   0  0  1  0  0  0  0  0  0  1  0  0
  -26.2578  -20.8454   20.4817 C   0  0  0  0  0  0  0  0  0  0  0  0
  -21.1351  -23.8805   18.6654 C   0  0  0  0  0  0  0  0  0  0  0  0
  -22.2059  -27.9201   23.6223 C   0  0  0  0  0  0  0  0  0  0  0  0
  -21.3732  -25.7167   22.7739 C   0  0  0  0  0  0  0  0  0  0  0  0
  -20.7041  -27.8272   21.6247 C   0  0  0  0  0  0  0  0  0  0  0  0
  -24.9036  -23.5601   18.2510 C   0  0  0  0  0  0  0  0  0  0  0  0
  -29.1721  -20.5393   20.5668 C   0  0  0  0  0  0  0  0  0  0  0  0
  -23.0735  -26.9801   21.3797 C   0  0  1  0  0  0  0  0  0  0  0  0
  -22.5779  -24.3611   18.6844 C   0  0  2  0  0  0  0  0  0  0  0  0
  -21.8671  -27.1167   22.3509 C   0  0  0  0  0  0  0  0  0  0  0  0
  -26.0512  -12.2871   20.4793 N   0  0  0  0  0  0  0  0  0  0  0  0
  -26.7287  -11.1359   20.3312 N   0  0  0  0  0  0  0  0  0  0  0  0
  -24.9896  -28.3690   20.6560 N   0  0  0  0  0  0  0  0  0  0  0  0
  -28.6839  -13.5122   18.9878 N   0  0  0  0  0  0  0  0  0  0  0  0
  -26.6226   -8.8115   20.7742 N   0  0  0  0  0  0  0  0  0  0  0  0
  -22.8716   -9.1788   21.2080 N   0  0  0  0  0  0  0  0  0  0  0  0
  -28.6493  -15.8714   19.0534 N   0  0  0  0  0  0  0  0  0  0  0  0
  -25.6472  -31.2672   22.2489 N   0  0  0  0  0  0  0  0  0  0  0  0
  -22.7742  -26.2471   20.1543 N   0  0  0  0  0  0  0  0  0  0  0  0
  -29.3102  -21.5964   19.5060 N   0  3  2  0  0  0  0  0  0  0  0  0
  -23.4576  -23.2225   18.2961 N   0  3  0  0  0  0  0  0  0  0  0  0
  -23.8824   -9.5319   23.2359 O   0  0  0  0  0  0  0  0  0  0  0  0
  -27.0992  -29.4468   22.2522 O   0  0  0  0  0  0  0  0  0  0  0  0
  -22.8560  -29.2855   20.8654 O   0  0  0  0  0  0  0  0  0  0  0  0
  -23.3965  -24.1592   20.9486 O   0  0  0  0  0  0  0  0  0  0  0  0
  -26.9298  -14.6831   18.0302 O   0  0  0  0  0  0  0  0  0  0  0  0
  -21.0293  -15.6760   22.4396 O   0  0  0  0  0  0  0  0  0  0  0  0
  -30.1759  -25.2201   19.5425 O   0  0  0  0  0  0  0  0  0  1  0  0
  -21.3242  -20.6298   20.0360 F   0  0  0  0  0  0  0  0  0  0  0  0
  -18.9559  -16.6176   20.8721 F   0  0  0  0  0  0  0  0  0  0  0  0
  -30.2023  -18.0386   19.8387 F   0  0  0  0  0  0  0  0  0  0  0  0
  1  2  1  0  0  0  0
  1  5  2  0  0  0  0
  2  6  2  0  0  0  0
  3 10  2  0  0  0  0
  3 17  1  0  0  0  0
  4 11  1  0  0  0  0
  4 17  2  0  0  0  0
  5 19  1  0  0  0  0
  6 21  1  0  0  0  0
  7 12  2  0  0  0  0
  7 20  1  0  0  0  0
  8  9  1  0  0  0  0
  8 23  2  0  0  0  0
  9 25  2  0  0  0  0
 10 26  1  0  0  0  0
 11 26  2  0  0  0  0
 12 27  1  0  0  0  0
 13 14  2  0  0  0  0
 13 28  1  0  0  0  0
 14 29  1  0  0  0  0
 15 22  1  0  0  0  0
 15 27  2  0  0  0  0
 16 29  2  0  0  0  0
 16 30  1  0  0  0  0
 17 32  1  0  0  0  0
 18 32  1  0  0  0  0
 18 33  2  0  0  0  0
 18 34  1  0  0  0  0
 19 21  2  0  0  0  0
 19 39  1  0  0  0  0
 20 22  2  0  0  0  0
 20 40  1  0  0  0  0
 21 52  1  0  0  0  0
 22 41  1  0  0  0  0
 23 24  1  0  0  0  0
 23 56  1  0  0  0  0
 24 31  2  0  0  0  0
 24 62  1  0  0  0  0
 25 31  1  0  0  0  0
 25 72  1  0  0  0  0
 26 82  1  0  0  0  0
 27 83  1  0  0  0  0
 28 30  2  0  0  0  0
 28 82  1  0  0  0  0
 29 84  1  0  0  0  0
 30 85  1  0  0  0  0
 31 86  1  0  0  0  0
 32 66  2  0  0  0  0
 33 67  1  0  0  0  0
 33 70  1  0  0  0  0
 34 71  1  0  0  0  0
 34 77  2  0  0  0  0
 35 53  1  0  0  0  0
 35 73  1  0  0  0  0
 35 78  2  0  0  0  0
 36 63  1  0  0  0  0
 36 68  1  0  0  0  0
 36 79  2  0  0  0  0
 37 64  1  0  0  0  0
 37 74  1  0  0  0  0
 37 80  2  0  0  0  0
 38 69  1  0  0  0  0
 38 72  1  0  0  0  0
 38 81  2  0  0  0  0
 39 42  1  0  0  0  0
 40 53  1  0  0  0  0
 41 68  1  0  0  0  0
 42 45  1  0  0  0  0
 43 46  1  0  0  0  0
 43 48  1  0  0  0  0
 44 47  1  0  0  0  0
 44 50  1  0  0  0  0
 45 52  1  0  0  0  0
 46 54  1  0  0  0  0
 47 55  1  0  0  0  0
 48 69  1  0  0  0  0
 49 54  1  0  0  0  0
 49 69  1  0  0  0  0
 50 75  1  0  0  0  0
 51 55  1  0  0  0  0
 51 75  1  0  0  0  0
 52 73  1  0  0  0  0
 53 68  1  0  0  0  0
 54 67  1  0  0  0  0
 55 83  1  0  0  0  0
 57 64  1  0  0  0  0
 58 65  1  0  0  0  0
 59 65  1  0  0  0  0
 60 65  1  0  0  0  0
 61 76  1  0  0  0  0
 62 75  1  0  0  0  0
 63 65  1  0  0  0  0
 63 74  1  0  0  0  0
 64 76  1  0  0  0  0
 66 67  1  0  0  0  0
M  CHG  2  75   1  76   1
M  ISO  4  38 100  55 101  72 100  83 101
M  END
> <Batch ID>
0033

> <Smiles>
CNC(C)C(=O)NC(C(=O)N1Cc2cc([101O:1][101CH:1]3CCCN(Cc4c(C)ccc([100NH:0][100C:0](=O)N5CCCC(n6nc(-c7ccc(Oc8ccc(F)cc8F)cc7)c(C(N)=O)c6N)C5)c4F)C3)ccc2CC1C(=O)NC1CCCc2ccccc21)C(C)(C)C

> <Shape>
0.323

> <Color>
0.058

> <Negative vol penalty>
0.000

$$$$

  -OEChem-04042321453D

 87 96  0     1  0  0  0  0  0999 V2000
  -21.7156  -11.6864   19.5586 C   0  0  0  0  0  0  0  0  0  0  0  0
  -21.4747  -12.9515   20.0847 C   0  0  0  0  0  0  0  0  0  0  0  0
  -29.1925  -26.7760   18.2823 C   0  0  0  0  0  0  0  0  0  0  0  0
  -29.1873  -27.3264   20.6348 C   0  0  0  0  0  0  0  0  0  0  0  0
  -23.0055  -11.1575   19.5808 C   0  0  0  0  0  0  0  0  0  0  0  0
  -22.5233  -13.6881   20.6344 C   0  0  0  0  0  0  0  0  0  0  0  0
  -23.2460  -19.7667   20.4492 C   0  0  0  0  0  0  0  0  0  0  0  0
  -18.1709  -26.3321   23.6285 C   0  0  0  0  0  0  0  0  0  0  0  0
  -18.7006  -27.5770   23.2892 C   0  0  0  0  0  0  0  0  0  0  0  0
  -30.5571  -27.0579   18.2193 C   0  0  0  0  0  0  0  0  0  0  0  0
  -30.5520  -27.6082   20.5718 C   0  0  0  0  0  0  0  0  0  0  0  0
  -22.9682  -20.7729   21.3734 C   0  0  0  0  0  0  0  0  0  0  0  0
  -33.4524  -25.8744   20.5261 C   0  0  0  0  0  0  0  0  0  0  0  0
  -34.2641  -25.3709   21.5425 C   0  0  0  0  0  0  0  0  0  0  0  0
  -25.2593  -20.7059   22.1257 C   0  0  0  0  0  0  0  0  0  0  0  0
  -34.9221  -27.6199   22.1310 C   0  0  0  0  0  0  0  0  0  0  0  0
  -28.5076  -26.9103   19.4901 C   0  0  0  0  0  0  0  0  0  0  0  0
  -26.4980  -25.3794   19.8447 C   0  0  0  0  0  0  0  0  0  0  0  0
  -24.0723  -11.8920   20.1223 C   0  0  0  0  0  0  0  0  0  0  0  0
  -24.5319  -19.2140   20.3637 C   0  0  0  0  0  0  0  0  0  0  0  0
  -23.8284  -13.1680   20.6651 C   0  0  0  0  0  0  0  0  0  0  0  0
  -25.5514  -19.6946   21.1978 C   0  0  0  0  0  0  0  0  0  0  0  0
  -18.9237  -25.4379   24.3897 C   0  0  0  0  0  0  0  0  0  0  0  0
  -19.9830  -27.9277   23.7109 C   0  0  0  0  0  0  0  0  0  0  0  0
  -20.7359  -27.0335   24.4721 C   0  0  0  0  0  0  0  0  0  0  0  0
  -20.2061  -25.7886   24.8115 C   0  0  0  0  0  0  0  0  0  0  0  0
  -31.2369  -27.4740   19.3641 C   0  0  0  0  0  0  0  0  0  0  0  0
  -23.9742  -21.2407   22.2139 C   0  0  0  0  0  0  0  0  0  0  0  0
  -33.3755  -27.2506   20.3120 C   0  0  0  0  0  0  0  0  0  0  0  0
  -34.9990  -26.2436   22.3450 C   0  0  0  0  0  0  0  0  0  0  0  0
  -34.1103  -28.1233   21.1145 C   0  0  0  0  0  0  0  0  0  0  0  0
  -27.0978  -26.6198   19.5556 C   0  0  0  0  0  0  0  0  0  0  0  0
  -25.1486  -25.6282   19.7844 C   0  0  0  0  0  0  0  0  0  0  0  0
  -23.1149  -23.5803   25.6942 C   0  0  0  0  0  0  0  0  0  0  0  0
  -23.9279  -24.3559   26.4211 C   0  0  0  0  0  0  0  0  0  0  0  0
  -27.1063  -24.1154   20.1413 C   0  0  0  0  0  0  0  0  0  0  0  0
  -25.7607  -16.3147   20.7970 C   0  0  0  0  0  0  0  0  0  0  0  0
  -28.4695  -17.7250   19.7034 C   0  0  0  0  0  0  0  0  0  0  0  0
  -30.2621  -20.5932   19.2486 C   0  0  0  0  0  0  0  0  0  0  0  0
  -21.3087  -29.7769   21.0325 C   0  0  0  0  0  0  0  0  0  0  0  0
  -25.4406  -11.2592   20.1669 C   0  0  0  0  0  0  0  0  0  0  0  0
  -24.8220  -18.1479   19.3430 C   0  0  0  0  0  0  0  0  0  0  0  0
  -26.9535  -19.1487   21.1317 C   0  0  0  0  0  0  0  0  0  0  0  0
  -23.2685  -22.1042   25.4986 C   0  0  0  0  0  0  0  0  0  0  0  0
  -26.5652  -12.2578   20.4282 C   0  0  0  0  0  0  0  0  0  0  0  0
  -22.3388  -29.1150   17.6893 C   0  0  0  0  0  0  0  0  0  0  0  0
  -26.1966  -13.1876   21.5800 C   0  0  0  0  0  0  0  0  0  0  0  0
  -23.6152  -28.2888   17.8566 C   0  0  0  0  0  0  0  0  0  0  0  0
  -22.2180  -30.1913   18.7658 C   0  0  0  0  0  0  0  0  0  0  0  0
  -23.6032  -28.8704   20.3184 C   0  0  0  0  0  0  0  0  0  0  0  0
  -21.6063  -22.9957   24.0009 C   0  0  0  0  0  0  0  0  0  0  0  0
  -24.9444  -14.0079   21.2476 C   0  0  1  0  0  0  0  0  0  0  0  0
  -26.0390  -17.2983   19.6957 C   0  0  1  0  0  0  0  0  0  0  0  0
  -23.7415  -27.7358   19.2889 C   0  0  2  0  0  0  0  0  0  0  0  0
  -22.7068  -21.9483   24.0941 C   0  0  1  0  0  0  0  0  0  1  0  0
  -18.3326  -24.1113   24.7397 C   0  0  0  0  0  0  0  0  0  0  0  0
  -22.1118  -27.4108   24.9222 C   0  0  0  0  0  0  0  0  0  0  0  0
  -32.4579  -21.4242   18.3625 C   0  0  0  0  0  0  0  0  0  0  0  0
  -29.8682  -16.6980   22.2131 C   0  0  0  0  0  0  0  0  0  0  0  0
  -31.7238  -18.3156   21.7564 C   0  0  0  0  0  0  0  0  0  0  0  0
  -31.2162  -16.5068   20.1153 C   0  0  0  0  0  0  0  0  0  0  0  0
  -28.9344  -22.2652   17.1991 C   0  0  0  0  0  0  0  0  0  0  0  0
  -20.5273  -29.2664   23.3321 C   0  0  0  0  0  0  0  0  0  0  0  0
  -21.0130  -24.8253   25.6312 C   0  0  0  0  0  0  0  0  0  0  0  0
  -29.6250  -18.4585   20.3403 C   0  0  1  0  0  0  0  0  0  0  0  0
  -30.9995  -21.1391   18.0392 C   0  0  2  0  0  0  0  0  0  0  0  0
  -30.5815  -17.5039   21.1091 C   0  0  0  0  0  0  0  0  0  0  0  0
  -26.2028  -27.5848   19.3284 N   0  0  0  0  0  0  0  0  0  0  0  0
  -25.0269  -26.9509   19.4746 N   0  0  0  0  0  0  0  0  0  0  0  0
  -27.1858  -18.1031   20.1217 N   0  0  0  0  0  0  0  0  0  0  0  0
  -22.3447  -29.6009   20.1005 N   0  0  0  0  0  0  0  0  0  0  0  0
  -24.0661  -24.8424   19.9666 N   0  0  0  0  0  0  0  0  0  0  0  0
  -28.5054  -24.0357   20.1622 N   0  0  0  0  0  0  0  0  0  0  0  0
  -25.2764  -15.0981   20.3556 N   0  0  0  0  0  0  0  0  0  0  0  0
  -30.2679  -19.2145   19.2709 N   0  0  0  0  0  0  0  0  0  0  0  0
  -21.5061  -29.1794   22.2714 N   0  0  0  0  0  0  0  0  0  0  0  0
  -22.1067  -24.1615   24.8497 N   0  3  1  0  0  0  0  0  0  0  0  0
  -30.3652  -22.4047   17.5736 N   0  3  0  0  0  0  0  0  0  0  0  0
  -26.4291  -23.0833   20.3645 O   0  0  0  0  0  0  0  0  0  0  0  0
  -25.9713  -16.6353   21.9609 O   0  0  0  0  0  0  0  0  0  0  0  0
  -28.6972  -16.8538   18.8603 O   0  0  0  0  0  0  0  0  0  0  0  0
  -29.7369  -21.3174   20.0914 O   0  0  0  0  0  0  0  0  0  0  0  0
  -20.2813  -30.4144   20.7776 O   0  0  0  0  0  0  0  0  0  0  0  0
  -32.5685  -27.7489   19.3030 O   0  0  0  0  0  0  0  0  0  0  0  0
  -23.7057  -22.2223   23.1173 O   0  0  0  0  0  0  0  0  0  1  0  0
  -35.7773  -25.7601   23.3220 F   0  0  0  0  0  0  0  0  0  0  0  0
  -34.0396  -29.4465   20.9144 F   0  0  0  0  0  0  0  0  0  0  0  0
  1  2  1  0  0  0  0
  1  5  2  0  0  0  0
  2  6  2  0  0  0  0
  3 10  2  0  0  0  0
  3 17  1  0  0  0  0
  4 11  1  0  0  0  0
  4 17  2  0  0  0  0
  5 19  1  0  0  0  0
  6 21  1  0  0  0  0
  7 12  2  0  0  0  0
  7 20  1  0  0  0  0
  8  9  1  0  0  0  0
  8 23  2  0  0  0  0
  9 24  2  0  0  0  0
 10 27  1  0  0  0  0
 11 27  2  0  0  0  0
 12 28  1  0  0  0  0
 13 14  2  0  0  0  0
 13 29  1  0  0  0  0
 14 30  1  0  0  0  0
 15 22  1  0  0  0  0
 15 28  2  0  0  0  0
 16 30  2  0  0  0  0
 16 31  1  0  0  0  0
 17 32  1  0  0  0  0
 18 32  1  0  0  0  0
 18 33  2  0  0  0  0
 18 36  1  0  0  0  0
 19 21  2  0  0  0  0
 19 41  1  0  0  0  0
 20 22  2  0  0  0  0
 20 42  1  0  0  0  0
 21 52  1  0  0  0  0
 22 43  1  0  0  0  0
 23 26  1  0  0  0  0
 23 56  1  0  0  0  0
 24 25  1  0  0  0  0
 24 63  1  0  0  0  0
 25 26  2  0  0  0  0
 25 57  1  0  0  0  0
 26 64  1  0  0  0  0
 27 84  1  0  0  0  0
 28 85  1  0  0  0  0
 29 31  2  0  0  0  0
 29 84  1  0  0  0  0
 30 86  1  0  0  0  0
 31 87  1  0  0  0  0
 32 68  2  0  0  0  0
 33 69  1  0  0  0  0
 33 72  1  0  0  0  0
 34 35  2  0  0  0  0
 34 44  1  0  0  0  0
 34 77  1  0  0  0  0
 36 73  1  0  0  0  0
 36 79  2  0  0  0  0
 37 53  1  0  0  0  0
 37 74  1  0  0  0  0
 37 80  2  0  0  0  0
 38 65  1  0  0  0  0
 38 70  1  0  0  0  0
 38 81  2  0  0  0  0
 39 66  1  0  0  0  0
 39 75  1  0  0  0  0
 39 82  2  0  0  0  0
 40 71  1  0  0  0  0
 40 76  1  0  0  0  0
 40 83  2  0  0  0  0
 41 45  1  0  0  0  0
 42 53  1  0  0  0  0
 43 70  1  0  0  0  0
 44 55  1  0  0  0  0
 45 47  1  0  0  0  0
 46 48  1  0  0  0  0
 46 49  1  0  0  0  0
 47 52  1  0  0  0  0
 48 54  1  0  0  0  0
 49 71  1  0  0  0  0
 50 54  1  0  0  0  0
 50 71  1  0  0  0  0
 51 55  1  0  0  0  0
 51 77  1  0  0  0  0
 52 74  1  0  0  0  0
 53 70  1  0  0  0  0
 54 69  1  0  0  0  0
 55 85  1  0  0  0  0
 58 66  1  0  0  0  0
 59 67  1  0  0  0  0
 60 67  1  0  0  0  0
 61 67  1  0  0  0  0
 62 78  1  0  0  0  0
 63 76  1  0  0  0  0
 64 77  1  0  0  0  0
 65 67  1  0  0  0  0
 65 75  1  0  0  0  0
 66 78  1  0  0  0  0
 68 69  1  0  0  0  0
M  CHG  2  77   1  78   1
M  ISO  4  40 100  55 101  76 100  85 101
M  END
> <Batch ID>
0033

> <Smiles>
C=C1C[101CH:1]([101O:1]c2ccc3c(c2)CN(C(=O)C(NC(=O)C(C)NC)C(C)(C)C)C(C(=O)NC2CCCc4ccccc42)C3)CN1Cc1c(C)ccc(C[100NH:0][100C:0](=O)N2CCCC(n3nc(-c4ccc(Oc5ccc(F)cc5F)cc4)c(C(N)=O)c3N)C2)c1C

> <Shape>
0.221

> <Color>
0.064

> <Negative vol penalty>
0.000

$$$$

  -OEChem-04042321453D

 84 92  0     1  0  0  0  0  0999 V2000
  -27.9916  -11.5573   18.5765 C   0  0  0  0  0  0  0  0  0  0  0  0
  -27.5205  -12.6080   17.7959 C   0  0  0  0  0  0  0  0  0  0  0  0
  -28.8753  -25.4121   19.3014 C   0  0  0  0  0  0  0  0  0  0  0  0
  -26.8994  -24.0525   19.5919 C   0  0  0  0  0  0  0  0  0  0  0  0
  -27.4065  -11.2930   19.8141 C   0  0  0  0  0  0  0  0  0  0  0  0
  -26.4631  -13.3944   18.2519 C   0  0  0  0  0  0  0  0  0  0  0  0
  -23.9918  -20.1136   18.0059 C   0  0  0  0  0  0  0  0  0  0  0  0
  -19.3159  -26.5709   23.5555 C   0  0  0  0  0  0  0  0  0  0  0  0
  -29.6756  -24.3219   19.6428 C   0  0  0  0  0  0  0  0  0  0  0  0
  -27.6998  -22.9623   19.9334 C   0  0  0  0  0  0  0  0  0  0  0  0
  -22.8326  -20.8243   17.6978 C   0  0  0  0  0  0  0  0  0  0  0  0
  -29.5906  -20.6641   18.3322 C   0  0  0  0  0  0  0  0  0  0  0  0
  -29.2857  -19.4319   17.7541 C   0  0  0  0  0  0  0  0  0  0  0  0
  -18.7455  -25.3307   23.2690 C   0  0  0  0  0  0  0  0  0  0  0  0
  -21.9515  -20.3243   19.8871 C   0  0  0  0  0  0  0  0  0  0  0  0
  -28.9321  -18.4890   19.9502 C   0  0  0  0  0  0  0  0  0  0  0  0
  -27.4871  -25.2774   19.2760 C   0  0  0  0  0  0  0  0  0  0  0  0
  -26.2207  -26.7659   17.6365 C   0  0  0  0  0  0  0  0  0  0  0  0
  -26.3478  -12.0825   20.2899 C   0  0  0  0  0  0  0  0  0  0  0  0
  -24.1353  -19.4927   19.2550 C   0  0  0  0  0  0  0  0  0  0  0  0
  -25.8624  -13.1395   19.4965 C   0  0  0  0  0  0  0  0  0  0  0  0
  -23.1146  -19.6085   20.2095 C   0  0  0  0  0  0  0  0  0  0  0  0
  -19.7501  -27.3954   22.5175 C   0  0  0  0  0  0  0  0  0  0  0  0
  -19.0435  -25.7393   20.9065 C   0  0  0  0  0  0  0  0  0  0  0  0
  -29.0879  -23.0970   19.9588 C   0  0  0  0  0  0  0  0  0  0  0  0
  -21.8110  -20.9272   18.6374 C   0  0  0  0  0  0  0  0  0  0  0  0
  -29.5664  -20.8088   19.7194 C   0  0  0  0  0  0  0  0  0  0  0  0
  -28.9564  -18.3444   18.5630 C   0  0  0  0  0  0  0  0  0  0  0  0
  -29.2371  -19.7213   20.5284 C   0  0  0  0  0  0  0  0  0  0  0  0
  -18.6093  -24.9149   21.9446 C   0  0  0  0  0  0  0  0  0  0  0  0
  -19.6139  -26.9796   21.1930 C   0  0  0  0  0  0  0  0  0  0  0  0
  -26.6598  -26.4032   18.9239 C   0  0  0  0  0  0  0  0  0  0  0  0
  -25.4697  -27.8984   17.8362 C   0  0  0  0  0  0  0  0  0  0  0  0
  -26.4693  -26.1353   16.3730 C   0  0  0  0  0  0  0  0  0  0  0  0
  -24.4998  -16.4927   20.2401 C   0  0  0  0  0  0  0  0  0  0  0  0
  -24.8913  -17.9022   23.1353 C   0  0  0  0  0  0  0  0  0  0  0  0
  -24.3100  -20.5959   25.1485 C   0  0  0  0  0  0  0  0  0  0  0  0
  -22.4496  -30.0085   22.5561 C   0  0  0  0  0  0  0  0  0  0  0  0
  -25.7161  -11.7289   21.6130 C   0  0  0  0  0  0  0  0  0  0  0  0
  -25.4032  -18.7524   19.5816 C   0  0  0  0  0  0  0  0  0  0  0  0
  -23.2280  -18.9774   21.5723 C   0  0  0  0  0  0  0  0  0  0  0  0
  -24.8468  -12.8432   22.1901 C   0  0  0  0  0  0  0  0  0  0  0  0
  -25.0609  -31.6498   20.7774 C   0  0  0  0  0  0  0  0  0  0  0  0
  -23.9260  -13.4127   21.1156 C   0  0  0  0  0  0  0  0  0  0  0  0
  -25.7272  -30.5240   19.9845 C   0  0  0  0  0  0  0  0  0  0  0  0
  -24.5979  -31.1741   22.1526 C   0  0  0  0  0  0  0  0  0  0  0  0
  -24.3974  -28.8550   21.3428 C   0  0  0  0  0  0  0  0  0  0  0  0
  -24.7336  -14.0305   19.9678 C   0  0  1  0  0  0  0  0  0  0  0  0
  -25.2257  -17.7265   20.6967 C   0  0  1  0  0  0  0  0  0  0  0  0
  -24.8311  -29.2722   19.9271 C   0  0  2  0  0  0  0  0  0  0  0  0
  -24.7213  -21.4415   27.4751 C   0  0  0  0  0  0  0  0  0  0  0  0
  -22.7040  -16.0551   24.1907 C   0  0  0  0  0  0  0  0  0  0  0  0
  -22.4975  -17.5540   26.1854 C   0  0  0  0  0  0  0  0  0  0  0  0
  -24.6442  -16.3649   25.7380 C   0  0  0  0  0  0  0  0  0  0  0  0
  -25.8594  -22.9143   24.1567 C   0  0  0  0  0  0  0  0  0  0  0  0
  -20.3552  -28.7154   22.8729 C   0  0  0  0  0  0  0  0  0  0  0  0
  -18.8945  -25.2875   19.4837 C   0  0  0  0  0  0  0  0  0  0  0  0
  -19.7247  -23.7361   17.7109 C   0  0  0  0  0  0  0  0  0  0  0  0
  -20.8048  -22.7106   17.4279 C   0  0  0  0  0  0  0  0  0  1  0  0
  -23.9704  -18.3039   24.2621 C   0  0  1  0  0  0  0  0  0  0  0  0
  -25.2335  -21.4023   26.0437 C   0  0  2  0  0  0  0  0  0  0  0  0
  -23.4508  -17.0798   25.0677 C   0  0  0  0  0  0  0  0  0  0  0  0
  -26.2242  -27.2379   19.8714 N   0  0  0  0  0  0  0  0  0  0  0  0
  -25.5036  -28.1362   19.1787 N   0  0  0  0  0  0  0  0  0  0  0  0
  -24.4844  -18.2588   21.8418 N   0  0  0  0  0  0  0  0  0  0  0  0
  -23.7510  -29.9853   22.0279 N   0  0  0  0  0  0  0  0  0  0  0  0
  -24.7903  -28.7042   16.9926 N   0  0  0  0  0  0  0  0  0  0  0  0
  -27.2617  -24.9796   16.3476 N   0  0  0  0  0  0  0  0  0  0  0  0
  -25.2405  -15.3312   20.3494 N   0  0  0  0  0  0  0  0  0  0  0  0
  -24.7051  -19.2777   25.0623 N   0  0  0  0  0  0  0  0  0  0  0  0
  -21.7119  -28.8429   22.3893 N   0  0  0  0  0  0  0  0  0  0  0  0
  -25.3449  -22.8025   25.5459 N   0  3  0  0  0  0  0  0  0  0  0  0
  -19.8848  -24.2469   19.0957 N   0  3  0  0  0  0  0  0  0  0  0  0
  -26.0161  -26.5928   15.2965 O   0  0  0  0  0  0  0  0  0  0  0  0
  -23.3522  -16.5872   19.8211 O   0  0  0  0  0  0  0  0  0  0  0  0
  -25.9368  -17.3007   23.3939 O   0  0  0  0  0  0  0  0  0  0  0  0
  -23.3336  -21.0855   24.5852 O   0  0  0  0  0  0  0  0  0  0  0  0
  -21.9781  -30.9967   23.1289 O   0  0  0  0  0  0  0  0  0  0  0  0
  -29.8686  -22.0330   20.2918 O   0  0  0  0  0  0  0  0  0  0  0  0
  -20.6782  -21.6197   18.3391 O   0  0  0  0  0  0  0  0  0  1  0  0
  -28.6621  -17.1616   18.0076 F   0  0  0  0  0  0  0  0  0  0  0  0
  -29.2110  -19.8545   21.8615 F   0  0  0  0  0  0  0  0  0  0  0  0
  -17.8975  -23.3719   21.6362 Cl  0  0  0  0  0  0  0  0  0  0  0  0
  -20.1555  -28.0085   19.9084 Cl  0  0  0  0  0  0  0  0  0  0  0  0
  1  2  1  0  0  0  0
  1  5  2  0  0  0  0
  2  6  2  0  0  0  0
  3  9  2  0  0  0  0
  3 17  1  0  0  0  0
  4 10  1  0  0  0  0
  4 17  2  0  0  0  0
  5 19  1  0  0  0  0
  6 21  1  0  0  0  0
  7 11  2  0  0  0  0
  7 20  1  0  0  0  0
  8 14  1  0  0  0  0
  8 23  2  0  0  0  0
  9 25  1  0  0  0  0
 10 25  2  0  0  0  0
 11 26  1  0  0  0  0
 12 13  2  0  0  0  0
 12 27  1  0  0  0  0
 13 28  1  0  0  0  0
 14 30  2  0  0  0  0
 15 22  1  0  0  0  0
 15 26  2  0  0  0  0
 16 28  2  0  0  0  0
 16 29  1  0  0  0  0
 17 32  1  0  0  0  0
 18 32  1  0  0  0  0
 18 33  2  0  0  0  0
 18 34  1  0  0  0  0
 19 21  2  0  0  0  0
 19 39  1  0  0  0  0
 20 22  2  0  0  0  0
 20 40  1  0  0  0  0
 21 48  1  0  0  0  0
 22 41  1  0  0  0  0
 23 31  1  0  0  0  0
 23 56  1  0  0  0  0
 24 30  1  0  0  0  0
 24 31  2  0  0  0  0
 24 57  1  0  0  0  0
 25 79  1  0  0  0  0
 26 80  1  0  0  0  0
 27 29  2  0  0  0  0
 27 79  1  0  0  0  0
 28 81  1  0  0  0  0
 29 82  1  0  0  0  0
 30 83  1  0  0  0  0
 31 84  1  0  0  0  0
 32 63  2  0  0  0  0
 33 64  1  0  0  0  0
 33 67  1  0  0  0  0
 34 68  1  0  0  0  0
 34 74  2  0  0  0  0
 35 49  1  0  0  0  0
 35 69  1  0  0  0  0
 35 75  2  0  0  0  0
 36 60  1  0  0  0  0
 36 65  1  0  0  0  0
 36 76  2  0  0  0  0
 37 61  1  0  0  0  0
 37 70  1  0  0  0  0
 37 77  2  0  0  0  0
 38 66  1  0  0  0  0
 38 71  1  0  0  0  0
 38 78  2  0  0  0  0
 39 42  1  0  0  0  0
 40 49  1  0  0  0  0
 41 65  1  0  0  0  0
 42 44  1  0  0  0  0
 43 45  1  0  0  0  0
 43 46  1  0  0  0  0
 44 48  1  0  0  0  0
 45 50  1  0  0  0  0
 46 66  1  0  0  0  0
 47 50  1  0  0  0  0
 47 66  1  0  0  0  0
 48 69  1  0  0  0  0
 49 65  1  0  0  0  0
 50 64  1  0  0  0  0
 51 61  1  0  0  0  0
 52 62  1  0  0  0  0
 53 62  1  0  0  0  0
 54 62  1  0  0  0  0
 55 72  1  0  0  0  0
 56 71  1  0  0  0  0
 57 73  1  0  0  0  0
 58 59  1  0  0  0  0
 58 73  1  0  0  0  0
 59 80  1  0  0  0  0
 60 62  1  0  0  0  0
 60 70  1  0  0  0  0
 61 72  1  0  0  0  0
 63 64  1  0  0  0  0
M  CHG  2  72   1  73   1
M  ISO  4  38 100  59 101  71 100  80 101
M  END
> <Batch ID>
0033

> <Smiles>
CNC(C)C(=O)NC(C(=O)N1Cc2cc([101O:1][101CH2:1]CNCc3c(Cl)ccc(C[100NH:0][100C:0](=O)N4CCCC(n5nc(-c6ccc(Oc7ccc(F)cc7F)cc6)c(C(N)=O)c5N)C4)c3Cl)ccc2CC1C(=O)NC1CCCc2ccccc21)C(C)(C)C

> <Shape>
0.217

> <Color>
0.074

> <Negative vol penalty>
0.000

$$$$

  -OEChem-04042321453D

 87 96  0     1  0  0  0  0  0999 V2000
  -37.5481  -29.8247   24.3953 C   0  0  0  0  0  0  0  0  0  0  0  0
  -37.0518  -28.6394   24.9283 C   0  0  0  0  0  0  0  0  0  0  0  0
  -23.2677   -9.7664   20.1164 C   0  0  0  0  0  0  0  0  0  0  0  0
  -23.9698  -10.0265   22.4134 C   0  0  0  0  0  0  0  0  0  0  0  0
  -36.7598  -30.5827   23.5304 C   0  0  0  0  0  0  0  0  0  0  0  0
  -35.7664  -28.2120   24.5977 C   0  0  0  0  0  0  0  0  0  0  0  0
  -35.5854  -23.2730   23.4938 C   0  0  0  0  0  0  0  0  0  0  0  0
  -22.6080   -8.5841   20.4518 C   0  0  0  0  0  0  0  0  0  0  0  0
  -23.3101   -8.8442   22.7489 C   0  0  0  0  0  0  0  0  0  0  0  0
  -35.5990  -22.3803   24.5646 C   0  0  0  0  0  0  0  0  0  0  0  0
  -20.1385   -7.8513   23.3620 C   0  0  0  0  0  0  0  0  0  0  0  0
  -19.3590   -7.8518   24.5186 C   0  0  0  0  0  0  0  0  0  0  0  0
  -33.2067  -22.1315   24.3797 C   0  0  0  0  0  0  0  0  0  0  0  0
  -32.5357  -15.1317   23.1051 C   0  0  0  0  0  0  0  0  0  0  0  0
  -20.7262   -6.0861   25.4407 C   0  0  0  0  0  0  0  0  0  0  0  0
  -23.9487  -10.4876   21.0971 C   0  0  0  0  0  0  0  0  0  0  0  0
  -24.1002  -13.0124   20.7659 C   0  0  0  0  0  0  0  0  0  0  0  0
  -35.4677  -30.1594   23.1814 C   0  0  0  0  0  0  0  0  0  0  0  0
  -34.3789  -23.6106   22.8638 C   0  0  0  0  0  0  0  0  0  0  0  0
  -34.9595  -28.9657   23.7284 C   0  0  0  0  0  0  0  0  0  0  0  0
  -33.1808  -23.0267   23.2995 C   0  0  0  0  0  0  0  0  0  0  0  0
  -33.2975  -15.5456   24.1977 C   0  0  0  0  0  0  0  0  0  0  0  0
  -31.2845  -16.2437   25.3368 C   0  0  0  0  0  0  0  0  0  0  0  0
  -32.6719  -16.1016   25.3136 C   0  0  0  0  0  0  0  0  0  0  0  0
  -30.5227  -15.8298   24.2441 C   0  0  0  0  0  0  0  0  0  0  0  0
  -31.1483  -15.2738   23.1282 C   0  0  0  0  0  0  0  0  0  0  0  0
  -22.6291   -8.1230   21.7681 C   0  0  0  0  0  0  0  0  0  0  0  0
  -34.4092  -21.8116   25.0096 C   0  0  0  0  0  0  0  0  0  0  0  0
  -21.2118   -6.9682   23.2446 C   0  0  0  0  0  0  0  0  0  0  0  0
  -19.6529   -6.9692   25.5580 C   0  0  0  0  0  0  0  0  0  0  0  0
  -21.5057   -6.0856   24.2839 C   0  0  0  0  0  0  0  0  0  0  0  0
  -24.6309  -11.7086   20.7511 C   0  0  0  0  0  0  0  0  0  0  0  0
  -25.1405  -13.8113   20.3584 C   0  0  0  0  0  0  0  0  0  0  0  0
  -34.4576  -18.4509   27.6779 C   0  0  0  0  0  0  0  0  0  0  0  0
  -34.0443  -18.2847   28.9399 C   0  0  0  0  0  0  0  0  0  0  0  0
  -22.7845  -13.4614   21.1167 C   0  0  0  0  0  0  0  0  0  0  0  0
  -32.7361  -26.3015   22.4589 C   0  0  0  0  0  0  0  0  0  0  0  0
  -30.8653  -24.4200   20.5929 C   0  0  0  0  0  0  0  0  0  0  0  0
  -29.5135  -21.0780   20.7402 C   0  0  0  0  0  0  0  0  0  0  0  0
  -30.8783  -14.2752   20.8313 C   0  0  0  0  0  0  0  0  0  0  0  0
  -34.6352  -31.0364   22.2799 C   0  0  0  0  0  0  0  0  0  0  0  0
  -34.3846  -24.5546   21.6928 C   0  0  0  0  0  0  0  0  0  0  0  0
  -31.8615  -23.3406   22.6442 C   0  0  0  0  0  0  0  0  0  0  0  0
  -35.6588  -19.2368   27.2540 C   0  0  0  0  0  0  0  0  0  0  0  0
  -33.4243  -30.3225   21.6847 C   0  0  0  0  0  0  0  0  0  0  0  0
  -29.3436  -13.0544   17.8594 C   0  0  0  0  0  0  0  0  0  0  0  0
  -32.6824  -29.5398   22.7635 C   0  0  0  0  0  0  0  0  0  0  0  0
  -27.9196  -12.7100   18.3019 C   0  0  0  0  0  0  0  0  0  0  0  0
  -30.3680  -12.7371   18.9474 C   0  0  0  0  0  0  0  0  0  0  0  0
  -28.6578  -12.9834   20.7034 C   0  0  0  0  0  0  0  0  0  0  0  0
  -34.3103  -18.6437   25.3485 C   0  0  0  0  0  0  0  0  0  0  0  0
  -33.5794  -28.4561   23.3740 C   0  0  1  0  0  0  0  0  0  0  0  0
  -33.0332  -25.2220   21.4568 C   0  0  1  0  0  0  0  0  0  0  0  0
  -27.5837  -13.3461   19.6650 C   0  0  2  0  0  0  0  0  0  0  0  0
  -35.1917  -19.7542   25.9024 C   0  0  1  0  0  0  0  0  0  1  0  0
  -34.7818  -15.3858   24.1462 C   0  0  0  0  0  0  0  0  0  0  0  0
  -30.6141  -16.8404   26.5341 C   0  0  0  0  0  0  0  0  0  0  0  0
  -29.0341  -15.9849   24.2707 C   0  0  0  0  0  0  0  0  0  0  0  0
  -28.8452  -19.5059   18.9019 C   0  0  0  0  0  0  0  0  0  0  0  0
  -28.0779  -25.5936   20.9965 C   0  0  0  0  0  0  0  0  0  0  0  0
  -27.1357  -23.3047   20.6208 C   0  0  0  0  0  0  0  0  0  0  0  0
  -28.4159  -24.4381   18.8045 C   0  0  0  0  0  0  0  0  0  0  0  0
  -31.2844  -18.9404   21.7666 C   0  0  0  0  0  0  0  0  0  0  0  0
  -33.4945  -16.5469   26.4866 C   0  0  0  0  0  0  0  0  0  0  0  0
  -29.6511  -23.5536   20.8253 C   0  0  1  0  0  0  0  0  0  0  0  0
  -29.9327  -19.8900   19.8932 C   0  0  2  0  0  0  0  0  0  0  0  0
  -28.3393  -24.2271   20.3323 C   0  0  0  0  0  0  0  0  0  0  0  0
  -25.9090  -11.6765   20.3646 N   0  0  0  0  0  0  0  0  0  0  0  0
  -26.1901  -12.9701   20.1327 N   0  0  0  0  0  0  0  0  0  0  0  0
  -31.9182  -24.2741   21.5072 N   0  0  0  0  0  0  0  0  0  0  0  0
  -29.9865  -13.3763   20.2087 N   0  0  0  0  0  0  0  0  0  0  0  0
  -25.2507  -15.1441   20.1745 N   0  0  0  0  0  0  0  0  0  0  0  0
  -21.8369  -12.5080   21.5135 N   0  0  0  0  0  0  0  0  0  0  0  0
  -30.3938  -14.8458   22.0078 N   0  0  0  0  0  0  0  0  0  0  0  0
  -33.6724  -27.3174   22.4856 N   0  0  0  0  0  0  0  0  0  0  0  0
  -29.9381  -22.2704   20.1932 N   0  0  0  0  0  0  0  0  0  0  0  0
  -33.6334  -18.0370   26.5749 N   0  3  1  0  0  0  0  0  0  0  0  0
  -30.2170  -18.7110   20.7592 N   0  3  0  0  0  0  0  0  0  0  0  0
  -22.4540  -14.6703   21.0637 O   0  0  0  0  0  0  0  0  0  0  0  0
  -31.7311  -26.2195   23.1552 O   0  0  0  0  0  0  0  0  0  0  0  0
  -30.8819  -25.1923   19.6312 O   0  0  0  0  0  0  0  0  0  0  0  0
  -28.8704  -20.9603   21.7808 O   0  0  0  0  0  0  0  0  0  0  0  0
  -31.9788  -14.5413   20.3414 O   0  0  0  0  0  0  0  0  0  0  0  0
  -21.9853   -6.9695   22.0959 O   0  0  0  0  0  0  0  0  0  0  0  0
  -34.4195  -20.9405   26.0551 O   0  0  0  0  0  0  0  0  0  1  0  0
  -18.9052   -6.9708   26.6694 F   0  0  0  0  0  0  0  0  0  0  0  0
  -22.5363   -5.2358   24.1774 F   0  0  0  0  0  0  0  0  0  0  0  0
  1  2  1  0  0  0  0
  1  5  2  0  0  0  0
  2  6  2  0  0  0  0
  3  8  2  0  0  0  0
  3 16  1  0  0  0  0
  4  9  1  0  0  0  0
  4 16  2  0  0  0  0
  5 18  1  0  0  0  0
  6 20  1  0  0  0  0
  7 10  2  0  0  0  0
  7 19  1  0  0  0  0
  8 27  1  0  0  0  0
  9 27  2  0  0  0  0
 10 28  1  0  0  0  0
 11 12  2  0  0  0  0
 11 29  1  0  0  0  0
 12 30  1  0  0  0  0
 13 21  1  0  0  0  0
 13 28  2  0  0  0  0
 14 22  2  0  0  0  0
 14 26  1  0  0  0  0
 15 30  2  0  0  0  0
 15 31  1  0  0  0  0
 16 32  1  0  0  0  0
 17 32  1  0  0  0  0
 17 33  2  0  0  0  0
 17 36  1  0  0  0  0
 18 20  2  0  0  0  0
 18 41  1  0  0  0  0
 19 21  2  0  0  0  0
 19 42  1  0  0  0  0
 20 52  1  0  0  0  0
 21 43  1  0  0  0  0
 22 24  1  0  0  0  0
 22 56  1  0  0  0  0
 23 24  2  0  0  0  0
 23 25  1  0  0  0  0
 23 57  1  0  0  0  0
 24 64  1  0  0  0  0
 25 26  2  0  0  0  0
 25 58  1  0  0  0  0
 26 74  1  0  0  0  0
 27 84  1  0  0  0  0
 28 85  1  0  0  0  0
 29 31  2  0  0  0  0
 29 84  1  0  0  0  0
 30 86  1  0  0  0  0
 31 87  1  0  0  0  0
 32 68  2  0  0  0  0
 33 69  1  0  0  0  0
 33 72  1  0  0  0  0
 34 35  2  0  0  0  0
 34 44  1  0  0  0  0
 34 77  1  0  0  0  0
 36 73  1  0  0  0  0
 36 79  2  0  0  0  0
 37 53  1  0  0  0  0
 37 75  1  0  0  0  0
 37 80  2  0  0  0  0
 38 65  1  0  0  0  0
 38 70  1  0  0  0  0
 38 81  2  0  0  0  0
 39 66  1  0  0  0  0
 39 76  1  0  0  0  0
 39 82  2  0  0  0  0
 40 71  1  0  0  0  0
 40 74  1  0  0  0  0
 40 83  2  0  0  0  0
 41 45  1  0  0  0  0
 42 53  1  0  0  0  0
 43 70  1  0  0  0  0
 44 55  1  0  0  0  0
 45 47  1  0  0  0  0
 46 48  1  0  0  0  0
 46 49  1  0  0  0  0
 47 52  1  0  0  0  0
 48 54  1  0  0  0  0
 49 71  1  0  0  0  0
 50 54  1  0  0  0  0
 50 71  1  0  0  0  0
 51 55  1  0  0  0  0
 51 77  1  0  0  0  0
 52 75  1  0  0  0  0
 53 70  1  0  0  0  0
 54 69  1  0  0  0  0
 55 85  1  0  0  0  0
 59 66  1  0  0  0  0
 60 67  1  0  0  0  0
 61 67  1  0  0  0  0
 62 67  1  0  0  0  0
 63 78  1  0  0  0  0
 64 77  1  0  0  0  0
 65 67  1  0  0  0  0
 65 76  1  0  0  0  0
 66 78  1  0  0  0  0
 68 69  1  0  0  0  0
M  CHG  2  77   1  78   1
M  ISO  4  40 100  55 101  74 100  85 101
M  END
> <Batch ID>
0033

> <Smiles>
C=C1C[101CH:1]([101O:1]c2ccc3c(c2)CN(C(=O)C(NC(=O)C(C)NC)C(C)(C)C)C(C(=O)NC2CCCc4ccccc42)C3)CN1Cc1c(C)cc([100NH:0][100C:0](=O)N2CCCC(n3nc(-c4ccc(Oc5ccc(F)cc5F)cc4)c(C(N)=O)c3N)C2)c(C)c1C

> <Shape>
0.216

> <Color>
0.199

> <Negative vol penalty>
0.000

$$$$

  -OEChem-04042321453D

 86 95  0     1  0  0  0  0  0999 V2000
  -26.5280  -34.7711   25.9084 C   0  0  0  0  0  0  0  0  0  0  0  0
  -27.0318  -33.5284   25.5380 C   0  0  0  0  0  0  0  0  0  0  0  0
  -23.1307   -9.7721   20.1472 C   0  0  0  0  0  0  0  0  0  0  0  0
  -23.7758  -10.0820   22.4548 C   0  0  0  0  0  0  0  0  0  0  0  0
  -25.1500  -34.9781   25.9535 C   0  0  0  0  0  0  0  0  0  0  0  0
  -26.1577  -32.4915   25.2134 C   0  0  0  0  0  0  0  0  0  0  0  0
  -27.0238  -28.1277   21.0048 C   0  0  0  0  0  0  0  0  0  0  0  0
  -22.3858   -8.6489   20.5063 C   0  0  0  0  0  0  0  0  0  0  0  0
  -23.0309   -8.9587   22.8139 C   0  0  0  0  0  0  0  0  0  0  0  0
  -27.4596  -26.8067   21.0992 C   0  0  0  0  0  0  0  0  0  0  0  0
  -19.7841   -8.1947   23.3575 C   0  0  0  0  0  0  0  0  0  0  0  0
  -18.9704   -8.2923   24.4862 C   0  0  0  0  0  0  0  0  0  0  0  0
  -25.1664  -26.0593   21.1387 C   0  0  0  0  0  0  0  0  0  0  0  0
  -29.6879  -19.0897   20.4661 C   0  0  0  0  0  0  0  0  0  0  0  0
  -27.9446  -19.5123   22.6027 C   0  0  0  0  0  0  0  0  0  0  0  0
  -20.1913   -6.4833   25.5227 C   0  0  0  0  0  0  0  0  0  0  0  0
  -23.8258  -10.4887   21.1214 C   0  0  0  0  0  0  0  0  0  0  0  0
  -24.1503  -12.9831   20.6967 C   0  0  0  0  0  0  0  0  0  0  0  0
  -24.2586  -33.9462   25.6199 C   0  0  0  0  0  0  0  0  0  0  0  0
  -25.6536  -28.4256   20.9875 C   0  0  0  0  0  0  0  0  0  0  0  0
  -24.7664  -32.6846   25.2553 C   0  0  0  0  0  0  0  0  0  0  0  0
  -24.7157  -27.3846   21.0414 C   0  0  0  0  0  0  0  0  0  0  0  0
  -28.7875  -20.1544   20.4314 C   0  0  0  0  0  0  0  0  0  0  0  0
  -29.7167  -18.2362   21.5691 C   0  0  0  0  0  0  0  0  0  0  0  0
  -27.9159  -20.3657   21.4997 C   0  0  0  0  0  0  0  0  0  0  0  0
  -22.3358   -8.2422   21.8396 C   0  0  0  0  0  0  0  0  0  0  0  0
  -26.5309  -25.7725   21.1691 C   0  0  0  0  0  0  0  0  0  0  0  0
  -20.8014   -7.2413   23.3113 C   0  0  0  0  0  0  0  0  0  0  0  0
  -19.1740   -7.4366   25.5688 C   0  0  0  0  0  0  0  0  0  0  0  0
  -21.0049   -6.3857   24.3939 C   0  0  0  0  0  0  0  0  0  0  0  0
  -28.8450  -18.4476   22.6374 C   0  0  0  0  0  0  0  0  0  0  0  0
  -24.5959  -11.6488   20.7511 C   0  0  0  0  0  0  0  0  0  0  0  0
  -25.2523  -13.6970   20.2936 C   0  0  0  0  0  0  0  0  0  0  0  0
  -25.9687  -21.6645   20.5353 C   0  0  0  0  0  0  0  0  0  0  0  0
  -22.8560  -13.5285   20.9848 C   0  0  0  0  0  0  0  0  0  0  0  0
  -23.6933  -30.0769   22.8675 C   0  0  0  0  0  0  0  0  0  0  0  0
  -21.5473  -29.4610   20.5143 C   0  0  0  0  0  0  0  0  0  0  0  0
  -20.5933  -27.4705   17.9115 C   0  0  0  0  0  0  0  0  0  0  0  0
  -30.7105  -14.8154   20.6136 C   0  0  0  0  0  0  0  0  0  0  0  0
  -22.7766  -34.2035   25.7291 C   0  0  0  0  0  0  0  0  0  0  0  0
  -25.1998  -29.8538   20.8584 C   0  0  0  0  0  0  0  0  0  0  0  0
  -23.2336  -27.6500   21.0061 C   0  0  0  0  0  0  0  0  0  0  0  0
  -25.1791  -22.8748   20.9829 C   0  0  0  0  0  0  0  0  0  0  0  0
  -21.9230  -33.1633   25.0081 C   0  0  0  0  0  0  0  0  0  0  0  0
  -29.7143  -12.1299   18.4988 C   0  0  0  0  0  0  0  0  0  0  0  0
  -22.4055  -31.7546   25.3392 C   0  0  0  0  0  0  0  0  0  0  0  0
  -28.2598  -11.8716   18.8961 C   0  0  0  0  0  0  0  0  0  0  0  0
  -30.5687  -12.5155   19.7044 C   0  0  0  0  0  0  0  0  0  0  0  0
  -28.5940  -13.3876   20.8933 C   0  0  0  0  0  0  0  0  0  0  0  0
  -26.9502  -22.4501   22.5350 C   0  0  0  0  0  0  0  0  0  0  0  0
  -23.8506  -31.5423   24.8722 C   0  0  1  0  0  0  0  0  0  0  0  0
  -23.7792  -30.0777   21.3674 C   0  0  1  0  0  0  0  0  0  0  0  0
  -27.6810  -13.0500   19.7022 C   0  0  2  0  0  0  0  0  0  0  0  0
  -26.1089  -23.5722   21.9590 C   0  0  1  0  0  0  0  0  0  1  0  0
  -28.7772  -21.0514   19.2362 C   0  0  0  0  0  0  0  0  0  0  0  0
  -18.7743  -27.1969   16.2046 C   0  0  0  0  0  0  0  0  0  0  0  0
  -19.7034  -28.3267   22.6645 C   0  0  0  0  0  0  0  0  0  0  0  0
  -18.3712  -27.2348   20.8476 C   0  0  0  0  0  0  0  0  0  0  0  0
  -18.5550  -29.7211   20.9349 C   0  0  0  0  0  0  0  0  0  0  0  0
  -22.4894  -27.8166   15.6657 C   0  0  0  0  0  0  0  0  0  0  0  0
  -30.6955  -17.1064   21.5676 C   0  0  0  0  0  0  0  0  0  0  0  0
  -20.5613  -28.3539   20.2295 C   0  0  1  0  0  0  0  0  0  0  0  0
  -20.1362  -27.8043   16.5030 C   0  0  2  0  0  0  0  0  0  0  0  0
  -19.3256  -28.4039   21.1718 C   0  0  0  0  0  0  0  0  0  0  0  0
  -25.8807  -11.5200   20.4097 N   0  0  0  0  0  0  0  0  0  0  0  0
  -26.2519  -12.7825   20.1368 N   0  0  0  0  0  0  0  0  0  0  0  0
  -26.9865  -21.4492   21.4825 N   0  0  0  0  0  0  0  0  0  0  0  0
  -22.8396  -29.0634   20.8854 N   0  0  0  0  0  0  0  0  0  0  0  0
  -29.9656  -13.6397   20.4243 N   0  0  0  0  0  0  0  0  0  0  0  0
  -25.4540  -15.0114   20.0614 N   0  0  0  0  0  0  0  0  0  0  0  0
  -21.8368  -12.6541   21.3863 N   0  0  0  0  0  0  0  0  0  0  0  0
  -23.8921  -31.3173   23.4431 N   0  0  0  0  0  0  0  0  0  0  0  0
  -20.2354  -28.4525   18.8109 N   0  0  0  0  0  0  0  0  0  0  0  0
  -30.0619  -15.8344   21.3004 N   0  0  0  0  0  0  0  0  0  0  0  0
  -21.1122  -27.2834   15.5045 N   0  3  0  0  0  0  0  0  0  0  0  0
  -25.6651  -21.0150   19.5449 O   0  0  0  0  0  0  0  0  0  0  0  0
  -22.6060  -14.7526   20.8732 O   0  0  0  0  0  0  0  0  0  0  0  0
  -23.4623  -29.0287   23.4589 O   0  0  0  0  0  0  0  0  0  0  0  0
  -21.1862  -30.6354   20.4044 O   0  0  0  0  0  0  0  0  0  0  0  0
  -21.2033  -26.4397   18.1871 O   0  0  0  0  0  0  0  0  0  0  0  0
  -31.8659  -14.9492   20.1964 O   0  0  0  0  0  0  0  0  0  0  0  0
  -21.6089   -7.1463   22.1904 O   0  0  0  0  0  0  0  0  0  0  0  0
  -26.9536  -24.4823   21.2620 O   0  0  0  0  0  0  0  0  0  1  0  0
  -18.3935   -7.5314   26.6532 F   0  0  0  0  0  0  0  0  0  0  0  0
  -21.9814   -5.4686   24.3559 F   0  0  0  0  0  0  0  0  0  0  0  0
  -28.8517  -17.4122   24.0185 Cl  0  0  0  0  0  0  0  0  0  0  0  0
  1  2  1  0  0  0  0
  1  5  2  0  0  0  0
  2  6  2  0  0  0  0
  3  8  2  0  0  0  0
  3 17  1  0  0  0  0
  4  9  1  0  0  0  0
  4 17  2  0  0  0  0
  5 19  1  0  0  0  0
  6 21  1  0  0  0  0
  7 10  2  0  0  0  0
  7 20  1  0  0  0  0
  8 26  1  0  0  0  0
  9 26  2  0  0  0  0
 10 27  1  0  0  0  0
 11 12  2  0  0  0  0
 11 28  1  0  0  0  0
 12 29  1  0  0  0  0
 13 22  1  0  0  0  0
 13 27  2  0  0  0  0
 14 23  1  0  0  0  0
 14 24  2  0  0  0  0
 15 25  1  0  0  0  0
 15 31  2  0  0  0  0
 16 29  2  0  0  0  0
 16 30  1  0  0  0  0
 17 32  1  0  0  0  0
 18 32  1  0  0  0  0
 18 33  2  0  0  0  0
 18 35  1  0  0  0  0
 19 21  2  0  0  0  0
 19 40  1  0  0  0  0
 20 22  2  0  0  0  0
 20 41  1  0  0  0  0
 21 51  1  0  0  0  0
 22 42  1  0  0  0  0
 23 25  2  0  0  0  0
 23 55  1  0  0  0  0
 24 31  1  0  0  0  0
 24 61  1  0  0  0  0
 25 67  1  0  0  0  0
 26 82  1  0  0  0  0
 27 83  1  0  0  0  0
 28 30  2  0  0  0  0
 28 82  1  0  0  0  0
 29 84  1  0  0  0  0
 30 85  1  0  0  0  0
 31 86  1  0  0  0  0
 32 65  2  0  0  0  0
 33 66  1  0  0  0  0
 33 70  1  0  0  0  0
 34 43  1  0  0  0  0
 34 67  1  0  0  0  0
 34 76  2  0  0  0  0
 35 71  1  0  0  0  0
 35 77  2  0  0  0  0
 36 52  1  0  0  0  0
 36 72  1  0  0  0  0
 36 78  2  0  0  0  0
 37 62  1  0  0  0  0
 37 68  1  0  0  0  0
 37 79  2  0  0  0  0
 38 63  1  0  0  0  0
 38 73  1  0  0  0  0
 38 80  2  0  0  0  0
 39 69  1  0  0  0  0
 39 74  1  0  0  0  0
 39 81  2  0  0  0  0
 40 44  1  0  0  0  0
 41 52  1  0  0  0  0
 42 68  1  0  0  0  0
 43 54  1  0  0  0  0
 44 46  1  0  0  0  0
 45 47  1  0  0  0  0
 45 48  1  0  0  0  0
 46 51  1  0  0  0  0
 47 53  1  0  0  0  0
 48 69  1  0  0  0  0
 49 53  1  0  0  0  0
 49 69  1  0  0  0  0
 50 54  1  0  0  0  0
 50 67  1  0  0  0  0
 51 72  1  0  0  0  0
 52 68  1  0  0  0  0
 53 66  1  0  0  0  0
 54 83  1  0  0  0  0
 56 63  1  0  0  0  0
 57 64  1  0  0  0  0
 58 64  1  0  0  0  0
 59 64  1  0  0  0  0
 60 75  1  0  0  0  0
 61 74  1  0  0  0  0
 62 64  1  0  0  0  0
 62 73  1  0  0  0  0
 63 75  1  0  0  0  0
 65 66  1  0  0  0  0
M  CHG  1  75   1
M  ISO  4  39 100  54 101  74 100  83 101
M  END
> <Batch ID>
0033

> <Smiles>
CNC(C)C(=O)NC(C(=O)N1Cc2cc([101O:1][101CH:1]3CC(=O)N(c4cc(Cl)c(C[100NH:0][100C:0](=O)N5CCCC(n6nc(-c7ccc(Oc8ccc(F)cc8F)cc7)c(C(N)=O)c6N)C5)cc4C)C3)ccc2CC1C(=O)NC1CCCc2ccccc21)C(C)(C)C

> <Shape>
0.319

> <Color>
0.207

> <Negative vol penalty>
0.000

$$$$

  -OEChem-04042321453D

 87 96  0     1  0  0  0  0  0999 V2000
  -28.9888  -29.3333   18.1136 C   0  0  0  0  0  0  0  0  0  0  0  0
  -28.6433  -28.5632   19.2195 C   0  0  0  0  0  0  0  0  0  0  0  0
  -23.6028   -9.7854   21.1149 C   0  0  0  0  0  0  0  0  0  0  0  0
  -24.2346  -10.6111   23.2958 C   0  0  0  0  0  0  0  0  0  0  0  0
  -29.2493  -28.7170   16.8904 C   0  0  0  0  0  0  0  0  0  0  0  0
  -28.5570  -27.1764   19.1025 C   0  0  0  0  0  0  0  0  0  0  0  0
  -29.9951  -23.0253   23.3694 C   0  0  0  0  0  0  0  0  0  0  0  0
  -23.0202   -8.6653   21.7078 C   0  0  0  0  0  0  0  0  0  0  0  0
  -23.6520   -9.4910   23.8887 C   0  0  0  0  0  0  0  0  0  0  0  0
  -29.2193  -22.3062   24.2776 C   0  0  0  0  0  0  0  0  0  0  0  0
  -21.6824   -5.4104   22.6242 C   0  0  0  0  0  0  0  0  0  0  0  0
  -21.9411   -4.1643   22.0535 C   0  0  0  0  0  0  0  0  0  0  0  0
  -29.1622  -20.4441   22.7452 C   0  0  0  0  0  0  0  0  0  0  0  0
  -32.0290  -14.3613   25.4589 C   0  0  0  0  0  0  0  0  0  0  0  0
  -24.3045   -4.4745   22.4474 C   0  0  0  0  0  0  0  0  0  0  0  0
  -24.2101  -10.7583   21.9089 C   0  0  0  0  0  0  0  0  0  0  0  0
  -24.1918  -13.1460   21.0111 C   0  0  0  0  0  0  0  0  0  0  0  0
  -29.1755  -27.3212   16.7607 C   0  0  0  0  0  0  0  0  0  0  0  0
  -30.3518  -22.4623   22.1356 C   0  0  0  0  0  0  0  0  0  0  0  0
  -28.8154  -26.5410   17.8761 C   0  0  0  0  0  0  0  0  0  0  0  0
  -29.9448  -21.1571   21.8242 C   0  0  0  0  0  0  0  0  0  0  0  0
  -31.5630  -14.5878   26.7539 C   0  0  0  0  0  0  0  0  0  0  0  0
  -31.3746  -14.9394   24.3711 C   0  0  0  0  0  0  0  0  0  0  0  0
  -30.4426  -15.3924   26.9612 C   0  0  0  0  0  0  0  0  0  0  0  0
  -30.2542  -15.7440   24.5784 C   0  0  0  0  0  0  0  0  0  0  0  0
  -29.7882  -15.9705   25.8734 C   0  0  0  0  0  0  0  0  0  0  0  0
  -23.0448   -8.5181   23.0947 C   0  0  0  0  0  0  0  0  0  0  0  0
  -28.8003  -21.0165   23.9643 C   0  0  0  0  0  0  0  0  0  0  0  0
  -22.7347   -6.1887   23.1065 C   0  0  0  0  0  0  0  0  0  0  0  0
  -23.2522   -3.6963   21.9651 C   0  0  0  0  0  0  0  0  0  0  0  0
  -24.0458   -5.7207   23.0181 C   0  0  0  0  0  0  0  0  0  0  0  0
  -24.8126  -11.9153   21.2970 C   0  0  0  0  0  0  0  0  0  0  0  0
  -25.1823  -13.9052   20.4376 C   0  0  0  0  0  0  0  0  0  0  0  0
  -27.7876  -18.9997   26.9514 C   0  0  0  0  0  0  0  0  0  0  0  0
  -26.5584  -19.0248   27.4744 C   0  0  0  0  0  0  0  0  0  0  0  0
  -22.8405  -13.5655   21.2432 C   0  0  0  0  0  0  0  0  0  0  0  0
  -29.7962  -23.1926   19.0923 C   0  0  0  0  0  0  0  0  0  0  0  0
  -31.8540  -20.7477   18.5355 C   0  0  0  0  0  0  0  0  0  0  0  0
  -33.2984  -17.8648   19.6534 C   0  0  0  0  0  0  0  0  0  0  0  0
  -31.1568  -13.7670   20.8087 C   0  0  0  0  0  0  0  0  0  0  0  0
  -29.4196  -26.7040   15.4064 C   0  0  0  0  0  0  0  0  0  0  0  0
  -31.2115  -23.2410   21.1781 C   0  0  0  0  0  0  0  0  0  0  0  0
  -30.3179  -20.4997   20.5215 C   0  0  0  0  0  0  0  0  0  0  0  0
  -29.6722  -25.1994   15.4593 C   0  0  0  0  0  0  0  0  0  0  0  0
  -29.1886  -13.5003   17.8537 C   0  0  0  0  0  0  0  0  0  0  0  0
  -28.6427  -24.5164   16.3539 C   0  0  0  0  0  0  0  0  0  0  0  0
  -27.7879  -13.1749   18.3753 C   0  0  0  0  0  0  0  0  0  0  0  0
  -30.2734  -12.8289   18.6930 C   0  0  0  0  0  0  0  0  0  0  0  0
  -28.7924  -12.7746   20.6621 C   0  0  0  0  0  0  0  0  0  0  0  0
  -29.7199  -18.9914   26.2271 C   0  0  0  0  0  0  0  0  0  0  0  0
  -28.7356  -25.0319   17.7951 C   0  0  1  0  0  0  0  0  0  0  0  0
  -28.5726  -20.0285   26.1646 C   0  0  1  0  0  0  0  0  0  1  0  0
  -31.0841  -22.7618   19.7354 C   0  0  1  0  0  0  0  0  0  0  0  0
  -27.6668  -13.4746   19.8816 C   0  0  2  0  0  0  0  0  0  0  0  0
  -32.2816  -13.9564   27.9012 C   0  0  0  0  0  0  0  0  0  0  0  0
  -29.9450  -15.6338   28.3512 C   0  0  0  0  0  0  0  0  0  0  0  0
  -29.5539  -16.3621   23.4098 C   0  0  0  0  0  0  0  0  0  0  0  0
  -34.9119  -16.0723   18.9600 C   0  0  0  0  0  0  0  0  0  0  0  0
  -29.7178  -19.5258   16.7317 C   0  0  0  0  0  0  0  0  0  0  0  0
  -30.9651  -17.3577   16.8405 C   0  0  0  0  0  0  0  0  0  0  0  0
  -32.0494  -19.3696   15.8408 C   0  0  0  0  0  0  0  0  0  0  0  0
  -35.1337  -18.4902   21.8893 C   0  0  0  0  0  0  0  0  0  0  0  0
  -31.8945  -14.6818   22.9946 C   0  0  0  0  0  0  0  0  0  0  0  0
  -28.5834  -16.8364   26.0965 C   0  0  0  0  0  0  0  0  0  0  0  0
  -31.7160  -19.2565   18.3444 C   0  0  1  0  0  0  0  0  0  0  0  0
  -34.7449  -17.4049   19.6735 C   0  0  2  0  0  0  0  0  0  0  0  0
  -31.1032  -18.8903   16.9632 C   0  0  0  0  0  0  0  0  0  0  0  0
  -26.0979  -11.8898   20.9349 N   0  0  0  0  0  0  0  0  0  0  0  0
  -26.2929  -13.1138   20.4154 N   0  0  0  0  0  0  0  0  0  0  0  0
  -31.1545  -21.3041   19.6157 N   0  0  0  0  0  0  0  0  0  0  0  0
  -30.1026  -13.1546   20.1110 N   0  0  0  0  0  0  0  0  0  0  0  0
  -25.2030  -15.1658   19.9551 N   0  0  0  0  0  0  0  0  0  0  0  0
  -21.9535  -12.6605   21.8421 N   0  0  0  0  0  0  0  0  0  0  0  0
  -29.8605  -24.4279   18.4764 N   0  0  0  0  0  0  0  0  0  0  0  0
  -33.0398  -18.6905   18.5799 N   0  0  0  0  0  0  0  0  0  0  0  0
  -30.9096  -14.0474   22.1470 N   0  0  0  0  0  0  0  0  0  0  0  0
  -28.8684  -18.0229   26.9406 N   0  3  2  0  0  0  0  0  0  0  0  0
  -35.2194  -17.2489   21.0776 N   0  3  0  0  0  0  0  0  0  0  0  0
  -22.4275  -14.7033   20.9140 O   0  0  0  0  0  0  0  0  0  0  0  0
  -28.8171  -22.4579   19.1494 O   0  0  0  0  0  0  0  0  0  0  0  0
  -32.5624  -21.3938   17.7593 O   0  0  0  0  0  0  0  0  0  0  0  0
  -32.4787  -17.5225   20.5029 O   0  0  0  0  0  0  0  0  0  0  0  0
  -32.2362  -14.0482   20.2769 O   0  0  0  0  0  0  0  0  0  0  0  0
  -22.4762   -7.4253   23.6735 O   0  0  0  0  0  0  0  0  0  0  0  0
  -28.0424  -20.3127   24.8487 O   0  0  0  0  0  0  0  0  0  1  0  0
  -23.5004   -2.4989   21.4184 F   0  0  0  0  0  0  0  0  0  0  0  0
  -25.0608   -6.4634   23.4808 F   0  0  0  0  0  0  0  0  0  0  0  0
  1  2  1  0  0  0  0
  1  5  2  0  0  0  0
  2  6  2  0  0  0  0
  3  8  2  0  0  0  0
  3 16  1  0  0  0  0
  4  9  1  0  0  0  0
  4 16  2  0  0  0  0
  5 18  1  0  0  0  0
  6 20  1  0  0  0  0
  7 10  2  0  0  0  0
  7 19  1  0  0  0  0
  8 27  1  0  0  0  0
  9 27  2  0  0  0  0
 10 28  1  0  0  0  0
 11 12  2  0  0  0  0
 11 29  1  0  0  0  0
 12 30  1  0  0  0  0
 13 21  1  0  0  0  0
 13 28  2  0  0  0  0
 14 22  1  0  0  0  0
 14 23  2  0  0  0  0
 15 30  2  0  0  0  0
 15 31  1  0  0  0  0
 16 32  1  0  0  0  0
 17 32  1  0  0  0  0
 17 33  2  0  0  0  0
 17 36  1  0  0  0  0
 18 20  2  0  0  0  0
 18 41  1  0  0  0  0
 19 21  2  0  0  0  0
 19 42  1  0  0  0  0
 20 51  1  0  0  0  0
 21 43  1  0  0  0  0
 22 24  2  0  0  0  0
 22 55  1  0  0  0  0
 23 25  1  0  0  0  0
 23 63  1  0  0  0  0
 24 26  1  0  0  0  0
 24 56  1  0  0  0  0
 25 26  2  0  0  0  0
 25 57  1  0  0  0  0
 26 64  1  0  0  0  0
 27 84  1  0  0  0  0
 28 85  1  0  0  0  0
 29 31  2  0  0  0  0
 29 84  1  0  0  0  0
 30 86  1  0  0  0  0
 31 87  1  0  0  0  0
 32 68  2  0  0  0  0
 33 69  1  0  0  0  0
 33 72  1  0  0  0  0
 34 35  2  0  0  0  0
 34 52  1  0  0  0  0
 34 77  1  0  0  0  0
 36 73  1  0  0  0  0
 36 79  2  0  0  0  0
 37 53  1  0  0  0  0
 37 74  1  0  0  0  0
 37 80  2  0  0  0  0
 38 65  1  0  0  0  0
 38 70  1  0  0  0  0
 38 81  2  0  0  0  0
 39 66  1  0  0  0  0
 39 75  1  0  0  0  0
 39 82  2  0  0  0  0
 40 71  1  0  0  0  0
 40 76  1  0  0  0  0
 40 83  2  0  0  0  0
 41 44  1  0  0  0  0
 42 53  1  0  0  0  0
 43 70  1  0  0  0  0
 44 46  1  0  0  0  0
 45 47  1  0  0  0  0
 45 48  1  0  0  0  0
 46 51  1  0  0  0  0
 47 54  1  0  0  0  0
 48 71  1  0  0  0  0
 49 54  1  0  0  0  0
 49 71  1  0  0  0  0
 50 52  1  0  0  0  0
 50 77  1  0  0  0  0
 51 74  1  0  0  0  0
 52 85  1  0  0  0  0
 53 70  1  0  0  0  0
 54 69  1  0  0  0  0
 58 66  1  0  0  0  0
 59 67  1  0  0  0  0
 60 67  1  0  0  0  0
 61 67  1  0  0  0  0
 62 78  1  0  0  0  0
 63 76  1  0  0  0  0
 64 77  1  0  0  0  0
 65 67  1  0  0  0  0
 65 75  1  0  0  0  0
 66 78  1  0  0  0  0
 68 69  1  0  0  0  0
M  CHG  2  77   1  78   1
M  ISO  4  40 100  52 101  76 100  85 101
M  END
> <Batch ID>
0033

> <Smiles>
C=C1N(Cc2c(C)c(C)cc(C[100NH:0][100C:0](=O)N3CCCC(n4nc(-c5ccc(Oc6ccc(F)cc6F)cc5)c(C(N)=O)c4N)C3)c2C)C[101CH:1]1[101O:1]c1ccc2c(c1)CN(C(=O)C(NC(=O)C(C)NC)C(C)(C)C)C(C(=O)NC1CCCc3ccccc31)C2

> <Shape>
0.193

> <Color>
0.148

> <Negative vol penalty>
0.000

$$$$

  -OEChem-04042321453D

 88 97  0     1  0  0  0  0  0999 V2000
  -30.9048  -27.1631   22.4419 C   0  0  0  0  0  0  0  0  0  0  0  0
  -31.5865  -26.0316   22.8782 C   0  0  0  0  0  0  0  0  0  0  0  0
  -23.0774   -9.8602   19.9443 C   0  0  0  0  0  0  0  0  0  0  0  0
  -23.8386   -9.8744   22.2372 C   0  0  0  0  0  0  0  0  0  0  0  0
  -30.0165  -27.0708   21.3713 C   0  0  0  0  0  0  0  0  0  0  0  0
  -31.3794  -24.8067   22.2447 C   0  0  0  0  0  0  0  0  0  0  0  0
  -35.5220  -20.3913   21.3240 C   0  0  0  0  0  0  0  0  0  0  0  0
  -29.4472  -18.5072   23.2482 C   0  0  0  0  0  0  0  0  0  0  0  0
  -28.9881  -18.9937   24.4721 C   0  0  0  0  0  0  0  0  0  0  0  0
  -22.3375   -8.7051   20.1971 C   0  0  0  0  0  0  0  0  0  0  0  0
  -23.0986   -8.7194   22.4900 C   0  0  0  0  0  0  0  0  0  0  0  0
  -35.8000  -19.2085   22.0078 C   0  0  0  0  0  0  0  0  0  0  0  0
  -19.8735   -7.9123   23.0961 C   0  0  0  0  0  0  0  0  0  0  0  0
  -19.1174   -7.8723   24.2675 C   0  0  0  0  0  0  0  0  0  0  0  0
  -34.4219  -17.9897   20.4475 C   0  0  0  0  0  0  0  0  0  0  0  0
  -20.3656   -5.9405   25.0073 C   0  0  0  0  0  0  0  0  0  0  0  0
  -23.8280  -10.4448   20.9643 C   0  0  0  0  0  0  0  0  0  0  0  0
  -24.1615  -12.9708   20.8388 C   0  0  0  0  0  0  0  0  0  0  0  0
  -29.8057  -25.8462   20.7182 C   0  0  0  0  0  0  0  0  0  0  0  0
  -34.6817  -20.3838   20.2014 C   0  0  0  0  0  0  0  0  0  0  0  0
  -30.4864  -24.6977   21.1652 C   0  0  0  0  0  0  0  0  0  0  0  0
  -34.1369  -19.1733   19.7497 C   0  0  0  0  0  0  0  0  0  0  0  0
  -30.3146  -17.4154   23.2127 C   0  0  0  0  0  0  0  0  0  0  0  0
  -29.3965  -18.3886   25.6607 C   0  0  0  0  0  0  0  0  0  0  0  0
  -30.2640  -17.2968   25.6253 C   0  0  0  0  0  0  0  0  0  0  0  0
  -30.7230  -16.8102   24.4013 C   0  0  0  0  0  0  0  0  0  0  0  0
  -22.3481   -8.1347   21.4699 C   0  0  0  0  0  0  0  0  0  0  0  0
  -35.2476  -18.0079   21.5713 C   0  0  0  0  0  0  0  0  0  0  0  0
  -20.8756   -6.9663   22.8802 C   0  0  0  0  0  0  0  0  0  0  0  0
  -19.3634   -6.8864   25.2231 C   0  0  0  0  0  0  0  0  0  0  0  0
  -21.1217   -5.9804   23.8358 C   0  0  0  0  0  0  0  0  0  0  0  0
  -24.5931  -11.6377   20.7036 C   0  0  0  0  0  0  0  0  0  0  0  0
  -25.2510  -13.7231   20.4733 C   0  0  0  0  0  0  0  0  0  0  0  0
  -33.9290  -14.8446   24.6740 C   0  0  0  0  0  0  0  0  0  0  0  0
  -33.8916  -13.8869   25.6072 C   0  0  0  0  0  0  0  0  0  0  0  0
  -22.8896  -13.4834   21.2574 C   0  0  0  0  0  0  0  0  0  0  0  0
  -31.8929  -21.7265   19.4779 C   0  0  0  0  0  0  0  0  0  0  0  0
  -32.4873  -20.4642   16.5495 C   0  0  0  0  0  0  0  0  0  0  0  0
  -34.0955  -18.1007   14.6855 C   0  0  0  0  0  0  0  0  0  0  0  0
  -30.7315  -14.7606   20.6563 C   0  0  0  0  0  0  0  0  0  0  0  0
  -28.8000  -25.7858   19.5958 C   0  0  0  0  0  0  0  0  0  0  0  0
  -34.4132  -21.6640   19.4589 C   0  0  0  0  0  0  0  0  0  0  0  0
  -33.2449  -19.1084   18.5378 C   0  0  0  0  0  0  0  0  0  0  0  0
  -34.8926  -14.9132   23.5318 C   0  0  0  0  0  0  0  0  0  0  0  0
  -28.9190  -24.5284   18.7384 C   0  0  0  0  0  0  0  0  0  0  0  0
  -29.6003  -12.3674   18.2752 C   0  0  0  0  0  0  0  0  0  0  0  0
  -29.0441  -23.2905   19.6207 C   0  0  0  0  0  0  0  0  0  0  0  0
  -28.1641  -12.0698   18.7096 C   0  0  0  0  0  0  0  0  0  0  0  0
  -30.5174  -12.5937   19.4751 C   0  0  0  0  0  0  0  0  0  0  0  0
  -28.6141  -13.3214   20.8613 C   0  0  0  0  0  0  0  0  0  0  0  0
  -33.7157  -16.9942   23.8461 C   0  0  0  0  0  0  0  0  0  0  0  0
  -30.3072  -23.3563   20.4878 C   0  0  1  0  0  0  0  0  0  0  0  0
  -33.1310  -21.6184   18.6335 C   0  0  1  0  0  0  0  0  0  0  0  0
  -27.6398  -13.1412   19.6846 C   0  0  2  0  0  0  0  0  0  0  0  0
  -34.4141  -16.1527   22.7865 C   0  0  1  0  0  0  0  0  0  1  0  0
  -30.7022  -16.6500   26.9011 C   0  0  0  0  0  0  0  0  0  0  0  0
  -34.3555  -17.2968   12.3226 C   0  0  0  0  0  0  0  0  0  0  0  0
  -29.7398  -19.1455   16.6984 C   0  0  0  0  0  0  0  0  0  0  0  0
  -30.4371  -17.6413   14.8224 C   0  0  0  0  0  0  0  0  0  0  0  0
  -30.3157  -20.1068   14.4627 C   0  0  0  0  0  0  0  0  0  0  0  0
  -37.0025  -18.6559   14.6937 C   0  0  0  0  0  0  0  0  0  0  0  0
  -30.7910  -16.9139   21.8887 C   0  0  0  0  0  0  0  0  0  0  0  0
  -31.6551  -15.6352   24.3601 C   0  0  0  0  0  0  0  0  0  0  0  0
  -28.8916  -18.9306   26.9580 C   0  0  0  0  0  0  0  0  0  0  0  0
  -32.1853  -19.1502   15.8704 C   0  0  1  0  0  0  0  0  0  0  0  0
  -34.9086  -18.2071   13.4080 C   0  0  2  0  0  0  0  0  0  0  0  0
  -30.6847  -19.0121   15.4875 C   0  0  0  0  0  0  0  0  0  0  0  0
  -25.8580  -11.5451   20.2848 N   0  0  0  0  0  0  0  0  0  0  0  0
  -26.2306  -12.8297   20.1536 N   0  0  0  0  0  0  0  0  0  0  0  0
  -33.0070  -20.3879   17.8495 N   0  0  0  0  0  0  0  0  0  0  0  0
  -29.9640  -13.6222   20.3592 N   0  0  0  0  0  0  0  0  0  0  0  0
  -25.4570  -15.0551   20.3974 N   0  0  0  0  0  0  0  0  0  0  0  0
  -21.8809  -12.5716   21.5972 N   0  0  0  0  0  0  0  0  0  0  0  0
  -31.4770  -23.0249   19.7028 N   0  0  0  0  0  0  0  0  0  0  0  0
  -33.1018  -19.0551   14.7394 N   0  0  0  0  0  0  0  0  0  0  0  0
  -30.1298  -15.6892   21.4968 N   0  0  0  0  0  0  0  0  0  0  0  0
  -33.0595  -15.9836   24.7632 N   0  3  1  0  0  0  0  0  0  0  0  0
  -36.3266  -17.8261   13.6634 N   0  3  0  0  0  0  0  0  0  0  0  0
  -22.6493  -14.7133   21.3123 O   0  0  0  0  0  0  0  0  0  0  0  0
  -31.3541  -20.7074   19.8934 O   0  0  0  0  0  0  0  0  0  0  0  0
  -32.2767  -21.5192   15.9461 O   0  0  0  0  0  0  0  0  0  0  0  0
  -34.3172  -17.2532   15.5476 O   0  0  0  0  0  0  0  0  0  0  0  0
  -31.8666  -14.9388   20.2016 O   0  0  0  0  0  0  0  0  0  0  0  0
  -21.6260   -7.0078   21.7170 O   0  0  0  0  0  0  0  0  0  0  0  0
  -35.5167  -16.8521   22.2373 O   0  0  0  0  0  0  0  0  0  1  0  0
  -18.6382   -6.8491   26.3487 F   0  0  0  0  0  0  0  0  0  0  0  0
  -22.0838   -5.0696   23.6345 F   0  0  0  0  0  0  0  0  0  0  0  0
  -29.8714  -19.6319   27.5930 F   0  0  0  0  0  0  0  0  0  0  0  0
  1  2  1  0  0  0  0
  1  5  2  0  0  0  0
  2  6  2  0  0  0  0
  3 10  2  0  0  0  0
  3 17  1  0  0  0  0
  4 11  1  0  0  0  0
  4 17  2  0  0  0  0
  5 19  1  0  0  0  0
  6 21  1  0  0  0  0
  7 12  2  0  0  0  0
  7 20  1  0  0  0  0
  8  9  1  0  0  0  0
  8 23  2  0  0  0  0
  9 24  2  0  0  0  0
 10 27  1  0  0  0  0
 11 27  2  0  0  0  0
 12 28  1  0  0  0  0
 13 14  2  0  0  0  0
 13 29  1  0  0  0  0
 14 30  1  0  0  0  0
 15 22  1  0  0  0  0
 15 28  2  0  0  0  0
 16 30  2  0  0  0  0
 16 31  1  0  0  0  0
 17 32  1  0  0  0  0
 18 32  1  0  0  0  0
 18 33  2  0  0  0  0
 18 36  1  0  0  0  0
 19 21  2  0  0  0  0
 19 41  1  0  0  0  0
 20 22  2  0  0  0  0
 20 42  1  0  0  0  0
 21 52  1  0  0  0  0
 22 43  1  0  0  0  0
 23 26  1  0  0  0  0
 23 62  1  0  0  0  0
 24 25  1  0  0  0  0
 24 64  1  0  0  0  0
 25 26  2  0  0  0  0
 25 56  1  0  0  0  0
 26 63  1  0  0  0  0
 27 84  1  0  0  0  0
 28 85  1  0  0  0  0
 29 31  2  0  0  0  0
 29 84  1  0  0  0  0
 30 86  1  0  0  0  0
 31 87  1  0  0  0  0
 32 68  2  0  0  0  0
 33 69  1  0  0  0  0
 33 72  1  0  0  0  0
 34 35  2  0  0  0  0
 34 44  1  0  0  0  0
 34 77  1  0  0  0  0
 36 73  1  0  0  0  0
 36 79  2  0  0  0  0
 37 53  1  0  0  0  0
 37 74  1  0  0  0  0
 37 80  2  0  0  0  0
 38 65  1  0  0  0  0
 38 70  1  0  0  0  0
 38 81  2  0  0  0  0
 39 66  1  0  0  0  0
 39 75  1  0  0  0  0
 39 82  2  0  0  0  0
 40 71  1  0  0  0  0
 40 76  1  0  0  0  0
 40 83  2  0  0  0  0
 41 45  1  0  0  0  0
 42 53  1  0  0  0  0
 43 70  1  0  0  0  0
 44 55  1  0  0  0  0
 45 47  1  0  0  0  0
 46 48  1  0  0  0  0
 46 49  1  0  0  0  0
 47 52  1  0  0  0  0
 48 54  1  0  0  0  0
 49 71  1  0  0  0  0
 50 54  1  0  0  0  0
 50 71  1  0  0  0  0
 51 55  1  0  0  0  0
 51 77  1  0  0  0  0
 52 74  1  0  0  0  0
 53 70  1  0  0  0  0
 54 69  1  0  0  0  0
 55 85  1  0  0  0  0
 57 66  1  0  0  0  0
 58 67  1  0  0  0  0
 59 67  1  0  0  0  0
 60 67  1  0  0  0  0
 61 78  1  0  0  0  0
 62 76  1  0  0  0  0
 63 77  1  0  0  0  0
 64 88  1  0  0  0  0
 65 67  1  0  0  0  0
 65 75  1  0  0  0  0
 66 78  1  0  0  0  0
 68 69  1  0  0  0  0
M  CHG  2  77   1  78   1
M  ISO  4  40 100  55 101  76 100  85 101
M  END
> <Batch ID>
0033

> <Smiles>
C=C1C[101CH:1]([101O:1]c2ccc3c(c2)CN(C(=O)C(NC(=O)C(C)NC)C(C)(C)C)C(C(=O)NC2CCCc4ccccc42)C3)CN1Cc1c(C[100NH:0][100C:0](=O)N2CCCC(n3nc(-c4ccc(Oc5ccc(F)cc5F)cc4)c(C(N)=O)c3N)C2)ccc(CF)c1C

> <Shape>
0.207

> <Color>
0.188

> <Negative vol penalty>
0.000

$$$$

  -OEChem-04042321453D

 89 98  0     1  0  0  0  0  0999 V2000
  -37.0958  -27.6830   22.7045 C   0  0  0  0  0  0  0  0  0  0  0  0
  -36.2160  -26.6200   22.8817 C   0  0  0  0  0  0  0  0  0  0  0  0
  -23.2820   -9.7988   19.9091 C   0  0  0  0  0  0  0  0  0  0  0  0
  -23.7410   -9.9288   22.2775 C   0  0  0  0  0  0  0  0  0  0  0  0
  -36.6002  -28.9728   22.5174 C   0  0  0  0  0  0  0  0  0  0  0  0
  -34.8401  -26.8463   22.8730 C   0  0  0  0  0  0  0  0  0  0  0  0
  -32.3266  -23.4277   20.1089 C   0  0  0  0  0  0  0  0  0  0  0  0
  -29.3850  -17.6334   24.9420 C   0  0  0  0  0  0  0  0  0  0  0  0
  -29.4110  -18.9050   24.3694 C   0  0  0  0  0  0  0  0  0  0  0  0
  -22.5551   -8.6261   20.1143 C   0  0  0  0  0  0  0  0  0  0  0  0
  -23.0141   -8.7561   22.4827 C   0  0  0  0  0  0  0  0  0  0  0  0
  -32.1099  -22.1772   20.6859 C   0  0  0  0  0  0  0  0  0  0  0  0
  -19.7669   -7.8474   22.7073 C   0  0  0  0  0  0  0  0  0  0  0  0
  -18.8682   -7.8220   23.7737 C   0  0  0  0  0  0  0  0  0  0  0  0
  -29.8576  -22.8333   21.2477 C   0  0  0  0  0  0  0  0  0  0  0  0
  -29.2298  -16.6460   22.7425 C   0  0  0  0  0  0  0  0  0  0  0  0
  -20.0754   -5.9694   24.7471 C   0  0  0  0  0  0  0  0  0  0  0  0
  -23.8750  -10.4501   20.9907 C   0  0  0  0  0  0  0  0  0  0  0  0
  -24.1362  -12.9807   20.8020 C   0  0  0  0  0  0  0  0  0  0  0  0
  -35.2174  -29.2135   22.4967 C   0  0  0  0  0  0  0  0  0  0  0  0
  -31.3122  -24.3959   20.1065 C   0  0  0  0  0  0  0  0  0  0  0  0
  -34.3256  -28.1407   22.6867 C   0  0  0  0  0  0  0  0  0  0  0  0
  -30.0630  -24.0944   20.6676 C   0  0  0  0  0  0  0  0  0  0  0  0
  -29.2945  -16.5039   24.1285 C   0  0  0  0  0  0  0  0  0  0  0  0
  -29.3463  -19.0472   22.9833 C   0  0  0  0  0  0  0  0  0  0  0  0
  -29.2557  -17.9177   22.1698 C   0  0  0  0  0  0  0  0  0  0  0  0
  -22.4212   -8.1048   21.4011 C   0  0  0  0  0  0  0  0  0  0  0  0
  -30.8763  -21.8808   21.2580 C   0  0  0  0  0  0  0  0  0  0  0  0
  -20.8199   -6.9337   22.6608 C   0  0  0  0  0  0  0  0  0  0  0  0
  -19.0224   -6.8831   24.7936 C   0  0  0  0  0  0  0  0  0  0  0  0
  -20.9742   -5.9948   23.6807 C   0  0  0  0  0  0  0  0  0  0  0  0
  -24.6264  -11.6612   20.7792 C   0  0  0  0  0  0  0  0  0  0  0  0
  -25.2376  -13.7605   20.5466 C   0  0  0  0  0  0  0  0  0  0  0  0
  -30.5541  -13.3671   25.8027 C   0  0  0  0  0  0  0  0  0  0  0  0
  -28.5555  -13.9220   28.8329 C   0  0  0  0  0  0  0  0  0  0  0  0
  -29.9248  -13.1387   26.9612 C   0  0  0  0  0  0  0  0  0  0  0  0
  -29.1845  -14.1510   27.6747 C   0  0  0  0  0  0  0  0  0  0  0  0
  -22.8044  -13.4586   21.0334 C   0  0  0  0  0  0  0  0  0  0  0  0
  -30.9871  -27.3071   21.3405 C   0  0  0  0  0  0  0  0  0  0  0  0
  -28.2135  -27.2865   19.6584 C   0  0  0  0  0  0  0  0  0  0  0  0
  -25.7301  -25.4648   18.1885 C   0  0  0  0  0  0  0  0  0  0  0  0
  -31.1105  -12.9082   21.3425 C   0  0  0  0  0  0  0  0  0  0  0  0
  -34.7298  -30.6319   22.3384 C   0  0  0  0  0  0  0  0  0  0  0  0
  -31.5530  -25.7307   19.4562 C   0  0  0  0  0  0  0  0  0  0  0  0
  -28.9345  -25.0919   20.6729 C   0  0  0  0  0  0  0  0  0  0  0  0
  -31.3334  -12.3524   25.0256 C   0  0  0  0  0  0  0  0  0  0  0  0
  -33.2522  -30.7302   21.9680 C   0  0  0  0  0  0  0  0  0  0  0  0
  -29.4519  -13.6624   18.2836 C   0  0  0  0  0  0  0  0  0  0  0  0
  -32.4179  -29.8078   22.8511 C   0  0  0  0  0  0  0  0  0  0  0  0
  -27.9828  -13.3541   18.5784 C   0  0  0  0  0  0  0  0  0  0  0  0
  -30.3866  -12.6790   18.9845 C   0  0  0  0  0  0  0  0  0  0  0  0
  -28.7055  -12.2439   20.7334 C   0  0  0  0  0  0  0  0  0  0  0  0
  -31.6646  -14.5808   24.1588 C   0  0  0  0  0  0  0  0  0  0  0  0
  -32.8260  -28.3422   22.6587 C   0  0  1  0  0  0  0  0  0  0  0  0
  -30.6173  -26.8218   19.9674 C   0  0  1  0  0  0  0  0  0  0  0  0
  -27.7263  -13.2428   20.0933 C   0  0  2  0  0  0  0  0  0  0  0  0
  -31.6808  -13.1111   23.7493 C   0  0  2  0  0  0  0  0  0  0  0  0
  -30.5149  -17.7187   20.0107 C   0  0  0  0  0  0  0  0  0  0  0  0
  -23.5786  -25.7278   16.9240 C   0  0  0  0  0  0  0  0  0  0  0  0
  -26.7808  -28.0138   22.2523 C   0  0  0  0  0  0  0  0  0  0  0  0
  -24.6268  -27.3360   21.1709 C   0  0  0  0  0  0  0  0  0  0  0  0
  -25.9531  -29.2267   20.2279 C   0  0  0  0  0  0  0  0  0  0  0  0
  -26.8148  -24.0588   15.8209 C   0  0  0  0  0  0  0  0  0  0  0  0
  -29.1850  -18.0454   20.6834 C   0  0  0  0  0  0  0  0  0  0  0  0
  -29.2663  -15.1444   24.7410 C   0  0  0  0  0  0  0  0  0  0  0  0
  -29.3747  -20.4252   22.3905 C   0  0  0  0  0  0  0  0  0  1  0  0
  -26.7938  -26.8594   19.9429 C   0  0  1  0  0  0  0  0  0  0  0  0
  -25.0864  -25.5618   16.8171 C   0  0  2  0  0  0  0  0  0  0  0  0
  -26.0603  -27.8406   20.9003 C   0  0  0  0  0  0  0  0  0  0  0  0
  -25.9371  -11.6023   20.5290 N   0  0  0  0  0  0  0  0  0  0  0  0
  -26.2798  -12.8945   20.3920 N   0  0  0  0  0  0  0  0  0  0  0  0
  -29.2210  -26.3852   20.0305 N   0  0  0  0  0  0  0  0  0  0  0  0
  -30.0921  -12.6218   20.4184 N   0  0  0  0  0  0  0  0  0  0  0  0
  -25.4065  -15.0958   20.4413 N   0  0  0  0  0  0  0  0  0  0  0  0
  -21.7918  -12.5217   21.2803 N   0  0  0  0  0  0  0  0  0  0  0  0
  -32.2674  -27.8190   21.4304 N   0  0  0  0  0  0  0  0  0  0  0  0
  -26.1485  -26.6969   18.6446 N   0  0  0  0  0  0  0  0  0  0  0  0
  -30.7453  -12.8373   22.6813 N   0  0  0  0  0  0  0  0  0  0  0  0
  -30.6060  -14.6891   25.2434 N   0  3  1  0  0  0  0  0  0  0  0  0
  -25.3688  -24.3319   16.0242 N   0  3  0  0  0  0  0  0  0  0  0  0
  -22.5177  -14.6795   21.0053 O   0  0  0  0  0  0  0  0  0  0  0  0
  -30.1706  -27.2248   22.2506 O   0  0  0  0  0  0  0  0  0  0  0  0
  -28.4206  -28.3765   19.1192 O   0  0  0  0  0  0  0  0  0  0  0  0
  -25.8465  -24.4028   18.7961 O   0  0  0  0  0  0  0  0  0  0  0  0
  -32.2586  -13.2103   20.9997 O   0  0  0  0  0  0  0  0  0  0  0  0
  -21.7118   -6.9606   21.6018 O   0  0  0  0  0  0  0  0  0  0  0  0
  -30.6624  -20.6612   21.8226 O   0  0  0  0  0  0  0  0  0  1  0  0
  -18.1602   -6.8599   25.8184 F   0  0  0  0  0  0  0  0  0  0  0  0
  -21.9845   -5.1152   23.6421 F   0  0  0  0  0  0  0  0  0  0  0  0
  1  2  1  0  0  0  0
  1  5  2  0  0  0  0
  2  6  2  0  0  0  0
  3 10  2  0  0  0  0
  3 18  1  0  0  0  0
  4 11  1  0  0  0  0
  4 18  2  0  0  0  0
  5 20  1  0  0  0  0
  6 22  1  0  0  0  0
  7 12  2  0  0  0  0
  7 21  1  0  0  0  0
  8  9  2  0  0  0  0
  8 24  1  0  0  0  0
  9 25  1  0  0  0  0
 10 27  1  0  0  0  0
 11 27  2  0  0  0  0
 12 28  1  0  0  0  0
 13 14  2  0  0  0  0
 13 29  1  0  0  0  0
 14 30  1  0  0  0  0
 15 23  1  0  0  0  0
 15 28  2  0  0  0  0
 16 24  2  0  0  0  0
 16 26  1  0  0  0  0
 17 30  2  0  0  0  0
 17 31  1  0  0  0  0
 18 32  1  0  0  0  0
 19 32  1  0  0  0  0
 19 33  2  0  0  0  0
 19 38  1  0  0  0  0
 20 22  2  0  0  0  0
 20 43  1  0  0  0  0
 21 23  2  0  0  0  0
 21 44  1  0  0  0  0
 22 54  1  0  0  0  0
 23 45  1  0  0  0  0
 24 65  1  0  0  0  0
 25 26  2  0  0  0  0
 25 66  1  0  0  0  0
 26 64  1  0  0  0  0
 27 86  1  0  0  0  0
 28 87  1  0  0  0  0
 29 31  2  0  0  0  0
 29 86  1  0  0  0  0
 30 88  1  0  0  0  0
 31 89  1  0  0  0  0
 32 70  2  0  0  0  0
 33 71  1  0  0  0  0
 33 74  1  0  0  0  0
 34 36  2  0  0  0  0
 34 46  1  0  0  0  0
 34 79  1  0  0  0  0
 35 37  2  0  0  0  0
 36 37  1  0  0  0  0
 38 75  1  0  0  0  0
 38 81  2  0  0  0  0
 39 55  1  0  0  0  0
 39 76  1  0  0  0  0
 39 82  2  0  0  0  0
 40 67  1  0  0  0  0
 40 72  1  0  0  0  0
 40 83  2  0  0  0  0
 41 68  1  0  0  0  0
 41 77  1  0  0  0  0
 41 84  2  0  0  0  0
 42 73  1  0  0  0  0
 42 78  1  0  0  0  0
 42 85  2  0  0  0  0
 43 47  1  0  0  0  0
 44 55  1  0  0  0  0
 45 72  1  0  0  0  0
 46 57  1  0  0  0  0
 47 49  1  0  0  0  0
 48 50  1  0  0  0  0
 48 51  1  0  0  0  0
 49 54  1  0  0  0  0
 50 56  1  0  0  0  0
 51 73  1  0  0  0  0
 52 56  1  0  0  0  0
 52 73  1  0  0  0  0
 53 57  1  0  0  0  0
 53 79  1  0  0  0  0
 54 76  1  0  0  0  0
 55 72  1  0  0  0  0
 56 71  1  0  0  0  0
 57 78  1  0  0  0  0
 58 64  1  0  0  0  0
 59 68  1  0  0  0  0
 60 69  1  0  0  0  0
 61 69  1  0  0  0  0
 62 69  1  0  0  0  0
 63 80  1  0  0  0  0
 65 79  1  0  0  0  0
 66 87  1  0  0  0  0
 67 69  1  0  0  0  0
 67 77  1  0  0  0  0
 68 80  1  0  0  0  0
 70 71  1  0  0  0  0
M  CHG  2  79   1  80   1
M  ISO  4  42 100  66 101  78 100  87 101
M  END
> <Batch ID>
0033

> <Smiles>
C=CC=C1CC([100NH:0][100C:0](=O)N2CCCC(n3nc(-c4ccc(Oc5ccc(F)cc5F)cc4)c(C(N)=O)c3N)C2)CN1Cc1ccc([101CH2:1][101O:1]c2ccc3c(c2)CN(C(=O)C(NC(=O)C(C)NC)C(C)(C)C)C(C(=O)NC2CCCc4ccccc42)C3)c(CC)c1

> <Shape>
0.245

> <Color>
0.164

> <Negative vol penalty>
0.000

$$$$

  -OEChem-04042321453D

 86 95  0     1  0  0  0  0  0999 V2000
  -18.4785  -22.6402   31.8733 C   0  0  0  0  0  0  0  0  0  0  0  0
  -19.4179  -22.2651   30.9182 C   0  0  0  0  0  0  0  0  0  0  0  0
  -23.0252   -9.9764   19.9304 C   0  0  0  0  0  0  0  0  0  0  0  0
  -23.8533   -9.8794   22.1980 C   0  0  0  0  0  0  0  0  0  0  0  0
  -17.4015  -23.4480   31.5105 C   0  0  0  0  0  0  0  0  0  0  0  0
  -19.2803  -22.6967   29.5994 C   0  0  0  0  0  0  0  0  0  0  0  0
  -23.6427  -24.3533   27.6323 C   0  0  0  0  0  0  0  0  0  0  0  0
  -22.2763   -8.8213   20.1544 C   0  0  0  0  0  0  0  0  0  0  0  0
  -23.1043   -8.7242   22.4220 C   0  0  0  0  0  0  0  0  0  0  0  0
  -24.5591  -23.3895   27.2136 C   0  0  0  0  0  0  0  0  0  0  0  0
  -19.8868   -7.9339   23.0883 C   0  0  0  0  0  0  0  0  0  0  0  0
  -19.1648   -7.8523   24.2789 C   0  0  0  0  0  0  0  0  0  0  0  0
  -23.8389  -23.7042   24.9330 C   0  0  0  0  0  0  0  0  0  0  0  0
  -28.6779  -19.6119   23.2735 C   0  0  0  0  0  0  0  0  0  0  0  0
  -20.4058   -5.8733   24.8958 C   0  0  0  0  0  0  0  0  0  0  0  0
  -23.8138  -10.5055   20.9522 C   0  0  0  0  0  0  0  0  0  0  0  0
  -24.1802  -13.0299   20.9274 C   0  0  0  0  0  0  0  0  0  0  0  0
  -17.2559  -23.8977   30.1887 C   0  0  0  0  0  0  0  0  0  0  0  0
  -22.8086  -24.9930   26.7042 C   0  0  0  0  0  0  0  0  0  0  0  0
  -18.1997  -23.5102   29.2183 C   0  0  0  0  0  0  0  0  0  0  0  0
  -22.9146  -24.6776   25.3421 C   0  0  0  0  0  0  0  0  0  0  0  0
  -29.8866  -17.2726   24.1952 C   0  0  0  0  0  0  0  0  0  0  0  0
  -30.0585  -17.6708   22.8695 C   0  0  0  0  0  0  0  0  0  0  0  0
  -28.5059  -19.2137   24.5991 C   0  0  0  0  0  0  0  0  0  0  0  0
  -22.3158   -8.1951   21.4002 C   0  0  0  0  0  0  0  0  0  0  0  0
  -24.6552  -23.0628   25.8642 C   0  0  0  0  0  0  0  0  0  0  0  0
  -20.8684   -6.9852   22.8014 C   0  0  0  0  0  0  0  0  0  0  0  0
  -19.4243   -6.8220   25.1827 C   0  0  0  0  0  0  0  0  0  0  0  0
  -21.1279   -5.9549   23.7052 C   0  0  0  0  0  0  0  0  0  0  0  0
  -29.4542  -18.8404   22.4086 C   0  0  0  0  0  0  0  0  0  0  0  0
  -29.1102  -18.0441   25.0600 C   0  0  0  0  0  0  0  0  0  0  0  0
  -24.5881  -11.6984   20.7212 C   0  0  0  0  0  0  0  0  0  0  0  0
  -25.2693  -13.7831   20.5628 C   0  0  0  0  0  0  0  0  0  0  0  0
  -22.9286  -13.5403   21.4058 C   0  0  0  0  0  0  0  0  0  0  0  0
  -19.6661  -25.1647   26.2578 C   0  0  0  0  0  0  0  0  0  0  0  0
  -20.5009  -27.3086   23.9711 C   0  0  0  0  0  0  0  0  0  0  0  0
  -22.8786  -28.4649   21.8132 C   0  0  0  0  0  0  0  0  0  0  0  0
  -30.7673  -14.7387   20.6272 C   0  0  0  0  0  0  0  0  0  0  0  0
  -16.0495  -24.7303   29.8339 C   0  0  0  0  0  0  0  0  0  0  0  0
  -21.8440  -26.0496   27.1686 C   0  0  0  0  0  0  0  0  0  0  0  0
  -22.0561  -25.3500   24.3032 C   0  0  0  0  0  0  0  0  0  0  0  0
  -16.1806  -25.4535   28.4960 C   0  0  0  0  0  0  0  0  0  0  0  0
  -29.5323  -12.4682   18.1785 C   0  0  0  0  0  0  0  0  0  0  0  0
  -16.7025  -24.5021   27.4238 C   0  0  0  0  0  0  0  0  0  0  0  0
  -28.1052  -12.1708   18.6422 C   0  0  0  0  0  0  0  0  0  0  0  0
  -27.1034  -21.4491   27.1751 C   0  0  0  0  0  0  0  0  0  0  0  0
  -30.4873  -12.6292   19.3593 C   0  0  0  0  0  0  0  0  0  0  0  0
  -28.2561  -21.0969   26.2350 C   0  0  0  0  0  0  0  0  0  0  0  0
  -28.6361  -13.3201   20.8322 C   0  0  0  0  0  0  0  0  0  0  0  0
  -26.2879  -19.8362   25.5967 C   0  0  0  0  0  0  0  0  0  0  0  0
  -18.0983  -23.9786   27.7829 C   0  0  1  0  0  0  0  0  0  0  0  0
  -20.6850  -26.2675   26.2008 C   0  0  1  0  0  0  0  0  0  0  0  0
  -27.6253  -13.2049   19.6783 C   0  0  2  0  0  0  0  0  0  0  0  0
  -25.8637  -21.0826   26.3723 C   0  0  2  0  0  0  0  0  0  1  0  0
  -30.5431  -16.0137   24.6726 C   0  0  0  0  0  0  0  0  0  0  0  0
  -23.2551  -30.2057   20.0454 C   0  0  0  0  0  0  0  0  0  0  0  0
  -18.8501  -25.6628   22.0022 C   0  0  0  0  0  0  0  0  0  0  0  0
  -20.0105  -26.8611   20.1352 C   0  0  0  0  0  0  0  0  0  0  0  0
  -18.6065  -28.1393   21.7531 C   0  0  0  0  0  0  0  0  0  0  0  0
  -25.0730  -29.7198   23.3523 C   0  0  0  0  0  0  0  0  0  0  0  0
  -30.8942  -16.8346   21.9503 C   0  0  0  0  0  0  0  0  0  0  0  0
  -20.8421  -27.2273   22.5028 C   0  0  1  0  0  0  0  0  0  0  0  0
  -23.3786  -29.8686   21.5232 C   0  0  2  0  0  0  0  0  0  0  0  0
  -19.5923  -26.9584   21.6179 C   0  0  0  0  0  0  0  0  0  0  0  0
  -25.8388  -11.6077   20.2611 N   0  0  0  0  0  0  0  0  0  0  0  0
  -26.2261  -12.8917   20.1751 N   0  0  0  0  0  0  0  0  0  0  0  0
  -27.7323  -19.9994   25.4273 N   0  0  3  0  0  0  0  0  0  0  0  0
  -21.1239  -26.3718   24.8077 N   0  0  0  0  0  0  0  0  0  0  0  0
  -29.9750  -13.6249   20.3037 N   0  0  0  0  0  0  0  0  0  0  0  0
  -25.4924  -15.1143   20.5391 N   0  0  0  0  0  0  0  0  0  0  0  0
  -21.9171  -12.6278   21.7353 N   0  0  0  0  0  0  0  0  0  0  0  0
  -19.1018  -24.9840   27.5061 N   0  0  0  0  0  0  0  0  0  0  0  0
  -21.5491  -28.4616   22.1790 N   0  0  0  0  0  0  0  0  0  0  0  0
  -30.2040  -15.6372   21.5251 N   0  0  0  0  0  0  0  0  0  0  0  0
  -24.8097  -30.0004   21.9174 N   0  3  0  0  0  0  0  0  0  0  0  0
  -22.7080  -14.7697   21.5216 O   0  0  0  0  0  0  0  0  0  0  0  0
  -19.4098  -24.5260   25.2438 O   0  0  0  0  0  0  0  0  0  0  0  0
  -19.7161  -28.1762   24.3623 O   0  0  0  0  0  0  0  0  0  0  0  0
  -23.5947  -27.4703   21.7207 O   0  0  0  0  0  0  0  0  0  0  0  0
  -31.8911  -14.9218   20.1471 O   0  0  0  0  0  0  0  0  0  0  0  0
  -21.5849   -7.0680   21.6192 O   0  0  0  0  0  0  0  0  0  0  0  0
  -25.5483  -22.1219   25.4529 O   0  0  0  0  0  0  0  0  0  1  0  0
  -18.7319   -6.7446   26.3267 F   0  0  0  0  0  0  0  0  0  0  0  0
  -22.0704   -5.0412   23.4356 F   0  0  0  0  0  0  0  0  0  0  0  0
  -29.6420  -19.3682   20.7752 Cl  0  0  0  0  0  0  0  0  0  0  0  0
  -28.8972  -17.5478   26.7079 Cl  0  0  0  0  0  0  0  0  0  0  0  0
  1  2  1  0  0  0  0
  1  5  2  0  0  0  0
  2  6  2  0  0  0  0
  3  8  2  0  0  0  0
  3 16  1  0  0  0  0
  4  9  1  0  0  0  0
  4 16  2  0  0  0  0
  5 18  1  0  0  0  0
  6 20  1  0  0  0  0
  7 10  2  0  0  0  0
  7 19  1  0  0  0  0
  8 25  1  0  0  0  0
  9 25  2  0  0  0  0
 10 26  1  0  0  0  0
 11 12  2  0  0  0  0
 11 27  1  0  0  0  0
 12 28  1  0  0  0  0
 13 21  1  0  0  0  0
 13 26  2  0  0  0  0
 14 24  1  0  0  0  0
 14 30  2  0  0  0  0
 15 28  2  0  0  0  0
 15 29  1  0  0  0  0
 16 32  1  0  0  0  0
 17 32  1  0  0  0  0
 17 33  2  0  0  0  0
 17 34  1  0  0  0  0
 18 20  2  0  0  0  0
 18 39  1  0  0  0  0
 19 21  2  0  0  0  0
 19 40  1  0  0  0  0
 20 51  1  0  0  0  0
 21 41  1  0  0  0  0
 22 23  2  0  0  0  0
 22 31  1  0  0  0  0
 22 55  1  0  0  0  0
 23 30  1  0  0  0  0
 23 61  1  0  0  0  0
 24 31  2  0  0  0  0
 24 67  1  0  0  0  0
 25 81  1  0  0  0  0
 26 82  1  0  0  0  0
 27 29  2  0  0  0  0
 27 81  1  0  0  0  0
 28 83  1  0  0  0  0
 29 84  1  0  0  0  0
 30 85  1  0  0  0  0
 31 86  1  0  0  0  0
 32 65  2  0  0  0  0
 33 66  1  0  0  0  0
 33 70  1  0  0  0  0
 34 71  1  0  0  0  0
 34 76  2  0  0  0  0
 35 52  1  0  0  0  0
 35 72  1  0  0  0  0
 35 77  2  0  0  0  0
 36 62  1  0  0  0  0
 36 68  1  0  0  0  0
 36 78  2  0  0  0  0
 37 63  1  0  0  0  0
 37 73  1  0  0  0  0
 37 79  2  0  0  0  0
 38 69  1  0  0  0  0
 38 74  1  0  0  0  0
 38 80  2  0  0  0  0
 39 42  1  0  0  0  0
 40 52  1  0  0  0  0
 41 68  1  0  0  0  0
 42 44  1  0  0  0  0
 43 45  1  0  0  0  0
 43 47  1  0  0  0  0
 44 51  1  0  0  0  0
 45 53  1  0  0  0  0
 46 48  1  0  0  0  0
 46 54  1  0  0  0  0
 47 69  1  0  0  0  0
 48 67  1  0  0  0  0
 49 53  1  0  0  0  0
 49 69  1  0  0  0  0
 50 54  1  0  0  0  0
 50 67  1  0  0  0  0
 51 72  1  0  0  0  0
 52 68  1  0  0  0  0
 53 66  1  0  0  0  0
 54 82  1  0  0  0  0
 56 63  1  0  0  0  0
 57 64  1  0  0  0  0
 58 64  1  0  0  0  0
 59 64  1  0  0  0  0
 60 75  1  0  0  0  0
 61 74  1  0  0  0  0
 62 64  1  0  0  0  0
 62 73  1  0  0  0  0
 63 75  1  0  0  0  0
 65 66  1  0  0  0  0
M  CHG  1  75   1
M  ISO  4  38 100  54 101  74 100  82 101
M  END
> <Batch ID>
0033

> <Smiles>
CNC(C)C(=O)NC(C(=O)N1Cc2cc([101O:1][101CH:1]3CCN(c4cc(Cl)c(C[100NH:0][100C:0](=O)N5CCCC(n6nc(-c7ccc(Oc8ccc(F)cc8F)cc7)c(C(N)=O)c6N)C5)c(C)c4Cl)C3)ccc2CC1C(=O)NC1CCCc2ccccc21)C(C)(C)C

> <Shape>
0.256

> <Color>
0.205

> <Negative vol penalty>
0.000

$$$$

  -OEChem-04042321453D

 84 92  0     1  0  0  0  0  0999 V2000
  -27.0792  -33.9090   20.5993 C   0  0  0  0  0  0  0  0  0  0  0  0
  -26.9101  -32.5842   20.2097 C   0  0  0  0  0  0  0  0  0  0  0  0
  -26.6298  -12.6532   21.7106 C   0  0  0  0  0  0  0  0  0  0  0  0
  -26.0780  -13.9068   19.7203 C   0  0  0  0  0  0  0  0  0  0  0  0
  -26.5478  -34.3517   21.8099 C   0  0  0  0  0  0  0  0  0  0  0  0
  -26.2103  -31.7010   21.0311 C   0  0  0  0  0  0  0  0  0  0  0  0
  -22.9265  -28.8363   18.4512 C   0  0  0  0  0  0  0  0  0  0  0  0
  -25.3455  -12.1092   21.7241 C   0  0  0  0  0  0  0  0  0  0  0  0
  -24.7937  -13.3628   19.7338 C   0  0  0  0  0  0  0  0  0  0  0  0
  -23.4458  -27.7540   17.7422 C   0  0  0  0  0  0  0  0  0  0  0  0
  -23.6587   -9.6646   20.1081 C   0  0  0  0  0  0  0  0  0  0  0  0
  -23.5376   -8.2939   20.3367 C   0  0  0  0  0  0  0  0  0  0  0  0
  -29.9820  -23.7341   17.9075 C   0  0  0  0  0  0  0  0  0  0  0  0
  -22.7718  -26.2722   19.5224 C   0  0  0  0  0  0  0  0  0  0  0  0
  -30.9764  -22.4172   19.6721 C   0  0  0  0  0  0  0  0  0  0  0  0
  -22.2065   -8.7394   22.3031 C   0  0  0  0  0  0  0  0  0  0  0  0
  -26.9961  -13.5520   20.7087 C   0  0  0  0  0  0  0  0  0  0  0  0
  -28.9275  -22.8250   17.8233 C   0  0  0  0  0  0  0  0  0  0  0  0
  -29.4603  -13.5932   20.0504 C   0  0  0  0  0  0  0  0  0  0  0  0
  -25.8328  -33.4759   22.6420 C   0  0  0  0  0  0  0  0  0  0  0  0
  -22.3347  -28.6458   19.7082 C   0  0  0  0  0  0  0  0  0  0  0  0
  -25.6699  -32.1321   22.2546 C   0  0  0  0  0  0  0  0  0  0  0  0
  -22.2435  -27.3533   20.2442 C   0  0  0  0  0  0  0  0  0  0  0  0
  -28.8973  -21.7121   18.6635 C   0  0  0  0  0  0  0  0  0  0  0  0
  -29.9218  -21.5081   19.5880 C   0  0  0  0  0  0  0  0  0  0  0  0
  -24.4274  -12.4640   20.7357 C   0  0  0  0  0  0  0  0  0  0  0  0
  -23.3711  -26.4721   18.2790 C   0  0  0  0  0  0  0  0  0  0  0  0
  -23.0537  -10.5727   20.9771 C   0  0  0  0  0  0  0  0  0  0  0  0
  -22.8115   -7.8313   21.4341 C   0  0  0  0  0  0  0  0  0  0  0  0
  -22.3276  -10.1101   22.0745 C   0  0  0  0  0  0  0  0  0  0  0  0
  -31.0066  -23.5301   18.8319 C   0  0  0  0  0  0  0  0  0  0  0  0
  -28.3225  -14.1147   20.6946 C   0  0  0  0  0  0  0  0  0  0  0  0
  -30.4593  -14.4909   20.3378 C   0  0  0  0  0  0  0  0  0  0  0  0
  -27.0871  -24.3453   16.9692 C   0  0  0  0  0  0  0  0  0  0  0  0
  -25.7995  -24.4218   16.6068 C   0  0  0  0  0  0  0  0  0  0  0  0
  -27.8477  -23.0709   16.8271 C   0  0  0  0  0  0  0  0  0  0  0  0
  -29.6016  -12.4037   19.2625 C   0  0  0  0  0  0  0  0  0  0  0  0
  -22.9589  -29.6540   22.6574 C   0  0  0  0  0  0  0  0  0  0  0  0
  -20.1509  -28.1791   23.3374 C   0  0  0  0  0  0  0  0  0  0  0  0
  -17.8468  -25.8062   22.4966 C   0  0  0  0  0  0  0  0  0  0  0  0
  -30.4491  -20.3006   21.7351 C   0  0  0  0  0  0  0  0  0  0  0  0
  -25.3175  -33.9886   23.9634 C   0  0  0  0  0  0  0  0  0  0  0  0
  -21.7553  -29.8201   20.4484 C   0  0  0  0  0  0  0  0  0  0  0  0
  -21.5998  -27.0927   21.5807 C   0  0  0  0  0  0  0  0  0  0  0  0
  -24.2669  -33.0826   24.6004 C   0  0  0  0  0  0  0  0  0  0  0  0
  -31.8121  -17.6458   23.6771 C   0  0  0  0  0  0  0  0  0  0  0  0
  -24.7186  -31.6264   24.5535 C   0  0  0  0  0  0  0  0  0  0  0  0
  -31.1801  -16.3911   23.0701 C   0  0  0  0  0  0  0  0  0  0  0  0
  -30.8362  -18.8210   23.6937 C   0  0  0  0  0  0  0  0  0  0  0  0
  -29.5861  -17.8783   21.7917 C   0  0  0  0  0  0  0  0  0  0  0  0
  -24.8956  -31.1500   23.1067 C   0  0  1  0  0  0  0  0  0  0  0  0
  -21.6353  -29.5796   21.9501 C   0  0  1  0  0  0  0  0  0  0  0  0
  -30.5518  -16.6860   21.6939 C   0  0  2  0  0  0  0  0  0  0  0  0
  -27.7657  -20.7360   18.5722 C   0  0  0  0  0  0  0  0  0  0  0  0
  -15.6759  -24.8089   23.2647 C   0  0  0  0  0  0  0  0  0  0  0  0
  -21.6325  -26.6354   25.5126 C   0  0  0  0  0  0  0  0  0  0  0  0
  -19.7126  -25.0300   25.5837 C   0  0  0  0  0  0  0  0  0  0  0  0
  -19.3525  -27.4289   26.1654 C   0  0  0  0  0  0  0  0  0  0  0  0
  -16.4595  -26.6224   20.0131 C   0  0  0  0  0  0  0  0  0  0  0  0
  -24.9875  -25.6705   16.7297 C   0  0  0  0  0  0  0  0  0  1  0  0
  -19.7490  -26.7846   23.7530 C   0  0  1  0  0  0  0  0  0  0  0  0
  -16.3337  -25.8646   22.3897 C   0  0  2  0  0  0  0  0  0  0  0  0
  -20.1256  -26.4746   25.2294 C   0  0  0  0  0  0  0  0  0  0  0  0
  -28.5741  -15.2553   21.3426 N   0  0  0  0  0  0  0  0  0  0  0  0
  -27.6547  -22.2184   15.8716 N   0  0  0  0  0  0  0  0  0  0  0  0
  -29.8817  -15.4577   21.1070 N   0  0  0  0  0  0  0  0  0  0  0  0
  -21.0536  -28.2742   22.2688 N   0  0  0  0  0  0  0  0  0  0  0  0
  -30.2843  -19.0442   22.3556 N   0  0  0  0  0  0  0  0  0  0  0  0
  -31.7667  -14.5396   20.0051 N   0  0  0  0  0  0  0  0  0  0  0  0
  -28.4743  -11.5944   19.0663 N   0  0  0  0  0  0  0  0  0  0  0  0
  -29.9109  -20.3847   20.4514 N   0  0  0  0  0  0  0  0  0  0  0  0
  -23.6095  -30.8638   22.5079 N   0  0  0  0  0  0  0  0  0  0  0  0
  -18.3242  -26.6667   23.4624 N   0  0  0  0  0  0  0  0  0  0  0  0
  -15.9049  -25.6405   20.9802 N   0  3  0  0  0  0  0  0  0  0  0  0
  -30.6990  -12.0597   18.7614 O   0  0  0  0  0  0  0  0  0  0  0  0
  -23.3595  -28.6859   23.2930 O   0  0  0  0  0  0  0  0  0  0  0  0
  -19.6758  -29.1486   23.9340 O   0  0  0  0  0  0  0  0  0  0  0  0
  -18.5360  -25.0680   21.7961 O   0  0  0  0  0  0  0  0  0  0  0  0
  -31.0489  -21.2248   22.2901 O   0  0  0  0  0  0  0  0  0  0  0  0
  -23.1742  -11.9331   20.7484 O   0  0  0  0  0  0  0  0  0  0  0  0
  -23.8778  -25.4140   17.5894 O   0  0  0  0  0  0  0  0  0  1  0  0
  -22.6941   -6.5150   21.6526 F   0  0  0  0  0  0  0  0  0  0  0  0
  -21.7432  -10.9776   22.9121 F   0  0  0  0  0  0  0  0  0  0  0  0
  -32.3082  -24.6519   18.9354 Cl  0  0  0  0  0  0  0  0  0  0  0  0
  1  2  1  0  0  0  0
  1  5  2  0  0  0  0
  2  6  2  0  0  0  0
  3  8  2  0  0  0  0
  3 17  1  0  0  0  0
  4  9  1  0  0  0  0
  4 17  2  0  0  0  0
  5 20  1  0  0  0  0
  6 22  1  0  0  0  0
  7 10  2  0  0  0  0
  7 21  1  0  0  0  0
  8 26  1  0  0  0  0
  9 26  2  0  0  0  0
 10 27  1  0  0  0  0
 11 12  2  0  0  0  0
 11 28  1  0  0  0  0
 12 29  1  0  0  0  0
 13 18  1  0  0  0  0
 13 31  2  0  0  0  0
 14 23  1  0  0  0  0
 14 27  2  0  0  0  0
 15 25  2  0  0  0  0
 15 31  1  0  0  0  0
 16 29  2  0  0  0  0
 16 30  1  0  0  0  0
 17 32  1  0  0  0  0
 18 24  2  0  0  0  0
 18 36  1  0  0  0  0
 19 32  1  0  0  0  0
 19 33  2  0  0  0  0
 19 37  1  0  0  0  0
 20 22  2  0  0  0  0
 20 42  1  0  0  0  0
 21 23  2  0  0  0  0
 21 43  1  0  0  0  0
 22 51  1  0  0  0  0
 23 44  1  0  0  0  0
 24 25  1  0  0  0  0
 24 54  1  0  0  0  0
 25 71  1  0  0  0  0
 26 80  1  0  0  0  0
 27 81  1  0  0  0  0
 28 30  2  0  0  0  0
 28 80  1  0  0  0  0
 29 82  1  0  0  0  0
 30 83  1  0  0  0  0
 31 84  1  0  0  0  0
 32 64  2  0  0  0  0
 33 66  1  0  0  0  0
 33 69  1  0  0  0  0
 34 35  2  0  0  0  0
 34 36  1  0  0  0  0
 35 60  1  0  0  0  0
 36 65  2  0  0  0  0
 37 70  1  0  0  0  0
 37 75  2  0  0  0  0
 38 52  1  0  0  0  0
 38 72  1  0  0  0  0
 38 76  2  0  0  0  0
 39 61  1  0  0  0  0
 39 67  1  0  0  0  0
 39 77  2  0  0  0  0
 40 62  1  0  0  0  0
 40 73  1  0  0  0  0
 40 78  2  0  0  0  0
 41 68  1  0  0  0  0
 41 71  1  0  0  0  0
 41 79  2  0  0  0  0
 42 45  1  0  0  0  0
 43 52  1  0  0  0  0
 44 67  1  0  0  0  0
 45 47  1  0  0  0  0
 46 48  1  0  0  0  0
 46 49  1  0  0  0  0
 47 51  1  0  0  0  0
 48 53  1  0  0  0  0
 49 68  1  0  0  0  0
 50 53  1  0  0  0  0
 50 68  1  0  0  0  0
 51 72  1  0  0  0  0
 52 67  1  0  0  0  0
 53 66  1  0  0  0  0
 55 62  1  0  0  0  0
 56 63  1  0  0  0  0
 57 63  1  0  0  0  0
 58 63  1  0  0  0  0
 59 74  1  0  0  0  0
 60 81  1  0  0  0  0
 61 63  1  0  0  0  0
 61 73  1  0  0  0  0
 62 74  1  0  0  0  0
 64 66  1  0  0  0  0
M  CHG  1  74   1
M  ISO  4  41 100  60 101  71 100  81 101
M  END
> <Batch ID>
0033

> <Smiles>
CNC(C)C(=O)NC(C(=O)N1Cc2cc([101O:1][101CH2:1]C=CC(=N)c3cc(Cl)cc([100NH:0][100C:0](=O)N4CCCC(n5nc(-c6ccc(Oc7ccc(F)cc7F)cc6)c(C(N)=O)c5N)C4)c3C)ccc2CC1C(=O)NC1CCCc2ccccc21)C(C)(C)C

> <Shape>
0.312

> <Color>
0.069

> <Negative vol penalty>
0.000

$$$$

  -OEChem-04042321453D

 95105  0     1  0  0  0  0  0999 V2000
  -17.5073  -23.8333   22.6738 C   0  0  0  0  0  0  0  0  0  0  0  0
  -18.5387  -23.5732   21.7771 C   0  0  0  0  0  0  0  0  0  0  0  0
  -25.4687  -12.3056   19.5122 C   0  0  0  0  0  0  0  0  0  0  0  0
  -25.1885  -13.1065   21.7743 C   0  0  0  0  0  0  0  0  0  0  0  0
  -17.3485  -25.1150   23.1991 C   0  0  0  0  0  0  0  0  0  0  0  0
  -19.4112  -24.5950   21.4043 C   0  0  0  0  0  0  0  0  0  0  0  0
  -26.5017  -24.0134   22.5347 C   0  0  0  0  0  0  0  0  0  0  0  0
  -24.8616  -11.1000   19.8638 C   0  0  0  0  0  0  0  0  0  0  0  0
  -24.5813  -11.9010   22.1259 C   0  0  0  0  0  0  0  0  0  0  0  0
  -27.8911  -23.8882   22.5251 C   0  0  0  0  0  0  0  0  0  0  0  0
  -25.5501   -8.7516   22.8834 C   0  0  0  0  0  0  0  0  0  0  0  0
  -25.9477   -8.1497   24.0772 C   0  0  0  0  0  0  0  0  0  0  0  0
  -28.0978  -26.1307   21.6437 C   0  0  0  0  0  0  0  0  0  0  0  0
  -28.2058  -23.4715   16.7168 C   0  0  0  0  0  0  0  0  0  0  0  0
  -23.6824   -8.2942   24.9046 C   0  0  0  0  0  0  0  0  0  0  0  0
  -25.6322  -13.3089   20.4675 C   0  0  0  0  0  0  0  0  0  0  0  0
  -27.5627  -14.7353   19.6037 C   0  0  0  0  0  0  0  0  0  0  0  0
  -18.2253  -26.1507   22.8400 C   0  0  0  0  0  0  0  0  0  0  0  0
  -25.9050  -25.2048   22.1128 C   0  0  0  0  0  0  0  0  0  0  0  0
  -19.2631  -25.8921   21.9243 C   0  0  0  0  0  0  0  0  0  0  0  0
  -26.7071  -26.2664   21.6628 C   0  0  0  0  0  0  0  0  0  0  0  0
  -29.3218  -24.1303   17.2326 C   0  0  0  0  0  0  0  0  0  0  0  0
  -28.3118  -22.1466   16.2936 C   0  0  0  0  0  0  0  0  0  0  0  0
  -30.5439  -23.4643   17.3251 C   0  0  0  0  0  0  0  0  0  0  0  0
  -30.6500  -22.1394   16.9018 C   0  0  0  0  0  0  0  0  0  0  0  0
  -24.4179  -10.8977   21.1707 C   0  0  0  0  0  0  0  0  0  0  0  0
  -28.6871  -24.9442   22.0805 C   0  0  0  0  0  0  0  0  0  0  0  0
  -24.2186   -9.1248   22.7002 C   0  0  0  0  0  0  0  0  0  0  0  0
  -25.0139   -7.9210   25.0878 C   0  0  0  0  0  0  0  0  0  0  0  0
  -23.2848   -8.8961   23.7107 C   0  0  0  0  0  0  0  0  0  0  0  0
  -29.5339  -21.4805   16.3861 C   0  0  0  0  0  0  0  0  0  0  0  0
  -26.2598  -14.5542   20.1050 C   0  0  0  0  0  0  0  0  0  0  0  0
  -27.6746  -16.0918   19.4204 C   0  0  0  0  0  0  0  0  0  0  0  0
  -32.8689  -24.7379   19.9574 C   0  0  0  0  0  0  0  0  0  0  0  0
  -34.1676  -24.8905   19.6754 C   0  0  0  0  0  0  0  0  0  0  0  0
  -28.5808  -13.7640   19.3283 C   0  0  0  0  0  0  0  0  0  0  0  0
  -22.7281  -27.1213   21.5556 C   0  0  0  0  0  0  0  0  0  0  0  0
  -24.7625  -29.0918   22.7340 C   0  0  0  0  0  0  0  0  0  0  0  0
  -26.3332  -31.6470   24.3591 C   0  0  0  0  0  0  0  0  0  0  0  0
  -25.5823  -20.9522   17.6471 C   0  0  0  0  0  0  0  0  0  0  0  0
  -17.9851  -27.5313   23.3975 C   0  0  0  0  0  0  0  0  0  0  0  0
  -24.4100  -25.3619   22.0481 C   0  0  0  0  0  0  0  0  0  0  0  0
  -26.0201  -27.5167   21.1855 C   0  0  0  0  0  0  0  0  0  0  0  0
  -32.1165  -25.4649   21.0267 C   0  0  0  0  0  0  0  0  0  0  0  0
  -19.1799  -28.4682   23.2402 C   0  0  0  0  0  0  0  0  0  0  0  0
  -29.5854  -28.9729   15.0433 C   0  0  0  0  0  0  0  0  0  0  0  0
  -24.6683  -19.8752   20.9153 C   0  0  0  0  0  0  0  0  0  0  0  0
  -28.2518  -28.7069   15.7333 C   0  0  0  0  0  0  0  0  0  0  0  0
  -30.2990  -27.6698   14.6997 C   0  0  0  0  0  0  0  0  0  0  0  0
  -19.7420  -28.3834   21.8247 C   0  0  0  0  0  0  0  0  0  0  0  0
  -25.1025  -18.4089   20.9520 C   0  0  0  0  0  0  0  0  0  0  0  0
  -24.1364  -20.2720   19.5400 C   0  0  0  0  0  0  0  0  0  0  0  0
  -25.4811  -18.5157   18.4532 C   0  0  0  0  0  0  0  0  0  0  0  0
  -28.4164  -27.8079   16.9503 C   0  0  0  0  0  0  0  0  0  0  0  0
  -30.4560  -26.7742   15.9201 C   0  0  0  0  0  0  0  0  0  0  0  0
  -30.8783  -23.5794   20.1745 C   0  0  0  0  0  0  0  0  0  0  0  0
  -20.2450  -26.9683   21.5147 C   0  0  1  0  0  0  0  0  0  0  0  0
  -23.9384  -26.7895   22.3780 C   0  0  1  0  0  0  0  0  0  0  0  0
  -26.0770  -18.0837   19.8040 C   0  0  2  0  0  0  0  0  0  0  0  0
  -30.6992  -24.9426   20.8289 C   0  0  1  0  0  0  0  0  0  1  0  0
  -31.9704  -21.4411   17.0103 C   0  0  0  0  0  0  0  0  0  0  0  0
  -34.8805  -24.1443   18.5986 C   0  0  0  0  0  0  0  0  0  0  0  0
  -26.3539  -34.1500   24.5385 C   0  0  0  0  0  0  0  0  0  0  0  0
  -26.2281  -29.2673   20.0647 C   0  0  0  0  0  0  0  0  0  0  0  0
  -27.0366  -31.5390   20.7387 C   0  0  0  0  0  0  0  0  0  0  0  0
  -24.5923  -31.1128   20.4804 C   0  0  0  0  0  0  0  0  0  0  0  0
  -25.6298  -31.5628   27.2326 C   0  0  0  0  0  0  0  0  0  0  0  0
  -27.0893  -21.4810   15.7475 C   0  0  0  0  0  0  0  0  0  0  0  0
  -29.1816  -25.5487   17.6785 C   0  0  0  0  0  0  0  0  0  0  0  0
  -31.7410  -24.1770   17.8819 C   0  0  0  0  0  0  0  0  0  0  0  0
  -25.8186  -30.1331   22.4624 C   0  0  1  0  0  0  0  0  0  0  0  0
  -25.7894  -32.8547   25.1009 C   0  0  2  0  0  0  0  0  0  0  0  0
  -25.9242  -30.4904   20.9529 C   0  0  0  0  0  0  0  0  0  0  0  0
  -25.5918  -15.7039   20.2322 N   0  0  0  0  0  0  0  0  0  0  0  0
  -26.4786  -16.6203   19.8082 N   0  0  0  0  0  0  0  0  0  0  0  0
  -24.9112  -27.8572   22.0905 N   0  0  0  0  0  0  0  0  0  0  0  0
  -25.1085  -19.9384   18.4961 N   0  0  0  0  0  0  0  0  0  0  0  0
  -28.6785  -16.8723   18.9669 N   0  0  0  0  0  0  0  0  0  0  0  0
  -29.4810  -13.4316   20.3498 N   0  0  0  0  0  0  0  0  0  0  0  0
  -21.5326  -26.7423   22.1356 N   0  0  0  0  0  0  0  0  0  0  0  0
  -25.5047  -31.2674   23.3244 N   0  0  0  0  0  0  0  0  0  0  0  0
  -26.5061  -20.5518   16.6894 N   0  0  0  0  0  0  0  0  0  0  0  0
  -32.0874  -23.7435   19.2777 N   0  3  1  0  0  0  0  0  0  0  0  0
  -29.1004  -26.5258   16.5382 N   0  3  0  0  0  0  0  0  0  0  0  0
  -26.1424  -32.7767   26.5466 N   0  3  0  0  0  0  0  0  0  0  0  0
  -28.6993  -13.2195   18.2044 O   0  0  0  0  0  0  0  0  0  0  0  0
  -22.8672  -27.6814   20.4746 O   0  0  0  0  0  0  0  0  0  0  0  0
  -23.8269  -29.3649   23.4912 O   0  0  0  0  0  0  0  0  0  0  0  0
  -27.3894  -31.0978   24.6645 O   0  0  0  0  0  0  0  0  0  0  0  0
  -25.2136  -22.1280   17.7393 O   0  0  0  0  0  0  0  0  0  0  0  0
  -23.8252   -9.7215   21.5141 O   0  0  0  0  0  0  0  0  0  0  0  0
  -30.0430  -24.8168   22.0780 O   0  0  0  0  0  0  0  0  0  1  0  0
  -25.3955   -7.3416   26.2336 F   0  0  0  0  0  0  0  0  0  0  0  0
  -22.0040   -9.2514   23.5400 F   0  0  0  0  0  0  0  0  0  0  0  0
  -29.6620  -19.8354   15.8586 Cl  0  0  0  0  0  0  0  0  0  0  0  0
  1  2  1  0  0  0  0
  1  5  2  0  0  0  0
  2  6  2  0  0  0  0
  3  8  2  0  0  0  0
  3 16  1  0  0  0  0
  4  9  1  0  0  0  0
  4 16  2  0  0  0  0
  5 18  1  0  0  0  0
  6 20  1  0  0  0  0
  7 10  2  0  0  0  0
  7 19  1  0  0  0  0
  8 26  1  0  0  0  0
  9 26  2  0  0  0  0
 10 27  1  0  0  0  0
 11 12  2  0  0  0  0
 11 28  1  0  0  0  0
 12 29  1  0  0  0  0
 13 21  1  0  0  0  0
 13 27  2  0  0  0  0
 14 22  2  0  0  0  0
 14 23  1  0  0  0  0
 15 29  2  0  0  0  0
 15 30  1  0  0  0  0
 16 32  1  0  0  0  0
 17 32  1  0  0  0  0
 17 33  2  0  0  0  0
 17 36  1  0  0  0  0
 18 20  2  0  0  0  0
 18 41  1  0  0  0  0
 19 21  2  0  0  0  0
 19 42  1  0  0  0  0
 20 57  1  0  0  0  0
 21 43  1  0  0  0  0
 22 24  1  0  0  0  0
 22 69  1  0  0  0  0
 23 31  2  0  0  0  0
 23 68  1  0  0  0  0
 24 25  2  0  0  0  0
 24 70  1  0  0  0  0
 25 31  1  0  0  0  0
 25 61  1  0  0  0  0
 26 91  1  0  0  0  0
 27 92  1  0  0  0  0
 28 30  2  0  0  0  0
 28 91  1  0  0  0  0
 29 93  1  0  0  0  0
 30 94  1  0  0  0  0
 31 95  1  0  0  0  0
 32 74  2  0  0  0  0
 33 75  1  0  0  0  0
 33 78  1  0  0  0  0
 34 35  2  0  0  0  0
 34 44  1  0  0  0  0
 34 83  1  0  0  0  0
 35 62  1  0  0  0  0
 36 79  1  0  0  0  0
 36 86  2  0  0  0  0
 37 58  1  0  0  0  0
 37 80  1  0  0  0  0
 37 87  2  0  0  0  0
 38 71  1  0  0  0  0
 38 76  1  0  0  0  0
 38 88  2  0  0  0  0
 39 72  1  0  0  0  0
 39 81  1  0  0  0  0
 39 89  2  0  0  0  0
 40 77  1  0  0  0  0
 40 82  1  0  0  0  0
 40 90  2  0  0  0  0
 41 45  1  0  0  0  0
 42 58  1  0  0  0  0
 43 76  1  0  0  0  0
 44 60  1  0  0  0  0
 45 50  1  0  0  0  0
 46 48  1  0  0  0  0
 46 49  1  0  0  0  0
 47 51  1  0  0  0  0
 47 52  1  0  0  0  0
 48 54  1  0  0  0  0
 49 55  1  0  0  0  0
 50 57  1  0  0  0  0
 51 59  1  0  0  0  0
 52 77  1  0  0  0  0
 53 59  1  0  0  0  0
 53 77  1  0  0  0  0
 54 84  1  0  0  0  0
 55 84  1  0  0  0  0
 56 60  1  0  0  0  0
 56 83  1  0  0  0  0
 57 80  1  0  0  0  0
 58 76  1  0  0  0  0
 59 75  1  0  0  0  0
 60 92  1  0  0  0  0
 63 72  1  0  0  0  0
 64 73  1  0  0  0  0
 65 73  1  0  0  0  0
 66 73  1  0  0  0  0
 67 85  1  0  0  0  0
 68 82  1  0  0  0  0
 69 84  1  0  0  0  0
 70 83  1  0  0  0  0
 71 73  1  0  0  0  0
 71 81  1  0  0  0  0
 72 85  1  0  0  0  0
 74 75  1  0  0  0  0
M  CHG  3  83   1  84   1  85   1
M  ISO  4  40 100  60 101  82 100  92 101
M  END
> <Batch ID>
0033

> <Smiles>
CC=C1C[101CH:1]([101O:1]c2ccc3c(c2)CN(C(=O)C(NC(=O)C(C)NC)C(C)(C)C)C(C(=O)NC2CCCc4ccccc42)C3)CN1Cc1c(CN2CCCCC2)cc(C[100NH:0][100C:0](=O)N2CCCC(n3nc(-c4ccc(Oc5ccc(F)cc5F)cc4)c(C(N)=O)c3N)C2)c(Cl)c1C

> <Shape>
0.245

> <Color>
0.049

> <Negative vol penalty>
0.000

$$$$

  -OEChem-04042321453D

 89 98  0     1  0  0  0  0  0999 V2000
  -27.4775  -18.8373   19.0229 C   0  0  0  0  0  0  0  0  0  0  0  0
  -26.3470  -19.6452   19.0922 C   0  0  0  0  0  0  0  0  0  0  0  0
  -23.1203  -13.7568   20.8856 C   0  0  0  0  0  0  0  0  0  0  0  0
  -24.8353  -14.5743   22.3782 C   0  0  0  0  0  0  0  0  0  0  0  0
  -28.6543  -19.2312   19.6585 C   0  0  0  0  0  0  0  0  0  0  0  0
  -26.3923  -20.8469   19.7980 C   0  0  0  0  0  0  0  0  0  0  0  0
  -23.4572  -26.0412   18.4160 C   0  0  0  0  0  0  0  0  0  0  0  0
  -24.7330  -27.5521   24.4888 C   0  0  0  0  0  0  0  0  0  0  0  0
  -24.8803  -26.1908   24.7551 C   0  0  0  0  0  0  0  0  0  0  0  0
  -24.0142  -12.8166   20.3734 C   0  0  0  0  0  0  0  0  0  0  0  0
  -25.7292  -13.6340   21.8660 C   0  0  0  0  0  0  0  0  0  0  0  0
  -22.2734  -26.6044   18.8904 C   0  0  0  0  0  0  0  0  0  0  0  0
  -28.5695  -11.6888   20.7000 C   0  0  0  0  0  0  0  0  0  0  0  0
  -29.8606  -12.1202   20.3960 C   0  0  0  0  0  0  0  0  0  0  0  0
  -23.5412  -27.9473   20.4423 C   0  0  0  0  0  0  0  0  0  0  0  0
  -28.9579  -13.7069   18.8134 C   0  0  0  0  0  0  0  0  0  0  0  0
  -23.5308  -14.6357   21.8880 C   0  0  0  0  0  0  0  0  0  0  0  0
  -21.3809  -15.3535   23.0585 C   0  0  0  0  0  0  0  0  0  0  0  0
  -28.7169  -20.4430   20.3644 C   0  0  0  0  0  0  0  0  0  0  0  0
  -24.6933  -26.4195   18.9596 C   0  0  0  0  0  0  0  0  0  0  0  0
  -27.5707  -21.2567   20.4448 C   0  0  0  0  0  0  0  0  0  0  0  0
  -24.7395  -27.3893   19.9713 C   0  0  0  0  0  0  0  0  0  0  0  0
  -23.4768  -28.1502   24.5881 C   0  0  0  0  0  0  0  0  0  0  0  0
  -23.7714  -25.4277   25.1205 C   0  0  0  0  0  0  0  0  0  0  0  0
  -22.5152  -26.0258   25.2197 C   0  0  0  0  0  0  0  0  0  0  0  0
  -22.3679  -27.3871   24.9535 C   0  0  0  0  0  0  0  0  0  0  0  0
  -25.3187  -12.7551   20.8635 C   0  0  0  0  0  0  0  0  0  0  0  0
  -22.3150  -27.5554   19.9057 C   0  0  0  0  0  0  0  0  0  0  0  0
  -27.4725  -12.2664   20.0607 C   0  0  0  0  0  0  0  0  0  0  0  0
  -30.0548  -13.1293   19.4528 C   0  0  0  0  0  0  0  0  0  0  0  0
  -27.6667  -13.2755   19.1174 C   0  0  0  0  0  0  0  0  0  0  0  0
  -22.6080  -15.6076   22.4171 C   0  0  0  0  0  0  0  0  0  0  0  0
  -20.8913  -16.5987   23.3687 C   0  0  0  0  0  0  0  0  0  0  0  0
  -20.7407  -14.1037   23.3480 C   0  0  0  0  0  0  0  0  0  0  0  0
  -27.0141  -24.9087   20.5201 C   0  0  0  0  0  0  0  0  0  0  0  0
  -28.5385  -27.7561   20.2187 C   0  0  0  0  0  0  0  0  0  0  0  0
  -28.3093  -31.1335   19.7856 C   0  0  0  0  0  0  0  0  0  0  0  0
  -23.5930  -21.7580   24.3376 C   0  0  0  0  0  0  0  0  0  0  0  0
  -29.9974  -20.8039   21.0750 C   0  0  0  0  0  0  0  0  0  0  0  0
  -25.9632  -25.8222   18.4184 C   0  0  0  0  0  0  0  0  0  0  0  0
  -26.0423  -27.8446   20.5745 C   0  0  0  0  0  0  0  0  0  0  0  0
  -30.0721  -22.2716   21.4877 C   0  0  0  0  0  0  0  0  0  0  0  0
  -18.2358  -26.3911   22.0780 C   0  0  0  0  0  0  0  0  0  0  0  0
  -21.0078  -21.1460   21.8800 C   0  0  0  0  0  0  0  0  0  0  0  0
  -28.7687  -22.7070   22.1498 C   0  0  0  0  0  0  0  0  0  0  0  0
  -21.0146  -19.6181   21.8054 C   0  0  0  0  0  0  0  0  0  0  0  0
  -19.1407  -26.9764   20.9961 C   0  0  0  0  0  0  0  0  0  0  0  0
  -17.7275  -27.4540   23.0506 C   0  0  0  0  0  0  0  0  0  0  0  0
  -22.4198  -21.6972   22.0544 C   0  0  0  0  0  0  0  0  0  0  0  0
  -23.1626  -19.6219   23.1567 C   0  0  0  0  0  0  0  0  0  0  0  0
  -20.5088  -28.4172   22.6393 C   0  0  0  0  0  0  0  0  0  0  0  0
  -27.5877  -22.5793   21.1800 C   0  0  1  0  0  0  0  0  0  0  0  0
  -27.1279  -25.9041   19.4003 C   0  0  1  0  0  0  0  0  0  0  0  0
  -21.7618  -19.0019   23.0030 C   0  0  2  0  0  0  0  0  0  0  0  0
  -20.5180  -27.4443   21.4643 C   0  0  2  0  0  0  0  0  0  1  0  0
  -18.6304  -27.7494   24.2582 C   0  0  2  0  0  0  0  0  0  0  0  0
  -23.3467  -29.6098   24.2980 C   0  0  0  0  0  0  0  0  0  0  0  0
  -21.3267  -25.2054   25.6103 C   0  0  0  0  0  0  0  0  0  0  0  0
  -18.2457  -29.0824   24.9023 C   0  0  0  0  0  0  0  0  0  0  0  0
  -29.7252  -33.1986   19.6182 C   0  0  0  0  0  0  0  0  0  0  0  0
  -28.9662  -27.7049   23.2394 C   0  0  0  0  0  0  0  0  0  0  0  0
  -29.5035  -30.1479   23.1347 C   0  0  0  0  0  0  0  0  0  0  0  0
  -30.9347  -28.5048   21.9205 C   0  0  0  0  0  0  0  0  0  0  0  0
  -27.3518  -31.7083   17.0448 C   0  0  0  0  0  0  0  0  0  0  0  0
  -23.9564  -23.9715   25.3983 C   0  0  0  0  0  0  0  0  0  0  0  0
  -21.0182  -28.0333   25.0607 C   0  0  0  0  0  0  0  0  0  0  0  0
  -28.6196  -29.0179   21.0435 C   0  0  1  0  0  0  0  0  0  0  0  0
  -29.0380  -32.0807   18.8495 C   0  0  2  0  0  0  0  0  0  0  0  0
  -29.4811  -28.8341   22.3247 C   0  0  0  0  0  0  0  0  0  0  0  0
  -22.8812  -16.9117   22.3246 N   0  0  0  0  0  0  0  0  0  0  0  0
  -21.8187  -17.4883   22.9118 N   0  0  0  0  0  0  0  0  0  0  0  0
  -27.2562  -27.2265   20.0159 N   0  0  0  0  0  0  0  0  0  0  0  0
  -23.0690  -21.0842   23.2219 N   0  0  0  0  0  0  0  0  0  0  0  0
  -19.7623  -17.0086   23.9850 N   0  0  0  0  0  0  0  0  0  0  0  0
  -21.0199  -13.4774   24.5703 N   0  0  0  0  0  0  0  0  0  0  0  0
  -27.5832  -23.6808   20.2413 N   0  0  0  0  0  0  0  0  0  0  0  0
  -29.0998  -30.0625   20.1454 N   0  0  0  0  0  0  0  0  0  0  0  0
  -23.4703  -23.1419   24.3183 N   0  0  0  0  0  0  0  0  0  0  0  0
  -20.1069  -27.6953   23.9053 N   0  3  2  0  0  0  0  0  0  0  0  0
  -28.0815  -32.6929   17.8844 N   0  3  0  0  0  0  0  0  0  0  0  0
  -19.9575  -13.5503   22.5394 O   0  0  0  0  0  0  0  0  0  0  0  0
  -26.4529  -25.2314   21.5606 O   0  0  0  0  0  0  0  0  0  0  0  0
  -29.5740  -27.2627   19.7649 O   0  0  0  0  0  0  0  0  0  0  0  0
  -27.1557  -31.3265   20.1631 O   0  0  0  0  0  0  0  0  0  0  0  0
  -24.1263  -21.1692   25.2842 O   0  0  0  0  0  0  0  0  0  0  0  0
  -26.1912  -11.8376   20.3641 O   0  0  0  0  0  0  0  0  0  0  0  0
  -21.1609  -28.1062   20.3710 O   0  0  0  0  0  0  0  0  0  1  0  0
  -31.2947  -13.5445   19.1621 F   0  0  0  0  0  0  0  0  0  0  0  0
  -26.6167  -13.8350   18.5008 F   0  0  0  0  0  0  0  0  0  0  0  0
  1  2  1  0  0  0  0
  1  5  2  0  0  0  0
  2  6  2  0  0  0  0
  3 10  2  0  0  0  0
  3 17  1  0  0  0  0
  4 11  1  0  0  0  0
  4 17  2  0  0  0  0
  5 19  1  0  0  0  0
  6 21  1  0  0  0  0
  7 12  2  0  0  0  0
  7 20  1  0  0  0  0
  8  9  1  0  0  0  0
  8 23  2  0  0  0  0
  9 24  2  0  0  0  0
 10 27  1  0  0  0  0
 11 27  2  0  0  0  0
 12 28  1  0  0  0  0
 13 14  2  0  0  0  0
 13 29  1  0  0  0  0
 14 30  1  0  0  0  0
 15 22  1  0  0  0  0
 15 28  2  0  0  0  0
 16 30  2  0  0  0  0
 16 31  1  0  0  0  0
 17 32  1  0  0  0  0
 18 32  1  0  0  0  0
 18 33  2  0  0  0  0
 18 34  1  0  0  0  0
 19 21  2  0  0  0  0
 19 39  1  0  0  0  0
 20 22  2  0  0  0  0
 20 40  1  0  0  0  0
 21 52  1  0  0  0  0
 22 41  1  0  0  0  0
 23 26  1  0  0  0  0
 23 57  1  0  0  0  0
 24 25  1  0  0  0  0
 24 65  1  0  0  0  0
 25 26  2  0  0  0  0
 25 58  1  0  0  0  0
 26 66  1  0  0  0  0
 27 86  1  0  0  0  0
 28 87  1  0  0  0  0
 29 31  2  0  0  0  0
 29 86  1  0  0  0  0
 30 88  1  0  0  0  0
 31 89  1  0  0  0  0
 32 70  2  0  0  0  0
 33 71  1  0  0  0  0
 33 74  1  0  0  0  0
 34 75  1  0  0  0  0
 34 81  2  0  0  0  0
 35 53  1  0  0  0  0
 35 76  1  0  0  0  0
 35 82  2  0  0  0  0
 36 67  1  0  0  0  0
 36 72  1  0  0  0  0
 36 83  2  0  0  0  0
 37 68  1  0  0  0  0
 37 77  1  0  0  0  0
 37 84  2  0  0  0  0
 38 73  1  0  0  0  0
 38 78  1  0  0  0  0
 38 85  2  0  0  0  0
 39 42  1  0  0  0  0
 40 53  1  0  0  0  0
 41 72  1  0  0  0  0
 42 45  1  0  0  0  0
 43 47  1  0  0  0  0
 43 48  1  0  0  0  0
 44 46  1  0  0  0  0
 44 49  1  0  0  0  0
 45 52  1  0  0  0  0
 46 54  1  0  0  0  0
 47 55  1  0  0  0  0
 48 56  1  0  0  0  0
 49 73  1  0  0  0  0
 50 54  1  0  0  0  0
 50 73  1  0  0  0  0
 51 55  1  0  0  0  0
 51 79  1  0  0  0  0
 52 76  1  0  0  0  0
 53 72  1  0  0  0  0
 54 71  1  0  0  0  0
 55 87  1  0  0  0  0
 56 59  1  0  0  0  0
 56 79  1  0  0  0  0
 60 68  1  0  0  0  0
 61 69  1  0  0  0  0
 62 69  1  0  0  0  0
 63 69  1  0  0  0  0
 64 80  1  0  0  0  0
 65 78  1  0  0  0  0
 66 79  1  0  0  0  0
 67 69  1  0  0  0  0
 67 77  1  0  0  0  0
 68 80  1  0  0  0  0
 70 71  1  0  0  0  0
M  CHG  2  79   1  80   1
M  ISO  4  38 100  55 101  78 100  87 101
M  END
> <Batch ID>
0033

> <Smiles>
CNC(C)C(=O)NC(C(=O)N1Cc2cc([101O:1][101CH:1]3CCCC(C)N(Cc4c(C)ccc(C[100NH:0][100C:0](=O)N5CCCC(n6nc(-c7ccc(Oc8ccc(F)cc8F)cc7)c(C(N)=O)c6N)C5)c4C)C3)ccc2CC1C(=O)NC1CCCc2ccccc21)C(C)(C)C

> <Shape>
0.219

> <Color>
0.057

> <Negative vol penalty>
0.000

$$$$

  -OEChem-04042321453D

 87 96  0     1  0  0  0  0  0999 V2000
  -17.6305  -26.7983   22.5959 C   0  0  0  0  0  0  0  0  0  0  0  0
  -18.8106  -26.4275   21.9594 C   0  0  0  0  0  0  0  0  0  0  0  0
  -24.3900  -13.3625   21.2051 C   0  0  0  0  0  0  0  0  0  0  0  0
  -26.3233  -12.9965   19.8031 C   0  0  0  0  0  0  0  0  0  0  0  0
  -17.5653  -28.0033   23.2943 C   0  0  0  0  0  0  0  0  0  0  0  0
  -19.9261  -27.2621   22.0200 C   0  0  0  0  0  0  0  0  0  0  0  0
  -25.8000  -25.5454   22.2559 C   0  0  0  0  0  0  0  0  0  0  0  0
  -23.9526  -12.0647   20.9407 C   0  0  0  0  0  0  0  0  0  0  0  0
  -25.8859  -11.6986   19.5387 C   0  0  0  0  0  0  0  0  0  0  0  0
  -26.7877  -25.4442   21.2771 C   0  0  0  0  0  0  0  0  0  0  0  0
  -24.6761   -8.9311   21.9845 C   0  0  0  0  0  0  0  0  0  0  0  0
  -24.2225   -8.1681   23.0605 C   0  0  0  0  0  0  0  0  0  0  0  0
  -27.5939  -27.6384   21.8725 C   0  0  0  0  0  0  0  0  0  0  0  0
  -31.6939  -21.1442   17.3268 C   0  0  0  0  0  0  0  0  0  0  0  0
  -29.5841  -22.4097   16.0114 C   0  0  0  0  0  0  0  0  0  0  0  0
  -22.0604   -7.9615   22.0023 C   0  0  0  0  0  0  0  0  0  0  0  0
  -25.5754  -13.8285   20.6362 C   0  0  0  0  0  0  0  0  0  0  0  0
  -26.8679  -15.5863   21.9580 C   0  0  0  0  0  0  0  0  0  0  0  0
  -18.6834  -28.8485   23.3716 C   0  0  0  0  0  0  0  0  0  0  0  0
  -25.6948  -26.7003   23.0443 C   0  0  0  0  0  0  0  0  0  0  0  0
  -19.8754  -28.4802   22.7189 C   0  0  0  0  0  0  0  0  0  0  0  0
  -26.6056  -27.7507   22.8623 C   0  0  0  0  0  0  0  0  0  0  0  0
  -30.6606  -20.3863   16.7759 C   0  0  0  0  0  0  0  0  0  0  0  0
  -31.6723  -22.5348   17.2201 C   0  0  0  0  0  0  0  0  0  0  0  0
  -29.6057  -21.0190   16.1181 C   0  0  0  0  0  0  0  0  0  0  0  0
  -30.6174  -23.1676   16.5623 C   0  0  0  0  0  0  0  0  0  0  0  0
  -24.7005  -11.2328   20.1076 C   0  0  0  0  0  0  0  0  0  0  0  0
  -27.6830  -26.4920   21.0833 C   0  0  0  0  0  0  0  0  0  0  0  0
  -23.8219   -9.2093   20.9174 C   0  0  0  0  0  0  0  0  0  0  0  0
  -22.9146   -7.6833   23.0693 C   0  0  0  0  0  0  0  0  0  0  0  0
  -22.5140   -8.7245   20.9263 C   0  0  0  0  0  0  0  0  0  0  0  0
  -26.0275  -15.1692   20.9084 C   0  0  0  0  0  0  0  0  0  0  0  0
  -26.9951  -16.9420   21.7780 C   0  0  0  0  0  0  0  0  0  0  0  0
  -30.1130  -26.7768   17.5706 C   0  0  0  0  0  0  0  0  0  0  0  0
  -31.2145  -27.5054   17.3537 C   0  0  0  0  0  0  0  0  0  0  0  0
  -27.4790  -14.8170   23.0023 C   0  0  0  0  0  0  0  0  0  0  0  0
  -23.4635  -28.9212   23.4831 C   0  0  0  0  0  0  0  0  0  0  0  0
  -25.5014  -29.9583   25.7839 C   0  0  0  0  0  0  0  0  0  0  0  0
  -28.6943  -30.0882   26.9819 C   0  0  0  0  0  0  0  0  0  0  0  0
  -26.4944  -20.4821   16.9751 C   0  0  0  0  0  0  0  0  0  0  0  0
  -18.5507  -30.1633   24.0984 C   0  0  0  0  0  0  0  0  0  0  0  0
  -24.6406  -26.7828   24.1139 C   0  0  0  0  0  0  0  0  0  0  0  0
  -26.5480  -29.0036   23.6962 C   0  0  0  0  0  0  0  0  0  0  0  0
  -28.7581  -27.3257   17.8923 C   0  0  0  0  0  0  0  0  0  0  0  0
  -19.8911  -30.8143   24.4296 C   0  0  0  0  0  0  0  0  0  0  0  0
  -24.6516  -20.7209   20.0121 C   0  0  0  0  0  0  0  0  0  0  0  0
  -20.8125  -30.7872   23.2142 C   0  0  0  0  0  0  0  0  0  0  0  0
  -24.8711  -19.3628   20.6809 C   0  0  0  0  0  0  0  0  0  0  0  0
  -24.5410  -20.5914   18.4945 C   0  0  0  0  0  0  0  0  0  0  0  0
  -25.8814  -18.5234   18.5191 C   0  0  0  0  0  0  0  0  0  0  0  0
  -28.8130  -24.9403   18.2204 C   0  0  0  0  0  0  0  0  0  0  0  0
  -21.1142  -29.3469   22.7827 C   0  0  1  0  0  0  0  0  0  0  0  0
  -24.3032  -28.2167   24.5109 C   0  0  1  0  0  0  0  0  0  0  0  0
  -26.0549  -18.6095   20.0451 C   0  0  2  0  0  0  0  0  0  0  0  0
  -28.2132  -26.2208   18.7838 C   0  0  1  0  0  0  0  0  0  1  0  0
  -30.7055  -18.8988   16.9019 C   0  0  0  0  0  0  0  0  0  0  0  0
  -32.7891  -23.3255   17.8185 C   0  0  0  0  0  0  0  0  0  0  0  0
  -30.0554  -31.0414   28.8624 C   0  0  0  0  0  0  0  0  0  0  0  0
  -25.3884  -32.7090   24.4683 C   0  0  0  0  0  0  0  0  0  0  0  0
  -27.4362  -33.3363   25.7649 C   0  0  0  0  0  0  0  0  0  0  0  0
  -25.3326  -32.7452   26.9683 C   0  0  0  0  0  0  0  0  0  0  0  0
  -29.5022  -27.3983   27.9148 C   0  0  0  0  0  0  0  0  0  0  0  0
  -28.4888  -20.2284   15.5200 C   0  0  0  0  0  0  0  0  0  0  0  0
  -30.5722  -24.6619   16.4358 C   0  0  0  0  0  0  0  0  0  0  0  0
  -26.6625  -30.9221   25.8283 C   0  0  1  0  0  0  0  0  0  0  0  0
  -29.2605  -29.8425   28.3688 C   0  0  2  0  0  0  0  0  0  0  0  0
  -26.2051  -32.4055   25.7402 C   0  0  0  0  0  0  0  0  0  0  0  0
  -25.6475  -16.1783   20.1201 N   0  0  0  0  0  0  0  0  0  0  0  0
  -26.2518  -17.2428   20.6747 N   0  0  0  0  0  0  0  0  0  0  0  0
  -25.4955  -29.0394   24.7249 N   0  0  0  0  0  0  0  0  0  0  0  0
  -25.6952  -19.8691   17.9541 N   0  0  0  0  0  0  0  0  0  0  0  0
  -27.6690  -17.8941   22.4574 N   0  0  0  0  0  0  0  0  0  0  0  0
  -27.2438  -13.4359   23.0398 N   0  0  0  0  0  0  0  0  0  0  0  0
  -22.1030  -28.7539   23.6575 N   0  0  0  0  0  0  0  0  0  0  0  0
  -27.4148  -30.5994   27.0359 N   0  0  0  0  0  0  0  0  0  0  0  0
  -27.5719  -19.7311   16.5213 N   0  0  0  0  0  0  0  0  0  0  0  0
  -30.1939  -25.3484   17.7137 N   0  3  1  0  0  0  0  0  0  0  0  0
  -30.1601  -28.6544   28.3580 N   0  3  0  0  0  0  0  0  0  0  0  0
  -28.1986  -15.3415   23.8858 O   0  0  0  0  0  0  0  0  0  0  0  0
  -24.0095  -29.5697   22.5983 O   0  0  0  0  0  0  0  0  0  0  0  0
  -24.6354  -30.0139   26.6606 O   0  0  0  0  0  0  0  0  0  0  0  0
  -29.3253  -29.8539   25.9537 O   0  0  0  0  0  0  0  0  0  0  0  0
  -26.2680  -21.6169   16.5416 O   0  0  0  0  0  0  0  0  0  0  0  0
  -24.2740   -9.9662   19.8496 O   0  0  0  0  0  0  0  0  0  0  0  0
  -28.6476  -26.3961   20.1282 O   0  0  0  0  0  0  0  0  0  1  0  0
  -22.4796   -6.9494   24.1019 F   0  0  0  0  0  0  0  0  0  0  0  0
  -21.6891   -8.9875   19.9035 F   0  0  0  0  0  0  0  0  0  0  0  0
  1  2  1  0  0  0  0
  1  5  2  0  0  0  0
  2  6  2  0  0  0  0
  3  8  2  0  0  0  0
  3 17  1  0  0  0  0
  4  9  1  0  0  0  0
  4 17  2  0  0  0  0
  5 19  1  0  0  0  0
  6 21  1  0  0  0  0
  7 10  2  0  0  0  0
  7 20  1  0  0  0  0
  8 27  1  0  0  0  0
  9 27  2  0  0  0  0
 10 28  1  0  0  0  0
 11 12  2  0  0  0  0
 11 29  1  0  0  0  0
 12 30  1  0  0  0  0
 13 22  1  0  0  0  0
 13 28  2  0  0  0  0
 14 23  2  0  0  0  0
 14 24  1  0  0  0  0
 15 25  2  0  0  0  0
 15 26  1  0  0  0  0
 16 30  2  0  0  0  0
 16 31  1  0  0  0  0
 17 32  1  0  0  0  0
 18 32  1  0  0  0  0
 18 33  2  0  0  0  0
 18 36  1  0  0  0  0
 19 21  2  0  0  0  0
 19 41  1  0  0  0  0
 20 22  2  0  0  0  0
 20 42  1  0  0  0  0
 21 52  1  0  0  0  0
 22 43  1  0  0  0  0
 23 25  1  0  0  0  0
 23 56  1  0  0  0  0
 24 26  2  0  0  0  0
 24 57  1  0  0  0  0
 25 63  1  0  0  0  0
 26 64  1  0  0  0  0
 27 84  1  0  0  0  0
 28 85  1  0  0  0  0
 29 31  2  0  0  0  0
 29 84  1  0  0  0  0
 30 86  1  0  0  0  0
 31 87  1  0  0  0  0
 32 68  2  0  0  0  0
 33 69  1  0  0  0  0
 33 72  1  0  0  0  0
 34 35  2  0  0  0  0
 34 44  1  0  0  0  0
 34 77  1  0  0  0  0
 36 73  1  0  0  0  0
 36 79  2  0  0  0  0
 37 53  1  0  0  0  0
 37 74  1  0  0  0  0
 37 80  2  0  0  0  0
 38 65  1  0  0  0  0
 38 70  1  0  0  0  0
 38 81  2  0  0  0  0
 39 66  1  0  0  0  0
 39 75  1  0  0  0  0
 39 82  2  0  0  0  0
 40 71  1  0  0  0  0
 40 76  1  0  0  0  0
 40 83  2  0  0  0  0
 41 45  1  0  0  0  0
 42 53  1  0  0  0  0
 43 70  1  0  0  0  0
 44 55  1  0  0  0  0
 45 47  1  0  0  0  0
 46 48  1  0  0  0  0
 46 49  1  0  0  0  0
 47 52  1  0  0  0  0
 48 54  1  0  0  0  0
 49 71  1  0  0  0  0
 50 54  1  0  0  0  0
 50 71  1  0  0  0  0
 51 55  1  0  0  0  0
 51 77  1  0  0  0  0
 52 74  1  0  0  0  0
 53 70  1  0  0  0  0
 54 69  1  0  0  0  0
 55 85  1  0  0  0  0
 58 66  1  0  0  0  0
 59 67  1  0  0  0  0
 60 67  1  0  0  0  0
 61 67  1  0  0  0  0
 62 78  1  0  0  0  0
 63 76  1  0  0  0  0
 64 77  1  0  0  0  0
 65 67  1  0  0  0  0
 65 75  1  0  0  0  0
 66 78  1  0  0  0  0
 68 69  1  0  0  0  0
M  CHG  2  77   1  78   1
M  ISO  4  40 100  55 101  76 100  85 101
M  END
> <Batch ID>
0033

> <Smiles>
C=C1C[101CH:1]([101O:1]c2ccc3c(c2)CN(C(=O)C(NC(=O)C(C)NC)C(C)(C)C)C(C(=O)NC2CCCc4ccccc42)C3)CN1Cc1cc(C[100NH:0][100C:0](=O)N2CCCC(n3nc(-c4ccc(Oc5ccc(F)cc5F)cc4)c(C(N)=O)c3N)C2)c(C)cc1C

> <Shape>
0.250

> <Color>
0.065

> <Negative vol penalty>
0.000

$$$$

  -OEChem-04042321453D

 87 96  0     1  0  0  0  0  0999 V2000
  -39.6585  -26.1768   14.0371 C   0  0  0  0  0  0  0  0  0  0  0  0
  -39.3392  -25.4905   15.2043 C   0  0  0  0  0  0  0  0  0  0  0  0
  -23.0734   -9.8686   19.9426 C   0  0  0  0  0  0  0  0  0  0  0  0
  -23.8313   -9.8783   22.2367 C   0  0  0  0  0  0  0  0  0  0  0  0
  -38.8239  -27.1947   13.5777 C   0  0  0  0  0  0  0  0  0  0  0  0
  -38.1854  -25.8226   15.9135 C   0  0  0  0  0  0  0  0  0  0  0  0
  -35.5704  -21.7445   17.3886 C   0  0  0  0  0  0  0  0  0  0  0  0
  -22.3284   -8.7164   20.1936 C   0  0  0  0  0  0  0  0  0  0  0  0
  -23.0862   -8.7261   22.4877 C   0  0  0  0  0  0  0  0  0  0  0  0
  -36.0458  -21.0513   18.5009 C   0  0  0  0  0  0  0  0  0  0  0  0
  -19.3783   -7.9242   21.6433 C   0  0  0  0  0  0  0  0  0  0  0  0
  -18.0718   -7.8783   21.1569 C   0  0  0  0  0  0  0  0  0  0  0  0
  -34.3996  -22.1487   19.8810 C   0  0  0  0  0  0  0  0  0  0  0  0
  -32.0653  -16.5904   22.5340 C   0  0  0  0  0  0  0  0  0  0  0  0
  -18.6312   -5.9328   19.8380 C   0  0  0  0  0  0  0  0  0  0  0  0
  -23.8249  -10.4495   20.9641 C   0  0  0  0  0  0  0  0  0  0  0  0
  -24.1688  -12.9742   20.8407 C   0  0  0  0  0  0  0  0  0  0  0  0
  -37.6542  -27.5329   14.2764 C   0  0  0  0  0  0  0  0  0  0  0  0
  -34.5113  -22.6547   17.5165 C   0  0  0  0  0  0  0  0  0  0  0  0
  -37.3350  -26.8469   15.4638 C   0  0  0  0  0  0  0  0  0  0  0  0
  -33.9108  -22.8503   18.7684 C   0  0  0  0  0  0  0  0  0  0  0  0
  -32.6730  -17.4667   23.4330 C   0  0  0  0  0  0  0  0  0  0  0  0
  -31.8934  -18.3425   24.1885 C   0  0  0  0  0  0  0  0  0  0  0  0
  -30.5059  -18.3419   24.0450 C   0  0  0  0  0  0  0  0  0  0  0  0
  -29.8981  -17.4655   23.1459 C   0  0  0  0  0  0  0  0  0  0  0  0
  -30.6778  -16.5898   22.3904 C   0  0  0  0  0  0  0  0  0  0  0  0
  -22.3348   -8.1451   21.4661 C   0  0  0  0  0  0  0  0  0  0  0  0
  -35.4623  -21.2554   19.7479 C   0  0  0  0  0  0  0  0  0  0  0  0
  -20.3113   -6.9745   21.2270 C   0  0  0  0  0  0  0  0  0  0  0  0
  -17.6982   -6.8826   20.2543 C   0  0  0  0  0  0  0  0  0  0  0  0
  -19.9377   -5.9788   20.3244 C   0  0  0  0  0  0  0  0  0  0  0  0
  -24.5951  -11.6394   20.7054 C   0  0  0  0  0  0  0  0  0  0  0  0
  -25.2619  -13.7223   20.4774 C   0  0  0  0  0  0  0  0  0  0  0  0
  -36.2629  -18.5727   23.0004 C   0  0  0  0  0  0  0  0  0  0  0  0
  -36.8735  -18.7301   24.1808 C   0  0  0  0  0  0  0  0  0  0  0  0
  -22.8983  -13.4916   21.2577 C   0  0  0  0  0  0  0  0  0  0  0  0
  -34.1686  -25.7788   17.0405 C   0  0  0  0  0  0  0  0  0  0  0  0
  -31.0507  -25.1367   17.6638 C   0  0  0  0  0  0  0  0  0  0  0  0
  -29.1963  -23.1017   19.9956 C   0  0  0  0  0  0  0  0  0  0  0  0
  -30.7287  -14.7639   20.6555 C   0  0  0  0  0  0  0  0  0  0  0  0
  -36.8079  -28.6724   13.7665 C   0  0  0  0  0  0  0  0  0  0  0  0
  -33.9925  -23.3747   16.3020 C   0  0  0  0  0  0  0  0  0  0  0  0
  -32.7579  -23.8012   18.9551 C   0  0  0  0  0  0  0  0  0  0  0  0
  -36.9436  -18.5446   21.6676 C   0  0  0  0  0  0  0  0  0  0  0  0
  -35.4078  -28.7104   14.3738 C   0  0  0  0  0  0  0  0  0  0  0  0
  -29.6146  -12.3475   18.2898 C   0  0  0  0  0  0  0  0  0  0  0  0
  -35.4767  -28.5244   15.8862 C   0  0  0  0  0  0  0  0  0  0  0  0
  -28.1743  -12.0577   18.7185 C   0  0  0  0  0  0  0  0  0  0  0  0
  -30.5288  -12.5774   19.4919 C   0  0  0  0  0  0  0  0  0  0  0  0
  -28.6211  -13.3053   20.8704 C   0  0  0  0  0  0  0  0  0  0  0  0
  -34.5539  -18.6874   21.4032 C   0  0  0  0  0  0  0  0  0  0  0  0
  -36.0792  -27.1614   16.2476 C   0  0  1  0  0  0  0  0  0  0  0  0
  -33.2465  -24.6610   16.6432 C   0  0  1  0  0  0  0  0  0  0  0  0
  -27.6492  -13.1311   19.6919 C   0  0  2  0  0  0  0  0  0  0  0  0
  -35.8646  -19.1589   20.7895 C   0  0  1  0  0  0  0  0  0  1  0  0
  -32.5486  -19.2820   25.1510 C   0  0  0  0  0  0  0  0  0  0  0  0
  -29.6701  -19.2817   24.8557 C   0  0  0  0  0  0  0  0  0  0  0  0
  -28.4091  -17.4680   22.9924 C   0  0  0  0  0  0  0  0  0  0  0  0
  -26.9224  -22.0582   19.8010 C   0  0  0  0  0  0  0  0  0  0  0  0
  -30.0870  -27.6691   19.0667 C   0  0  0  0  0  0  0  0  0  0  0  0
  -28.4618  -26.2583   20.3460 C   0  0  0  0  0  0  0  0  0  0  0  0
  -28.3007  -26.4006   17.8608 C   0  0  0  0  0  0  0  0  0  0  0  0
  -30.2570  -20.4025   20.5854 C   0  0  0  0  0  0  0  0  0  0  0  0
  -34.1674  -17.4498   23.5657 C   0  0  0  0  0  0  0  0  0  0  0  0
  -30.1957  -25.0945   18.9073 C   0  0  1  0  0  0  0  0  0  0  0  0
  -28.4218  -21.8348   19.6802 C   0  0  2  0  0  0  0  0  0  0  0  0
  -29.2892  -26.3500   19.0461 C   0  0  0  0  0  0  0  0  0  0  0  0
  -25.8603  -11.5420   20.2884 N   0  0  0  0  0  0  0  0  0  0  0  0
  -26.2383  -12.8251   20.1585 N   0  0  0  0  0  0  0  0  0  0  0  0
  -32.2905  -24.4863   17.7386 N   0  0  0  0  0  0  0  0  0  0  0  0
  -29.9698  -13.6099   20.3673 N   0  0  0  0  0  0  0  0  0  0  0  0
  -25.4734  -15.0535   20.4026 N   0  0  0  0  0  0  0  0  0  0  0  0
  -21.8854  -12.5838   21.5954 N   0  0  0  0  0  0  0  0  0  0  0  0
  -30.0813  -15.6907   21.4720 N   0  0  0  0  0  0  0  0  0  0  0  0
  -35.0974  -26.1126   16.0733 N   0  0  0  0  0  0  0  0  0  0  0  0
  -29.4653  -23.8326   18.8578 N   0  0  0  0  0  0  0  0  0  0  0  0
  -34.8292  -18.6205   22.9031 N   0  3  1  0  0  0  0  0  0  0  0  0
  -28.8112  -20.7429   20.6167 N   0  3  0  0  0  0  0  0  0  0  0  0
  -22.6630  -14.7225   21.3131 O   0  0  0  0  0  0  0  0  0  0  0  0
  -34.0456  -26.3008   18.1423 O   0  0  0  0  0  0  0  0  0  0  0  0
  -30.6307  -25.7190   16.6607 O   0  0  0  0  0  0  0  0  0  0  0  0
  -29.5262  -23.4139   21.1377 O   0  0  0  0  0  0  0  0  0  0  0  0
  -31.8584  -14.9311   20.1887 O   0  0  0  0  0  0  0  0  0  0  0  0
  -21.6077   -7.0210   21.7114 O   0  0  0  0  0  0  0  0  0  0  0  0
  -35.9249  -20.5806   20.8353 O   0  0  0  0  0  0  0  0  0  1  0  0
  -16.4432   -6.8377   19.7885 F   0  0  0  0  0  0  0  0  0  0  0  0
  -20.8293   -5.0630   19.9217 F   0  0  0  0  0  0  0  0  0  0  0  0
  1  2  1  0  0  0  0
  1  5  2  0  0  0  0
  2  6  2  0  0  0  0
  3  8  2  0  0  0  0
  3 16  1  0  0  0  0
  4  9  1  0  0  0  0
  4 16  2  0  0  0  0
  5 18  1  0  0  0  0
  6 20  1  0  0  0  0
  7 10  2  0  0  0  0
  7 19  1  0  0  0  0
  8 27  1  0  0  0  0
  9 27  2  0  0  0  0
 10 28  1  0  0  0  0
 11 12  2  0  0  0  0
 11 29  1  0  0  0  0
 12 30  1  0  0  0  0
 13 21  1  0  0  0  0
 13 28  2  0  0  0  0
 14 22  1  0  0  0  0
 14 26  2  0  0  0  0
 15 30  2  0  0  0  0
 15 31  1  0  0  0  0
 16 32  1  0  0  0  0
 17 32  1  0  0  0  0
 17 33  2  0  0  0  0
 17 36  1  0  0  0  0
 18 20  2  0  0  0  0
 18 41  1  0  0  0  0
 19 21  2  0  0  0  0
 19 42  1  0  0  0  0
 20 52  1  0  0  0  0
 21 43  1  0  0  0  0
 22 23  2  0  0  0  0
 22 64  1  0  0  0  0
 23 24  1  0  0  0  0
 23 56  1  0  0  0  0
 24 25  2  0  0  0  0
 24 57  1  0  0  0  0
 25 26  1  0  0  0  0
 25 58  1  0  0  0  0
 26 74  1  0  0  0  0
 27 84  1  0  0  0  0
 28 85  1  0  0  0  0
 29 31  2  0  0  0  0
 29 84  1  0  0  0  0
 30 86  1  0  0  0  0
 31 87  1  0  0  0  0
 32 68  2  0  0  0  0
 33 69  1  0  0  0  0
 33 72  1  0  0  0  0
 34 35  2  0  0  0  0
 34 44  1  0  0  0  0
 34 77  1  0  0  0  0
 36 73  1  0  0  0  0
 36 79  2  0  0  0  0
 37 53  1  0  0  0  0
 37 75  1  0  0  0  0
 37 80  2  0  0  0  0
 38 65  1  0  0  0  0
 38 70  1  0  0  0  0
 38 81  2  0  0  0  0
 39 66  1  0  0  0  0
 39 76  1  0  0  0  0
 39 82  2  0  0  0  0
 40 71  1  0  0  0  0
 40 74  1  0  0  0  0
 40 83  2  0  0  0  0
 41 45  1  0  0  0  0
 42 53  1  0  0  0  0
 43 70  1  0  0  0  0
 44 55  1  0  0  0  0
 45 47  1  0  0  0  0
 46 48  1  0  0  0  0
 46 49  1  0  0  0  0
 47 52  1  0  0  0  0
 48 54  1  0  0  0  0
 49 71  1  0  0  0  0
 50 54  1  0  0  0  0
 50 71  1  0  0  0  0
 51 55  1  0  0  0  0
 51 77  1  0  0  0  0
 52 75  1  0  0  0  0
 53 70  1  0  0  0  0
 54 69  1  0  0  0  0
 55 85  1  0  0  0  0
 59 66  1  0  0  0  0
 60 67  1  0  0  0  0
 61 67  1  0  0  0  0
 62 67  1  0  0  0  0
 63 78  1  0  0  0  0
 64 77  1  0  0  0  0
 65 67  1  0  0  0  0
 65 76  1  0  0  0  0
 66 78  1  0  0  0  0
 68 69  1  0  0  0  0
M  CHG  2  77   1  78   1
M  ISO  4  40 100  55 101  74 100  85 101
M  END
> <Batch ID>
0033

> <Smiles>
C=C1C[101CH:1]([101O:1]c2ccc3c(c2)CN(C(=O)C(NC(=O)C(C)NC)C(C)(C)C)C(C(=O)NC2CCCc4ccccc42)C3)CN1Cc1cc([100NH:0][100C:0](=O)N2CCCC(n3nc(-c4ccc(Oc5ccc(F)cc5F)cc4)c(C(N)=O)c3N)C2)c(C)c(C)c1C

> <Shape>
0.221

> <Color>
0.188

> <Negative vol penalty>
0.000

$$$$

  -OEChem-04042321453D

 87 96  0     1  0  0  0  0  0999 V2000
  -26.1472  -35.4929   22.9190 C   0  0  0  0  0  0  0  0  0  0  0  0
  -26.6752  -34.2191   22.7350 C   0  0  0  0  0  0  0  0  0  0  0  0
  -25.2848  -17.5042   19.7136 C   0  0  0  0  0  0  0  0  0  0  0  0
  -27.2068  -17.9891   21.0948 C   0  0  0  0  0  0  0  0  0  0  0  0
  -24.8548  -35.6449   23.4195 C   0  0  0  0  0  0  0  0  0  0  0  0
  -25.9115  -33.0964   23.0525 C   0  0  0  0  0  0  0  0  0  0  0  0
  -26.1563  -29.5086   19.4870 C   0  0  0  0  0  0  0  0  0  0  0  0
  -25.1062  -16.2955   20.3864 C   0  0  0  0  0  0  0  0  0  0  0  0
  -27.0282  -16.7804   21.7677 C   0  0  0  0  0  0  0  0  0  0  0  0
  -27.3012  -28.7135   19.4613 C   0  0  0  0  0  0  0  0  0  0  0  0
  -24.3600  -12.9153   21.5006 C   0  0  0  0  0  0  0  0  0  0  0  0
  -24.0983  -11.7783   20.7362 C   0  0  0  0  0  0  0  0  0  0  0  0
  -26.1056  -26.9650   20.6155 C   0  0  0  0  0  0  0  0  0  0  0  0
  -34.5523  -22.4027   18.7299 C   0  0  0  0  0  0  0  0  0  0  0  0
  -26.2066  -12.0628   19.5911 C   0  0  0  0  0  0  0  0  0  0  0  0
  -26.3352  -18.3510   20.0677 C   0  0  0  0  0  0  0  0  0  0  0  0
  -25.9653  -20.8491   19.7070 C   0  0  0  0  0  0  0  0  0  0  0  0
  -24.0713  -34.5234   23.7342 C   0  0  0  0  0  0  0  0  0  0  0  0
  -24.9785  -29.0413   20.0878 C   0  0  0  0  0  0  0  0  0  0  0  0
  -24.6079  -33.2336   23.5589 C   0  0  0  0  0  0  0  0  0  0  0  0
  -24.9463  -27.7551   20.6452 C   0  0  0  0  0  0  0  0  0  0  0  0
  -33.5531  -22.8792   17.8813 C   0  0  0  0  0  0  0  0  0  0  0  0
  -32.7921  -23.9874   18.2533 C   0  0  0  0  0  0  0  0  0  0  0  0
  -33.0303  -24.6192   19.4739 C   0  0  0  0  0  0  0  0  0  0  0  0
  -34.0296  -24.1427   20.3225 C   0  0  0  0  0  0  0  0  0  0  0  0
  -25.9779  -15.9336   21.4135 C   0  0  0  0  0  0  0  0  0  0  0  0
  -27.2769  -27.4426   20.0282 C   0  0  0  0  0  0  0  0  0  0  0  0
  -25.5450  -13.6262   21.3102 C   0  0  0  0  0  0  0  0  0  0  0  0
  -25.0216  -11.3521   19.7815 C   0  0  0  0  0  0  0  0  0  0  0  0
  -26.4683  -13.1999   20.3555 C   0  0  0  0  0  0  0  0  0  0  0  0
  -34.7906  -23.0345   19.9505 C   0  0  0  0  0  0  0  0  0  0  0  0
  -26.5206  -19.5994   19.3727 C   0  0  0  0  0  0  0  0  0  0  0  0
  -26.4420  -21.7052   18.7445 C   0  0  0  0  0  0  0  0  0  0  0  0
  -25.0963  -21.2044   20.7906 C   0  0  0  0  0  0  0  0  0  0  0  0
  -23.1877  -29.9778   22.5413 C   0  0  0  0  0  0  0  0  0  0  0  0
  -21.2224  -27.6138   21.5061 C   0  0  0  0  0  0  0  0  0  0  0  0
  -20.8675  -24.6831   19.7939 C   0  0  0  0  0  0  0  0  0  0  0  0
  -31.3029  -21.6110   15.2497 C   0  0  0  0  0  0  0  0  0  0  0  0
  -22.6970  -34.7384   24.3170 C   0  0  0  0  0  0  0  0  0  0  0  0
  -23.7442  -29.9008   20.0836 C   0  0  0  0  0  0  0  0  0  0  0  0
  -23.7011  -27.1988   21.2844 C   0  0  0  0  0  0  0  0  0  0  0  0
  -21.8162  -33.4923   24.2759 C   0  0  0  0  0  0  0  0  0  0  0  0
  -27.9077  -21.7768   14.1907 C   0  0  0  0  0  0  0  0  0  0  0  0
  -22.5916  -32.2740   24.7671 C   0  0  0  0  0  0  0  0  0  0  0  0
  -27.1171  -21.3503   15.4288 C   0  0  0  0  0  0  0  0  0  0  0  0
  -28.9792  -24.7407   21.3224 C   0  0  0  0  0  0  0  0  0  0  0  0
  -29.2166  -21.0007   14.0619 C   0  0  0  0  0  0  0  0  0  0  0  0
  -29.2898  -20.6142   16.4948 C   0  0  0  0  0  0  0  0  0  0  0  0
  -30.2219  -24.4106   20.5205 C   0  0  0  0  0  0  0  0  0  0  0  0
  -30.3781  -26.6983   21.3818 C   0  0  0  0  0  0  0  0  0  0  0  0
  -23.8015  -31.9910   23.8683 C   0  0  1  0  0  0  0  0  0  0  0  0
  -22.7499  -29.5239   21.1775 C   0  0  1  0  0  0  0  0  0  0  0  0
  -27.9883  -21.4087   16.6980 C   0  0  2  0  0  0  0  0  0  0  0  0
  -28.9274  -26.2577   21.2641 C   0  0  1  0  0  0  0  0  0  1  0  0
  -31.7209  -24.4958   17.3409 C   0  0  0  0  0  0  0  0  0  0  0  0
  -34.2744  -24.8307   21.6300 C   0  0  0  0  0  0  0  0  0  0  0  0
  -19.1474  -22.9721   19.1527 C   0  0  0  0  0  0  0  0  0  0  0  0
  -21.2886  -26.4883   24.3414 C   0  0  0  0  0  0  0  0  0  0  0  0
  -20.3786  -24.3393   23.4348 C   0  0  0  0  0  0  0  0  0  0  0  0
  -19.0389  -26.4354   23.2502 C   0  0  0  0  0  0  0  0  0  0  0  0
  -21.2834  -25.1778   16.9058 C   0  0  0  0  0  0  0  0  0  0  0  0
  -33.3180  -22.1848   16.5800 C   0  0  0  0  0  0  0  0  0  0  0  0
  -32.2111  -25.8113   19.8721 C   0  0  0  0  0  0  0  0  0  0  0  0
  -21.0825  -26.1381   21.7917 C   0  0  1  0  0  0  0  0  0  0  0  0
  -19.8659  -24.2473   18.7397 C   0  0  2  0  0  0  0  0  0  0  0  0
  -20.4713  -25.8612   23.1943 C   0  0  0  0  0  0  0  0  0  0  0  0
  -27.2910  -19.6524   18.2829 N   0  0  0  0  0  0  0  0  0  0  0  0
  -27.2231  -20.9458   17.9240 N   0  0  0  0  0  0  0  0  0  0  0  0
  -22.5218  -28.0798   21.2609 N   0  0  0  0  0  0  0  0  0  0  0  0
  -29.9964  -21.0976   15.2982 N   0  0  0  0  0  0  0  0  0  0  0  0
  -26.2650  -23.0259   18.5284 N   0  0  0  0  0  0  0  0  0  0  0  0
  -24.7033  -20.2021   21.6881 N   0  0  0  0  0  0  0  0  0  0  0  0
  -23.3814  -31.3420   22.6449 N   0  0  0  0  0  0  0  0  0  0  0  0
  -20.3146  -25.5790   20.6844 N   0  0  0  0  0  0  0  0  0  0  0  0
  -31.9698  -21.6744   16.4671 N   0  0  0  0  0  0  0  0  0  0  0  0
  -31.1919  -25.4981   20.9199 N   0  3  2  0  0  0  0  0  0  0  0  0
  -20.5548  -23.9993   17.4417 N   0  3  0  0  0  0  0  0  0  0  0  0
  -24.6674  -22.3725   20.9487 O   0  0  0  0  0  0  0  0  0  0  0  0
  -23.3372  -29.1516   23.4339 O   0  0  0  0  0  0  0  0  0  0  0  0
  -20.2150  -28.3255   21.4938 O   0  0  0  0  0  0  0  0  0  0  0  0
  -22.0236  -24.2673   19.8265 O   0  0  0  0  0  0  0  0  0  0  0  0
  -31.8338  -21.9900   14.2002 O   0  0  0  0  0  0  0  0  0  0  0  0
  -25.8037  -14.7543   22.0704 O   0  0  0  0  0  0  0  0  0  0  0  0
  -28.3932  -26.6648   20.0050 O   0  0  0  0  0  0  0  0  0  1  0  0
  -24.7708  -10.2593   19.0486 F   0  0  0  0  0  0  0  0  0  0  0  0
  -27.6090  -13.8780   20.1689 F   0  0  0  0  0  0  0  0  0  0  0  0
  -36.0371  -22.4141   20.9717 Cl  0  0  0  0  0  0  0  0  0  0  0  0
  1  2  1  0  0  0  0
  1  5  2  0  0  0  0
  2  6  2  0  0  0  0
  3  8  2  0  0  0  0
  3 16  1  0  0  0  0
  4  9  1  0  0  0  0
  4 16  2  0  0  0  0
  5 18  1  0  0  0  0
  6 20  1  0  0  0  0
  7 10  2  0  0  0  0
  7 19  1  0  0  0  0
  8 26  1  0  0  0  0
  9 26  2  0  0  0  0
 10 27  1  0  0  0  0
 11 12  2  0  0  0  0
 11 28  1  0  0  0  0
 12 29  1  0  0  0  0
 13 21  1  0  0  0  0
 13 27  2  0  0  0  0
 14 22  2  0  0  0  0
 14 31  1  0  0  0  0
 15 29  2  0  0  0  0
 15 30  1  0  0  0  0
 16 32  1  0  0  0  0
 17 32  1  0  0  0  0
 17 33  2  0  0  0  0
 17 34  1  0  0  0  0
 18 20  2  0  0  0  0
 18 39  1  0  0  0  0
 19 21  2  0  0  0  0
 19 40  1  0  0  0  0
 20 51  1  0  0  0  0
 21 41  1  0  0  0  0
 22 23  1  0  0  0  0
 22 62  1  0  0  0  0
 23 24  2  0  0  0  0
 23 55  1  0  0  0  0
 24 25  1  0  0  0  0
 24 63  1  0  0  0  0
 25 31  2  0  0  0  0
 25 56  1  0  0  0  0
 26 83  1  0  0  0  0
 27 84  1  0  0  0  0
 28 30  2  0  0  0  0
 28 83  1  0  0  0  0
 29 85  1  0  0  0  0
 30 86  1  0  0  0  0
 31 87  1  0  0  0  0
 32 67  2  0  0  0  0
 33 68  1  0  0  0  0
 33 71  1  0  0  0  0
 34 72  1  0  0  0  0
 34 78  2  0  0  0  0
 35 52  1  0  0  0  0
 35 73  1  0  0  0  0
 35 79  2  0  0  0  0
 36 64  1  0  0  0  0
 36 69  1  0  0  0  0
 36 80  2  0  0  0  0
 37 65  1  0  0  0  0
 37 74  1  0  0  0  0
 37 81  2  0  0  0  0
 38 70  1  0  0  0  0
 38 75  1  0  0  0  0
 38 82  2  0  0  0  0
 39 42  1  0  0  0  0
 40 52  1  0  0  0  0
 41 69  1  0  0  0  0
 42 44  1  0  0  0  0
 43 45  1  0  0  0  0
 43 47  1  0  0  0  0
 44 51  1  0  0  0  0
 45 53  1  0  0  0  0
 46 49  1  0  0  0  0
 46 54  1  0  0  0  0
 47 70  1  0  0  0  0
 48 53  1  0  0  0  0
 48 70  1  0  0  0  0
 49 76  1  0  0  0  0
 50 54  1  0  0  0  0
 50 76  1  0  0  0  0
 51 73  1  0  0  0  0
 52 69  1  0  0  0  0
 53 68  1  0  0  0  0
 54 84  1  0  0  0  0
 57 65  1  0  0  0  0
 58 66  1  0  0  0  0
 59 66  1  0  0  0  0
 60 66  1  0  0  0  0
 61 77  1  0  0  0  0
 62 75  1  0  0  0  0
 63 76  1  0  0  0  0
 64 66  1  0  0  0  0
 64 74  1  0  0  0  0
 65 77  1  0  0  0  0
 67 68  1  0  0  0  0
M  CHG  2  76   1  77   1
M  ISO  4  38 100  54 101  75 100  84 101
M  END
> <Batch ID>
0033

> <Smiles>
CNC(C)C(=O)NC(C(=O)N1Cc2cc([101O:1][101CH:1]3CCN(Cc4c(C)c(Cl)cc(C[100NH:0][100C:0](=O)N5CCCC(n6nc(-c7ccc(Oc8ccc(F)cc8F)cc7)c(C(N)=O)c6N)C5)c4C)C3)ccc2CC1C(=O)NC1CCCc2ccccc21)C(C)(C)C

> <Shape>
0.210

> <Color>
0.074

> <Negative vol penalty>
0.000

$$$$

  -OEChem-04042321453D

 86 95  0     1  0  0  0  0  0999 V2000
  -29.2559  -10.2193   17.0119 C   0  0  0  0  0  0  0  0  0  0  0  0
  -27.9424  -10.6570   16.8756 C   0  0  0  0  0  0  0  0  0  0  0  0
  -26.3039  -31.7180   20.1019 C   0  0  0  0  0  0  0  0  0  0  0  0
  -25.9101  -30.9069   22.3434 C   0  0  0  0  0  0  0  0  0  0  0  0
  -30.0556  -10.7259   18.0355 C   0  0  0  0  0  0  0  0  0  0  0  0
  -27.4275  -11.6007   17.7636 C   0  0  0  0  0  0  0  0  0  0  0  0
  -22.8156  -17.0755   18.0374 C   0  0  0  0  0  0  0  0  0  0  0  0
  -26.6808  -32.9583   20.6169 C   0  0  0  0  0  0  0  0  0  0  0  0
  -26.2871  -32.1472   22.8584 C   0  0  0  0  0  0  0  0  0  0  0  0
  -21.7221  -17.5266   18.7751 C   0  0  0  0  0  0  0  0  0  0  0  0
  -29.4085  -34.3258   22.0738 C   0  0  0  0  0  0  0  0  0  0  0  0
  -30.5558  -34.9229   21.5517 C   0  0  0  0  0  0  0  0  0  0  0  0
  -23.2205  -18.3905   20.4567 C   0  0  0  0  0  0  0  0  0  0  0  0
  -19.0522  -23.9882   21.9913 C   0  0  0  0  0  0  0  0  0  0  0  0
  -20.2495  -25.0676   23.7909 C   0  0  0  0  0  0  0  0  0  0  0  0
  -29.2433  -36.8220   20.8392 C   0  0  0  0  0  0  0  0  0  0  0  0
  -25.9185  -30.6923   20.9652 C   0  0  0  0  0  0  0  0  0  0  0  0
  -26.3631  -28.3060   20.1807 C   0  0  0  0  0  0  0  0  0  0  0  0
  -29.5532  -11.6835   18.9306 C   0  0  0  0  0  0  0  0  0  0  0  0
  -24.1217  -17.2691   18.5099 C   0  0  0  0  0  0  0  0  0  0  0  0
  -28.2208  -12.1196   18.8010 C   0  0  0  0  0  0  0  0  0  0  0  0
  -24.3291  -17.9430   19.7218 C   0  0  0  0  0  0  0  0  0  0  0  0
  -18.7891  -22.8978   22.8203 C   0  0  0  0  0  0  0  0  0  0  0  0
  -19.2561  -22.8922   24.1347 C   0  0  0  0  0  0  0  0  0  0  0  0
  -19.7825  -25.0731   22.4766 C   0  0  0  0  0  0  0  0  0  0  0  0
  -26.6724  -33.1729   21.9951 C   0  0  0  0  0  0  0  0  0  0  0  0
  -21.9243  -18.1817   19.9864 C   0  0  0  0  0  0  0  0  0  0  0  0
  -28.1785  -34.9767   21.9785 C   0  0  0  0  0  0  0  0  0  0  0  0
  -30.4733  -36.1710   20.9345 C   0  0  0  0  0  0  0  0  0  0  0  0
  -28.0959  -36.2248   21.3613 C   0  0  0  0  0  0  0  0  0  0  0  0
  -19.9863  -23.9771   24.6200 C   0  0  0  0  0  0  0  0  0  0  0  0
  -25.5285  -29.4111   20.4338 C   0  0  0  0  0  0  0  0  0  0  0  0
  -25.5177  -27.3437   19.6849 C   0  0  0  0  0  0  0  0  0  0  0  0
  -18.0937  -19.4606   21.4062 C   0  0  0  0  0  0  0  0  0  0  0  0
  -17.1946  -18.7990   22.1444 C   0  0  0  0  0  0  0  0  0  0  0  0
  -27.7761  -28.1621   20.3764 C   0  0  0  0  0  0  0  0  0  0  0  0
  -26.5104  -15.3483   19.3515 C   0  0  0  0  0  0  0  0  0  0  0  0
  -28.1470  -18.1374   19.6054 C   0  0  0  0  0  0  0  0  0  0  0  0
  -28.0577  -21.5167   20.0737 C   0  0  0  0  0  0  0  0  0  0  0  0
  -19.6592  -26.3442   20.3051 C   0  0  0  0  0  0  0  0  0  0  0  0
  -30.4407  -12.1668   20.0501 C   0  0  0  0  0  0  0  0  0  0  0  0
  -25.2917  -16.8000   17.6892 C   0  0  0  0  0  0  0  0  0  0  0  0
  -25.7120  -18.1939   20.2632 C   0  0  0  0  0  0  0  0  0  0  0  0
  -18.5675  -19.0549   20.0455 C   0  0  0  0  0  0  0  0  0  0  0  0
  -29.9360  -13.4421   20.7202 C   0  0  0  0  0  0  0  0  0  0  0  0
  -21.4218  -26.8499   17.2530 C   0  0  0  0  0  0  0  0  0  0  0  0
  -28.4443  -13.3334   21.0196 C   0  0  0  0  0  0  0  0  0  0  0  0
  -22.7533  -27.4579   17.6998 C   0  0  0  0  0  0  0  0  0  0  0  0
  -20.2572  -27.3434   18.1098 C   0  0  0  0  0  0  0  0  0  0  0  0
  -21.7688  -27.7846   20.0044 C   0  0  0  0  0  0  0  0  0  0  0  0
  -19.9321  -20.8313   20.9305 C   0  0  0  0  0  0  0  0  0  0  0  0
  -27.6338  -13.1606   19.7294 C   0  0  1  0  0  0  0  0  0  0  0  0
  -26.5577  -16.5960   18.5156 C   0  0  1  0  0  0  0  0  0  0  0  0
  -22.9806  -27.2672   19.2122 C   0  0  2  0  0  0  0  0  0  0  0  0
  -19.9983  -19.5687   20.0830 C   0  0  1  0  0  0  0  0  0  1  0  0
  -18.9661  -21.7135   25.0111 C   0  0  0  0  0  0  0  0  0  0  0  0
  -28.9162  -23.8699   20.2256 C   0  0  0  0  0  0  0  0  0  0  0  0
  -28.8928  -17.2966   22.4421 C   0  0  0  0  0  0  0  0  0  0  0  0
  -29.5485  -19.6694   22.8983 C   0  0  0  0  0  0  0  0  0  0  0  0
  -30.7493  -18.3601   21.1471 C   0  0  0  0  0  0  0  0  0  0  0  0
  -27.6758  -21.9666   17.1736 C   0  0  0  0  0  0  0  0  0  0  0  0
  -18.0023  -21.7438   22.2724 C   0  0  0  0  0  0  0  0  0  0  0  0
  -28.3850  -19.1408   20.7079 C   0  0  1  0  0  0  0  0  0  0  0  0
  -28.7325  -22.6549   19.3296 C   0  0  2  0  0  0  0  0  0  0  0  0
  -29.3677  -18.6105   21.7899 C   0  0  0  0  0  0  0  0  0  0  0  0
  -24.2510  -29.1740   20.1241 N   0  0  0  0  0  0  0  0  0  0  0  0
  -24.2766  -27.9090   19.6713 N   0  0  0  0  0  0  0  0  0  0  0  0
  -26.8234  -17.7108   19.4272 N   0  0  0  0  0  0  0  0  0  0  0  0
  -20.5414  -27.1264   19.5300 N   0  0  0  0  0  0  0  0  0  0  0  0
  -25.7224  -26.0776   19.2635 N   0  0  0  0  0  0  0  0  0  0  0  0
  -28.4929  -29.2492   20.8949 N   0  0  0  0  0  0  0  0  0  0  0  0
  -20.0497  -26.1803   21.6337 N   0  0  0  0  0  0  0  0  0  0  0  0
  -27.4954  -14.4286   19.0457 N   0  0  0  0  0  0  0  0  0  0  0  0
  -28.8225  -20.3695   20.0542 N   0  0  0  0  0  0  0  0  0  0  0  0
  -18.8507  -20.5455   21.9693 N   0  3  1  0  0  0  0  0  0  0  0  0
  -27.9153  -23.0596   18.1508 N   0  3  0  0  0  0  0  0  0  0  0  0
  -28.3878  -27.1066   20.0843 O   0  0  0  0  0  0  0  0  0  0  0  0
  -25.6453  -15.2294   20.2112 O   0  0  0  0  0  0  0  0  0  0  0  0
  -29.0993  -17.7520   18.9226 O   0  0  0  0  0  0  0  0  0  0  0  0
  -26.9635  -21.6347   20.6208 O   0  0  0  0  0  0  0  0  0  0  0  0
  -18.6471  -25.8332   19.8188 O   0  0  0  0  0  0  0  0  0  0  0  0
  -27.0404  -34.3830   22.4980 O   0  0  0  0  0  0  0  0  0  0  0  0
  -20.8586  -18.6225   20.7088 O   0  0  0  0  0  0  0  0  0  1  0  0
  -31.5755  -36.7450   20.4345 F   0  0  0  0  0  0  0  0  0  0  0  0
  -26.9173  -36.8556   21.2678 F   0  0  0  0  0  0  0  0  0  0  0  0
  -20.5798  -24.0101   26.2411 Cl  0  0  0  0  0  0  0  0  0  0  0  0
  1  2  1  0  0  0  0
  1  5  2  0  0  0  0
  2  6  2  0  0  0  0
  3  8  2  0  0  0  0
  3 17  1  0  0  0  0
  4  9  1  0  0  0  0
  4 17  2  0  0  0  0
  5 19  1  0  0  0  0
  6 21  1  0  0  0  0
  7 10  2  0  0  0  0
  7 20  1  0  0  0  0
  8 26  1  0  0  0  0
  9 26  2  0  0  0  0
 10 27  1  0  0  0  0
 11 12  2  0  0  0  0
 11 28  1  0  0  0  0
 12 29  1  0  0  0  0
 13 22  1  0  0  0  0
 13 27  2  0  0  0  0
 14 23  1  0  0  0  0
 14 25  2  0  0  0  0
 15 25  1  0  0  0  0
 15 31  2  0  0  0  0
 16 29  2  0  0  0  0
 16 30  1  0  0  0  0
 17 32  1  0  0  0  0
 18 32  1  0  0  0  0
 18 33  2  0  0  0  0
 18 36  1  0  0  0  0
 19 21  2  0  0  0  0
 19 41  1  0  0  0  0
 20 22  2  0  0  0  0
 20 42  1  0  0  0  0
 21 52  1  0  0  0  0
 22 43  1  0  0  0  0
 23 24  2  0  0  0  0
 23 62  1  0  0  0  0
 24 31  1  0  0  0  0
 24 56  1  0  0  0  0
 25 72  1  0  0  0  0
 26 82  1  0  0  0  0
 27 83  1  0  0  0  0
 28 30  2  0  0  0  0
 28 82  1  0  0  0  0
 29 84  1  0  0  0  0
 30 85  1  0  0  0  0
 31 86  1  0  0  0  0
 32 66  2  0  0  0  0
 33 67  1  0  0  0  0
 33 70  1  0  0  0  0
 34 35  2  0  0  0  0
 34 44  1  0  0  0  0
 34 75  1  0  0  0  0
 36 71  1  0  0  0  0
 36 77  2  0  0  0  0
 37 53  1  0  0  0  0
 37 73  1  0  0  0  0
 37 78  2  0  0  0  0
 38 63  1  0  0  0  0
 38 68  1  0  0  0  0
 38 79  2  0  0  0  0
 39 64  1  0  0  0  0
 39 74  1  0  0  0  0
 39 80  2  0  0  0  0
 40 69  1  0  0  0  0
 40 72  1  0  0  0  0
 40 81  2  0  0  0  0
 41 45  1  0  0  0  0
 42 53  1  0  0  0  0
 43 68  1  0  0  0  0
 44 55  1  0  0  0  0
 45 47  1  0  0  0  0
 46 48  1  0  0  0  0
 46 49  1  0  0  0  0
 47 52  1  0  0  0  0
 48 54  1  0  0  0  0
 49 69  1  0  0  0  0
 50 54  1  0  0  0  0
 50 69  1  0  0  0  0
 51 55  1  0  0  0  0
 51 75  1  0  0  0  0
 52 73  1  0  0  0  0
 53 68  1  0  0  0  0
 54 67  1  0  0  0  0
 55 83  1  0  0  0  0
 57 64  1  0  0  0  0
 58 65  1  0  0  0  0
 59 65  1  0  0  0  0
 60 65  1  0  0  0  0
 61 76  1  0  0  0  0
 62 75  1  0  0  0  0
 63 65  1  0  0  0  0
 63 74  1  0  0  0  0
 64 76  1  0  0  0  0
 66 67  1  0  0  0  0
M  CHG  2  75   1  76   1
M  ISO  4  40 100  55 101  72 100  83 101
M  END
> <Batch ID>
0033

> <Smiles>
C=C1C[101CH:1]([101O:1]c2ccc3c(c2)CN(C(=O)C(NC(=O)C(C)NC)C(C)(C)C)C(C(=O)NC2CCCc4ccccc42)C3)CN1Cc1cc([100NH:0][100C:0](=O)N2CCCC(n3nc(-c4ccc(Oc5ccc(F)cc5F)cc4)c(C(N)=O)c3N)C2)cc(Cl)c1C

> <Shape>
0.222

> <Color>
0.073

> <Negative vol penalty>
0.000

$$$$

  -OEChem-04042321453D

 87 96  0     1  0  0  0  0  0999 V2000
  -16.8097  -30.8751   23.9341 C   0  0  0  0  0  0  0  0  0  0  0  0
  -18.0145  -30.4385   24.4756 C   0  0  0  0  0  0  0  0  0  0  0  0
  -22.5838  -10.4472   20.2933 C   0  0  0  0  0  0  0  0  0  0  0  0
  -24.1558   -9.6868   21.9630 C   0  0  0  0  0  0  0  0  0  0  0  0
  -16.0325  -30.0035   23.1725 C   0  0  0  0  0  0  0  0  0  0  0  0
  -18.4422  -29.1295   24.2567 C   0  0  0  0  0  0  0  0  0  0  0  0
  -24.2165  -27.2107   23.5623 C   0  0  0  0  0  0  0  0  0  0  0  0
  -30.8165  -17.8551   23.9648 C   0  0  0  0  0  0  0  0  0  0  0  0
  -30.0823  -18.7191   24.7773 C   0  0  0  0  0  0  0  0  0  0  0  0
  -21.7700   -9.3457   20.5578 C   0  0  0  0  0  0  0  0  0  0  0  0
  -23.3419   -8.5853   22.2275 C   0  0  0  0  0  0  0  0  0  0  0  0
  -25.1239  -26.6277   24.4458 C   0  0  0  0  0  0  0  0  0  0  0  0
  -20.5100   -7.9404   23.9551 C   0  0  0  0  0  0  0  0  0  0  0  0
  -20.2758   -7.6155   25.2912 C   0  0  0  0  0  0  0  0  0  0  0  0
  -24.4932  -24.4425   23.6419 C   0  0  0  0  0  0  0  0  0  0  0  0
  -21.2670   -5.4409   24.9361 C   0  0  0  0  0  0  0  0  0  0  0  0
  -23.7767  -10.6177   20.9958 C   0  0  0  0  0  0  0  0  0  0  0  0
  -24.2774  -13.1150   20.8512 C   0  0  0  0  0  0  0  0  0  0  0  0
  -16.4556  -28.6860   22.9361 C   0  0  0  0  0  0  0  0  0  0  0  0
  -23.4315  -26.4121   22.7183 C   0  0  0  0  0  0  0  0  0  0  0  0
  -17.6693  -28.2389   23.4924 C   0  0  0  0  0  0  0  0  0  0  0  0
  -23.5784  -25.0180   22.7468 C   0  0  0  0  0  0  0  0  0  0  0  0
  -30.3561  -17.5403   22.6862 C   0  0  0  0  0  0  0  0  0  0  0  0
  -28.8878  -19.2682   24.3113 C   0  0  0  0  0  0  0  0  0  0  0  0
  -29.1615  -18.0894   22.2203 C   0  0  0  0  0  0  0  0  0  0  0  0
  -28.4273  -18.9534   23.0328 C   0  0  0  0  0  0  0  0  0  0  0  0
  -22.1490   -8.4147   21.5249 C   0  0  0  0  0  0  0  0  0  0  0  0
  -25.2602  -25.2432   24.4877 C   0  0  0  0  0  0  0  0  0  0  0  0
  -21.1226   -7.0155   23.1094 C   0  0  0  0  0  0  0  0  0  0  0  0
  -20.6544   -6.3658   25.7817 C   0  0  0  0  0  0  0  0  0  0  0  0
  -21.5011   -5.7658   23.6000 C   0  0  0  0  0  0  0  0  0  0  0  0
  -24.6181  -11.7551   20.7227 C   0  0  0  0  0  0  0  0  0  0  0  0
  -25.4124  -13.7904   20.4744 C   0  0  0  0  0  0  0  0  0  0  0  0
  -23.0451  -13.7140   21.2736 C   0  0  0  0  0  0  0  0  0  0  0  0
  -20.3120  -25.9177   22.3607 C   0  0  0  0  0  0  0  0  0  0  0  0
  -21.2788  -24.1549   19.8151 C   0  0  0  0  0  0  0  0  0  0  0  0
  -23.7589  -22.3580   18.3094 C   0  0  0  0  0  0  0  0  0  0  0  0
  -30.9510  -14.4604   20.6191 C   0  0  0  0  0  0  0  0  0  0  0  0
  -15.5586  -27.7662   22.1461 C   0  0  0  0  0  0  0  0  0  0  0  0
  -22.4766  -27.0578   21.7520 C   0  0  0  0  0  0  0  0  0  0  0  0
  -22.7738  -24.1172   21.8470 C   0  0  0  0  0  0  0  0  0  0  0  0
  -16.2640  -26.5074   21.6481 C   0  0  0  0  0  0  0  0  0  0  0  0
  -29.6479  -12.1329   18.2608 C   0  0  0  0  0  0  0  0  0  0  0  0
  -29.6879  -23.6411   24.6860 C   0  0  0  0  0  0  0  0  0  0  0  0
  -17.0849  -25.8767   22.7684 C   0  0  0  0  0  0  0  0  0  0  0  0
  -28.1977  -11.9348   18.7054 C   0  0  0  0  0  0  0  0  0  0  0  0
  -28.5235  -24.5106   25.1418 C   0  0  0  0  0  0  0  0  0  0  0  0
  -30.5854  -12.3052   19.4539 C   0  0  0  0  0  0  0  0  0  0  0  0
  -28.7435  -13.1673   20.8459 C   0  0  0  0  0  0  0  0  0  0  0  0
  -29.5695  -22.2194   25.2165 C   0  0  0  0  0  0  0  0  0  0  0  0
  -27.0742  -22.4536   25.3086 C   0  0  0  0  0  0  0  0  0  0  0  0
  -18.1791  -26.8338   23.2565 C   0  0  1  0  0  0  0  0  0  0  0  0
  -21.3584  -26.1227   21.3021 C   0  0  1  0  0  0  0  0  0  0  0  0
  -27.7521  -13.0451   19.6760 C   0  0  2  0  0  0  0  0  0  0  0  0
  -27.1825  -23.8786   24.7820 C   0  0  1  0  0  0  0  0  0  1  0  0
  -28.6709  -17.7511   20.8482 C   0  0  0  0  0  0  0  0  0  0  0  0
  -27.1451  -19.5420   22.5353 C   0  0  0  0  0  0  0  0  0  0  0  0
  -24.2398  -21.0046   16.2517 C   0  0  0  0  0  0  0  0  0  0  0  0
  -19.6604  -21.8375   20.9640 C   0  0  0  0  0  0  0  0  0  0  0  0
  -20.9149  -20.2972   19.4402 C   0  0  0  0  0  0  0  0  0  0  0  0
  -19.4851  -22.1036   18.4835 C   0  0  0  0  0  0  0  0  0  0  0  0
  -25.9265  -24.1900   17.4701 C   0  0  0  0  0  0  0  0  0  0  0  0
  -31.1617  -16.6128   21.8364 C   0  0  0  0  0  0  0  0  0  0  0  0
  -28.1166  -20.1930   25.2063 C   0  0  0  0  0  0  0  0  0  0  0  0
  -21.6701  -22.7129   19.5999 C   0  0  1  0  0  0  0  0  0  0  0  0
  -24.3024  -22.3825   16.8922 C   0  0  2  0  0  0  0  0  0  0  0  0
  -20.4465  -21.7544   19.6403 C   0  0  0  0  0  0  0  0  0  0  0  0
  -25.8714  -11.5755   20.2973 N   0  0  0  0  0  0  0  0  0  0  0  0
  -26.3282  -12.8314   20.1552 N   0  0  0  0  0  0  0  0  0  0  0  0
  -21.8490  -24.7958   20.9241 N   0  0  0  0  0  0  0  0  0  0  0  0
  -30.1074  -13.3741   20.3341 N   0  0  0  0  0  0  0  0  0  0  0  0
  -25.7064  -15.1051   20.3883 N   0  0  0  0  0  0  0  0  0  0  0  0
  -22.8653  -13.9817   22.6375 N   0  0  0  0  0  0  0  0  0  0  0  0
  -19.2897  -26.8469   22.3288 N   0  0  0  0  0  0  0  0  0  0  0  0
  -22.4176  -22.6752   18.3476 N   0  0  0  0  0  0  0  0  0  0  0  0
  -30.4178  -15.4325   21.4566 N   0  0  0  0  0  0  0  0  0  0  0  0
  -28.2378  -21.6375   24.8058 N   0  3  2  0  0  0  0  0  0  0  0  0
  -25.7213  -22.8381   16.8894 N   0  3  0  0  0  0  0  0  0  0  0  0
  -22.1240  -13.9883   20.4675 O   0  0  0  0  0  0  0  0  0  0  0  0
  -20.4230  -24.9846   23.1473 O   0  0  0  0  0  0  0  0  0  0  0  0
  -20.5015  -24.6951   19.0240 O   0  0  0  0  0  0  0  0  0  0  0  0
  -24.4539  -22.0813   19.2846 O   0  0  0  0  0  0  0  0  0  0  0  0
  -32.0926  -14.5595   20.1567 O   0  0  0  0  0  0  0  0  0  0  0  0
  -21.3551   -7.3399   21.7834 O   0  0  0  0  0  0  0  0  0  0  0  0
  -26.1446  -24.6715   25.3496 O   0  0  0  0  0  0  0  0  0  1  0  0
  -20.4308   -6.0545   27.0652 F   0  0  0  0  0  0  0  0  0  0  0  0
  -22.0911   -4.8736   22.7927 F   0  0  0  0  0  0  0  0  0  0  0  0
  1  2  1  0  0  0  0
  1  5  2  0  0  0  0
  2  6  2  0  0  0  0
  3 10  2  0  0  0  0
  3 17  1  0  0  0  0
  4 11  1  0  0  0  0
  4 17  2  0  0  0  0
  5 19  1  0  0  0  0
  6 21  1  0  0  0  0
  7 12  2  0  0  0  0
  7 20  1  0  0  0  0
  8  9  2  0  0  0  0
  8 23  1  0  0  0  0
  9 24  1  0  0  0  0
 10 27  1  0  0  0  0
 11 27  2  0  0  0  0
 12 28  1  0  0  0  0
 13 14  2  0  0  0  0
 13 29  1  0  0  0  0
 14 30  1  0  0  0  0
 15 22  1  0  0  0  0
 15 28  2  0  0  0  0
 16 30  2  0  0  0  0
 16 31  1  0  0  0  0
 17 32  1  0  0  0  0
 18 32  1  0  0  0  0
 18 33  2  0  0  0  0
 18 34  1  0  0  0  0
 19 21  2  0  0  0  0
 19 39  1  0  0  0  0
 20 22  2  0  0  0  0
 20 40  1  0  0  0  0
 21 52  1  0  0  0  0
 22 41  1  0  0  0  0
 23 25  2  0  0  0  0
 23 63  1  0  0  0  0
 24 26  2  0  0  0  0
 24 64  1  0  0  0  0
 25 26  1  0  0  0  0
 25 56  1  0  0  0  0
 26 57  1  0  0  0  0
 27 84  1  0  0  0  0
 28 85  1  0  0  0  0
 29 31  2  0  0  0  0
 29 84  1  0  0  0  0
 30 86  1  0  0  0  0
 31 87  1  0  0  0  0
 32 68  2  0  0  0  0
 33 69  1  0  0  0  0
 33 72  1  0  0  0  0
 34 73  1  0  0  0  0
 34 79  2  0  0  0  0
 35 53  1  0  0  0  0
 35 74  1  0  0  0  0
 35 80  2  0  0  0  0
 36 65  1  0  0  0  0
 36 70  1  0  0  0  0
 36 81  2  0  0  0  0
 37 66  1  0  0  0  0
 37 75  1  0  0  0  0
 37 82  2  0  0  0  0
 38 71  1  0  0  0  0
 38 76  1  0  0  0  0
 38 83  2  0  0  0  0
 39 42  1  0  0  0  0
 40 53  1  0  0  0  0
 41 70  1  0  0  0  0
 42 45  1  0  0  0  0
 43 46  1  0  0  0  0
 43 48  1  0  0  0  0
 44 47  1  0  0  0  0
 44 50  1  0  0  0  0
 45 52  1  0  0  0  0
 46 54  1  0  0  0  0
 47 55  1  0  0  0  0
 48 71  1  0  0  0  0
 49 54  1  0  0  0  0
 49 71  1  0  0  0  0
 50 77  1  0  0  0  0
 51 55  1  0  0  0  0
 51 77  1  0  0  0  0
 52 74  1  0  0  0  0
 53 70  1  0  0  0  0
 54 69  1  0  0  0  0
 55 85  1  0  0  0  0
 58 66  1  0  0  0  0
 59 67  1  0  0  0  0
 60 67  1  0  0  0  0
 61 67  1  0  0  0  0
 62 78  1  0  0  0  0
 63 76  1  0  0  0  0
 64 77  1  0  0  0  0
 65 67  1  0  0  0  0
 65 75  1  0  0  0  0
 66 78  1  0  0  0  0
 68 69  1  0  0  0  0
M  CHG  2  77   1  78   1
M  ISO  4  38 100  55 101  76 100  85 101
M  END
> <Batch ID>
0033

> <Smiles>
CNC(C)C(=O)NC(C(=O)N1Cc2cc([101O:1][101CH:1]3CCCN(Cc4ccc(C[100NH:0][100C:0](=O)N5CCCC(n6nc(-c7ccc(Oc8ccc(F)cc8F)cc7)c(C(N)=O)c6N)C5)c(C)c4C)C3)ccc2CC1C(=O)NC1CCCc2ccccc21)C(C)(C)C

> <Shape>
0.261

> <Color>
0.176

> <Negative vol penalty>
0.000

$$$$

  -OEChem-04042321453D

 86 95  0     1  0  0  0  0  0999 V2000
  -26.9391  -24.0532   13.8225 C   0  0  0  0  0  0  0  0  0  0  0  0
  -27.4878  -23.1965   14.7714 C   0  0  0  0  0  0  0  0  0  0  0  0
  -23.3284   -9.7731   19.9394 C   0  0  0  0  0  0  0  0  0  0  0  0
  -23.7806   -9.9584   22.3054 C   0  0  0  0  0  0  0  0  0  0  0  0
  -27.2689  -25.4078   13.8345 C   0  0  0  0  0  0  0  0  0  0  0  0
  -28.3674  -23.6938   15.7323 C   0  0  0  0  0  0  0  0  0  0  0  0
  -28.9237  -21.8190   21.5359 C   0  0  0  0  0  0  0  0  0  0  0  0
  -22.6273   -8.5888   20.1661 C   0  0  0  0  0  0  0  0  0  0  0  0
  -23.0795   -8.7741   22.5322 C   0  0  0  0  0  0  0  0  0  0  0  0
  -29.8205  -20.9530   22.1600 C   0  0  0  0  0  0  0  0  0  0  0  0
  -19.8529   -7.7980   22.7703 C   0  0  0  0  0  0  0  0  0  0  0  0
  -18.9532   -7.7731   23.8359 C   0  0  0  0  0  0  0  0  0  0  0  0
  -31.1654  -22.8396   22.8317 C   0  0  0  0  0  0  0  0  0  0  0  0
  -32.1218  -15.4656   25.8103 C   0  0  0  0  0  0  0  0  0  0  0  0
  -32.1456  -14.8122   23.4845 C   0  0  0  0  0  0  0  0  0  0  0  0
  -20.1996   -5.9666   24.8459 C   0  0  0  0  0  0  0  0  0  0  0  0
  -23.9051  -10.4579   21.0090 C   0  0  0  0  0  0  0  0  0  0  0  0
  -24.1106  -12.9896   20.7724 C   0  0  0  0  0  0  0  0  0  0  0  0
  -28.1455  -25.9238   14.8020 C   0  0  0  0  0  0  0  0  0  0  0  0
  -29.1471  -23.2033   21.5457 C   0  0  0  0  0  0  0  0  0  0  0  0
  -28.7103  -25.0564   15.7564 C   0  0  0  0  0  0  0  0  0  0  0  0
  -30.2685  -23.7212   22.2092 C   0  0  0  0  0  0  0  0  0  0  0  0
  -32.6352  -15.6068   24.5211 C   0  0  0  0  0  0  0  0  0  0  0  0
  -31.1189  -14.5296   26.0630 C   0  0  0  0  0  0  0  0  0  0  0  0
  -30.6293  -13.7350   25.0264 C   0  0  0  0  0  0  0  0  0  0  0  0
  -31.1427  -13.8762   23.7372 C   0  0  0  0  0  0  0  0  0  0  0  0
  -22.5029   -8.0892   21.4625 C   0  0  0  0  0  0  0  0  0  0  0  0
  -30.9431  -21.4630   22.8055 C   0  0  0  0  0  0  0  0  0  0  0  0
  -20.9259   -6.9072   22.7424 C   0  0  0  0  0  0  0  0  0  0  0  0
  -19.1266   -6.8575   24.8737 C   0  0  0  0  0  0  0  0  0  0  0  0
  -21.0992   -5.9915   23.7802 C   0  0  0  0  0  0  0  0  0  0  0  0
  -24.6299  -11.6811   20.7754 C   0  0  0  0  0  0  0  0  0  0  0  0
  -25.1948  -13.7887   20.5034 C   0  0  0  0  0  0  0  0  0  0  0  0
  -34.2443  -18.9750   23.9178 C   0  0  0  0  0  0  0  0  0  0  0  0
  -35.2321  -19.2100   24.7895 C   0  0  0  0  0  0  0  0  0  0  0  0
  -22.7682  -13.4423   20.9930 C   0  0  0  0  0  0  0  0  0  0  0  0
  -29.6451  -25.4109   19.3136 C   0  0  0  0  0  0  0  0  0  0  0  0
  -29.4677  -27.4425   21.8362 C   0  0  0  0  0  0  0  0  0  0  0  0
  -29.7780  -27.9168   25.2015 C   0  0  0  0  0  0  0  0  0  0  0  0
  -31.0727  -13.1107   21.3381 C   0  0  0  0  0  0  0  0  0  0  0  0
  -28.5091  -27.3864   14.7458 C   0  0  0  0  0  0  0  0  0  0  0  0
  -28.1560  -24.1260   20.8908 C   0  0  0  0  0  0  0  0  0  0  0  0
  -30.5431  -25.2010   22.2659 C   0  0  0  0  0  0  0  0  0  0  0  0
  -33.9695  -19.7721   22.6810 C   0  0  0  0  0  0  0  0  0  0  0  0
  -29.1567  -27.9027   16.0282 C   0  0  0  0  0  0  0  0  0  0  0  0
  -29.4188  -13.7345   18.2474 C   0  0  0  0  0  0  0  0  0  0  0  0
  -30.2396  -26.9398   16.5045 C   0  0  0  0  0  0  0  0  0  0  0  0
  -27.9548  -13.4037   18.5463 C   0  0  0  0  0  0  0  0  0  0  0  0
  -30.3737  -12.7900   18.9751 C   0  0  0  0  0  0  0  0  0  0  0  0
  -28.6933  -12.3522   20.7226 C   0  0  0  0  0  0  0  0  0  0  0  0
  -32.1565  -18.2541   23.1388 C   0  0  0  0  0  0  0  0  0  0  0  0
  -29.6490  -25.5626   16.8301 C   0  0  1  0  0  0  0  0  0  0  0  0
  -28.7539  -25.4800   20.5213 C   0  0  1  0  0  0  0  0  0  0  0  0
  -27.6949  -13.3176   20.0631 C   0  0  2  0  0  0  0  0  0  0  0  0
  -32.4566  -19.6442   22.5962 C   0  0  1  0  0  0  0  0  0  1  0  0
  -30.5880  -14.3972   27.4529 C   0  0  0  0  0  0  0  0  0  0  0  0
  -29.5539  -12.7316   25.3031 C   0  0  0  0  0  0  0  0  0  0  0  0
  -29.6071  -29.6946   26.9644 C   0  0  0  0  0  0  0  0  0  0  0  0
  -32.1651  -28.5675   20.9596 C   0  0  0  0  0  0  0  0  0  0  0  0
  -32.3809  -29.6229   23.2196 C   0  0  0  0  0  0  0  0  0  0  0  0
  -30.5109  -30.2874   21.7082 C   0  0  0  0  0  0  0  0  0  0  0  0
  -27.5976  -26.4845   26.5992 C   0  0  0  0  0  0  0  0  0  0  0  0
  -33.7150  -16.6125   24.2496 C   0  0  0  0  0  0  0  0  0  0  0  0
  -30.4600  -28.0165   22.8184 C   0  0  1  0  0  0  0  0  0  0  0  0
  -28.8711  -28.5978   26.2107 C   0  0  2  0  0  0  0  0  0  0  0  0
  -31.3754  -29.0955   22.1739 C   0  0  0  0  0  0  0  0  0  0  0  0
  -25.9419  -11.6465   20.5278 N   0  0  0  0  0  0  0  0  0  0  0  0
  -26.2562  -12.9432   20.3667 N   0  0  0  0  0  0  0  0  0  0  0  0
  -29.5481  -26.0619   21.6053 N   0  0  0  0  0  0  0  0  0  0  0  0
  -30.0706  -12.7629   20.4077 N   0  0  0  0  0  0  0  0  0  0  0  0
  -25.3343  -15.1251   20.3728 N   0  0  0  0  0  0  0  0  0  0  0  0
  -21.7761  -12.4880   21.2566 N   0  0  0  0  0  0  0  0  0  0  0  0
  -30.6589  -13.0801   22.6695 N   0  0  0  0  0  0  0  0  0  0  0  0
  -28.9823  -25.5894   18.1143 N   0  0  0  0  0  0  0  0  0  0  0  0
  -29.6796  -28.4959   23.9541 N   0  0  0  0  0  0  0  0  0  0  0  0
  -33.2094  -18.0235   24.2198 N   0  3  1  0  0  0  0  0  0  0  0  0
  -28.3621  -27.6072   27.2009 N   0  3  0  0  0  0  0  0  0  0  0  0
  -22.4545  -14.6557   20.9413 O   0  0  0  0  0  0  0  0  0  0  0  0
  -30.8455  -25.2119   19.4591 O   0  0  0  0  0  0  0  0  0  0  0  0
  -28.6467  -28.1902   21.2992 O   0  0  0  0  0  0  0  0  0  0  0  0
  -30.5040  -26.9685   25.4919 O   0  0  0  0  0  0  0  0  0  0  0  0
  -32.2060  -13.4397   20.9786 O   0  0  0  0  0  0  0  0  0  0  0  0
  -21.8187   -6.9337   21.6841 O   0  0  0  0  0  0  0  0  0  0  0  0
  -31.8205  -20.6199   23.4149 O   0  0  0  0  0  0  0  0  0  1  0  0
  -18.2634   -6.8347   25.8977 F   0  0  0  0  0  0  0  0  0  0  0  0
  -22.1288   -5.1340   23.7596 F   0  0  0  0  0  0  0  0  0  0  0  0
  1  2  1  0  0  0  0
  1  5  2  0  0  0  0
  2  6  2  0  0  0  0
  3  8  2  0  0  0  0
  3 17  1  0  0  0  0
  4  9  1  0  0  0  0
  4 17  2  0  0  0  0
  5 19  1  0  0  0  0
  6 21  1  0  0  0  0
  7 10  2  0  0  0  0
  7 20  1  0  0  0  0
  8 27  1  0  0  0  0
  9 27  2  0  0  0  0
 10 28  1  0  0  0  0
 11 12  2  0  0  0  0
 11 29  1  0  0  0  0
 12 30  1  0  0  0  0
 13 22  1  0  0  0  0
 13 28  2  0  0  0  0
 14 23  1  0  0  0  0
 14 24  2  0  0  0  0
 15 23  2  0  0  0  0
 15 26  1  0  0  0  0
 16 30  2  0  0  0  0
 16 31  1  0  0  0  0
 17 32  1  0  0  0  0
 18 32  1  0  0  0  0
 18 33  2  0  0  0  0
 18 36  1  0  0  0  0
 19 21  2  0  0  0  0
 19 41  1  0  0  0  0
 20 22  2  0  0  0  0
 20 42  1  0  0  0  0
 21 52  1  0  0  0  0
 22 43  1  0  0  0  0
 23 63  1  0  0  0  0
 24 25  1  0  0  0  0
 24 56  1  0  0  0  0
 25 26  2  0  0  0  0
 25 57  1  0  0  0  0
 26 73  1  0  0  0  0
 27 83  1  0  0  0  0
 28 84  1  0  0  0  0
 29 31  2  0  0  0  0
 29 83  1  0  0  0  0
 30 85  1  0  0  0  0
 31 86  1  0  0  0  0
 32 67  2  0  0  0  0
 33 68  1  0  0  0  0
 33 71  1  0  0  0  0
 34 35  2  0  0  0  0
 34 44  1  0  0  0  0
 34 76  1  0  0  0  0
 36 72  1  0  0  0  0
 36 78  2  0  0  0  0
 37 53  1  0  0  0  0
 37 74  1  0  0  0  0
 37 79  2  0  0  0  0
 38 64  1  0  0  0  0
 38 69  1  0  0  0  0
 38 80  2  0  0  0  0
 39 65  1  0  0  0  0
 39 75  1  0  0  0  0
 39 81  2  0  0  0  0
 40 70  1  0  0  0  0
 40 73  1  0  0  0  0
 40 82  2  0  0  0  0
 41 45  1  0  0  0  0
 42 53  1  0  0  0  0
 43 69  1  0  0  0  0
 44 55  1  0  0  0  0
 45 47  1  0  0  0  0
 46 48  1  0  0  0  0
 46 49  1  0  0  0  0
 47 52  1  0  0  0  0
 48 54  1  0  0  0  0
 49 70  1  0  0  0  0
 50 54  1  0  0  0  0
 50 70  1  0  0  0  0
 51 55  1  0  0  0  0
 51 76  1  0  0  0  0
 52 74  1  0  0  0  0
 53 69  1  0  0  0  0
 54 68  1  0  0  0  0
 55 84  1  0  0  0  0
 58 65  1  0  0  0  0
 59 66  1  0  0  0  0
 60 66  1  0  0  0  0
 61 66  1  0  0  0  0
 62 77  1  0  0  0  0
 63 76  1  0  0  0  0
 64 66  1  0  0  0  0
 64 75  1  0  0  0  0
 65 77  1  0  0  0  0
 67 68  1  0  0  0  0
M  CHG  2  76   1  77   1
M  ISO  4  40 100  55 101  73 100  84 101
M  END
> <Batch ID>
0033

> <Smiles>
C=C1C[101CH:1]([101O:1]c2ccc3c(c2)CN(C(=O)C(NC(=O)C(C)NC)C(C)(C)C)C(C(=O)NC2CCCc4ccccc42)C3)CN1Cc1cc(C)c(C)c([100NH:0][100C:0](=O)N2CCCC(n3nc(-c4ccc(Oc5ccc(F)cc5F)cc4)c(C(N)=O)c3N)C2)c1

> <Shape>
0.198

> <Color>
0.194

> <Negative vol penalty>
0.000

$$$$

  -OEChem-04042321453D

 88 97  0     1  0  0  0  0  0999 V2000
  -16.9805  -31.0096   23.7702 C   0  0  0  0  0  0  0  0  0  0  0  0
  -18.2229  -31.3584   24.2900 C   0  0  0  0  0  0  0  0  0  0  0  0
  -27.6000  -14.9672   20.7086 C   0  0  0  0  0  0  0  0  0  0  0  0
  -26.7204  -14.4126   22.8894 C   0  0  0  0  0  0  0  0  0  0  0  0
  -16.8347  -29.8235   23.0519 C   0  0  0  0  0  0  0  0  0  0  0  0
  -19.3201  -30.5207   24.0927 C   0  0  0  0  0  0  0  0  0  0  0  0
  -25.1500  -32.2169   23.2921 C   0  0  0  0  0  0  0  0  0  0  0  0
  -27.1745  -13.7309   20.2226 C   0  0  0  0  0  0  0  0  0  0  0  0
  -26.2949  -13.1763   22.4034 C   0  0  0  0  0  0  0  0  0  0  0  0
  -26.2345  -32.2881   24.1653 C   0  0  0  0  0  0  0  0  0  0  0  0
  -23.7251  -11.9740   20.5674 C   0  0  0  0  0  0  0  0  0  0  0  0
  -22.4403  -11.5523   20.9094 C   0  0  0  0  0  0  0  0  0  0  0  0
  -26.9590  -30.1065   23.4338 C   0  0  0  0  0  0  0  0  0  0  0  0
  -28.6780  -26.0166   24.8030 C   0  0  0  0  0  0  0  0  0  0  0  0
  -31.2398  -24.9208   24.9408 C   0  0  0  0  0  0  0  0  0  0  0  0
  -23.3684   -9.5997   21.9880 C   0  0  0  0  0  0  0  0  0  0  0  0
  -27.3729  -15.3080   22.0420 C   0  0  0  0  0  0  0  0  0  0  0  0
  -29.1315  -17.0757   22.5807 C   0  0  0  0  0  0  0  0  0  0  0  0
  -17.9327  -28.9756   22.8374 C   0  0  0  0  0  0  0  0  0  0  0  0
  -24.9554  -31.0834   22.4898 C   0  0  0  0  0  0  0  0  0  0  0  0
  -19.1885  -29.3215   23.3720 C   0  0  0  0  0  0  0  0  0  0  0  0
  -25.8727  -30.0245   22.5494 C   0  0  0  0  0  0  0  0  0  0  0  0
  -29.5237  -26.3514   25.8604 C   0  0  0  0  0  0  0  0  0  0  0  0
  -29.1130  -25.1338   23.8145 C   0  0  0  0  0  0  0  0  0  0  0  0
  -30.8046  -25.8035   25.9293 C   0  0  0  0  0  0  0  0  0  0  0  0
  -26.5220  -12.8355   21.0699 C   0  0  0  0  0  0  0  0  0  0  0  0
  -27.1376  -31.2316   24.2384 C   0  0  0  0  0  0  0  0  0  0  0  0
  -24.8316  -11.2086   20.9356 C   0  0  0  0  0  0  0  0  0  0  0  0
  -22.2619  -10.3651   21.6197 C   0  0  0  0  0  0  0  0  0  0  0  0
  -24.6532  -10.0215   21.6459 C   0  0  0  0  0  0  0  0  0  0  0  0
  -30.3939  -24.5859   23.8834 C   0  0  0  0  0  0  0  0  0  0  0  0
  -27.8127  -16.5847   22.5448 C   0  0  0  0  0  0  0  0  0  0  0  0
  -29.0185  -18.3224   23.1458 C   0  0  0  0  0  0  0  0  0  0  0  0
  -29.5513  -29.4763   25.9658 C   0  0  0  0  0  0  0  0  0  0  0  0
  -30.4238  -29.5639   24.9482 C   0  0  0  0  0  0  0  0  0  0  0  0
  -30.3499  -16.4600   22.1423 C   0  0  0  0  0  0  0  0  0  0  0  0
  -22.6749  -28.8846   22.2285 C   0  0  0  0  0  0  0  0  0  0  0  0
  -24.4558  -27.8987   19.7030 C   0  0  0  0  0  0  0  0  0  0  0  0
  -27.9597  -27.4596   18.9630 C   0  0  0  0  0  0  0  0  0  0  0  0
  -26.4444  -23.2554   23.5766 C   0  0  0  0  0  0  0  0  0  0  0  0
  -17.7160  -27.6808   22.0951 C   0  0  0  0  0  0  0  0  0  0  0  0
  -23.7955  -31.0334   21.5336 C   0  0  0  0  0  0  0  0  0  0  0  0
  -25.7200  -28.7940   21.6944 C   0  0  0  0  0  0  0  0  0  0  0  0
  -19.0102  -27.0327   21.6101 C   0  0  0  0  0  0  0  0  0  0  0  0
  -25.1089  -20.5456   25.4608 C   0  0  0  0  0  0  0  0  0  0  0  0
  -28.4924  -29.9579   28.5861 C   0  0  0  0  0  0  0  0  0  0  0  0
  -20.0528  -27.0241   22.7235 C   0  0  0  0  0  0  0  0  0  0  0  0
  -28.2237  -30.9591   27.4682 C   0  0  0  0  0  0  0  0  0  0  0  0
  -25.7972  -19.3143   24.8691 C   0  0  0  0  0  0  0  0  0  0  0  0
  -24.8011  -21.5895   24.3896 C   0  0  0  0  0  0  0  0  0  0  0  0
  -26.6467  -20.7656   22.9794 C   0  0  0  0  0  0  0  0  0  0  0  0
  -29.8121  -29.2241   28.3714 C   0  0  0  0  0  0  0  0  0  0  0  0
  -20.4079  -28.4512   23.1579 C   0  0  1  0  0  0  0  0  0  0  0  0
  -28.2849  -30.2926   26.0947 C   0  0  1  0  0  0  0  0  0  1  0  0
  -23.4085  -29.6119   21.1374 C   0  0  1  0  0  0  0  0  0  0  0  0
  -27.0276  -19.7087   24.0301 C   0  0  2  0  0  0  0  0  0  0  0  0
  -31.7265  -26.1454   27.0536 C   0  0  0  0  0  0  0  0  0  0  0  0
  -29.1868  -27.5328   16.7753 C   0  0  0  0  0  0  0  0  0  0  0  0
  -24.0501  -24.8746   19.7052 C   0  0  0  0  0  0  0  0  0  0  0  0
  -26.3466  -24.6358   18.7371 C   0  0  0  0  0  0  0  0  0  0  0  0
  -24.5796  -25.8544   17.4661 C   0  0  0  0  0  0  0  0  0  0  0  0
  -29.8264  -29.5347   19.9470 C   0  0  0  0  0  0  0  0  0  0  0  0
  -28.1765  -24.8006   22.6984 C   0  0  0  0  0  0  0  0  0  0  0  0
  -29.0342  -27.3011   26.9137 C   0  0  0  0  0  0  0  0  0  0  0  0
  -25.5992  -26.9313   19.5137 C   0  0  1  0  0  0  0  0  0  0  0  0
  -28.8040  -28.3061   18.0276 C   0  0  2  0  0  0  0  0  0  0  0  0
  -25.1399  -25.5877   18.8801 C   0  0  0  0  0  0  0  0  0  0  0  0
  -26.9269  -17.4489   23.0473 N   0  0  0  0  0  0  0  0  0  0  0  0
  -27.6906  -18.4955   23.4044 N   0  0  0  0  0  0  0  0  0  0  0  0
  -24.5662  -28.7898   20.7799 N   0  0  0  0  0  0  0  0  0  0  0  0
  -26.0098  -21.9208   23.6312 N   0  0  0  0  0  0  0  0  0  0  0  0
  -29.9265  -19.2766   23.4419 N   0  0  0  0  0  0  0  0  0  0  0  0
  -30.2864  -15.1757   21.5847 N   0  0  0  0  0  0  0  0  0  0  0  0
  -21.3048  -29.0624   22.2007 N   0  0  0  0  0  0  0  0  0  0  0  0
  -26.6113  -27.6418   18.7397 N   0  0  0  0  0  0  0  0  0  0  0  0
  -27.6019  -23.4815   22.8419 N   0  0  0  0  0  0  0  0  0  0  0  0
  -29.8746  -28.5436   27.0234 N   0  3  1  0  0  0  0  0  0  0  0  0
  -30.0543  -28.7428   18.7109 N   0  3  0  0  0  0  0  0  0  0  0  0
  -31.4639  -17.0250   22.2571 O   0  0  0  0  0  0  0  0  0  0  0  0
  -23.3050  -28.2108   23.0351 O   0  0  0  0  0  0  0  0  0  0  0  0
  -23.5033  -27.8699   18.9197 O   0  0  0  0  0  0  0  0  0  0  0  0
  -28.4475  -26.7087   19.8049 O   0  0  0  0  0  0  0  0  0  0  0  0
  -25.8482  -24.1763   24.1452 O   0  0  0  0  0  0  0  0  0  0  0  0
  -26.1065  -11.6291   20.5960 O   0  0  0  0  0  0  0  0  0  0  0  0
  -28.1967  -31.2983   25.0903 O   0  0  0  0  0  0  0  0  0  1  0  0
  -21.0282   -9.9610   21.9494 F   0  0  0  0  0  0  0  0  0  0  0  0
  -25.7124   -9.2826   22.0035 F   0  0  0  0  0  0  0  0  0  0  0  0
  -30.9667  -23.4902   22.6790 Cl  0  0  0  0  0  0  0  0  0  0  0  0
  1  2  1  0  0  0  0
  1  5  2  0  0  0  0
  2  6  2  0  0  0  0
  3  8  2  0  0  0  0
  3 17  1  0  0  0  0
  4  9  1  0  0  0  0
  4 17  2  0  0  0  0
  5 19  1  0  0  0  0
  6 21  1  0  0  0  0
  7 10  2  0  0  0  0
  7 20  1  0  0  0  0
  8 26  1  0  0  0  0
  9 26  2  0  0  0  0
 10 27  1  0  0  0  0
 11 12  2  0  0  0  0
 11 28  1  0  0  0  0
 12 29  1  0  0  0  0
 13 22  1  0  0  0  0
 13 27  2  0  0  0  0
 14 23  1  0  0  0  0
 14 24  2  0  0  0  0
 15 25  1  0  0  0  0
 15 31  2  0  0  0  0
 16 29  2  0  0  0  0
 16 30  1  0  0  0  0
 17 32  1  0  0  0  0
 18 32  1  0  0  0  0
 18 33  2  0  0  0  0
 18 36  1  0  0  0  0
 19 21  2  0  0  0  0
 19 41  1  0  0  0  0
 20 22  2  0  0  0  0
 20 42  1  0  0  0  0
 21 53  1  0  0  0  0
 22 43  1  0  0  0  0
 23 25  2  0  0  0  0
 23 64  1  0  0  0  0
 24 31  1  0  0  0  0
 24 63  1  0  0  0  0
 25 57  1  0  0  0  0
 26 84  1  0  0  0  0
 27 85  1  0  0  0  0
 28 30  2  0  0  0  0
 28 84  1  0  0  0  0
 29 86  1  0  0  0  0
 30 87  1  0  0  0  0
 31 88  1  0  0  0  0
 32 68  2  0  0  0  0
 33 69  1  0  0  0  0
 33 72  1  0  0  0  0
 34 35  2  0  0  0  0
 34 54  1  0  0  0  0
 34 77  1  0  0  0  0
 36 73  1  0  0  0  0
 36 79  2  0  0  0  0
 37 55  1  0  0  0  0
 37 74  1  0  0  0  0
 37 80  2  0  0  0  0
 38 65  1  0  0  0  0
 38 70  1  0  0  0  0
 38 81  2  0  0  0  0
 39 66  1  0  0  0  0
 39 75  1  0  0  0  0
 39 82  2  0  0  0  0
 40 71  1  0  0  0  0
 40 76  1  0  0  0  0
 40 83  2  0  0  0  0
 41 44  1  0  0  0  0
 42 55  1  0  0  0  0
 43 70  1  0  0  0  0
 44 47  1  0  0  0  0
 45 49  1  0  0  0  0
 45 50  1  0  0  0  0
 46 48  1  0  0  0  0
 46 52  1  0  0  0  0
 47 53  1  0  0  0  0
 48 54  1  0  0  0  0
 49 56  1  0  0  0  0
 50 71  1  0  0  0  0
 51 56  1  0  0  0  0
 51 71  1  0  0  0  0
 52 77  1  0  0  0  0
 53 74  1  0  0  0  0
 54 85  1  0  0  0  0
 55 70  1  0  0  0  0
 56 69  1  0  0  0  0
 58 66  1  0  0  0  0
 59 67  1  0  0  0  0
 60 67  1  0  0  0  0
 61 67  1  0  0  0  0
 62 78  1  0  0  0  0
 63 76  1  0  0  0  0
 64 77  1  0  0  0  0
 65 67  1  0  0  0  0
 65 75  1  0  0  0  0
 66 78  1  0  0  0  0
 68 69  1  0  0  0  0
M  CHG  2  77   1  78   1
M  ISO  4  40 100  54 101  76 100  85 101
M  END
> <Batch ID>
0033

> <Smiles>
C=C1N(Cc2cc(C[100NH:0][100C:0](=O)N3CCCC(n4nc(-c5ccc(Oc6ccc(F)cc6F)cc5)c(C(N)=O)c4N)C3)c(Cl)cc2C)CCC[101CH:1]1[101O:1]c1ccc2c(c1)CN(C(=O)C(NC(=O)C(C)NC)C(C)(C)C)C(C(=O)NC1CCCc3ccccc31)C2

> <Shape>
0.260

> <Color>
0.104

> <Negative vol penalty>
0.000

$$$$

  -OEChem-04042321453D

 86 95  0     1  0  0  0  0  0999 V2000
  -16.2935  -26.8973   22.8819 C   0  0  0  0  0  0  0  0  0  0  0  0
  -17.4929  -26.3161   22.4831 C   0  0  0  0  0  0  0  0  0  0  0  0
  -23.6853  -12.8981   24.5636 C   0  0  0  0  0  0  0  0  0  0  0  0
  -23.4848  -15.0599   23.5037 C   0  0  0  0  0  0  0  0  0  0  0  0
  -16.2866  -28.1889   23.4068 C   0  0  0  0  0  0  0  0  0  0  0  0
  -18.6861  -27.0268   22.6079 C   0  0  0  0  0  0  0  0  0  0  0  0
  -22.4299  -24.2144   24.5366 C   0  0  0  0  0  0  0  0  0  0  0  0
  -22.9344  -13.3587   25.6450 C   0  0  0  0  0  0  0  0  0  0  0  0
  -22.7339  -15.5205   24.5851 C   0  0  0  0  0  0  0  0  0  0  0  0
  -23.0619  -23.3186   23.6753 C   0  0  0  0  0  0  0  0  0  0  0  0
  -23.3096  -16.6166   27.7313 C   0  0  0  0  0  0  0  0  0  0  0  0
  -23.6218  -17.8738   28.2485 C   0  0  0  0  0  0  0  0  0  0  0  0
  -24.8786  -24.8805   23.3938 C   0  0  0  0  0  0  0  0  0  0  0  0
  -29.2688  -18.2169   17.4738 C   0  0  0  0  0  0  0  0  0  0  0  0
  -27.8997  -20.1212   18.0537 C   0  0  0  0  0  0  0  0  0  0  0  0
  -21.3835  -18.6347   27.7499 C   0  0  0  0  0  0  0  0  0  0  0  0
  -23.9606  -13.7488   23.4929 C   0  0  0  0  0  0  0  0  0  0  0  0
  -24.2538  -12.6560   21.2065 C   0  0  0  0  0  0  0  0  0  0  0  0
  -17.4816  -28.9122   23.5470 C   0  0  0  0  0  0  0  0  0  0  0  0
  -23.0132  -25.4566   24.8249 C   0  0  0  0  0  0  0  0  0  0  0  0
  -18.6951  -28.3299   23.1339 C   0  0  0  0  0  0  0  0  0  0  0  0
  -24.2532  -25.7892   24.2610 C   0  0  0  0  0  0  0  0  0  0  0  0
  -29.7346  -18.1518   18.7869 C   0  0  0  0  0  0  0  0  0  0  0  0
  -28.3655  -20.0562   19.3669 C   0  0  0  0  0  0  0  0  0  0  0  0
  -29.2830  -19.0714   19.7335 C   0  0  0  0  0  0  0  0  0  0  0  0
  -22.4587  -14.6698   25.6558 C   0  0  0  0  0  0  0  0  0  0  0  0
  -24.2851  -23.6527   23.1015 C   0  0  0  0  0  0  0  0  0  0  0  0
  -22.0343  -16.3685   27.2233 C   0  0  0  0  0  0  0  0  0  0  0  0
  -22.6587  -18.8829   28.2578 C   0  0  0  0  0  0  0  0  0  0  0  0
  -21.0713  -17.3775   27.2327 C   0  0  0  0  0  0  0  0  0  0  0  0
  -28.3514  -19.2016   17.1071 C   0  0  0  0  0  0  0  0  0  0  0  0
  -24.7367  -13.2738   22.3757 C   0  0  0  0  0  0  0  0  0  0  0  0
  -25.3803  -12.3976   20.4644 C   0  0  0  0  0  0  0  0  0  0  0  0
  -22.9074  -12.3437   20.8253 C   0  0  0  0  0  0  0  0  0  0  0  0
  -22.1725  -28.4885   24.3729 C   0  0  0  0  0  0  0  0  0  0  0  0
  -24.8435  -29.0818   26.1153 C   0  0  0  0  0  0  0  0  0  0  0  0
  -27.8996  -28.0082   27.1898 C   0  0  0  0  0  0  0  0  0  0  0  0
  -30.8209  -14.8929   20.3075 C   0  0  0  0  0  0  0  0  0  0  0  0
  -17.4182  -30.3232   24.0758 C   0  0  0  0  0  0  0  0  0  0  0  0
  -22.3315  -26.4007   25.7770 C   0  0  0  0  0  0  0  0  0  0  0  0
  -24.9312  -27.1017   24.5542 C   0  0  0  0  0  0  0  0  0  0  0  0
  -18.7726  -30.8675   24.5229 C   0  0  0  0  0  0  0  0  0  0  0  0
  -30.0505  -11.4756   20.9443 C   0  0  0  0  0  0  0  0  0  0  0  0
  -19.8399  -30.5703   23.4744 C   0  0  0  0  0  0  0  0  0  0  0  0
  -28.5577  -11.4932   21.2779 C   0  0  0  0  0  0  0  0  0  0  0  0
  -24.5832  -20.4174   21.9540 C   0  0  0  0  0  0  0  0  0  0  0  0
  -30.7639  -12.7134   21.4836 C   0  0  0  0  0  0  0  0  0  0  0  0
  -28.6734  -14.0166   21.4107 C   0  0  0  0  0  0  0  0  0  0  0  0
  -25.4851  -20.3223   20.7399 C   0  0  0  0  0  0  0  0  0  0  0  0
  -26.7377  -21.2516   22.6287 C   0  0  0  0  0  0  0  0  0  0  0  0
  -20.0132  -29.0595   23.2765 C   0  0  1  0  0  0  0  0  0  0  0  0
  -22.7688  -27.8510   25.5958 C   0  0  1  0  0  0  0  0  0  0  0  0
  -27.9006  -12.8157   20.8390 C   0  0  2  0  0  0  0  0  0  0  0  0
  -25.2459  -21.4999   22.7885 C   0  0  1  0  0  0  0  0  0  1  0  0
  -29.7831  -19.0023   21.1414 C   0  0  0  0  0  0  0  0  0  0  0  0
  -29.8663  -28.7282   28.5722 C   0  0  0  0  0  0  0  0  0  0  0  0
  -25.7643  -30.9071   23.8502 C   0  0  0  0  0  0  0  0  0  0  0  0
  -28.0711  -30.8314   24.8205 C   0  0  0  0  0  0  0  0  0  0  0  0
  -26.1928  -31.7978   26.1475 C   0  0  0  0  0  0  0  0  0  0  0  0
  -27.5403  -25.7607   29.0815 C   0  0  0  0  0  0  0  0  0  0  0  0
  -30.7168  -17.0878   19.1539 C   0  0  0  0  0  0  0  0  0  0  0  0
  -27.8643  -21.0566   20.3663 C   0  0  0  0  0  0  0  0  0  0  0  0
  -26.3031  -29.2967   25.7951 C   0  0  1  0  0  0  0  0  0  0  0  0
  -28.5346  -27.9938   28.5686 C   0  0  2  0  0  0  0  0  0  0  0  0
  -26.5694  -30.6843   25.1461 C   0  0  0  0  0  0  0  0  0  0  0  0
  -26.0664  -13.4001   22.3806 N   0  0  0  0  0  0  0  0  0  0  0  0
  -26.4286  -12.8580   21.2054 N   0  0  0  0  0  0  0  0  0  0  0  0
  -24.2220  -27.9937   25.4864 N   0  0  0  0  0  0  0  0  0  0  0  0
  -30.0921  -13.9335   21.0296 N   0  0  0  0  0  0  0  0  0  0  0  0
  -25.5664  -11.8236   19.2568 N   0  0  0  0  0  0  0  0  0  0  0  0
  -21.8692  -12.6781   21.7055 N   0  0  0  0  0  0  0  0  0  0  0  0
  -20.7908  -28.4940   24.3582 N   0  0  0  0  0  0  0  0  0  0  0  0
  -27.0316  -29.0688   27.0383 N   0  0  0  0  0  0  0  0  0  0  0  0
  -30.1068  -16.0165   19.9095 N   0  0  0  0  0  0  0  0  0  0  0  0
  -26.8699  -20.4812   21.3229 N   0  3  2  0  0  0  0  0  0  0  0  0
  -28.7698  -26.5919   29.0159 N   0  3  0  0  0  0  0  0  0  0  0  0
  -22.6344  -11.7699   19.7438 O   0  0  0  0  0  0  0  0  0  0  0  0
  -22.9114  -28.9432   23.5074 O   0  0  0  0  0  0  0  0  0  0  0  0
  -24.2776  -29.8469   26.9002 O   0  0  0  0  0  0  0  0  0  0  0  0
  -28.1514  -27.1652   26.3316 O   0  0  0  0  0  0  0  0  0  0  0  0
  -32.0178  -14.7556   20.0327 O   0  0  0  0  0  0  0  0  0  0  0  0
  -21.7257  -15.1195   26.7109 O   0  0  0  0  0  0  0  0  0  0  0  0
  -24.9038  -22.7805   22.2599 O   0  0  0  0  0  0  0  0  0  1  0  0
  -22.9582  -20.0897   28.7560 F   0  0  0  0  0  0  0  0  0  0  0  0
  -19.8442  -17.1447   26.7472 F   0  0  0  0  0  0  0  0  0  0  0  0
  -27.7766  -19.2823   15.4867 Cl  0  0  0  0  0  0  0  0  0  0  0  0
  1  2  1  0  0  0  0
  1  5  2  0  0  0  0
  2  6  2  0  0  0  0
  3  8  2  0  0  0  0
  3 17  1  0  0  0  0
  4  9  1  0  0  0  0
  4 17  2  0  0  0  0
  5 19  1  0  0  0  0
  6 21  1  0  0  0  0
  7 10  2  0  0  0  0
  7 20  1  0  0  0  0
  8 26  1  0  0  0  0
  9 26  2  0  0  0  0
 10 27  1  0  0  0  0
 11 12  2  0  0  0  0
 11 28  1  0  0  0  0
 12 29  1  0  0  0  0
 13 22  1  0  0  0  0
 13 27  2  0  0  0  0
 14 23  2  0  0  0  0
 14 31  1  0  0  0  0
 15 24  1  0  0  0  0
 15 31  2  0  0  0  0
 16 29  2  0  0  0  0
 16 30  1  0  0  0  0
 17 32  1  0  0  0  0
 18 32  1  0  0  0  0
 18 33  2  0  0  0  0
 18 34  1  0  0  0  0
 19 21  2  0  0  0  0
 19 39  1  0  0  0  0
 20 22  2  0  0  0  0
 20 40  1  0  0  0  0
 21 51  1  0  0  0  0
 22 41  1  0  0  0  0
 23 25  1  0  0  0  0
 23 61  1  0  0  0  0
 24 25  2  0  0  0  0
 24 62  1  0  0  0  0
 25 55  1  0  0  0  0
 26 82  1  0  0  0  0
 27 83  1  0  0  0  0
 28 30  2  0  0  0  0
 28 82  1  0  0  0  0
 29 84  1  0  0  0  0
 30 85  1  0  0  0  0
 31 86  1  0  0  0  0
 32 66  2  0  0  0  0
 33 67  1  0  0  0  0
 33 70  1  0  0  0  0
 34 71  1  0  0  0  0
 34 77  2  0  0  0  0
 35 52  1  0  0  0  0
 35 72  1  0  0  0  0
 35 78  2  0  0  0  0
 36 63  1  0  0  0  0
 36 68  1  0  0  0  0
 36 79  2  0  0  0  0
 37 64  1  0  0  0  0
 37 73  1  0  0  0  0
 37 80  2  0  0  0  0
 38 69  1  0  0  0  0
 38 74  1  0  0  0  0
 38 81  2  0  0  0  0
 39 42  1  0  0  0  0
 40 52  1  0  0  0  0
 41 68  1  0  0  0  0
 42 44  1  0  0  0  0
 43 45  1  0  0  0  0
 43 47  1  0  0  0  0
 44 51  1  0  0  0  0
 45 53  1  0  0  0  0
 46 49  1  0  0  0  0
 46 54  1  0  0  0  0
 47 69  1  0  0  0  0
 48 53  1  0  0  0  0
 48 69  1  0  0  0  0
 49 75  1  0  0  0  0
 50 54  1  0  0  0  0
 50 75  1  0  0  0  0
 51 72  1  0  0  0  0
 52 68  1  0  0  0  0
 53 67  1  0  0  0  0
 54 83  1  0  0  0  0
 56 64  1  0  0  0  0
 57 65  1  0  0  0  0
 58 65  1  0  0  0  0
 59 65  1  0  0  0  0
 60 76  1  0  0  0  0
 61 74  1  0  0  0  0
 62 75  1  0  0  0  0
 63 65  1  0  0  0  0
 63 73  1  0  0  0  0
 64 76  1  0  0  0  0
 66 67  1  0  0  0  0
M  CHG  2  75   1  76   1
M  ISO  4  38 100  54 101  74 100  83 101
M  END
> <Batch ID>
0033

> <Smiles>
CNC(C)C(=O)NC(C(=O)N1Cc2cc([101O:1][101CH:1]3CCN(Cc4cc(Cl)cc(C[100NH:0][100C:0](=O)N5CCCC(n6nc(-c7ccc(Oc8ccc(F)cc8F)cc7)c(C(N)=O)c6N)C5)c4C)C3)ccc2CC1C(=O)NC1CCCc2ccccc21)C(C)(C)C

> <Shape>
0.210

> <Color>
0.084

> <Negative vol penalty>
0.000

$$$$

  -OEChem-04042321453D

 88 97  0     1  0  0  0  0  0999 V2000
  -17.2469  -30.6406   23.1710 C   0  0  0  0  0  0  0  0  0  0  0  0
  -18.6091  -30.4617   22.9524 C   0  0  0  0  0  0  0  0  0  0  0  0
  -25.8463  -13.0995   21.6991 C   0  0  0  0  0  0  0  0  0  0  0  0
  -25.8546  -13.5915   19.3337 C   0  0  0  0  0  0  0  0  0  0  0  0
  -16.4832  -29.5982   23.6945 C   0  0  0  0  0  0  0  0  0  0  0  0
  -19.2087  -29.2405   23.2584 C   0  0  0  0  0  0  0  0  0  0  0  0
  -22.3470  -27.6505   19.6159 C   0  0  0  0  0  0  0  0  0  0  0  0
  -24.7347  -12.2755   21.5239 C   0  0  0  0  0  0  0  0  0  0  0  0
  -24.7429  -12.7675   19.1585 C   0  0  0  0  0  0  0  0  0  0  0  0
  -23.6064  -28.2456   19.5560 C   0  0  0  0  0  0  0  0  0  0  0  0
  -24.1051   -9.1447   20.4128 C   0  0  0  0  0  0  0  0  0  0  0  0
  -24.1138   -7.9012   21.0447 C   0  0  0  0  0  0  0  0  0  0  0  0
  -24.5541  -26.3402   20.6920 C   0  0  0  0  0  0  0  0  0  0  0  0
  -30.6705  -26.4847   20.6454 C   0  0  0  0  0  0  0  0  0  0  0  0
  -30.7992  -26.1336   18.2586 C   0  0  0  0  0  0  0  0  0  0  0  0
  -22.1245   -8.5111   22.2725 C   0  0  0  0  0  0  0  0  0  0  0  0
  -26.4063  -13.7576   20.6040 C   0  0  0  0  0  0  0  0  0  0  0  0
  -28.9097  -14.2361   20.7114 C   0  0  0  0  0  0  0  0  0  0  0  0
  -17.0719  -28.3605   23.9980 C   0  0  0  0  0  0  0  0  0  0  0  0
  -22.1796  -26.3985   20.2251 C   0  0  0  0  0  0  0  0  0  0  0  0
  -18.4524  -28.1810   23.7877 C   0  0  0  0  0  0  0  0  0  0  0  0
  -23.2920  -25.7302   20.7561 C   0  0  0  0  0  0  0  0  0  0  0  0
  -30.5586  -26.9753   19.3445 C   0  0  0  0  0  0  0  0  0  0  0  0
  -31.0231  -25.1523   20.8604 C   0  0  0  0  0  0  0  0  0  0  0  0
  -31.1518  -24.8013   18.4735 C   0  0  0  0  0  0  0  0  0  0  0  0
  -31.2637  -24.3106   19.7745 C   0  0  0  0  0  0  0  0  0  0  0  0
  -24.1829  -12.1095   20.2536 C   0  0  0  0  0  0  0  0  0  0  0  0
  -24.7097  -27.5917   20.0966 C   0  0  0  0  0  0  0  0  0  0  0  0
  -23.1061  -10.0715   20.7109 C   0  0  0  0  0  0  0  0  0  0  0  0
  -23.1235   -7.5844   21.9745 C   0  0  0  0  0  0  0  0  0  0  0  0
  -22.1158   -9.7547   21.6407 C   0  0  0  0  0  0  0  0  0  0  0  0
  -27.5543  -14.6094   20.7845 C   0  0  0  0  0  0  0  0  0  0  0  0
  -29.5996  -15.3986   20.9548 C   0  0  0  0  0  0  0  0  0  0  0  0
  -29.4930  -12.9533   20.4471 C   0  0  0  0  0  0  0  0  0  0  0  0
  -20.5379  -25.3219   22.7249 C   0  0  0  0  0  0  0  0  0  0  0  0
  -21.5783  -22.4357   21.6716 C   0  0  0  0  0  0  0  0  0  0  0  0
  -23.8959  -20.6599   19.9046 C   0  0  0  0  0  0  0  0  0  0  0  0
  -30.3963  -20.7360   20.0470 C   0  0  0  0  0  0  0  0  0  0  0  0
  -16.2149  -27.2788   24.6064 C   0  0  0  0  0  0  0  0  0  0  0  0
  -20.8190  -25.7581   20.2578 C   0  0  0  0  0  0  0  0  0  0  0  0
  -23.1690  -24.3756   21.4028 C   0  0  0  0  0  0  0  0  0  0  0  0
  -16.8537  -25.8934   24.5531 C   0  0  0  0  0  0  0  0  0  0  0  0
  -27.9918  -19.8972   22.6185 C   0  0  0  0  0  0  0  0  0  0  0  0
  -18.3086  -25.9586   25.0068 C   0  0  0  0  0  0  0  0  0  0  0  0
  -27.7772  -18.4050   22.3591 C   0  0  0  0  0  0  0  0  0  0  0  0
  -26.7786  -29.9434   18.6400 C   0  0  0  0  0  0  0  0  0  0  0  0
  -28.1629  -20.6664   21.3119 C   0  0  0  0  0  0  0  0  0  0  0  0
  -29.0414  -18.6646   20.1741 C   0  0  0  0  0  0  0  0  0  0  0  0
  -27.8031  -27.7864   18.5592 C   0  0  0  0  0  0  0  0  0  0  0  0
  -19.1343  -26.8629   24.0838 C   0  0  1  0  0  0  0  0  0  0  0  0
  -20.6775  -24.7118   21.3590 C   0  0  1  0  0  0  0  0  0  0  0  0
  -28.8842  -17.8281   21.4570 C   0  0  2  0  0  0  0  0  0  0  0  0
  -26.4610  -28.4587   18.7486 C   0  0  1  0  0  0  0  0  0  1  0  0
  -28.2097  -30.1184   19.2021 C   0  0  0  0  0  0  0  0  0  0  0  0
  -31.1351  -24.6514   22.2633 C   0  0  0  0  0  0  0  0  0  0  0  0
  -31.4041  -23.9204   17.2936 C   0  0  0  0  0  0  0  0  0  0  0  0
  -28.2033  -30.7680   20.5890 C   0  0  0  0  0  0  0  0  0  0  0  0
  -29.0678  -30.9342   18.2297 C   0  0  0  0  0  0  0  0  0  0  0  0
  -24.5033  -18.3134   19.2548 C   0  0  0  0  0  0  0  0  0  0  0  0
  -22.6592  -21.9399   24.4815 C   0  0  0  0  0  0  0  0  0  0  0  0
  -24.0434  -20.0759   23.5448 C   0  0  0  0  0  0  0  0  0  0  0  0
  -21.5545  -19.9609   23.4245 C   0  0  0  0  0  0  0  0  0  0  0  0
  -23.6007  -21.2583   17.0213 C   0  0  0  0  0  0  0  0  0  0  0  0
  -31.6413  -22.8820   20.0053 C   0  0  0  0  0  0  0  0  0  0  0  0
  -30.1800  -28.4086   19.1133 C   0  0  0  0  0  0  0  0  0  0  0  0
  -22.7942  -21.5787   21.9286 C   0  0  1  0  0  0  0  0  0  0  0  0
  -23.7465  -19.5712   18.8573 C   0  0  2  0  0  0  0  0  0  0  0  0
  -22.7652  -20.9152   23.3345 C   0  0  0  0  0  0  0  0  0  0  0  0
  -27.3908  -15.9075   21.0535 N   0  0  0  0  0  0  0  0  0  0  0  0
  -28.6524  -16.3599   21.1515 N   0  0  0  0  0  0  0  0  0  0  0  0
  -21.8167  -23.7935   21.4159 N   0  0  0  0  0  0  0  0  0  0  0  0
  -29.2440  -20.0783   20.5085 N   0  0  0  0  0  0  0  0  0  0  0  0
  -30.9180  -15.6819   21.0176 N   0  0  0  0  0  0  0  0  0  0  0  0
  -28.6393  -11.8655   20.2186 N   0  0  0  0  0  0  0  0  0  0  0  0
  -19.4554  -26.1711   22.8538 N   0  0  0  0  0  0  0  0  0  0  0  0
  -22.8669  -20.6308   20.8220 N   0  0  0  0  0  0  0  0  0  0  0  0
  -30.5087  -22.0749   20.4013 N   0  0  0  0  0  0  0  0  0  0  0  0
  -28.7281  -28.6782   19.3566 N   0  3  2  0  0  0  0  0  0  0  0  0
  -24.2717  -20.0403   17.5439 N   0  3  0  0  0  0  0  0  0  0  0  0
  -30.7343  -12.7735   20.4307 O   0  0  0  0  0  0  0  0  0  0  0  0
  -21.3511  -25.0418   23.5978 O   0  0  0  0  0  0  0  0  0  0  0  0
  -20.4588  -21.9181   21.6896 O   0  0  0  0  0  0  0  0  0  0  0  0
  -24.8338  -21.4542   19.9107 O   0  0  0  0  0  0  0  0  0  0  0  0
  -31.2641  -20.1703   19.3733 O   0  0  0  0  0  0  0  0  0  0  0  0
  -23.0983  -11.3053   20.0821 O   0  0  0  0  0  0  0  0  0  0  0  0
  -25.9400  -28.1706   20.0401 O   0  0  0  0  0  0  0  0  0  1  0  0
  -23.1312   -6.3897   22.5801 F   0  0  0  0  0  0  0  0  0  0  0  0
  -21.1528  -10.6404   21.9302 F   0  0  0  0  0  0  0  0  0  0  0  0
  1  2  1  0  0  0  0
  1  5  2  0  0  0  0
  2  6  2  0  0  0  0
  3  8  2  0  0  0  0
  3 17  1  0  0  0  0
  4  9  1  0  0  0  0
  4 17  2  0  0  0  0
  5 19  1  0  0  0  0
  6 21  1  0  0  0  0
  7 10  2  0  0  0  0
  7 20  1  0  0  0  0
  8 27  1  0  0  0  0
  9 27  2  0  0  0  0
 10 28  1  0  0  0  0
 11 12  2  0  0  0  0
 11 29  1  0  0  0  0
 12 30  1  0  0  0  0
 13 22  1  0  0  0  0
 13 28  2  0  0  0  0
 14 23  1  0  0  0  0
 14 24  2  0  0  0  0
 15 23  2  0  0  0  0
 15 25  1  0  0  0  0
 16 30  2  0  0  0  0
 16 31  1  0  0  0  0
 17 32  1  0  0  0  0
 18 32  1  0  0  0  0
 18 33  2  0  0  0  0
 18 34  1  0  0  0  0
 19 21  2  0  0  0  0
 19 39  1  0  0  0  0
 20 22  2  0  0  0  0
 20 40  1  0  0  0  0
 21 50  1  0  0  0  0
 22 41  1  0  0  0  0
 23 65  1  0  0  0  0
 24 26  1  0  0  0  0
 24 55  1  0  0  0  0
 25 26  2  0  0  0  0
 25 56  1  0  0  0  0
 26 64  1  0  0  0  0
 27 85  1  0  0  0  0
 28 86  1  0  0  0  0
 29 31  2  0  0  0  0
 29 85  1  0  0  0  0
 30 87  1  0  0  0  0
 31 88  1  0  0  0  0
 32 69  2  0  0  0  0
 33 70  1  0  0  0  0
 33 73  1  0  0  0  0
 34 74  1  0  0  0  0
 34 80  2  0  0  0  0
 35 51  1  0  0  0  0
 35 75  1  0  0  0  0
 35 81  2  0  0  0  0
 36 66  1  0  0  0  0
 36 71  1  0  0  0  0
 36 82  2  0  0  0  0
 37 67  1  0  0  0  0
 37 76  1  0  0  0  0
 37 83  2  0  0  0  0
 38 72  1  0  0  0  0
 38 77  1  0  0  0  0
 38 84  2  0  0  0  0
 39 42  1  0  0  0  0
 40 51  1  0  0  0  0
 41 71  1  0  0  0  0
 42 44  1  0  0  0  0
 43 45  1  0  0  0  0
 43 47  1  0  0  0  0
 44 50  1  0  0  0  0
 45 52  1  0  0  0  0
 46 53  1  0  0  0  0
 46 54  1  0  0  0  0
 47 72  1  0  0  0  0
 48 52  1  0  0  0  0
 48 72  1  0  0  0  0
 49 53  1  0  0  0  0
 49 78  1  0  0  0  0
 50 75  1  0  0  0  0
 51 71  1  0  0  0  0
 52 70  1  0  0  0  0
 53 86  1  0  0  0  0
 54 57  1  0  0  0  0
 54 58  1  0  0  0  0
 54 78  1  0  0  0  0
 59 67  1  0  0  0  0
 60 68  1  0  0  0  0
 61 68  1  0  0  0  0
 62 68  1  0  0  0  0
 63 79  1  0  0  0  0
 64 77  1  0  0  0  0
 65 78  1  0  0  0  0
 66 68  1  0  0  0  0
 66 76  1  0  0  0  0
 67 79  1  0  0  0  0
 69 70  1  0  0  0  0
M  CHG  2  78   1  79   1
M  ISO  4  38 100  53 101  77 100  86 101
M  END
> <Batch ID>
0033

> <Smiles>
CNC(C)C(=O)NC(C(=O)N1Cc2cc([101O:1][101CH:1]3CN(Cc4cc(C)c(C[100NH:0][100C:0](=O)N5CCCC(n6nc(-c7ccc(Oc8ccc(F)cc8F)cc7)c(C(N)=O)c6N)C5)c(C)c4)C(C)(C)C3)ccc2CC1C(=O)NC1CCCc2ccccc21)C(C)(C)C

> <Shape>
0.253

> <Color>
0.051

> <Negative vol penalty>
0.000

$$$$

  -OEChem-04042321453D

 87 96  0     1  0  0  0  0  0999 V2000
  -18.8429  -33.0328   20.2698 C   0  0  0  0  0  0  0  0  0  0  0  0
  -20.1576  -32.7271   19.9327 C   0  0  0  0  0  0  0  0  0  0  0  0
  -28.6039  -17.5222   20.2156 C   0  0  0  0  0  0  0  0  0  0  0  0
  -26.1952  -17.7002   20.1552 C   0  0  0  0  0  0  0  0  0  0  0  0
  -18.3036  -32.5617   21.4661 C   0  0  0  0  0  0  0  0  0  0  0  0
  -20.9341  -31.9510   20.7923 C   0  0  0  0  0  0  0  0  0  0  0  0
  -25.2240  -27.8767   19.2103 C   0  0  0  0  0  0  0  0  0  0  0  0
  -29.3032  -27.1602   14.1746 C   0  0  0  0  0  0  0  0  0  0  0  0
  -29.3990  -28.2588   15.0288 C   0  0  0  0  0  0  0  0  0  0  0  0
  -28.4961  -16.2649   20.8098 C   0  0  0  0  0  0  0  0  0  0  0  0
  -26.0874  -16.4428   20.7494 C   0  0  0  0  0  0  0  0  0  0  0  0
  -26.6142  -27.9572   19.1415 C   0  0  0  0  0  0  0  0  0  0  0  0
  -26.3195  -13.2098   19.7933 C   0  0  0  0  0  0  0  0  0  0  0  0
  -25.3912  -12.3182   19.2559 C   0  0  0  0  0  0  0  0  0  0  0  0
  -26.7730  -26.9953   21.3481 C   0  0  0  0  0  0  0  0  0  0  0  0
  -30.9726  -25.9997   15.4796 C   0  0  0  0  0  0  0  0  0  0  0  0
  -24.2444  -12.2317   21.3806 C   0  0  0  0  0  0  0  0  0  0  0  0
  -27.4534  -18.2399   19.8883 C   0  0  0  0  0  0  0  0  0  0  0  0
  -28.1972  -20.6787   19.8062 C   0  0  0  0  0  0  0  0  0  0  0  0
  -19.0709  -31.7713   22.3363 C   0  0  0  0  0  0  0  0  0  0  0  0
  -24.5965  -27.3641   20.3548 C   0  0  0  0  0  0  0  0  0  0  0  0
  -20.4050  -31.4700   22.0021 C   0  0  0  0  0  0  0  0  0  0  0  0
  -25.3748  -26.9070   21.4278 C   0  0  0  0  0  0  0  0  0  0  0  0
  -30.0899  -26.0307   14.4001 C   0  0  0  0  0  0  0  0  0  0  0  0
  -30.2818  -28.2278   16.1084 C   0  0  0  0  0  0  0  0  0  0  0  0
  -31.0686  -27.0983   16.3338 C   0  0  0  0  0  0  0  0  0  0  0  0
  -27.2379  -15.7252   21.0766 C   0  0  0  0  0  0  0  0  0  0  0  0
  -27.3888  -27.5192   20.2117 C   0  0  0  0  0  0  0  0  0  0  0  0
  -26.2104  -13.6123   21.1244 C   0  0  0  0  0  0  0  0  0  0  0  0
  -24.3536  -11.8292   20.0496 C   0  0  0  0  0  0  0  0  0  0  0  0
  -25.1728  -13.1233   21.9180 C   0  0  0  0  0  0  0  0  0  0  0  0
  -27.5641  -19.5391   19.2750 C   0  0  0  0  0  0  0  0  0  0  0  0
  -28.0268  -21.6453   18.8454 C   0  0  0  0  0  0  0  0  0  0  0  0
  -28.8784  -20.8485   21.0563 C   0  0  0  0  0  0  0  0  0  0  0  0
  -22.5802  -28.5281   22.5189 C   0  0  0  0  0  0  0  0  0  0  0  0
  -22.5627  -25.4631   23.5808 C   0  0  0  0  0  0  0  0  0  0  0  0
  -24.1620  -22.4544   23.7734 C   0  0  0  0  0  0  0  0  0  0  0  0
  -28.0859  -23.2620   13.5042 C   0  0  0  0  0  0  0  0  0  0  0  0
  -18.4596  -31.3245   23.6406 C   0  0  0  0  0  0  0  0  0  0  0  0
  -23.0968  -27.2592   20.4025 C   0  0  0  0  0  0  0  0  0  0  0  0
  -24.7505  -26.3297   22.6710 C   0  0  0  0  0  0  0  0  0  0  0  0
  -19.2304  -30.1951   24.3193 C   0  0  0  0  0  0  0  0  0  0  0  0
  -25.1225  -21.6952   14.7043 C   0  0  0  0  0  0  0  0  0  0  0  0
  -20.7255  -30.4976   24.3253 C   0  0  0  0  0  0  0  0  0  0  0  0
  -25.5474  -21.0837   16.0405 C   0  0  0  0  0  0  0  0  0  0  0  0
  -30.3879  -26.4127   21.4758 C   0  0  0  0  0  0  0  0  0  0  0  0
  -31.5142  -27.4244   21.2985 C   0  0  0  0  0  0  0  0  0  0  0  0
  -26.2406  -21.6174   13.6670 C   0  0  0  0  0  0  0  0  0  0  0  0
  -27.9542  -21.5766   15.4378 C   0  0  0  0  0  0  0  0  0  0  0  0
  -30.2512  -26.1508   18.9714 C   0  0  0  0  0  0  0  0  0  0  0  0
  -21.2713  -30.6101   22.8967 C   0  0  1  0  0  0  0  0  0  0  0  0
  -22.5472  -27.1962   21.8242 C   0  0  1  0  0  0  0  0  0  0  0  0
  -26.8790  -21.6820   16.5328 C   0  0  2  0  0  0  0  0  0  0  0  0
  -29.4722  -26.3754   20.2588 C   0  0  2  0  0  0  0  0  0  1  0  0
  -32.3107  -27.1876   20.0098 C   0  0  2  0  0  0  0  0  0  0  0  0
  -30.3679  -29.4164   17.0086 C   0  0  0  0  0  0  0  0  0  0  0  0
  -33.3698  -28.2768   19.8504 C   0  0  0  0  0  0  0  0  0  0  0  0
  -23.9169  -20.1515   24.7396 C   0  0  0  0  0  0  0  0  0  0  0  0
  -23.2822  -26.5472   26.3407 C   0  0  0  0  0  0  0  0  0  0  0  0
  -23.9458  -24.2256   27.0029 C   0  0  0  0  0  0  0  0  0  0  0  0
  -21.5868  -24.7087   26.3516 C   0  0  0  0  0  0  0  0  0  0  0  0
  -24.2152  -21.1986   21.0940 C   0  0  0  0  0  0  0  0  0  0  0  0
  -29.9876  -24.8565   13.4864 C   0  0  0  0  0  0  0  0  0  0  0  0
  -32.0252  -27.0423   17.4882 C   0  0  0  0  0  0  0  0  0  0  0  0
  -23.3811  -24.6700   24.5709 C   0  0  1  0  0  0  0  0  0  0  0  0
  -23.6757  -21.0376   23.5275 C   0  0  2  0  0  0  0  0  0  0  0  0
  -23.0610  -25.0505   26.0440 C   0  0  0  0  0  0  0  0  0  0  0  0
  -27.0311  -19.7597   18.0703 N   0  0  0  0  0  0  0  0  0  0  0  0
  -27.3289  -21.0492   17.8366 N   0  0  0  0  0  0  0  0  0  0  0  0
  -23.2802  -26.2540   22.6723 N   0  0  0  0  0  0  0  0  0  0  0  0
  -27.4749  -22.2029   14.1957 N   0  0  0  0  0  0  0  0  0  0  0  0
  -28.4073  -22.9386   18.7736 N   0  0  0  0  0  0  0  0  0  0  0  0
  -28.1374  -21.2682   22.1695 N   0  0  0  0  0  0  0  0  0  0  0  0
  -21.4486  -29.2954   22.3184 N   0  0  0  0  0  0  0  0  0  0  0  0
  -23.1547  -23.2640   24.2542 N   0  0  0  0  0  0  0  0  0  0  0  0
  -29.2485  -23.7630   14.0770 N   0  0  0  0  0  0  0  0  0  0  0  0
  -31.3455  -27.1957   18.8279 N   0  3  1  0  0  0  0  0  0  0  0  0
  -24.3857  -20.4414   22.3607 N   0  3  0  0  0  0  0  0  0  0  0  0
  -30.1110  -20.6500   21.1787 O   0  0  0  0  0  0  0  0  0  0  0  0
  -23.5592  -28.8362   23.1885 O   0  0  0  0  0  0  0  0  0  0  0  0
  -21.3324  -25.3783   23.6079 O   0  0  0  0  0  0  0  0  0  0  0  0
  -25.3206  -22.8068   23.5637 O   0  0  0  0  0  0  0  0  0  0  0  0
  -27.6262  -23.7301   12.4571 O   0  0  0  0  0  0  0  0  0  0  0  0
  -27.1324  -14.4982   21.6562 O   0  0  0  0  0  0  0  0  0  0  0  0
  -28.7459  -27.5972   20.1474 O   0  0  0  0  0  0  0  0  0  1  0  0
  -23.4613  -10.9742   19.5329 F   0  0  0  0  0  0  0  0  0  0  0  0
  -25.0620  -13.5073   23.1971 F   0  0  0  0  0  0  0  0  0  0  0  0
  1  2  1  0  0  0  0
  1  5  2  0  0  0  0
  2  6  2  0  0  0  0
  3 10  2  0  0  0  0
  3 18  1  0  0  0  0
  4 11  1  0  0  0  0
  4 18  2  0  0  0  0
  5 20  1  0  0  0  0
  6 22  1  0  0  0  0
  7 12  2  0  0  0  0
  7 21  1  0  0  0  0
  8  9  2  0  0  0  0
  8 24  1  0  0  0  0
  9 25  1  0  0  0  0
 10 27  1  0  0  0  0
 11 27  2  0  0  0  0
 12 28  1  0  0  0  0
 13 14  2  0  0  0  0
 13 29  1  0  0  0  0
 14 30  1  0  0  0  0
 15 23  1  0  0  0  0
 15 28  2  0  0  0  0
 16 24  2  0  0  0  0
 16 26  1  0  0  0  0
 17 30  2  0  0  0  0
 17 31  1  0  0  0  0
 18 32  1  0  0  0  0
 19 32  1  0  0  0  0
 19 33  2  0  0  0  0
 19 34  1  0  0  0  0
 20 22  2  0  0  0  0
 20 39  1  0  0  0  0
 21 23  2  0  0  0  0
 21 40  1  0  0  0  0
 22 51  1  0  0  0  0
 23 41  1  0  0  0  0
 24 63  1  0  0  0  0
 25 26  2  0  0  0  0
 25 56  1  0  0  0  0
 26 64  1  0  0  0  0
 27 84  1  0  0  0  0
 28 85  1  0  0  0  0
 29 31  2  0  0  0  0
 29 84  1  0  0  0  0
 30 86  1  0  0  0  0
 31 87  1  0  0  0  0
 32 68  2  0  0  0  0
 33 69  1  0  0  0  0
 33 72  1  0  0  0  0
 34 73  1  0  0  0  0
 34 79  2  0  0  0  0
 35 52  1  0  0  0  0
 35 74  1  0  0  0  0
 35 80  2  0  0  0  0
 36 65  1  0  0  0  0
 36 70  1  0  0  0  0
 36 81  2  0  0  0  0
 37 66  1  0  0  0  0
 37 75  1  0  0  0  0
 37 82  2  0  0  0  0
 38 71  1  0  0  0  0
 38 76  1  0  0  0  0
 38 83  2  0  0  0  0
 39 42  1  0  0  0  0
 40 52  1  0  0  0  0
 41 70  1  0  0  0  0
 42 44  1  0  0  0  0
 43 45  1  0  0  0  0
 43 48  1  0  0  0  0
 44 51  1  0  0  0  0
 45 53  1  0  0  0  0
 46 47  1  0  0  0  0
 46 54  1  0  0  0  0
 47 55  1  0  0  0  0
 48 71  1  0  0  0  0
 49 53  1  0  0  0  0
 49 71  1  0  0  0  0
 50 54  1  0  0  0  0
 50 77  1  0  0  0  0
 51 74  1  0  0  0  0
 52 70  1  0  0  0  0
 53 69  1  0  0  0  0
 54 85  1  0  0  0  0
 55 57  1  0  0  0  0
 55 77  1  0  0  0  0
 58 66  1  0  0  0  0
 59 67  1  0  0  0  0
 60 67  1  0  0  0  0
 61 67  1  0  0  0  0
 62 78  1  0  0  0  0
 63 76  1  0  0  0  0
 64 77  1  0  0  0  0
 65 67  1  0  0  0  0
 65 75  1  0  0  0  0
 66 78  1  0  0  0  0
 68 69  1  0  0  0  0
M  CHG  2  77   1  78   1
M  ISO  4  38 100  54 101  76 100  85 101
M  END
> <Batch ID>
0033

> <Smiles>
CNC(C)C(=O)NC(C(=O)N1Cc2cc([101O:1][101CH:1]3CCC(C)N(Cc4cc(C[100NH:0][100C:0](=O)N5CCCC(n6nc(-c7ccc(Oc8ccc(F)cc8F)cc7)c(C(N)=O)c6N)C5)ccc4C)C3)ccc2CC1C(=O)NC1CCCc2ccccc21)C(C)(C)C

> <Shape>
0.175

> <Color>
0.090

> <Negative vol penalty>
0.000

$$$$

  -OEChem-04042321453D

 88 97  0     1  0  0  0  0  0999 V2000
  -39.8177  -23.8261   18.8073 C   0  0  0  0  0  0  0  0  0  0  0  0
  -39.2496  -23.3252   19.9743 C   0  0  0  0  0  0  0  0  0  0  0  0
  -23.0772   -9.8882   19.9160 C   0  0  0  0  0  0  0  0  0  0  0  0
  -23.8513   -9.8545   22.2043 C   0  0  0  0  0  0  0  0  0  0  0  0
  -39.1496  -24.8046   18.0725 C   0  0  0  0  0  0  0  0  0  0  0  0
  -38.0136  -23.8034   20.4077 C   0  0  0  0  0  0  0  0  0  0  0  0
  -33.6309  -20.6203   23.2653 C   0  0  0  0  0  0  0  0  0  0  0  0
  -22.3393   -8.7276   20.1485 C   0  0  0  0  0  0  0  0  0  0  0  0
  -23.1134   -8.6939   22.4369 C   0  0  0  0  0  0  0  0  0  0  0  0
  -33.2821  -20.5031   24.6100 C   0  0  0  0  0  0  0  0  0  0  0  0
  -22.9261   -5.4065   20.3725 C   0  0  0  0  0  0  0  0  0  0  0  0
  -22.9910   -4.3952   19.4140 C   0  0  0  0  0  0  0  0  0  0  0  0
  -31.5998  -22.2068   24.3159 C   0  0  0  0  0  0  0  0  0  0  0  0
  -30.3259  -17.1617   25.7124 C   0  0  0  0  0  0  0  0  0  0  0  0
  -20.6037   -4.5583   19.0803 C   0  0  0  0  0  0  0  0  0  0  0  0
  -23.8332  -10.4517   20.9439 C   0  0  0  0  0  0  0  0  0  0  0  0
  -24.1647  -12.9800   20.8700 C   0  0  0  0  0  0  0  0  0  0  0  0
  -37.9002  -25.2882   18.4920 C   0  0  0  0  0  0  0  0  0  0  0  0
  -32.9730  -21.5409   22.4369 C   0  0  0  0  0  0  0  0  0  0  0  0
  -37.3288  -24.7903   19.6786 C   0  0  0  0  0  0  0  0  0  0  0  0
  -31.9404  -22.3320   22.9604 C   0  0  0  0  0  0  0  0  0  0  0  0
  -30.7620  -16.7250   24.4616 C   0  0  0  0  0  0  0  0  0  0  0  0
  -29.4564  -18.2483   25.8076 C   0  0  0  0  0  0  0  0  0  0  0  0
  -29.0232  -18.8982   24.6519 C   0  0  0  0  0  0  0  0  0  0  0  0
  -29.4593  -18.4615   23.4011 C   0  0  0  0  0  0  0  0  0  0  0  0
  -30.3287  -17.3748   23.3059 C   0  0  0  0  0  0  0  0  0  0  0  0
  -22.3574   -8.1304   21.4089 C   0  0  0  0  0  0  0  0  0  0  0  0
  -32.2684  -21.2985   25.1363 C   0  0  0  0  0  0  0  0  0  0  0  0
  -21.7000   -5.9936   20.6850 C   0  0  0  0  0  0  0  0  0  0  0  0
  -21.8298   -3.9711   18.7679 C   0  0  0  0  0  0  0  0  0  0  0  0
  -20.5388   -5.5695   20.0388 C   0  0  0  0  0  0  0  0  0  0  0  0
  -24.5961  -11.6502   20.7042 C   0  0  0  0  0  0  0  0  0  0  0  0
  -25.2517  -13.7405   20.5143 C   0  0  0  0  0  0  0  0  0  0  0  0
  -22.8949  -13.4827   21.3065 C   0  0  0  0  0  0  0  0  0  0  0  0
  -33.8670  -24.0929   20.7659 C   0  0  0  0  0  0  0  0  0  0  0  0
  -30.8029  -23.9887   19.7062 C   0  0  0  0  0  0  0  0  0  0  0  0
  -27.5821  -22.9989   20.2479 C   0  0  0  0  0  0  0  0  0  0  0  0
  -30.7325  -14.7774   20.6883 C   0  0  0  0  0  0  0  0  0  0  0  0
  -37.2379  -26.3803   17.6899 C   0  0  0  0  0  0  0  0  0  0  0  0
  -33.3429  -21.6363   20.9821 C   0  0  0  0  0  0  0  0  0  0  0  0
  -31.1895  -23.3213   22.1084 C   0  0  0  0  0  0  0  0  0  0  0  0
  -35.7582  -26.5640   18.0167 C   0  0  0  0  0  0  0  0  0  0  0  0
  -29.5892  -12.4343   18.2635 C   0  0  0  0  0  0  0  0  0  0  0  0
  -29.8066  -20.7854   29.8779 C   0  0  0  0  0  0  0  0  0  0  0  0
  -35.5440  -26.5896   19.5267 C   0  0  0  0  0  0  0  0  0  0  0  0
  -28.1556  -12.1267   18.6996 C   0  0  0  0  0  0  0  0  0  0  0  0
  -31.1929  -20.7893   29.2648 C   0  0  0  0  0  0  0  0  0  0  0  0
  -30.5129  -12.6358   19.4627 C   0  0  0  0  0  0  0  0  0  0  0  0
  -28.6171  -13.3329   20.8747 C   0  0  0  0  0  0  0  0  0  0  0  0
  -28.8836  -20.7167   28.6766 C   0  0  0  0  0  0  0  0  0  0  0  0
  -35.9781  -25.2661   20.1680 C   0  0  1  0  0  0  0  0  0  0  0  0
  -32.9560  -22.9714   20.3535 C   0  0  1  0  0  0  0  0  0  0  0  0
  -27.6363  -13.1769   19.7000 C   0  0  2  0  0  0  0  0  0  0  0  0
  -31.0762  -19.7442   28.1653 C   0  0  2  0  0  0  0  0  0  0  0  0
  -31.6934  -15.5595   24.3874 C   0  0  0  0  0  0  0  0  0  0  0  0
  -28.0913  -20.0638   24.7571 C   0  0  0  0  0  0  0  0  0  0  0  0
  -28.9941  -19.1582   22.1613 C   0  0  0  0  0  0  0  0  0  0  0  0
  -25.1513  -22.6125   19.7585 C   0  0  0  0  0  0  0  0  0  0  0  0
  -30.5403  -26.9062   20.5601 C   0  0  0  0  0  0  0  0  0  0  0  0
  -28.0541  -26.6548   20.4065 C   0  0  0  0  0  0  0  0  0  0  0  0
  -29.4640  -26.3593   18.3699 C   0  0  0  0  0  0  0  0  0  0  0  0
  -28.1279  -20.3575   19.0298 C   0  0  0  0  0  0  0  0  0  0  0  0
  -30.7979  -16.9042   21.9655 C   0  0  0  0  0  0  0  0  0  0  0  0
  -29.0017  -18.6974   27.1650 C   0  0  0  0  0  0  0  0  0  0  0  0
  -32.1018  -19.9085   27.0588 C   0  0  0  0  0  0  0  0  0  1  0  0
  -29.4921  -24.5799   20.1657 C   0  0  1  0  0  0  0  0  0  0  0  0
  -26.5812  -22.2921   19.3517 C   0  0  2  0  0  0  0  0  0  0  0  0
  -29.4029  -26.1079   19.8923 C   0  0  0  0  0  0  0  0  0  0  0  0
  -25.8587  -11.5674   20.2764 N   0  0  0  0  0  0  0  0  0  0  0  0
  -26.2299  -12.8546   20.1702 N   0  0  0  0  0  0  0  0  0  0  0  0
  -31.5922  -23.3821   20.6936 N   0  0  0  0  0  0  0  0  0  0  0  0
  -29.9640  -13.6451   20.3715 N   0  0  0  0  0  0  0  0  0  0  0  0
  -25.4565  -15.0740   20.4654 N   0  0  0  0  0  0  0  0  0  0  0  0
  -21.8885  -12.5633   21.6326 N   0  0  0  0  0  0  0  0  0  0  0  0
  -34.9735  -24.2468   19.9527 N   0  0  0  0  0  0  0  0  0  0  0  0
  -28.4430  -23.7957   19.5232 N   0  0  0  0  0  0  0  0  0  0  0  0
  -30.1351  -15.6876   21.5515 N   0  0  0  0  0  0  0  0  0  0  0  0
  -29.6705  -19.9585   27.6207 N   0  3  1  0  0  0  0  0  0  0  0  0
  -26.7715  -20.8159   19.4260 N   0  3  0  0  0  0  0  0  0  0  0  0
  -22.6543  -14.7111   21.3887 O   0  0  0  0  0  0  0  0  0  0  0  0
  -33.5859  -24.7694   21.7482 O   0  0  0  0  0  0  0  0  0  0  0  0
  -31.1117  -24.0560   18.5139 O   0  0  0  0  0  0  0  0  0  0  0  0
  -27.5961  -22.8611   21.4691 O   0  0  0  0  0  0  0  0  0  0  0  0
  -31.8650  -14.9659   20.2311 O   0  0  0  0  0  0  0  0  0  0  0  0
  -21.6373   -6.9980   21.6362 O   0  0  0  0  0  0  0  0  0  0  0  0
  -31.9264  -21.1865   26.4487 O   0  0  0  0  0  0  0  0  0  1  0  0
  -21.8926   -3.0011   17.8464 F   0  0  0  0  0  0  0  0  0  0  0  0
  -19.3582   -6.1307   20.3339 F   0  0  0  0  0  0  0  0  0  0  0  0
  1  2  1  0  0  0  0
  1  5  2  0  0  0  0
  2  6  2  0  0  0  0
  3  8  2  0  0  0  0
  3 16  1  0  0  0  0
  4  9  1  0  0  0  0
  4 16  2  0  0  0  0
  5 18  1  0  0  0  0
  6 20  1  0  0  0  0
  7 10  2  0  0  0  0
  7 19  1  0  0  0  0
  8 27  1  0  0  0  0
  9 27  2  0  0  0  0
 10 28  1  0  0  0  0
 11 12  2  0  0  0  0
 11 29  1  0  0  0  0
 12 30  1  0  0  0  0
 13 21  1  0  0  0  0
 13 28  2  0  0  0  0
 14 22  2  0  0  0  0
 14 23  1  0  0  0  0
 15 30  2  0  0  0  0
 15 31  1  0  0  0  0
 16 32  1  0  0  0  0
 17 32  1  0  0  0  0
 17 33  2  0  0  0  0
 17 34  1  0  0  0  0
 18 20  2  0  0  0  0
 18 39  1  0  0  0  0
 19 21  2  0  0  0  0
 19 40  1  0  0  0  0
 20 51  1  0  0  0  0
 21 41  1  0  0  0  0
 22 26  1  0  0  0  0
 22 55  1  0  0  0  0
 23 24  2  0  0  0  0
 23 64  1  0  0  0  0
 24 25  1  0  0  0  0
 24 56  1  0  0  0  0
 25 26  2  0  0  0  0
 25 57  1  0  0  0  0
 26 63  1  0  0  0  0
 27 85  1  0  0  0  0
 28 86  1  0  0  0  0
 29 31  2  0  0  0  0
 29 85  1  0  0  0  0
 30 87  1  0  0  0  0
 31 88  1  0  0  0  0
 32 69  2  0  0  0  0
 33 70  1  0  0  0  0
 33 73  1  0  0  0  0
 34 74  1  0  0  0  0
 34 80  2  0  0  0  0
 35 52  1  0  0  0  0
 35 75  1  0  0  0  0
 35 81  2  0  0  0  0
 36 66  1  0  0  0  0
 36 71  1  0  0  0  0
 36 82  2  0  0  0  0
 37 67  1  0  0  0  0
 37 76  1  0  0  0  0
 37 83  2  0  0  0  0
 38 72  1  0  0  0  0
 38 77  1  0  0  0  0
 38 84  2  0  0  0  0
 39 42  1  0  0  0  0
 40 52  1  0  0  0  0
 41 71  1  0  0  0  0
 42 45  1  0  0  0  0
 43 46  1  0  0  0  0
 43 48  1  0  0  0  0
 44 47  1  0  0  0  0
 44 50  1  0  0  0  0
 45 51  1  0  0  0  0
 46 53  1  0  0  0  0
 47 54  1  0  0  0  0
 48 72  1  0  0  0  0
 49 53  1  0  0  0  0
 49 72  1  0  0  0  0
 50 78  1  0  0  0  0
 51 75  1  0  0  0  0
 52 71  1  0  0  0  0
 53 70  1  0  0  0  0
 54 65  1  0  0  0  0
 54 78  1  0  0  0  0
 58 67  1  0  0  0  0
 59 68  1  0  0  0  0
 60 68  1  0  0  0  0
 61 68  1  0  0  0  0
 62 79  1  0  0  0  0
 63 77  1  0  0  0  0
 64 78  1  0  0  0  0
 65 86  1  0  0  0  0
 66 68  1  0  0  0  0
 66 76  1  0  0  0  0
 67 79  1  0  0  0  0
 69 70  1  0  0  0  0
M  CHG  2  78   1  79   1
M  ISO  4  38 100  65 101  77 100  86 101
M  END
> <Batch ID>
0033

> <Smiles>
CNC(C)C(=O)NC(C(=O)N1Cc2cc([101O:1][101CH2:1]C3CCCN3Cc3cc(C)c(C[100NH:0][100C:0](=O)N4CCCC(n5nc(-c6ccc(Oc7ccc(F)cc7F)cc6)c(C(N)=O)c5N)C4)c(C)c3C)ccc2CC1C(=O)NC1CCCc2ccccc21)C(C)(C)C

> <Shape>
0.209

> <Color>
0.189

> <Negative vol penalty>
0.000

$$$$

  -OEChem-04042321453D

 86 95  0     1  0  0  0  0  0999 V2000
  -26.1598   -7.5036   23.1270 C   0  0  0  0  0  0  0  0  0  0  0  0
  -27.0658   -8.5427   22.9403 C   0  0  0  0  0  0  0  0  0  0  0  0
  -19.6140  -28.1570   22.4015 C   0  0  0  0  0  0  0  0  0  0  0  0
  -20.9723  -26.3474   23.2484 C   0  0  0  0  0  0  0  0  0  0  0  0
  -24.9785   -7.4690   22.3874 C   0  0  0  0  0  0  0  0  0  0  0  0
  -26.7914   -9.5473   22.0129 C   0  0  0  0  0  0  0  0  0  0  0  0
  -28.2756  -15.4723   22.4564 C   0  0  0  0  0  0  0  0  0  0  0  0
  -18.4700  -27.3767   22.5689 C   0  0  0  0  0  0  0  0  0  0  0  0
  -19.8283  -25.5671   23.4159 C   0  0  0  0  0  0  0  0  0  0  0  0
  -29.3246  -16.2191   21.9220 C   0  0  0  0  0  0  0  0  0  0  0  0
  -17.7716  -23.7126   21.4764 C   0  0  0  0  0  0  0  0  0  0  0  0
  -17.8233  -22.3863   21.0476 C   0  0  0  0  0  0  0  0  0  0  0  0
  -27.9022  -16.8993   20.0962 C   0  0  0  0  0  0  0  0  0  0  0  0
  -30.3331  -23.7881   21.0716 C   0  0  0  0  0  0  0  0  0  0  0  0
  -30.7742  -22.8614   18.4774 C   0  0  0  0  0  0  0  0  0  0  0  0
  -17.3571  -21.6406   23.2978 C   0  0  0  0  0  0  0  0  0  0  0  0
  -20.8652  -27.6423   22.7412 C   0  0  0  0  0  0  0  0  0  0  0  0
  -22.3266  -29.6885   23.1714 C   0  0  0  0  0  0  0  0  0  0  0  0
  -24.6850   -8.4788   21.4574 C   0  0  0  0  0  0  0  0  0  0  0  0
  -27.0332  -15.4246   21.8079 C   0  0  0  0  0  0  0  0  0  0  0  0
  -25.6056   -9.5254   21.2592 C   0  0  0  0  0  0  0  0  0  0  0  0
  -26.8383  -16.1532   20.6259 C   0  0  0  0  0  0  0  0  0  0  0  0
  -30.3924  -22.4171   20.8214 C   0  0  0  0  0  0  0  0  0  0  0  0
  -30.4942  -24.6957   20.0247 C   0  0  0  0  0  0  0  0  0  0  0  0
  -30.6130  -21.9538   19.5243 C   0  0  0  0  0  0  0  0  0  0  0  0
  -18.5771  -26.0818   23.0762 C   0  0  0  0  0  0  0  0  0  0  0  0
  -29.1389  -16.9304   20.7401 C   0  0  0  0  0  0  0  0  0  0  0  0
  -17.5128  -24.0029   22.8159 C   0  0  0  0  0  0  0  0  0  0  0  0
  -17.6160  -21.3503   21.9583 C   0  0  0  0  0  0  0  0  0  0  0  0
  -30.7148  -24.2324   18.7277 C   0  0  0  0  0  0  0  0  0  0  0  0
  -17.3055  -22.9670   23.7266 C   0  0  0  0  0  0  0  0  0  0  0  0
  -22.0473  -28.4477   22.5679 C   0  0  0  0  0  0  0  0  0  0  0  0
  -23.5638  -30.0355   22.6861 C   0  0  0  0  0  0  0  0  0  0  0  0
  -31.7314  -19.8455   18.7135 C   0  0  0  0  0  0  0  0  0  0  0  0
  -33.0452  -20.1114   18.6806 C   0  0  0  0  0  0  0  0  0  0  0  0
  -21.5383  -30.4585   24.0886 C   0  0  0  0  0  0  0  0  0  0  0  0
  -25.2759  -13.1251   20.4935 C   0  0  0  0  0  0  0  0  0  0  0  0
  -23.0948  -15.5060   20.1830 C   0  0  0  0  0  0  0  0  0  0  0  0
  -22.4728  -18.8541   19.9581 C   0  0  0  0  0  0  0  0  0  0  0  0
  -28.0559  -26.7755   20.6740 C   0  0  0  0  0  0  0  0  0  0  0  0
  -23.4172   -8.3733   20.6472 C   0  0  0  0  0  0  0  0  0  0  0  0
  -25.9036  -14.6359   22.4116 C   0  0  0  0  0  0  0  0  0  0  0  0
  -25.5176  -16.1513   19.9018 C   0  0  0  0  0  0  0  0  0  0  0  0
  -31.1931  -18.5263   18.2038 C   0  0  0  0  0  0  0  0  0  0  0  0
  -23.0270   -9.6764   19.9544 C   0  0  0  0  0  0  0  0  0  0  0  0
  -26.3932  -29.4377   18.8724 C   0  0  0  0  0  0  0  0  0  0  0  0
  -24.2375  -10.2977   19.2648 C   0  0  0  0  0  0  0  0  0  0  0  0
  -25.1078  -29.5989   19.6860 C   0  0  0  0  0  0  0  0  0  0  0  0
  -26.8065  -27.9720   18.7766 C   0  0  0  0  0  0  0  0  0  0  0  0
  -25.6822  -27.4494   20.9064 C   0  0  0  0  0  0  0  0  0  0  0  0
  -29.4324  -19.7898   19.3112 C   0  0  0  0  0  0  0  0  0  0  0  0
  -25.3321  -10.6467   20.2805 C   0  0  1  0  0  0  0  0  0  0  0  0
  -24.8367  -14.2452   21.3936 C   0  0  1  0  0  0  0  0  0  0  0  0
  -25.2238  -28.9111   21.0592 C   0  0  2  0  0  0  0  0  0  0  0  0
  -29.9017  -18.3629   19.0041 C   0  0  2  0  0  0  0  0  0  1  0  0
  -30.2166  -21.4672   21.9613 C   0  0  0  0  0  0  0  0  0  0  0  0
  -21.1285  -20.9695   19.8356 C   0  0  0  0  0  0  0  0  0  0  0  0
  -22.9380  -14.8059   17.2173 C   0  0  0  0  0  0  0  0  0  0  0  0
  -21.8247  -17.0140   16.8263 C   0  0  0  0  0  0  0  0  0  0  0  0
  -20.7350  -15.3113   18.2878 C   0  0  0  0  0  0  0  0  0  0  0  0
  -22.3592  -19.0897   22.9060 C   0  0  0  0  0  0  0  0  0  0  0  0
  -30.4299  -26.1610   20.2953 C   0  0  0  0  0  0  0  0  0  0  0  0
  -22.7810  -16.5373   19.1261 C   0  0  1  0  0  0  0  0  0  0  0  0
  -21.4651  -19.7412   20.6666 C   0  0  2  0  0  0  0  0  0  0  0  0
  -22.0953  -15.9158   17.8768 C   0  0  0  0  0  0  0  0  0  0  0  0
  -23.0281  -28.0344   21.7608 N   0  0  0  0  0  0  0  0  0  0  0  0
  -23.9357  -29.0212   21.8537 N   0  0  0  0  0  0  0  0  0  0  0  0
  -30.6762  -20.5724   19.2529 N   0  0  0  0  0  0  0  0  0  0  0  0
  -24.4458  -15.3600   20.5284 N   0  0  0  0  0  0  0  0  0  0  0  0
  -26.9171  -27.3818   20.1180 N   0  0  0  0  0  0  0  0  0  0  0  0
  -24.3589  -31.1064   22.8945 N   0  0  0  0  0  0  0  0  0  0  0  0
  -21.7050  -30.2368   25.4624 N   0  0  0  0  0  0  0  0  0  0  0  0
  -24.9967  -11.8647   20.9864 N   0  0  0  0  0  0  0  0  0  0  0  0
  -21.9936  -17.5725   19.7870 N   0  0  0  0  0  0  0  0  0  0  0  0
  -29.1814  -26.7462   19.8597 N   0  0  0  0  0  0  0  0  0  0  0  0
  -22.0071  -20.1954   21.9785 N   0  3  0  0  0  0  0  0  0  0  0  0
  -20.6987  -31.3060   23.7009 O   0  0  0  0  0  0  0  0  0  0  0  0
  -25.8259  -13.3851   19.4297 O   0  0  0  0  0  0  0  0  0  0  0  0
  -22.1743  -14.8591   20.6888 O   0  0  0  0  0  0  0  0  0  0  0  0
  -23.5733  -19.2585   19.5896 O   0  0  0  0  0  0  0  0  0  0  0  0
  -28.0703  -26.3000   21.8145 O   0  0  0  0  0  0  0  0  0  0  0  0
  -17.4610  -25.3202   23.2399 O   0  0  0  0  0  0  0  0  0  0  0  0
  -30.1614  -17.6595   20.2159 O   0  0  0  0  0  0  0  0  0  1  0  0
  -17.6642  -20.0768   21.5461 F   0  0  0  0  0  0  0  0  0  0  0  0
  -30.8706  -25.0970   17.7153 F   0  0  0  0  0  0  0  0  0  0  0  0
  -17.0552  -23.2397   25.0146 F   0  0  0  0  0  0  0  0  0  0  0  0
  1  2  1  0  0  0  0
  1  5  2  0  0  0  0
  2  6  2  0  0  0  0
  3  8  2  0  0  0  0
  3 17  1  0  0  0  0
  4  9  1  0  0  0  0
  4 17  2  0  0  0  0
  5 19  1  0  0  0  0
  6 21  1  0  0  0  0
  7 10  2  0  0  0  0
  7 20  1  0  0  0  0
  8 26  1  0  0  0  0
  9 26  2  0  0  0  0
 10 27  1  0  0  0  0
 11 12  2  0  0  0  0
 11 28  1  0  0  0  0
 12 29  1  0  0  0  0
 13 22  1  0  0  0  0
 13 27  2  0  0  0  0
 14 23  1  0  0  0  0
 14 24  2  0  0  0  0
 15 25  1  0  0  0  0
 15 30  2  0  0  0  0
 16 29  2  0  0  0  0
 16 31  1  0  0  0  0
 17 32  1  0  0  0  0
 18 32  1  0  0  0  0
 18 33  2  0  0  0  0
 18 36  1  0  0  0  0
 19 21  2  0  0  0  0
 19 41  1  0  0  0  0
 20 22  2  0  0  0  0
 20 42  1  0  0  0  0
 21 52  1  0  0  0  0
 22 43  1  0  0  0  0
 23 25  2  0  0  0  0
 23 56  1  0  0  0  0
 24 30  1  0  0  0  0
 24 62  1  0  0  0  0
 25 68  1  0  0  0  0
 26 82  1  0  0  0  0
 27 83  1  0  0  0  0
 28 31  2  0  0  0  0
 28 82  1  0  0  0  0
 29 84  1  0  0  0  0
 30 85  1  0  0  0  0
 31 86  1  0  0  0  0
 32 66  2  0  0  0  0
 33 67  1  0  0  0  0
 33 71  1  0  0  0  0
 34 35  2  0  0  0  0
 34 44  1  0  0  0  0
 34 68  1  0  0  0  0
 36 72  1  0  0  0  0
 36 77  2  0  0  0  0
 37 53  1  0  0  0  0
 37 73  1  0  0  0  0
 37 78  2  0  0  0  0
 38 63  1  0  0  0  0
 38 69  1  0  0  0  0
 38 79  2  0  0  0  0
 39 64  1  0  0  0  0
 39 74  1  0  0  0  0
 39 80  2  0  0  0  0
 40 70  1  0  0  0  0
 40 75  1  0  0  0  0
 40 81  2  0  0  0  0
 41 45  1  0  0  0  0
 42 53  1  0  0  0  0
 43 69  1  0  0  0  0
 44 55  1  0  0  0  0
 45 47  1  0  0  0  0
 46 48  1  0  0  0  0
 46 49  1  0  0  0  0
 47 52  1  0  0  0  0
 48 54  1  0  0  0  0
 49 70  1  0  0  0  0
 50 54  1  0  0  0  0
 50 70  1  0  0  0  0
 51 55  1  0  0  0  0
 51 68  1  0  0  0  0
 52 73  1  0  0  0  0
 53 69  1  0  0  0  0
 54 67  1  0  0  0  0
 55 83  1  0  0  0  0
 57 64  1  0  0  0  0
 58 65  1  0  0  0  0
 59 65  1  0  0  0  0
 60 65  1  0  0  0  0
 61 76  1  0  0  0  0
 62 75  1  0  0  0  0
 63 65  1  0  0  0  0
 63 74  1  0  0  0  0
 64 76  1  0  0  0  0
 66 67  1  0  0  0  0
M  CHG  1  76   1
M  ISO  4  40 100  55 101  75 100  83 101
M  END
> <Batch ID>
0033

> <Smiles>
C=C1C[101CH:1]([101O:1]c2ccc3c(c2)CN(C(=O)C(NC(=O)C(C)NC)C(C)(C)C)C(C(=O)NC2CCCc4ccccc42)C3)CN1c1cc(F)c(C[100NH:0][100C:0](=O)N2CCCC(n3nc(-c4ccc(Oc5ccc(F)cc5F)cc4)c(C(N)=O)c3N)C2)cc1C

> <Shape>
0.248

> <Color>
0.067

> <Negative vol penalty>
0.000

$$$$

  -OEChem-04042321453D

 86 95  0     1  0  0  0  0  0999 V2000
  -16.5883  -29.4644   24.0329 C   0  0  0  0  0  0  0  0  0  0  0  0
  -17.2592  -28.3563   23.5253 C   0  0  0  0  0  0  0  0  0  0  0  0
  -23.6971   -8.3986   19.0535 C   0  0  0  0  0  0  0  0  0  0  0  0
  -24.9285   -8.3661   21.1319 C   0  0  0  0  0  0  0  0  0  0  0  0
  -17.0830  -30.7462   23.7959 C   0  0  0  0  0  0  0  0  0  0  0  0
  -18.4246  -28.5295   22.7795 C   0  0  0  0  0  0  0  0  0  0  0  0
  -22.0872  -25.2995   24.1201 C   0  0  0  0  0  0  0  0  0  0  0  0
  -22.5614   -7.9377   19.7191 C   0  0  0  0  0  0  0  0  0  0  0  0
  -23.7927   -7.9052   21.7976 C   0  0  0  0  0  0  0  0  0  0  0  0
  -21.9874  -23.9918   23.6471 C   0  0  0  0  0  0  0  0  0  0  0  0
  -22.1590   -4.9725   22.1997 C   0  0  0  0  0  0  0  0  0  0  0  0
  -22.3189   -3.9212   23.1024 C   0  0  0  0  0  0  0  0  0  0  0  0
  -23.5835  -24.5040   21.9123 C   0  0  0  0  0  0  0  0  0  0  0  0
  -27.4924  -18.0784   18.9578 C   0  0  0  0  0  0  0  0  0  0  0  0
  -29.5458  -19.9613   19.1028 C   0  0  0  0  0  0  0  0  0  0  0  0
  -21.4800   -5.3225   24.8828 C   0  0  0  0  0  0  0  0  0  0  0  0
  -24.8808   -8.6128   19.7598 C   0  0  0  0  0  0  0  0  0  0  0  0
  -26.7311   -8.4594   18.0105 C   0  0  0  0  0  0  0  0  0  0  0  0
  -18.2603  -30.9347   23.0549 C   0  0  0  0  0  0  0  0  0  0  0  0
  -22.9290  -26.2239   23.4850 C   0  0  0  0  0  0  0  0  0  0  0  0
  -18.9347  -29.8151   22.5312 C   0  0  0  0  0  0  0  0  0  0  0  0
  -23.6941  -25.8221   22.3808 C   0  0  0  0  0  0  0  0  0  0  0  0
  -27.1890  -19.4299   19.1217 C   0  0  0  0  0  0  0  0  0  0  0  0
  -28.2157  -20.3714   19.1941 C   0  0  0  0  0  0  0  0  0  0  0  0
  -28.8226  -17.6683   18.8665 C   0  0  0  0  0  0  0  0  0  0  0  0
  -22.6091   -7.6909   21.0911 C   0  0  0  0  0  0  0  0  0  0  0  0
  -22.7335  -23.5947   22.5413 C   0  0  0  0  0  0  0  0  0  0  0  0
  -21.6598   -6.1988   22.6386 C   0  0  0  0  0  0  0  0  0  0  0  0
  -21.9793   -4.0962   24.4439 C   0  0  0  0  0  0  0  0  0  0  0  0
  -21.3202   -6.3738   23.9802 C   0  0  0  0  0  0  0  0  0  0  0  0
  -29.8492  -18.6097   18.9389 C   0  0  0  0  0  0  0  0  0  0  0  0
  -26.0545   -9.0884   19.0727 C   0  0  0  0  0  0  0  0  0  0  0  0
  -27.7710   -9.3070   17.7158 C   0  0  0  0  0  0  0  0  0  0  0  0
  -26.4452   -7.2198   17.3492 C   0  0  0  0  0  0  0  0  0  0  0  0
  -22.4931  -28.9880   21.9773 C   0  0  0  0  0  0  0  0  0  0  0  0
  -25.7362  -29.0234   21.9230 C   0  0  0  0  0  0  0  0  0  0  0  0
  -28.3861  -26.6473   21.3318 C   0  0  0  0  0  0  0  0  0  0  0  0
  -28.1773  -15.2378   18.6193 C   0  0  0  0  0  0  0  0  0  0  0  0
  -18.7305  -32.3420   22.7847 C   0  0  0  0  0  0  0  0  0  0  0  0
  -23.0456  -27.6233   24.0239 C   0  0  0  0  0  0  0  0  0  0  0  0
  -24.6280  -26.7704   21.6758 C   0  0  0  0  0  0  0  0  0  0  0  0
  -20.1768  -32.4189   22.3023 C   0  0  0  0  0  0  0  0  0  0  0  0
  -30.1624  -12.5082   20.4449 C   0  0  0  0  0  0  0  0  0  0  0  0
  -24.8205  -19.3846   22.9020 C   0  0  0  0  0  0  0  0  0  0  0  0
  -20.4311  -31.3844   21.2106 C   0  0  0  0  0  0  0  0  0  0  0  0
  -29.7805  -11.3022   19.5898 C   0  0  0  0  0  0  0  0  0  0  0  0
  -23.6339  -20.3366   22.9744 C   0  0  0  0  0  0  0  0  0  0  0  0
  -30.0077  -13.8229   19.6910 C   0  0  0  0  0  0  0  0  0  0  0  0
  -27.7902  -12.8283   19.0999 C   0  0  0  0  0  0  0  0  0  0  0  0
  -25.1220  -18.9698   21.4689 C   0  0  0  0  0  0  0  0  0  0  0  0
  -24.1411  -21.1209   20.6320 C   0  0  0  0  0  0  0  0  0  0  0  0
  -20.2155  -29.9609   21.7384 C   0  0  1  0  0  0  0  0  0  0  0  0
  -23.5454  -28.6235   22.9860 C   0  0  1  0  0  0  0  0  0  0  0  0
  -28.5624  -11.5669   18.6830 C   0  0  2  0  0  0  0  0  0  0  0  0
  -23.8316  -21.5432   22.0622 C   0  0  1  0  0  0  0  0  0  1  0  0
  -27.9151  -21.8238   19.3697 C   0  0  0  0  0  0  0  0  0  0  0  0
  -30.7556  -26.6071   22.1570 C   0  0  0  0  0  0  0  0  0  0  0  0
  -26.3716  -30.4272   19.2894 C   0  0  0  0  0  0  0  0  0  0  0  0
  -28.4717  -29.0710   19.1536 C   0  0  0  0  0  0  0  0  0  0  0  0
  -28.1351  -30.6595   21.0473 C   0  0  0  0  0  0  0  0  0  0  0  0
  -28.0629  -23.9386   22.4796 C   0  0  0  0  0  0  0  0  0  0  0  0
  -25.7511  -19.8465   19.2210 C   0  0  0  0  0  0  0  0  0  0  0  0
  -26.7952  -28.5168   20.9738 C   0  0  1  0  0  0  0  0  0  0  0  0
  -29.3443  -26.0794   22.3632 C   0  0  2  0  0  0  0  0  0  0  0  0
  -27.4181  -29.6559   20.1182 C   0  0  0  0  0  0  0  0  0  0  0  0
  -26.6173  -10.2462   19.4289 N   0  0  0  0  0  0  0  0  0  0  0  0
  -27.6586  -10.3513   18.5858 N   0  0  0  0  0  0  0  0  0  0  0  0
  -24.7024  -28.1297   22.2365 N   0  0  0  0  0  0  0  0  0  0  0  0
  -28.6663  -14.0054   19.1178 N   0  0  0  0  0  0  0  0  0  0  0  0
  -28.7614   -9.2533   16.8001 N   0  0  0  0  0  0  0  0  0  0  0  0
  -27.0263   -6.0464   17.8489 N   0  0  0  0  0  0  0  0  0  0  0  0
  -29.0963  -16.2871   18.7040 N   0  0  0  0  0  0  0  0  0  0  0  0
  -21.3514  -29.5375   22.5289 N   0  0  0  0  0  0  0  0  0  0  0  0
  -27.7594  -27.7869   21.7898 N   0  0  0  0  0  0  0  0  0  0  0  0
  -25.3361  -20.2019   20.6221 N   0  3  2  0  0  0  0  0  0  0  0  0
  -29.3808  -24.5923   22.2729 N   0  3  0  0  0  0  0  0  0  0  0  0
  -25.7096   -7.1569   16.3350 O   0  0  0  0  0  0  0  0  0  0  0  0
  -22.7020  -28.7871   20.7867 O   0  0  0  0  0  0  0  0  0  0  0  0
  -25.8270  -30.1674   22.3754 O   0  0  0  0  0  0  0  0  0  0  0  0
  -28.2138  -26.1336   20.2286 O   0  0  0  0  0  0  0  0  0  0  0  0
  -27.0432  -15.3415   18.1473 O   0  0  0  0  0  0  0  0  0  0  0  0
  -21.5009   -7.2414   21.7411 O   0  0  0  0  0  0  0  0  0  0  0  0
  -22.6375  -22.3190   22.0772 O   0  0  0  0  0  0  0  0  0  1  0  0
  -22.1314   -3.0860   25.3104 F   0  0  0  0  0  0  0  0  0  0  0  0
  -20.8390   -7.5492   24.4074 F   0  0  0  0  0  0  0  0  0  0  0  0
  -31.5099  -18.1452   18.8297 Cl  0  0  0  0  0  0  0  0  0  0  0  0
  1  2  1  0  0  0  0
  1  5  2  0  0  0  0
  2  6  2  0  0  0  0
  3  8  2  0  0  0  0
  3 17  1  0  0  0  0
  4  9  1  0  0  0  0
  4 17  2  0  0  0  0
  5 19  1  0  0  0  0
  6 21  1  0  0  0  0
  7 10  2  0  0  0  0
  7 20  1  0  0  0  0
  8 26  1  0  0  0  0
  9 26  2  0  0  0  0
 10 27  1  0  0  0  0
 11 12  2  0  0  0  0
 11 28  1  0  0  0  0
 12 29  1  0  0  0  0
 13 22  1  0  0  0  0
 13 27  2  0  0  0  0
 14 23  1  0  0  0  0
 14 25  2  0  0  0  0
 15 24  1  0  0  0  0
 15 31  2  0  0  0  0
 16 29  2  0  0  0  0
 16 30  1  0  0  0  0
 17 32  1  0  0  0  0
 18 32  1  0  0  0  0
 18 33  2  0  0  0  0
 18 34  1  0  0  0  0
 19 21  2  0  0  0  0
 19 39  1  0  0  0  0
 20 22  2  0  0  0  0
 20 40  1  0  0  0  0
 21 52  1  0  0  0  0
 22 41  1  0  0  0  0
 23 24  2  0  0  0  0
 23 62  1  0  0  0  0
 24 56  1  0  0  0  0
 25 31  1  0  0  0  0
 25 72  1  0  0  0  0
 26 82  1  0  0  0  0
 27 83  1  0  0  0  0
 28 30  2  0  0  0  0
 28 82  1  0  0  0  0
 29 84  1  0  0  0  0
 30 85  1  0  0  0  0
 31 86  1  0  0  0  0
 32 66  2  0  0  0  0
 33 67  1  0  0  0  0
 33 70  1  0  0  0  0
 34 71  1  0  0  0  0
 34 77  2  0  0  0  0
 35 53  1  0  0  0  0
 35 73  1  0  0  0  0
 35 78  2  0  0  0  0
 36 63  1  0  0  0  0
 36 68  1  0  0  0  0
 36 79  2  0  0  0  0
 37 64  1  0  0  0  0
 37 74  1  0  0  0  0
 37 80  2  0  0  0  0
 38 69  1  0  0  0  0
 38 72  1  0  0  0  0
 38 81  2  0  0  0  0
 39 42  1  0  0  0  0
 40 53  1  0  0  0  0
 41 68  1  0  0  0  0
 42 45  1  0  0  0  0
 43 46  1  0  0  0  0
 43 48  1  0  0  0  0
 44 47  1  0  0  0  0
 44 50  1  0  0  0  0
 45 52  1  0  0  0  0
 46 54  1  0  0  0  0
 47 55  1  0  0  0  0
 48 69  1  0  0  0  0
 49 54  1  0  0  0  0
 49 69  1  0  0  0  0
 50 75  1  0  0  0  0
 51 55  1  0  0  0  0
 51 75  1  0  0  0  0
 52 73  1  0  0  0  0
 53 68  1  0  0  0  0
 54 67  1  0  0  0  0
 55 83  1  0  0  0  0
 57 64  1  0  0  0  0
 58 65  1  0  0  0  0
 59 65  1  0  0  0  0
 60 65  1  0  0  0  0
 61 76  1  0  0  0  0
 62 75  1  0  0  0  0
 63 65  1  0  0  0  0
 63 74  1  0  0  0  0
 64 76  1  0  0  0  0
 66 67  1  0  0  0  0
M  CHG  2  75   1  76   1
M  ISO  4  38 100  55 101  72 100  83 101
M  END
> <Batch ID>
0033

> <Smiles>
CNC(C)C(=O)NC(C(=O)N1Cc2cc([101O:1][101CH:1]3CCCN(Cc4cc([100NH:0][100C:0](=O)N5CCCC(n6nc(-c7ccc(Oc8ccc(F)cc8F)cc7)c(C(N)=O)c6N)C5)c(Cl)cc4C)C3)ccc2CC1C(=O)NC1CCCc2ccccc21)C(C)(C)C

> <Shape>
0.241

> <Color>
0.103

> <Negative vol penalty>
0.000

$$$$

  -OEChem-04042321453D

 86 95  0     1  0  0  0  0  0999 V2000
  -25.2691  -34.2047   25.8234 C   0  0  0  0  0  0  0  0  0  0  0  0
  -24.4720  -33.8490   24.7401 C   0  0  0  0  0  0  0  0  0  0  0  0
  -22.9769   -9.8874   20.9566 C   0  0  0  0  0  0  0  0  0  0  0  0
  -23.9300  -11.0207   22.8656 C   0  0  0  0  0  0  0  0  0  0  0  0
  -26.6416  -33.9621   25.7869 C   0  0  0  0  0  0  0  0  0  0  0  0
  -25.0472  -33.2515   23.6191 C   0  0  0  0  0  0  0  0  0  0  0  0
  -23.3595  -26.4571   20.1531 C   0  0  0  0  0  0  0  0  0  0  0  0
  -28.8321  -18.5770   17.1565 C   0  0  0  0  0  0  0  0  0  0  0  0
  -27.8226  -19.4808   16.8254 C   0  0  0  0  0  0  0  0  0  0  0  0
  -22.1714   -9.1310   21.8078 C   0  0  0  0  0  0  0  0  0  0  0  0
  -23.1244  -10.2644   23.7169 C   0  0  0  0  0  0  0  0  0  0  0  0
  -23.2591  -25.2043   19.5475 C   0  0  0  0  0  0  0  0  0  0  0  0
  -22.5111   -6.4279   23.8083 C   0  0  0  0  0  0  0  0  0  0  0  0
  -22.4178   -5.0579   23.5635 C   0  0  0  0  0  0  0  0  0  0  0  0
  -25.5745  -25.3378   18.8628 C   0  0  0  0  0  0  0  0  0  0  0  0
  -20.0315   -5.2756   23.2545 C   0  0  0  0  0  0  0  0  0  0  0  0
  -23.8563  -10.8322   21.4855 C   0  0  0  0  0  0  0  0  0  0  0  0
  -24.2651  -12.4887   19.5890 C   0  0  0  0  0  0  0  0  0  0  0  0
  -27.2325  -33.3525   24.6688 C   0  0  0  0  0  0  0  0  0  0  0  0
  -24.5736  -27.1490   20.1290 C   0  0  0  0  0  0  0  0  0  0  0  0
  -26.4291  -33.0018   23.5670 C   0  0  0  0  0  0  0  0  0  0  0  0
  -25.6846  -26.5874   19.4784 C   0  0  0  0  0  0  0  0  0  0  0  0
  -29.1735  -18.3716   18.4933 C   0  0  0  0  0  0  0  0  0  0  0  0
  -28.5055  -19.0702   19.4990 C   0  0  0  0  0  0  0  0  0  0  0  0
  -27.4960  -19.9741   19.1678 C   0  0  0  0  0  0  0  0  0  0  0  0
  -27.1546  -20.1793   17.8310 C   0  0  0  0  0  0  0  0  0  0  0  0
  -22.2451   -9.3196   23.1879 C   0  0  0  0  0  0  0  0  0  0  0  0
  -24.3638  -24.6462   18.9038 C   0  0  0  0  0  0  0  0  0  0  0  0
  -21.3646   -7.2218   23.7763 C   0  0  0  0  0  0  0  0  0  0  0  0
  -21.1780   -4.4817   23.2866 C   0  0  0  0  0  0  0  0  0  0  0  0
  -20.1248   -6.6456   23.4994 C   0  0  0  0  0  0  0  0  0  0  0  0
  -24.6892  -11.6134   20.6068 C   0  0  0  0  0  0  0  0  0  0  0  0
  -25.4295  -12.9804   19.0517 C   0  0  0  0  0  0  0  0  0  0  0  0
  -24.9562  -20.8373   16.7883 C   0  0  0  0  0  0  0  0  0  0  0  0
  -24.2634  -19.6997   16.6337 C   0  0  0  0  0  0  0  0  0  0  0  0
  -22.9372  -12.8271   19.1671 C   0  0  0  0  0  0  0  0  0  0  0  0
  -26.4785  -30.2208   21.1347 C   0  0  0  0  0  0  0  0  0  0  0  0
  -28.3697  -27.8354   21.5142 C   0  0  0  0  0  0  0  0  0  0  0  0
  -29.9910  -24.9113   22.1910 C   0  0  0  0  0  0  0  0  0  0  0  0
  -30.5632  -15.0826   19.6610 C   0  0  0  0  0  0  0  0  0  0  0  0
  -28.7274  -33.1535   24.6559 C   0  0  0  0  0  0  0  0  0  0  0  0
  -24.7107  -28.5280   20.7148 C   0  0  0  0  0  0  0  0  0  0  0  0
  -26.9608  -27.3832   19.4476 C   0  0  0  0  0  0  0  0  0  0  0  0
  -24.4192  -22.1509   16.2628 C   0  0  0  0  0  0  0  0  0  0  0  0
  -29.2024  -32.1752   23.5846 C   0  0  0  0  0  0  0  0  0  0  0  0
  -30.2313  -11.5382   19.7225 C   0  0  0  0  0  0  0  0  0  0  0  0
  -28.5351  -32.4821   22.2477 C   0  0  0  0  0  0  0  0  0  0  0  0
  -28.7263  -11.3145   19.8803 C   0  0  0  0  0  0  0  0  0  0  0  0
  -30.7057  -12.7590   20.5077 C   0  0  0  0  0  0  0  0  0  0  0  0
  -28.4673  -13.7816   20.3756 C   0  0  0  0  0  0  0  0  0  0  0  0
  -26.4049  -22.5278   17.6186 C   0  0  0  0  0  0  0  0  0  0  0  0
  -27.0122  -32.3291   22.3433 C   0  0  1  0  0  0  0  0  0  0  0  0
  -26.0949  -28.7844   21.3374 C   0  0  1  0  0  0  0  0  0  0  0  0
  -27.9322  -12.5943   19.5568 C   0  0  2  0  0  0  0  0  0  0  0  0
  -25.0845  -23.1736   17.1829 C   0  0  2  0  0  0  0  0  0  1  0  0
  -28.8736  -18.8480   20.9320 C   0  0  0  0  0  0  0  0  0  0  0  0
  -26.7803  -20.7230   20.2482 C   0  0  0  0  0  0  0  0  0  0  0  0
  -32.1626  -24.0236   23.0816 C   0  0  0  0  0  0  0  0  0  0  0  0
  -29.7295  -28.5205   18.8712 C   0  0  0  0  0  0  0  0  0  0  0  0
  -31.4948  -26.8333   19.4236 C   0  0  0  0  0  0  0  0  0  0  0  0
  -31.1687  -28.8218   20.8941 C   0  0  0  0  0  0  0  0  0  0  0  0
  -28.6414  -23.5376   24.4383 C   0  0  0  0  0  0  0  0  0  0  0  0
  -30.2577  -17.3975   18.8200 C   0  0  0  0  0  0  0  0  0  0  0  0
  -29.4487  -26.9689   20.9156 C   0  0  1  0  0  0  0  0  0  0  0  0
  -30.7393  -24.4360   23.4233 C   0  0  2  0  0  0  0  0  0  0  0  0
  -30.4330  -27.7786   20.0251 C   0  0  0  0  0  0  0  0  0  0  0  0
  -26.0193  -11.5504   20.7116 N   0  0  0  0  0  0  0  0  0  0  0  0
  -26.4410  -12.3924   19.7527 N   0  0  0  0  0  0  0  0  0  0  0  0
  -26.1382  -21.0885   17.4757 N   0  0  0  0  0  0  0  0  0  0  0  0
  -27.2003  -27.9996   20.7619 N   0  0  0  0  0  0  0  0  0  0  0  0
  -29.9132  -13.9389   20.1534 N   0  0  0  0  0  0  0  0  0  0  0  0
  -25.6767  -13.8540   18.0527 N   0  0  0  0  0  0  0  0  0  0  0  0
  -22.2987  -13.9146   19.7785 N   0  0  0  0  0  0  0  0  0  0  0  0
  -26.6417  -30.9306   22.3090 N   0  0  0  0  0  0  0  0  0  0  0  0
  -30.0838  -26.2779   22.0326 N   0  0  0  0  0  0  0  0  0  0  0  0
  -29.7375  -16.1540   19.3434 N   0  0  0  0  0  0  0  0  0  0  0  0
  -30.0445  -23.2667   24.0323 N   0  3  0  0  0  0  0  0  0  0  0  0
  -22.3286  -12.1739   18.2860 O   0  0  0  0  0  0  0  0  0  0  0  0
  -26.6181  -30.6541   19.9970 O   0  0  0  0  0  0  0  0  0  0  0  0
  -28.5582  -28.3584   22.6161 O   0  0  0  0  0  0  0  0  0  0  0  0
  -29.3878  -24.1463   21.4416 O   0  0  0  0  0  0  0  0  0  0  0  0
  -31.7882  -15.1424   19.5101 O   0  0  0  0  0  0  0  0  0  0  0  0
  -21.4589   -8.5819   24.0188 O   0  0  0  0  0  0  0  0  0  0  0  0
  -24.2600  -23.4208   18.3186 O   0  0  0  0  0  0  0  0  0  1  0  0
  -21.0888   -3.1663   23.0500 F   0  0  0  0  0  0  0  0  0  0  0  0
  -19.0200   -7.4034   23.4661 F   0  0  0  0  0  0  0  0  0  0  0  0
  1  2  1  0  0  0  0
  1  5  2  0  0  0  0
  2  6  2  0  0  0  0
  3 10  2  0  0  0  0
  3 17  1  0  0  0  0
  4 11  1  0  0  0  0
  4 17  2  0  0  0  0
  5 19  1  0  0  0  0
  6 21  1  0  0  0  0
  7 12  2  0  0  0  0
  7 20  1  0  0  0  0
  8  9  2  0  0  0  0
  8 23  1  0  0  0  0
  9 26  1  0  0  0  0
 10 27  1  0  0  0  0
 11 27  2  0  0  0  0
 12 28  1  0  0  0  0
 13 14  2  0  0  0  0
 13 29  1  0  0  0  0
 14 30  1  0  0  0  0
 15 22  1  0  0  0  0
 15 28  2  0  0  0  0
 16 30  2  0  0  0  0
 16 31  1  0  0  0  0
 17 32  1  0  0  0  0
 18 32  1  0  0  0  0
 18 33  2  0  0  0  0
 18 36  1  0  0  0  0
 19 21  2  0  0  0  0
 19 41  1  0  0  0  0
 20 22  2  0  0  0  0
 20 42  1  0  0  0  0
 21 52  1  0  0  0  0
 22 43  1  0  0  0  0
 23 24  2  0  0  0  0
 23 63  1  0  0  0  0
 24 25  1  0  0  0  0
 24 56  1  0  0  0  0
 25 26  2  0  0  0  0
 25 57  1  0  0  0  0
 26 69  1  0  0  0  0
 27 83  1  0  0  0  0
 28 84  1  0  0  0  0
 29 31  2  0  0  0  0
 29 83  1  0  0  0  0
 30 85  1  0  0  0  0
 31 86  1  0  0  0  0
 32 67  2  0  0  0  0
 33 68  1  0  0  0  0
 33 72  1  0  0  0  0
 34 35  2  0  0  0  0
 34 44  1  0  0  0  0
 34 69  1  0  0  0  0
 36 73  1  0  0  0  0
 36 78  2  0  0  0  0
 37 53  1  0  0  0  0
 37 74  1  0  0  0  0
 37 79  2  0  0  0  0
 38 64  1  0  0  0  0
 38 70  1  0  0  0  0
 38 80  2  0  0  0  0
 39 65  1  0  0  0  0
 39 75  1  0  0  0  0
 39 81  2  0  0  0  0
 40 71  1  0  0  0  0
 40 76  1  0  0  0  0
 40 82  2  0  0  0  0
 41 45  1  0  0  0  0
 42 53  1  0  0  0  0
 43 70  1  0  0  0  0
 44 55  1  0  0  0  0
 45 47  1  0  0  0  0
 46 48  1  0  0  0  0
 46 49  1  0  0  0  0
 47 52  1  0  0  0  0
 48 54  1  0  0  0  0
 49 71  1  0  0  0  0
 50 54  1  0  0  0  0
 50 71  1  0  0  0  0
 51 55  1  0  0  0  0
 51 69  1  0  0  0  0
 52 74  1  0  0  0  0
 53 70  1  0  0  0  0
 54 68  1  0  0  0  0
 55 84  1  0  0  0  0
 58 65  1  0  0  0  0
 59 66  1  0  0  0  0
 60 66  1  0  0  0  0
 61 66  1  0  0  0  0
 62 77  1  0  0  0  0
 63 76  1  0  0  0  0
 64 66  1  0  0  0  0
 64 75  1  0  0  0  0
 65 77  1  0  0  0  0
 67 68  1  0  0  0  0
M  CHG  1  77   1
M  ISO  4  40 100  55 101  76 100  84 101
M  END
> <Batch ID>
0033

> <Smiles>
C=C1C[101CH:1]([101O:1]c2ccc3c(c2)CN(C(=O)C(NC(=O)C(C)NC)C(C)(C)C)C(C(=O)NC2CCCc4ccccc42)C3)CN1c1ccc(C[100NH:0][100C:0](=O)N2CCCC(n3nc(-c4ccc(Oc5ccc(F)cc5F)cc4)c(C(N)=O)c3N)C2)c(C)c1C

> <Shape>
0.281

> <Color>
0.083

> <Negative vol penalty>
0.000

$$$$

  -OEChem-04042321453D

 87 96  0     1  0  0  0  0  0999 V2000
  -33.9717  -15.4600   30.4254 C   0  0  0  0  0  0  0  0  0  0  0  0
  -34.2529  -15.4937   29.0633 C   0  0  0  0  0  0  0  0  0  0  0  0
  -23.0756   -9.8680   19.9404 C   0  0  0  0  0  0  0  0  0  0  0  0
  -23.8347   -9.8745   22.2340 C   0  0  0  0  0  0  0  0  0  0  0  0
  -33.6063  -16.6301   31.0897 C   0  0  0  0  0  0  0  0  0  0  0  0
  -34.1677  -16.6974   28.3645 C   0  0  0  0  0  0  0  0  0  0  0  0
  -37.6908  -18.4974   23.6897 C   0  0  0  0  0  0  0  0  0  0  0  0
  -22.3314   -8.7150   20.1899 C   0  0  0  0  0  0  0  0  0  0  0  0
  -23.0905   -8.7214   22.4835 C   0  0  0  0  0  0  0  0  0  0  0  0
  -37.4989  -18.4781   22.3089 C   0  0  0  0  0  0  0  0  0  0  0  0
  -19.8619   -7.9242   23.0849 C   0  0  0  0  0  0  0  0  0  0  0  0
  -19.1046   -7.8842   24.2555 C   0  0  0  0  0  0  0  0  0  0  0  0
  -36.7473  -20.7689   22.3872 C   0  0  0  0  0  0  0  0  0  0  0  0
  -29.7109  -19.2844   22.3579 C   0  0  0  0  0  0  0  0  0  0  0  0
  -31.1564  -17.6781   20.5936 C   0  0  0  0  0  0  0  0  0  0  0  0
  -20.3454   -5.9464   24.9920 C   0  0  0  0  0  0  0  0  0  0  0  0
  -23.8273  -10.4478   20.9624 C   0  0  0  0  0  0  0  0  0  0  0  0
  -24.1697  -12.9729   20.8429 C   0  0  0  0  0  0  0  0  0  0  0  0
  -33.5260  -17.8505   30.4006 C   0  0  0  0  0  0  0  0  0  0  0  0
  -37.4014  -19.6512   24.4323 C   0  0  0  0  0  0  0  0  0  0  0  0
  -33.7996  -17.8846   29.0199 C   0  0  0  0  0  0  0  0  0  0  0  0
  -36.9387  -20.8012   23.7770 C   0  0  0  0  0  0  0  0  0  0  0  0
  -30.6155  -19.8642   21.4684 C   0  0  0  0  0  0  0  0  0  0  0  0
  -29.5291  -17.9015   22.3652 C   0  0  0  0  0  0  0  0  0  0  0  0
  -31.3382  -19.0611   20.5862 C   0  0  0  0  0  0  0  0  0  0  0  0
  -30.2518  -17.0983   21.4831 C   0  0  0  0  0  0  0  0  0  0  0  0
  -22.3388   -8.1417   21.4615 C   0  0  0  0  0  0  0  0  0  0  0  0
  -37.0244  -19.6130   21.6578 C   0  0  0  0  0  0  0  0  0  0  0  0
  -20.8610   -6.9752   22.8677 C   0  0  0  0  0  0  0  0  0  0  0  0
  -19.3463   -6.8954   25.2091 C   0  0  0  0  0  0  0  0  0  0  0  0
  -21.1027   -5.9864   23.8213 C   0  0  0  0  0  0  0  0  0  0  0  0
  -24.5967  -11.6385   20.7051 C   0  0  0  0  0  0  0  0  0  0  0  0
  -25.2621  -13.7222   20.4801 C   0  0  0  0  0  0  0  0  0  0  0  0
  -34.1264  -19.1473   18.0862 C   0  0  0  0  0  0  0  0  0  0  0  0
  -33.5769  -18.9042   16.8910 C   0  0  0  0  0  0  0  0  0  0  0  0
  -22.8991  -13.4889   21.2615 C   0  0  0  0  0  0  0  0  0  0  0  0
  -35.3727  -20.3614   26.7740 C   0  0  0  0  0  0  0  0  0  0  0  0
  -36.9591  -23.1908   26.7632 C   0  0  0  0  0  0  0  0  0  0  0  0
  -38.8679  -25.4356   25.0414 C   0  0  0  0  0  0  0  0  0  0  0  0
  -30.7284  -14.7667   20.6568 C   0  0  0  0  0  0  0  0  0  0  0  0
  -33.0809  -19.0803   31.1517 C   0  0  0  0  0  0  0  0  0  0  0  0
  -37.6391  -19.6644   25.9175 C   0  0  0  0  0  0  0  0  0  0  0  0
  -36.6325  -22.0716   24.5258 C   0  0  0  0  0  0  0  0  0  0  0  0
  -35.4778  -19.7444   18.3206 C   0  0  0  0  0  0  0  0  0  0  0  0
  -33.3780  -20.3843   30.4158 C   0  0  0  0  0  0  0  0  0  0  0  0
  -29.6143  -12.3535   18.2878 C   0  0  0  0  0  0  0  0  0  0  0  0
  -32.9586  -20.2792   28.9529 C   0  0  0  0  0  0  0  0  0  0  0  0
  -28.1745  -12.0621   18.7168 C   0  0  0  0  0  0  0  0  0  0  0  0
  -30.5291  -12.5819   19.4898 C   0  0  0  0  0  0  0  0  0  0  0  0
  -28.6218  -13.3065   20.8705 C   0  0  0  0  0  0  0  0  0  0  0  0
  -34.5647  -18.7630   20.3249 C   0  0  0  0  0  0  0  0  0  0  0  0
  -33.7423  -19.1756   28.2323 C   0  0  1  0  0  0  0  0  0  0  0  0
  -36.8236  -20.7298   26.6437 C   0  0  1  0  0  0  0  0  0  0  0  0
  -27.6493  -13.1336   19.6924 C   0  0  2  0  0  0  0  0  0  0  0  0
  -35.5223  -19.8431   19.8401 C   0  0  1  0  0  0  0  0  0  1  0  0
  -30.7937  -21.3470   21.4790 C   0  0  0  0  0  0  0  0  0  0  0  0
  -28.5534  -17.3076   23.3287 C   0  0  0  0  0  0  0  0  0  0  0  0
  -32.2238  -18.3063   16.7012 C   0  0  0  0  0  0  0  0  0  0  0  0
  -39.9789  -27.6724   25.2849 C   0  0  0  0  0  0  0  0  0  0  0  0
  -34.2507  -24.5652   26.4699 C   0  0  0  0  0  0  0  0  0  0  0  0
  -35.4594  -26.6441   25.7731 C   0  0  0  0  0  0  0  0  0  0  0  0
  -35.8274  -25.6933   28.0498 C   0  0  0  0  0  0  0  0  0  0  0  0
  -41.5528  -24.2829   24.5709 C   0  0  0  0  0  0  0  0  0  0  0  0
  -32.3168  -19.6621   19.6208 C   0  0  0  0  0  0  0  0  0  0  0  0
  -36.7957  -24.5053   26.0390 C   0  0  1  0  0  0  0  0  0  0  0  0
  -40.1453  -26.1663   25.4138 C   0  0  2  0  0  0  0  0  0  0  0  0
  -35.5872  -25.3276   26.5688 C   0  0  0  0  0  0  0  0  0  0  0  0
  -25.8617  -11.5425   20.2873 N   0  0  0  0  0  0  0  0  0  0  0  0
  -26.2389  -12.8260   20.1593 N   0  0  0  0  0  0  0  0  0  0  0  0
  -36.8751  -22.0327   25.9774 N   0  0  0  0  0  0  0  0  0  0  0  0
  -29.9700  -13.6127   20.3672 N   0  0  0  0  0  0  0  0  0  0  0  0
  -25.4728  -15.0536   20.4074 N   0  0  0  0  0  0  0  0  0  0  0  0
  -21.8869  -12.5798   21.5983 N   0  0  0  0  0  0  0  0  0  0  0  0
  -30.0810  -15.6917   21.4752 N   0  0  0  0  0  0  0  0  0  0  0  0
  -35.0773  -19.6319   27.9099 N   0  0  0  0  0  0  0  0  0  0  0  0
  -38.0784  -25.1921   26.1454 N   0  0  0  0  0  0  0  0  0  0  0  0
  -33.4584  -18.7432   19.2912 N   0  3  1  0  0  0  0  0  0  0  0  0
  -41.2637  -25.7394   24.5262 N   0  3  0  0  0  0  0  0  0  0  0  0
  -22.6631  -14.7195   21.3189 O   0  0  0  0  0  0  0  0  0  0  0  0
  -34.5797  -20.7142   25.9090 O   0  0  0  0  0  0  0  0  0  0  0  0
  -37.1611  -23.1918   27.9801 O   0  0  0  0  0  0  0  0  0  0  0  0
  -38.5957  -25.1162   23.8862 O   0  0  0  0  0  0  0  0  0  0  0  0
  -31.8577  -14.9352   20.1896 O   0  0  0  0  0  0  0  0  0  0  0  0
  -21.6125   -7.0167   21.7054 O   0  0  0  0  0  0  0  0  0  0  0  0
  -36.8357  -19.5966   20.3102 O   0  0  0  0  0  0  0  0  0  1  0  0
  -18.6200   -6.8580   26.3339 F   0  0  0  0  0  0  0  0  0  0  0  0
  -22.0619   -5.0727   23.6189 F   0  0  0  0  0  0  0  0  0  0  0  0
  1  2  1  0  0  0  0
  1  5  2  0  0  0  0
  2  6  2  0  0  0  0
  3  8  2  0  0  0  0
  3 17  1  0  0  0  0
  4  9  1  0  0  0  0
  4 17  2  0  0  0  0
  5 19  1  0  0  0  0
  6 21  1  0  0  0  0
  7 10  2  0  0  0  0
  7 20  1  0  0  0  0
  8 27  1  0  0  0  0
  9 27  2  0  0  0  0
 10 28  1  0  0  0  0
 11 12  2  0  0  0  0
 11 29  1  0  0  0  0
 12 30  1  0  0  0  0
 13 22  1  0  0  0  0
 13 28  2  0  0  0  0
 14 23  1  0  0  0  0
 14 24  2  0  0  0  0
 15 25  1  0  0  0  0
 15 26  2  0  0  0  0
 16 30  2  0  0  0  0
 16 31  1  0  0  0  0
 17 32  1  0  0  0  0
 18 32  1  0  0  0  0
 18 33  2  0  0  0  0
 18 36  1  0  0  0  0
 19 21  2  0  0  0  0
 19 41  1  0  0  0  0
 20 22  2  0  0  0  0
 20 42  1  0  0  0  0
 21 52  1  0  0  0  0
 22 43  1  0  0  0  0
 23 25  2  0  0  0  0
 23 56  1  0  0  0  0
 24 26  1  0  0  0  0
 24 57  1  0  0  0  0
 25 64  1  0  0  0  0
 26 74  1  0  0  0  0
 27 84  1  0  0  0  0
 28 85  1  0  0  0  0
 29 31  2  0  0  0  0
 29 84  1  0  0  0  0
 30 86  1  0  0  0  0
 31 87  1  0  0  0  0
 32 68  2  0  0  0  0
 33 69  1  0  0  0  0
 33 72  1  0  0  0  0
 34 35  2  0  0  0  0
 34 44  1  0  0  0  0
 34 77  1  0  0  0  0
 35 58  1  0  0  0  0
 36 73  1  0  0  0  0
 36 79  2  0  0  0  0
 37 53  1  0  0  0  0
 37 75  1  0  0  0  0
 37 80  2  0  0  0  0
 38 65  1  0  0  0  0
 38 70  1  0  0  0  0
 38 81  2  0  0  0  0
 39 66  1  0  0  0  0
 39 76  1  0  0  0  0
 39 82  2  0  0  0  0
 40 71  1  0  0  0  0
 40 74  1  0  0  0  0
 40 83  2  0  0  0  0
 41 45  1  0  0  0  0
 42 53  1  0  0  0  0
 43 70  1  0  0  0  0
 44 55  1  0  0  0  0
 45 47  1  0  0  0  0
 46 48  1  0  0  0  0
 46 49  1  0  0  0  0
 47 52  1  0  0  0  0
 48 54  1  0  0  0  0
 49 71  1  0  0  0  0
 50 54  1  0  0  0  0
 50 71  1  0  0  0  0
 51 55  1  0  0  0  0
 51 77  1  0  0  0  0
 52 75  1  0  0  0  0
 53 70  1  0  0  0  0
 54 69  1  0  0  0  0
 55 85  1  0  0  0  0
 59 66  1  0  0  0  0
 60 67  1  0  0  0  0
 61 67  1  0  0  0  0
 62 67  1  0  0  0  0
 63 78  1  0  0  0  0
 64 77  1  0  0  0  0
 65 67  1  0  0  0  0
 65 76  1  0  0  0  0
 66 78  1  0  0  0  0
 68 69  1  0  0  0  0
M  CHG  2  77   1  78   1
M  ISO  4  40 100  55 101  74 100  85 101
M  END
> <Batch ID>
0033

> <Smiles>
CC=C1C[101CH:1]([101O:1]c2ccc3c(c2)CN(C(=O)C(NC(=O)C(C)NC)C(C)(C)C)C(C(=O)NC2CCCc4ccccc42)C3)CN1Cc1cc([100NH:0][100C:0](=O)N2CCCC(n3nc(-c4ccc(Oc5ccc(F)cc5F)cc4)c(C(N)=O)c3N)C2)c(C)cc1C

> <Shape>
0.175

> <Color>
0.184

> <Negative vol penalty>
0.000

$$$$

  -OEChem-04042321453D

 87 96  0     1  0  0  0  0  0999 V2000
  -26.2829  -37.1478   22.7386 C   0  0  0  0  0  0  0  0  0  0  0  0
  -26.9560  -36.0208   22.2782 C   0  0  0  0  0  0  0  0  0  0  0  0
  -22.3371  -10.4202   22.6624 C   0  0  0  0  0  0  0  0  0  0  0  0
  -23.5272  -10.2215   20.5693 C   0  0  0  0  0  0  0  0  0  0  0  0
  -25.1955  -37.0057   23.5995 C   0  0  0  0  0  0  0  0  0  0  0  0
  -26.5427  -34.7508   22.6794 C   0  0  0  0  0  0  0  0  0  0  0  0
  -26.6824  -29.6117   19.3514 C   0  0  0  0  0  0  0  0  0  0  0  0
  -21.8675   -9.1146   22.5193 C   0  0  0  0  0  0  0  0  0  0  0  0
  -23.0576   -8.9159   20.4262 C   0  0  0  0  0  0  0  0  0  0  0  0
  -27.5837  -28.5490   19.3041 C   0  0  0  0  0  0  0  0  0  0  0  0
  -23.0488   -5.9788   22.9714 C   0  0  0  0  0  0  0  0  0  0  0  0
  -23.1032   -5.1444   24.0878 C   0  0  0  0  0  0  0  0  0  0  0  0
  -26.1896  -27.3065   20.8311 C   0  0  0  0  0  0  0  0  0  0  0  0
  -27.7059  -20.9935   17.8456 C   0  0  0  0  0  0  0  0  0  0  0  0
  -20.7040   -4.8727   24.0015 C   0  0  0  0  0  0  0  0  0  0  0  0
  -23.1670  -10.9737   21.6874 C   0  0  0  0  0  0  0  0  0  0  0  0
  -24.8386  -12.7347   22.4697 C   0  0  0  0  0  0  0  0  0  0  0  0
  -24.7626  -35.7330   24.0038 C   0  0  0  0  0  0  0  0  0  0  0  0
  -25.5315  -29.5338   20.1488 C   0  0  0  0  0  0  0  0  0  0  0  0
  -25.4493  -34.5916   23.5476 C   0  0  0  0  0  0  0  0  0  0  0  0
  -25.2740  -28.3685   20.8848 C   0  0  0  0  0  0  0  0  0  0  0  0
  -28.5626  -21.2897   18.9057 C   0  0  0  0  0  0  0  0  0  0  0  0
  -28.3918  -20.6584   20.1377 C   0  0  0  0  0  0  0  0  0  0  0  0
  -27.3643  -19.7308   20.3097 C   0  0  0  0  0  0  0  0  0  0  0  0
  -26.5075  -19.4346   19.2495 C   0  0  0  0  0  0  0  0  0  0  0  0
  -22.2277   -8.3624   21.4012 C   0  0  0  0  0  0  0  0  0  0  0  0
  -27.3388  -27.3973   20.0463 C   0  0  0  0  0  0  0  0  0  0  0  0
  -21.8221   -6.2603   22.3701 C   0  0  0  0  0  0  0  0  0  0  0  0
  -21.9308   -4.5913   24.6028 C   0  0  0  0  0  0  0  0  0  0  0  0
  -20.6497   -5.7072   22.8851 C   0  0  0  0  0  0  0  0  0  0  0  0
  -26.6783  -20.0660   18.0175 C   0  0  0  0  0  0  0  0  0  0  0  0
  -23.6519  -12.3225   21.8343 C   0  0  0  0  0  0  0  0  0  0  0  0
  -24.8404  -14.1020   22.3400 C   0  0  0  0  0  0  0  0  0  0  0  0
  -30.4170  -24.5797   19.0917 C   0  0  0  0  0  0  0  0  0  0  0  0
  -31.6312  -24.4286   19.6338 C   0  0  0  0  0  0  0  0  0  0  0  0
  -25.8490  -11.9516   23.1190 C   0  0  0  0  0  0  0  0  0  0  0  0
  -24.4127  -31.1637   22.6379 C   0  0  0  0  0  0  0  0  0  0  0  0
  -21.8009  -29.2919   22.1938 C   0  0  0  0  0  0  0  0  0  0  0  0
  -20.4931  -26.3852   20.9742 C   0  0  0  0  0  0  0  0  0  0  0  0
  -24.0961  -18.7074   19.3004 C   0  0  0  0  0  0  0  0  0  0  0  0
  -23.6116  -35.6316   24.9731 C   0  0  0  0  0  0  0  0  0  0  0  0
  -24.5556  -30.6782   20.1681 C   0  0  0  0  0  0  0  0  0  0  0  0
  -24.0427  -28.2269   21.7407 C   0  0  0  0  0  0  0  0  0  0  0  0
  -29.9300  -25.8030   18.3797 C   0  0  0  0  0  0  0  0  0  0  0  0
  -23.0038  -34.2336   25.0529 C   0  0  0  0  0  0  0  0  0  0  0  0
  -21.2048  -17.2696   20.8004 C   0  0  0  0  0  0  0  0  0  0  0  0
  -24.1009  -33.1804   25.1712 C   0  0  0  0  0  0  0  0  0  0  0  0
  -21.6813  -15.8882   21.2554 C   0  0  0  0  0  0  0  0  0  0  0  0
  -21.8401  -17.6799   19.4731 C   0  0  0  0  0  0  0  0  0  0  0  0
  -23.7828  -16.2241   19.8923 C   0  0  0  0  0  0  0  0  0  0  0  0
  -28.1129  -24.2788   18.7990 C   0  0  0  0  0  0  0  0  0  0  0  0
  -25.0156  -33.1960   23.9405 C   0  0  1  0  0  0  0  0  0  0  0  0
  -23.6770  -30.6932   21.4152 C   0  0  1  0  0  0  0  0  0  0  0  0
  -23.2198  -15.7952   21.2571 C   0  0  2  0  0  0  0  0  0  0  0  0
  -28.4511  -25.7613   18.7316 C   0  0  1  0  0  0  0  0  0  1  0  0
  -29.3121  -20.9789   21.2731 C   0  0  0  0  0  0  0  0  0  0  0  0
  -27.1867  -19.0567   21.6348 C   0  0  0  0  0  0  0  0  0  0  0  0
  -18.3338  -25.1194   20.7943 C   0  0  0  0  0  0  0  0  0  0  0  0
  -22.0212  -28.5030   25.1330 C   0  0  0  0  0  0  0  0  0  0  0  0
  -20.4923  -26.5780   24.6589 C   0  0  0  0  0  0  0  0  0  0  0  0
  -19.6871  -28.9168   24.3361 C   0  0  0  0  0  0  0  0  0  0  0  0
  -20.5743  -26.4380   18.0163 C   0  0  0  0  0  0  0  0  0  0  0  0
  -29.6600  -22.2906   18.6937 C   0  0  0  0  0  0  0  0  0  0  0  0
  -21.3532  -27.9430   22.7027 C   0  0  1  0  0  0  0  0  0  0  0  0
  -19.2682  -26.1120   20.1202 C   0  0  2  0  0  0  0  0  0  0  0  0
  -20.9127  -27.9883   24.1932 C   0  0  0  0  0  0  0  0  0  0  0  0
  -22.9507  -13.3452   21.3380 N   0  0  0  0  0  0  0  0  0  0  0  0
  -23.6990  -14.4136   21.6616 N   0  0  0  0  0  0  0  0  0  0  0  0
  -23.1219  -29.3756   21.7315 N   0  0  0  0  0  0  0  0  0  0  0  0
  -23.2985  -17.5708   19.5508 N   0  0  0  0  0  0  0  0  0  0  0  0
  -25.7070  -15.0562   22.7414 N   0  0  0  0  0  0  0  0  0  0  0  0
  -25.6907  -10.5597   23.1620 N   0  0  0  0  0  0  0  0  0  0  0  0
  -25.4670  -18.4910   19.4357 N   0  0  0  0  0  0  0  0  0  0  0  0
  -24.3745  -32.5321   22.8258 N   0  0  0  0  0  0  0  0  0  0  0  0
  -20.3145  -27.4851   21.7863 N   0  0  0  0  0  0  0  0  0  0  0  0
  -29.3786  -23.6156   19.3360 N   0  3  1  0  0  0  0  0  0  0  0  0
  -19.6721  -25.5542   18.7986 N   0  3  0  0  0  0  0  0  0  0  0  0
  -26.8540  -12.4721   23.6599 O   0  0  0  0  0  0  0  0  0  0  0  0
  -24.9724  -30.3455   23.3584 O   0  0  0  0  0  0  0  0  0  0  0  0
  -21.0055  -30.2348   22.1994 O   0  0  0  0  0  0  0  0  0  0  0  0
  -21.5056  -25.6900   20.9284 O   0  0  0  0  0  0  0  0  0  0  0  0
  -23.5982  -19.7997   19.0156 O   0  0  0  0  0  0  0  0  0  0  0  0
  -21.7699   -7.0883   21.2614 O   0  0  0  0  0  0  0  0  0  0  0  0
  -28.2173  -26.3589   20.0024 O   0  0  0  0  0  0  0  0  0  1  0  0
  -21.9833   -3.7887   25.6739 F   0  0  0  0  0  0  0  0  0  0  0  0
  -19.4684   -5.9730   22.3110 F   0  0  0  0  0  0  0  0  0  0  0  0
  -25.6415  -19.7309   16.6758 Cl  0  0  0  0  0  0  0  0  0  0  0  0
  1  2  1  0  0  0  0
  1  5  2  0  0  0  0
  2  6  2  0  0  0  0
  3  8  2  0  0  0  0
  3 16  1  0  0  0  0
  4  9  1  0  0  0  0
  4 16  2  0  0  0  0
  5 18  1  0  0  0  0
  6 20  1  0  0  0  0
  7 10  2  0  0  0  0
  7 19  1  0  0  0  0
  8 26  1  0  0  0  0
  9 26  2  0  0  0  0
 10 27  1  0  0  0  0
 11 12  2  0  0  0  0
 11 28  1  0  0  0  0
 12 29  1  0  0  0  0
 13 21  1  0  0  0  0
 13 27  2  0  0  0  0
 14 22  1  0  0  0  0
 14 31  2  0  0  0  0
 15 29  2  0  0  0  0
 15 30  1  0  0  0  0
 16 32  1  0  0  0  0
 17 32  1  0  0  0  0
 17 33  2  0  0  0  0
 17 36  1  0  0  0  0
 18 20  2  0  0  0  0
 18 41  1  0  0  0  0
 19 21  2  0  0  0  0
 19 42  1  0  0  0  0
 20 52  1  0  0  0  0
 21 43  1  0  0  0  0
 22 23  2  0  0  0  0
 22 63  1  0  0  0  0
 23 24  1  0  0  0  0
 23 56  1  0  0  0  0
 24 25  2  0  0  0  0
 24 57  1  0  0  0  0
 25 31  1  0  0  0  0
 25 73  1  0  0  0  0
 26 83  1  0  0  0  0
 27 84  1  0  0  0  0
 28 30  2  0  0  0  0
 28 83  1  0  0  0  0
 29 85  1  0  0  0  0
 30 86  1  0  0  0  0
 31 87  1  0  0  0  0
 32 67  2  0  0  0  0
 33 68  1  0  0  0  0
 33 71  1  0  0  0  0
 34 35  2  0  0  0  0
 34 44  1  0  0  0  0
 34 76  1  0  0  0  0
 36 72  1  0  0  0  0
 36 78  2  0  0  0  0
 37 53  1  0  0  0  0
 37 74  1  0  0  0  0
 37 79  2  0  0  0  0
 38 64  1  0  0  0  0
 38 69  1  0  0  0  0
 38 80  2  0  0  0  0
 39 65  1  0  0  0  0
 39 75  1  0  0  0  0
 39 81  2  0  0  0  0
 40 70  1  0  0  0  0
 40 73  1  0  0  0  0
 40 82  2  0  0  0  0
 41 45  1  0  0  0  0
 42 53  1  0  0  0  0
 43 69  1  0  0  0  0
 44 55  1  0  0  0  0
 45 47  1  0  0  0  0
 46 48  1  0  0  0  0
 46 49  1  0  0  0  0
 47 52  1  0  0  0  0
 48 54  1  0  0  0  0
 49 70  1  0  0  0  0
 50 54  1  0  0  0  0
 50 70  1  0  0  0  0
 51 55  1  0  0  0  0
 51 76  1  0  0  0  0
 52 74  1  0  0  0  0
 53 69  1  0  0  0  0
 54 68  1  0  0  0  0
 55 84  1  0  0  0  0
 58 65  1  0  0  0  0
 59 66  1  0  0  0  0
 60 66  1  0  0  0  0
 61 66  1  0  0  0  0
 62 77  1  0  0  0  0
 63 76  1  0  0  0  0
 64 66  1  0  0  0  0
 64 75  1  0  0  0  0
 65 77  1  0  0  0  0
 67 68  1  0  0  0  0
M  CHG  2  76   1  77   1
M  ISO  4  40 100  55 101  73 100  84 101
M  END
> <Batch ID>
0033

> <Smiles>
C=C1C[101CH:1]([101O:1]c2ccc3c(c2)CN(C(=O)C(NC(=O)C(C)NC)C(C)(C)C)C(C(=O)NC2CCCc4ccccc42)C3)CN1Cc1cc(Cl)c([100NH:0][100C:0](=O)N2CCCC(n3nc(-c4ccc(Oc5ccc(F)cc5F)cc4)c(C(N)=O)c3N)C2)c(C)c1C

> <Shape>
0.316

> <Color>
0.092

> <Negative vol penalty>
0.000

$$$$

  -OEChem-04042321453D

 91100  0     1  0  0  0  0  0999 V2000
  -16.8093  -28.1341   23.7580 C   0  0  0  0  0  0  0  0  0  0  0  0
  -17.8463  -27.2176   23.6172 C   0  0  0  0  0  0  0  0  0  0  0  0
  -24.7345   -8.6191   21.6639 C   0  0  0  0  0  0  0  0  0  0  0  0
  -23.2127   -9.7743   20.1851 C   0  0  0  0  0  0  0  0  0  0  0  0
  -16.9273  -29.4088   23.2056 C   0  0  0  0  0  0  0  0  0  0  0  0
  -19.0017  -27.5749   22.9230 C   0  0  0  0  0  0  0  0  0  0  0  0
  -23.2280  -26.1458   25.3190 C   0  0  0  0  0  0  0  0  0  0  0  0
  -28.1729  -20.3320   17.5626 C   0  0  0  0  0  0  0  0  0  0  0  0
  -28.5281  -18.9832   17.5608 C   0  0  0  0  0  0  0  0  0  0  0  0
  -23.6595   -8.2187   22.4574 C   0  0  0  0  0  0  0  0  0  0  0  0
  -22.1377   -9.3739   20.9786 C   0  0  0  0  0  0  0  0  0  0  0  0
  -23.5928  -24.8038   25.2208 C   0  0  0  0  0  0  0  0  0  0  0  0
  -21.2810   -6.5900   24.6721 C   0  0  0  0  0  0  0  0  0  0  0  0
  -21.2478   -5.2619   25.0971 C   0  0  0  0  0  0  0  0  0  0  0  0
  -25.1960  -25.3709   23.5099 C   0  0  0  0  0  0  0  0  0  0  0  0
  -21.2093   -4.5265   22.7960 C   0  0  0  0  0  0  0  0  0  0  0  0
  -24.5111   -9.3969   20.5277 C   0  0  0  0  0  0  0  0  0  0  0  0
  -26.1686   -9.1244   18.6078 C   0  0  0  0  0  0  0  0  0  0  0  0
  -18.0886  -29.7852   22.5126 C   0  0  0  0  0  0  0  0  0  0  0  0
  -23.8378  -27.1106   24.5042 C   0  0  0  0  0  0  0  0  0  0  0  0
  -19.1348  -28.8554   22.3597 C   0  0  0  0  0  0  0  0  0  0  0  0
  -24.8390  -26.7249   23.6014 C   0  0  0  0  0  0  0  0  0  0  0  0
  -27.8210  -20.9590   18.7580 C   0  0  0  0  0  0  0  0  0  0  0  0
  -27.8242  -20.2370   19.9515 C   0  0  0  0  0  0  0  0  0  0  0  0
  -28.1794  -18.8882   19.9497 C   0  0  0  0  0  0  0  0  0  0  0  0
  -28.5314  -18.2612   18.7543 C   0  0  0  0  0  0  0  0  0  0  0  0
  -22.3611   -8.5961   22.1147 C   0  0  0  0  0  0  0  0  0  0  0  0
  -24.5748  -24.4157   24.3142 C   0  0  0  0  0  0  0  0  0  0  0  0
  -21.2782   -6.8864   23.3090 C   0  0  0  0  0  0  0  0  0  0  0  0
  -21.2120   -4.2301   24.1591 C   0  0  0  0  0  0  0  0  0  0  0  0
  -21.2424   -5.8546   22.3710 C   0  0  0  0  0  0  0  0  0  0  0  0
  -25.6212   -9.8113   19.7080 C   0  0  0  0  0  0  0  0  0  0  0  0
  -27.1957   -9.9284   18.1775 C   0  0  0  0  0  0  0  0  0  0  0  0
  -25.7715  -21.1900   22.9732 C   0  0  0  0  0  0  0  0  0  0  0  0
  -25.8362  -20.4319   24.0803 C   0  0  0  0  0  0  0  0  0  0  0  0
  -31.2498  -17.1918   18.4063 C   0  0  0  0  0  0  0  0  0  0  0  0
  -30.1481  -16.4419   18.2868 C   0  0  0  0  0  0  0  0  0  0  0  0
  -25.7830   -7.8717   18.0267 C   0  0  0  0  0  0  0  0  0  0  0  0
  -22.8187  -29.1267   22.2680 C   0  0  0  0  0  0  0  0  0  0  0  0
  -25.8755  -30.2044   22.3984 C   0  0  0  0  0  0  0  0  0  0  0  0
  -29.1411  -29.5700   23.1599 C   0  0  0  0  0  0  0  0  0  0  0  0
  -27.9140  -15.8841   19.0109 C   0  0  0  0  0  0  0  0  0  0  0  0
  -18.1509  -31.1585   21.8923 C   0  0  0  0  0  0  0  0  0  0  0  0
  -23.4520  -28.5579   24.6411 C   0  0  0  0  0  0  0  0  0  0  0  0
  -25.5385  -27.7245   22.7184 C   0  0  0  0  0  0  0  0  0  0  0  0
  -19.5619  -31.5835   21.4940 C   0  0  0  0  0  0  0  0  0  0  0  0
  -30.3494  -13.1544   19.7453 C   0  0  0  0  0  0  0  0  0  0  0  0
  -24.6368  -22.2618   20.5684 C   0  0  0  0  0  0  0  0  0  0  0  0
  -20.2684  -30.4562   20.7479 C   0  0  0  0  0  0  0  0  0  0  0  0
  -24.2847  -22.8883   21.9130 C   0  0  0  0  0  0  0  0  0  0  0  0
  -29.4280  -11.9359   19.7773 C   0  0  0  0  0  0  0  0  0  0  0  0
  -29.6165  -14.4131   20.1941 C   0  0  0  0  0  0  0  0  0  0  0  0
  -27.4496  -13.4876   19.4359 C   0  0  0  0  0  0  0  0  0  0  0  0
  -24.9679  -20.7802   20.7138 C   0  0  0  0  0  0  0  0  0  0  0  0
  -20.4140  -29.2138   21.6349 C   0  0  1  0  0  0  0  0  0  0  0  0
  -25.3865  -22.6521   22.9450 C   0  0  1  0  0  0  0  0  0  1  0  0
  -23.7747  -29.3824   23.3987 C   0  0  1  0  0  0  0  0  0  0  0  0
  -28.1429  -12.1952   18.9726 C   0  0  2  0  0  0  0  0  0  0  0  0
  -27.4448  -22.4043   18.7319 C   0  0  0  0  0  0  0  0  0  0  0  0
  -28.1823  -18.1153   21.2317 C   0  0  0  0  0  0  0  0  0  0  0  0
  -32.5990  -16.7587   17.9367 C   0  0  0  0  0  0  0  0  0  0  0  0
  -31.4144  -30.6321   23.1239 C   0  0  0  0  0  0  0  0  0  0  0  0
  -26.0165  -29.7945   19.3781 C   0  0  0  0  0  0  0  0  0  0  0  0
  -28.5100  -29.9459   19.5441 C   0  0  0  0  0  0  0  0  0  0  0  0
  -27.0976  -31.8955   20.1974 C   0  0  0  0  0  0  0  0  0  0  0  0
  -29.4330  -29.3178   26.0942 C   0  0  0  0  0  0  0  0  0  0  0  0
  -27.4453  -20.9142   21.2355 C   0  0  0  0  0  0  0  0  0  0  0  0
  -27.1628  -29.8565   21.6907 C   0  0  1  0  0  0  0  0  0  0  0  0
  -30.1646  -30.3667   23.9487 C   0  0  2  0  0  0  0  0  0  0  0  0
  -27.1824  -30.3538   20.2177 C   0  0  0  0  0  0  0  0  0  0  0  0
  -26.2488  -10.9629   19.9610 N   0  0  0  0  0  0  0  0  0  0  0  0
  -27.2012  -11.0058   19.0137 N   0  0  0  0  0  0  0  0  0  0  0  0
  -25.1218  -29.1267   22.8848 N   0  0  0  0  0  0  0  0  0  0  0  0
  -28.3800  -14.6191   19.4262 N   0  0  0  0  0  0  0  0  0  0  0  0
  -28.0857   -9.8117   17.1692 N   0  0  0  0  0  0  0  0  0  0  0  0
  -24.7060   -7.1760   18.5927 N   0  0  0  0  0  0  0  0  0  0  0  0
  -21.4979  -29.3900   22.5775 N   0  0  0  0  0  0  0  0  0  0  0  0
  -28.2399  -30.3916   22.5164 N   0  0  0  0  0  0  0  0  0  0  0  0
  -28.9039  -16.8615   18.7285 N   0  0  0  0  0  0  0  0  0  0  0  0
  -26.0714  -20.5372   21.7175 N   0  3  1  0  0  0  0  0  0  0  0  0
  -30.5619  -29.6253   25.1789 N   0  3  0  0  0  0  0  0  0  0  0  0
  -26.3863   -7.3758   17.0451 O   0  0  0  0  0  0  0  0  0  0  0  0
  -23.2477  -28.7219   21.1939 O   0  0  0  0  0  0  0  0  0  0  0  0
  -25.5541  -31.3889   22.5215 O   0  0  0  0  0  0  0  0  0  0  0  0
  -29.1432  -28.3417   23.1158 O   0  0  0  0  0  0  0  0  0  0  0  0
  -26.7064  -16.1196   18.8749 O   0  0  0  0  0  0  0  0  0  0  0  0
  -21.3118   -8.2054   22.8887 O   0  0  0  0  0  0  0  0  0  0  0  0
  -24.9323  -23.1063   24.2159 O   0  0  0  0  0  0  0  0  0  1  0  0
  -21.1818   -2.9548   24.5673 F   0  0  0  0  0  0  0  0  0  0  0  0
  -21.2407   -6.1331   21.0602 F   0  0  0  0  0  0  0  0  0  0  0  0
  -26.2775  -18.7845   24.0507 Cl  0  0  0  0  0  0  0  0  0  0  0  0
  1  2  1  0  0  0  0
  1  5  2  0  0  0  0
  2  6  2  0  0  0  0
  3 10  2  0  0  0  0
  3 17  1  0  0  0  0
  4 11  1  0  0  0  0
  4 17  2  0  0  0  0
  5 19  1  0  0  0  0
  6 21  1  0  0  0  0
  7 12  2  0  0  0  0
  7 20  1  0  0  0  0
  8  9  2  0  0  0  0
  8 23  1  0  0  0  0
  9 26  1  0  0  0  0
 10 27  1  0  0  0  0
 11 27  2  0  0  0  0
 12 28  1  0  0  0  0
 13 14  2  0  0  0  0
 13 29  1  0  0  0  0
 14 30  1  0  0  0  0
 15 22  1  0  0  0  0
 15 28  2  0  0  0  0
 16 30  2  0  0  0  0
 16 31  1  0  0  0  0
 17 32  1  0  0  0  0
 18 32  1  0  0  0  0
 18 33  2  0  0  0  0
 18 38  1  0  0  0  0
 19 21  2  0  0  0  0
 19 43  1  0  0  0  0
 20 22  2  0  0  0  0
 20 44  1  0  0  0  0
 21 55  1  0  0  0  0
 22 45  1  0  0  0  0
 23 24  2  0  0  0  0
 23 59  1  0  0  0  0
 24 25  1  0  0  0  0
 24 67  1  0  0  0  0
 25 26  2  0  0  0  0
 25 60  1  0  0  0  0
 26 79  1  0  0  0  0
 27 87  1  0  0  0  0
 28 88  1  0  0  0  0
 29 31  2  0  0  0  0
 29 87  1  0  0  0  0
 30 89  1  0  0  0  0
 31 90  1  0  0  0  0
 32 71  2  0  0  0  0
 33 72  1  0  0  0  0
 33 75  1  0  0  0  0
 34 35  2  0  0  0  0
 34 56  1  0  0  0  0
 34 80  1  0  0  0  0
 35 91  1  0  0  0  0
 36 37  2  0  0  0  0
 36 61  1  0  0  0  0
 37 79  1  0  0  0  0
 38 76  1  0  0  0  0
 38 82  2  0  0  0  0
 39 57  1  0  0  0  0
 39 77  1  0  0  0  0
 39 83  2  0  0  0  0
 40 68  1  0  0  0  0
 40 73  1  0  0  0  0
 40 84  2  0  0  0  0
 41 69  1  0  0  0  0
 41 78  1  0  0  0  0
 41 85  2  0  0  0  0
 42 74  1  0  0  0  0
 42 79  1  0  0  0  0
 42 86  2  0  0  0  0
 43 46  1  0  0  0  0
 44 57  1  0  0  0  0
 45 73  1  0  0  0  0
 46 49  1  0  0  0  0
 47 51  1  0  0  0  0
 47 52  1  0  0  0  0
 48 50  1  0  0  0  0
 48 54  1  0  0  0  0
 49 55  1  0  0  0  0
 50 56  1  0  0  0  0
 51 58  1  0  0  0  0
 52 74  1  0  0  0  0
 53 58  1  0  0  0  0
 53 74  1  0  0  0  0
 54 80  1  0  0  0  0
 55 77  1  0  0  0  0
 56 88  1  0  0  0  0
 57 73  1  0  0  0  0
 58 72  1  0  0  0  0
 62 69  1  0  0  0  0
 63 70  1  0  0  0  0
 64 70  1  0  0  0  0
 65 70  1  0  0  0  0
 66 81  1  0  0  0  0
 67 80  1  0  0  0  0
 68 70  1  0  0  0  0
 68 78  1  0  0  0  0
 69 81  1  0  0  0  0
 71 72  1  0  0  0  0
M  CHG  2  80   1  81   1
M  ISO  4  42 100  56 101  79 100  88 101
M  END
> <Batch ID>
0033

> <Smiles>
CC=C[100N:0](c1ccc(C)c(CN2CCC[101CH:1]([101O:1]c3ccc4c(c3)CN(C(=O)C(NC(=O)C(C)NC)C(C)(C)C)C(C(=O)NC3CCCc5ccccc53)C4)C2=CCl)c1C)[100C:0](=O)N1CCCC(n2nc(-c3ccc(Oc4ccc(F)cc4F)cc3)c(C(N)=O)c2N)C1

> <Shape>
0.247

> <Color>
0.078

> <Negative vol penalty>
0.000

$$$$

  -OEChem-04042321453D

 82 90  0     1  0  0  0  0  0999 V2000
  -25.7406  -10.5873   20.4412 C   0  0  0  0  0  0  0  0  0  0  0  0
  -26.8108  -11.4507   20.2303 C   0  0  0  0  0  0  0  0  0  0  0  0
  -19.9502  -26.6572   17.8758 C   0  0  0  0  0  0  0  0  0  0  0  0
  -21.2110  -24.9938   19.0927 C   0  0  0  0  0  0  0  0  0  0  0  0
  -24.4334  -11.0611   20.3379 C   0  0  0  0  0  0  0  0  0  0  0  0
  -26.5744  -12.7883   19.9149 C   0  0  0  0  0  0  0  0  0  0  0  0
  -29.3532  -19.3228   20.8612 C   0  0  0  0  0  0  0  0  0  0  0  0
  -19.5380  -25.6811   16.9686 C   0  0  0  0  0  0  0  0  0  0  0  0
  -20.7987  -24.0177   18.1855 C   0  0  0  0  0  0  0  0  0  0  0  0
  -29.7349  -20.4470   20.1303 C   0  0  0  0  0  0  0  0  0  0  0  0
  -19.7871  -21.0182   16.3973 C   0  0  0  0  0  0  0  0  0  0  0  0
  -19.3533  -19.7961   16.9110 C   0  0  0  0  0  0  0  0  0  0  0  0
  -29.2606  -26.5650   20.6896 C   0  0  0  0  0  0  0  0  0  0  0  0
  -27.4353  -21.1722   20.0564 C   0  0  0  0  0  0  0  0  0  0  0  0
  -30.8259  -28.3172   21.2524 C   0  0  0  0  0  0  0  0  0  0  0  0
  -17.6025  -20.9300   18.1301 C   0  0  0  0  0  0  0  0  0  0  0  0
  -20.7868  -26.3135   18.9379 C   0  0  0  0  0  0  0  0  0  0  0  0
  -30.2128  -25.9830   19.8529 C   0  0  0  0  0  0  0  0  0  0  0  0
  -20.5671  -27.7027   21.0661 C   0  0  0  0  0  0  0  0  0  0  0  0
  -24.1809  -12.4073   20.0305 C   0  0  0  0  0  0  0  0  0  0  0  0
  -28.0060  -19.1088   21.1863 C   0  0  0  0  0  0  0  0  0  0  0  0
  -25.2626  -13.2802   19.8060 C   0  0  0  0  0  0  0  0  0  0  0  0
  -27.0395  -20.0458   20.7937 C   0  0  0  0  0  0  0  0  0  0  0  0
  -29.5671  -27.7322   21.3893 C   0  0  0  0  0  0  0  0  0  0  0  0
  -31.4717  -26.5681   19.7160 C   0  0  0  0  0  0  0  0  0  0  0  0
  -19.9623  -24.3614   17.1235 C   0  0  0  0  0  0  0  0  0  0  0  0
  -28.7755  -21.3705   19.7254 C   0  0  0  0  0  0  0  0  0  0  0  0
  -19.1286  -22.1962   16.7500 C   0  0  0  0  0  0  0  0  0  0  0  0
  -18.2610  -19.7520   17.7774 C   0  0  0  0  0  0  0  0  0  0  0  0
  -31.7782  -27.7352   20.4157 C   0  0  0  0  0  0  0  0  0  0  0  0
  -18.0364  -22.1521   17.6164 C   0  0  0  0  0  0  0  0  0  0  0  0
  -21.2134  -27.3214   19.8750 C   0  0  0  0  0  0  0  0  0  0  0  0
  -21.3661  -28.6898   21.5894 C   0  0  0  0  0  0  0  0  0  0  0  0
  -29.8591  -24.7507   19.1283 C   0  0  0  0  0  0  0  0  0  0  0  0
  -29.4780  -23.6013   19.6995 C   0  0  0  0  0  0  0  0  0  1  0  0
  -19.3532  -27.2087   21.6476 C   0  0  0  0  0  0  0  0  0  0  0  0
  -25.8666  -16.8560   20.5141 C   0  0  0  0  0  0  0  0  0  0  0  0
  -24.0273  -18.5288   22.5976 C   0  0  0  0  0  0  0  0  0  0  0  0
  -23.3623  -21.5031   24.1332 C   0  0  0  0  0  0  0  0  0  0  0  0
  -27.1837  -29.9728   20.9892 C   0  0  0  0  0  0  0  0  0  0  0  0
  -22.7505  -12.8624   19.8831 C   0  0  0  0  0  0  0  0  0  0  0  0
  -27.6141  -17.9048   21.9982 C   0  0  0  0  0  0  0  0  0  0  0  0
  -25.5827  -19.8727   21.1347 C   0  0  0  0  0  0  0  0  0  0  0  0
  -22.5879  -14.3799   19.9136 C   0  0  0  0  0  0  0  0  0  0  0  0
  -24.4334  -32.1166   20.2704 C   0  0  0  0  0  0  0  0  0  0  0  0
  -23.6209  -15.0458   19.0101 C   0  0  0  0  0  0  0  0  0  0  0  0
  -23.2379  -31.1651   20.1950 C   0  0  0  0  0  0  0  0  0  0  0  0
  -25.6986  -31.4794   19.7002 C   0  0  0  0  0  0  0  0  0  0  0  0
  -24.8553  -29.2202   20.2090 C   0  0  0  0  0  0  0  0  0  0  0  0
  -25.0469  -14.7435   19.4863 C   0  0  1  0  0  0  0  0  0  0  0  0
  -26.1465  -17.5233   21.8309 C   0  0  1  0  0  0  0  0  0  0  0  0
  -23.5689  -29.7981   20.8234 C   0  0  2  0  0  0  0  0  0  0  0  0
  -32.5142  -25.9695   18.8272 C   0  0  0  0  0  0  0  0  0  0  0  0
  -21.7731  -22.5703   25.7558 C   0  0  0  0  0  0  0  0  0  0  0  0
  -21.8881  -18.6412   20.4248 C   0  0  0  0  0  0  0  0  0  0  0  0
  -20.7721  -20.4732   21.7158 C   0  0  0  0  0  0  0  0  0  0  0  0
  -21.0145  -18.2058   22.7273 C   0  0  0  0  0  0  0  0  0  0  0  0
  -25.5430  -22.1363   26.0313 C   0  0  0  0  0  0  0  0  0  0  0  0
  -28.5494  -28.3550   22.2840 C   0  0  0  0  0  0  0  0  0  0  0  0
  -23.0552  -19.6779   22.4813 C   0  0  1  0  0  0  0  0  0  0  0  0
  -23.1017  -21.8495   25.5880 C   0  0  2  0  0  0  0  0  0  0  0  0
  -21.7096  -19.2521   21.8291 C   0  0  0  0  0  0  0  0  0  0  0  0
  -22.3362  -28.0103   19.6543 N   0  0  0  0  0  0  0  0  0  0  0  0
  -22.4017  -28.8344   20.7138 N   0  0  0  0  0  0  0  0  0  0  0  0
  -25.2485  -18.6762   21.9247 N   0  0  0  0  0  0  0  0  0  0  0  0
  -25.9569  -30.1868   20.3393 N   0  0  0  0  0  0  0  0  0  0  0  0
  -21.2766  -29.4396   22.7084 N   0  0  0  0  0  0  0  0  0  0  0  0
  -18.6571  -26.1928   20.9787 N   0  0  0  0  0  0  0  0  0  0  0  0
  -25.3835  -15.5665   20.6283 N   0  0  0  0  0  0  0  0  0  0  0  0
  -22.9191  -20.2348   23.8229 N   0  0  0  0  0  0  0  0  0  0  0  0
  -27.3446  -28.7227   21.5740 N   0  0  0  0  0  0  0  0  0  0  0  0
  -24.1836  -22.7299   26.1128 N   0  3  0  0  0  0  0  0  0  0  0  0
  -18.8907  -27.6664   22.7201 O   0  0  0  0  0  0  0  0  0  0  0  0
  -26.0724  -17.4665   19.4716 O   0  0  0  0  0  0  0  0  0  0  0  0
  -23.7176  -17.5400   23.2669 O   0  0  0  0  0  0  0  0  0  0  0  0
  -23.9015  -22.2813   23.3495 O   0  0  0  0  0  0  0  0  0  0  0  0
  -28.0678  -30.8341   21.0488 O   0  0  0  0  0  0  0  0  0  0  0  0
  -19.5600  -23.4087   16.2386 O   0  0  0  0  0  0  0  0  0  0  0  0
  -29.1453  -22.4684   19.0114 O   0  0  0  0  0  0  0  0  0  1  0  0
  -17.8436  -18.5782   18.2694 F   0  0  0  0  0  0  0  0  0  0  0  0
  -32.9847  -28.3059   20.2912 F   0  0  0  0  0  0  0  0  0  0  0  0
  -17.3990  -23.2804   17.9580 F   0  0  0  0  0  0  0  0  0  0  0  0
  1  2  1  0  0  0  0
  1  5  2  0  0  0  0
  2  6  2  0  0  0  0
  3  8  2  0  0  0  0
  3 17  1  0  0  0  0
  4  9  1  0  0  0  0
  4 17  2  0  0  0  0
  5 20  1  0  0  0  0
  6 22  1  0  0  0  0
  7 10  2  0  0  0  0
  7 21  1  0  0  0  0
  8 26  1  0  0  0  0
  9 26  2  0  0  0  0
 10 27  1  0  0  0  0
 11 12  2  0  0  0  0
 11 28  1  0  0  0  0
 12 29  1  0  0  0  0
 13 18  1  0  0  0  0
 13 24  2  0  0  0  0
 14 23  1  0  0  0  0
 14 27  2  0  0  0  0
 15 24  1  0  0  0  0
 15 30  2  0  0  0  0
 16 29  2  0  0  0  0
 16 31  1  0  0  0  0
 17 32  1  0  0  0  0
 18 25  2  0  0  0  0
 18 34  1  0  0  0  0
 19 32  1  0  0  0  0
 19 33  2  0  0  0  0
 19 36  1  0  0  0  0
 20 22  2  0  0  0  0
 20 41  1  0  0  0  0
 21 23  2  0  0  0  0
 21 42  1  0  0  0  0
 22 50  1  0  0  0  0
 23 43  1  0  0  0  0
 24 59  1  0  0  0  0
 25 30  1  0  0  0  0
 25 53  1  0  0  0  0
 26 78  1  0  0  0  0
 27 79  1  0  0  0  0
 28 31  2  0  0  0  0
 28 78  1  0  0  0  0
 29 80  1  0  0  0  0
 30 81  1  0  0  0  0
 31 82  1  0  0  0  0
 32 63  2  0  0  0  0
 33 64  1  0  0  0  0
 33 67  1  0  0  0  0
 34 35  2  0  0  0  0
 35 79  1  0  0  0  0
 36 68  1  0  0  0  0
 36 73  2  0  0  0  0
 37 51  1  0  0  0  0
 37 69  1  0  0  0  0
 37 74  2  0  0  0  0
 38 60  1  0  0  0  0
 38 65  1  0  0  0  0
 38 75  2  0  0  0  0
 39 61  1  0  0  0  0
 39 70  1  0  0  0  0
 39 76  2  0  0  0  0
 40 66  1  0  0  0  0
 40 71  1  0  0  0  0
 40 77  2  0  0  0  0
 41 44  1  0  0  0  0
 42 51  1  0  0  0  0
 43 65  1  0  0  0  0
 44 46  1  0  0  0  0
 45 47  1  0  0  0  0
 45 48  1  0  0  0  0
 46 50  1  0  0  0  0
 47 52  1  0  0  0  0
 48 66  1  0  0  0  0
 49 52  1  0  0  0  0
 49 66  1  0  0  0  0
 50 69  1  0  0  0  0
 51 65  1  0  0  0  0
 52 64  1  0  0  0  0
 54 61  1  0  0  0  0
 55 62  1  0  0  0  0
 56 62  1  0  0  0  0
 57 62  1  0  0  0  0
 58 72  1  0  0  0  0
 59 71  1  0  0  0  0
 60 62  1  0  0  0  0
 60 70  1  0  0  0  0
 61 72  1  0  0  0  0
 63 64  1  0  0  0  0
M  CHG  1  72   1
M  ISO  4  35 101  40 100  71 100  79 101
M  END
> <Batch ID>
0033

> <Smiles>
CNC(C)C(=O)NC(C(=O)N1Cc2cc([101O:1][101CH:1]=Cc3cc(C[100NH:0][100C:0](=O)N4CCCC(n5nc(-c6ccc(Oc7ccc(F)cc7F)cc6)c(C(N)=O)c5N)C4)cc(F)c3C)ccc2CC1C(=O)NC1CCCc2ccccc21)C(C)(C)C

> <Shape>
0.206

> <Color>
0.065

> <Negative vol penalty>
0.000

$$$$

  -OEChem-04042321453D

 85 94  0     1  0  0  0  0  0999 V2000
  -19.3983  -29.4517   16.0522 C   0  0  0  0  0  0  0  0  0  0  0  0
  -20.3811  -28.4672   16.0701 C   0  0  0  0  0  0  0  0  0  0  0  0
  -23.0985   -9.8347   19.8979 C   0  0  0  0  0  0  0  0  0  0  0  0
  -23.8911   -9.7734   22.1794 C   0  0  0  0  0  0  0  0  0  0  0  0
  -19.7366  -30.7777   16.3194 C   0  0  0  0  0  0  0  0  0  0  0  0
  -21.7030  -28.8083   16.3542 C   0  0  0  0  0  0  0  0  0  0  0  0
  -25.8070  -25.4250   19.3900 C   0  0  0  0  0  0  0  0  0  0  0  0
  -31.4484  -18.5047   20.2289 C   0  0  0  0  0  0  0  0  0  0  0  0
  -31.2387  -19.5629   19.3447 C   0  0  0  0  0  0  0  0  0  0  0  0
  -22.3859   -8.6552   20.1138 C   0  0  0  0  0  0  0  0  0  0  0  0
  -23.1784   -8.5940   22.3953 C   0  0  0  0  0  0  0  0  0  0  0  0
  -26.8390  -24.5925   18.9592 C   0  0  0  0  0  0  0  0  0  0  0  0
  -19.9792   -7.6958   23.0106 C   0  0  0  0  0  0  0  0  0  0  0  0
  -19.2404   -7.5933   24.1892 C   0  0  0  0  0  0  0  0  0  0  0  0
  -28.4063  -26.4066   19.2277 C   0  0  0  0  0  0  0  0  0  0  0  0
  -28.9878  -19.8186   20.1844 C   0  0  0  0  0  0  0  0  0  0  0  0
  -20.5379   -5.6602   24.8344 C   0  0  0  0  0  0  0  0  0  0  0  0
  -23.8512  -10.3938   20.9307 C   0  0  0  0  0  0  0  0  0  0  0  0
  -24.1312  -12.9292   20.9024 C   0  0  0  0  0  0  0  0  0  0  0  0
  -21.0616  -31.1337   16.6164 C   0  0  0  0  0  0  0  0  0  0  0  0
  -26.0654  -26.7599   19.7330 C   0  0  0  0  0  0  0  0  0  0  0  0
  -22.0595  -30.1404   16.6243 C   0  0  0  0  0  0  0  0  0  0  0  0
  -27.3762  -27.2532   19.6650 C   0  0  0  0  0  0  0  0  0  0  0  0
  -30.4277  -18.1033   21.0908 C   0  0  0  0  0  0  0  0  0  0  0  0
  -30.0085  -20.2199   19.3225 C   0  0  0  0  0  0  0  0  0  0  0  0
  -22.4259   -8.0348   21.3625 C   0  0  0  0  0  0  0  0  0  0  0  0
  -28.1384  -25.0840   18.8752 C   0  0  0  0  0  0  0  0  0  0  0  0
  -20.9973   -6.7805   22.7438 C   0  0  0  0  0  0  0  0  0  0  0  0
  -19.5197   -6.5755   25.1012 C   0  0  0  0  0  0  0  0  0  0  0  0
  -21.2767   -5.7626   23.6557 C   0  0  0  0  0  0  0  0  0  0  0  0
  -29.1975  -18.7603   21.0686 C   0  0  0  0  0  0  0  0  0  0  0  0
  -24.5880  -11.6119   20.7082 C   0  0  0  0  0  0  0  0  0  0  0  0
  -25.1999  -13.7182   20.5533 C   0  0  0  0  0  0  0  0  0  0  0  0
  -30.7209  -21.8169   17.4921 C   0  0  0  0  0  0  0  0  0  0  0  0
  -22.8550  -13.3979   21.3578 C   0  0  0  0  0  0  0  0  0  0  0  0
  -25.1135  -29.5844   18.6286 C   0  0  0  0  0  0  0  0  0  0  0  0
  -26.7534  -30.7033   21.1939 C   0  0  0  0  0  0  0  0  0  0  0  0
  -29.2183  -30.2019   23.5003 C   0  0  0  0  0  0  0  0  0  0  0  0
  -30.6601  -14.8622   20.7062 C   0  0  0  0  0  0  0  0  0  0  0  0
  -21.3873  -32.5873   16.8521 C   0  0  0  0  0  0  0  0  0  0  0  0
  -24.9457  -27.6374   20.2214 C   0  0  0  0  0  0  0  0  0  0  0  0
  -27.7097  -28.6730   20.0412 C   0  0  0  0  0  0  0  0  0  0  0  0
  -30.0148  -22.8845   16.6857 C   0  0  0  0  0  0  0  0  0  0  0  0
  -22.7458  -32.8078   17.5126 C   0  0  0  0  0  0  0  0  0  0  0  0
  -29.5450  -12.5426   18.2458 C   0  0  0  0  0  0  0  0  0  0  0  0
  -23.8155  -31.9627   16.8283 C   0  0  0  0  0  0  0  0  0  0  0  0
  -28.1214  -12.1980   18.6866 C   0  0  0  0  0  0  0  0  0  0  0  0
  -30.4739  -12.7401   19.4418 C   0  0  0  0  0  0  0  0  0  0  0  0
  -28.5756  -13.3719   20.8808 C   0  0  0  0  0  0  0  0  0  0  0  0
  -28.5074  -21.9678   18.3024 C   0  0  0  0  0  0  0  0  0  0  0  0
  -23.5002  -30.4671   16.9526 C   0  0  1  0  0  0  0  0  0  0  0  0
  -25.2364  -29.1256   20.0541 C   0  0  1  0  0  0  0  0  0  0  0  0
  -27.5889  -13.2183   19.7106 C   0  0  2  0  0  0  0  0  0  0  0  0
  -28.8085  -23.2405   17.5354 C   0  0  1  0  0  0  0  0  0  1  0  0
  -30.3507  -31.3107   25.4460 C   0  0  0  0  0  0  0  0  0  0  0  0
  -28.2807  -32.5136   19.2703 C   0  0  0  0  0  0  0  0  0  0  0  0
  -29.9862  -32.8685   21.0686 C   0  0  0  0  0  0  0  0  0  0  0  0
  -27.6278  -33.5980   21.4273 C   0  0  0  0  0  0  0  0  0  0  0  0
  -28.4031  -28.0435   25.3538 C   0  0  0  0  0  0  0  0  0  0  0  0
  -30.6927  -16.9654   22.0231 C   0  0  0  0  0  0  0  0  0  0  0  0
  -28.1788  -31.1306   21.4482 C   0  0  1  0  0  0  0  0  0  0  0  0
  -29.2364  -30.3726   25.0086 C   0  0  2  0  0  0  0  0  0  0  0  0
  -28.5121  -32.5014   20.7946 C   0  0  0  0  0  0  0  0  0  0  0  0
  -25.8486  -11.5626   20.2695 N   0  0  0  0  0  0  0  0  0  0  0  0
  -26.1930  -12.8589   20.1851 N   0  0  0  0  0  0  0  0  0  0  0  0
  -29.7938  -21.3022   18.4166 N   0  0  0  0  0  0  0  0  0  0  0  0
  -26.5795  -29.4936   20.5068 N   0  0  0  0  0  0  0  0  0  0  0  0
  -29.9119  -13.7208   20.3737 N   0  0  0  0  0  0  0  0  0  0  0  0
  -25.3776  -15.0562   20.5282 N   0  0  0  0  0  0  0  0  0  0  0  0
  -21.8699  -12.4523   21.6739 N   0  0  0  0  0  0  0  0  0  0  0  0
  -23.8398  -29.9872   18.2750 N   0  0  0  0  0  0  0  0  0  0  0  0
  -28.3628  -31.0979   22.8951 N   0  0  0  0  0  0  0  0  0  0  0  0
  -30.0512  -15.7437   21.5910 N   0  0  0  0  0  0  0  0  0  0  0  0
  -29.4409  -29.0562   25.6765 N   0  3  0  0  0  0  0  0  0  0  0  0
  -31.8762  -21.4849   17.2681 O   0  0  0  0  0  0  0  0  0  0  0  0
  -22.5905  -14.6193   21.4652 O   0  0  0  0  0  0  0  0  0  0  0  0
  -26.1014  -29.5750   17.9035 O   0  0  0  0  0  0  0  0  0  0  0  0
  -25.8283  -31.4130   21.5966 O   0  0  0  0  0  0  0  0  0  0  0  0
  -29.8982  -29.3604   22.9170 O   0  0  0  0  0  0  0  0  0  0  0  0
  -31.7849  -15.0822   20.2442 O   0  0  0  0  0  0  0  0  0  0  0  0
  -21.7304   -6.8840   21.5735 O   0  0  0  0  0  0  0  0  0  0  0  0
  -29.1475  -24.2738   18.4545 O   0  0  0  0  0  0  0  0  0  1  0  0
  -18.8112   -6.4782   26.2337 F   0  0  0  0  0  0  0  0  0  0  0  0
  -22.2544   -4.8810   23.4055 F   0  0  0  0  0  0  0  0  0  0  0  0
  -27.9113  -18.2911   22.1200 Cl  0  0  0  0  0  0  0  0  0  0  0  0
  1  2  1  0  0  0  0
  1  5  2  0  0  0  0
  2  6  2  0  0  0  0
  3 10  2  0  0  0  0
  3 18  1  0  0  0  0
  4 11  1  0  0  0  0
  4 18  2  0  0  0  0
  5 20  1  0  0  0  0
  6 22  1  0  0  0  0
  7 12  2  0  0  0  0
  7 21  1  0  0  0  0
  8  9  2  0  0  0  0
  8 24  1  0  0  0  0
  9 25  1  0  0  0  0
 10 26  1  0  0  0  0
 11 26  2  0  0  0  0
 12 27  1  0  0  0  0
 13 14  2  0  0  0  0
 13 28  1  0  0  0  0
 14 29  1  0  0  0  0
 15 23  1  0  0  0  0
 15 27  2  0  0  0  0
 16 25  2  0  0  0  0
 16 31  1  0  0  0  0
 17 29  2  0  0  0  0
 17 30  1  0  0  0  0
 18 32  1  0  0  0  0
 19 32  1  0  0  0  0
 19 33  2  0  0  0  0
 19 35  1  0  0  0  0
 20 22  2  0  0  0  0
 20 40  1  0  0  0  0
 21 23  2  0  0  0  0
 21 41  1  0  0  0  0
 22 51  1  0  0  0  0
 23 42  1  0  0  0  0
 24 31  2  0  0  0  0
 24 60  1  0  0  0  0
 25 66  1  0  0  0  0
 26 81  1  0  0  0  0
 27 82  1  0  0  0  0
 28 30  2  0  0  0  0
 28 81  1  0  0  0  0
 29 83  1  0  0  0  0
 30 84  1  0  0  0  0
 31 85  1  0  0  0  0
 32 64  2  0  0  0  0
 33 65  1  0  0  0  0
 33 69  1  0  0  0  0
 34 43  1  0  0  0  0
 34 66  1  0  0  0  0
 34 75  2  0  0  0  0
 35 70  1  0  0  0  0
 35 76  2  0  0  0  0
 36 52  1  0  0  0  0
 36 71  1  0  0  0  0
 36 77  2  0  0  0  0
 37 61  1  0  0  0  0
 37 67  1  0  0  0  0
 37 78  2  0  0  0  0
 38 62  1  0  0  0  0
 38 72  1  0  0  0  0
 38 79  2  0  0  0  0
 39 68  1  0  0  0  0
 39 73  1  0  0  0  0
 39 80  2  0  0  0  0
 40 44  1  0  0  0  0
 41 52  1  0  0  0  0
 42 67  1  0  0  0  0
 43 54  1  0  0  0  0
 44 46  1  0  0  0  0
 45 47  1  0  0  0  0
 45 48  1  0  0  0  0
 46 51  1  0  0  0  0
 47 53  1  0  0  0  0
 48 68  1  0  0  0  0
 49 53  1  0  0  0  0
 49 68  1  0  0  0  0
 50 54  1  0  0  0  0
 50 66  1  0  0  0  0
 51 71  1  0  0  0  0
 52 67  1  0  0  0  0
 53 65  1  0  0  0  0
 54 82  1  0  0  0  0
 55 62  1  0  0  0  0
 56 63  1  0  0  0  0
 57 63  1  0  0  0  0
 58 63  1  0  0  0  0
 59 74  1  0  0  0  0
 60 73  1  0  0  0  0
 61 63  1  0  0  0  0
 61 72  1  0  0  0  0
 62 74  1  0  0  0  0
 64 65  1  0  0  0  0
M  CHG  1  74   1
M  ISO  4  39 100  54 101  73 100  82 101
M  END
> <Batch ID>
0033

> <Smiles>
CNC(C)C(=O)NC(C(=O)N1Cc2cc([101O:1][101CH:1]3CC(=O)N(c4ccc(C[100NH:0][100C:0](=O)N5CCCC(n6nc(-c7ccc(Oc8ccc(F)cc8F)cc7)c(C(N)=O)c6N)C5)c(Cl)c4)C3)ccc2CC1C(=O)NC1CCCc2ccccc21)C(C)(C)C

> <Shape>
0.301

> <Color>
0.215

> <Negative vol penalty>
0.000

$$$$

  -OEChem-04042321453D

 81 89  0     1  0  0  0  0  0999 V2000
  -23.9171  -29.7966   22.5333 C   0  0  0  0  0  0  0  0  0  0  0  0
  -24.7967  -28.7237   22.4304 C   0  0  0  0  0  0  0  0  0  0  0  0
  -32.1612  -18.7239   21.6402 C   0  0  0  0  0  0  0  0  0  0  0  0
  -23.1562   -9.8600   19.9642 C   0  0  0  0  0  0  0  0  0  0  0  0
  -23.8171   -9.9703   22.2854 C   0  0  0  0  0  0  0  0  0  0  0  0
  -31.0387  -19.4710   21.9971 C   0  0  0  0  0  0  0  0  0  0  0  0
  -22.7299  -29.6569   23.2509 C   0  0  0  0  0  0  0  0  0  0  0  0
  -24.4901  -27.5107   23.0460 C   0  0  0  0  0  0  0  0  0  0  0  0
  -25.8393  -21.8988   20.9986 C   0  0  0  0  0  0  0  0  0  0  0  0
  -32.2495  -17.3804   22.0047 C   0  0  0  0  0  0  0  0  0  0  0  0
  -22.4424   -8.6899   20.2230 C   0  0  0  0  0  0  0  0  0  0  0  0
  -23.1033   -8.8002   22.5443 C   0  0  0  0  0  0  0  0  0  0  0  0
  -26.8654  -21.0080   21.3107 C   0  0  0  0  0  0  0  0  0  0  0  0
  -23.5316   -5.4741   22.1151 C   0  0  0  0  0  0  0  0  0  0  0  0
  -24.1508   -4.4959   22.8930 C   0  0  0  0  0  0  0  0  0  0  0  0
  -25.4102  -19.8894   22.8760 C   0  0  0  0  0  0  0  0  0  0  0  0
  -22.3734   -4.6651   24.5206 C   0  0  0  0  0  0  0  0  0  0  0  0
  -23.8436  -10.5002   20.9954 C   0  0  0  0  0  0  0  0  0  0  0  0
  -30.0046  -18.8747   22.7187 C   0  0  0  0  0  0  0  0  0  0  0  0
  -24.1033  -13.0305   20.8020 C   0  0  0  0  0  0  0  0  0  0  0  0
  -22.4040  -28.4386   23.8674 C   0  0  0  0  0  0  0  0  0  0  0  0
  -24.5922  -21.7981   21.6320 C   0  0  0  0  0  0  0  0  0  0  0  0
  -23.2980  -27.3549   23.7736 C   0  0  0  0  0  0  0  0  0  0  0  0
  -24.3691  -20.7785   22.5683 C   0  0  0  0  0  0  0  0  0  0  0  0
  -31.2154  -16.7841   22.7263 C   0  0  0  0  0  0  0  0  0  0  0  0
  -30.0929  -17.5312   23.0833 C   0  0  0  0  0  0  0  0  0  0  0  0
  -22.4159   -8.1600   21.5130 C   0  0  0  0  0  0  0  0  0  0  0  0
  -26.6519  -20.0049   22.2516 C   0  0  0  0  0  0  0  0  0  0  0  0
  -22.3333   -6.0479   22.5399 C   0  0  0  0  0  0  0  0  0  0  0  0
  -23.5717   -4.0914   24.0958 C   0  0  0  0  0  0  0  0  0  0  0  0
  -21.7542   -5.6434   23.7427 C   0  0  0  0  0  0  0  0  0  0  0  0
  -24.5816  -11.7086   20.7285 C   0  0  0  0  0  0  0  0  0  0  0  0
  -25.1836  -13.8061   20.4584 C   0  0  0  0  0  0  0  0  0  0  0  0
  -28.8306  -19.6895   23.0803 C   0  0  0  0  0  0  0  0  0  1  0  0
  -22.7992  -13.5142   21.1499 C   0  0  0  0  0  0  0  0  0  0  0  0
  -22.8768  -23.6927   23.5218 C   0  0  0  0  0  0  0  0  0  0  0  0
  -20.6378  -21.3734   23.1615 C   0  0  0  0  0  0  0  0  0  0  0  0
  -19.9354  -18.1086   22.4579 C   0  0  0  0  0  0  0  0  0  0  0  0
  -30.9379  -13.9768   21.0691 C   0  0  0  0  0  0  0  0  0  0  0  0
  -21.1315  -28.3497   24.6721 C   0  0  0  0  0  0  0  0  0  0  0  0
  -23.4872  -22.7502   21.2646 C   0  0  0  0  0  0  0  0  0  0  0  0
  -23.0420  -20.6151   23.2616 C   0  0  0  0  0  0  0  0  0  0  0  0
  -20.7042  -26.9169   24.9799 C   0  0  0  0  0  0  0  0  0  0  0  0
  -29.4019  -13.0141   18.0047 C   0  0  0  0  0  0  0  0  0  0  0  0
  -21.8932  -26.1002   25.4759 C   0  0  0  0  0  0  0  0  0  0  0  0
  -27.9578  -12.7022   18.4015 C   0  0  0  0  0  0  0  0  0  0  0  0
  -30.3893  -12.5914   19.0902 C   0  0  0  0  0  0  0  0  0  0  0  0
  -28.6581  -12.8186   20.8294 C   0  0  0  0  0  0  0  0  0  0  0  0
  -22.9890  -26.0155   24.4065 C   0  0  1  0  0  0  0  0  0  0  0  0
  -22.4201  -22.8736   22.3479 C   0  0  1  0  0  0  0  0  0  0  0  0
  -27.6211  -13.2779   19.7902 C   0  0  2  0  0  0  0  0  0  0  0  0
  -28.9852  -16.8881   23.8570 C   0  0  0  0  0  0  0  0  0  0  0  0
  -18.0170  -16.5009   22.2779 C   0  0  0  0  0  0  0  0  0  0  0  0
  -20.4692  -21.2375   26.2050 C   0  0  0  0  0  0  0  0  0  0  0  0
  -19.3009  -19.0355   25.9724 C   0  0  0  0  0  0  0  0  0  0  0  0
  -18.2653  -21.1004   25.0310 C   0  0  0  0  0  0  0  0  0  0  0  0
  -20.4968  -17.5781   19.6009 C   0  0  0  0  0  0  0  0  0  0  0  0
  -31.3337  -15.3433   23.1026 C   0  0  0  0  0  0  0  0  0  0  0  0
  -20.2899  -20.1001   23.8941 C   0  0  1  0  0  0  0  0  0  0  0  0
  -18.9141  -17.4753   21.5305 C   0  0  2  0  0  0  0  0  0  0  0  0
  -19.6070  -20.3724   25.2642 C   0  0  0  0  0  0  0  0  0  0  0  0
  -25.8657  -11.6442   20.3665 N   0  0  0  0  0  0  0  0  0  0  0  0
  -28.8497  -20.7597   23.8039 N   0  0  0  0  0  0  0  0  0  0  0  0
  -26.2034  -12.9355   20.2094 N   0  0  0  0  0  0  0  0  0  0  0  0
  -21.9950  -21.5745   22.8731 N   0  0  0  0  0  0  0  0  0  0  0  0
  -30.0143  -13.1721   20.3817 N   0  0  0  0  0  0  0  0  0  0  0  0
  -25.3510  -15.1411   20.3480 N   0  0  0  0  0  0  0  0  0  0  0  0
  -21.8057  -12.5811   21.4763 N   0  0  0  0  0  0  0  0  0  0  0  0
  -22.6319  -25.0465   23.3927 N   0  0  0  0  0  0  0  0  0  0  0  0
  -19.4848  -19.3058   22.9726 N   0  0  0  0  0  0  0  0  0  0  0  0
  -30.5000  -14.4928   22.2826 N   0  0  0  0  0  0  0  0  0  0  0  0
  -19.5994  -16.7359   20.4329 N   0  3  0  0  0  0  0  0  0  0  0  0
  -22.5186  -14.7368   21.1546 O   0  0  0  0  0  0  0  0  0  0  0  0
  -23.4105  -23.1373   24.4750 O   0  0  0  0  0  0  0  0  0  0  0  0
  -19.7375  -22.1571   22.8500 O   0  0  0  0  0  0  0  0  0  0  0  0
  -21.0226  -17.5911   22.7043 O   0  0  0  0  0  0  0  0  0  0  0  0
  -32.0670  -14.2220   20.6310 O   0  0  0  0  0  0  0  0  0  0  0  0
  -21.7193   -7.0184   21.7660 O   0  0  0  0  0  0  0  0  0  0  0  0
  -27.6520  -19.1346   22.5586 O   0  0  0  0  0  0  0  0  0  1  0  0
  -24.1657   -3.1509   24.8420 F   0  0  0  0  0  0  0  0  0  0  0  0
  -20.6024   -6.1902   24.1554 F   0  0  0  0  0  0  0  0  0  0  0  0
  1  2  1  0  0  0  0
  1  7  2  0  0  0  0
  2  8  2  0  0  0  0
  3  6  2  0  0  0  0
  3 10  1  0  0  0  0
  4 11  2  0  0  0  0
  4 18  1  0  0  0  0
  5 12  1  0  0  0  0
  5 18  2  0  0  0  0
  6 19  1  0  0  0  0
  7 21  1  0  0  0  0
  8 23  1  0  0  0  0
  9 13  2  0  0  0  0
  9 22  1  0  0  0  0
 10 25  2  0  0  0  0
 11 27  1  0  0  0  0
 12 27  2  0  0  0  0
 13 28  1  0  0  0  0
 14 15  2  0  0  0  0
 14 29  1  0  0  0  0
 15 30  1  0  0  0  0
 16 24  1  0  0  0  0
 16 28  2  0  0  0  0
 17 30  2  0  0  0  0
 17 31  1  0  0  0  0
 18 32  1  0  0  0  0
 19 26  2  0  0  0  0
 19 34  1  0  0  0  0
 20 32  1  0  0  0  0
 20 33  2  0  0  0  0
 20 35  1  0  0  0  0
 21 23  2  0  0  0  0
 21 40  1  0  0  0  0
 22 24  2  0  0  0  0
 22 41  1  0  0  0  0
 23 49  1  0  0  0  0
 24 42  1  0  0  0  0
 25 26  1  0  0  0  0
 25 58  1  0  0  0  0
 26 52  1  0  0  0  0
 27 78  1  0  0  0  0
 28 79  1  0  0  0  0
 29 31  2  0  0  0  0
 29 78  1  0  0  0  0
 30 80  1  0  0  0  0
 31 81  1  0  0  0  0
 32 62  2  0  0  0  0
 33 64  1  0  0  0  0
 33 67  1  0  0  0  0
 34 63  2  0  0  0  0
 34 79  1  0  0  0  0
 35 68  1  0  0  0  0
 35 73  2  0  0  0  0
 36 50  1  0  0  0  0
 36 69  1  0  0  0  0
 36 74  2  0  0  0  0
 37 59  1  0  0  0  0
 37 65  1  0  0  0  0
 37 75  2  0  0  0  0
 38 60  1  0  0  0  0
 38 70  1  0  0  0  0
 38 76  2  0  0  0  0
 39 66  1  0  0  0  0
 39 71  1  0  0  0  0
 39 77  2  0  0  0  0
 40 43  1  0  0  0  0
 41 50  1  0  0  0  0
 42 65  1  0  0  0  0
 43 45  1  0  0  0  0
 44 46  1  0  0  0  0
 44 47  1  0  0  0  0
 45 49  1  0  0  0  0
 46 51  1  0  0  0  0
 47 66  1  0  0  0  0
 48 51  1  0  0  0  0
 48 66  1  0  0  0  0
 49 69  1  0  0  0  0
 50 65  1  0  0  0  0
 51 64  1  0  0  0  0
 53 60  1  0  0  0  0
 54 61  1  0  0  0  0
 55 61  1  0  0  0  0
 56 61  1  0  0  0  0
 57 72  1  0  0  0  0
 58 71  1  0  0  0  0
 59 61  1  0  0  0  0
 59 70  1  0  0  0  0
 60 72  1  0  0  0  0
 62 64  1  0  0  0  0
M  CHG  1  72   1
M  ISO  4  34 101  39 100  71 100  79 101
M  END
> <Batch ID>
0033

> <Smiles>
CNC(C)C(=O)NC(C(=O)N1Cc2cc([101O:1][101C:1](=N)c3cccc(C[100NH:0][100C:0](=O)N4CCCC(n5nc(-c6ccc(Oc7ccc(F)cc7F)cc6)c(C(N)=O)c5N)C4)c3C)ccc2CC1C(=O)NC1CCCc2ccccc21)C(C)(C)C

> <Shape>
0.205

> <Color>
0.196

> <Negative vol penalty>
0.000

$$$$

  -OEChem-04042321453D

 87 96  0     1  0  0  0  0  0999 V2000
  -17.4557  -21.8232   25.2456 C   0  0  0  0  0  0  0  0  0  0  0  0
  -18.4761  -22.7276   24.9695 C   0  0  0  0  0  0  0  0  0  0  0  0
  -29.3970  -17.7261   18.8910 C   0  0  0  0  0  0  0  0  0  0  0  0
  -30.5381  -18.2796   20.9473 C   0  0  0  0  0  0  0  0  0  0  0  0
  -17.4074  -20.6022   24.5742 C   0  0  0  0  0  0  0  0  0  0  0  0
  -19.4494  -22.4111   24.0225 C   0  0  0  0  0  0  0  0  0  0  0  0
  -20.4347  -26.2636   20.8869 C   0  0  0  0  0  0  0  0  0  0  0  0
  -29.8600  -16.4139   18.9873 C   0  0  0  0  0  0  0  0  0  0  0  0
  -31.0011  -16.9673   21.0437 C   0  0  0  0  0  0  0  0  0  0  0  0
  -21.2489  -27.2865   21.3712 C   0  0  0  0  0  0  0  0  0  0  0  0
  -29.0676  -13.6128   20.7074 C   0  0  0  0  0  0  0  0  0  0  0  0
  -28.1566  -12.5846   20.4653 C   0  0  0  0  0  0  0  0  0  0  0  0
  -23.1306  -26.3355   20.1990 C   0  0  0  0  0  0  0  0  0  0  0  0
  -30.5310  -29.5030   20.7219 C   0  0  0  0  0  0  0  0  0  0  0  0
  -28.3205  -28.8368   22.2878 C   0  0  0  0  0  0  0  0  0  0  0  0
  -29.5303  -11.7970   18.6406 C   0  0  0  0  0  0  0  0  0  0  0  0
  -29.7361  -18.6590   19.8710 C   0  0  0  0  0  0  0  0  0  0  0  0
  -28.0605  -20.5347   20.2971 C   0  0  0  0  0  0  0  0  0  0  0  0
  -18.3751  -20.2746   23.6115 C   0  0  0  0  0  0  0  0  0  0  0  0
  -20.9656  -25.2612   20.0624 C   0  0  0  0  0  0  0  0  0  0  0  0
  -19.4148  -21.1840   23.3385 C   0  0  0  0  0  0  0  0  0  0  0  0
  -22.3205  -25.3025   19.7035 C   0  0  0  0  0  0  0  0  0  0  0  0
  -29.4157  -30.3403   20.7461 C   0  0  0  0  0  0  0  0  0  0  0  0
  -30.5410  -28.3326   21.4806 C   0  0  0  0  0  0  0  0  0  0  0  0
  -28.3105  -30.0073   21.5291 C   0  0  0  0  0  0  0  0  0  0  0  0
  -30.6620  -16.0345   20.0636 C   0  0  0  0  0  0  0  0  0  0  0  0
  -22.5977  -27.3210   21.0296 C   0  0  0  0  0  0  0  0  0  0  0  0
  -30.2099  -13.7331   19.9159 C   0  0  0  0  0  0  0  0  0  0  0  0
  -28.3880  -11.6767   19.4320 C   0  0  0  0  0  0  0  0  0  0  0  0
  -30.4413  -12.8253   18.8826 C   0  0  0  0  0  0  0  0  0  0  0  0
  -29.4358  -27.9995   22.2636 C   0  0  0  0  0  0  0  0  0  0  0  0
  -29.2587  -20.0149   19.7718 C   0  0  0  0  0  0  0  0  0  0  0  0
  -28.0729  -21.8595   19.9346 C   0  0  0  0  0  0  0  0  0  0  0  0
  -24.6687  -30.9856   21.8085 C   0  0  0  0  0  0  0  0  0  0  0  0
  -24.4750  -31.8829   22.7823 C   0  0  0  0  0  0  0  0  0  0  0  0
  -27.0285  -19.8789   21.0458 C   0  0  0  0  0  0  0  0  0  0  0  0
  -21.2844  -22.1066   20.2879 C   0  0  0  0  0  0  0  0  0  0  0  0
  -22.3309  -22.3850   17.2302 C   0  0  0  0  0  0  0  0  0  0  0  0
  -23.7160  -24.3523   14.8098 C   0  0  0  0  0  0  0  0  0  0  0  0
  -31.7583  -26.2713   19.2498 C   0  0  0  0  0  0  0  0  0  0  0  0
  -18.3083  -18.9229   22.9458 C   0  0  0  0  0  0  0  0  0  0  0  0
  -20.0682  -24.1796   19.5266 C   0  0  0  0  0  0  0  0  0  0  0  0
  -22.9348  -24.2615   18.8049 C   0  0  0  0  0  0  0  0  0  0  0  0
  -23.6668  -30.6102   20.7617 C   0  0  0  0  0  0  0  0  0  0  0  0
  -19.1647  -18.8213   21.6862 C   0  0  0  0  0  0  0  0  0  0  0  0
  -30.4092  -24.5019   16.4702 C   0  0  0  0  0  0  0  0  0  0  0  0
  -20.5538  -19.3995   21.9371 C   0  0  0  0  0  0  0  0  0  0  0  0
  -29.8636  -23.2128   17.0871 C   0  0  0  0  0  0  0  0  0  0  0  0
  -31.6984  -24.9529   17.1534 C   0  0  0  0  0  0  0  0  0  0  0  0
  -31.0622  -23.7991   19.2362 C   0  0  0  0  0  0  0  0  0  0  0  0
  -25.5384  -29.0946   20.7349 C   0  0  0  0  0  0  0  0  0  0  0  0
  -20.4748  -20.8873   22.3000 C   0  0  1  0  0  0  0  0  0  0  0  0
  -20.8282  -22.9234   19.1121 C   0  0  1  0  0  0  0  0  0  0  0  0
  -29.7326  -23.3350   18.6172 C   0  0  2  0  0  0  0  0  0  0  0  0
  -24.0302  -29.1507   20.5373 C   0  0  1  0  0  0  0  0  0  1  0  0
  -29.4257  -31.5873   19.9242 C   0  0  0  0  0  0  0  0  0  0  0  0
  -24.4868  -24.2897   12.4225 C   0  0  0  0  0  0  0  0  0  0  0  0
  -24.8362  -20.8656   18.0815 C   0  0  0  0  0  0  0  0  0  0  0  0
  -25.9440  -21.6538   15.9792 C   0  0  0  0  0  0  0  0  0  0  0  0
  -23.9203  -20.2009   15.8513 C   0  0  0  0  0  0  0  0  0  0  0  0
  -21.7718  -26.4339   14.0060 C   0  0  0  0  0  0  0  0  0  0  0  0
  -31.7551  -27.4624   21.4270 C   0  0  0  0  0  0  0  0  0  0  0  0
  -27.0987  -30.8911   21.5687 C   0  0  0  0  0  0  0  0  0  0  0  0
  -23.6725  -22.6104   16.5757 C   0  0  1  0  0  0  0  0  0  0  0  0
  -23.3288  -24.5903   13.3614 C   0  0  2  0  0  0  0  0  0  0  0  0
  -24.5824  -21.3513   16.6404 C   0  0  0  0  0  0  0  0  0  0  0  0
  -29.9798  -20.9343   19.1248 N   0  0  0  0  0  0  0  0  0  0  0  0
  -29.2325  -22.0452   19.2410 N   0  0  0  0  0  0  0  0  0  0  0  0
  -22.0177  -23.2208   18.3116 N   0  0  0  0  0  0  0  0  0  0  0  0
  -31.5061  -25.0505   18.6024 N   0  0  0  0  0  0  0  0  0  0  0  0
  -27.2050  -22.8719   20.1445 N   0  0  0  0  0  0  0  0  0  0  0  0
  -27.1744  -18.5145   21.3311 N   0  0  0  0  0  0  0  0  0  0  0  0
  -20.2586  -21.6863   21.1129 N   0  0  0  0  0  0  0  0  0  0  0  0
  -23.3930  -23.0767   15.2219 N   0  0  0  0  0  0  0  0  0  0  0  0
  -31.5450  -26.2792   20.6229 N   0  0  0  0  0  0  0  0  0  0  0  0
  -25.8278  -30.1348   21.8139 N   0  3  1  0  0  0  0  0  0  0  0  0
  -22.9176  -26.0087   13.1614 N   0  3  0  0  0  0  0  0  0  0  0  0
  -25.9994  -20.4810   21.4356 O   0  0  0  0  0  0  0  0  0  0  0  0
  -22.4785  -21.8737   20.4349 O   0  0  0  0  0  0  0  0  0  0  0  0
  -21.5852  -21.5048   16.7934 O   0  0  0  0  0  0  0  0  0  0  0  0
  -24.2547  -25.2108   15.5050 O   0  0  0  0  0  0  0  0  0  0  0  0
  -32.1397  -27.2808   18.6480 O   0  0  0  0  0  0  0  0  0  0  0  0
  -31.1137  -14.7540   20.1580 O   0  0  0  0  0  0  0  0  0  0  0  0
  -23.3947  -28.3179   21.5015 O   0  0  0  0  0  0  0  0  0  1  0  0
  -27.5139  -10.6884   19.2007 F   0  0  0  0  0  0  0  0  0  0  0  0
  -31.5375  -12.9351   18.1197 F   0  0  0  0  0  0  0  0  0  0  0  0
  -29.4119  -26.5596   23.2151 Cl  0  0  0  0  0  0  0  0  0  0  0  0
  1  2  1  0  0  0  0
  1  5  2  0  0  0  0
  2  6  2  0  0  0  0
  3  8  2  0  0  0  0
  3 17  1  0  0  0  0
  4  9  1  0  0  0  0
  4 17  2  0  0  0  0
  5 19  1  0  0  0  0
  6 21  1  0  0  0  0
  7 10  2  0  0  0  0
  7 20  1  0  0  0  0
  8 26  1  0  0  0  0
  9 26  2  0  0  0  0
 10 27  1  0  0  0  0
 11 12  2  0  0  0  0
 11 28  1  0  0  0  0
 12 29  1  0  0  0  0
 13 22  1  0  0  0  0
 13 27  2  0  0  0  0
 14 23  1  0  0  0  0
 14 24  2  0  0  0  0
 15 25  1  0  0  0  0
 15 31  2  0  0  0  0
 16 29  2  0  0  0  0
 16 30  1  0  0  0  0
 17 32  1  0  0  0  0
 18 32  1  0  0  0  0
 18 33  2  0  0  0  0
 18 36  1  0  0  0  0
 19 21  2  0  0  0  0
 19 41  1  0  0  0  0
 20 22  2  0  0  0  0
 20 42  1  0  0  0  0
 21 52  1  0  0  0  0
 22 43  1  0  0  0  0
 23 25  2  0  0  0  0
 23 56  1  0  0  0  0
 24 31  1  0  0  0  0
 24 62  1  0  0  0  0
 25 63  1  0  0  0  0
 26 83  1  0  0  0  0
 27 84  1  0  0  0  0
 28 30  2  0  0  0  0
 28 83  1  0  0  0  0
 29 85  1  0  0  0  0
 30 86  1  0  0  0  0
 31 87  1  0  0  0  0
 32 67  2  0  0  0  0
 33 68  1  0  0  0  0
 33 71  1  0  0  0  0
 34 35  2  0  0  0  0
 34 44  1  0  0  0  0
 34 76  1  0  0  0  0
 36 72  1  0  0  0  0
 36 78  2  0  0  0  0
 37 53  1  0  0  0  0
 37 73  1  0  0  0  0
 37 79  2  0  0  0  0
 38 64  1  0  0  0  0
 38 69  1  0  0  0  0
 38 80  2  0  0  0  0
 39 65  1  0  0  0  0
 39 74  1  0  0  0  0
 39 81  2  0  0  0  0
 40 70  1  0  0  0  0
 40 75  1  0  0  0  0
 40 82  2  0  0  0  0
 41 45  1  0  0  0  0
 42 53  1  0  0  0  0
 43 69  1  0  0  0  0
 44 55  1  0  0  0  0
 45 47  1  0  0  0  0
 46 48  1  0  0  0  0
 46 49  1  0  0  0  0
 47 52  1  0  0  0  0
 48 54  1  0  0  0  0
 49 70  1  0  0  0  0
 50 54  1  0  0  0  0
 50 70  1  0  0  0  0
 51 55  1  0  0  0  0
 51 76  1  0  0  0  0
 52 73  1  0  0  0  0
 53 69  1  0  0  0  0
 54 68  1  0  0  0  0
 55 84  1  0  0  0  0
 57 65  1  0  0  0  0
 58 66  1  0  0  0  0
 59 66  1  0  0  0  0
 60 66  1  0  0  0  0
 61 77  1  0  0  0  0
 62 75  1  0  0  0  0
 63 76  1  0  0  0  0
 64 66  1  0  0  0  0
 64 74  1  0  0  0  0
 65 77  1  0  0  0  0
 67 68  1  0  0  0  0
M  CHG  2  76   1  77   1
M  ISO  4  40 100  55 101  75 100  84 101
M  END
> <Batch ID>
0033

> <Smiles>
C=C1C[101CH:1]([101O:1]c2ccc3c(c2)CN(C(=O)C(NC(=O)C(C)NC)C(C)(C)C)C(C(=O)NC2CCCc4ccccc42)C3)CN1Cc1cc(Cl)c(C[100NH:0][100C:0](=O)N2CCCC(n3nc(-c4ccc(Oc5ccc(F)cc5F)cc4)c(C(N)=O)c3N)C2)cc1C

> <Shape>
0.216

> <Color>
0.052

> <Negative vol penalty>
0.000

$$$$

  -OEChem-04042321453D

 87 96  0     1  0  0  0  0  0999 V2000
  -19.0545  -26.8997   17.5259 C   0  0  0  0  0  0  0  0  0  0  0  0
  -19.6132  -25.8493   18.2471 C   0  0  0  0  0  0  0  0  0  0  0  0
  -23.0667   -9.8712   19.8974 C   0  0  0  0  0  0  0  0  0  0  0  0
  -23.8798   -9.7771   22.1706 C   0  0  0  0  0  0  0  0  0  0  0  0
  -19.8095  -28.0417   17.2619 C   0  0  0  0  0  0  0  0  0  0  0  0
  -20.9275  -25.9400   18.7038 C   0  0  0  0  0  0  0  0  0  0  0  0
  -25.0978  -23.8878   24.1548 C   0  0  0  0  0  0  0  0  0  0  0  0
  -22.3325   -8.7047   20.1117 C   0  0  0  0  0  0  0  0  0  0  0  0
  -23.1455   -8.6107   22.3849 C   0  0  0  0  0  0  0  0  0  0  0  0
  -26.3078  -23.2404   24.4008 C   0  0  0  0  0  0  0  0  0  0  0  0
  -19.9348   -7.7728   23.0249 C   0  0  0  0  0  0  0  0  0  0  0  0
  -19.2054   -7.6765   24.2099 C   0  0  0  0  0  0  0  0  0  0  0  0
  -27.4909  -25.2945   23.9534 C   0  0  0  0  0  0  0  0  0  0  0  0
  -31.4421  -19.1027   21.6407 C   0  0  0  0  0  0  0  0  0  0  0  0
  -20.4697   -5.7128   24.8285 C   0  0  0  0  0  0  0  0  0  0  0  0
  -23.8404  -10.4074   20.9268 C   0  0  0  0  0  0  0  0  0  0  0  0
  -24.1714  -12.9368   20.9140 C   0  0  0  0  0  0  0  0  0  0  0  0
  -21.1306  -28.1505   17.7239 C   0  0  0  0  0  0  0  0  0  0  0  0
  -25.0759  -25.2429   23.7950 C   0  0  0  0  0  0  0  0  0  0  0  0
  -21.7013  -27.0840   18.4446 C   0  0  0  0  0  0  0  0  0  0  0  0
  -26.2791  -25.9574   23.7058 C   0  0  0  0  0  0  0  0  0  0  0  0
  -31.5983  -19.2847   23.0147 C   0  0  0  0  0  0  0  0  0  0  0  0
  -30.9419  -17.8969   21.1492 C   0  0  0  0  0  0  0  0  0  0  0  0
  -31.2544  -18.2608   23.8974 C   0  0  0  0  0  0  0  0  0  0  0  0
  -30.7542  -17.0549   23.4059 C   0  0  0  0  0  0  0  0  0  0  0  0
  -30.5980  -16.8730   22.0318 C   0  0  0  0  0  0  0  0  0  0  0  0
  -22.3719   -8.0745   21.3555 C   0  0  0  0  0  0  0  0  0  0  0  0
  -27.5048  -23.9430   24.2973 C   0  0  0  0  0  0  0  0  0  0  0  0
  -20.9316   -6.8390   22.7416 C   0  0  0  0  0  0  0  0  0  0  0  0
  -19.4728   -6.6465   25.1118 C   0  0  0  0  0  0  0  0  0  0  0  0
  -21.1990   -5.8091   23.6434 C   0  0  0  0  0  0  0  0  0  0  0  0
  -24.5995  -11.6119   20.7059 C   0  0  0  0  0  0  0  0  0  0  0  0
  -25.2524  -13.7066   20.5601 C   0  0  0  0  0  0  0  0  0  0  0  0
  -31.6019  -22.7324   24.5673 C   0  0  0  0  0  0  0  0  0  0  0  0
  -32.4440  -22.8023   25.6051 C   0  0  0  0  0  0  0  0  0  0  0  0
  -22.9094  -13.4277   21.3852 C   0  0  0  0  0  0  0  0  0  0  0  0
  -24.1036  -26.8710   21.2440 C   0  0  0  0  0  0  0  0  0  0  0  0
  -24.8165  -29.4381   23.0944 C   0  0  0  0  0  0  0  0  0  0  0  0
  -26.5978  -30.7207   25.7076 C   0  0  0  0  0  0  0  0  0  0  0  0
  -30.7179  -14.7661   20.6559 C   0  0  0  0  0  0  0  0  0  0  0  0
  -21.9230  -29.3849   17.3732 C   0  0  0  0  0  0  0  0  0  0  0  0
  -23.7606  -25.9335   23.5590 C   0  0  0  0  0  0  0  0  0  0  0  0
  -26.3085  -27.4188   23.3427 C   0  0  0  0  0  0  0  0  0  0  0  0
  -30.9503  -23.9017   23.8974 C   0  0  0  0  0  0  0  0  0  0  0  0
  -23.1849  -29.5581   18.2146 C   0  0  0  0  0  0  0  0  0  0  0  0
  -29.5563  -12.4577   18.2066 C   0  0  0  0  0  0  0  0  0  0  0  0
  -23.9549  -28.2441   18.2987 C   0  0  0  0  0  0  0  0  0  0  0  0
  -28.1280  -12.1409   18.6556 C   0  0  0  0  0  0  0  0  0  0  0  0
  -30.4984  -12.6356   19.3960 C   0  0  0  0  0  0  0  0  0  0  0  0
  -28.6218  -13.2885   20.8525 C   0  0  0  0  0  0  0  0  0  0  0  0
  -29.9741  -21.8329   23.1439 C   0  0  0  0  0  0  0  0  0  0  0  0
  -23.1157  -27.1553   18.9781 C   0  0  1  0  0  0  0  0  0  0  0  0
  -23.8895  -27.1859   22.6975 C   0  0  1  0  0  0  0  0  0  0  0  0
  -27.6224  -13.1648   19.6907 C   0  0  2  0  0  0  0  0  0  0  0  0
  -29.6303  -23.2793   23.4701 C   0  0  1  0  0  0  0  0  0  1  0  0
  -30.7848  -17.7326   19.6720 C   0  0  0  0  0  0  0  0  0  0  0  0
  -31.4232  -18.4592   25.3705 C   0  0  0  0  0  0  0  0  0  0  0  0
  -30.3868  -15.9592   24.3575 C   0  0  0  0  0  0  0  0  0  0  0  0
  -26.9984  -32.8597   26.9573 C   0  0  0  0  0  0  0  0  0  0  0  0
  -26.5633  -30.4460   20.8046 C   0  0  0  0  0  0  0  0  0  0  0  0
  -27.6487  -32.0221   22.4189 C   0  0  0  0  0  0  0  0  0  0  0  0
  -25.2082  -32.2151   21.9398 C   0  0  0  0  0  0  0  0  0  0  0  0
  -25.5941  -29.5645   28.2403 C   0  0  0  0  0  0  0  0  0  0  0  0
  -32.1369  -20.5917   23.5171 C   0  0  0  0  0  0  0  0  0  0  0  0
  -26.0491  -30.2775   23.3292 C   0  0  1  0  0  0  0  0  0  0  0  0
  -26.1790  -31.5804   26.8866 C   0  0  2  0  0  0  0  0  0  0  0  0
  -26.3672  -31.2122   22.1281 C   0  0  0  0  0  0  0  0  0  0  0  0
  -25.8546  -11.5405   20.2546 N   0  0  0  0  0  0  0  0  0  0  0  0
  -26.2244  -12.8302   20.1761 N   0  0  0  0  0  0  0  0  0  0  0  0
  -24.9970  -28.0479   23.1153 N   0  0  0  0  0  0  0  0  0  0  0  0
  -29.9567  -13.6231   20.3320 N   0  0  0  0  0  0  0  0  0  0  0  0
  -25.4569  -15.0408   20.5429 N   0  0  0  0  0  0  0  0  0  0  0  0
  -21.9085  -12.4999   21.7040 N   0  0  0  0  0  0  0  0  0  0  0  0
  -30.0868  -15.6503   21.5303 N   0  0  0  0  0  0  0  0  0  0  0  0
  -23.1069  -27.3455   20.4128 N   0  0  0  0  0  0  0  0  0  0  0  0
  -25.8318  -30.9780   24.5903 N   0  0  0  0  0  0  0  0  0  0  0  0
  -31.0828  -21.4660   24.1270 N   0  3  1  0  0  0  0  0  0  0  0  0
  -26.3623  -30.8337   28.1632 N   0  3  0  0  0  0  0  0  0  0  0  0
  -22.6707  -14.6534   21.5039 O   0  0  0  0  0  0  0  0  0  0  0  0
  -25.1001  -26.2452   20.9018 O   0  0  0  0  0  0  0  0  0  0  0  0
  -23.7322  -29.9954   22.9067 O   0  0  0  0  0  0  0  0  0  0  0  0
  -27.5152  -29.9053   25.7704 O   0  0  0  0  0  0  0  0  0  0  0  0
  -31.8353  -14.9607   20.1705 O   0  0  0  0  0  0  0  0  0  0  0  0
  -21.6554   -6.9364   21.5650 O   0  0  0  0  0  0  0  0  0  0  0  0
  -28.6873  -23.3133   24.5362 O   0  0  0  0  0  0  0  0  0  1  0  0
  -18.7734   -6.5551   26.2504 F   0  0  0  0  0  0  0  0  0  0  0  0
  -22.1563   -4.9098   23.3773 F   0  0  0  0  0  0  0  0  0  0  0  0
  1  2  1  0  0  0  0
  1  5  2  0  0  0  0
  2  6  2  0  0  0  0
  3  8  2  0  0  0  0
  3 16  1  0  0  0  0
  4  9  1  0  0  0  0
  4 16  2  0  0  0  0
  5 18  1  0  0  0  0
  6 20  1  0  0  0  0
  7 10  2  0  0  0  0
  7 19  1  0  0  0  0
  8 27  1  0  0  0  0
  9 27  2  0  0  0  0
 10 28  1  0  0  0  0
 11 12  2  0  0  0  0
 11 29  1  0  0  0  0
 12 30  1  0  0  0  0
 13 21  1  0  0  0  0
 13 28  2  0  0  0  0
 14 22  1  0  0  0  0
 14 23  2  0  0  0  0
 15 30  2  0  0  0  0
 15 31  1  0  0  0  0
 16 32  1  0  0  0  0
 17 32  1  0  0  0  0
 17 33  2  0  0  0  0
 17 36  1  0  0  0  0
 18 20  2  0  0  0  0
 18 41  1  0  0  0  0
 19 21  2  0  0  0  0
 19 42  1  0  0  0  0
 20 52  1  0  0  0  0
 21 43  1  0  0  0  0
 22 24  2  0  0  0  0
 22 64  1  0  0  0  0
 23 26  1  0  0  0  0
 23 56  1  0  0  0  0
 24 25  1  0  0  0  0
 24 57  1  0  0  0  0
 25 26  2  0  0  0  0
 25 58  1  0  0  0  0
 26 74  1  0  0  0  0
 27 84  1  0  0  0  0
 28 85  1  0  0  0  0
 29 31  2  0  0  0  0
 29 84  1  0  0  0  0
 30 86  1  0  0  0  0
 31 87  1  0  0  0  0
 32 68  2  0  0  0  0
 33 69  1  0  0  0  0
 33 72  1  0  0  0  0
 34 35  2  0  0  0  0
 34 44  1  0  0  0  0
 34 77  1  0  0  0  0
 36 73  1  0  0  0  0
 36 79  2  0  0  0  0
 37 53  1  0  0  0  0
 37 75  1  0  0  0  0
 37 80  2  0  0  0  0
 38 65  1  0  0  0  0
 38 70  1  0  0  0  0
 38 81  2  0  0  0  0
 39 66  1  0  0  0  0
 39 76  1  0  0  0  0
 39 82  2  0  0  0  0
 40 71  1  0  0  0  0
 40 74  1  0  0  0  0
 40 83  2  0  0  0  0
 41 45  1  0  0  0  0
 42 53  1  0  0  0  0
 43 70  1  0  0  0  0
 44 55  1  0  0  0  0
 45 47  1  0  0  0  0
 46 48  1  0  0  0  0
 46 49  1  0  0  0  0
 47 52  1  0  0  0  0
 48 54  1  0  0  0  0
 49 71  1  0  0  0  0
 50 54  1  0  0  0  0
 50 71  1  0  0  0  0
 51 55  1  0  0  0  0
 51 77  1  0  0  0  0
 52 75  1  0  0  0  0
 53 70  1  0  0  0  0
 54 69  1  0  0  0  0
 55 85  1  0  0  0  0
 59 66  1  0  0  0  0
 60 67  1  0  0  0  0
 61 67  1  0  0  0  0
 62 67  1  0  0  0  0
 63 78  1  0  0  0  0
 64 77  1  0  0  0  0
 65 67  1  0  0  0  0
 65 76  1  0  0  0  0
 66 78  1  0  0  0  0
 68 69  1  0  0  0  0
M  CHG  2  77   1  78   1
M  ISO  4  40 100  55 101  74 100  85 101
M  END
> <Batch ID>
0033

> <Smiles>
C=C1C[101CH:1]([101O:1]c2ccc3c(c2)CN(C(=O)C(NC(=O)C(C)NC)C(C)(C)C)C(C(=O)NC2CCCc4ccccc42)C3)CN1Cc1cc(C)c([100NH:0][100C:0](=O)N2CCCC(n3nc(-c4ccc(Oc5ccc(F)cc5F)cc4)c(C(N)=O)c3N)C2)c(C)c1C

> <Shape>
0.268

> <Color>
0.190

> <Negative vol penalty>
0.000

$$$$

  -OEChem-04042321453D

 86 95  0     1  0  0  0  0  0999 V2000
  -29.5949  -31.2010   11.7054 C   0  0  0  0  0  0  0  0  0  0  0  0
  -30.0606  -30.2113   12.5651 C   0  0  0  0  0  0  0  0  0  0  0  0
  -23.0756   -9.8675   19.9495 C   0  0  0  0  0  0  0  0  0  0  0  0
  -23.8331   -9.8858   22.2436 C   0  0  0  0  0  0  0  0  0  0  0  0
  -28.4041  -31.8674   11.9914 C   0  0  0  0  0  0  0  0  0  0  0  0
  -29.3362  -29.8882   13.7119 C   0  0  0  0  0  0  0  0  0  0  0  0
  -28.7750  -24.3543   16.2745 C   0  0  0  0  0  0  0  0  0  0  0  0
  -32.0150  -18.8535   21.5365 C   0  0  0  0  0  0  0  0  0  0  0  0
  -31.5046  -17.6268   21.1118 C   0  0  0  0  0  0  0  0  0  0  0  0
  -22.3304   -8.7164   20.2047 C   0  0  0  0  0  0  0  0  0  0  0  0
  -23.0878   -8.7348   22.4989 C   0  0  0  0  0  0  0  0  0  0  0  0
  -29.4242  -23.7480   17.3491 C   0  0  0  0  0  0  0  0  0  0  0  0
  -19.8582   -7.9433   23.1022 C   0  0  0  0  0  0  0  0  0  0  0  0
  -19.1000   -7.9103   24.2725 C   0  0  0  0  0  0  0  0  0  0  0  0
  -27.6160  -24.4049   18.8044 C   0  0  0  0  0  0  0  0  0  0  0  0
  -20.3387   -5.9756   25.0205 C   0  0  0  0  0  0  0  0  0  0  0  0
  -23.8271  -10.4522   20.9689 C   0  0  0  0  0  0  0  0  0  0  0  0
  -24.1715  -12.9763   20.8359 C   0  0  0  0  0  0  0  0  0  0  0  0
  -27.6598  -31.5456   13.1373 C   0  0  0  0  0  0  0  0  0  0  0  0
  -27.5445  -25.0010   16.4593 C   0  0  0  0  0  0  0  0  0  0  0  0
  -28.1350  -30.5519   14.0142 C   0  0  0  0  0  0  0  0  0  0  0  0
  -26.9519  -25.0164   17.7301 C   0  0  0  0  0  0  0  0  0  0  0  0
  -31.6106  -19.3919   22.7582 C   0  0  0  0  0  0  0  0  0  0  0  0
  -30.6958  -18.7035   23.5550 C   0  0  0  0  0  0  0  0  0  0  0  0
  -30.1854  -17.4768   23.1303 C   0  0  0  0  0  0  0  0  0  0  0  0
  -30.5899  -16.9385   21.9087 C   0  0  0  0  0  0  0  0  0  0  0  0
  -22.3364   -8.1501   21.4794 C   0  0  0  0  0  0  0  0  0  0  0  0
  -28.8462  -23.7757   18.6148 C   0  0  0  0  0  0  0  0  0  0  0  0
  -20.8567   -6.9924   22.8910 C   0  0  0  0  0  0  0  0  0  0  0  0
  -19.3403   -6.9265   25.2316 C   0  0  0  0  0  0  0  0  0  0  0  0
  -21.0969   -6.0086   23.8501 C   0  0  0  0  0  0  0  0  0  0  0  0
  -24.5976  -11.6409   20.7057 C   0  0  0  0  0  0  0  0  0  0  0  0
  -25.2648  -13.7228   20.4698 C   0  0  0  0  0  0  0  0  0  0  0  0
  -30.3595  -23.5102   21.6506 C   0  0  0  0  0  0  0  0  0  0  0  0
  -22.9011  -13.4956   21.2508 C   0  0  0  0  0  0  0  0  0  0  0  0
  -26.5038  -27.9842   16.1116 C   0  0  0  0  0  0  0  0  0  0  0  0
  -23.6252  -26.6435   16.7741 C   0  0  0  0  0  0  0  0  0  0  0  0
  -21.8824  -24.0885   18.2168 C   0  0  0  0  0  0  0  0  0  0  0  0
  -30.7318  -14.7639   20.6448 C   0  0  0  0  0  0  0  0  0  0  0  0
  -26.4028  -32.3262   13.4293 C   0  0  0  0  0  0  0  0  0  0  0  0
  -26.8442  -25.6270   15.2846 C   0  0  0  0  0  0  0  0  0  0  0  0
  -25.6226  -25.6799   17.9772 C   0  0  0  0  0  0  0  0  0  0  0  0
  -30.7789  -24.1989   22.9108 C   0  0  0  0  0  0  0  0  0  0  0  0
  -30.6962  -22.0529   21.6508 C   0  0  0  0  0  0  0  0  0  0  0  0
  -25.5023  -31.6639   14.4689 C   0  0  0  0  0  0  0  0  0  0  0  0
  -29.6175  -12.3387   18.2881 C   0  0  0  0  0  0  0  0  0  0  0  0
  -26.3226  -31.2019   15.6691 C   0  0  0  0  0  0  0  0  0  0  0  0
  -28.1772  -12.0508   18.7177 C   0  0  0  0  0  0  0  0  0  0  0  0
  -30.5316  -12.5730   19.4895 C   0  0  0  0  0  0  0  0  0  0  0  0
  -28.6239  -13.3066   20.8649 C   0  0  0  0  0  0  0  0  0  0  0  0
  -31.7321  -23.1795   23.5171 C   0  0  0  0  0  0  0  0  0  0  0  0
  -27.3647  -30.1558   15.2552 C   0  0  1  0  0  0  0  0  0  0  0  0
  -25.8415  -26.7028   15.6906 C   0  0  1  0  0  0  0  0  0  0  0  0
  -27.6522  -13.1281   19.6870 C   0  0  2  0  0  0  0  0  0  0  0  0
  -30.2641  -19.2834   24.8648 C   0  0  0  0  0  0  0  0  0  0  0  0
  -29.2039  -16.7398   23.9871 C   0  0  0  0  0  0  0  0  0  0  0  0
  -19.5402  -23.2874   18.6285 C   0  0  0  0  0  0  0  0  0  0  0  0
  -23.3030  -28.7269   18.9799 C   0  0  0  0  0  0  0  0  0  0  0  0
  -21.4654  -27.3239   19.9407 C   0  0  0  0  0  0  0  0  0  0  0  0
  -21.2309  -28.2856   17.6510 C   0  0  0  0  0  0  0  0  0  0  0  0
  -22.3400  -21.5996   16.6822 C   0  0  0  0  0  0  0  0  0  0  0  0
  -32.1751  -20.7128   23.1912 C   0  0  0  0  0  0  0  0  0  0  0  0
  -22.8371  -26.3708   18.0325 C   0  0  1  0  0  0  0  0  0  0  0  0
  -20.7433  -23.2283   17.7002 C   0  0  2  0  0  0  0  0  0  0  0  0
  -22.2351  -27.6659   18.6471 C   0  0  0  0  0  0  0  0  0  0  0  0
  -25.8628  -11.5416   20.2892 N   0  0  0  0  0  0  0  0  0  0  0  0
  -29.7635  -24.1151   20.6812 N   0  0  0  0  0  0  0  0  0  1  0  0
  -26.2411  -12.8241   20.1545 N   0  0  0  0  0  0  0  0  0  0  0  0
  -24.9801  -26.2835   16.7980 N   0  0  0  0  0  0  0  0  0  0  0  0
  -29.9727  -13.6090   20.3608 N   0  0  0  0  0  0  0  0  0  0  0  0
  -25.4766  -15.0537   20.3900 N   0  0  0  0  0  0  0  0  0  0  0  0
  -21.8880  -12.5892   21.5917 N   0  0  0  0  0  0  0  0  0  0  0  0
  -30.0845  -15.6939   21.4576 N   0  0  0  0  0  0  0  0  0  0  0  0
  -26.7389  -28.8638   15.0722 N   0  0  0  0  0  0  0  0  0  0  0  0
  -21.8461  -25.3590   17.6823 N   0  0  0  0  0  0  0  0  0  0  0  0
  -31.2037  -21.8377   23.0524 N   0  3  2  0  0  0  0  0  0  0  0  0
  -21.1782  -21.8077   17.5843 N   0  3  0  0  0  0  0  0  0  0  0  0
  -22.6660  -14.7267   21.3013 O   0  0  0  0  0  0  0  0  0  0  0  0
  -26.7795  -28.1623   17.2922 O   0  0  0  0  0  0  0  0  0  0  0  0
  -23.0579  -27.1504   15.8032 O   0  0  0  0  0  0  0  0  0  0  0  0
  -22.7185  -23.6758   19.0175 O   0  0  0  0  0  0  0  0  0  0  0  0
  -31.8616  -14.9291   20.1774 O   0  0  0  0  0  0  0  0  0  0  0  0
  -21.6091   -7.0270   21.7289 O   0  0  0  0  0  0  0  0  0  0  0  0
  -29.4780  -23.1853   19.6655 O   0  0  0  0  0  0  0  0  0  1  0  0
  -18.6131   -6.8959   26.3561 F   0  0  0  0  0  0  0  0  0  0  0  0
  -22.0555   -5.0931   23.6533 F   0  0  0  0  0  0  0  0  0  0  0  0
  1  2  1  0  0  0  0
  1  5  2  0  0  0  0
  2  6  2  0  0  0  0
  3 10  2  0  0  0  0
  3 17  1  0  0  0  0
  4 11  1  0  0  0  0
  4 17  2  0  0  0  0
  5 19  1  0  0  0  0
  6 21  1  0  0  0  0
  7 12  2  0  0  0  0
  7 20  1  0  0  0  0
  8  9  2  0  0  0  0
  8 23  1  0  0  0  0
  9 26  1  0  0  0  0
 10 27  1  0  0  0  0
 11 27  2  0  0  0  0
 12 28  1  0  0  0  0
 13 14  2  0  0  0  0
 13 29  1  0  0  0  0
 14 30  1  0  0  0  0
 15 22  1  0  0  0  0
 15 28  2  0  0  0  0
 16 30  2  0  0  0  0
 16 31  1  0  0  0  0
 17 32  1  0  0  0  0
 18 32  1  0  0  0  0
 18 33  2  0  0  0  0
 18 35  1  0  0  0  0
 19 21  2  0  0  0  0
 19 40  1  0  0  0  0
 20 22  2  0  0  0  0
 20 41  1  0  0  0  0
 21 52  1  0  0  0  0
 22 42  1  0  0  0  0
 23 24  2  0  0  0  0
 23 62  1  0  0  0  0
 24 25  1  0  0  0  0
 24 55  1  0  0  0  0
 25 26  2  0  0  0  0
 25 56  1  0  0  0  0
 26 73  1  0  0  0  0
 27 83  1  0  0  0  0
 28 84  1  0  0  0  0
 29 31  2  0  0  0  0
 29 83  1  0  0  0  0
 30 85  1  0  0  0  0
 31 86  1  0  0  0  0
 32 66  2  0  0  0  0
 33 68  1  0  0  0  0
 33 71  1  0  0  0  0
 34 43  1  0  0  0  0
 34 44  1  0  0  0  0
 34 67  2  0  0  0  0
 35 72  1  0  0  0  0
 35 78  2  0  0  0  0
 36 53  1  0  0  0  0
 36 74  1  0  0  0  0
 36 79  2  0  0  0  0
 37 63  1  0  0  0  0
 37 69  1  0  0  0  0
 37 80  2  0  0  0  0
 38 64  1  0  0  0  0
 38 75  1  0  0  0  0
 38 81  2  0  0  0  0
 39 70  1  0  0  0  0
 39 73  1  0  0  0  0
 39 82  2  0  0  0  0
 40 45  1  0  0  0  0
 41 53  1  0  0  0  0
 42 69  1  0  0  0  0
 43 51  1  0  0  0  0
 44 76  1  0  0  0  0
 45 47  1  0  0  0  0
 46 48  1  0  0  0  0
 46 49  1  0  0  0  0
 47 52  1  0  0  0  0
 48 54  1  0  0  0  0
 49 70  1  0  0  0  0
 50 54  1  0  0  0  0
 50 70  1  0  0  0  0
 51 76  1  0  0  0  0
 52 74  1  0  0  0  0
 53 69  1  0  0  0  0
 54 68  1  0  0  0  0
 57 64  1  0  0  0  0
 58 65  1  0  0  0  0
 59 65  1  0  0  0  0
 60 65  1  0  0  0  0
 61 77  1  0  0  0  0
 62 76  1  0  0  0  0
 63 65  1  0  0  0  0
 63 75  1  0  0  0  0
 64 77  1  0  0  0  0
 66 68  1  0  0  0  0
 67 84  1  0  0  0  0
M  CHG  2  76   1  77   1
M  ISO  4  39 100  67 101  73 100  84 101
M  END
> <Batch ID>
0033

> <Smiles>
CNC(C)C(=O)NC(C(=O)N1Cc2cc([101O:1][101N:1]=C3CCN(Cc4ccc([100NH:0][100C:0](=O)N5CCCC(n6nc(-c7ccc(Oc8ccc(F)cc8F)cc7)c(C(N)=O)c6N)C5)c(C)c4C)C3)ccc2CC1C(=O)NC1CCCc2ccccc21)C(C)(C)C

> <Shape>
0.212

> <Color>
0.188

> <Negative vol penalty>
0.000

$$$$

  -OEChem-04042321453D

 88 97  0     1  0  0  0  0  0999 V2000
  -27.7533  -24.3868   16.9748 C   0  0  0  0  0  0  0  0  0  0  0  0
  -26.6728  -25.2113   17.2673 C   0  0  0  0  0  0  0  0  0  0  0  0
  -28.1715  -14.7524   21.1482 C   0  0  0  0  0  0  0  0  0  0  0  0
  -26.1391  -15.5980   20.1526 C   0  0  0  0  0  0  0  0  0  0  0  0
  -28.8307  -24.3173   17.8555 C   0  0  0  0  0  0  0  0  0  0  0  0
  -26.6746  -25.9756   18.4347 C   0  0  0  0  0  0  0  0  0  0  0  0
  -23.0035  -29.2016   18.9994 C   0  0  0  0  0  0  0  0  0  0  0  0
  -27.6163  -13.4737   21.1958 C   0  0  0  0  0  0  0  0  0  0  0  0
  -25.5838  -14.3193   20.2001 C   0  0  0  0  0  0  0  0  0  0  0  0
  -21.6946  -28.8124   19.2806 C   0  0  0  0  0  0  0  0  0  0  0  0
  -25.7880  -11.4493   18.4274 C   0  0  0  0  0  0  0  0  0  0  0  0
  -25.1160  -10.9937   17.2933 C   0  0  0  0  0  0  0  0  0  0  0  0
  -22.0004  -29.4680   21.5819 C   0  0  0  0  0  0  0  0  0  0  0  0
  -21.9366  -23.5150   22.1382 C   0  0  0  0  0  0  0  0  0  0  0  0
  -23.7941  -23.8362   24.1948 C   0  0  0  0  0  0  0  0  0  0  0  0
  -23.0917  -10.7520   18.5898 C   0  0  0  0  0  0  0  0  0  0  0  0
  -27.4329  -15.8145   20.6266 C   0  0  0  0  0  0  0  0  0  0  0  0
  -28.7546  -17.6993   19.5273 C   0  0  0  0  0  0  0  0  0  0  0  0
  -28.8392  -25.0720   19.0402 C   0  0  0  0  0  0  0  0  0  0  0  0
  -23.8255  -29.7177   20.0115 C   0  0  0  0  0  0  0  0  0  0  0  0
  -27.7634  -25.9375   19.3245 C   0  0  0  0  0  0  0  0  0  0  0  0
  -23.3185  -29.8655   21.3104 C   0  0  0  0  0  0  0  0  0  0  0  0
  -21.5847  -24.2139   23.2929 C   0  0  0  0  0  0  0  0  0  0  0  0
  -23.2172  -22.9766   22.0119 C   0  0  0  0  0  0  0  0  0  0  0  0
  -22.5135  -24.3746   24.3211 C   0  0  0  0  0  0  0  0  0  0  0  0
  -24.1459  -23.1372   23.0401 C   0  0  0  0  0  0  0  0  0  0  0  0
  -26.3224  -13.2571   20.7217 C   0  0  0  0  0  0  0  0  0  0  0  0
  -21.1938  -28.9428   20.5726 C   0  0  0  0  0  0  0  0  0  0  0  0
  -25.1120  -11.5562   19.6429 C   0  0  0  0  0  0  0  0  0  0  0  0
  -23.7679  -10.6451   17.3744 C   0  0  0  0  0  0  0  0  0  0  0  0
  -23.7638  -11.2076   19.7240 C   0  0  0  0  0  0  0  0  0  0  0  0
  -28.0058  -17.1357   20.5778 C   0  0  0  0  0  0  0  0  0  0  0  0
  -29.0645  -18.9633   19.9662 C   0  0  0  0  0  0  0  0  0  0  0  0
  -18.3037  -25.7382   22.2309 C   0  0  0  0  0  0  0  0  0  0  0  0
  -16.2822  -22.7674   22.9854 C   0  0  0  0  0  0  0  0  0  0  0  0
  -17.2450  -24.9625   22.4894 C   0  0  0  0  0  0  0  0  0  0  0  0
  -17.3413  -23.5426   22.7269 C   0  0  0  0  0  0  0  0  0  0  0  0
  -29.1359  -17.1310   18.2674 C   0  0  0  0  0  0  0  0  0  0  0  0
  -26.5641  -28.8204   21.3526 C   0  0  0  0  0  0  0  0  0  0  0  0
  -26.3045  -31.6745   22.8721 C   0  0  0  0  0  0  0  0  0  0  0  0
  -24.2875  -34.1972   23.9739 C   0  0  0  0  0  0  0  0  0  0  0  0
  -26.4800  -22.6775   23.8689 C   0  0  0  0  0  0  0  0  0  0  0  0
  -30.0345  -24.9646   19.9540 C   0  0  0  0  0  0  0  0  0  0  0  0
  -25.2265  -30.1580   19.6860 C   0  0  0  0  0  0  0  0  0  0  0  0
  -24.1537  -30.4328   22.4280 C   0  0  0  0  0  0  0  0  0  0  0  0
  -18.2650  -27.2120   21.9772 C   0  0  0  0  0  0  0  0  0  0  0  0
  -29.7495  -25.4638   21.3667 C   0  0  0  0  0  0  0  0  0  0  0  0
  -29.8203  -21.4505   23.9883 C   0  0  0  0  0  0  0  0  0  0  0  0
  -29.0884  -26.8329   21.3107 C   0  0  0  0  0  0  0  0  0  0  0  0
  -29.8037  -20.2598   23.0270 C   0  0  0  0  0  0  0  0  0  0  0  0
  -28.5126  -21.5671   24.7693 C   0  0  0  0  0  0  0  0  0  0  0  0
  -27.2807  -20.3989   22.9841 C   0  0  0  0  0  0  0  0  0  0  0  0
  -20.3861  -26.2453   21.3603 C   0  0  0  0  0  0  0  0  0  0  0  0
  -27.7296  -26.7547   20.6033 C   0  0  1  0  0  0  0  0  0  0  0  0
  -26.1410  -30.1914   20.9066 C   0  0  1  0  0  0  0  0  0  0  0  0
  -28.5520  -20.2787   22.1279 C   0  0  2  0  0  0  0  0  0  0  0  0
  -19.7429  -27.5464   21.8210 C   0  0  1  0  0  0  0  0  0  1  0  0
  -23.5667  -22.2327   20.7639 C   0  0  0  0  0  0  0  0  0  0  0  0
  -22.1593  -25.1188   25.5666 C   0  0  0  0  0  0  0  0  0  0  0  0
  -24.3588  -36.3768   25.2157 C   0  0  0  0  0  0  0  0  0  0  0  0
  -26.6332  -30.1626   25.5020 C   0  0  0  0  0  0  0  0  0  0  0  0
  -25.7605  -32.1845   26.6929 C   0  0  0  0  0  0  0  0  0  0  0  0
  -27.8775  -32.3286   25.3814 C   0  0  0  0  0  0  0  0  0  0  0  0
  -23.2244  -35.6894   21.6496 C   0  0  0  0  0  0  0  0  0  0  0  0
  -20.2015  -24.7838   23.4064 C   0  0  0  0  0  0  0  0  0  0  0  0
  -25.6719  -32.1470   24.1588 C   0  0  1  0  0  0  0  0  0  0  0  0
  -24.4033  -35.7059   23.8516 C   0  0  2  0  0  0  0  0  0  0  0  0
  -26.4704  -31.6932   25.4134 C   0  0  0  0  0  0  0  0  0  0  0  0
  -27.8495  -17.9731   21.6066 N   0  0  0  0  0  0  0  0  0  0  0  0
  -28.5045  -19.0756   21.2048 N   0  0  0  0  0  0  0  0  0  0  0  0
  -25.5192  -30.8430   22.0611 N   0  0  0  0  0  0  0  0  0  0  0  0
  -27.3709  -21.5834   23.8522 N   0  0  0  0  0  0  0  0  0  0  0  0
  -29.7587  -19.9786   19.4097 N   0  0  0  0  0  0  0  0  0  0  0  0
  -28.7339  -15.8202   17.9766 N   0  0  0  0  0  0  0  0  0  0  0  0
  -25.4516  -22.5979   22.9304 N   0  0  0  0  0  0  0  0  0  0  0  0
  -27.2331  -28.0955   20.3849 N   0  0  0  0  0  0  0  0  0  0  0  0
  -25.5255  -33.5932   24.0346 N   0  0  0  0  0  0  0  0  0  0  0  0
  -19.6098  -25.1617   22.0786 N   0  3  1  0  0  0  0  0  0  0  0  0
  -23.2865  -36.2459   23.0257 N   0  3  0  0  0  0  0  0  0  0  0  0
  -29.8270  -17.7609   17.4313 O   0  0  0  0  0  0  0  0  0  0  0  0
  -26.3042  -28.4483   22.4909 O   0  0  0  0  0  0  0  0  0  0  0  0
  -27.4506  -32.0358   22.5934 O   0  0  0  0  0  0  0  0  0  0  0  0
  -23.2068  -33.6133   24.0155 O   0  0  0  0  0  0  0  0  0  0  0  0
  -26.6348  -23.6287   24.6390 O   0  0  0  0  0  0  0  0  0  0  0  0
  -25.7804  -12.0095   20.7678 O   0  0  0  0  0  0  0  0  0  0  0  0
  -19.9168  -28.5630   20.8499 O   0  0  0  0  0  0  0  0  0  1  0  0
  -23.1222  -10.2090   16.2849 F   0  0  0  0  0  0  0  0  0  0  0  0
  -23.1087  -11.3093   20.8886 F   0  0  0  0  0  0  0  0  0  0  0  0
  1  2  1  0  0  0  0
  1  5  2  0  0  0  0
  2  6  2  0  0  0  0
  3  8  2  0  0  0  0
  3 17  1  0  0  0  0
  4  9  1  0  0  0  0
  4 17  2  0  0  0  0
  5 19  1  0  0  0  0
  6 21  1  0  0  0  0
  7 10  2  0  0  0  0
  7 20  1  0  0  0  0
  8 27  1  0  0  0  0
  9 27  2  0  0  0  0
 10 28  1  0  0  0  0
 11 12  2  0  0  0  0
 11 29  1  0  0  0  0
 12 30  1  0  0  0  0
 13 22  1  0  0  0  0
 13 28  2  0  0  0  0
 14 23  1  0  0  0  0
 14 24  2  0  0  0  0
 15 25  1  0  0  0  0
 15 26  2  0  0  0  0
 16 30  2  0  0  0  0
 16 31  1  0  0  0  0
 17 32  1  0  0  0  0
 18 32  1  0  0  0  0
 18 33  2  0  0  0  0
 18 38  1  0  0  0  0
 19 21  2  0  0  0  0
 19 43  1  0  0  0  0
 20 22  2  0  0  0  0
 20 44  1  0  0  0  0
 21 54  1  0  0  0  0
 22 45  1  0  0  0  0
 23 25  2  0  0  0  0
 23 65  1  0  0  0  0
 24 26  1  0  0  0  0
 24 58  1  0  0  0  0
 25 59  1  0  0  0  0
 26 75  1  0  0  0  0
 27 85  1  0  0  0  0
 28 86  1  0  0  0  0
 29 31  2  0  0  0  0
 29 85  1  0  0  0  0
 30 87  1  0  0  0  0
 31 88  1  0  0  0  0
 32 69  2  0  0  0  0
 33 70  1  0  0  0  0
 33 73  1  0  0  0  0
 34 36  2  0  0  0  0
 34 46  1  0  0  0  0
 34 78  1  0  0  0  0
 35 37  2  0  0  0  0
 36 37  1  0  0  0  0
 38 74  1  0  0  0  0
 38 80  2  0  0  0  0
 39 55  1  0  0  0  0
 39 76  1  0  0  0  0
 39 81  2  0  0  0  0
 40 66  1  0  0  0  0
 40 71  1  0  0  0  0
 40 82  2  0  0  0  0
 41 67  1  0  0  0  0
 41 77  1  0  0  0  0
 41 83  2  0  0  0  0
 42 72  1  0  0  0  0
 42 75  1  0  0  0  0
 42 84  2  0  0  0  0
 43 47  1  0  0  0  0
 44 55  1  0  0  0  0
 45 71  1  0  0  0  0
 46 57  1  0  0  0  0
 47 49  1  0  0  0  0
 48 50  1  0  0  0  0
 48 51  1  0  0  0  0
 49 54  1  0  0  0  0
 50 56  1  0  0  0  0
 51 72  1  0  0  0  0
 52 56  1  0  0  0  0
 52 72  1  0  0  0  0
 53 57  1  0  0  0  0
 53 78  1  0  0  0  0
 54 76  1  0  0  0  0
 55 71  1  0  0  0  0
 56 70  1  0  0  0  0
 57 86  1  0  0  0  0
 60 67  1  0  0  0  0
 61 68  1  0  0  0  0
 62 68  1  0  0  0  0
 63 68  1  0  0  0  0
 64 79  1  0  0  0  0
 65 78  1  0  0  0  0
 66 68  1  0  0  0  0
 66 77  1  0  0  0  0
 67 79  1  0  0  0  0
 69 70  1  0  0  0  0
M  CHG  2  78   1  79   1
M  ISO  4  42 100  57 101  75 100  86 101
M  END
> <Batch ID>
0033

> <Smiles>
C=CC=C1C[101CH:1]([101O:1]c2ccc3c(c2)CN(C(=O)C(NC(=O)C(C)NC)C(C)(C)C)C(C(=O)NC2CCCc4ccccc42)C3)CN1Cc1cc(C)c([100NH:0][100C:0](=O)N2CCCC(n3nc(-c4ccc(Oc5ccc(F)cc5F)cc4)c(C(N)=O)c3N)C2)cc1C

> <Shape>
0.299

> <Color>
0.081

> <Negative vol penalty>
0.000

$$$$

  -OEChem-04042321453D

 89 98  0     1  0  0  0  0  0999 V2000
  -22.1239  -32.4043   24.4712 C   0  0  0  0  0  0  0  0  0  0  0  0
  -23.1904  -31.5889   24.1063 C   0  0  0  0  0  0  0  0  0  0  0  0
  -23.8515   -9.8877   22.2618 C   0  0  0  0  0  0  0  0  0  0  0  0
  -23.1152  -10.1051   19.9710 C   0  0  0  0  0  0  0  0  0  0  0  0
  -20.8496  -31.8583   24.6199 C   0  0  0  0  0  0  0  0  0  0  0  0
  -22.9834  -30.2269   23.8909 C   0  0  0  0  0  0  0  0  0  0  0  0
  -25.2907  -28.5489   19.7069 C   0  0  0  0  0  0  0  0  0  0  0  0
  -23.1217   -8.7054   22.3842 C   0  0  0  0  0  0  0  0  0  0  0  0
  -22.3854   -8.9227   20.0933 C   0  0  0  0  0  0  0  0  0  0  0  0
  -26.6638  -28.3205   19.7851 C   0  0  0  0  0  0  0  0  0  0  0  0
  -23.4664   -5.4619   21.4931 C   0  0  0  0  0  0  0  0  0  0  0  0
  -24.0891   -4.3766   22.1095 C   0  0  0  0  0  0  0  0  0  0  0  0
  -26.2496  -25.9597   20.0575 C   0  0  0  0  0  0  0  0  0  0  0  0
  -29.9157  -20.5018   19.7648 C   0  0  0  0  0  0  0  0  0  0  0  0
  -28.1372  -20.4422   18.1307 C   0  0  0  0  0  0  0  0  0  0  0  0
  -22.3676   -4.3512   23.8044 C   0  0  0  0  0  0  0  0  0  0  0  0
  -23.8482  -10.5877   21.0552 C   0  0  0  0  0  0  0  0  0  0  0  0
  -25.9904  -11.9723   21.0888 C   0  0  0  0  0  0  0  0  0  0  0  0
  -20.6250  -30.4907   24.3968 C   0  0  0  0  0  0  0  0  0  0  0  0
  -24.3848  -27.4839   19.8146 C   0  0  0  0  0  0  0  0  0  0  0  0
  -21.7052  -29.6619   24.0381 C   0  0  0  0  0  0  0  0  0  0  0  0
  -24.8656  -26.1769   19.9778 C   0  0  0  0  0  0  0  0  0  0  0  0
  -28.9023  -21.1493   19.0582 C   0  0  0  0  0  0  0  0  0  0  0  0
  -30.1640  -19.1470   19.5439 C   0  0  0  0  0  0  0  0  0  0  0  0
  -28.3855  -19.0875   17.9098 C   0  0  0  0  0  0  0  0  0  0  0  0
  -29.3989  -18.4399   18.6164 C   0  0  0  0  0  0  0  0  0  0  0  0
  -22.3887   -8.2228   21.3000 C   0  0  0  0  0  0  0  0  0  0  0  0
  -27.1434  -27.0262   19.9633 C   0  0  0  0  0  0  0  0  0  0  0  0
  -22.2942   -5.9919   22.0325 C   0  0  0  0  0  0  0  0  0  0  0  0
  -23.5397   -3.8212   23.2651 C   0  0  0  0  0  0  0  0  0  0  0  0
  -21.7448   -5.4366   23.1880 C   0  0  0  0  0  0  0  0  0  0  0  0
  -24.6014  -11.8094   20.9283 C   0  0  0  0  0  0  0  0  0  0  0  0
  -26.2073  -13.3101   20.8660 C   0  0  0  0  0  0  0  0  0  0  0  0
  -29.7081  -24.7345   19.7059 C   0  0  0  0  0  0  0  0  0  0  0  0
  -30.2191  -24.7563   20.9508 C   0  0  0  0  0  0  0  0  0  0  0  0
  -26.9949  -11.0011   21.4104 C   0  0  0  0  0  0  0  0  0  0  0  0
  -22.0598  -26.7128   21.8404 C   0  0  0  0  0  0  0  0  0  0  0  0
  -21.5323  -24.3199   19.7148 C   0  0  0  0  0  0  0  0  0  0  0  0
  -22.7704  -22.3053   17.2540 C   0  0  0  0  0  0  0  0  0  0  0  0
  -25.3145  -17.9591   17.9104 C   0  0  0  0  0  0  0  0  0  0  0  0
  -19.2392  -29.9374   24.6159 C   0  0  0  0  0  0  0  0  0  0  0  0
  -22.9076  -27.7436   19.7015 C   0  0  0  0  0  0  0  0  0  0  0  0
  -23.9354  -24.9966   20.0787 C   0  0  0  0  0  0  0  0  0  0  0  0
  -19.0319  -28.5542   24.0042 C   0  0  0  0  0  0  0  0  0  0  0  0
  -30.5844  -26.0775   16.9912 C   0  0  0  0  0  0  0  0  0  0  0  0
  -22.9405  -17.1482   20.4369 C   0  0  0  0  0  0  0  0  0  0  0  0
  -31.1249  -24.6573   17.1649 C   0  0  0  0  0  0  0  0  0  0  0  0
  -20.2030  -27.6384   24.3458 C   0  0  0  0  0  0  0  0  0  0  0  0
  -30.0779  -26.7509   18.2646 C   0  0  0  0  0  0  0  0  0  0  0  0
  -23.2715  -15.6991   20.7984 C   0  0  0  0  0  0  0  0  0  0  0  0
  -23.1305  -17.4153   18.9455 C   0  0  0  0  0  0  0  0  0  0  0  0
  -24.7877  -15.5991   18.7760 C   0  0  0  0  0  0  0  0  0  0  0  0
  -30.0371  -23.6413   17.5054 C   0  0  0  0  0  0  0  0  0  0  0  0
  -21.5159  -28.1843   23.7716 C   0  0  1  0  0  0  0  0  0  0  0  0
  -29.0551  -25.9340   19.0572 C   0  0  2  0  0  0  0  0  0  1  0  0
  -22.0579  -26.6487   20.3392 C   0  0  1  0  0  0  0  0  0  0  0  0
  -24.6648  -15.2960   20.2792 C   0  0  2  0  0  0  0  0  0  0  0  0
  -31.2543  -18.4768   20.3144 C   0  0  0  0  0  0  0  0  0  0  0  0
  -29.6651  -16.9873   18.3801 C   0  0  0  0  0  0  0  0  0  0  0  0
  -22.1119  -20.4205   15.7338 C   0  0  0  0  0  0  0  0  0  0  0  0
  -21.7286  -22.3690   22.0526 C   0  0  0  0  0  0  0  0  0  0  0  0
  -22.0177  -20.5173   20.3925 C   0  0  0  0  0  0  0  0  0  0  0  0
  -19.9114  -21.8536   20.4135 C   0  0  0  0  0  0  0  0  0  0  0  0
  -23.2917  -23.9233   14.8313 C   0  0  0  0  0  0  0  0  0  0  0  0
  -27.5518  -18.3528   16.9113 C   0  0  0  0  0  0  0  0  0  0  0  0
  -28.6357  -22.6066   19.2952 C   0  0  0  0  0  0  0  0  0  0  0  0
  -22.0395  -22.9080   19.5468 C   0  0  1  0  0  0  0  0  0  0  0  0
  -22.2224  -21.9293   15.8892 C   0  0  2  0  0  0  0  0  0  0  0  0
  -21.4420  -21.9342   20.6014 C   0  0  0  0  0  0  0  0  0  0  0  0
  -23.9796  -12.9525   20.6270 N   0  0  0  0  0  0  0  0  0  0  0  0
  -24.9826  -13.8464   20.5965 N   0  0  0  0  0  0  0  0  0  0  0  0
  -22.4995  -25.3026   19.9687 N   0  0  0  0  0  0  0  0  0  0  0  0
  -24.4724  -17.0127   18.5173 N   0  0  0  0  0  0  0  0  0  0  0  0
  -27.3242  -14.0684   20.8764 N   0  0  0  0  0  0  0  0  0  0  0  0
  -26.5996   -9.6709   21.6070 N   0  0  0  0  0  0  0  0  0  0  0  0
  -21.5995  -27.9106   22.3529 N   0  0  0  0  0  0  0  0  0  0  0  0
  -21.7605  -22.5358   18.1641 N   0  0  0  0  0  0  0  0  0  0  0  0
  -26.5714  -17.4964   17.5407 N   0  0  0  0  0  0  0  0  0  0  0  0
  -29.8262  -23.4821   18.9928 N   0  3  2  0  0  0  0  0  0  0  0  0
  -23.1124  -22.4487   14.8126 N   0  3  0  0  0  0  0  0  0  0  0  0
  -28.2050  -11.3069   21.5363 O   0  0  0  0  0  0  0  0  0  0  0  0
  -22.4487  -25.7465   22.4858 O   0  0  0  0  0  0  0  0  0  0  0  0
  -20.3232  -24.5437   19.6170 O   0  0  0  0  0  0  0  0  0  0  0  0
  -23.9740  -22.3830   17.4902 O   0  0  0  0  0  0  0  0  0  0  0  0
  -24.9735  -19.1311   17.7177 O   0  0  0  0  0  0  0  0  0  0  0  0
  -21.6767   -7.0689   21.4190 O   0  0  0  0  0  0  0  0  0  0  0  0
  -28.4832  -26.8006   20.0406 O   0  0  0  0  0  0  0  0  0  1  0  0
  -24.1371   -2.7780   23.8559 F   0  0  0  0  0  0  0  0  0  0  0  0
  -20.6183   -5.9407   23.7101 F   0  0  0  0  0  0  0  0  0  0  0  0
  1  2  1  0  0  0  0
  1  5  2  0  0  0  0
  2  6  2  0  0  0  0
  3  8  2  0  0  0  0
  3 17  1  0  0  0  0
  4  9  1  0  0  0  0
  4 17  2  0  0  0  0
  5 19  1  0  0  0  0
  6 21  1  0  0  0  0
  7 10  2  0  0  0  0
  7 20  1  0  0  0  0
  8 27  1  0  0  0  0
  9 27  2  0  0  0  0
 10 28  1  0  0  0  0
 11 12  2  0  0  0  0
 11 29  1  0  0  0  0
 12 30  1  0  0  0  0
 13 22  1  0  0  0  0
 13 28  2  0  0  0  0
 14 23  1  0  0  0  0
 14 24  2  0  0  0  0
 15 23  2  0  0  0  0
 15 25  1  0  0  0  0
 16 30  2  0  0  0  0
 16 31  1  0  0  0  0
 17 32  1  0  0  0  0
 18 32  1  0  0  0  0
 18 33  2  0  0  0  0
 18 36  1  0  0  0  0
 19 21  2  0  0  0  0
 19 41  1  0  0  0  0
 20 22  2  0  0  0  0
 20 42  1  0  0  0  0
 21 54  1  0  0  0  0
 22 43  1  0  0  0  0
 23 66  1  0  0  0  0
 24 26  1  0  0  0  0
 24 58  1  0  0  0  0
 25 26  2  0  0  0  0
 25 65  1  0  0  0  0
 26 59  1  0  0  0  0
 27 86  1  0  0  0  0
 28 87  1  0  0  0  0
 29 31  2  0  0  0  0
 29 86  1  0  0  0  0
 30 88  1  0  0  0  0
 31 89  1  0  0  0  0
 32 70  2  0  0  0  0
 33 71  1  0  0  0  0
 33 74  1  0  0  0  0
 34 35  2  0  0  0  0
 34 55  1  0  0  0  0
 34 79  1  0  0  0  0
 36 75  1  0  0  0  0
 36 81  2  0  0  0  0
 37 56  1  0  0  0  0
 37 76  1  0  0  0  0
 37 82  2  0  0  0  0
 38 67  1  0  0  0  0
 38 72  1  0  0  0  0
 38 83  2  0  0  0  0
 39 68  1  0  0  0  0
 39 77  1  0  0  0  0
 39 84  2  0  0  0  0
 40 73  1  0  0  0  0
 40 78  1  0  0  0  0
 40 85  2  0  0  0  0
 41 44  1  0  0  0  0
 42 56  1  0  0  0  0
 43 72  1  0  0  0  0
 44 48  1  0  0  0  0
 45 47  1  0  0  0  0
 45 49  1  0  0  0  0
 46 50  1  0  0  0  0
 46 51  1  0  0  0  0
 47 53  1  0  0  0  0
 48 54  1  0  0  0  0
 49 55  1  0  0  0  0
 50 57  1  0  0  0  0
 51 73  1  0  0  0  0
 52 57  1  0  0  0  0
 52 73  1  0  0  0  0
 53 79  1  0  0  0  0
 54 76  1  0  0  0  0
 55 87  1  0  0  0  0
 56 72  1  0  0  0  0
 57 71  1  0  0  0  0
 60 68  1  0  0  0  0
 61 69  1  0  0  0  0
 62 69  1  0  0  0  0
 63 69  1  0  0  0  0
 64 80  1  0  0  0  0
 65 78  1  0  0  0  0
 66 79  1  0  0  0  0
 67 69  1  0  0  0  0
 67 77  1  0  0  0  0
 68 80  1  0  0  0  0
 70 71  1  0  0  0  0
M  CHG  2  79   1  80   1
M  ISO  4  40 100  55 101  78 100  87 101
M  END
> <Batch ID>
0033

> <Smiles>
C=C1N(Cc2cc(C)c(C)c(C[100NH:0][100C:0](=O)N3CCCC(n4nc(-c5ccc(Oc6ccc(F)cc6F)cc5)c(C(N)=O)c4N)C3)c2)CCCC[101CH:1]1[101O:1]c1ccc2c(c1)CN(C(=O)C(NC(=O)C(C)NC)C(C)(C)C)C(C(=O)NC1CCCc3ccccc31)C2

> <Shape>
0.265

> <Color>
0.084

> <Negative vol penalty>
0.000

$$$$

  -OEChem-04042321453D

 88 96  0     1  0  0  0  0  0999 V2000
  -17.0766  -24.9168   21.6813 C   0  0  0  0  0  0  0  0  0  0  0  0
  -18.2406  -24.5021   21.0421 C   0  0  0  0  0  0  0  0  0  0  0  0
  -23.7633  -12.2572   21.0995 C   0  0  0  0  0  0  0  0  0  0  0  0
  -23.6902  -12.8453   18.7573 C   0  0  0  0  0  0  0  0  0  0  0  0
  -17.0704  -26.1016   22.4161 C   0  0  0  0  0  0  0  0  0  0  0  0
  -19.3989  -25.2728   21.1365 C   0  0  0  0  0  0  0  0  0  0  0  0
  -25.1693  -23.2339   21.3615 C   0  0  0  0  0  0  0  0  0  0  0  0
  -22.5851  -11.5252   20.9525 C   0  0  0  0  0  0  0  0  0  0  0  0
  -22.5120  -12.1132   18.6102 C   0  0  0  0  0  0  0  0  0  0  0  0
  -26.1588  -23.1092   20.3872 C   0  0  0  0  0  0  0  0  0  0  0  0
  -19.7917   -9.2044   21.1132 C   0  0  0  0  0  0  0  0  0  0  0  0
  -19.7365   -7.9399   21.6993 C   0  0  0  0  0  0  0  0  0  0  0  0
  -32.2127  -19.1507   16.1106 C   0  0  0  0  0  0  0  0  0  0  0  0
  -27.0769  -25.2374   21.0558 C   0  0  0  0  0  0  0  0  0  0  0  0
  -30.5649  -20.8636   17.5711 C   0  0  0  0  0  0  0  0  0  0  0  0
  -21.6098   -7.2317   20.3479 C   0  0  0  0  0  0  0  0  0  0  0  0
  -24.3158  -12.9173   20.0019 C   0  0  0  0  0  0  0  0  0  0  0  0
  -32.2394  -20.5231   15.8632 C   0  0  0  0  0  0  0  0  0  0  0  0
  -26.8505  -13.2056   19.9943 C   0  0  0  0  0  0  0  0  0  0  0  0
  -18.2318  -26.8823   22.5275 C   0  0  0  0  0  0  0  0  0  0  0  0
  -25.1197  -24.3683   22.1844 C   0  0  0  0  0  0  0  0  0  0  0  0
  -19.4078  -26.4700   21.8724 C   0  0  0  0  0  0  0  0  0  0  0  0
  -26.0874  -25.3729   22.0415 C   0  0  0  0  0  0  0  0  0  0  0  0
  -31.3621  -18.6346   17.0883 C   0  0  0  0  0  0  0  0  0  0  0  0
  -31.4155  -21.3796   16.5934 C   0  0  0  0  0  0  0  0  0  0  0  0
  -30.5382  -19.4911   17.8186 C   0  0  0  0  0  0  0  0  0  0  0  0
  -21.9595  -11.4531   19.7079 C   0  0  0  0  0  0  0  0  0  0  0  0
  -27.1110  -24.1124   20.2323 C   0  0  0  0  0  0  0  0  0  0  0  0
  -20.7559   -9.4826   20.1444 C   0  0  0  0  0  0  0  0  0  0  0  0
  -20.6455   -6.9535   21.3167 C   0  0  0  0  0  0  0  0  0  0  0  0
  -21.6650   -8.4962   19.7618 C   0  0  0  0  0  0  0  0  0  0  0  0
  -25.5325  -13.6742   20.1533 C   0  0  0  0  0  0  0  0  0  0  0  0
  -27.6376  -14.3031   20.2444 C   0  0  0  0  0  0  0  0  0  0  0  0
  -34.4504  -20.8515   14.8536 C   0  0  0  0  0  0  0  0  0  0  0  0
  -33.1384  -21.0322   14.8355 C   0  0  0  0  0  0  0  0  0  0  0  0
  -27.3211  -11.8955   19.6511 C   0  0  0  0  0  0  0  0  0  0  0  0
  -23.0076  -26.6924   22.6755 C   0  0  0  0  0  0  0  0  0  0  0  0
  -25.0780  -27.5471   25.0218 C   0  0  0  0  0  0  0  0  0  0  0  0
  -30.9774  -24.5312   18.2310 C   0  0  0  0  0  0  0  0  0  0  0  0
  -28.2626  -27.4673   26.2462 C   0  0  0  0  0  0  0  0  0  0  0  0
  -28.7908  -19.7144   19.6195 C   0  0  0  0  0  0  0  0  0  0  0  0
  -18.1637  -28.1796   23.2936 C   0  0  0  0  0  0  0  0  0  0  0  0
  -24.0620  -24.4752   23.2485 C   0  0  0  0  0  0  0  0  0  0  0  0
  -26.0901  -26.6011   22.9132 C   0  0  0  0  0  0  0  0  0  0  0  0
  -19.5343  -28.7466   23.6544 C   0  0  0  0  0  0  0  0  0  0  0  0
  -26.4553  -18.8369   22.1597 C   0  0  0  0  0  0  0  0  0  0  0  0
  -20.4636  -28.7067   22.4454 C   0  0  0  0  0  0  0  0  0  0  0  0
  -26.1155  -17.3770   21.8511 C   0  0  0  0  0  0  0  0  0  0  0  0
  -26.6529  -19.6550   20.8847 C   0  0  0  0  0  0  0  0  0  0  0  0
  -27.2781  -17.6342   19.6219 C   0  0  0  0  0  0  0  0  0  0  0  0
  -20.6910  -27.2660   21.9718 C   0  0  1  0  0  0  0  0  0  0  0  0
  -23.7989  -25.9125   23.6871 C   0  0  1  0  0  0  0  0  0  0  0  0
  -27.1338  -16.7555   20.8752 C   0  0  2  0  0  0  0  0  0  0  0  0
  -31.3536  -17.1602   17.3313 C   0  0  0  0  0  0  0  0  0  0  0  0
  -29.7494  -26.0441   16.6666 C   0  0  0  0  0  0  0  0  0  0  0  0
  -29.6564  -28.2875   28.1650 C   0  0  0  0  0  0  0  0  0  0  0  0
  -25.1252  -30.3386   23.7910 C   0  0  0  0  0  0  0  0  0  0  0  0
  -27.1923  -30.8143   25.1211 C   0  0  0  0  0  0  0  0  0  0  0  0
  -25.0494  -30.3017   26.2905 C   0  0  0  0  0  0  0  0  0  0  0  0
  -33.1041  -23.2929   18.0902 C   0  0  0  0  0  0  0  0  0  0  0  0
  -28.9159  -24.7103   27.1014 C   0  0  0  0  0  0  0  0  0  0  0  0
  -31.4179  -22.8617   16.3537 C   0  0  0  0  0  0  0  0  0  0  0  0
  -28.5798  -25.2014   18.7115 C   0  0  0  0  0  0  0  0  0  1  0  0
  -26.2890  -28.4447   25.1043 C   0  0  1  0  0  0  0  0  0  0  0  0
  -29.6063  -24.8599   17.6228 C   0  0  2  0  0  0  0  0  0  0  0  0
  -28.8025  -27.1491   27.6289 C   0  0  2  0  0  0  0  0  0  0  0  0
  -25.9130  -29.9527   25.0588 C   0  0  0  0  0  0  0  0  0  0  0  0
  -25.4812  -14.9684   20.4793 N   0  0  0  0  0  0  0  0  0  0  0  0
  -26.7768  -15.3225   20.5273 N   0  0  0  0  0  0  0  0  0  0  0  0
  -25.0319  -26.6625   23.9350 N   0  0  0  0  0  0  0  0  0  0  0  0
  -27.6339  -19.0078   20.0108 N   0  0  0  0  0  0  0  0  0  0  0  0
  -28.9751  -14.4858   20.2479 N   0  0  0  0  0  0  0  0  0  0  0  0
  -26.3773  -10.8838   19.4274 N   0  0  0  0  0  0  0  0  0  0  0  0
  -29.6668  -18.9860   18.8152 N   0  0  0  0  0  0  0  0  0  0  0  0
  -21.6385  -26.5939   22.8349 N   0  0  0  0  0  0  0  0  0  0  0  0
  -27.0121  -28.0452   26.3068 N   0  0  0  0  0  0  0  0  0  0  0  0
  -31.7844  -23.6095   17.5549 N   0  0  0  0  0  0  0  0  0  0  0  0
  -29.6367  -25.9149   27.5878 N   0  3  0  0  0  0  0  0  0  0  0  0
  -28.5430  -11.6258   19.5622 O   0  0  0  0  0  0  0  0  0  0  0  0
  -23.5956  -27.3371   21.8151 O   0  0  0  0  0  0  0  0  0  0  0  0
  -24.2086  -27.6228   25.8936 O   0  0  0  0  0  0  0  0  0  0  0  0
  -31.3354  -25.0946   19.2712 O   0  0  0  0  0  0  0  0  0  0  0  0
  -28.8891  -27.2305   25.2158 O   0  0  0  0  0  0  0  0  0  0  0  0
  -29.0030  -20.8705   19.9942 O   0  0  0  0  0  0  0  0  0  0  0  0
  -20.8100  -10.7387   19.5640 O   0  0  0  0  0  0  0  0  0  0  0  0
  -28.0774  -23.9935   19.2816 O   0  0  0  0  0  0  0  0  0  1  0  0
  -20.5934   -5.7397   21.8808 F   0  0  0  0  0  0  0  0  0  0  0  0
  -22.5943   -8.7579   18.8325 F   0  0  0  0  0  0  0  0  0  0  0  0
  1  2  1  0  0  0  0
  1  5  2  0  0  0  0
  2  6  2  0  0  0  0
  3  8  2  0  0  0  0
  3 17  1  0  0  0  0
  4  9  1  0  0  0  0
  4 17  2  0  0  0  0
  5 20  1  0  0  0  0
  6 22  1  0  0  0  0
  7 10  2  0  0  0  0
  7 21  1  0  0  0  0
  8 27  1  0  0  0  0
  9 27  2  0  0  0  0
 10 28  1  0  0  0  0
 11 12  2  0  0  0  0
 11 29  1  0  0  0  0
 12 30  1  0  0  0  0
 13 18  1  0  0  0  0
 13 24  2  0  0  0  0
 14 23  1  0  0  0  0
 14 28  2  0  0  0  0
 15 25  1  0  0  0  0
 15 26  2  0  0  0  0
 16 30  2  0  0  0  0
 16 31  1  0  0  0  0
 17 32  1  0  0  0  0
 18 25  2  0  0  0  0
 18 35  1  0  0  0  0
 19 32  1  0  0  0  0
 19 33  2  0  0  0  0
 19 36  1  0  0  0  0
 20 22  2  0  0  0  0
 20 42  1  0  0  0  0
 21 23  2  0  0  0  0
 21 43  1  0  0  0  0
 22 51  1  0  0  0  0
 23 44  1  0  0  0  0
 24 26  1  0  0  0  0
 24 54  1  0  0  0  0
 25 62  1  0  0  0  0
 26 74  1  0  0  0  0
 27 85  1  0  0  0  0
 28 86  1  0  0  0  0
 29 31  2  0  0  0  0
 29 85  1  0  0  0  0
 30 87  1  0  0  0  0
 31 88  1  0  0  0  0
 32 68  2  0  0  0  0
 33 69  1  0  0  0  0
 33 72  1  0  0  0  0
 34 35  2  0  0  0  0
 36 73  1  0  0  0  0
 36 79  2  0  0  0  0
 37 52  1  0  0  0  0
 37 75  1  0  0  0  0
 37 80  2  0  0  0  0
 38 64  1  0  0  0  0
 38 70  1  0  0  0  0
 38 81  2  0  0  0  0
 39 65  1  0  0  0  0
 39 77  1  0  0  0  0
 39 82  2  0  0  0  0
 40 66  1  0  0  0  0
 40 76  1  0  0  0  0
 40 83  2  0  0  0  0
 41 71  1  0  0  0  0
 41 74  1  0  0  0  0
 41 84  2  0  0  0  0
 42 45  1  0  0  0  0
 43 52  1  0  0  0  0
 44 70  1  0  0  0  0
 45 47  1  0  0  0  0
 46 48  1  0  0  0  0
 46 49  1  0  0  0  0
 47 51  1  0  0  0  0
 48 53  1  0  0  0  0
 49 71  1  0  0  0  0
 50 53  1  0  0  0  0
 50 71  1  0  0  0  0
 51 75  1  0  0  0  0
 52 70  1  0  0  0  0
 53 69  1  0  0  0  0
 55 65  1  0  0  0  0
 56 66  1  0  0  0  0
 57 67  1  0  0  0  0
 58 67  1  0  0  0  0
 59 67  1  0  0  0  0
 60 77  1  0  0  0  0
 61 78  1  0  0  0  0
 62 77  1  0  0  0  0
 63 65  1  0  0  0  0
 63 86  1  0  0  0  0
 64 67  1  0  0  0  0
 64 76  1  0  0  0  0
 66 78  1  0  0  0  0
 68 69  1  0  0  0  0
M  CHG  1  78   1
M  ISO  4  41 100  63 101  74 100  86 101
M  END
> <Batch ID>
0033

> <Smiles>
C=Cc1cc(C)c([100NH:0][100C:0](=O)N2CCCC(n3nc(-c4ccc(Oc5ccc(F)cc5F)cc4)c(C(N)=O)c3N)C2)cc1CN(C)C(=O)C(C)[101CH2:1][101O:1]c1ccc2c(c1)CN(C(=O)C(NC(=O)C(C)NC)C(C)(C)C)C(C(=O)NC1CCCc3ccccc31)C2

> <Shape>
0.228

> <Color>
0.069

> <Negative vol penalty>
0.000

$$$$

  -OEChem-04042321453D

 88 97  0     1  0  0  0  0  0999 V2000
  -16.8626  -30.6091   24.5976 C   0  0  0  0  0  0  0  0  0  0  0  0
  -17.3713  -29.4231   24.0781 C   0  0  0  0  0  0  0  0  0  0  0  0
  -23.0372   -9.2684   19.6881 C   0  0  0  0  0  0  0  0  0  0  0  0
  -24.0415   -9.5622   21.8658 C   0  0  0  0  0  0  0  0  0  0  0  0
  -17.4278  -31.8293   24.2292 C   0  0  0  0  0  0  0  0  0  0  0  0
  -18.4449  -29.4566   23.1889 C   0  0  0  0  0  0  0  0  0  0  0  0
  -22.9605  -25.3470   22.7128 C   0  0  0  0  0  0  0  0  0  0  0  0
  -22.3330   -8.1617   20.1621 C   0  0  0  0  0  0  0  0  0  0  0  0
  -23.3372   -8.4555   22.3398 C   0  0  0  0  0  0  0  0  0  0  0  0
  -23.1666  -24.2763   21.8440 C   0  0  0  0  0  0  0  0  0  0  0  0
  -20.1992   -7.7631   23.3858 C   0  0  0  0  0  0  0  0  0  0  0  0
  -19.5741   -7.8778   24.6275 C   0  0  0  0  0  0  0  0  0  0  0  0
  -24.5440  -25.6815   20.4486 C   0  0  0  0  0  0  0  0  0  0  0  0
  -29.8782  -19.8895   22.4261 C   0  0  0  0  0  0  0  0  0  0  0  0
  -30.7067  -17.7284   21.7334 C   0  0  0  0  0  0  0  0  0  0  0  0
  -20.9017   -6.0415   25.4655 C   0  0  0  0  0  0  0  0  0  0  0  0
  -23.8915   -9.9687   20.5399 C   0  0  0  0  0  0  0  0  0  0  0  0
  -24.0812  -12.2978   19.5167 C   0  0  0  0  0  0  0  0  0  0  0  0
  -18.5151  -31.8771   23.3425 C   0  0  0  0  0  0  0  0  0  0  0  0
  -23.5367  -26.5981   22.4498 C   0  0  0  0  0  0  0  0  0  0  0  0
  -19.0243  -30.6786   22.8072 C   0  0  0  0  0  0  0  0  0  0  0  0
  -24.3458  -26.7658   21.3170 C   0  0  0  0  0  0  0  0  0  0  0  0
  -30.9218  -18.9686   22.3344 C   0  0  0  0  0  0  0  0  0  0  0  0
  -28.6194  -19.5702   21.9169 C   0  0  0  0  0  0  0  0  0  0  0  0
  -28.4043  -18.3299   21.3160 C   0  0  0  0  0  0  0  0  0  0  0  0
  -29.4479  -17.4090   21.2242 C   0  0  0  0  0  0  0  0  0  0  0  0
  -22.4830   -7.7552   21.4880 C   0  0  0  0  0  0  0  0  0  0  0  0
  -23.9561  -24.4442   20.7101 C   0  0  0  0  0  0  0  0  0  0  0  0
  -21.1755   -6.7875   23.1840 C   0  0  0  0  0  0  0  0  0  0  0  0
  -19.9254   -7.0170   25.6673 C   0  0  0  0  0  0  0  0  0  0  0  0
  -21.5268   -5.9267   24.2239 C   0  0  0  0  0  0  0  0  0  0  0  0
  -24.6197  -11.1117   20.0507 C   0  0  0  0  0  0  0  0  0  0  0  0
  -25.1784  -13.0619   19.2023 C   0  0  0  0  0  0  0  0  0  0  0  0
  -25.9638  -21.1682   20.2009 C   0  0  0  0  0  0  0  0  0  0  0  0
  -22.7117  -12.6752   19.3225 C   0  0  0  0  0  0  0  0  0  0  0  0
  -22.4055  -29.5132   21.8786 C   0  0  0  0  0  0  0  0  0  0  0  0
  -25.5415  -30.3323   22.0090 C   0  0  0  0  0  0  0  0  0  0  0  0
  -28.8019  -29.3724   21.7004 C   0  0  0  0  0  0  0  0  0  0  0  0
  -30.1945  -15.1298   20.4534 C   0  0  0  0  0  0  0  0  0  0  0  0
  -19.0623  -33.2227   22.9369 C   0  0  0  0  0  0  0  0  0  0  0  0
  -23.3266  -27.7358   23.4110 C   0  0  0  0  0  0  0  0  0  0  0  0
  -25.0036  -28.0832   21.0003 C   0  0  0  0  0  0  0  0  0  0  0  0
  -20.4385  -33.1479   22.2806 C   0  0  0  0  0  0  0  0  0  0  0  0
  -28.2836  -22.3161   18.7305 C   0  0  0  0  0  0  0  0  0  0  0  0
  -30.0932  -11.8611   19.0455 C   0  0  0  0  0  0  0  0  0  0  0  0
  -20.4686  -32.0444   21.2278 C   0  0  0  0  0  0  0  0  0  0  0  0
  -27.0437  -21.7664   18.0412 C   0  0  0  0  0  0  0  0  0  0  0  0
  -28.6159  -11.4723   19.1376 C   0  0  0  0  0  0  0  0  0  0  0  0
  -28.2820  -22.1187   20.2439 C   0  0  0  0  0  0  0  0  0  0  0  0
  -30.5415  -12.6771   20.2567 C   0  0  0  0  0  0  0  0  0  0  0  0
  -28.2403  -13.4681   20.6419 C   0  0  0  0  0  0  0  0  0  0  0  0
  -20.2039  -30.6723   21.8592 C   0  0  1  0  0  0  0  0  0  0  0  0
  -25.7881  -21.9222   18.8926 C   0  0  2  0  0  0  0  0  0  0  0  0
  -23.5418  -29.1047   22.7729 C   0  0  1  0  0  0  0  0  0  0  0  0
  -27.7261  -12.7003   19.4132 C   0  0  2  0  0  0  0  0  0  0  0  0
  -32.2673  -19.3095   22.8800 C   0  0  0  0  0  0  0  0  0  0  0  0
  -27.0516  -17.9919   20.7721 C   0  0  0  0  0  0  0  0  0  0  0  0
  -31.1409  -30.2724   21.8282 C   0  0  0  0  0  0  0  0  0  0  0  0
  -25.1841  -31.6422   19.2766 C   0  0  0  0  0  0  0  0  0  0  0  0
  -27.6765  -31.6687   19.0408 C   0  0  0  0  0  0  0  0  0  0  0  0
  -26.5861  -32.9479   20.8840 C   0  0  0  0  0  0  0  0  0  0  0  0
  -29.5040  -27.5539   23.9273 C   0  0  0  0  0  0  0  0  0  0  0  0
  -27.5131  -20.5788   22.0304 C   0  0  0  0  0  0  0  0  0  0  0  0
  -25.3950  -23.3731   19.1487 C   0  0  0  0  0  0  0  0  0  1  0  0
  -26.6652  -30.4238   21.0051 C   0  0  1  0  0  0  0  0  0  0  0  0
  -30.0087  -29.6034   22.5919 C   0  0  2  0  0  0  0  0  0  0  0  0
  -26.5141  -31.6462   20.0563 C   0  0  0  0  0  0  0  0  0  0  0  0
  -25.9551  -11.1171   20.0754 N   0  0  0  0  0  0  0  0  0  0  0  0
  -26.2650  -12.3159   19.5530 N   0  0  0  0  0  0  0  0  0  0  0  0
  -27.2403  -21.2334   20.7592 N   0  0  0  0  0  0  0  0  0  0  0  0
  -24.7629  -29.1670   21.9672 N   0  0  0  0  0  0  0  0  0  0  0  0
  -29.6550  -13.8261   20.4535 N   0  0  0  0  0  0  0  0  0  0  0  0
  -25.3100  -14.2923   18.6627 N   0  0  0  0  0  0  0  0  0  0  0  0
  -22.0506  -13.3481   20.3591 N   0  0  0  0  0  0  0  0  0  0  0  0
  -29.2515  -16.1440   20.6167 N   0  0  0  0  0  0  0  0  0  0  0  0
  -21.3908  -30.1874   22.5306 N   0  0  0  0  0  0  0  0  0  0  0  0
  -27.9035  -30.4156   21.7765 N   0  0  0  0  0  0  0  0  0  0  0  0
  -30.5081  -28.3081   23.1336 N   0  3  0  0  0  0  0  0  0  0  0  0
  -25.0085  -20.5722   20.7019 O   0  0  0  0  0  0  0  0  0  0  0  0
  -22.0877  -12.4087   18.2675 O   0  0  0  0  0  0  0  0  0  0  0  0
  -22.4471  -29.2384   20.6851 O   0  0  0  0  0  0  0  0  0  0  0  0
  -25.3656  -31.2574   22.8059 O   0  0  0  0  0  0  0  0  0  0  0  0
  -28.6712  -28.3687   21.0033 O   0  0  0  0  0  0  0  0  0  0  0  0
  -31.4005  -15.3330   20.2912 O   0  0  0  0  0  0  0  0  0  0  0  0
  -21.7958   -6.6754   21.9510 O   0  0  0  0  0  0  0  0  0  0  0  0
  -24.1583  -23.4009   19.8601 O   0  0  0  0  0  0  0  0  0  1  0  0
  -19.3261   -7.1283   26.8601 F   0  0  0  0  0  0  0  0  0  0  0  0
  -22.4649   -4.9883   24.0363 F   0  0  0  0  0  0  0  0  0  0  0  0
  1  2  1  0  0  0  0
  1  5  2  0  0  0  0
  2  6  2  0  0  0  0
  3  8  2  0  0  0  0
  3 17  1  0  0  0  0
  4  9  1  0  0  0  0
  4 17  2  0  0  0  0
  5 19  1  0  0  0  0
  6 21  1  0  0  0  0
  7 10  2  0  0  0  0
  7 20  1  0  0  0  0
  8 27  1  0  0  0  0
  9 27  2  0  0  0  0
 10 28  1  0  0  0  0
 11 12  2  0  0  0  0
 11 29  1  0  0  0  0
 12 30  1  0  0  0  0
 13 22  1  0  0  0  0
 13 28  2  0  0  0  0
 14 23  2  0  0  0  0
 14 24  1  0  0  0  0
 15 23  1  0  0  0  0
 15 26  2  0  0  0  0
 16 30  2  0  0  0  0
 16 31  1  0  0  0  0
 17 32  1  0  0  0  0
 18 32  1  0  0  0  0
 18 33  2  0  0  0  0
 18 35  1  0  0  0  0
 19 21  2  0  0  0  0
 19 40  1  0  0  0  0
 20 22  2  0  0  0  0
 20 41  1  0  0  0  0
 21 52  1  0  0  0  0
 22 42  1  0  0  0  0
 23 56  1  0  0  0  0
 24 25  2  0  0  0  0
 24 63  1  0  0  0  0
 25 26  1  0  0  0  0
 25 57  1  0  0  0  0
 26 75  1  0  0  0  0
 27 85  1  0  0  0  0
 28 86  1  0  0  0  0
 29 31  2  0  0  0  0
 29 85  1  0  0  0  0
 30 87  1  0  0  0  0
 31 88  1  0  0  0  0
 32 68  2  0  0  0  0
 33 69  1  0  0  0  0
 33 73  1  0  0  0  0
 34 53  1  0  0  0  0
 34 70  1  0  0  0  0
 34 79  2  0  0  0  0
 35 74  1  0  0  0  0
 35 80  2  0  0  0  0
 36 54  1  0  0  0  0
 36 76  1  0  0  0  0
 36 81  2  0  0  0  0
 37 65  1  0  0  0  0
 37 71  1  0  0  0  0
 37 82  2  0  0  0  0
 38 66  1  0  0  0  0
 38 77  1  0  0  0  0
 38 83  2  0  0  0  0
 39 72  1  0  0  0  0
 39 75  1  0  0  0  0
 39 84  2  0  0  0  0
 40 43  1  0  0  0  0
 41 54  1  0  0  0  0
 42 71  1  0  0  0  0
 43 46  1  0  0  0  0
 44 47  1  0  0  0  0
 44 49  1  0  0  0  0
 45 48  1  0  0  0  0
 45 50  1  0  0  0  0
 46 52  1  0  0  0  0
 47 53  1  0  0  0  0
 48 55  1  0  0  0  0
 49 70  1  0  0  0  0
 50 72  1  0  0  0  0
 51 55  1  0  0  0  0
 51 72  1  0  0  0  0
 52 76  1  0  0  0  0
 53 64  1  0  0  0  0
 54 71  1  0  0  0  0
 55 69  1  0  0  0  0
 58 66  1  0  0  0  0
 59 67  1  0  0  0  0
 60 67  1  0  0  0  0
 61 67  1  0  0  0  0
 62 78  1  0  0  0  0
 63 70  1  0  0  0  0
 64 86  1  0  0  0  0
 65 67  1  0  0  0  0
 65 77  1  0  0  0  0
 66 78  1  0  0  0  0
 68 69  1  0  0  0  0
M  CHG  1  78   1
M  ISO  4  39 100  64 101  75 100  86 101
M  END
> <Batch ID>
0033

> <Smiles>
CNC(C)C(=O)NC(C(=O)N1Cc2cc([101O:1][101CH2:1]C3CCCN(Cc4cc(C)cc([100NH:0][100C:0](=O)N5CCCC(n6nc(-c7ccc(Oc8ccc(F)cc8F)cc7)c(C(N)=O)c6N)C5)c4C)C3=O)ccc2CC1C(=O)NC1CCCc2ccccc21)C(C)(C)C

> <Shape>
0.284

> <Color>
0.090

> <Negative vol penalty>
0.000

$$$$

  -OEChem-04042321453D

 83 91  0     1  0  0  0  0  0999 V2000
  -23.3589  -23.9056   21.0200 C   0  0  0  0  0  0  0  0  0  0  0  0
  -24.4947  -23.1069   21.1056 C   0  0  0  0  0  0  0  0  0  0  0  0
  -22.4010  -28.2938   20.9987 C   0  0  0  0  0  0  0  0  0  0  0  0
  -23.6680  -28.0322   23.0391 C   0  0  0  0  0  0  0  0  0  0  0  0
  -22.1304  -23.4185   21.4645 C   0  0  0  0  0  0  0  0  0  0  0  0
  -24.4029  -21.8209   21.6370 C   0  0  0  0  0  0  0  0  0  0  0  0
  -26.9177  -18.3962   18.8815 C   0  0  0  0  0  0  0  0  0  0  0  0
  -30.0328  -22.6212   23.0378 C   0  0  0  0  0  0  0  0  0  0  0  0
  -29.8060  -21.3565   23.5805 C   0  0  0  0  0  0  0  0  0  0  0  0
  -21.2189  -28.0675   21.7037 C   0  0  0  0  0  0  0  0  0  0  0  0
  -22.4859  -27.8060   23.7442 C   0  0  0  0  0  0  0  0  0  0  0  0
  -28.3030  -18.3515   19.0313 C   0  0  0  0  0  0  0  0  0  0  0  0
  -19.1583  -29.8140   23.7376 C   0  0  0  0  0  0  0  0  0  0  0  0
  -18.0798  -30.6612   23.4836 C   0  0  0  0  0  0  0  0  0  0  0  0
  -31.8222  -21.7209   21.6871 C   0  0  0  0  0  0  0  0  0  0  0  0
  -28.0764  -16.4548   20.5046 C   0  0  0  0  0  0  0  0  0  0  0  0
  -16.7576  -28.7664   22.7773 C   0  0  0  0  0  0  0  0  0  0  0  0
  -23.6256  -28.2761   21.6664 C   0  0  0  0  0  0  0  0  0  0  0  0
  -31.5955  -20.4561   22.2298 C   0  0  0  0  0  0  0  0  0  0  0  0
  -25.4757  -29.7474   20.7072 C   0  0  0  0  0  0  0  0  0  0  0  0
  -22.0217  -22.1224   21.9927 C   0  0  0  0  0  0  0  0  0  0  0  0
  -26.0991  -17.4759   19.5519 C   0  0  0  0  0  0  0  0  0  0  0  0
  -23.1721  -21.3165   22.0903 C   0  0  0  0  0  0  0  0  0  0  0  0
  -26.6811  -16.4884   20.3596 C   0  0  0  0  0  0  0  0  0  0  0  0
  -31.0409  -22.8035   22.0910 C   0  0  0  0  0  0  0  0  0  0  0  0
  -30.5874  -20.2739   23.1765 C   0  0  0  0  0  0  0  0  0  0  0  0
  -21.2613  -27.8236   23.0764 C   0  0  0  0  0  0  0  0  0  0  0  0
  -28.8825  -17.3825   19.8452 C   0  0  0  0  0  0  0  0  0  0  0  0
  -19.0366  -28.4429   23.5113 C   0  0  0  0  0  0  0  0  0  0  0  0
  -16.8794  -30.1375   23.0035 C   0  0  0  0  0  0  0  0  0  0  0  0
  -17.8362  -27.9192   23.0313 C   0  0  0  0  0  0  0  0  0  0  0  0
  -24.8471  -28.5092   20.9386 C   0  0  0  0  0  0  0  0  0  0  0  0
  -26.5936  -29.4332   19.9738 C   0  0  0  0  0  0  0  0  0  0  0  0
  -32.4340  -19.3380   21.7852 C   0  0  0  0  0  0  0  0  0  0  0  0
  -25.0841  -31.0639   21.1186 C   0  0  0  0  0  0  0  0  0  0  0  0
  -32.1758  -18.5156   20.7498 C   0  0  0  0  0  0  0  0  0  0  0  0
  -23.8063  -17.6930   21.7426 C   0  0  0  0  0  0  0  0  0  0  0  0
  -23.5149  -14.5100   21.1898 C   0  0  0  0  0  0  0  0  0  0  0  0
  -24.9587  -11.6132   20.1077 C   0  0  0  0  0  0  0  0  0  0  0  0
  -29.8822  -24.4536   19.4841 C   0  0  0  0  0  0  0  0  0  0  0  0
  -20.6814  -21.6570   22.5041 C   0  0  0  0  0  0  0  0  0  0  0  0
  -24.6081  -17.5208   19.3586 C   0  0  0  0  0  0  0  0  0  0  0  0
  -25.8479  -15.4646   21.0849 C   0  0  0  0  0  0  0  0  0  0  0  0
  -20.5985  -20.1464   22.7083 C   0  0  0  0  0  0  0  0  0  0  0  0
  -28.2381  -26.2007   16.8533 C   0  0  0  0  0  0  0  0  0  0  0  0
  -21.8332  -19.6390   23.4463 C   0  0  0  0  0  0  0  0  0  0  0  0
  -27.2393  -27.1022   17.5811 C   0  0  0  0  0  0  0  0  0  0  0  0
  -28.3886  -24.8490   17.5478 C   0  0  0  0  0  0  0  0  0  0  0  0
  -27.7226  -25.8252   19.7105 C   0  0  0  0  0  0  0  0  0  0  0  0
  -23.1083  -19.9072   22.6377 C   0  0  1  0  0  0  0  0  0  0  0  0
  -23.8380  -16.8558   20.4953 C   0  0  1  0  0  0  0  0  0  0  0  0
  -27.5789  -27.2205   19.0791 C   0  0  2  0  0  0  0  0  0  0  0  0
  -30.3177  -18.9333   23.7807 C   0  0  0  0  0  0  0  0  0  0  0  0
  -33.1434  -17.4132   20.4044 C   0  0  0  0  0  0  0  0  0  0  0  0
  -24.4841   -9.1671   19.8100 C   0  0  0  0  0  0  0  0  0  0  0  0
  -23.8242  -14.0866   24.1956 C   0  0  0  0  0  0  0  0  0  0  0  0
  -24.2939  -11.6707   23.7365 C   0  0  0  0  0  0  0  0  0  0  0  0
  -22.0862  -12.6506   23.1132 C   0  0  0  0  0  0  0  0  0  0  0  0
  -25.3931  -11.7661   17.1842 C   0  0  0  0  0  0  0  0  0  0  0  0
  -31.2823  -24.1563   21.5115 C   0  0  0  0  0  0  0  0  0  0  0  0
  -30.9413  -18.5721   19.8881 C   0  0  0  0  0  0  0  0  0  1  0  0
  -24.1380  -13.2629   21.7689 C   0  0  1  0  0  0  0  0  0  0  0  0
  -24.4690  -10.5388   19.1536 C   0  0  2  0  0  0  0  0  0  0  0  0
  -23.6014  -12.9380   23.1916 C   0  0  0  0  0  0  0  0  0  0  0  0
  -25.5105  -27.4848   20.3959 N   0  0  0  0  0  0  0  0  0  0  0  0
  -26.5675  -28.0787   19.8162 N   0  0  0  0  0  0  0  0  0  0  0  0
  -24.3943  -15.5538   20.8691 N   0  0  0  0  0  0  0  0  0  0  0  0
  -28.7120  -25.0316   18.9649 N   0  0  0  0  0  0  0  0  0  0  0  0
  -27.5865  -30.1862   19.4546 N   0  0  0  0  0  0  0  0  0  0  0  0
  -23.9077  -31.2079   21.8666 N   0  0  0  0  0  0  0  0  0  0  0  0
  -23.2407  -18.9417   21.5678 N   0  0  0  0  0  0  0  0  0  0  0  0
  -23.9163  -12.2037   20.7904 N   0  0  0  0  0  0  0  0  0  0  0  0
  -30.1170  -24.6804   20.8347 N   0  0  0  0  0  0  0  0  0  0  0  0
  -25.3342  -10.4892   17.9412 N   0  3  0  0  0  0  0  0  0  0  0  0
  -25.7488  -32.0842   20.8173 O   0  0  0  0  0  0  0  0  0  0  0  0
  -24.2599  -17.2392   22.7866 O   0  0  0  0  0  0  0  0  0  0  0  0
  -22.2936  -14.5536   21.0213 O   0  0  0  0  0  0  0  0  0  0  0  0
  -26.1473  -11.8975   20.2373 O   0  0  0  0  0  0  0  0  0  0  0  0
  -30.6629  -23.7894   18.7939 O   0  0  0  0  0  0  0  0  0  0  0  0
  -20.1080  -27.6030   23.7647 O   0  0  0  0  0  0  0  0  0  0  0  0
  -30.2344  -17.3370   19.9937 O   0  0  0  0  0  0  0  0  0  1  0  0
  -15.8433  -30.9510   22.7612 F   0  0  0  0  0  0  0  0  0  0  0  0
  -17.7129  -26.6027   22.8132 F   0  0  0  0  0  0  0  0  0  0  0  0
  1  2  1  0  0  0  0
  1  5  2  0  0  0  0
  2  6  2  0  0  0  0
  3 10  2  0  0  0  0
  3 18  1  0  0  0  0
  4 11  1  0  0  0  0
  4 18  2  0  0  0  0
  5 21  1  0  0  0  0
  6 23  1  0  0  0  0
  7 12  2  0  0  0  0
  7 22  1  0  0  0  0
  8  9  2  0  0  0  0
  8 25  1  0  0  0  0
  9 26  1  0  0  0  0
 10 27  1  0  0  0  0
 11 27  2  0  0  0  0
 12 28  1  0  0  0  0
 13 14  2  0  0  0  0
 13 29  1  0  0  0  0
 14 30  1  0  0  0  0
 15 19  1  0  0  0  0
 15 25  2  0  0  0  0
 16 24  1  0  0  0  0
 16 28  2  0  0  0  0
 17 30  2  0  0  0  0
 17 31  1  0  0  0  0
 18 32  1  0  0  0  0
 19 26  2  0  0  0  0
 19 34  1  0  0  0  0
 20 32  1  0  0  0  0
 20 33  2  0  0  0  0
 20 35  1  0  0  0  0
 21 23  2  0  0  0  0
 21 41  1  0  0  0  0
 22 24  2  0  0  0  0
 22 42  1  0  0  0  0
 23 50  1  0  0  0  0
 24 43  1  0  0  0  0
 25 60  1  0  0  0  0
 26 53  1  0  0  0  0
 27 80  1  0  0  0  0
 28 81  1  0  0  0  0
 29 31  2  0  0  0  0
 29 80  1  0  0  0  0
 30 82  1  0  0  0  0
 31 83  1  0  0  0  0
 32 65  2  0  0  0  0
 33 66  1  0  0  0  0
 33 69  1  0  0  0  0
 34 36  2  0  0  0  0
 35 70  1  0  0  0  0
 35 75  2  0  0  0  0
 36 54  1  0  0  0  0
 36 61  1  0  0  0  0
 37 51  1  0  0  0  0
 37 71  1  0  0  0  0
 37 76  2  0  0  0  0
 38 62  1  0  0  0  0
 38 67  1  0  0  0  0
 38 77  2  0  0  0  0
 39 63  1  0  0  0  0
 39 72  1  0  0  0  0
 39 78  2  0  0  0  0
 40 68  1  0  0  0  0
 40 73  1  0  0  0  0
 40 79  2  0  0  0  0
 41 44  1  0  0  0  0
 42 51  1  0  0  0  0
 43 67  1  0  0  0  0
 44 46  1  0  0  0  0
 45 47  1  0  0  0  0
 45 48  1  0  0  0  0
 46 50  1  0  0  0  0
 47 52  1  0  0  0  0
 48 68  1  0  0  0  0
 49 52  1  0  0  0  0
 49 68  1  0  0  0  0
 50 71  1  0  0  0  0
 51 67  1  0  0  0  0
 52 66  1  0  0  0  0
 55 63  1  0  0  0  0
 56 64  1  0  0  0  0
 57 64  1  0  0  0  0
 58 64  1  0  0  0  0
 59 74  1  0  0  0  0
 60 73  1  0  0  0  0
 61 81  1  0  0  0  0
 62 64  1  0  0  0  0
 62 72  1  0  0  0  0
 63 74  1  0  0  0  0
 65 66  1  0  0  0  0
M  CHG  1  74   1
M  ISO  4  40 100  61 101  73 100  81 101
M  END
> <Batch ID>
0033

> <Smiles>
CNC(C)C(=O)NC(C(=O)N1Cc2cc([101O:1][101CH2:1]C(C)=Cc3cc(C[100NH:0][100C:0](=O)N4CCCC(n5nc(-c6ccc(Oc7ccc(F)cc7F)cc6)c(C(N)=O)c5N)C4)ccc3C)ccc2CC1C(=O)NC1CCCc2ccccc21)C(C)(C)C

> <Shape>
0.224

> <Color>
0.086

> <Negative vol penalty>
0.000

$$$$

  -OEChem-04042321453D

 80 88  0     1  0  0  0  0  0999 V2000
  -29.3841  -36.8538   21.2681 C   0  0  0  0  0  0  0  0  0  0  0  0
  -29.5924  -35.5300   20.8943 C   0  0  0  0  0  0  0  0  0  0  0  0
  -24.3801  -12.5839   21.0219 C   0  0  0  0  0  0  0  0  0  0  0  0
  -26.7317  -12.9195   20.5808 C   0  0  0  0  0  0  0  0  0  0  0  0
  -28.4828  -37.1553   22.2883 C   0  0  0  0  0  0  0  0  0  0  0  0
  -28.9002  -34.5069   21.5413 C   0  0  0  0  0  0  0  0  0  0  0  0
  -26.8798  -29.2860   19.0581 C   0  0  0  0  0  0  0  0  0  0  0  0
  -29.5619  -21.3650   19.2948 C   0  0  0  0  0  0  0  0  0  0  0  0
  -24.5032  -11.2429   20.6582 C   0  0  0  0  0  0  0  0  0  0  0  0
  -26.8548  -11.5785   20.2172 C   0  0  0  0  0  0  0  0  0  0  0  0
  -27.3974  -27.9915   19.0454 C   0  0  0  0  0  0  0  0  0  0  0  0
  -24.2755   -7.6450   20.1915 C   0  0  0  0  0  0  0  0  0  0  0  0
  -23.6664   -6.6928   21.0087 C   0  0  0  0  0  0  0  0  0  0  0  0
  -30.0500  -22.2823   20.2252 C   0  0  0  0  0  0  0  0  0  0  0  0
  -26.0034  -27.4221   20.9300 C   0  0  0  0  0  0  0  0  0  0  0  0
  -28.3579  -23.1375   18.1788 C   0  0  0  0  0  0  0  0  0  0  0  0
  -25.0219   -7.4235   22.8704 C   0  0  0  0  0  0  0  0  0  0  0  0
  -25.4943  -13.4222   20.9832 C   0  0  0  0  0  0  0  0  0  0  0  0
  -25.5302  -15.3587   22.6434 C   0  0  0  0  0  0  0  0  0  0  0  0
  -27.7721  -36.1361   22.9415 C   0  0  0  0  0  0  0  0  0  0  0  0
  -25.9266  -29.6620   20.0154 C   0  0  0  0  0  0  0  0  0  0  0  0
  -27.9896  -34.7950   22.5721 C   0  0  0  0  0  0  0  0  0  0  0  0
  -25.4735  -28.7212   20.9512 C   0  0  0  0  0  0  0  0  0  0  0  0
  -28.7158  -21.7926   18.2715 C   0  0  0  0  0  0  0  0  0  0  0  0
  -28.8460  -24.0549   19.1093 C   0  0  0  0  0  0  0  0  0  0  0  0
  -25.7406  -10.7402   20.2559 C   0  0  0  0  0  0  0  0  0  0  0  0
  -26.9614  -27.0602   19.9832 C   0  0  0  0  0  0  0  0  0  0  0  0
  -25.2579   -8.4864   20.7136 C   0  0  0  0  0  0  0  0  0  0  0  0
  -24.0395   -6.5821   22.3482 C   0  0  0  0  0  0  0  0  0  0  0  0
  -25.6311   -8.3757   22.0531 C   0  0  0  0  0  0  0  0  0  0  0  0
  -29.6920  -23.6273   20.1325 C   0  0  0  0  0  0  0  0  0  0  0  0
  -25.3676  -14.8076   21.3582 C   0  0  0  0  0  0  0  0  0  0  0  0
  -25.3070  -16.7030   22.4713 C   0  0  0  0  0  0  0  0  0  0  0  0
  -25.8542  -14.7132   23.8819 C   0  0  0  0  0  0  0  0  0  0  0  0
  -25.8266  -31.8068   22.3593 C   0  0  0  0  0  0  0  0  0  0  0  0
  -22.7400  -30.8362   22.5892 C   0  0  0  0  0  0  0  0  0  0  0  0
  -20.4215  -28.3946   22.0324 C   0  0  0  0  0  0  0  0  0  0  0  0
  -25.8015  -20.3462   17.7455 C   0  0  0  0  0  0  0  0  0  0  0  0
  -26.8436  -36.5073   24.0705 C   0  0  0  0  0  0  0  0  0  0  0  0
  -25.3584  -31.0546   19.9990 C   0  0  0  0  0  0  0  0  0  0  0  0
  -24.4368  -29.0689   21.9870 C   0  0  0  0  0  0  0  0  0  0  0  0
  -25.8716  -35.3935   24.4510 C   0  0  0  0  0  0  0  0  0  0  0  0
  -22.8892  -19.7741   19.7120 C   0  0  0  0  0  0  0  0  0  0  0  0
  -26.6060  -34.0618   24.5705 C   0  0  0  0  0  0  0  0  0  0  0  0
  -23.2088  -18.4861   20.4729 C   0  0  0  0  0  0  0  0  0  0  0  0
  -23.4611  -19.7500   18.2963 C   0  0  0  0  0  0  0  0  0  0  0  0
  -25.2238  -18.1678   18.9771 C   0  0  0  0  0  0  0  0  0  0  0  0
  -27.2393  -33.6592   23.2332 C   0  0  1  0  0  0  0  0  0  0  0  0
  -24.7710  -31.4762   21.3424 C   0  0  1  0  0  0  0  0  0  0  0  0
  -24.7155  -18.1681   20.4290 C   0  0  2  0  0  0  0  0  0  0  0  0
  -17.9884  -27.8764   22.3623 C   0  0  0  0  0  0  0  0  0  0  0  0
  -23.2543  -30.3191   25.5520 C   0  0  0  0  0  0  0  0  0  0  0  0
  -21.1601  -28.9482   25.6048 C   0  0  0  0  0  0  0  0  0  0  0  0
  -21.0453  -31.3765   25.0457 C   0  0  0  0  0  0  0  0  0  0  0  0
  -19.9661  -28.1199   19.1211 C   0  0  0  0  0  0  0  0  0  0  0  0
  -28.1939  -20.8112   17.2768 C   0  0  0  0  0  0  0  0  0  0  0  0
  -28.4380  -25.4925   18.9743 C   0  0  0  0  0  0  0  0  0  1  0  0
  -22.0120  -29.7606   23.3587 C   0  0  1  0  0  0  0  0  0  0  0  0
  -19.0351  -28.4437   21.4161 C   0  0  2  0  0  0  0  0  0  0  0  0
  -21.8889  -30.0948   24.8721 C   0  0  0  0  0  0  0  0  0  0  0  0
  -25.0643  -15.7267   20.4376 N   0  0  0  0  0  0  0  0  0  0  0  0
  -25.0345  -16.8688   21.1452 N   0  0  0  0  0  0  0  0  0  0  0  0
  -23.9162  -30.4450   21.9341 N   0  0  0  0  0  0  0  0  0  0  0  0
  -24.8936  -19.4446   18.3249 N   0  0  0  0  0  0  0  0  0  0  0  0
  -25.3190  -17.7475   23.3264 N   0  0  0  0  0  0  0  0  0  0  0  0
  -26.0512  -13.3256   23.8807 N   0  0  0  0  0  0  0  0  0  0  0  0
  -26.2345  -33.1269   22.3380 N   0  0  0  0  0  0  0  0  0  0  0  0
  -20.7332  -29.5698   22.6829 N   0  0  0  0  0  0  0  0  0  0  0  0
  -27.1407  -19.9837   17.8217 N   0  0  0  0  0  0  0  0  0  0  0  0
  -19.0021  -27.6556   20.1517 N   0  3  0  0  0  0  0  0  0  0  0  0
  -25.9495  -15.3459   24.9609 O   0  0  0  0  0  0  0  0  0  0  0  0
  -26.2394  -30.9295   23.1087 O   0  0  0  0  0  0  0  0  0  0  0  0
  -22.2781  -31.9798   22.5643 O   0  0  0  0  0  0  0  0  0  0  0  0
  -21.1533  -27.4107   21.9487 O   0  0  0  0  0  0  0  0  0  0  0  0
  -25.4455  -21.3990   17.2052 O   0  0  0  0  0  0  0  0  0  0  0  0
  -25.8611   -9.4317   19.9011 O   0  0  0  0  0  0  0  0  0  0  0  0
  -27.4654  -25.7961   19.9734 O   0  0  0  0  0  0  0  0  0  1  0  0
  -23.4534   -5.6687   23.1333 F   0  0  0  0  0  0  0  0  0  0  0  0
  -26.5734   -9.1820   22.5606 F   0  0  0  0  0  0  0  0  0  0  0  0
  -30.3153  -24.7338   21.3013 Cl  0  0  0  0  0  0  0  0  0  0  0  0
  1  2  1  0  0  0  0
  1  5  2  0  0  0  0
  2  6  2  0  0  0  0
  3  9  2  0  0  0  0
  3 18  1  0  0  0  0
  4 10  1  0  0  0  0
  4 18  2  0  0  0  0
  5 20  1  0  0  0  0
  6 22  1  0  0  0  0
  7 11  2  0  0  0  0
  7 21  1  0  0  0  0
  8 14  2  0  0  0  0
  8 24  1  0  0  0  0
  9 26  1  0  0  0  0
 10 26  2  0  0  0  0
 11 27  1  0  0  0  0
 12 13  2  0  0  0  0
 12 28  1  0  0  0  0
 13 29  1  0  0  0  0
 14 31  1  0  0  0  0
 15 23  1  0  0  0  0
 15 27  2  0  0  0  0
 16 24  2  0  0  0  0
 16 25  1  0  0  0  0
 17 29  2  0  0  0  0
 17 30  1  0  0  0  0
 18 32  1  0  0  0  0
 19 32  1  0  0  0  0
 19 33  2  0  0  0  0
 19 34  1  0  0  0  0
 20 22  2  0  0  0  0
 20 39  1  0  0  0  0
 21 23  2  0  0  0  0
 21 40  1  0  0  0  0
 22 48  1  0  0  0  0
 23 41  1  0  0  0  0
 24 56  1  0  0  0  0
 25 31  2  0  0  0  0
 25 57  1  0  0  0  0
 26 76  1  0  0  0  0
 27 77  1  0  0  0  0
 28 30  2  0  0  0  0
 28 76  1  0  0  0  0
 29 78  1  0  0  0  0
 30 79  1  0  0  0  0
 31 80  1  0  0  0  0
 32 61  2  0  0  0  0
 33 62  1  0  0  0  0
 33 65  1  0  0  0  0
 34 66  1  0  0  0  0
 34 71  2  0  0  0  0
 35 49  1  0  0  0  0
 35 67  1  0  0  0  0
 35 72  2  0  0  0  0
 36 58  1  0  0  0  0
 36 63  1  0  0  0  0
 36 73  2  0  0  0  0
 37 59  1  0  0  0  0
 37 68  1  0  0  0  0
 37 74  2  0  0  0  0
 38 64  1  0  0  0  0
 38 69  1  0  0  0  0
 38 75  2  0  0  0  0
 39 42  1  0  0  0  0
 40 49  1  0  0  0  0
 41 63  1  0  0  0  0
 42 44  1  0  0  0  0
 43 45  1  0  0  0  0
 43 46  1  0  0  0  0
 44 48  1  0  0  0  0
 45 50  1  0  0  0  0
 46 64  1  0  0  0  0
 47 50  1  0  0  0  0
 47 64  1  0  0  0  0
 48 67  1  0  0  0  0
 49 63  1  0  0  0  0
 50 62  1  0  0  0  0
 51 59  1  0  0  0  0
 52 60  1  0  0  0  0
 53 60  1  0  0  0  0
 54 60  1  0  0  0  0
 55 70  1  0  0  0  0
 56 69  1  0  0  0  0
 57 77  1  0  0  0  0
 58 60  1  0  0  0  0
 58 68  1  0  0  0  0
 59 70  1  0  0  0  0
 61 62  1  0  0  0  0
M  CHG  1  70   1
M  ISO  4  38 100  57 101  69 100  77 101
M  END
> <Batch ID>
0033

> <Smiles>
CNC(C)C(=O)NC(C(=O)N1Cc2cc([101O:1][101CH2:1]c3cc(C[100NH:0][100C:0](=O)N4CCCC(n5nc(-c6ccc(Oc7ccc(F)cc7F)cc6)c(C(N)=O)c5N)C4)ccc3Cl)ccc2CC1C(=O)NC1CCCc2ccccc21)C(C)(C)C

> <Shape>
0.235

> <Color>
0.077

> <Negative vol penalty>
0.000

$$$$

  -OEChem-04042321453D

 85 94  0     1  0  0  0  0  0999 V2000
  -27.1501  -29.2939   27.9822 C   0  0  0  0  0  0  0  0  0  0  0  0
  -27.6342  -28.3784   27.0533 C   0  0  0  0  0  0  0  0  0  0  0  0
  -23.0582   -9.9283   19.8850 C   0  0  0  0  0  0  0  0  0  0  0  0
  -23.8771   -9.7922   22.1539 C   0  0  0  0  0  0  0  0  0  0  0  0
  -25.8823  -29.8497   27.8160 C   0  0  0  0  0  0  0  0  0  0  0  0
  -26.8503  -28.0174   25.9581 C   0  0  0  0  0  0  0  0  0  0  0  0
  -28.8070  -26.6783   20.3115 C   0  0  0  0  0  0  0  0  0  0  0  0
  -22.3205   -8.7609   20.0813 C   0  0  0  0  0  0  0  0  0  0  0  0
  -23.1393   -8.6249   22.3502 C   0  0  0  0  0  0  0  0  0  0  0  0
  -29.0468  -25.4668   19.6646 C   0  0  0  0  0  0  0  0  0  0  0  0
  -19.9274   -7.7873   22.9847 C   0  0  0  0  0  0  0  0  0  0  0  0
  -19.2009   -7.6732   24.1699 C   0  0  0  0  0  0  0  0  0  0  0  0
  -26.8455  -25.5624   18.6826 C   0  0  0  0  0  0  0  0  0  0  0  0
  -31.6158  -18.3888   20.3192 C   0  0  0  0  0  0  0  0  0  0  0  0
  -29.1857  -19.7588   20.3365 C   0  0  0  0  0  0  0  0  0  0  0  0
  -20.4599   -5.6948   24.7511 C   0  0  0  0  0  0  0  0  0  0  0  0
  -23.8366  -10.4439   20.9213 C   0  0  0  0  0  0  0  0  0  0  0  0
  -24.1766  -12.9720   20.9512 C   0  0  0  0  0  0  0  0  0  0  0  0
  -25.0863  -29.5026   26.7131 C   0  0  0  0  0  0  0  0  0  0  0  0
  -27.5785  -27.3366   20.1573 C   0  0  0  0  0  0  0  0  0  0  0  0
  -25.5701  -28.5681   25.7777 C   0  0  0  0  0  0  0  0  0  0  0  0
  -26.5936  -26.7834   19.3266 C   0  0  0  0  0  0  0  0  0  0  0  0
  -31.4199  -19.4722   19.4628 C   0  0  0  0  0  0  0  0  0  0  0  0
  -30.5967  -17.9903   21.1842 C   0  0  0  0  0  0  0  0  0  0  0  0
  -30.2049  -20.1572   19.4714 C   0  0  0  0  0  0  0  0  0  0  0  0
  -22.3609   -8.1092   21.3139 C   0  0  0  0  0  0  0  0  0  0  0  0
  -28.0649  -24.9072   18.8523 C   0  0  0  0  0  0  0  0  0  0  0  0
  -20.9200   -6.8551   22.6826 C   0  0  0  0  0  0  0  0  0  0  0  0
  -19.4672   -6.6270   25.0531 C   0  0  0  0  0  0  0  0  0  0  0  0
  -21.1863   -5.8089   23.5658 C   0  0  0  0  0  0  0  0  0  0  0  0
  -29.3816  -18.6754   21.1929 C   0  0  0  0  0  0  0  0  0  0  0  0
  -24.5994  -11.6494   20.7190 C   0  0  0  0  0  0  0  0  0  0  0  0
  -25.2594  -13.7440   20.6075 C   0  0  0  0  0  0  0  0  0  0  0  0
  -22.9177  -13.4591   21.4343 C   0  0  0  0  0  0  0  0  0  0  0  0
  -25.2249  -28.1823   22.1191 C   0  0  0  0  0  0  0  0  0  0  0  0
  -24.0685  -29.6526   19.4690 C   0  0  0  0  0  0  0  0  0  0  0  0
  -23.9729  -29.8286   16.0621 C   0  0  0  0  0  0  0  0  0  0  0  0
  -30.7468  -14.7551   20.7178 C   0  0  0  0  0  0  0  0  0  0  0  0
  -23.7034  -30.0940   26.6011 C   0  0  0  0  0  0  0  0  0  0  0  0
  -27.3455  -28.6561   20.8407 C   0  0  0  0  0  0  0  0  0  0  0  0
  -25.2655  -27.4606   19.1118 C   0  0  0  0  0  0  0  0  0  0  0  0
  -23.0866  -29.9422   25.2130 C   0  0  0  0  0  0  0  0  0  0  0  0
  -29.5466  -12.5238   18.2163 C   0  0  0  0  0  0  0  0  0  0  0  0
  -23.2722  -28.5180   24.6991 C   0  0  0  0  0  0  0  0  0  0  0  0
  -28.1206  -12.2019   18.6669 C   0  0  0  0  0  0  0  0  0  0  0  0
  -29.6793  -22.4944   16.6677 C   0  0  0  0  0  0  0  0  0  0  0  0
  -30.4946  -12.6698   19.4046 C   0  0  0  0  0  0  0  0  0  0  0  0
  -29.4421  -21.1159   17.2842 C   0  0  0  0  0  0  0  0  0  0  0  0
  -28.6297  -13.3104   20.8830 C   0  0  0  0  0  0  0  0  0  0  0  0
  -30.2923  -22.6184   18.9843 C   0  0  0  0  0  0  0  0  0  0  0  0
  -24.7595  -28.1700   24.5633 C   0  0  1  0  0  0  0  0  0  0  0  0
  -25.8662  -28.9826   21.0210 C   0  0  1  0  0  0  0  0  0  0  0  0
  -27.6253  -13.2090   19.7223 C   0  0  2  0  0  0  0  0  0  0  0  0
  -29.6428  -23.4320   17.8657 C   0  0  2  0  0  0  0  0  0  1  0  0
  -32.5277  -19.8769   18.5454 C   0  0  0  0  0  0  0  0  0  0  0  0
  -22.9089  -31.1096   14.1849 C   0  0  0  0  0  0  0  0  0  0  0  0
  -21.4536  -28.1488   19.9283 C   0  0  0  0  0  0  0  0  0  0  0  0
  -20.8011  -28.7060   17.5763 C   0  0  0  0  0  0  0  0  0  0  0  0
  -21.1765  -30.5345   19.2310 C   0  0  0  0  0  0  0  0  0  0  0  0
  -26.5962  -30.7566   15.0539 C   0  0  0  0  0  0  0  0  0  0  0  0
  -30.8457  -16.8239   22.0850 C   0  0  0  0  0  0  0  0  0  0  0  0
  -23.1597  -29.2491   18.3331 C   0  0  1  0  0  0  0  0  0  0  0  0
  -24.1112  -31.0028   15.1099 C   0  0  2  0  0  0  0  0  0  0  0  0
  -21.6719  -29.1456   18.7725 C   0  0  0  0  0  0  0  0  0  0  0  0
  -25.8530  -11.5814   20.2630 N   0  0  0  0  0  0  0  0  0  0  0  0
  -26.2272  -12.8709   20.2058 N   0  0  0  0  0  0  0  0  0  0  0  0
  -29.9943  -21.2299   18.6307 N   0  0  3  0  0  0  0  0  0  0  0  0
  -25.0830  -28.7456   19.8067 N   0  0  0  0  0  0  0  0  0  0  0  0
  -29.9676  -13.6401   20.3673 N   0  0  0  0  0  0  0  0  0  0  0  0
  -25.4686  -15.0776   20.6128 N   0  0  0  0  0  0  0  0  0  0  0  0
  -21.9143  -12.5295   21.7399 N   0  0  0  0  0  0  0  0  0  0  0  0
  -25.3116  -28.7691   23.3672 N   0  0  0  0  0  0  0  0  0  0  0  0
  -23.4002  -30.2059   17.2583 N   0  0  0  0  0  0  0  0  0  0  0  0
  -30.1701  -15.6286   21.6316 N   0  0  0  0  0  0  0  0  0  0  0  0
  -25.3354  -30.8502   14.2737 N   0  3  0  0  0  0  0  0  0  0  0  0
  -22.6836  -14.6835   21.5748 O   0  0  0  0  0  0  0  0  0  0  0  0
  -24.6897  -27.1124   21.8535 O   0  0  0  0  0  0  0  0  0  0  0  0
  -23.8894  -30.7359   20.0311 O   0  0  0  0  0  0  0  0  0  0  0  0
  -24.3333  -28.6899   15.7723 O   0  0  0  0  0  0  0  0  0  0  0  0
  -31.8707  -14.9599   20.2469 O   0  0  0  0  0  0  0  0  0  0  0  0
  -21.6409   -6.9702   21.5058 O   0  0  0  0  0  0  0  0  0  0  0  0
  -28.2961  -23.7245   18.2202 O   0  0  0  0  0  0  0  0  0  1  0  0
  -18.7705   -6.5184   26.1920 F   0  0  0  0  0  0  0  0  0  0  0  0
  -22.1396   -4.9109   23.2815 F   0  0  0  0  0  0  0  0  0  0  0  0
  -28.0987  -18.2117   22.2506 Cl  0  0  0  0  0  0  0  0  0  0  0  0
  1  2  1  0  0  0  0
  1  5  2  0  0  0  0
  2  6  2  0  0  0  0
  3  8  2  0  0  0  0
  3 17  1  0  0  0  0
  4  9  1  0  0  0  0
  4 17  2  0  0  0  0
  5 19  1  0  0  0  0
  6 21  1  0  0  0  0
  7 10  2  0  0  0  0
  7 20  1  0  0  0  0
  8 26  1  0  0  0  0
  9 26  2  0  0  0  0
 10 27  1  0  0  0  0
 11 12  2  0  0  0  0
 11 28  1  0  0  0  0
 12 29  1  0  0  0  0
 13 22  1  0  0  0  0
 13 27  2  0  0  0  0
 14 23  1  0  0  0  0
 14 24  2  0  0  0  0
 15 25  1  0  0  0  0
 15 31  2  0  0  0  0
 16 29  2  0  0  0  0
 16 30  1  0  0  0  0
 17 32  1  0  0  0  0
 18 32  1  0  0  0  0
 18 33  2  0  0  0  0
 18 34  1  0  0  0  0
 19 21  2  0  0  0  0
 19 39  1  0  0  0  0
 20 22  2  0  0  0  0
 20 40  1  0  0  0  0
 21 51  1  0  0  0  0
 22 41  1  0  0  0  0
 23 25  2  0  0  0  0
 23 55  1  0  0  0  0
 24 31  1  0  0  0  0
 24 61  1  0  0  0  0
 25 67  1  0  0  0  0
 26 81  1  0  0  0  0
 27 82  1  0  0  0  0
 28 30  2  0  0  0  0
 28 81  1  0  0  0  0
 29 83  1  0  0  0  0
 30 84  1  0  0  0  0
 31 85  1  0  0  0  0
 32 65  2  0  0  0  0
 33 66  1  0  0  0  0
 33 70  1  0  0  0  0
 34 71  1  0  0  0  0
 34 76  2  0  0  0  0
 35 52  1  0  0  0  0
 35 72  1  0  0  0  0
 35 77  2  0  0  0  0
 36 62  1  0  0  0  0
 36 68  1  0  0  0  0
 36 78  2  0  0  0  0
 37 63  1  0  0  0  0
 37 73  1  0  0  0  0
 37 79  2  0  0  0  0
 38 69  1  0  0  0  0
 38 74  1  0  0  0  0
 38 80  2  0  0  0  0
 39 42  1  0  0  0  0
 40 52  1  0  0  0  0
 41 68  1  0  0  0  0
 42 44  1  0  0  0  0
 43 45  1  0  0  0  0
 43 47  1  0  0  0  0
 44 51  1  0  0  0  0
 45 53  1  0  0  0  0
 46 48  1  0  0  0  0
 46 54  1  0  0  0  0
 47 69  1  0  0  0  0
 48 67  1  0  0  0  0
 49 53  1  0  0  0  0
 49 69  1  0  0  0  0
 50 54  1  0  0  0  0
 50 67  1  0  0  0  0
 51 72  1  0  0  0  0
 52 68  1  0  0  0  0
 53 66  1  0  0  0  0
 54 82  1  0  0  0  0
 56 63  1  0  0  0  0
 57 64  1  0  0  0  0
 58 64  1  0  0  0  0
 59 64  1  0  0  0  0
 60 75  1  0  0  0  0
 61 74  1  0  0  0  0
 62 64  1  0  0  0  0
 62 73  1  0  0  0  0
 63 75  1  0  0  0  0
 65 66  1  0  0  0  0
M  CHG  1  75   1
M  ISO  4  38 100  54 101  74 100  82 101
M  END
> <Batch ID>
0033

> <Smiles>
CNC(C)C(=O)NC(C(=O)N1Cc2cc([101O:1][101CH:1]3CCN(c4cc(Cl)c(C[100NH:0][100C:0](=O)N5CCCC(n6nc(-c7ccc(Oc8ccc(F)cc8F)cc7)c(C(N)=O)c6N)C5)cc4C)C3)ccc2CC1C(=O)NC1CCCc2ccccc21)C(C)(C)C

> <Shape>
0.314

> <Color>
0.221

> <Negative vol penalty>
0.000

$$$$

  -OEChem-04042321453D

 87 96  0     1  0  0  0  0  0999 V2000
  -24.4491  -10.7623   20.7126 C   0  0  0  0  0  0  0  0  0  0  0  0
  -23.5261  -11.7612   21.0055 C   0  0  0  0  0  0  0  0  0  0  0  0
  -31.4212  -26.0772   19.1615 C   0  0  0  0  0  0  0  0  0  0  0  0
  -31.7139  -27.8206   20.8083 C   0  0  0  0  0  0  0  0  0  0  0  0
  -25.8067  -11.0702   20.6346 C   0  0  0  0  0  0  0  0  0  0  0  0
  -23.9604  -13.0685   21.2217 C   0  0  0  0  0  0  0  0  0  0  0  0
  -21.0200  -18.2226   19.7068 C   0  0  0  0  0  0  0  0  0  0  0  0
  -32.7089  -26.3148   18.6810 C   0  0  0  0  0  0  0  0  0  0  0  0
  -33.0018  -28.0582   20.3278 C   0  0  0  0  0  0  0  0  0  0  0  0
  -20.2229  -19.0986   20.4423 C   0  0  0  0  0  0  0  0  0  0  0  0
  -35.8805  -25.5577   19.5759 C   0  0  0  0  0  0  0  0  0  0  0  0
  -36.6923  -24.4520   19.3231 C   0  0  0  0  0  0  0  0  0  0  0  0
  -22.1379  -20.5166   20.8176 C   0  0  0  0  0  0  0  0  0  0  0  0
  -19.9933  -27.6228   23.8014 C   0  0  0  0  0  0  0  0  0  0  0  0
  -18.7598  -26.8512   21.4211 C   0  0  0  0  0  0  0  0  0  0  0  0
  -36.8661  -25.1095   17.0048 C   0  0  0  0  0  0  0  0  0  0  0  0
  -30.9236  -26.8302   20.2251 C   0  0  0  0  0  0  0  0  0  0  0  0
  -29.2171  -25.6882   21.7387 C   0  0  0  0  0  0  0  0  0  0  0  0
  -26.2568  -12.3838   20.8405 C   0  0  0  0  0  0  0  0  0  0  0  0
  -22.3868  -18.4819   19.5300 C   0  0  0  0  0  0  0  0  0  0  0  0
  -25.3255  -13.3940   21.1477 C   0  0  0  0  0  0  0  0  0  0  0  0
  -22.9497  -19.6437   20.0773 C   0  0  0  0  0  0  0  0  0  0  0  0
  -19.1827  -26.4880   23.7719 C   0  0  0  0  0  0  0  0  0  0  0  0
  -20.1870  -28.3719   22.6407 C   0  0  0  0  0  0  0  0  0  0  0  0
  -18.5660  -26.1022   22.5818 C   0  0  0  0  0  0  0  0  0  0  0  0
  -33.4992  -27.3052   19.2642 C   0  0  0  0  0  0  0  0  0  0  0  0
  -20.7824  -20.2443   21.0003 C   0  0  0  0  0  0  0  0  0  0  0  0
  -35.5614  -26.4394   18.5431 C   0  0  0  0  0  0  0  0  0  0  0  0
  -37.1851  -24.2279   18.0376 C   0  0  0  0  0  0  0  0  0  0  0  0
  -19.5703  -27.9861   21.4506 C   0  0  0  0  0  0  0  0  0  0  0  0
  -36.0542  -26.2153   17.2576 C   0  0  0  0  0  0  0  0  0  0  0  0
  -29.5933  -26.5857   20.7214 C   0  0  0  0  0  0  0  0  0  0  0  0
  -27.8541  -25.8286   21.8337 C   0  0  0  0  0  0  0  0  0  0  0  0
  -17.6525  -22.4723   22.9066 C   0  0  0  0  0  0  0  0  0  0  0  0
  -17.1677  -22.3490   24.1479 C   0  0  0  0  0  0  0  0  0  0  0  0
  -30.0273  -24.8066   22.5274 C   0  0  0  0  0  0  0  0  0  0  0  0
  -25.0755  -16.9899   20.3352 C   0  0  0  0  0  0  0  0  0  0  0  0
  -26.4483  -19.3345   18.5630 C   0  0  0  0  0  0  0  0  0  0  0  0
  -26.2379  -22.4824   17.2617 C   0  0  0  0  0  0  0  0  0  0  0  0
  -23.4109  -29.0062   22.1620 C   0  0  0  0  0  0  0  0  0  0  0  0
  -27.7389  -12.6592   20.7924 C   0  0  0  0  0  0  0  0  0  0  0  0
  -23.2274  -17.5409   18.7114 C   0  0  0  0  0  0  0  0  0  0  0  0
  -24.4074  -19.9782   19.8994 C   0  0  0  0  0  0  0  0  0  0  0  0
  -17.6067  -21.4155   21.8475 C   0  0  0  0  0  0  0  0  0  0  0  0
  -28.0791  -14.1419   20.6652 C   0  0  0  0  0  0  0  0  0  0  0  0
  -24.5715  -28.2278   18.8237 C   0  0  0  0  0  0  0  0  0  0  0  0
  -27.2554  -14.9651   21.6505 C   0  0  0  0  0  0  0  0  0  0  0  0
  -25.9600  -27.6533   19.1106 C   0  0  0  0  0  0  0  0  0  0  0  0
  -24.2468  -29.3848   19.7640 C   0  0  0  0  0  0  0  0  0  0  0  0
  -25.7400  -28.4759   21.5012 C   0  0  0  0  0  0  0  0  0  0  0  0
  -19.0367  -23.2342   21.1779 C   0  0  0  0  0  0  0  0  0  0  0  0
  -25.7551  -14.8288   21.3642 C   0  0  1  0  0  0  0  0  0  0  0  0
  -24.7163  -17.6396   19.0289 C   0  0  1  0  0  0  0  0  0  0  0  0
  -26.1186  -27.2878   20.5984 C   0  0  2  0  0  0  0  0  0  0  0  0
  -18.8901  -21.7217   21.0913 C   0  0  1  0  0  0  0  0  0  1  0  0
  -18.9912  -25.7015   25.0269 C   0  0  0  0  0  0  0  0  0  0  0  0
  -27.5319  -24.1367   15.8882 C   0  0  0  0  0  0  0  0  0  0  0  0
  -28.2178  -19.9469   20.9721 C   0  0  0  0  0  0  0  0  0  0  0  0
  -28.7844  -22.1422   19.9100 C   0  0  0  0  0  0  0  0  0  0  0  0
  -29.3976  -20.0109   18.7680 C   0  0  0  0  0  0  0  0  0  0  0  0
  -24.1583  -22.5367   15.1566 C   0  0  0  0  0  0  0  0  0  0  0  0
  -21.0534  -29.5854   22.6754 C   0  0  0  0  0  0  0  0  0  0  0  0
  -17.6897  -24.8858   22.5252 C   0  0  0  0  0  0  0  0  0  0  0  0
  -26.9726  -20.7214   18.8471 C   0  0  1  0  0  0  0  0  0  0  0  0
  -26.5051  -23.0151   15.8655 C   0  0  2  0  0  0  0  0  0  0  0  0
  -28.3160  -20.6983   19.6295 C   0  0  0  0  0  0  0  0  0  0  0  0
  -28.5532  -27.2471   20.2068 N   0  0  0  0  0  0  0  0  0  0  0  0
  -27.5101  -26.7649   20.9035 N   0  0  0  0  0  0  0  0  0  0  0  0
  -25.1893  -19.0238   19.0961 N   0  0  0  0  0  0  0  0  0  0  0  0
  -24.3991  -28.9655   21.1644 N   0  0  0  0  0  0  0  0  0  0  0  0
  -26.9282  -25.2412   22.6212 N   0  0  0  0  0  0  0  0  0  0  0  0
  -31.4102  -24.7877   22.3003 N   0  0  0  0  0  0  0  0  0  0  0  0
  -25.3807  -15.6463   20.2301 N   0  0  0  0  0  0  0  0  0  0  0  0
  -27.0427  -21.4030   17.5591 N   0  0  0  0  0  0  0  0  0  0  0  0
  -22.1708  -29.4894   21.7627 N   0  0  0  0  0  0  0  0  0  0  0  0
  -18.4643  -23.6024   22.5443 N   0  3  1  0  0  0  0  0  0  0  0  0
  -25.2479  -23.5410   15.2624 N   0  3  0  0  0  0  0  0  0  0  0  0
  -29.5373  -24.0457   23.3960 O   0  0  0  0  0  0  0  0  0  0  0  0
  -25.0771  -17.6584   21.3622 O   0  0  0  0  0  0  0  0  0  0  0  0
  -27.1275  -18.5580   17.8868 O   0  0  0  0  0  0  0  0  0  0  0  0
  -25.4018  -22.9768   18.0146 O   0  0  0  0  0  0  0  0  0  0  0  0
  -23.6169  -28.6342   23.3223 O   0  0  0  0  0  0  0  0  0  0  0  0
  -34.7560  -27.5371   18.7958 O   0  0  0  0  0  0  0  0  0  0  0  0
  -20.0067  -21.1006   21.7193 O   0  0  0  0  0  0  0  0  0  1  0  0
  -37.9660  -23.1669   17.7954 F   0  0  0  0  0  0  0  0  0  0  0  0
  -19.7505  -28.6996   20.3302 F   0  0  0  0  0  0  0  0  0  0  0  0
  -35.7521  -27.0594   16.2616 F   0  0  0  0  0  0  0  0  0  0  0  0
  1  2  1  0  0  0  0
  1  5  2  0  0  0  0
  2  6  2  0  0  0  0
  3  8  2  0  0  0  0
  3 17  1  0  0  0  0
  4  9  1  0  0  0  0
  4 17  2  0  0  0  0
  5 19  1  0  0  0  0
  6 21  1  0  0  0  0
  7 10  2  0  0  0  0
  7 20  1  0  0  0  0
  8 26  1  0  0  0  0
  9 26  2  0  0  0  0
 10 27  1  0  0  0  0
 11 12  2  0  0  0  0
 11 28  1  0  0  0  0
 12 29  1  0  0  0  0
 13 22  1  0  0  0  0
 13 27  2  0  0  0  0
 14 23  1  0  0  0  0
 14 24  2  0  0  0  0
 15 25  1  0  0  0  0
 15 30  2  0  0  0  0
 16 29  2  0  0  0  0
 16 31  1  0  0  0  0
 17 32  1  0  0  0  0
 18 32  1  0  0  0  0
 18 33  2  0  0  0  0
 18 36  1  0  0  0  0
 19 21  2  0  0  0  0
 19 41  1  0  0  0  0
 20 22  2  0  0  0  0
 20 42  1  0  0  0  0
 21 52  1  0  0  0  0
 22 43  1  0  0  0  0
 23 25  2  0  0  0  0
 23 56  1  0  0  0  0
 24 30  1  0  0  0  0
 24 62  1  0  0  0  0
 25 63  1  0  0  0  0
 26 83  1  0  0  0  0
 27 84  1  0  0  0  0
 28 31  2  0  0  0  0
 28 83  1  0  0  0  0
 29 85  1  0  0  0  0
 30 86  1  0  0  0  0
 31 87  1  0  0  0  0
 32 67  2  0  0  0  0
 33 68  1  0  0  0  0
 33 71  1  0  0  0  0
 34 35  2  0  0  0  0
 34 44  1  0  0  0  0
 34 76  1  0  0  0  0
 36 72  1  0  0  0  0
 36 78  2  0  0  0  0
 37 53  1  0  0  0  0
 37 73  1  0  0  0  0
 37 79  2  0  0  0  0
 38 64  1  0  0  0  0
 38 69  1  0  0  0  0
 38 80  2  0  0  0  0
 39 65  1  0  0  0  0
 39 74  1  0  0  0  0
 39 81  2  0  0  0  0
 40 70  1  0  0  0  0
 40 75  1  0  0  0  0
 40 82  2  0  0  0  0
 41 45  1  0  0  0  0
 42 53  1  0  0  0  0
 43 69  1  0  0  0  0
 44 55  1  0  0  0  0
 45 47  1  0  0  0  0
 46 48  1  0  0  0  0
 46 49  1  0  0  0  0
 47 52  1  0  0  0  0
 48 54  1  0  0  0  0
 49 70  1  0  0  0  0
 50 54  1  0  0  0  0
 50 70  1  0  0  0  0
 51 55  1  0  0  0  0
 51 76  1  0  0  0  0
 52 73  1  0  0  0  0
 53 69  1  0  0  0  0
 54 68  1  0  0  0  0
 55 84  1  0  0  0  0
 57 65  1  0  0  0  0
 58 66  1  0  0  0  0
 59 66  1  0  0  0  0
 60 66  1  0  0  0  0
 61 77  1  0  0  0  0
 62 75  1  0  0  0  0
 63 76  1  0  0  0  0
 64 66  1  0  0  0  0
 64 74  1  0  0  0  0
 65 77  1  0  0  0  0
 67 68  1  0  0  0  0
M  CHG  2  76   1  77   1
M  ISO  4  40 100  55 101  75 100  84 101
M  END
> <Batch ID>
0033

> <Smiles>
C=C1C[101CH:1]([101O:1]c2ccc3c(c2)CN(C(=O)C(NC(=O)C(C)NC)C(C)(C)C)C(C(=O)NC2CCCc4ccccc42)C3)CN1Cc1cc(F)c(C[100NH:0][100C:0](=O)N2CCCC(n3nc(-c4ccc(Oc5ccc(F)cc5F)cc4)c(C(N)=O)c3N)C2)cc1C

> <Shape>
0.200

> <Color>
0.091

> <Negative vol penalty>
0.000

$$$$

  -OEChem-04042321453D

 86 95  0     1  0  0  0  0  0999 V2000
  -18.0431  -24.5489   24.7613 C   0  0  0  0  0  0  0  0  0  0  0  0
  -19.2728  -24.4031   24.1273 C   0  0  0  0  0  0  0  0  0  0  0  0
  -22.5830  -10.2515   20.4789 C   0  0  0  0  0  0  0  0  0  0  0  0
  -24.0605   -9.8397   22.3456 C   0  0  0  0  0  0  0  0  0  0  0  0
  -17.4078  -25.7899   24.7709 C   0  0  0  0  0  0  0  0  0  0  0  0
  -19.8674  -25.4982   23.5015 C   0  0  0  0  0  0  0  0  0  0  0  0
  -24.8073  -25.8867   24.5462 C   0  0  0  0  0  0  0  0  0  0  0  0
  -31.2103  -17.5782   20.1926 C   0  0  0  0  0  0  0  0  0  0  0  0
  -21.7989   -9.1624   20.8592 C   0  0  0  0  0  0  0  0  0  0  0  0
  -23.2764   -8.7506   22.7260 C   0  0  0  0  0  0  0  0  0  0  0  0
  -25.6720  -25.0346   23.8607 C   0  0  0  0  0  0  0  0  0  0  0  0
  -22.8505   -5.5343   21.7748 C   0  0  0  0  0  0  0  0  0  0  0  0
  -23.5065   -4.3539   22.1240 C   0  0  0  0  0  0  0  0  0  0  0  0
  -31.4243  -18.9385   19.9706 C   0  0  0  0  0  0  0  0  0  0  0  0
  -26.2289  -26.8279   22.3463 C   0  0  0  0  0  0  0  0  0  0  0  0
  -22.5250   -4.4607   24.3291 C   0  0  0  0  0  0  0  0  0  0  0  0
  -23.7139  -10.5901   21.2220 C   0  0  0  0  0  0  0  0  0  0  0  0
  -29.6896  -19.4718   21.5655 C   0  0  0  0  0  0  0  0  0  0  0  0
  -24.1190  -13.0584   20.7208 C   0  0  0  0  0  0  0  0  0  0  0  0
  -17.9995  -26.9030   24.1532 C   0  0  0  0  0  0  0  0  0  0  0  0
  -24.6384  -27.2150   24.1296 C   0  0  0  0  0  0  0  0  0  0  0  0
  -19.2388  -26.7550   23.5016 C   0  0  0  0  0  0  0  0  0  0  0  0
  -25.3634  -27.6955   23.0298 C   0  0  0  0  0  0  0  0  0  0  0  0
  -29.4755  -18.1115   21.7874 C   0  0  0  0  0  0  0  0  0  0  0  0
  -30.2358  -17.1647   21.1010 C   0  0  0  0  0  0  0  0  0  0  0  0
  -22.1456   -8.4120   21.9828 C   0  0  0  0  0  0  0  0  0  0  0  0
  -26.3808  -25.5043   22.7588 C   0  0  0  0  0  0  0  0  0  0  0  0
  -22.0318   -6.1779   22.7028 C   0  0  0  0  0  0  0  0  0  0  0  0
  -23.3437   -3.8171   23.4011 C   0  0  0  0  0  0  0  0  0  0  0  0
  -21.8690   -5.6412   23.9799 C   0  0  0  0  0  0  0  0  0  0  0  0
  -30.6641  -19.8853   20.6570 C   0  0  0  0  0  0  0  0  0  0  0  0
  -24.5246  -11.7146   20.8293 C   0  0  0  0  0  0  0  0  0  0  0  0
  -25.2491  -13.7266   20.3174 C   0  0  0  0  0  0  0  0  0  0  0  0
  -29.3058  -20.9207   23.4935 C   0  0  0  0  0  0  0  0  0  0  0  0
  -28.8746  -20.4624   22.3042 C   0  0  0  0  0  0  0  0  0  0  0  0
  -22.8355  -13.6496   20.9632 C   0  0  0  0  0  0  0  0  0  0  0  0
  -22.1880  -28.9380   23.0661 C   0  0  0  0  0  0  0  0  0  0  0  0
  -24.3264  -31.3709   23.2412 C   0  0  0  0  0  0  0  0  0  0  0  0
  -27.0720  -33.3942   23.3615 C   0  0  0  0  0  0  0  0  0  0  0  0
  -30.7139  -14.7247   20.6957 C   0  0  0  0  0  0  0  0  0  0  0  0
  -17.2524  -28.2132   24.1489 C   0  0  0  0  0  0  0  0  0  0  0  0
  -23.7220  -28.1290   24.8960 C   0  0  0  0  0  0  0  0  0  0  0  0
  -25.2330  -29.1188   22.5546 C   0  0  0  0  0  0  0  0  0  0  0  0
  -28.5973  -21.9454   24.3272 C   0  0  0  0  0  0  0  0  0  0  0  0
  -27.5991  -20.9433   21.6574 C   0  0  0  0  0  0  0  0  0  0  0  0
  -18.1260  -29.4113   23.7859 C   0  0  0  0  0  0  0  0  0  0  0  0
  -28.4335  -23.2960   23.6349 C   0  0  0  0  0  0  0  0  0  0  0  0
  -27.5911  -22.4406   21.3501 C   0  0  0  0  0  0  0  0  0  0  0  0
  -29.7043  -11.9717   18.6761 C   0  0  0  0  0  0  0  0  0  0  0  0
  -18.9786  -29.0985   22.5603 C   0  0  0  0  0  0  0  0  0  0  0  0
  -28.2333  -11.7699   19.0473 C   0  0  0  0  0  0  0  0  0  0  0  0
  -30.5432  -12.3818   19.8851 C   0  0  0  0  0  0  0  0  0  0  0  0
  -28.5661  -13.3422   20.9978 C   0  0  0  0  0  0  0  0  0  0  0  0
  -19.9273  -27.9251   22.8331 C   0  0  1  0  0  0  0  0  0  0  0  0
  -23.2378  -29.3179   24.0718 C   0  0  1  0  0  0  0  0  0  0  0  0
  -27.6693  -12.9913   19.7993 C   0  0  2  0  0  0  0  0  0  0  0  0
  -27.3365  -23.3317   22.5678 C   0  0  2  0  0  0  0  0  0  1  0  0
  -28.4307  -17.6525   22.7594 C   0  0  0  0  0  0  0  0  0  0  0  0
  -27.8008  -35.7543   22.9185 C   0  0  0  0  0  0  0  0  0  0  0  0
  -24.2916  -30.8158   20.2411 C   0  0  0  0  0  0  0  0  0  0  0  0
  -25.8631  -32.7410   19.9373 C   0  0  0  0  0  0  0  0  0  0  0  0
  -23.5872  -33.1282   20.8824 C   0  0  0  0  0  0  0  0  0  0  0  0
  -27.8678  -33.8010   26.1829 C   0  0  0  0  0  0  0  0  0  0  0  0
  -25.3372  -31.9758   22.2971 C   0  0  1  0  0  0  0  0  0  0  0  0
  -27.2810  -34.7741   23.9586 C   0  0  2  0  0  0  0  0  0  0  0  0
  -24.7766  -32.1436   20.8567 C   0  0  0  0  0  0  0  0  0  0  0  0
  -25.8118  -11.5379   20.5196 N   0  0  0  0  0  0  0  0  0  0  0  0
  -26.2248  -12.7794   20.2124 N   0  0  0  0  0  0  0  0  0  0  0  0
  -24.3199  -29.9718   23.3331 N   0  0  0  0  0  0  0  0  0  0  0  0
  -29.9508  -13.5475   20.5448 N   0  0  0  0  0  0  0  0  0  0  0  0
  -25.4935  -15.0262   20.0456 N   0  0  0  0  0  0  0  0  0  0  0  0
  -21.7836  -12.8187   21.3722 N   0  0  0  0  0  0  0  0  0  0  0  0
  -30.0348  -15.7774   21.3083 N   0  0  0  0  0  0  0  0  0  0  0  0
  -21.0600  -28.3634   23.6201 N   0  0  0  0  0  0  0  0  0  0  0  0
  -25.7789  -33.2212   22.9153 N   0  0  0  0  0  0  0  0  0  0  0  0
  -28.2635  -34.7111   25.0774 N   0  3  0  0  0  0  0  0  0  0  0  0
  -22.6235  -14.8758   20.8053 O   0  0  0  0  0  0  0  0  0  0  0  0
  -22.3861  -29.1517   21.8759 O   0  0  0  0  0  0  0  0  0  0  0  0
  -23.5752  -32.1127   23.8792 O   0  0  0  0  0  0  0  0  0  0  0  0
  -27.9674  -32.5550   23.2941 O   0  0  0  0  0  0  0  0  0  0  0  0
  -31.8748  -14.8026   20.2856 O   0  0  0  0  0  0  0  0  0  0  0  0
  -21.3805   -7.3493   22.3544 O   0  0  0  0  0  0  0  0  0  0  0  0
  -27.2250  -24.6745   22.0875 O   0  0  0  0  0  0  0  0  0  1  0  0
  -23.9725   -2.6827   23.7358 F   0  0  0  0  0  0  0  0  0  0  0  0
  -21.0828   -6.2544   24.8753 F   0  0  0  0  0  0  0  0  0  0  0  0
  -30.9781  -21.5571   20.3410 Cl  0  0  0  0  0  0  0  0  0  0  0  0
  1  2  1  0  0  0  0
  1  5  2  0  0  0  0
  2  6  2  0  0  0  0
  3  9  2  0  0  0  0
  3 17  1  0  0  0  0
  4 10  1  0  0  0  0
  4 17  2  0  0  0  0
  5 20  1  0  0  0  0
  6 22  1  0  0  0  0
  7 11  2  0  0  0  0
  7 21  1  0  0  0  0
  8 14  1  0  0  0  0
  8 25  2  0  0  0  0
  9 26  1  0  0  0  0
 10 26  2  0  0  0  0
 11 27  1  0  0  0  0
 12 13  2  0  0  0  0
 12 28  1  0  0  0  0
 13 29  1  0  0  0  0
 14 31  2  0  0  0  0
 15 23  1  0  0  0  0
 15 27  2  0  0  0  0
 16 29  2  0  0  0  0
 16 30  1  0  0  0  0
 17 32  1  0  0  0  0
 18 24  2  0  0  0  0
 18 31  1  0  0  0  0
 18 35  1  0  0  0  0
 19 32  1  0  0  0  0
 19 33  2  0  0  0  0
 19 36  1  0  0  0  0
 20 22  2  0  0  0  0
 20 41  1  0  0  0  0
 21 23  2  0  0  0  0
 21 42  1  0  0  0  0
 22 54  1  0  0  0  0
 23 43  1  0  0  0  0
 24 25  1  0  0  0  0
 24 58  1  0  0  0  0
 25 73  1  0  0  0  0
 26 82  1  0  0  0  0
 27 83  1  0  0  0  0
 28 30  2  0  0  0  0
 28 82  1  0  0  0  0
 29 84  1  0  0  0  0
 30 85  1  0  0  0  0
 31 86  1  0  0  0  0
 32 67  2  0  0  0  0
 33 68  1  0  0  0  0
 33 71  1  0  0  0  0
 34 35  2  0  0  0  0
 34 44  1  0  0  0  0
 35 45  1  0  0  0  0
 36 72  1  0  0  0  0
 36 77  2  0  0  0  0
 37 55  1  0  0  0  0
 37 74  1  0  0  0  0
 37 78  2  0  0  0  0
 38 64  1  0  0  0  0
 38 69  1  0  0  0  0
 38 79  2  0  0  0  0
 39 65  1  0  0  0  0
 39 75  1  0  0  0  0
 39 80  2  0  0  0  0
 40 70  1  0  0  0  0
 40 73  1  0  0  0  0
 40 81  2  0  0  0  0
 41 46  1  0  0  0  0
 42 55  1  0  0  0  0
 43 69  1  0  0  0  0
 44 47  1  0  0  0  0
 45 48  1  0  0  0  0
 46 50  1  0  0  0  0
 47 57  1  0  0  0  0
 48 57  1  0  0  0  0
 49 51  1  0  0  0  0
 49 52  1  0  0  0  0
 50 54  1  0  0  0  0
 51 56  1  0  0  0  0
 52 70  1  0  0  0  0
 53 56  1  0  0  0  0
 53 70  1  0  0  0  0
 54 74  1  0  0  0  0
 55 69  1  0  0  0  0
 56 68  1  0  0  0  0
 57 83  1  0  0  0  0
 59 65  1  0  0  0  0
 60 66  1  0  0  0  0
 61 66  1  0  0  0  0
 62 66  1  0  0  0  0
 63 76  1  0  0  0  0
 64 66  1  0  0  0  0
 64 75  1  0  0  0  0
 65 76  1  0  0  0  0
 67 68  1  0  0  0  0
M  CHG  1  76   1
M  ISO  4  40 100  57 101  73 100  83 101
M  END
> <Batch ID>
0033

> <Smiles>
CNC(C)C(=O)NC(C(=O)N1Cc2cc([101O:1][101CH:1]3CCC=C(c4c(Cl)ccc([100NH:0][100C:0](=O)N5CCCC(n6nc(-c7ccc(Oc8ccc(F)cc8F)cc7)c(C(N)=O)c6N)C5)c4C)CC3)ccc2CC1C(=O)NC1CCCc2ccccc21)C(C)(C)C

> <Shape>
0.336

> <Color>
0.216

> <Negative vol penalty>
0.000

$$$$

  -OEChem-04042321453D

 88 97  0     1  0  0  0  0  0999 V2000
  -36.5663  -21.6608   19.3082 C   0  0  0  0  0  0  0  0  0  0  0  0
  -35.2138  -21.9149   19.5120 C   0  0  0  0  0  0  0  0  0  0  0  0
  -23.0723   -9.8698   19.9435 C   0  0  0  0  0  0  0  0  0  0  0  0
  -23.8347   -9.8785   22.2361 C   0  0  0  0  0  0  0  0  0  0  0  0
  -37.2464  -20.7893   20.1579 C   0  0  0  0  0  0  0  0  0  0  0  0
  -34.5403  -21.2967   20.5649 C   0  0  0  0  0  0  0  0  0  0  0  0
  -31.5679  -24.5037   23.1193 C   0  0  0  0  0  0  0  0  0  0  0  0
  -22.3288   -8.7169   20.1951 C   0  0  0  0  0  0  0  0  0  0  0  0
  -23.0910   -8.7255   22.4877 C   0  0  0  0  0  0  0  0  0  0  0  0
  -30.3436  -24.8354   22.5405 C   0  0  0  0  0  0  0  0  0  0  0  0
  -19.3821   -7.9212   21.6501 C   0  0  0  0  0  0  0  0  0  0  0  0
  -18.0747   -7.8746   21.1663 C   0  0  0  0  0  0  0  0  0  0  0  0
  -29.2391  -23.2464   23.9807 C   0  0  0  0  0  0  0  0  0  0  0  0
  -30.5989  -18.8210   20.3292 C   0  0  0  0  0  0  0  0  0  0  0  0
  -28.2573  -19.6818   21.5777 C   0  0  0  0  0  0  0  0  0  0  0  0
  -18.6330   -5.9306   19.8448 C   0  0  0  0  0  0  0  0  0  0  0  0
  -23.8253  -10.4506   20.9640 C   0  0  0  0  0  0  0  0  0  0  0  0
  -24.1669  -12.9757   20.8418 C   0  0  0  0  0  0  0  0  0  0  0  0
  -36.5832  -20.1676   21.2276 C   0  0  0  0  0  0  0  0  0  0  0  0
  -31.6385  -23.5313   24.1272 C   0  0  0  0  0  0  0  0  0  0  0  0
  -35.2119  -20.4150   21.4289 C   0  0  0  0  0  0  0  0  0  0  0  0
  -30.4651  -22.9060   24.5724 C   0  0  0  0  0  0  0  0  0  0  0  0
  -29.9398  -19.9597   19.8662 C   0  0  0  0  0  0  0  0  0  0  0  0
  -28.9164  -18.5430   22.0407 C   0  0  0  0  0  0  0  0  0  0  0  0
  -30.0872  -18.1125   21.4164 C   0  0  0  0  0  0  0  0  0  0  0  0
  -28.7690  -20.3902   20.4905 C   0  0  0  0  0  0  0  0  0  0  0  0
  -22.3381   -8.1447   21.4672 C   0  0  0  0  0  0  0  0  0  0  0  0
  -29.1794  -24.2046   22.9692 C   0  0  0  0  0  0  0  0  0  0  0  0
  -20.3150   -6.9726   21.2312 C   0  0  0  0  0  0  0  0  0  0  0  0
  -17.7001   -6.8793   20.2637 C   0  0  0  0  0  0  0  0  0  0  0  0
  -19.9405   -5.9772   20.3286 C   0  0  0  0  0  0  0  0  0  0  0  0
  -24.5941  -11.6414   20.7046 C   0  0  0  0  0  0  0  0  0  0  0  0
  -25.2587  -13.7250   20.4769 C   0  0  0  0  0  0  0  0  0  0  0  0
  -25.9559  -22.8492   20.1751 C   0  0  0  0  0  0  0  0  0  0  0  0
  -26.1207  -23.7333   21.1653 C   0  0  0  0  0  0  0  0  0  0  0  0
  -22.8969  -13.4918   21.2617 C   0  0  0  0  0  0  0  0  0  0  0  0
  -33.0677  -20.7077   24.4238 C   0  0  0  0  0  0  0  0  0  0  0  0
  -31.9635  -20.9055   27.4675 C   0  0  0  0  0  0  0  0  0  0  0  0
  -29.6824  -22.2141   29.6426 C   0  0  0  0  0  0  0  0  0  0  0  0
  -30.7426  -14.7443   20.6586 C   0  0  0  0  0  0  0  0  0  0  0  0
  -37.3492  -19.1967   22.0908 C   0  0  0  0  0  0  0  0  0  0  0  0
  -32.9632  -23.2041   24.7600 C   0  0  0  0  0  0  0  0  0  0  0  0
  -30.4843  -21.8699   25.6654 C   0  0  0  0  0  0  0  0  0  0  0  0
  -25.0932  -23.0412   18.9669 C   0  0  0  0  0  0  0  0  0  0  0  0
  -36.6517  -18.8725   23.4094 C   0  0  0  0  0  0  0  0  0  0  0  0
  -25.4299  -21.8046   18.1481 C   0  0  0  0  0  0  0  0  0  0  0  0
  -29.6025  -12.3581   18.2748 C   0  0  0  0  0  0  0  0  0  0  0  0
  -35.1756  -18.5695   23.1720 C   0  0  0  0  0  0  0  0  0  0  0  0
  -28.1655  -12.0647   18.7094 C   0  0  0  0  0  0  0  0  0  0  0  0
  -30.5209  -12.5798   19.4745 C   0  0  0  0  0  0  0  0  0  0  0  0
  -28.6206  -13.3118   20.8626 C   0  0  0  0  0  0  0  0  0  0  0  0
  -25.8156  -20.7597   19.1833 C   0  0  0  0  0  0  0  0  0  0  0  0
  -34.4524  -19.7828   22.5750 C   0  0  1  0  0  0  0  0  0  0  0  0
  -32.9865  -21.8291   25.4206 C   0  0  1  0  0  0  0  0  0  0  0  0
  -27.6452  -13.1364   19.6862 C   0  0  2  0  0  0  0  0  0  0  0  0
  -30.5067  -20.7024   18.7011 C   0  0  0  0  0  0  0  0  0  0  0  0
  -28.3494  -17.8003   23.2058 C   0  0  0  0  0  0  0  0  0  0  0  0
  -29.0094  -22.1610   32.0595 C   0  0  0  0  0  0  0  0  0  0  0  0
  -30.6857  -18.1665   27.0491 C   0  0  0  0  0  0  0  0  0  0  0  0
  -29.2787  -18.5906   29.0761 C   0  0  0  0  0  0  0  0  0  0  0  0
  -31.7623  -18.4850   29.2838 C   0  0  0  0  0  0  0  0  0  0  0  0
  -30.1863  -25.1124   29.9665 C   0  0  0  0  0  0  0  0  0  0  0  0
  -30.8097  -16.8958   21.8939 C   0  0  0  0  0  0  0  0  0  0  0  0
  -28.0431  -21.6124   20.0105 C   0  0  0  0  0  0  0  0  0  0  0  0
  -26.9927  -23.5001   22.3542 C   0  0  0  0  0  0  0  0  0  1  0  0
  -30.6955  -20.4905   28.1738 C   0  0  1  0  0  0  0  0  0  0  0  0
  -29.8470  -22.8656   31.0038 C   0  0  2  0  0  0  0  0  0  0  0  0
  -30.6051  -18.9512   28.3738 C   0  0  0  0  0  0  0  0  0  0  0  0
  -25.8585  -11.5453   20.2850 N   0  0  0  0  0  0  0  0  0  0  0  0
  -26.2352  -12.8288   20.1554 N   0  0  0  0  0  0  0  0  0  0  0  0
  -31.8047  -21.5797   26.2485 N   0  0  0  0  0  0  0  0  0  0  0  0
  -29.9713  -13.6089   20.3604 N   0  0  0  0  0  0  0  0  0  0  0  0
  -25.4689  -15.0564   20.4027 N   0  0  0  0  0  0  0  0  0  0  0  0
  -21.8854  -12.5828   21.6007 N   0  0  0  0  0  0  0  0  0  0  0  0
  -34.1780  -20.7638   23.6031 N   0  0  0  0  0  0  0  0  0  0  0  0
  -30.6490  -21.2578   29.4138 N   0  0  0  0  0  0  0  0  0  0  0  0
  -30.1443  -15.6737   21.5007 N   0  0  0  0  0  0  0  0  0  0  0  0
  -26.5610  -21.5473   20.2466 N   0  3  1  0  0  0  0  0  0  0  0  0
  -29.4280  -24.2947   30.9481 N   0  3  0  0  0  0  0  0  0  0  0  0
  -22.6606  -14.7224   21.3185 O   0  0  0  0  0  0  0  0  0  0  0  0
  -32.1890  -19.8538   24.4021 O   0  0  0  0  0  0  0  0  0  0  0  0
  -33.0545  -20.6475   27.9820 O   0  0  0  0  0  0  0  0  0  0  0  0
  -28.7837  -22.5200   28.8620 O   0  0  0  0  0  0  0  0  0  0  0  0
  -31.8780  -14.9195   20.2037 O   0  0  0  0  0  0  0  0  0  0  0  0
  -21.6124   -7.0197   21.7131 O   0  0  0  0  0  0  0  0  0  0  0  0
  -27.9832  -24.5261   22.4055 O   0  0  0  0  0  0  0  0  0  1  0  0
  -16.4442   -6.8337   19.8003 F   0  0  0  0  0  0  0  0  0  0  0  0
  -20.8320   -5.0624   19.9235 F   0  0  0  0  0  0  0  0  0  0  0  0
  1  2  1  0  0  0  0
  1  5  2  0  0  0  0
  2  6  2  0  0  0  0
  3  8  2  0  0  0  0
  3 17  1  0  0  0  0
  4  9  1  0  0  0  0
  4 17  2  0  0  0  0
  5 19  1  0  0  0  0
  6 21  1  0  0  0  0
  7 10  2  0  0  0  0
  7 20  1  0  0  0  0
  8 27  1  0  0  0  0
  9 27  2  0  0  0  0
 10 28  1  0  0  0  0
 11 12  2  0  0  0  0
 11 29  1  0  0  0  0
 12 30  1  0  0  0  0
 13 22  1  0  0  0  0
 13 28  2  0  0  0  0
 14 23  1  0  0  0  0
 14 25  2  0  0  0  0
 15 24  2  0  0  0  0
 15 26  1  0  0  0  0
 16 30  2  0  0  0  0
 16 31  1  0  0  0  0
 17 32  1  0  0  0  0
 18 32  1  0  0  0  0
 18 33  2  0  0  0  0
 18 36  1  0  0  0  0
 19 21  2  0  0  0  0
 19 41  1  0  0  0  0
 20 22  2  0  0  0  0
 20 42  1  0  0  0  0
 21 53  1  0  0  0  0
 22 43  1  0  0  0  0
 23 26  2  0  0  0  0
 23 56  1  0  0  0  0
 24 25  1  0  0  0  0
 24 57  1  0  0  0  0
 25 63  1  0  0  0  0
 26 64  1  0  0  0  0
 27 85  1  0  0  0  0
 28 86  1  0  0  0  0
 29 31  2  0  0  0  0
 29 85  1  0  0  0  0
 30 87  1  0  0  0  0
 31 88  1  0  0  0  0
 32 69  2  0  0  0  0
 33 70  1  0  0  0  0
 33 73  1  0  0  0  0
 34 35  2  0  0  0  0
 34 44  1  0  0  0  0
 34 78  1  0  0  0  0
 35 65  1  0  0  0  0
 36 74  1  0  0  0  0
 36 80  2  0  0  0  0
 37 54  1  0  0  0  0
 37 75  1  0  0  0  0
 37 81  2  0  0  0  0
 38 66  1  0  0  0  0
 38 71  1  0  0  0  0
 38 82  2  0  0  0  0
 39 67  1  0  0  0  0
 39 76  1  0  0  0  0
 39 83  2  0  0  0  0
 40 72  1  0  0  0  0
 40 77  1  0  0  0  0
 40 84  2  0  0  0  0
 41 45  1  0  0  0  0
 42 54  1  0  0  0  0
 43 71  1  0  0  0  0
 44 46  1  0  0  0  0
 45 48  1  0  0  0  0
 46 52  1  0  0  0  0
 47 49  1  0  0  0  0
 47 50  1  0  0  0  0
 48 53  1  0  0  0  0
 49 55  1  0  0  0  0
 50 72  1  0  0  0  0
 51 55  1  0  0  0  0
 51 72  1  0  0  0  0
 52 78  1  0  0  0  0
 53 75  1  0  0  0  0
 54 71  1  0  0  0  0
 55 70  1  0  0  0  0
 58 67  1  0  0  0  0
 59 68  1  0  0  0  0
 60 68  1  0  0  0  0
 61 68  1  0  0  0  0
 62 79  1  0  0  0  0
 63 77  1  0  0  0  0
 64 78  1  0  0  0  0
 65 86  1  0  0  0  0
 66 68  1  0  0  0  0
 66 76  1  0  0  0  0
 67 79  1  0  0  0  0
 69 70  1  0  0  0  0
M  CHG  2  78   1  79   1
M  ISO  4  40 100  65 101  77 100  86 101
M  END
> <Batch ID>
0033

> <Smiles>
CNC(C)C(=O)NC(C(=O)N1Cc2cc([101O:1][101CH2:1]C=C3CCCN3Cc3cc(C)c(C[100NH:0][100C:0](=O)N4CCCC(n5nc(-c6ccc(Oc7ccc(F)cc7F)cc6)c(C(N)=O)c5N)C4)cc3C)ccc2CC1C(=O)NC1CCCc2ccccc21)C(C)(C)C

> <Shape>
0.179

> <Color>
0.187

> <Negative vol penalty>
0.000

$$$$

  -OEChem-04042321453D

 91100  0     1  0  0  0  0  0999 V2000
  -19.8374   -8.2129   24.8810 C   0  0  0  0  0  0  0  0  0  0  0  0
  -20.1042   -9.5472   24.5915 C   0  0  0  0  0  0  0  0  0  0  0  0
  -23.4167  -30.9285   22.0313 C   0  0  0  0  0  0  0  0  0  0  0  0
  -22.9408  -28.6593   22.7106 C   0  0  0  0  0  0  0  0  0  0  0  0
  -20.8856   -7.2986   24.9779 C   0  0  0  0  0  0  0  0  0  0  0  0
  -21.4197   -9.9682   24.3997 C   0  0  0  0  0  0  0  0  0  0  0  0
  -23.3725  -14.2987   20.5346 C   0  0  0  0  0  0  0  0  0  0  0  0
  -22.0706  -31.1171   21.7182 C   0  0  0  0  0  0  0  0  0  0  0  0
  -21.5947  -28.8479   22.3975 C   0  0  0  0  0  0  0  0  0  0  0  0
  -23.6975  -15.6421   20.7177 C   0  0  0  0  0  0  0  0  0  0  0  0
  -18.8929  -30.3105   23.8054 C   0  0  0  0  0  0  0  0  0  0  0  0
  -17.9459  -29.8537   24.7219 C   0  0  0  0  0  0  0  0  0  0  0  0
  -26.0241  -15.0434   20.9354 C   0  0  0  0  0  0  0  0  0  0  0  0
  -29.6269  -22.8577   19.3449 C   0  0  0  0  0  0  0  0  0  0  0  0
  -17.0220  -28.3891   23.0371 C   0  0  0  0  0  0  0  0  0  0  0  0
  -23.8518  -29.6995   22.5274 C   0  0  0  0  0  0  0  0  0  0  0  0
  -28.0295  -21.2187   20.9402 C   0  0  0  0  0  0  0  0  0  0  0  0
  -28.6909  -20.6848   19.8343 C   0  0  0  0  0  0  0  0  0  0  0  0
  -25.8693  -29.7426   24.0881 C   0  0  0  0  0  0  0  0  0  0  0  0
  -22.2137   -7.7068   24.7777 C   0  0  0  0  0  0  0  0  0  0  0  0
  -24.3713  -13.3148   20.5615 C   0  0  0  0  0  0  0  0  0  0  0  0
  -22.4867   -9.0589   24.4953 C   0  0  0  0  0  0  0  0  0  0  0  0
  -25.7096  -13.6885   20.7499 C   0  0  0  0  0  0  0  0  0  0  0  0
  -28.1669  -22.5722   21.2485 C   0  0  0  0  0  0  0  0  0  0  0  0
  -28.9655  -23.3916   20.4508 C   0  0  0  0  0  0  0  0  0  0  0  0
  -21.1596  -30.0768   21.9014 C   0  0  0  0  0  0  0  0  0  0  0  0
  -25.0230  -16.0143   20.9210 C   0  0  0  0  0  0  0  0  0  0  0  0
  -18.9045  -29.8067   22.5047 C   0  0  0  0  0  0  0  0  0  0  0  0
  -17.0104  -28.8930   24.3377 C   0  0  0  0  0  0  0  0  0  0  0  0
  -29.4895  -21.5042   19.0366 C   0  0  0  0  0  0  0  0  0  0  0  0
  -17.9691  -28.8459   22.1206 C   0  0  0  0  0  0  0  0  0  0  0  0
  -25.2423  -29.5039   22.8505 C   0  0  0  0  0  0  0  0  0  0  0  0
  -27.1836  -29.4033   23.8783 C   0  0  0  0  0  0  0  0  0  0  0  0
  -27.1846  -20.3552   21.7818 C   0  0  0  0  0  0  0  0  0  0  0  0
  -25.8698  -20.1509   21.6046 C   0  0  0  0  0  0  0  0  0  0  0  0
  -28.5746  -19.2747   19.4778 C   0  0  0  0  0  0  0  0  0  0  0  0
  -25.3134  -30.2277   25.3174 C   0  0  0  0  0  0  0  0  0  0  0  0
  -24.9837  -10.7896   22.3924 C   0  0  0  0  0  0  0  0  0  0  0  0
  -27.3259  -10.2643   20.2105 C   0  0  0  0  0  0  0  0  0  0  0  0
  -29.4140  -11.5478   17.8357 C   0  0  0  0  0  0  0  0  0  0  0  0
  -29.8815  -25.7023   20.0405 C   0  0  0  0  0  0  0  0  0  0  0  0
  -23.3173   -6.6916   24.9394 C   0  0  0  0  0  0  0  0  0  0  0  0
  -24.0077  -11.8728   20.3357 C   0  0  0  0  0  0  0  0  0  0  0  0
  -26.8217  -12.6729   20.7671 C   0  0  0  0  0  0  0  0  0  0  0  0
  -24.6519   -7.1441   24.3524 C   0  0  0  0  0  0  0  0  0  0  0  0
  -30.4900  -29.1897   20.4205 C   0  0  0  0  0  0  0  0  0  0  0  0
  -28.9687  -22.7247   25.7753 C   0  0  0  0  0  0  0  0  0  0  0  0
  -27.8777  -23.7667   25.9189 C   0  0  0  0  0  0  0  0  0  0  0  0
  -24.9634   -8.5760   24.7760 C   0  0  0  0  0  0  0  0  0  0  0  0
  -29.2733  -29.6867   21.2047 C   0  0  0  0  0  0  0  0  0  0  0  0
  -30.1131  -28.0976   19.4210 C   0  0  0  0  0  0  0  0  0  0  0  0
  -28.1547  -27.4618   20.7737 C   0  0  0  0  0  0  0  0  0  0  0  0
  -28.7315  -22.1892   24.3796 C   0  0  0  0  0  0  0  0  0  0  0  0
  -27.8509  -24.4611   24.5686 C   0  0  0  0  0  0  0  0  0  0  0  0
  -23.8983   -9.5491   24.2562 C   0  0  1  0  0  0  0  0  0  0  0  0
  -25.0422  -10.9011   20.8951 C   0  0  1  0  0  0  0  0  0  0  0  0
  -28.4954  -28.5170   21.8388 C   0  0  2  0  0  0  0  0  0  0  0  0
  -27.4560  -18.8514   18.5290 C   0  0  0  0  0  0  0  0  0  0  0  0
  -31.2422  -10.8803   16.2516 C   0  0  0  0  0  0  0  0  0  0  0  0
  -29.2941  -10.1393   22.5386 C   0  0  0  0  0  0  0  0  0  0  0  0
  -31.1556  -10.4275   20.8894 C   0  0  0  0  0  0  0  0  0  0  0  0
  -29.6742   -8.4248   20.7580 C   0  0  0  0  0  0  0  0  0  0  0  0
  -27.8282  -12.3698   15.4759 C   0  0  0  0  0  0  0  0  0  0  0  0
  -27.4597  -23.1587   22.4330 C   0  0  0  0  0  0  0  0  0  0  0  0
  -25.0408  -19.2687   22.4974 C   0  0  0  0  0  0  0  0  0  0  0  0
  -24.3570  -18.1561   21.7116 C   0  0  0  0  0  0  0  0  0  1  0  0
  -28.7694  -10.6831   20.0698 C   0  0  1  0  0  0  0  0  0  0  0  0
  -29.7456  -11.0836   16.4289 C   0  0  2  0  0  0  0  0  0  0  0  0
  -29.7024   -9.9379   21.0656 C   0  0  0  0  0  0  0  0  0  0  0  0
  -26.0887  -29.0482   21.9231 N   0  0  0  0  0  0  0  0  0  0  0  0
  -27.2610  -28.9980   22.5783 N   0  0  0  0  0  0  0  0  0  0  0  0
  -26.4147  -11.2751   20.5480 N   0  0  0  0  0  0  0  0  0  0  0  0
  -29.3828  -27.0210   20.0938 N   0  0  0  0  0  0  0  0  0  0  0  0
  -28.2690  -29.4151   24.6808 N   0  0  0  0  0  0  0  0  0  0  0  0
  -23.9450  -30.5281   25.3594 N   0  0  0  0  0  0  0  0  0  0  0  0
  -29.1205  -24.7692   20.7441 N   0  0  0  0  0  0  0  0  0  0  0  0
  -24.1078   -9.8242   22.8509 N   0  0  0  0  0  0  0  0  0  0  0  0
  -29.1161  -10.4881   18.6662 N   0  0  0  0  0  0  0  0  0  0  0  0
  -28.3712  -23.4267   23.5872 N   0  3  0  0  0  0  0  0  0  0  0  0
  -29.2864  -12.0896   15.4298 N   0  3  0  0  0  0  0  0  0  0  0  0
  -26.0127  -30.4056   26.3435 O   0  0  0  0  0  0  0  0  0  0  0  0
  -25.6827  -11.5240   23.0807 O   0  0  0  0  0  0  0  0  0  0  0  0
  -27.0170   -9.0853   20.0206 O   0  0  0  0  0  0  0  0  0  0  0  0
  -29.4222  -12.7316   18.1659 O   0  0  0  0  0  0  0  0  0  0  0  0
  -30.9229  -25.4260   19.4395 O   0  0  0  0  0  0  0  0  0  0  0  0
  -19.8459  -30.2606   21.5962 O   0  0  0  0  0  0  0  0  0  0  0  0
  -25.3429  -17.3248   21.1006 O   0  0  0  0  0  0  0  0  0  1  0  0
  -16.1019  -28.4533   25.2184 F   0  0  0  0  0  0  0  0  0  0  0  0
  -30.1303  -21.0033   17.9706 F   0  0  0  0  0  0  0  0  0  0  0  0
  -17.9760  -28.3573   20.8728 F   0  0  0  0  0  0  0  0  0  0  0  0
  -29.6482  -18.0746   20.0169 S   0  0  0  0  0  0  0  0  0  0  0  0
  1  2  1  0  0  0  0
  1  5  2  0  0  0  0
  2  6  2  0  0  0  0
  3  8  2  0  0  0  0
  3 16  1  0  0  0  0
  4  9  1  0  0  0  0
  4 16  2  0  0  0  0
  5 20  1  0  0  0  0
  6 22  1  0  0  0  0
  7 10  2  0  0  0  0
  7 21  1  0  0  0  0
  8 26  1  0  0  0  0
  9 26  2  0  0  0  0
 10 27  1  0  0  0  0
 11 12  2  0  0  0  0
 11 28  1  0  0  0  0
 12 29  1  0  0  0  0
 13 23  1  0  0  0  0
 13 27  2  0  0  0  0
 14 25  1  0  0  0  0
 14 30  2  0  0  0  0
 15 29  2  0  0  0  0
 15 31  1  0  0  0  0
 16 32  1  0  0  0  0
 17 18  2  0  0  0  0
 17 24  1  0  0  0  0
 17 34  1  0  0  0  0
 18 30  1  0  0  0  0
 18 36  1  0  0  0  0
 19 32  1  0  0  0  0
 19 33  2  0  0  0  0
 19 37  1  0  0  0  0
 20 22  2  0  0  0  0
 20 42  1  0  0  0  0
 21 23  2  0  0  0  0
 21 43  1  0  0  0  0
 22 55  1  0  0  0  0
 23 44  1  0  0  0  0
 24 25  2  0  0  0  0
 24 64  1  0  0  0  0
 25 76  1  0  0  0  0
 26 86  1  0  0  0  0
 27 87  1  0  0  0  0
 28 31  2  0  0  0  0
 28 86  1  0  0  0  0
 29 88  1  0  0  0  0
 30 89  1  0  0  0  0
 31 90  1  0  0  0  0
 32 70  2  0  0  0  0
 33 71  1  0  0  0  0
 33 74  1  0  0  0  0
 34 35  2  0  0  0  0
 35 65  1  0  0  0  0
 36 58  1  0  0  0  0
 36 91  2  0  0  0  0
 37 75  1  0  0  0  0
 37 81  2  0  0  0  0
 38 56  1  0  0  0  0
 38 77  1  0  0  0  0
 38 82  2  0  0  0  0
 39 67  1  0  0  0  0
 39 72  1  0  0  0  0
 39 83  2  0  0  0  0
 40 68  1  0  0  0  0
 40 78  1  0  0  0  0
 40 84  2  0  0  0  0
 41 73  1  0  0  0  0
 41 76  1  0  0  0  0
 41 85  2  0  0  0  0
 42 45  1  0  0  0  0
 43 56  1  0  0  0  0
 44 72  1  0  0  0  0
 45 49  1  0  0  0  0
 46 50  1  0  0  0  0
 46 51  1  0  0  0  0
 47 48  1  0  0  0  0
 47 53  1  0  0  0  0
 48 54  1  0  0  0  0
 49 55  1  0  0  0  0
 50 57  1  0  0  0  0
 51 73  1  0  0  0  0
 52 57  1  0  0  0  0
 52 73  1  0  0  0  0
 53 79  1  0  0  0  0
 54 79  1  0  0  0  0
 55 77  1  0  0  0  0
 56 72  1  0  0  0  0
 57 71  1  0  0  0  0
 59 68  1  0  0  0  0
 60 69  1  0  0  0  0
 61 69  1  0  0  0  0
 62 69  1  0  0  0  0
 63 80  1  0  0  0  0
 64 79  1  0  0  0  0
 65 66  1  0  0  0  0
 66 87  1  0  0  0  0
 67 69  1  0  0  0  0
 67 78  1  0  0  0  0
 68 80  1  0  0  0  0
 70 71  1  0  0  0  0
M  CHG  2  79   1  80   1
M  ISO  4  41 100  66 101  76 100  87 101
M  END
> <Batch ID>
0033

> <Smiles>
CNC(C)C(=O)NC(C(=O)N1Cc2cc([101O:1][101CH2:1]CC=Cc3c(CN4CCCC4)c([100NH:0][100C:0](=O)N4CCCC(n5nc(-c6ccc(Oc7ccc(F)cc7F)cc6)c(C(N)=O)c5N)C4)cc(F)c3C(C)=S)ccc2CC1C(=O)NC1CCCc2ccccc21)C(C)(C)C

> <Shape>
0.286

> <Color>
0.062

> <Negative vol penalty>
0.000

$$$$

  -OEChem-04042321453D

 87 96  0     1  0  0  0  0  0999 V2000
  -19.5298  -32.5058   18.8639 C   0  0  0  0  0  0  0  0  0  0  0  0
  -20.9016  -32.3128   18.9914 C   0  0  0  0  0  0  0  0  0  0  0  0
  -25.8083  -12.7029   21.6414 C   0  0  0  0  0  0  0  0  0  0  0  0
  -25.3555  -13.4588   19.3918 C   0  0  0  0  0  0  0  0  0  0  0  0
  -18.6737  -32.1174   19.8936 C   0  0  0  0  0  0  0  0  0  0  0  0
  -21.4183  -31.7322   20.1491 C   0  0  0  0  0  0  0  0  0  0  0  0
  -24.9183  -28.2085   19.1601 C   0  0  0  0  0  0  0  0  0  0  0  0
  -27.7689  -24.7789   17.9560 C   0  0  0  0  0  0  0  0  0  0  0  0
  -26.9881  -23.8469   18.6395 C   0  0  0  0  0  0  0  0  0  0  0  0
  -25.4540  -11.4041   21.2763 C   0  0  0  0  0  0  0  0  0  0  0  0
  -25.0012  -12.1600   19.0267 C   0  0  0  0  0  0  0  0  0  0  0  0
  -26.1951  -28.6561   18.8234 C   0  0  0  0  0  0  0  0  0  0  0  0
  -22.6112   -9.6451   20.7779 C   0  0  0  0  0  0  0  0  0  0  0  0
  -21.7807   -8.9331   21.6433 C   0  0  0  0  0  0  0  0  0  0  0  0
  -26.9338  -28.2271   21.0794 C   0  0  0  0  0  0  0  0  0  0  0  0
  -29.7522  -23.5036   18.4825 C   0  0  0  0  0  0  0  0  0  0  0  0
  -23.4907   -7.2450   21.8954 C   0  0  0  0  0  0  0  0  0  0  0  0
  -25.7590  -13.7302   20.6991 C   0  0  0  0  0  0  0  0  0  0  0  0
  -27.3671  -15.5068   21.5739 C   0  0  0  0  0  0  0  0  0  0  0  0
  -19.1793  -31.5230   21.0605 C   0  0  0  0  0  0  0  0  0  0  0  0
  -24.6364  -27.7764   20.4640 C   0  0  0  0  0  0  0  0  0  0  0  0
  -20.5683  -31.3368   21.1960 C   0  0  0  0  0  0  0  0  0  0  0  0
  -25.6533  -27.7721   21.4294 C   0  0  0  0  0  0  0  0  0  0  0  0
  -29.1510  -24.6073   17.8774 C   0  0  0  0  0  0  0  0  0  0  0  0
  -28.9714  -22.5716   19.1660 C   0  0  0  0  0  0  0  0  0  0  0  0
  -27.5893  -22.7432   19.2445 C   0  0  0  0  0  0  0  0  0  0  0  0
  -25.0505  -11.1326   19.9690 C   0  0  0  0  0  0  0  0  0  0  0  0
  -27.2023  -28.6682   19.7839 C   0  0  0  0  0  0  0  0  0  0  0  0
  -23.8814   -9.1570   20.4711 C   0  0  0  0  0  0  0  0  0  0  0  0
  -22.2205   -7.7331   22.2021 C   0  0  0  0  0  0  0  0  0  0  0  0
  -24.3211   -7.9570   21.0299 C   0  0  0  0  0  0  0  0  0  0  0  0
  -26.1242  -15.0722   21.0757 C   0  0  0  0  0  0  0  0  0  0  0  0
  -27.2038  -16.8557   21.7749 C   0  0  0  0  0  0  0  0  0  0  0  0
  -31.5788  -27.4357   17.3066 C   0  0  0  0  0  0  0  0  0  0  0  0
  -32.8959  -27.1919   17.2327 C   0  0  0  0  0  0  0  0  0  0  0  0
  -28.5624  -14.7582   21.8319 C   0  0  0  0  0  0  0  0  0  0  0  0
  -22.6693  -28.7360   22.7691 C   0  0  0  0  0  0  0  0  0  0  0  0
  -23.7314  -26.0558   24.2559 C   0  0  0  0  0  0  0  0  0  0  0  0
  -26.8863  -24.3600   24.6903 C   0  0  0  0  0  0  0  0  0  0  0  0
  -25.3944  -21.8466   20.0956 C   0  0  0  0  0  0  0  0  0  0  0  0
  -18.2191  -31.1629   22.1664 C   0  0  0  0  0  0  0  0  0  0  0  0
  -23.2610  -27.2714   20.8042 C   0  0  0  0  0  0  0  0  0  0  0  0
  -25.4074  -27.2993   22.8381 C   0  0  0  0  0  0  0  0  0  0  0  0
  -30.9296  -28.6351   16.6712 C   0  0  0  0  0  0  0  0  0  0  0  0
  -18.8126  -30.2123   23.2029 C   0  0  0  0  0  0  0  0  0  0  0  0
  -30.0606  -29.3677   17.6862 C   0  0  0  0  0  0  0  0  0  0  0  0
  -23.0290  -19.7167   21.6912 C   0  0  0  0  0  0  0  0  0  0  0  0
  -20.2034  -30.6791   23.6208 C   0  0  0  0  0  0  0  0  0  0  0  0
  -23.7256  -18.3543   21.7143 C   0  0  0  0  0  0  0  0  0  0  0  0
  -23.3366  -20.4894   20.4097 C   0  0  0  0  0  0  0  0  0  0  0  0
  -25.4614  -19.2755   20.1252 C   0  0  0  0  0  0  0  0  0  0  0  0
  -29.9171  -27.2594   19.0643 C   0  0  0  0  0  0  0  0  0  0  0  0
  -21.1646  -30.6877   22.4261 C   0  0  1  0  0  0  0  0  0  0  0  0
  -22.9523  -27.3379   22.2967 C   0  0  1  0  0  0  0  0  0  0  0  0
  -25.2337  -18.4875   21.4255 C   0  0  2  0  0  0  0  0  0  0  0  0
  -29.1333  -28.4024   18.4243 C   0  0  1  0  0  0  0  0  0  1  0  0
  -29.6427  -21.4004   19.8073 C   0  0  0  0  0  0  0  0  0  0  0  0
  -33.5584  -26.0113   17.8541 C   0  0  0  0  0  0  0  0  0  0  0  0
  -27.3933  -21.9360   25.0961 C   0  0  0  0  0  0  0  0  0  0  0  0
  -23.7200  -26.8455   27.2031 C   0  0  0  0  0  0  0  0  0  0  0  0
  -25.6389  -25.2772   27.5590 C   0  0  0  0  0  0  0  0  0  0  0  0
  -23.4393  -24.3971   26.7781 C   0  0  0  0  0  0  0  0  0  0  0  0
  -28.6901  -24.2255   22.3479 C   0  0  0  0  0  0  0  0  0  0  0  0
  -29.9910  -25.6112   17.1442 C   0  0  0  0  0  0  0  0  0  0  0  0
  -24.8778  -25.7303   25.1827 C   0  0  1  0  0  0  0  0  0  0  0  0
  -27.3056  -23.0447   24.0589 C   0  0  2  0  0  0  0  0  0  0  0  0
  -24.4208  -25.5835   26.6616 C   0  0  0  0  0  0  0  0  0  0  0  0
  -25.2368  -16.0645   20.9670 N   0  0  0  0  0  0  0  0  0  0  0  0
  -25.9228  -17.1360   21.3998 N   0  0  0  0  0  0  0  0  0  0  0  0
  -24.0447  -26.8208   23.1235 N   0  0  0  0  0  0  0  0  0  0  0  0
  -24.7838  -20.5792   20.2037 N   0  0  0  0  0  0  0  0  0  0  0  0
  -28.0323  -17.8174   22.2342 N   0  0  0  0  0  0  0  0  0  0  0  0
  -29.5041  -14.6274   20.8021 N   0  0  0  0  0  0  0  0  0  0  0  0
  -26.7789  -21.8077   19.9343 N   0  0  0  0  0  0  0  0  0  0  0  0
  -21.6084  -29.3435   22.1249 N   0  0  0  0  0  0  0  0  0  0  0  0
  -25.5204  -24.5406   24.6350 N   0  0  0  0  0  0  0  0  0  0  0  0
  -30.7659  -26.5145   18.0632 N   0  3  1  0  0  0  0  0  0  0  0  0
  -28.6383  -23.1848   23.4068 N   0  3  0  0  0  0  0  0  0  0  0  0
  -28.7811  -14.2074   22.9375 O   0  0  0  0  0  0  0  0  0  0  0  0
  -23.3611  -29.2265   23.6536 O   0  0  0  0  0  0  0  0  0  0  0  0
  -22.6011  -25.6403   24.5230 O   0  0  0  0  0  0  0  0  0  0  0  0
  -27.6897  -25.1466   25.1866 O   0  0  0  0  0  0  0  0  0  0  0  0
  -24.7407  -22.8902   20.1700 O   0  0  0  0  0  0  0  0  0  0  0  0
  -24.7050   -9.8654   19.6123 O   0  0  0  0  0  0  0  0  0  0  0  0
  -28.4492  -29.1052   19.4581 O   0  0  0  0  0  0  0  0  0  1  0  0
  -21.4234   -7.0503   23.0344 F   0  0  0  0  0  0  0  0  0  0  0  0
  -25.5408   -7.4836   20.7399 F   0  0  0  0  0  0  0  0  0  0  0  0
  1  2  1  0  0  0  0
  1  5  2  0  0  0  0
  2  6  2  0  0  0  0
  3 10  2  0  0  0  0
  3 18  1  0  0  0  0
  4 11  1  0  0  0  0
  4 18  2  0  0  0  0
  5 20  1  0  0  0  0
  6 22  1  0  0  0  0
  7 12  2  0  0  0  0
  7 21  1  0  0  0  0
  8  9  2  0  0  0  0
  8 24  1  0  0  0  0
  9 26  1  0  0  0  0
 10 27  1  0  0  0  0
 11 27  2  0  0  0  0
 12 28  1  0  0  0  0
 13 14  2  0  0  0  0
 13 29  1  0  0  0  0
 14 30  1  0  0  0  0
 15 23  1  0  0  0  0
 15 28  2  0  0  0  0
 16 24  2  0  0  0  0
 16 25  1  0  0  0  0
 17 30  2  0  0  0  0
 17 31  1  0  0  0  0
 18 32  1  0  0  0  0
 19 32  1  0  0  0  0
 19 33  2  0  0  0  0
 19 36  1  0  0  0  0
 20 22  2  0  0  0  0
 20 41  1  0  0  0  0
 21 23  2  0  0  0  0
 21 42  1  0  0  0  0
 22 53  1  0  0  0  0
 23 43  1  0  0  0  0
 24 64  1  0  0  0  0
 25 26  2  0  0  0  0
 25 57  1  0  0  0  0
 26 74  1  0  0  0  0
 27 84  1  0  0  0  0
 28 85  1  0  0  0  0
 29 31  2  0  0  0  0
 29 84  1  0  0  0  0
 30 86  1  0  0  0  0
 31 87  1  0  0  0  0
 32 68  2  0  0  0  0
 33 69  1  0  0  0  0
 33 72  1  0  0  0  0
 34 35  2  0  0  0  0
 34 44  1  0  0  0  0
 34 77  1  0  0  0  0
 35 58  1  0  0  0  0
 36 73  1  0  0  0  0
 36 79  2  0  0  0  0
 37 54  1  0  0  0  0
 37 75  1  0  0  0  0
 37 80  2  0  0  0  0
 38 65  1  0  0  0  0
 38 70  1  0  0  0  0
 38 81  2  0  0  0  0
 39 66  1  0  0  0  0
 39 76  1  0  0  0  0
 39 82  2  0  0  0  0
 40 71  1  0  0  0  0
 40 74  1  0  0  0  0
 40 83  2  0  0  0  0
 41 45  1  0  0  0  0
 42 54  1  0  0  0  0
 43 70  1  0  0  0  0
 44 46  1  0  0  0  0
 45 48  1  0  0  0  0
 46 56  1  0  0  0  0
 47 49  1  0  0  0  0
 47 50  1  0  0  0  0
 48 53  1  0  0  0  0
 49 55  1  0  0  0  0
 50 71  1  0  0  0  0
 51 55  1  0  0  0  0
 51 71  1  0  0  0  0
 52 56  1  0  0  0  0
 52 77  1  0  0  0  0
 53 75  1  0  0  0  0
 54 70  1  0  0  0  0
 55 69  1  0  0  0  0
 56 85  1  0  0  0  0
 59 66  1  0  0  0  0
 60 67  1  0  0  0  0
 61 67  1  0  0  0  0
 62 67  1  0  0  0  0
 63 78  1  0  0  0  0
 64 77  1  0  0  0  0
 65 67  1  0  0  0  0
 65 76  1  0  0  0  0
 66 78  1  0  0  0  0
 68 69  1  0  0  0  0
M  CHG  2  77   1  78   1
M  ISO  4  40 100  56 101  74 100  85 101
M  END
> <Batch ID>
0033

> <Smiles>
CC=C1CC[101CH:1]([101O:1]c2ccc3c(c2)CN(C(=O)C(NC(=O)C(C)NC)C(C)(C)C)C(C(=O)NC2CCCc4ccccc42)C3)CN1Cc1ccc([100NH:0][100C:0](=O)N2CCCC(n3nc(-c4ccc(Oc5ccc(F)cc5F)cc4)c(C(N)=O)c3N)C2)c(C)c1

> <Shape>
0.186

> <Color>
0.081

> <Negative vol penalty>
0.000

$$$$

  -OEChem-04042321453D

 89 98  0     1  0  0  0  0  0999 V2000
  -28.3437  -20.7720   15.0943 C   0  0  0  0  0  0  0  0  0  0  0  0
  -28.4897  -20.7825   16.4778 C   0  0  0  0  0  0  0  0  0  0  0  0
  -22.6655  -10.1434   20.1651 C   0  0  0  0  0  0  0  0  0  0  0  0
  -24.3085   -9.3946   21.7703 C   0  0  0  0  0  0  0  0  0  0  0  0
  -28.8831  -21.8055   14.3297 C   0  0  0  0  0  0  0  0  0  0  0  0
  -29.1763  -21.8261   17.0973 C   0  0  0  0  0  0  0  0  0  0  0  0
  -26.7795  -23.5581   21.2083 C   0  0  0  0  0  0  0  0  0  0  0  0
  -21.9347   -8.9726   20.3668 C   0  0  0  0  0  0  0  0  0  0  0  0
  -23.5778   -8.2237   21.9721 C   0  0  0  0  0  0  0  0  0  0  0  0
  -26.8894  -22.8027   22.3750 C   0  0  0  0  0  0  0  0  0  0  0  0
  -20.8208   -7.2733   23.6799 C   0  0  0  0  0  0  0  0  0  0  0  0
  -20.6274   -6.8504   24.9949 C   0  0  0  0  0  0  0  0  0  0  0  0
  -28.5891  -24.3111   23.1843 C   0  0  0  0  0  0  0  0  0  0  0  0
  -30.0977  -19.2018   20.5871 C   0  0  0  0  0  0  0  0  0  0  0  0
  -21.7645   -4.7780   24.4956 C   0  0  0  0  0  0  0  0  0  0  0  0
  -23.8525  -10.3544   20.8668 C   0  0  0  0  0  0  0  0  0  0  0  0
  -24.1742  -12.8850   20.8750 C   0  0  0  0  0  0  0  0  0  0  0  0
  -29.5683  -22.8673   14.9410 C   0  0  0  0  0  0  0  0  0  0  0  0
  -27.5826  -24.6913   21.0158 C   0  0  0  0  0  0  0  0  0  0  0  0
  -29.7266  -22.8741   16.3400 C   0  0  0  0  0  0  0  0  0  0  0  0
  -28.4856  -25.0806   22.0154 C   0  0  0  0  0  0  0  0  0  0  0  0
  -29.9402  -17.8179   20.5116 C   0  0  0  0  0  0  0  0  0  0  0  0
  -30.6928  -17.6075   22.7977 C   0  0  0  0  0  0  0  0  0  0  0  0
  -30.8503  -18.9914   22.8733 C   0  0  0  0  0  0  0  0  0  0  0  0
  -30.2378  -17.0208   21.6169 C   0  0  0  0  0  0  0  0  0  0  0  0
  -22.3908   -8.0127   21.2703 C   0  0  0  0  0  0  0  0  0  0  0  0
  -27.7964  -23.1775   23.3619 C   0  0  0  0  0  0  0  0  0  0  0  0
  -21.4860   -6.4486   22.7726 C   0  0  0  0  0  0  0  0  0  0  0  0
  -21.0992   -5.6027   25.4028 C   0  0  0  0  0  0  0  0  0  0  0  0
  -21.9578   -5.2009   23.1805 C   0  0  0  0  0  0  0  0  0  0  0  0
  -30.5528  -19.7885   21.7680 C   0  0  0  0  0  0  0  0  0  0  0  0
  -24.6081  -11.5634   20.6585 C   0  0  0  0  0  0  0  0  0  0  0  0
  -25.2539  -13.6615   20.5317 C   0  0  0  0  0  0  0  0  0  0  0  0
  -30.8261  -20.2204   26.4382 C   0  0  0  0  0  0  0  0  0  0  0  0
  -31.1298  -19.3857   27.4435 C   0  0  0  0  0  0  0  0  0  0  0  0
  -22.9084  -13.3677   21.3446 C   0  0  0  0  0  0  0  0  0  0  0  0
  -29.8025  -25.5347   18.9029 C   0  0  0  0  0  0  0  0  0  0  0  0
  -29.6508  -28.3755   20.4615 C   0  0  0  0  0  0  0  0  0  0  0  0
  -29.4065  -29.4917   23.8838 C   0  0  0  0  0  0  0  0  0  0  0  0
  -30.7150  -14.7401   20.6591 C   0  0  0  0  0  0  0  0  0  0  0  0
  -30.1750  -23.9378   14.0688 C   0  0  0  0  0  0  0  0  0  0  0  0
  -27.4329  -25.5107   19.7634 C   0  0  0  0  0  0  0  0  0  0  0  0
  -29.3563  -26.3005   21.8662 C   0  0  0  0  0  0  0  0  0  0  0  0
  -30.9839  -21.7135   26.5357 C   0  0  0  0  0  0  0  0  0  0  0  0
  -30.5641  -25.1996   14.8348 C   0  0  0  0  0  0  0  0  0  0  0  0
  -29.6967  -22.4115   26.1133 C   0  0  0  0  0  0  0  0  0  0  0  0
  -29.5723  -12.4466   18.1870 C   0  0  0  0  0  0  0  0  0  0  0  0
  -31.3187  -24.8384   16.1103 C   0  0  0  0  0  0  0  0  0  0  0  0
  -28.1432  -12.1211   18.6275 C   0  0  0  0  0  0  0  0  0  0  0  0
  -30.5087  -12.6186   19.3818 C   0  0  0  0  0  0  0  0  0  0  0  0
  -28.6235  -13.2534   20.8352 C   0  0  0  0  0  0  0  0  0  0  0  0
  -29.0167  -20.3496   24.8284 C   0  0  0  0  0  0  0  0  0  0  0  0
  -30.4433  -24.0015   17.0510 C   0  0  1  0  0  0  0  0  0  0  0  0
  -28.6661  -26.3521   19.4489 C   0  0  1  0  0  0  0  0  0  0  0  0
  -27.6295  -13.1351   19.6683 C   0  0  2  0  0  0  0  0  0  0  0  0
  -29.1795  -21.8667   24.7820 C   0  0  1  0  0  0  0  0  0  1  0  0
  -29.4509  -17.2186   19.2328 C   0  0  0  0  0  0  0  0  0  0  0  0
  -31.0129  -16.7541   23.9857 C   0  0  0  0  0  0  0  0  0  0  0  0
  -30.9812  -17.9055   27.3678 C   0  0  0  0  0  0  0  0  0  0  0  0
  -28.4467  -31.6006   24.8475 C   0  0  0  0  0  0  0  0  0  0  0  0
  -32.5169  -29.4098   20.3011 C   0  0  0  0  0  0  0  0  0  0  0  0
  -32.1450  -30.5746   22.4858 C   0  0  0  0  0  0  0  0  0  0  0  0
  -30.7739  -31.1926   20.4957 C   0  0  0  0  0  0  0  0  0  0  0  0
  -27.5973  -27.9861   25.6779 C   0  0  0  0  0  0  0  0  0  0  0  0
  -31.3405  -19.6095   24.1494 C   0  0  0  0  0  0  0  0  0  0  0  0
  -30.3573  -28.9820   21.6498 C   0  0  1  0  0  0  0  0  0  0  0  0
  -28.1998  -30.1303   24.5474 C   0  0  2  0  0  0  0  0  0  0  0  0
  -31.4444  -30.0116   21.2309 C   0  0  0  0  0  0  0  0  0  0  0  0
  -25.8653  -11.5001   20.2120 N   0  0  0  0  0  0  0  0  0  0  0  0
  -26.2307  -12.7916   20.1451 N   0  0  0  0  0  0  0  0  0  0  0  0
  -29.1776  -27.0654   20.6210 N   0  0  0  0  0  0  0  0  0  0  0  0
  -29.9594  -13.5969   20.3231 N   0  0  0  0  0  0  0  0  0  0  0  0
  -25.4535  -14.9966   20.5257 N   0  0  0  0  0  0  0  0  0  0  0  0
  -22.7279  -13.5368   22.7241 N   0  0  0  0  0  0  0  0  0  0  0  0
  -30.0770  -15.6152   21.5376 N   0  0  0  0  0  0  0  0  0  0  0  0
  -29.4952  -24.8468   17.7446 N   0  0  0  0  0  0  0  0  0  0  0  0
  -29.3136  -29.5312   22.5086 N   0  0  0  0  0  0  0  0  0  0  0  0
  -30.2920  -19.6475   25.2265 N   0  3  1  0  0  0  0  0  0  0  0  0
  -27.8848  -29.4358   25.8278 N   0  3  0  0  0  0  0  0  0  0  0  0
  -21.9599  -13.6253   20.5652 O   0  0  0  0  0  0  0  0  0  0  0  0
  -30.8791  -25.5298   19.4884 O   0  0  0  0  0  0  0  0  0  0  0  0
  -29.5173  -29.0422   19.4324 O   0  0  0  0  0  0  0  0  0  0  0  0
  -30.3400  -29.0097   24.5215 O   0  0  0  0  0  0  0  0  0  0  0  0
  -31.8337  -14.9425   20.1800 O   0  0  0  0  0  0  0  0  0  0  0  0
  -21.6779   -6.8702   21.4676 O   0  0  0  0  0  0  0  0  0  0  0  0
  -27.9062  -22.4416   24.5014 O   0  0  0  0  0  0  0  0  0  1  0  0
  -20.9148   -5.1974   26.6660 F   0  0  0  0  0  0  0  0  0  0  0  0
  -22.5986   -4.4047   22.3138 F   0  0  0  0  0  0  0  0  0  0  0  0
  -30.7341  -21.5049   21.8203 Cl  0  0  0  0  0  0  0  0  0  0  0  0
  1  2  1  0  0  0  0
  1  5  2  0  0  0  0
  2  6  2  0  0  0  0
  3  8  2  0  0  0  0
  3 16  1  0  0  0  0
  4  9  1  0  0  0  0
  4 16  2  0  0  0  0
  5 18  1  0  0  0  0
  6 20  1  0  0  0  0
  7 10  2  0  0  0  0
  7 19  1  0  0  0  0
  8 26  1  0  0  0  0
  9 26  2  0  0  0  0
 10 27  1  0  0  0  0
 11 12  2  0  0  0  0
 11 28  1  0  0  0  0
 12 29  1  0  0  0  0
 13 21  1  0  0  0  0
 13 27  2  0  0  0  0
 14 22  1  0  0  0  0
 14 31  2  0  0  0  0
 15 29  2  0  0  0  0
 15 30  1  0  0  0  0
 16 32  1  0  0  0  0
 17 32  1  0  0  0  0
 17 33  2  0  0  0  0
 17 36  1  0  0  0  0
 18 20  2  0  0  0  0
 18 41  1  0  0  0  0
 19 21  2  0  0  0  0
 19 42  1  0  0  0  0
 20 53  1  0  0  0  0
 21 43  1  0  0  0  0
 22 25  2  0  0  0  0
 22 57  1  0  0  0  0
 23 24  2  0  0  0  0
 23 25  1  0  0  0  0
 23 58  1  0  0  0  0
 24 31  1  0  0  0  0
 24 65  1  0  0  0  0
 25 75  1  0  0  0  0
 26 85  1  0  0  0  0
 27 86  1  0  0  0  0
 28 30  2  0  0  0  0
 28 85  1  0  0  0  0
 29 87  1  0  0  0  0
 30 88  1  0  0  0  0
 31 89  1  0  0  0  0
 32 69  2  0  0  0  0
 33 70  1  0  0  0  0
 33 73  1  0  0  0  0
 34 35  2  0  0  0  0
 34 44  1  0  0  0  0
 34 78  1  0  0  0  0
 35 59  1  0  0  0  0
 36 74  1  0  0  0  0
 36 80  2  0  0  0  0
 37 54  1  0  0  0  0
 37 76  1  0  0  0  0
 37 81  2  0  0  0  0
 38 66  1  0  0  0  0
 38 71  1  0  0  0  0
 38 82  2  0  0  0  0
 39 67  1  0  0  0  0
 39 77  1  0  0  0  0
 39 83  2  0  0  0  0
 40 72  1  0  0  0  0
 40 75  1  0  0  0  0
 40 84  2  0  0  0  0
 41 45  1  0  0  0  0
 42 54  1  0  0  0  0
 43 71  1  0  0  0  0
 44 46  1  0  0  0  0
 45 48  1  0  0  0  0
 46 56  1  0  0  0  0
 47 49  1  0  0  0  0
 47 50  1  0  0  0  0
 48 53  1  0  0  0  0
 49 55  1  0  0  0  0
 50 72  1  0  0  0  0
 51 55  1  0  0  0  0
 51 72  1  0  0  0  0
 52 56  1  0  0  0  0
 52 78  1  0  0  0  0
 53 76  1  0  0  0  0
 54 71  1  0  0  0  0
 55 70  1  0  0  0  0
 56 86  1  0  0  0  0
 60 67  1  0  0  0  0
 61 68  1  0  0  0  0
 62 68  1  0  0  0  0
 63 68  1  0  0  0  0
 64 79  1  0  0  0  0
 65 78  1  0  0  0  0
 66 68  1  0  0  0  0
 66 77  1  0  0  0  0
 67 79  1  0  0  0  0
 69 70  1  0  0  0  0
M  CHG  2  78   1  79   1
M  ISO  4  40 100  56 101  75 100  86 101
M  END
> <Batch ID>
0033

> <Smiles>
CC=C1CC[101CH:1]([101O:1]c2ccc3c(c2)CN(C(=O)C(NC(=O)C(C)NC)C(C)(C)C)C(C(=O)NC2CCCc4ccccc42)C3)CN1Cc1c(Cl)cc(C)c([100NH:0][100C:0](=O)N2CCCC(n3nc(-c4ccc(Oc5ccc(F)cc5F)cc4)c(C(N)=O)c3N)C2)c1C

> <Shape>
0.292

> <Color>
0.194

> <Negative vol penalty>
0.000

$$$$

  -OEChem-04042321453D

 86 95  0     1  0  0  0  0  0999 V2000
  -17.7579  -26.4487   22.4135 C   0  0  0  0  0  0  0  0  0  0  0  0
  -18.8922  -25.7959   21.9417 C   0  0  0  0  0  0  0  0  0  0  0  0
  -22.8087  -11.7594   22.1851 C   0  0  0  0  0  0  0  0  0  0  0  0
  -22.5262  -13.6675   20.7303 C   0  0  0  0  0  0  0  0  0  0  0  0
  -17.8620  -27.7395   22.9301 C   0  0  0  0  0  0  0  0  0  0  0  0
  -20.1313  -26.4341   21.9852 C   0  0  0  0  0  0  0  0  0  0  0  0
  -25.5830  -23.8261   22.9769 C   0  0  0  0  0  0  0  0  0  0  0  0
  -21.6710  -12.1353   22.8991 C   0  0  0  0  0  0  0  0  0  0  0  0
  -21.3884  -14.0434   21.4443 C   0  0  0  0  0  0  0  0  0  0  0  0
  -26.5976  -23.4161   22.1131 C   0  0  0  0  0  0  0  0  0  0  0  0
  -18.1400  -13.1268   21.6131 C   0  0  0  0  0  0  0  0  0  0  0  0
  -17.0150  -13.5088   20.8823 C   0  0  0  0  0  0  0  0  0  0  0  0
  -27.7388  -25.5115   22.4687 C   0  0  0  0  0  0  0  0  0  0  0  0
  -29.1445  -19.1992   17.5868 C   0  0  0  0  0  0  0  0  0  0  0  0
  -30.9103  -17.8163   19.2458 C   0  0  0  0  0  0  0  0  0  0  0  0
  -17.0761  -15.6866   21.9267 C   0  0  0  0  0  0  0  0  0  0  0  0
  -23.2364  -12.5256   21.1007 C   0  0  0  0  0  0  0  0  0  0  0  0
  -24.4702  -11.2909   19.2404 C   0  0  0  0  0  0  0  0  0  0  0  0
  -19.1045  -28.3902   22.9888 C   0  0  0  0  0  0  0  0  0  0  0  0
  -25.6332  -25.0884   23.5856 C   0  0  0  0  0  0  0  0  0  0  0  0
  -20.2519  -27.7354   22.5018 C   0  0  0  0  0  0  0  0  0  0  0  0
  -26.7248  -25.9341   23.3418 C   0  0  0  0  0  0  0  0  0  0  0  0
  -30.2581  -19.8505   18.1172 C   0  0  0  0  0  0  0  0  0  0  0  0
  -28.9138  -17.8565   17.8859 C   0  0  0  0  0  0  0  0  0  0  0  0
  -31.1409  -19.1591   18.9467 C   0  0  0  0  0  0  0  0  0  0  0  0
  -29.7967  -17.1650   18.7154 C   0  0  0  0  0  0  0  0  0  0  0  0
  -20.9608  -13.2773   22.5287 C   0  0  0  0  0  0  0  0  0  0  0  0
  -27.6743  -24.2599   21.8566 C   0  0  0  0  0  0  0  0  0  0  0  0
  -18.7330  -14.0247   22.5008 C   0  0  0  0  0  0  0  0  0  0  0  0
  -16.4831  -14.7887   21.0391 C   0  0  0  0  0  0  0  0  0  0  0  0
  -18.2011  -15.3046   22.6575 C   0  0  0  0  0  0  0  0  0  0  0  0
  -24.4120  -12.1381   20.3631 C   0  0  0  0  0  0  0  0  0  0  0  0
  -25.8039  -11.2421   18.9159 C   0  0  0  0  0  0  0  0  0  0  0  0
  -30.3352  -23.6040   18.5681 C   0  0  0  0  0  0  0  0  0  0  0  0
  -31.5595  -24.0992   18.3513 C   0  0  0  0  0  0  0  0  0  0  0  0
  -23.4132  -10.6091   18.5521 C   0  0  0  0  0  0  0  0  0  0  0  0
  -23.8054  -27.6880   23.5133 C   0  0  0  0  0  0  0  0  0  0  0  0
  -25.8436  -28.7104   25.8204 C   0  0  0  0  0  0  0  0  0  0  0  0
  -28.9264  -28.4909   27.2678 C   0  0  0  0  0  0  0  0  0  0  0  0
  -30.3696  -14.9846   19.8397 C   0  0  0  0  0  0  0  0  0  0  0  0
  -19.1598  -29.8035   23.5123 C   0  0  0  0  0  0  0  0  0  0  0  0
  -24.5441  -25.5051   24.5357 C   0  0  0  0  0  0  0  0  0  0  0  0
  -26.8362  -27.2910   23.9860 C   0  0  0  0  0  0  0  0  0  0  0  0
  -29.0807  -24.4116   18.6892 C   0  0  0  0  0  0  0  0  0  0  0  0
  -20.5702  -30.2666   23.8680 C   0  0  0  0  0  0  0  0  0  0  0  0
  -30.1533  -11.5895   20.8900 C   0  0  0  0  0  0  0  0  0  0  0  0
  -21.5479  -29.9039   22.7547 C   0  0  0  0  0  0  0  0  0  0  0  0
  -28.6626  -11.2659   20.7661 C   0  0  0  0  0  0  0  0  0  0  0  0
  -30.3850  -13.0228   21.3648 C   0  0  0  0  0  0  0  0  0  0  0  0
  -28.2086  -13.7324   20.4542 C   0  0  0  0  0  0  0  0  0  0  0  0
  -28.6928  -22.1275   19.3475 C   0  0  0  0  0  0  0  0  0  0  0  0
  -21.6176  -28.3851   22.5549 C   0  0  1  0  0  0  0  0  0  0  0  0
  -24.4404  -27.0183   24.6991 C   0  0  1  0  0  0  0  0  0  0  0  0
  -27.9258  -12.3201   19.9167 C   0  0  2  0  0  0  0  0  0  0  0  0
  -28.2937  -23.5598   19.6729 C   0  0  1  0  0  0  0  0  0  1  0  0
  -27.7130  -17.1840   17.3037 C   0  0  0  0  0  0  0  0  0  0  0  0
  -32.3396  -19.8357   19.5263 C   0  0  0  0  0  0  0  0  0  0  0  0
  -30.3117  -29.4797   29.1119 C   0  0  0  0  0  0  0  0  0  0  0  0
  -26.3017  -31.2106   24.1324 C   0  0  0  0  0  0  0  0  0  0  0  0
  -28.3413  -31.6799   25.5066 C   0  0  0  0  0  0  0  0  0  0  0  0
  -26.0941  -31.6337   26.5885 C   0  0  0  0  0  0  0  0  0  0  0  0
  -29.1859  -25.8772   28.6316 C   0  0  0  0  0  0  0  0  0  0  0  0
  -30.4854  -21.2951   17.7818 C   0  0  0  0  0  0  0  0  0  0  0  0
  -27.1513  -29.4646   25.8341 C   0  0  1  0  0  0  0  0  0  0  0  0
  -29.3509  -28.3679   28.7201 C   0  0  2  0  0  0  0  0  0  0  0  0
  -26.9693  -30.9725   25.5016 C   0  0  0  0  0  0  0  0  0  0  0  0
  -25.6132  -12.5945   20.7276 N   0  0  0  0  0  0  0  0  0  0  0  0
  -26.4388  -12.0319   19.8287 N   0  0  0  0  0  0  0  0  0  0  0  0
  -25.7431  -27.6555   24.9024 N   0  0  0  0  0  0  0  0  0  0  0  0
  -29.6601  -13.9662   20.5107 N   0  0  0  0  0  0  0  0  0  0  0  0
  -26.4839  -10.6009   17.9417 N   0  0  0  0  0  0  0  0  0  0  0  0
  -22.1009  -10.7688   19.0176 N   0  0  0  0  0  0  0  0  0  0  0  0
  -29.5796  -15.8008   19.0307 N   0  0  0  0  0  0  0  0  0  0  0  0
  -22.4284  -27.7762   23.5876 N   0  0  0  0  0  0  0  0  0  0  0  0
  -27.7564  -29.2087   27.1367 N   0  0  0  0  0  0  0  0  0  0  0  0
  -30.1535  -22.2203   18.9139 N   0  3  1  0  0  0  0  0  0  0  0  0
  -30.0255  -27.0597   28.9535 N   0  3  0  0  0  0  0  0  0  0  0  0
  -23.6281   -9.8669   17.5640 O   0  0  0  0  0  0  0  0  0  0  0  0
  -24.5126  -28.0958   22.5993 O   0  0  0  0  0  0  0  0  0  0  0  0
  -24.9469  -29.0405   26.6007 O   0  0  0  0  0  0  0  0  0  0  0  0
  -29.5704  -28.0025   26.3419 O   0  0  0  0  0  0  0  0  0  0  0  0
  -31.5922  -15.1057   19.9515 O   0  0  0  0  0  0  0  0  0  0  0  0
  -19.8503  -13.6442   23.2250 O   0  0  0  0  0  0  0  0  0  0  0  0
  -28.6657  -23.8625   21.0134 O   0  0  0  0  0  0  0  0  0  1  0  0
  -15.4037  -15.1559   20.3361 F   0  0  0  0  0  0  0  0  0  0  0  0
  -18.7671  -16.1719   23.5079 F   0  0  0  0  0  0  0  0  0  0  0  0
  1  2  1  0  0  0  0
  1  5  2  0  0  0  0
  2  6  2  0  0  0  0
  3  8  2  0  0  0  0
  3 17  1  0  0  0  0
  4  9  1  0  0  0  0
  4 17  2  0  0  0  0
  5 19  1  0  0  0  0
  6 21  1  0  0  0  0
  7 10  2  0  0  0  0
  7 20  1  0  0  0  0
  8 27  1  0  0  0  0
  9 27  2  0  0  0  0
 10 28  1  0  0  0  0
 11 12  2  0  0  0  0
 11 29  1  0  0  0  0
 12 30  1  0  0  0  0
 13 22  1  0  0  0  0
 13 28  2  0  0  0  0
 14 23  1  0  0  0  0
 14 24  2  0  0  0  0
 15 25  1  0  0  0  0
 15 26  2  0  0  0  0
 16 30  2  0  0  0  0
 16 31  1  0  0  0  0
 17 32  1  0  0  0  0
 18 32  1  0  0  0  0
 18 33  2  0  0  0  0
 18 36  1  0  0  0  0
 19 21  2  0  0  0  0
 19 41  1  0  0  0  0
 20 22  2  0  0  0  0
 20 42  1  0  0  0  0
 21 52  1  0  0  0  0
 22 43  1  0  0  0  0
 23 25  2  0  0  0  0
 23 63  1  0  0  0  0
 24 26  1  0  0  0  0
 24 56  1  0  0  0  0
 25 57  1  0  0  0  0
 26 73  1  0  0  0  0
 27 83  1  0  0  0  0
 28 84  1  0  0  0  0
 29 31  2  0  0  0  0
 29 83  1  0  0  0  0
 30 85  1  0  0  0  0
 31 86  1  0  0  0  0
 32 67  2  0  0  0  0
 33 68  1  0  0  0  0
 33 71  1  0  0  0  0
 34 35  2  0  0  0  0
 34 44  1  0  0  0  0
 34 76  1  0  0  0  0
 36 72  1  0  0  0  0
 36 78  2  0  0  0  0
 37 53  1  0  0  0  0
 37 74  1  0  0  0  0
 37 79  2  0  0  0  0
 38 64  1  0  0  0  0
 38 69  1  0  0  0  0
 38 80  2  0  0  0  0
 39 65  1  0  0  0  0
 39 75  1  0  0  0  0
 39 81  2  0  0  0  0
 40 70  1  0  0  0  0
 40 73  1  0  0  0  0
 40 82  2  0  0  0  0
 41 45  1  0  0  0  0
 42 53  1  0  0  0  0
 43 69  1  0  0  0  0
 44 55  1  0  0  0  0
 45 47  1  0  0  0  0
 46 48  1  0  0  0  0
 46 49  1  0  0  0  0
 47 52  1  0  0  0  0
 48 54  1  0  0  0  0
 49 70  1  0  0  0  0
 50 54  1  0  0  0  0
 50 70  1  0  0  0  0
 51 55  1  0  0  0  0
 51 76  1  0  0  0  0
 52 74  1  0  0  0  0
 53 69  1  0  0  0  0
 54 68  1  0  0  0  0
 55 84  1  0  0  0  0
 58 65  1  0  0  0  0
 59 66  1  0  0  0  0
 60 66  1  0  0  0  0
 61 66  1  0  0  0  0
 62 77  1  0  0  0  0
 63 76  1  0  0  0  0
 64 66  1  0  0  0  0
 64 75  1  0  0  0  0
 65 77  1  0  0  0  0
 67 68  1  0  0  0  0
M  CHG  2  76   1  77   1
M  ISO  4  40 100  55 101  73 100  84 101
M  END
> <Batch ID>
0033

> <Smiles>
C=C1C[101CH:1]([101O:1]c2ccc3c(c2)CN(C(=O)C(NC(=O)C(C)NC)C(C)(C)C)C(C(=O)NC2CCCc4ccccc42)C3)CN1Cc1cc(C)c([100NH:0][100C:0](=O)N2CCCC(n3nc(-c4ccc(Oc5ccc(F)cc5F)cc4)c(C(N)=O)c3N)C2)cc1C

> <Shape>
0.245

> <Color>
0.065

> <Negative vol penalty>
0.000

$$$$

  -OEChem-04042321453D

 86 95  0     1  0  0  0  0  0999 V2000
  -18.0309  -26.6833   16.2331 C   0  0  0  0  0  0  0  0  0  0  0  0
  -18.7045  -25.5052   16.5394 C   0  0  0  0  0  0  0  0  0  0  0  0
  -23.0776   -9.8651   19.9421 C   0  0  0  0  0  0  0  0  0  0  0  0
  -23.8324   -9.8786   22.2371 C   0  0  0  0  0  0  0  0  0  0  0  0
  -18.3275  -27.8553   16.9276 C   0  0  0  0  0  0  0  0  0  0  0  0
  -19.6760  -25.4987   17.5398 C   0  0  0  0  0  0  0  0  0  0  0  0
  -22.4483  -21.2559   22.6023 C   0  0  0  0  0  0  0  0  0  0  0  0
  -30.5856  -19.8731   21.4458 C   0  0  0  0  0  0  0  0  0  0  0  0
  -22.3337   -8.7123   20.1935 C   0  0  0  0  0  0  0  0  0  0  0  0
  -23.0884   -8.7258   22.4886 C   0  0  0  0  0  0  0  0  0  0  0  0
  -23.6778  -20.7734   23.0487 C   0  0  0  0  0  0  0  0  0  0  0  0
  -19.8592   -7.9282   23.0860 C   0  0  0  0  0  0  0  0  0  0  0  0
  -30.7670  -19.1348   20.2764 C   0  0  0  0  0  0  0  0  0  0  0  0
  -19.0997   -7.8911   24.2553 C   0  0  0  0  0  0  0  0  0  0  0  0
  -24.0507  -22.8398   24.2363 C   0  0  0  0  0  0  0  0  0  0  0  0
  -20.3403   -5.9562   24.9998 C   0  0  0  0  0  0  0  0  0  0  0  0
  -23.8270  -10.4482   20.9639 C   0  0  0  0  0  0  0  0  0  0  0  0
  -24.1680  -12.9732   20.8378 C   0  0  0  0  0  0  0  0  0  0  0  0
  -19.2963  -27.8610   17.9436 C   0  0  0  0  0  0  0  0  0  0  0  0
  -22.0149  -22.5403   22.9613 C   0  0  0  0  0  0  0  0  0  0  0  0
  -19.9868  -26.6722   18.2476 C   0  0  0  0  0  0  0  0  0  0  0  0
  -22.8141  -23.3352   23.7953 C   0  0  0  0  0  0  0  0  0  0  0  0
  -30.2346  -19.2270   22.6312 C   0  0  0  0  0  0  0  0  0  0  0  0
  -30.0650  -17.8426   22.6470 C   0  0  0  0  0  0  0  0  0  0  0  0
  -30.2464  -17.1042   21.4776 C   0  0  0  0  0  0  0  0  0  0  0  0
  -22.3390   -8.1426   21.4667 C   0  0  0  0  0  0  0  0  0  0  0  0
  -24.4805  -21.5665   23.8634 C   0  0  0  0  0  0  0  0  0  0  0  0
  -20.8593   -6.9793   22.8735 C   0  0  0  0  0  0  0  0  0  0  0  0
  -19.3402   -6.9052   25.2122 C   0  0  0  0  0  0  0  0  0  0  0  0
  -30.5974  -17.7504   20.2922 C   0  0  0  0  0  0  0  0  0  0  0  0
  -21.0998   -5.9933   23.8304 C   0  0  0  0  0  0  0  0  0  0  0  0
  -24.5962  -11.6387   20.7046 C   0  0  0  0  0  0  0  0  0  0  0  0
  -25.2607  -13.7221   20.4749 C   0  0  0  0  0  0  0  0  0  0  0  0
  -28.4353  -21.0441   25.4165 C   0  0  0  0  0  0  0  0  0  0  0  0
  -28.8271  -20.6087   26.6198 C   0  0  0  0  0  0  0  0  0  0  0  0
  -22.8964  -13.4896   21.2524 C   0  0  0  0  0  0  0  0  0  0  0  0
  -21.3127  -25.1983   21.3657 C   0  0  0  0  0  0  0  0  0  0  0  0
  -20.3811  -26.2442   24.2915 C   0  0  0  0  0  0  0  0  0  0  0  0
  -20.6449  -25.9761   27.6834 C   0  0  0  0  0  0  0  0  0  0  0  0
  -30.7260  -14.7705   20.6590 C   0  0  0  0  0  0  0  0  0  0  0  0
  -19.6161  -29.1630   18.6343 C   0  0  0  0  0  0  0  0  0  0  0  0
  -20.6740  -23.0358   22.4933 C   0  0  0  0  0  0  0  0  0  0  0  0
  -22.3854  -24.7134   24.2258 C   0  0  0  0  0  0  0  0  0  0  0  0
  -27.6192  -22.2726   25.1609 C   0  0  0  0  0  0  0  0  0  0  0  0
  -20.3933  -28.9869   19.9364 C   0  0  0  0  0  0  0  0  0  0  0  0
  -29.6179  -12.3498   18.2948 C   0  0  0  0  0  0  0  0  0  0  0  0
  -21.5461  -28.0072   19.7416 C   0  0  0  0  0  0  0  0  0  0  0  0
  -28.1774  -12.0588   18.7219 C   0  0  0  0  0  0  0  0  0  0  0  0
  -30.5302  -12.5823   19.4978 C   0  0  0  0  0  0  0  0  0  0  0  0
  -28.6199  -13.3097   20.8729 C   0  0  0  0  0  0  0  0  0  0  0  0
  -27.7964  -20.9349   23.1659 C   0  0  0  0  0  0  0  0  0  0  0  0
  -21.0295  -26.6195   19.3431 C   0  0  1  0  0  0  0  0  0  0  0  0
  -20.5638  -24.5574   22.4997 C   0  0  1  0  0  0  0  0  0  0  0  0
  -27.6498  -13.1328   19.6933 C   0  0  2  0  0  0  0  0  0  0  0  0
  -26.8393  -21.8391   23.9296 C   0  0  1  0  0  0  0  0  0  1  0  0
  -29.6899  -17.1539   23.9218 C   0  0  0  0  0  0  0  0  0  0  0  0
  -19.7886  -26.9921   29.8123 C   0  0  0  0  0  0  0  0  0  0  0  0
  -22.2078  -28.6523   23.8741 C   0  0  0  0  0  0  0  0  0  0  0  0
  -22.0550  -29.1062   26.3315 C   0  0  0  0  0  0  0  0  0  0  0  0
  -19.9998  -29.1867   24.9199 C   0  0  0  0  0  0  0  0  0  0  0  0
  -19.4490  -23.4151   28.5609 C   0  0  0  0  0  0  0  0  0  0  0  0
  -30.0466  -20.0452   23.8746 C   0  0  0  0  0  0  0  0  0  0  0  0
  -21.0594  -26.9509   25.4401 C   0  0  1  0  0  0  0  0  0  0  0  0
  -19.5905  -25.8999   28.7728 C   0  0  2  0  0  0  0  0  0  0  0  0
  -21.3398  -28.4489   25.1319 C   0  0  0  0  0  0  0  0  0  0  0  0
  -25.8620  -11.5423   20.2894 N   0  0  0  0  0  0  0  0  0  0  0  0
  -26.2386  -12.8257   20.1585 N   0  0  0  0  0  0  0  0  0  0  0  0
  -21.0689  -25.1555   23.7371 N   0  0  0  0  0  0  0  0  0  0  0  0
  -29.9689  -13.6153   20.3712 N   0  0  0  0  0  0  0  0  0  0  0  0
  -25.4707  -15.0535   20.3987 N   0  0  0  0  0  0  0  0  0  0  0  0
  -21.8841  -12.5809   21.5899 N   0  0  0  0  0  0  0  0  0  0  0  0
  -30.0764  -15.6975   21.4734 N   0  0  0  0  0  0  0  0  0  0  0  0
  -20.5133  -25.9208   20.5006 N   0  0  0  0  0  0  0  0  0  0  0  0
  -20.2171  -26.7292   26.6105 N   0  0  0  0  0  0  0  0  0  0  0  0
  -28.6057  -20.2243   24.2477 N   0  3  1  0  0  0  0  0  0  0  0  0
  -19.6514  -24.5795   29.4611 N   0  3  0  0  0  0  0  0  0  0  0  0
  -22.6595  -14.7202   21.3059 O   0  0  0  0  0  0  0  0  0  0  0  0
  -22.5263  -25.0496   21.2826 O   0  0  0  0  0  0  0  0  0  0  0  0
  -19.2781  -26.6391   23.9051 O   0  0  0  0  0  0  0  0  0  0  0  0
  -21.7400  -25.4261   27.7766 O   0  0  0  0  0  0  0  0  0  0  0  0
  -31.8561  -14.9385   20.1934 O   0  0  0  0  0  0  0  0  0  0  0  0
  -21.6130   -7.0179   21.7125 O   0  0  0  0  0  0  0  0  0  0  0  0
  -25.6814  -21.0982   24.3000 O   0  0  0  0  0  0  0  0  0  1  0  0
  -18.6118   -6.8706   26.3358 F   0  0  0  0  0  0  0  0  0  0  0  0
  -30.7723  -17.0522   19.1610 F   0  0  0  0  0  0  0  0  0  0  0  0
  -22.0599   -5.0797   23.6324 F   0  0  0  0  0  0  0  0  0  0  0  0
  1  2  1  0  0  0  0
  1  5  2  0  0  0  0
  2  6  2  0  0  0  0
  3  9  2  0  0  0  0
  3 17  1  0  0  0  0
  4 10  1  0  0  0  0
  4 17  2  0  0  0  0
  5 19  1  0  0  0  0
  6 21  1  0  0  0  0
  7 11  2  0  0  0  0
  7 20  1  0  0  0  0
  8 13  2  0  0  0  0
  8 23  1  0  0  0  0
  9 26  1  0  0  0  0
 10 26  2  0  0  0  0
 11 27  1  0  0  0  0
 12 14  2  0  0  0  0
 12 28  1  0  0  0  0
 13 30  1  0  0  0  0
 14 29  1  0  0  0  0
 15 22  1  0  0  0  0
 15 27  2  0  0  0  0
 16 29  2  0  0  0  0
 16 31  1  0  0  0  0
 17 32  1  0  0  0  0
 18 32  1  0  0  0  0
 18 33  2  0  0  0  0
 18 36  1  0  0  0  0
 19 21  2  0  0  0  0
 19 41  1  0  0  0  0
 20 22  2  0  0  0  0
 20 42  1  0  0  0  0
 21 52  1  0  0  0  0
 22 43  1  0  0  0  0
 23 24  2  0  0  0  0
 23 62  1  0  0  0  0
 24 25  1  0  0  0  0
 24 56  1  0  0  0  0
 25 30  2  0  0  0  0
 25 72  1  0  0  0  0
 26 82  1  0  0  0  0
 27 83  1  0  0  0  0
 28 31  2  0  0  0  0
 28 82  1  0  0  0  0
 29 84  1  0  0  0  0
 30 85  1  0  0  0  0
 31 86  1  0  0  0  0
 32 66  2  0  0  0  0
 33 67  1  0  0  0  0
 33 70  1  0  0  0  0
 34 35  2  0  0  0  0
 34 44  1  0  0  0  0
 34 75  1  0  0  0  0
 36 71  1  0  0  0  0
 36 77  2  0  0  0  0
 37 53  1  0  0  0  0
 37 73  1  0  0  0  0
 37 78  2  0  0  0  0
 38 63  1  0  0  0  0
 38 68  1  0  0  0  0
 38 79  2  0  0  0  0
 39 64  1  0  0  0  0
 39 74  1  0  0  0  0
 39 80  2  0  0  0  0
 40 69  1  0  0  0  0
 40 72  1  0  0  0  0
 40 81  2  0  0  0  0
 41 45  1  0  0  0  0
 42 53  1  0  0  0  0
 43 68  1  0  0  0  0
 44 55  1  0  0  0  0
 45 47  1  0  0  0  0
 46 48  1  0  0  0  0
 46 49  1  0  0  0  0
 47 52  1  0  0  0  0
 48 54  1  0  0  0  0
 49 69  1  0  0  0  0
 50 54  1  0  0  0  0
 50 69  1  0  0  0  0
 51 55  1  0  0  0  0
 51 75  1  0  0  0  0
 52 73  1  0  0  0  0
 53 68  1  0  0  0  0
 54 67  1  0  0  0  0
 55 83  1  0  0  0  0
 57 64  1  0  0  0  0
 58 65  1  0  0  0  0
 59 65  1  0  0  0  0
 60 65  1  0  0  0  0
 61 76  1  0  0  0  0
 62 75  1  0  0  0  0
 63 65  1  0  0  0  0
 63 74  1  0  0  0  0
 64 76  1  0  0  0  0
 66 67  1  0  0  0  0
M  CHG  2  75   1  76   1
M  ISO  4  40 100  55 101  72 100  83 101
M  END
> <Batch ID>
0033

> <Smiles>
C=C1C[101CH:1]([101O:1]c2ccc3c(c2)CN(C(=O)C(NC(=O)C(C)NC)C(C)(C)C)C(C(=O)NC2CCCc4ccccc42)C3)CN1Cc1ccc(F)c([100NH:0][100C:0](=O)N2CCCC(n3nc(-c4ccc(Oc5ccc(F)cc5F)cc4)c(C(N)=O)c3N)C2)c1C

> <Shape>
0.212

> <Color>
0.188

> <Negative vol penalty>
0.000

$$$$

  -OEChem-04042321453D

 88 97  0     1  0  0  0  0  0999 V2000
  -27.7868  -24.3955   17.3592 C   0  0  0  0  0  0  0  0  0  0  0  0
  -26.5958  -24.7254   17.9981 C   0  0  0  0  0  0  0  0  0  0  0  0
  -27.7998  -14.7083   19.1632 C   0  0  0  0  0  0  0  0  0  0  0  0
  -25.8403  -15.8623   18.3472 C   0  0  0  0  0  0  0  0  0  0  0  0
  -29.0023  -24.8325   17.8839 C   0  0  0  0  0  0  0  0  0  0  0  0
  -26.6198  -25.4916   19.1629 C   0  0  0  0  0  0  0  0  0  0  0  0
  -23.1305  -29.1617   19.1462 C   0  0  0  0  0  0  0  0  0  0  0  0
  -27.3118  -13.5104   18.6413 C   0  0  0  0  0  0  0  0  0  0  0  0
  -25.3523  -14.6644   17.8252 C   0  0  0  0  0  0  0  0  0  0  0  0
  -21.8157  -28.7915   19.4254 C   0  0  0  0  0  0  0  0  0  0  0  0
  -25.8938  -12.7294   15.1080 C   0  0  0  0  0  0  0  0  0  0  0  0
  -25.3694  -12.7533   13.8158 C   0  0  0  0  0  0  0  0  0  0  0  0
  -22.0855  -29.5667   21.6937 C   0  0  0  0  0  0  0  0  0  0  0  0
  -21.0800  -22.6570   23.4698 C   0  0  0  0  0  0  0  0  0  0  0  0
  -23.2365  -12.0033   14.6675 C   0  0  0  0  0  0  0  0  0  0  0  0
  -27.0641  -15.8842   19.0163 C   0  0  0  0  0  0  0  0  0  0  0  0
  -28.3908  -18.0603   18.9052 C   0  0  0  0  0  0  0  0  0  0  0  0
  -29.0406  -25.6127   19.0504 C   0  0  0  0  0  0  0  0  0  0  0  0
  -23.9375  -29.7281   20.1433 C   0  0  0  0  0  0  0  0  0  0  0  0
  -27.8371  -25.9384   19.7045 C   0  0  0  0  0  0  0  0  0  0  0  0
  -23.4094  -29.9456   21.4239 C   0  0  0  0  0  0  0  0  0  0  0  0
  -21.3691  -24.0045   23.6853 C   0  0  0  0  0  0  0  0  0  0  0  0
  -22.6913  -24.4161   23.8523 C   0  0  0  0  0  0  0  0  0  0  0  0
  -23.7245  -23.4802   23.8039 C   0  0  0  0  0  0  0  0  0  0  0  0
  -23.4355  -22.1327   23.5885 C   0  0  0  0  0  0  0  0  0  0  0  0
  -26.0881  -13.4884   17.9722 C   0  0  0  0  0  0  0  0  0  0  0  0
  -21.2939  -28.9913   20.7001 C   0  0  0  0  0  0  0  0  0  0  0  0
  -25.0897  -12.3423   16.1801 C   0  0  0  0  0  0  0  0  0  0  0  0
  -24.0407  -12.3903   13.5955 C   0  0  0  0  0  0  0  0  0  0  0  0
  -23.7610  -11.9793   15.9598 C   0  0  0  0  0  0  0  0  0  0  0  0
  -22.1132  -21.7211   23.4215 C   0  0  0  0  0  0  0  0  0  0  0  0
  -27.5674  -17.1219   19.5557 C   0  0  0  0  0  0  0  0  0  0  0  0
  -28.5850  -19.0507   19.8367 C   0  0  0  0  0  0  0  0  0  0  0  0
  -18.3647  -25.8868   22.4761 C   0  0  0  0  0  0  0  0  0  0  0  0
  -17.2990  -25.1288   22.7573 C   0  0  0  0  0  0  0  0  0  0  0  0
  -28.9315  -18.0387   17.5775 C   0  0  0  0  0  0  0  0  0  0  0  0
  -26.6500  -28.8951   21.5758 C   0  0  0  0  0  0  0  0  0  0  0  0
  -26.3758  -31.8261   22.9382 C   0  0  0  0  0  0  0  0  0  0  0  0
  -24.3500  -34.4092   23.8714 C   0  0  0  0  0  0  0  0  0  0  0  0
  -25.4119  -20.9014   24.5496 C   0  0  0  0  0  0  0  0  0  0  0  0
  -30.3816  -26.0221   19.6062 C   0  0  0  0  0  0  0  0  0  0  0  0
  -25.3453  -30.1467   19.8187 C   0  0  0  0  0  0  0  0  0  0  0  0
  -24.2280  -30.5687   22.5239 C   0  0  0  0  0  0  0  0  0  0  0  0
  -18.3358  -27.3453   22.1445 C   0  0  0  0  0  0  0  0  0  0  0  0
  -30.2967  -27.1454   20.6363 C   0  0  0  0  0  0  0  0  0  0  0  0
  -28.7822  -19.7534   24.5698 C   0  0  0  0  0  0  0  0  0  0  0  0
  -29.1884  -26.8619   21.6453 C   0  0  0  0  0  0  0  0  0  0  0  0
  -28.9299  -19.0390   23.2244 C   0  0  0  0  0  0  0  0  0  0  0  0
  -27.3957  -19.5418   25.1751 C   0  0  0  0  0  0  0  0  0  0  0  0
  -26.4214  -19.1638   22.9442 C   0  0  0  0  0  0  0  0  0  0  0  0
  -20.4633  -26.3414   21.6152 C   0  0  0  0  0  0  0  0  0  0  0  0
  -27.8204  -26.7886   20.9563 C   0  0  1  0  0  0  0  0  0  0  0  0
  -26.2395  -30.2419   21.0511 C   0  0  1  0  0  0  0  0  0  0  0  0
  -27.7798  -19.4015   22.2646 C   0  0  2  0  0  0  0  0  0  0  0  0
  -19.8173  -27.6668   21.9958 C   0  0  1  0  0  0  0  0  0  1  0  0
  -22.9980  -25.8620   24.0840 C   0  0  0  0  0  0  0  0  0  0  0  0
  -25.1417  -23.9288   23.9838 C   0  0  0  0  0  0  0  0  0  0  0  0
  -17.3720  -23.6753   23.0833 C   0  0  0  0  0  0  0  0  0  0  0  0
  -24.4086  -36.6509   24.9976 C   0  0  0  0  0  0  0  0  0  0  0  0
  -26.6550  -30.4542   25.6492 C   0  0  0  0  0  0  0  0  0  0  0  0
  -25.7700  -32.5386   26.7171 C   0  0  0  0  0  0  0  0  0  0  0  0
  -27.9091  -32.6073   25.4356 C   0  0  0  0  0  0  0  0  0  0  0  0
  -23.3313  -35.7796   21.4541 C   0  0  0  0  0  0  0  0  0  0  0  0
  -20.2392  -24.9904   23.7321 C   0  0  0  0  0  0  0  0  0  0  0  0
  -25.7236  -32.3676   24.1873 C   0  0  1  0  0  0  0  0  0  0  0  0
  -24.4734  -35.9089   23.6717 C   0  0  2  0  0  0  0  0  0  0  0  0
  -26.4993  -31.9784   25.4773 C   0  0  0  0  0  0  0  0  0  0  0  0
  -27.2599  -17.4836   20.8042 N   0  0  0  0  0  0  0  0  0  0  0  0
  -27.8935  -18.6604   20.9456 N   0  0  0  0  0  0  0  0  0  0  0  0
  -25.6010  -30.9552   22.1590 N   0  0  0  0  0  0  0  0  0  0  0  0
  -26.3569  -19.9100   24.2107 N   0  0  0  0  0  0  0  0  0  0  0  0
  -29.2783  -20.2087   19.8074 N   0  0  0  0  0  0  0  0  0  0  0  0
  -28.6327  -16.9461   16.7520 N   0  0  0  0  0  0  0  0  0  0  0  0
  -24.4930  -21.1908   23.5415 N   0  0  0  0  0  0  0  0  0  0  0  0
  -27.3324  -28.1183   20.6591 N   0  0  0  0  0  0  0  0  0  0  0  0
  -25.5846  -33.8057   23.9847 N   0  0  0  0  0  0  0  0  0  0  0  0
  -19.6711  -25.2994   22.3764 N   0  3  1  0  0  0  0  0  0  0  0  0
  -23.3725  -36.4077   22.7997 N   0  3  0  0  0  0  0  0  0  0  0  0
  -29.6715  -18.9531   17.1417 O   0  0  0  0  0  0  0  0  0  0  0  0
  -26.3698  -28.5843   22.7275 O   0  0  0  0  0  0  0  0  0  0  0  0
  -27.5276  -32.1690   22.6601 O   0  0  0  0  0  0  0  0  0  0  0  0
  -23.2666  -33.8313   23.9255 O   0  0  0  0  0  0  0  0  0  0  0  0
  -25.4343  -21.4725   25.6430 O   0  0  0  0  0  0  0  0  0  0  0  0
  -25.6116  -12.3198   17.4625 O   0  0  0  0  0  0  0  0  0  0  0  0
  -20.0111  -28.6302   20.9755 O   0  0  0  0  0  0  0  0  0  1  0  0
  -23.5367  -12.4148   12.3547 F   0  0  0  0  0  0  0  0  0  0  0  0
  -22.9833  -11.6077   16.9859 F   0  0  0  0  0  0  0  0  0  0  0  0
  -21.7071  -20.0628   23.1522 Cl  0  0  0  0  0  0  0  0  0  0  0  0
  1  2  1  0  0  0  0
  1  5  2  0  0  0  0
  2  6  2  0  0  0  0
  3  8  2  0  0  0  0
  3 16  1  0  0  0  0
  4  9  1  0  0  0  0
  4 16  2  0  0  0  0
  5 18  1  0  0  0  0
  6 20  1  0  0  0  0
  7 10  2  0  0  0  0
  7 19  1  0  0  0  0
  8 26  1  0  0  0  0
  9 26  2  0  0  0  0
 10 27  1  0  0  0  0
 11 12  2  0  0  0  0
 11 28  1  0  0  0  0
 12 29  1  0  0  0  0
 13 21  1  0  0  0  0
 13 27  2  0  0  0  0
 14 22  1  0  0  0  0
 14 31  2  0  0  0  0
 15 29  2  0  0  0  0
 15 30  1  0  0  0  0
 16 32  1  0  0  0  0
 17 32  1  0  0  0  0
 17 33  2  0  0  0  0
 17 36  1  0  0  0  0
 18 20  2  0  0  0  0
 18 41  1  0  0  0  0
 19 21  2  0  0  0  0
 19 42  1  0  0  0  0
 20 52  1  0  0  0  0
 21 43  1  0  0  0  0
 22 23  2  0  0  0  0
 22 64  1  0  0  0  0
 23 24  1  0  0  0  0
 23 56  1  0  0  0  0
 24 25  2  0  0  0  0
 24 57  1  0  0  0  0
 25 31  1  0  0  0  0
 25 74  1  0  0  0  0
 26 84  1  0  0  0  0
 27 85  1  0  0  0  0
 28 30  2  0  0  0  0
 28 84  1  0  0  0  0
 29 86  1  0  0  0  0
 30 87  1  0  0  0  0
 31 88  1  0  0  0  0
 32 68  2  0  0  0  0
 33 69  1  0  0  0  0
 33 72  1  0  0  0  0
 34 35  2  0  0  0  0
 34 44  1  0  0  0  0
 34 77  1  0  0  0  0
 35 58  1  0  0  0  0
 36 73  1  0  0  0  0
 36 79  2  0  0  0  0
 37 53  1  0  0  0  0
 37 75  1  0  0  0  0
 37 80  2  0  0  0  0
 38 65  1  0  0  0  0
 38 70  1  0  0  0  0
 38 81  2  0  0  0  0
 39 66  1  0  0  0  0
 39 76  1  0  0  0  0
 39 82  2  0  0  0  0
 40 71  1  0  0  0  0
 40 74  1  0  0  0  0
 40 83  2  0  0  0  0
 41 45  1  0  0  0  0
 42 53  1  0  0  0  0
 43 70  1  0  0  0  0
 44 55  1  0  0  0  0
 45 47  1  0  0  0  0
 46 48  1  0  0  0  0
 46 49  1  0  0  0  0
 47 52  1  0  0  0  0
 48 54  1  0  0  0  0
 49 71  1  0  0  0  0
 50 54  1  0  0  0  0
 50 71  1  0  0  0  0
 51 55  1  0  0  0  0
 51 77  1  0  0  0  0
 52 75  1  0  0  0  0
 53 70  1  0  0  0  0
 54 69  1  0  0  0  0
 55 85  1  0  0  0  0
 59 66  1  0  0  0  0
 60 67  1  0  0  0  0
 61 67  1  0  0  0  0
 62 67  1  0  0  0  0
 63 78  1  0  0  0  0
 64 77  1  0  0  0  0
 65 67  1  0  0  0  0
 65 76  1  0  0  0  0
 66 78  1  0  0  0  0
 68 69  1  0  0  0  0
M  CHG  2  77   1  78   1
M  ISO  4  40 100  55 101  74 100  85 101
M  END
> <Batch ID>
0033

> <Smiles>
CC=C1C[101CH:1]([101O:1]c2ccc3c(c2)CN(C(=O)C(NC(=O)C(C)NC)C(C)(C)C)C(C(=O)NC2CCCc4ccccc42)C3)CN1Cc1cc(Cl)c([100NH:0][100C:0](=O)N2CCCC(n3nc(-c4ccc(Oc5ccc(F)cc5F)cc4)c(C(N)=O)c3N)C2)c(C)c1C

> <Shape>
0.259

> <Color>
0.069

> <Negative vol penalty>
0.000

$$$$

  -OEChem-04042321453D

 86 95  0     1  0  0  0  0  0999 V2000
  -15.3183  -21.0179   19.8712 C   0  0  0  0  0  0  0  0  0  0  0  0
  -15.9223  -19.7732   19.7253 C   0  0  0  0  0  0  0  0  0  0  0  0
  -27.6134  -23.5499   20.7062 C   0  0  0  0  0  0  0  0  0  0  0  0
  -28.8633  -23.4839   18.6397 C   0  0  0  0  0  0  0  0  0  0  0  0
  -16.0911  -22.1332   20.1919 C   0  0  0  0  0  0  0  0  0  0  0  0
  -17.2997  -19.6433   19.8991 C   0  0  0  0  0  0  0  0  0  0  0  0
  -20.2741  -14.8478   22.2786 C   0  0  0  0  0  0  0  0  0  0  0  0
  -29.6422  -12.5675   19.7424 C   0  0  0  0  0  0  0  0  0  0  0  0
  -28.6414  -11.7274   20.2302 C   0  0  0  0  0  0  0  0  0  0  0  0
  -27.6832  -24.9430   20.7039 C   0  0  0  0  0  0  0  0  0  0  0  0
  -28.9330  -24.8770   18.6373 C   0  0  0  0  0  0  0  0  0  0  0  0
  -20.9421  -13.7735   21.6927 C   0  0  0  0  0  0  0  0  0  0  0  0
  -27.2208  -28.5318   21.0533 C   0  0  0  0  0  0  0  0  0  0  0  0
  -26.0559  -29.2400   21.3483 C   0  0  0  0  0  0  0  0  0  0  0  0
  -23.0327  -14.9543   21.9254 C   0  0  0  0  0  0  0  0  0  0  0  0
  -28.7104  -12.3875   17.5206 C   0  0  0  0  0  0  0  0  0  0  0  0
  -24.9572  -28.2223   19.4524 C   0  0  0  0  0  0  0  0  0  0  0  0
  -28.2035  -22.8203   19.6741 C   0  0  0  0  0  0  0  0  0  0  0  0
  -27.1314  -20.5788   19.0963 C   0  0  0  0  0  0  0  0  0  0  0  0
  -17.4773  -22.0151   20.3791 C   0  0  0  0  0  0  0  0  0  0  0  0
  -20.9801  -15.9899   22.6831 C   0  0  0  0  0  0  0  0  0  0  0  0
  -18.0920  -20.7583   20.2212 C   0  0  0  0  0  0  0  0  0  0  0  0
  -22.3717  -16.0407   22.5186 C   0  0  0  0  0  0  0  0  0  0  0  0
  -29.6767  -12.8977   18.3875 C   0  0  0  0  0  0  0  0  0  0  0  0
  -27.6751  -11.2172   19.3632 C   0  0  0  0  0  0  0  0  0  0  0  0
  -27.7096  -11.5473   18.0084 C   0  0  0  0  0  0  0  0  0  0  0  0
  -28.3430  -25.6066   19.6695 C   0  0  0  0  0  0  0  0  0  0  0  0
  -22.3212  -13.8278   21.5133 C   0  0  0  0  0  0  0  0  0  0  0  0
  -27.2540  -27.6689   19.9578 C   0  0  0  0  0  0  0  0  0  0  0  0
  -24.9241  -29.0852   20.5479 C   0  0  0  0  0  0  0  0  0  0  0  0
  -26.1222  -27.5141   19.1574 C   0  0  0  0  0  0  0  0  0  0  0  0
  -28.1322  -21.3812   19.6762 C   0  0  0  0  0  0  0  0  0  0  0  0
  -27.5211  -19.2910   19.3722 C   0  0  0  0  0  0  0  0  0  0  0  0
  -24.2727  -10.1282   20.6024 C   0  0  0  0  0  0  0  0  0  0  0  0
  -23.8175   -9.0706   19.9204 C   0  0  0  0  0  0  0  0  0  0  0  0
  -25.9547  -20.9631   18.3729 C   0  0  0  0  0  0  0  0  0  0  0  0
  -20.9305  -19.0625   21.8706 C   0  0  0  0  0  0  0  0  0  0  0  0
  -23.0269  -19.3450   24.3298 C   0  0  0  0  0  0  0  0  0  0  0  0
  -25.3502  -17.8608   26.3413 C   0  0  0  0  0  0  0  0  0  0  0  0
  -31.4681  -15.3558   19.6564 C   0  0  0  0  0  0  0  0  0  0  0  0
  -18.2779  -23.2578   20.6784 C   0  0  0  0  0  0  0  0  0  0  0  0
  -20.2484  -17.1292   23.3380 C   0  0  0  0  0  0  0  0  0  0  0  0
  -23.1786  -17.2355   22.9542 C   0  0  0  0  0  0  0  0  0  0  0  0
  -23.6871  -10.6595   21.8734 C   0  0  0  0  0  0  0  0  0  0  0  0
  -19.6773  -22.9664   21.2140 C   0  0  0  0  0  0  0  0  0  0  0  0
  -31.1249  -17.5306   22.4544 C   0  0  0  0  0  0  0  0  0  0  0  0
  -20.3585  -21.8924   20.3718 C   0  0  0  0  0  0  0  0  0  0  0  0
  -30.2388  -18.6625   21.9314 C   0  0  0  0  0  0  0  0  0  0  0  0
  -32.0853  -17.0237   21.3808 C   0  0  0  0  0  0  0  0  0  0  0  0
  -30.5574  -17.7564   19.5913 C   0  0  0  0  0  0  0  0  0  0  0  0
  -25.3087  -12.1958   20.9728 C   0  0  0  0  0  0  0  0  0  0  0  0
  -19.5798  -20.5725   20.4261 C   0  0  1  0  0  0  0  0  0  0  0  0
  -20.9984  -18.4543   23.2429 C   0  0  1  0  0  0  0  0  0  0  0  0
  -29.5334  -18.2628   20.6215 C   0  0  2  0  0  0  0  0  0  0  0  0
  -23.9831  -12.1431   21.7190 C   0  0  1  0  0  0  0  0  0  1  0  0
  -26.6858  -11.0128   17.0614 C   0  0  0  0  0  0  0  0  0  0  0  0
  -26.9205  -18.3560   28.2351 C   0  0  0  0  0  0  0  0  0  0  0  0
  -24.9208  -20.7451   22.3900 C   0  0  0  0  0  0  0  0  0  0  0  0
  -26.7731  -20.3601   24.0299 C   0  0  0  0  0  0  0  0  0  0  0  0
  -24.8168  -21.7697   24.6690 C   0  0  0  0  0  0  0  0  0  0  0  0
  -24.0077  -15.9111   28.1176 C   0  0  0  0  0  0  0  0  0  0  0  0
  -30.7472  -13.7956   17.8661 C   0  0  0  0  0  0  0  0  0  0  0  0
  -26.6091  -10.3146   19.9109 C   0  0  0  0  0  0  0  0  0  0  0  0
  -24.5279  -19.2660   24.4695 C   0  0  1  0  0  0  0  0  0  0  0  0
  -25.5318  -17.8715   27.8484 C   0  0  2  0  0  0  0  0  0  0  0  0
  -25.2445  -20.5133   23.8795 C   0  0  0  0  0  0  0  0  0  0  0  0
  -29.0859  -20.6633   20.2754 N   0  0  0  0  0  0  0  0  0  0  0  0
  -28.6861  -19.3962   20.0736 N   0  0  0  0  0  0  0  0  0  0  0  0
  -22.4167  -18.3267   23.5837 N   0  0  0  0  0  0  0  0  0  0  0  0
  -31.3531  -16.6599   20.1653 N   0  0  0  0  0  0  0  0  0  0  0  0
  -26.9774  -18.0901   19.0810 N   0  0  0  0  0  0  0  0  0  0  0  0
  -25.7056  -22.3287   18.1794 N   0  0  0  0  0  0  0  0  0  0  0  0
  -19.8375  -19.8846   21.6731 N   0  0  0  0  0  0  0  0  0  0  0  0
  -24.7947  -19.0377   25.8855 N   0  0  0  0  0  0  0  0  0  0  0  0
  -30.7363  -15.0927   18.5049 N   0  0  0  0  0  0  0  0  0  0  0  0
  -25.2764  -10.9893   20.0381 N   0  3  1  0  0  0  0  0  0  0  0  0
  -25.3407  -16.5015   28.4029 N   0  3  0  0  0  0  0  0  0  0  0  0
  -25.1395  -20.1210   17.9258 O   0  0  0  0  0  0  0  0  0  0  0  0
  -21.8057  -18.8061   21.0522 O   0  0  0  0  0  0  0  0  0  0  0  0
  -22.4173  -20.2720   24.8691 O   0  0  0  0  0  0  0  0  0  0  0  0
  -25.6726  -16.9056   25.6383 O   0  0  0  0  0  0  0  0  0  0  0  0
  -32.1667  -14.4885   20.1918 O   0  0  0  0  0  0  0  0  0  0  0  0
  -28.4111  -26.9659   19.6668 O   0  0  0  0  0  0  0  0  0  0  0  0
  -22.9757  -12.7809   20.9410 O   0  0  0  0  0  0  0  0  0  1  0  0
  -23.8050  -29.7642   20.8321 F   0  0  0  0  0  0  0  0  0  0  0  0
  -26.1476  -26.6857   18.1044 F   0  0  0  0  0  0  0  0  0  0  0  0
  1  2  1  0  0  0  0
  1  5  2  0  0  0  0
  2  6  2  0  0  0  0
  3 10  2  0  0  0  0
  3 18  1  0  0  0  0
  4 11  1  0  0  0  0
  4 18  2  0  0  0  0
  5 20  1  0  0  0  0
  6 22  1  0  0  0  0
  7 12  2  0  0  0  0
  7 21  1  0  0  0  0
  8  9  2  0  0  0  0
  8 24  1  0  0  0  0
  9 25  1  0  0  0  0
 10 27  1  0  0  0  0
 11 27  2  0  0  0  0
 12 28  1  0  0  0  0
 13 14  2  0  0  0  0
 13 29  1  0  0  0  0
 14 30  1  0  0  0  0
 15 23  1  0  0  0  0
 15 28  2  0  0  0  0
 16 24  2  0  0  0  0
 16 26  1  0  0  0  0
 17 30  2  0  0  0  0
 17 31  1  0  0  0  0
 18 32  1  0  0  0  0
 19 32  1  0  0  0  0
 19 33  2  0  0  0  0
 19 36  1  0  0  0  0
 20 22  2  0  0  0  0
 20 41  1  0  0  0  0
 21 23  2  0  0  0  0
 21 42  1  0  0  0  0
 22 52  1  0  0  0  0
 23 43  1  0  0  0  0
 24 62  1  0  0  0  0
 25 26  2  0  0  0  0
 25 63  1  0  0  0  0
 26 56  1  0  0  0  0
 27 83  1  0  0  0  0
 28 84  1  0  0  0  0
 29 31  2  0  0  0  0
 29 83  1  0  0  0  0
 30 85  1  0  0  0  0
 31 86  1  0  0  0  0
 32 67  2  0  0  0  0
 33 68  1  0  0  0  0
 33 71  1  0  0  0  0
 34 35  2  0  0  0  0
 34 44  1  0  0  0  0
 34 76  1  0  0  0  0
 36 72  1  0  0  0  0
 36 78  2  0  0  0  0
 37 53  1  0  0  0  0
 37 73  1  0  0  0  0
 37 79  2  0  0  0  0
 38 64  1  0  0  0  0
 38 69  1  0  0  0  0
 38 80  2  0  0  0  0
 39 65  1  0  0  0  0
 39 74  1  0  0  0  0
 39 81  2  0  0  0  0
 40 70  1  0  0  0  0
 40 75  1  0  0  0  0
 40 82  2  0  0  0  0
 41 45  1  0  0  0  0
 42 53  1  0  0  0  0
 43 69  1  0  0  0  0
 44 55  1  0  0  0  0
 45 47  1  0  0  0  0
 46 48  1  0  0  0  0
 46 49  1  0  0  0  0
 47 52  1  0  0  0  0
 48 54  1  0  0  0  0
 49 70  1  0  0  0  0
 50 54  1  0  0  0  0
 50 70  1  0  0  0  0
 51 55  1  0  0  0  0
 51 76  1  0  0  0  0
 52 73  1  0  0  0  0
 53 69  1  0  0  0  0
 54 68  1  0  0  0  0
 55 84  1  0  0  0  0
 57 65  1  0  0  0  0
 58 66  1  0  0  0  0
 59 66  1  0  0  0  0
 60 66  1  0  0  0  0
 61 77  1  0  0  0  0
 62 75  1  0  0  0  0
 63 76  1  0  0  0  0
 64 66  1  0  0  0  0
 64 74  1  0  0  0  0
 65 77  1  0  0  0  0
 67 68  1  0  0  0  0
M  CHG  2  76   1  77   1
M  ISO  4  40 100  55 101  75 100  84 101
M  END
> <Batch ID>
0033

> <Smiles>
C=C1C[101CH:1]([101O:1]c2ccc3c(c2)CN(C(=O)C(NC(=O)C(C)NC)C(C)(C)C)C(C(=O)NC2CCCc4ccccc42)C3)CN1Cc1ccc(C[100NH:0][100C:0](=O)N2CCCC(n3nc(-c4ccc(Oc5ccc(F)cc5F)cc4)c(C(N)=O)c3N)C2)cc1C

> <Shape>
0.207

> <Color>
0.072

> <Negative vol penalty>
0.000

$$$$

  -OEChem-04042321453D

 84 92  0     1  0  0  0  0  0999 V2000
  -24.1682  -23.5147   14.9299 C   0  0  0  0  0  0  0  0  0  0  0  0
  -24.2113  -22.4699   15.8475 C   0  0  0  0  0  0  0  0  0  0  0  0
  -26.3555  -25.9571   17.7043 C   0  0  0  0  0  0  0  0  0  0  0  0
  -26.1968  -25.6296   20.0928 C   0  0  0  0  0  0  0  0  0  0  0  0
  -23.3159  -24.5966   15.1468 C   0  0  0  0  0  0  0  0  0  0  0  0
  -23.4029  -22.5068   16.9830 C   0  0  0  0  0  0  0  0  0  0  0  0
  -21.1169  -18.0791   17.8854 C   0  0  0  0  0  0  0  0  0  0  0  0
  -27.6246  -12.0877   19.8798 C   0  0  0  0  0  0  0  0  0  0  0  0
  -25.4590  -27.0222   17.7908 C   0  0  0  0  0  0  0  0  0  0  0  0
  -25.3004  -26.6948   20.1793 C   0  0  0  0  0  0  0  0  0  0  0  0
  -21.8843  -17.0745   18.4732 C   0  0  0  0  0  0  0  0  0  0  0  0
  -23.2481  -29.5577   21.0794 C   0  0  0  0  0  0  0  0  0  0  0  0
  -23.4391  -30.4856   22.1031 C   0  0  0  0  0  0  0  0  0  0  0  0
  -28.4613  -11.2855   19.1040 C   0  0  0  0  0  0  0  0  0  0  0  0
  -20.9096  -17.5934   20.6180 C   0  0  0  0  0  0  0  0  0  0  0  0
  -30.0974  -13.0618   19.0317 C   0  0  0  0  0  0  0  0  0  0  0  0
  -25.6307  -31.0013   21.2267 C   0  0  0  0  0  0  0  0  0  0  0  0
  -26.7243  -25.2607   18.8553 C   0  0  0  0  0  0  0  0  0  0  0  0
  -29.0527  -24.2186   18.8680 C   0  0  0  0  0  0  0  0  0  0  0  0
  -22.4895  -24.6422   16.2807 C   0  0  0  0  0  0  0  0  0  0  0  0
  -20.2467  -18.8570   18.6626 C   0  0  0  0  0  0  0  0  0  0  0  0
  -22.5397  -23.5910   17.2159 C   0  0  0  0  0  0  0  0  0  0  0  0
  -20.1304  -18.6055   20.0371 C   0  0  0  0  0  0  0  0  0  0  0  0
  -28.0242  -13.3770   20.2315 C   0  0  0  0  0  0  0  0  0  0  0  0
  -29.2606  -13.8640   19.8075 C   0  0  0  0  0  0  0  0  0  0  0  0
  -24.9315  -27.3911   19.0282 C   0  0  0  0  0  0  0  0  0  0  0  0
  -21.7829  -16.8334   19.8402 C   0  0  0  0  0  0  0  0  0  0  0  0
  -24.2484  -29.3515   20.1293 C   0  0  0  0  0  0  0  0  0  0  0  0
  -24.6304  -31.2074   22.1768 C   0  0  0  0  0  0  0  0  0  0  0  0
  -25.4397  -30.0734   20.2029 C   0  0  0  0  0  0  0  0  0  0  0  0
  -29.6977  -11.7725   18.6800 C   0  0  0  0  0  0  0  0  0  0  0  0
  -27.6498  -24.1600   18.7666 C   0  0  0  0  0  0  0  0  0  0  0  0
  -29.4626  -22.9164   18.7175 C   0  0  0  0  0  0  0  0  0  0  0  0
  -29.9088  -25.3491   19.0794 C   0  0  0  0  0  0  0  0  0  0  0  0
  -20.0270  -21.9481   19.3701 C   0  0  0  0  0  0  0  0  0  0  0  0
  -17.2691  -21.0242   20.8061 C   0  0  0  0  0  0  0  0  0  0  0  0
  -24.7685  -15.0443   20.8568 C   0  0  0  0  0  0  0  0  0  0  0  0
  -15.4518  -18.5229   22.2512 C   0  0  0  0  0  0  0  0  0  0  0  0
  -28.9914  -17.6077   19.9595 C   0  0  0  0  0  0  0  0  0  0  0  0
  -21.6192  -25.8550   16.4963 C   0  0  0  0  0  0  0  0  0  0  0  0
  -19.4060  -19.9190   18.0087 C   0  0  0  0  0  0  0  0  0  0  0  0
  -19.1960  -19.3990   20.9122 C   0  0  0  0  0  0  0  0  0  0  0  0
  -20.5205  -25.6395   17.5340 C   0  0  0  0  0  0  0  0  0  0  0  0
  -26.9028  -18.8047   17.2572 C   0  0  0  0  0  0  0  0  0  0  0  0
  -21.0875  -24.9662   18.7798 C   0  0  0  0  0  0  0  0  0  0  0  0
  -27.0307  -20.3201   17.4222 C   0  0  0  0  0  0  0  0  0  0  0  0
  -26.8629  -18.1025   18.6113 C   0  0  0  0  0  0  0  0  0  0  0  0
  -28.1516  -19.9206   19.6636 C   0  0  0  0  0  0  0  0  0  0  0  0
  -21.6599  -23.5830   18.4472 C   0  0  1  0  0  0  0  0  0  0  0  0
  -18.9336  -20.9922   18.9847 C   0  0  1  0  0  0  0  0  0  0  0  0
  -28.2199  -20.6865   18.3299 C   0  0  2  0  0  0  0  0  0  0  0  0
  -13.2471  -18.0805   23.3651 C   0  0  0  0  0  0  0  0  0  0  0  0
  -18.2798  -22.3866   23.3422 C   0  0  0  0  0  0  0  0  0  0  0  0
  -16.5417  -21.1251   24.6291 C   0  0  0  0  0  0  0  0  0  0  0  0
  -15.8517  -22.7452   22.8622 C   0  0  0  0  0  0  0  0  0  0  0  0
  -14.6690  -16.5575   20.1816 C   0  0  0  0  0  0  0  0  0  0  0  0
  -27.1065  -14.2225   21.0665 C   0  0  0  0  0  0  0  0  0  0  0  0
  -29.7089  -15.2417   20.1705 C   0  0  0  0  0  0  0  0  0  0  0  0
  -23.7961  -15.5675   19.8213 C   0  0  0  0  0  0  0  0  0  1  0  0
  -16.8916  -20.5421   22.1860 C   0  0  1  0  0  0  0  0  0  0  0  0
  -14.0142  -18.0779   22.0520 C   0  0  2  0  0  0  0  0  0  0  0  0
  -16.9103  -21.6859   23.2390 C   0  0  0  0  0  0  0  0  0  0  0  0
  -27.1987  -22.9188   18.5669 N   0  0  0  0  0  0  0  0  0  0  0  0
  -28.3246  -22.1854   18.5416 N   0  0  0  0  0  0  0  0  0  0  0  0
  -18.3998  -20.4307   20.2272 N   0  0  0  0  0  0  0  0  0  0  0  0
  -28.0316  -18.4795   19.4188 N   0  0  0  0  0  0  0  0  0  0  0  0
  -30.6817  -22.3367   18.7197 N   0  0  0  0  0  0  0  0  0  0  0  0
  -29.3228  -26.6152   19.2133 N   0  0  0  0  0  0  0  0  0  0  0  0
  -20.5928  -22.6163   18.3010 N   0  0  0  0  0  0  0  0  0  0  0  0
  -25.9996  -14.7413   20.2967 N   0  0  0  0  0  0  0  0  0  0  0  0
  -15.5998  -19.8786   22.0474 N   0  0  0  0  0  0  0  0  0  0  0  0
  -28.8013  -16.2584   19.6872 N   0  0  0  0  0  0  0  0  0  0  0  0
  -13.9722  -16.7000   21.4859 N   0  3  0  0  0  0  0  0  0  0  0  0
  -31.1576  -25.2421   19.1312 O   0  0  0  0  0  0  0  0  0  0  0  0
  -20.3336  -22.0714   20.5501 O   0  0  0  0  0  0  0  0  0  0  0  0
  -16.5816  -21.8900   20.2590 O   0  0  0  0  0  0  0  0  0  0  0  0
  -24.4715  -14.9143   22.0413 O   0  0  0  0  0  0  0  0  0  0  0  0
  -16.3528  -17.7463   22.5606 O   0  0  0  0  0  0  0  0  0  0  0  0
  -29.9504  -18.0030   20.6311 O   0  0  0  0  0  0  0  0  0  0  0  0
  -24.0569  -28.4305   19.1130 O   0  0  0  0  0  0  0  0  0  0  0  0
  -22.5313  -15.8539   20.4167 O   0  0  0  0  0  0  0  0  0  1  0  0
  -24.8131  -32.0995   23.1591 F   0  0  0  0  0  0  0  0  0  0  0  0
  -26.4038  -29.8806   19.2924 F   0  0  0  0  0  0  0  0  0  0  0  0
  -30.7288  -10.7831   17.7215 Cl  0  0  0  0  0  0  0  0  0  0  0  0
  1  2  1  0  0  0  0
  1  5  2  0  0  0  0
  2  6  2  0  0  0  0
  3  9  2  0  0  0  0
  3 18  1  0  0  0  0
  4 10  1  0  0  0  0
  4 18  2  0  0  0  0
  5 20  1  0  0  0  0
  6 22  1  0  0  0  0
  7 11  2  0  0  0  0
  7 21  1  0  0  0  0
  8 14  2  0  0  0  0
  8 24  1  0  0  0  0
  9 26  1  0  0  0  0
 10 26  2  0  0  0  0
 11 27  1  0  0  0  0
 12 13  2  0  0  0  0
 12 28  1  0  0  0  0
 13 29  1  0  0  0  0
 14 31  1  0  0  0  0
 15 23  1  0  0  0  0
 15 27  2  0  0  0  0
 16 25  1  0  0  0  0
 16 31  2  0  0  0  0
 17 29  2  0  0  0  0
 17 30  1  0  0  0  0
 18 32  1  0  0  0  0
 19 32  1  0  0  0  0
 19 33  2  0  0  0  0
 19 34  1  0  0  0  0
 20 22  2  0  0  0  0
 20 40  1  0  0  0  0
 21 23  2  0  0  0  0
 21 41  1  0  0  0  0
 22 49  1  0  0  0  0
 23 42  1  0  0  0  0
 24 25  2  0  0  0  0
 24 57  1  0  0  0  0
 25 58  1  0  0  0  0
 26 80  1  0  0  0  0
 27 81  1  0  0  0  0
 28 30  2  0  0  0  0
 28 80  1  0  0  0  0
 29 82  1  0  0  0  0
 30 83  1  0  0  0  0
 31 84  1  0  0  0  0
 32 63  2  0  0  0  0
 33 64  1  0  0  0  0
 33 67  1  0  0  0  0
 34 68  1  0  0  0  0
 34 74  2  0  0  0  0
 35 50  1  0  0  0  0
 35 69  1  0  0  0  0
 35 75  2  0  0  0  0
 36 60  1  0  0  0  0
 36 65  1  0  0  0  0
 36 76  2  0  0  0  0
 37 59  1  0  0  0  0
 37 70  1  0  0  0  0
 37 77  2  0  0  0  0
 38 61  1  0  0  0  0
 38 71  1  0  0  0  0
 38 78  2  0  0  0  0
 39 66  1  0  0  0  0
 39 72  1  0  0  0  0
 39 79  2  0  0  0  0
 40 43  1  0  0  0  0
 41 50  1  0  0  0  0
 42 65  1  0  0  0  0
 43 45  1  0  0  0  0
 44 46  1  0  0  0  0
 44 47  1  0  0  0  0
 45 49  1  0  0  0  0
 46 51  1  0  0  0  0
 47 66  1  0  0  0  0
 48 51  1  0  0  0  0
 48 66  1  0  0  0  0
 49 69  1  0  0  0  0
 50 65  1  0  0  0  0
 51 64  1  0  0  0  0
 52 61  1  0  0  0  0
 53 62  1  0  0  0  0
 54 62  1  0  0  0  0
 55 62  1  0  0  0  0
 56 73  1  0  0  0  0
 57 70  1  0  0  0  0
 58 72  1  0  0  0  0
 59 81  1  0  0  0  0
 60 62  1  0  0  0  0
 60 71  1  0  0  0  0
 61 73  1  0  0  0  0
 63 64  1  0  0  0  0
M  CHG  1  73   1
M  ISO  4  39 100  59 101  72 100  81 101
M  END
> <Batch ID>
0033

> <Smiles>
CNC(C)C(=O)NC(C(=O)N1Cc2cc([101O:1][101CH2:1]C(=O)NCc3ccc(Cl)cc3C[100NH:0][100C:0](=O)N3CCCC(n4nc(-c5ccc(Oc6ccc(F)cc6F)cc5)c(C(N)=O)c4N)C3)ccc2CC1C(=O)NC1CCCc2ccccc21)C(C)(C)C

> <Shape>
0.195

> <Color>
0.075

> <Negative vol penalty>
0.000

$$$$

  -OEChem-04042321453D

 87 96  0     1  0  0  0  0  0999 V2000
  -21.6227  -34.6844   25.4669 C   0  0  0  0  0  0  0  0  0  0  0  0
  -22.2017  -33.6021   26.1217 C   0  0  0  0  0  0  0  0  0  0  0  0
  -22.6712  -10.2679   20.1914 C   0  0  0  0  0  0  0  0  0  0  0  0
  -24.2945   -9.5442   21.8279 C   0  0  0  0  0  0  0  0  0  0  0  0
  -21.1840  -34.5478   24.1505 C   0  0  0  0  0  0  0  0  0  0  0  0
  -22.3414  -32.3822   25.4608 C   0  0  0  0  0  0  0  0  0  0  0  0
  -26.9120  -28.3552   26.0927 C   0  0  0  0  0  0  0  0  0  0  0  0
  -21.9332   -9.1044   20.4088 C   0  0  0  0  0  0  0  0  0  0  0  0
  -23.5565   -8.3807   22.0454 C   0  0  0  0  0  0  0  0  0  0  0  0
  -27.0319  -27.1813   26.8353 C   0  0  0  0  0  0  0  0  0  0  0  0
  -20.7781   -7.4762   23.7434 C   0  0  0  0  0  0  0  0  0  0  0  0
  -20.5695   -7.0804   25.0645 C   0  0  0  0  0  0  0  0  0  0  0  0
  -26.4102  -25.8953   24.8914 C   0  0  0  0  0  0  0  0  0  0  0  0
  -29.3746  -18.9041   22.3524 C   0  0  0  0  0  0  0  0  0  0  0  0
  -28.9185  -18.2145   25.0168 C   0  0  0  0  0  0  0  0  0  0  0  0
  -21.7023   -4.9936   24.6181 C   0  0  0  0  0  0  0  0  0  0  0  0
  -23.8519  -10.4878   20.9009 C   0  0  0  0  0  0  0  0  0  0  0  0
  -24.1848  -13.0167   20.8621 C   0  0  0  0  0  0  0  0  0  0  0  0
  -21.3273  -33.3284   23.4699 C   0  0  0  0  0  0  0  0  0  0  0  0
  -26.5290  -28.3086   24.7445 C   0  0  0  0  0  0  0  0  0  0  0  0
  -21.9031  -32.2288   24.1345 C   0  0  0  0  0  0  0  0  0  0  0  0
  -26.2886  -27.0698   24.1332 C   0  0  0  0  0  0  0  0  0  0  0  0
  -28.5618  -19.7080   23.1516 C   0  0  0  0  0  0  0  0  0  0  0  0
  -29.9593  -17.7553   22.8854 C   0  0  0  0  0  0  0  0  0  0  0  0
  -28.3338  -19.3632   24.4838 C   0  0  0  0  0  0  0  0  0  0  0  0
  -22.3758   -8.1608   21.3359 C   0  0  0  0  0  0  0  0  0  0  0  0
  -26.7782  -25.9513   26.2354 C   0  0  0  0  0  0  0  0  0  0  0  0
  -21.4488   -6.6308   22.8596 C   0  0  0  0  0  0  0  0  0  0  0  0
  -21.0316   -5.8391   25.5019 C   0  0  0  0  0  0  0  0  0  0  0  0
  -21.9109   -5.3895   23.2970 C   0  0  0  0  0  0  0  0  0  0  0  0
  -29.7313  -17.4105   24.2176 C   0  0  0  0  0  0  0  0  0  0  0  0
  -24.6150  -11.6892   20.6763 C   0  0  0  0  0  0  0  0  0  0  0  0
  -25.2714  -13.7815   20.5145 C   0  0  0  0  0  0  0  0  0  0  0  0
  -22.9165  -13.5139   21.3090 C   0  0  0  0  0  0  0  0  0  0  0  0
  -24.0722  -29.4333   23.0703 C   0  0  0  0  0  0  0  0  0  0  0  0
  -25.7759  -28.3063   20.5504 C   0  0  0  0  0  0  0  0  0  0  0  0
  -28.1421  -26.1379   19.3904 C   0  0  0  0  0  0  0  0  0  0  0  0
  -30.7534  -14.8124   20.6889 C   0  0  0  0  0  0  0  0  0  0  0  0
  -20.7951  -33.2153   22.0633 C   0  0  0  0  0  0  0  0  0  0  0  0
  -26.4302  -29.5820   23.9501 C   0  0  0  0  0  0  0  0  0  0  0  0
  -25.8943  -26.9641   22.6834 C   0  0  0  0  0  0  0  0  0  0  0  0
  -21.3207  -31.9964   21.3094 C   0  0  0  0  0  0  0  0  0  0  0  0
  -29.6022  -12.5048   18.2340 C   0  0  0  0  0  0  0  0  0  0  0  0
  -29.8612  -22.5289   27.2312 C   0  0  0  0  0  0  0  0  0  0  0  0
  -21.2326  -30.7493   22.1833 C   0  0  0  0  0  0  0  0  0  0  0  0
  -28.1695  -12.1919   18.6694 C   0  0  0  0  0  0  0  0  0  0  0  0
  -28.8905  -23.6460   27.5907 C   0  0  0  0  0  0  0  0  0  0  0  0
  -30.5292  -12.6886   19.4336 C   0  0  0  0  0  0  0  0  0  0  0  0
  -28.6375  -13.3667   20.8603 C   0  0  0  0  0  0  0  0  0  0  0  0
  -29.1319  -21.2336   26.9043 C   0  0  0  0  0  0  0  0  0  0  0  0
  -27.1207  -22.5417   26.1737 C   0  0  0  0  0  0  0  0  0  0  0  0
  -22.0946  -30.8964   23.4430 C   0  0  1  0  0  0  0  0  0  0  0  0
  -25.5338  -29.4523   22.7224 C   0  0  1  0  0  0  0  0  0  0  0  0
  -27.6535  -13.2281   19.6860 C   0  0  2  0  0  0  0  0  0  0  0  0
  -27.8406  -23.8432   26.5017 C   0  0  1  0  0  0  0  0  0  1  0  0
  -27.9441  -20.9322   22.5596 C   0  0  0  0  0  0  0  0  0  0  0  0
  -29.2935  -25.4241   17.2781 C   0  0  0  0  0  0  0  0  0  0  0  0
  -23.2817  -26.7592   19.7165 C   0  0  0  0  0  0  0  0  0  0  0  0
  -24.7289  -25.3710   18.2176 C   0  0  0  0  0  0  0  0  0  0  0  0
  -24.5270  -27.8267   17.8286 C   0  0  0  0  0  0  0  0  0  0  0  0
  -30.7960  -26.9334   20.4309 C   0  0  0  0  0  0  0  0  0  0  0  0
  -30.8234  -16.9208   21.9962 C   0  0  0  0  0  0  0  0  0  0  0  0
  -27.4610  -20.2112   25.3614 C   0  0  0  0  0  0  0  0  0  0  0  0
  -25.8513  -26.9910   19.8134 C   0  0  1  0  0  0  0  0  0  0  0  0
  -29.3431  -26.3470   18.4857 C   0  0  2  0  0  0  0  0  0  0  0  0
  -24.6027  -26.7387   18.9219 C   0  0  0  0  0  0  0  0  0  0  0  0
  -25.8764  -11.6116   20.2440 N   0  0  0  0  0  0  0  0  0  0  0  0
  -26.2481  -12.9000   20.1553 N   0  0  0  0  0  0  0  0  0  0  0  0
  -25.8049  -28.2378   21.9505 N   0  0  0  0  0  0  0  0  0  0  0  0
  -29.9833  -13.6852   20.3581 N   0  0  0  0  0  0  0  0  0  0  0  0
  -25.4770  -15.1154   20.4840 N   0  0  0  0  0  0  0  0  0  0  0  0
  -22.7227  -13.7112   22.6830 N   0  0  0  0  0  0  0  0  0  0  0  0
  -23.4911  -30.6857   23.1273 N   0  0  0  0  0  0  0  0  0  0  0  0
  -27.1142  -27.0041   19.0832 N   0  0  0  0  0  0  0  0  0  0  0  0
  -30.1588  -15.7106   21.5666 N   0  0  0  0  0  0  0  0  0  0  0  0
  -28.1290  -21.4841   25.8032 N   0  3  2  0  0  0  0  0  0  0  0  0
  -30.6056  -26.0789   19.2307 N   0  3  0  0  0  0  0  0  0  0  0  0
  -21.9771  -13.7600   20.5149 O   0  0  0  0  0  0  0  0  0  0  0  0
  -23.5128  -28.3616   23.2707 O   0  0  0  0  0  0  0  0  0  0  0  0
  -25.7014  -29.3564   19.9074 O   0  0  0  0  0  0  0  0  0  0  0  0
  -28.1168  -25.2884   20.2782 O   0  0  0  0  0  0  0  0  0  0  0  0
  -31.8847  -15.0067   20.2315 O   0  0  0  0  0  0  0  0  0  0  0  0
  -21.6558   -7.0255   21.5485 O   0  0  0  0  0  0  0  0  0  0  0  0
  -26.8938  -24.8041   26.9581 O   0  0  0  0  0  0  0  0  0  1  0  0
  -20.8326   -5.4598   26.7710 F   0  0  0  0  0  0  0  0  0  0  0  0
  -22.5570   -4.5734   22.4529 F   0  0  0  0  0  0  0  0  0  0  0  0
  -30.4375  -15.9967   24.9116 Cl  0  0  0  0  0  0  0  0  0  0  0  0
  1  2  1  0  0  0  0
  1  5  2  0  0  0  0
  2  6  2  0  0  0  0
  3  8  2  0  0  0  0
  3 17  1  0  0  0  0
  4  9  1  0  0  0  0
  4 17  2  0  0  0  0
  5 19  1  0  0  0  0
  6 21  1  0  0  0  0
  7 10  2  0  0  0  0
  7 20  1  0  0  0  0
  8 26  1  0  0  0  0
  9 26  2  0  0  0  0
 10 27  1  0  0  0  0
 11 12  2  0  0  0  0
 11 28  1  0  0  0  0
 12 29  1  0  0  0  0
 13 22  1  0  0  0  0
 13 27  2  0  0  0  0
 14 23  1  0  0  0  0
 14 24  2  0  0  0  0
 15 25  1  0  0  0  0
 15 31  2  0  0  0  0
 16 29  2  0  0  0  0
 16 30  1  0  0  0  0
 17 32  1  0  0  0  0
 18 32  1  0  0  0  0
 18 33  2  0  0  0  0
 18 34  1  0  0  0  0
 19 21  2  0  0  0  0
 19 39  1  0  0  0  0
 20 22  2  0  0  0  0
 20 40  1  0  0  0  0
 21 52  1  0  0  0  0
 22 41  1  0  0  0  0
 23 25  2  0  0  0  0
 23 56  1  0  0  0  0
 24 31  1  0  0  0  0
 24 62  1  0  0  0  0
 25 63  1  0  0  0  0
 26 83  1  0  0  0  0
 27 84  1  0  0  0  0
 28 30  2  0  0  0  0
 28 83  1  0  0  0  0
 29 85  1  0  0  0  0
 30 86  1  0  0  0  0
 31 87  1  0  0  0  0
 32 67  2  0  0  0  0
 33 68  1  0  0  0  0
 33 71  1  0  0  0  0
 34 72  1  0  0  0  0
 34 78  2  0  0  0  0
 35 53  1  0  0  0  0
 35 73  1  0  0  0  0
 35 79  2  0  0  0  0
 36 64  1  0  0  0  0
 36 69  1  0  0  0  0
 36 80  2  0  0  0  0
 37 65  1  0  0  0  0
 37 74  1  0  0  0  0
 37 81  2  0  0  0  0
 38 70  1  0  0  0  0
 38 75  1  0  0  0  0
 38 82  2  0  0  0  0
 39 42  1  0  0  0  0
 40 53  1  0  0  0  0
 41 69  1  0  0  0  0
 42 45  1  0  0  0  0
 43 46  1  0  0  0  0
 43 48  1  0  0  0  0
 44 47  1  0  0  0  0
 44 50  1  0  0  0  0
 45 52  1  0  0  0  0
 46 54  1  0  0  0  0
 47 55  1  0  0  0  0
 48 70  1  0  0  0  0
 49 54  1  0  0  0  0
 49 70  1  0  0  0  0
 50 76  1  0  0  0  0
 51 55  1  0  0  0  0
 51 76  1  0  0  0  0
 52 73  1  0  0  0  0
 53 69  1  0  0  0  0
 54 68  1  0  0  0  0
 55 84  1  0  0  0  0
 57 65  1  0  0  0  0
 58 66  1  0  0  0  0
 59 66  1  0  0  0  0
 60 66  1  0  0  0  0
 61 77  1  0  0  0  0
 62 75  1  0  0  0  0
 63 76  1  0  0  0  0
 64 66  1  0  0  0  0
 64 74  1  0  0  0  0
 65 77  1  0  0  0  0
 67 68  1  0  0  0  0
M  CHG  2  76   1  77   1
M  ISO  4  38 100  55 101  75 100  84 101
M  END
> <Batch ID>
0033

> <Smiles>
CNC(C)C(=O)NC(C(=O)N1Cc2cc([101O:1][101CH:1]3CCCN(Cc4cc(Cl)c(C[100NH:0][100C:0](=O)N5CCCC(n6nc(-c7ccc(Oc8ccc(F)cc8F)cc7)c(C(N)=O)c6N)C5)cc4C)C3)ccc2CC1C(=O)NC1CCCc2ccccc21)C(C)(C)C

> <Shape>
0.295

> <Color>
0.196

> <Negative vol penalty>
0.000

$$$$

  -OEChem-04042321453D

 87 96  0     1  0  0  0  0  0999 V2000
  -26.5081  -27.6218   16.3528 C   0  0  0  0  0  0  0  0  0  0  0  0
  -26.9808  -26.6236   17.1987 C   0  0  0  0  0  0  0  0  0  0  0  0
  -23.2849   -9.8029   19.9107 C   0  0  0  0  0  0  0  0  0  0  0  0
  -23.7355   -9.9404   22.2803 C   0  0  0  0  0  0  0  0  0  0  0  0
  -25.1575  -27.9674   16.3709 C   0  0  0  0  0  0  0  0  0  0  0  0
  -26.1034  -25.9712   18.0640 C   0  0  0  0  0  0  0  0  0  0  0  0
  -26.3163  -20.0972   19.7835 C   0  0  0  0  0  0  0  0  0  0  0  0
  -22.5571   -8.6310   20.1170 C   0  0  0  0  0  0  0  0  0  0  0  0
  -23.0076   -8.7686   22.4867 C   0  0  0  0  0  0  0  0  0  0  0  0
  -26.8155  -19.4715   20.9250 C   0  0  0  0  0  0  0  0  0  0  0  0
  -19.4744   -7.7732   21.2098 C   0  0  0  0  0  0  0  0  0  0  0  0
  -18.2453   -7.6508   20.5617 C   0  0  0  0  0  0  0  0  0  0  0  0
  -24.6055  -19.4856   21.8919 C   0  0  0  0  0  0  0  0  0  0  0  0
  -32.8219  -15.3309   23.6883 C   0  0  0  0  0  0  0  0  0  0  0  0
  -31.8736  -17.2967   24.7241 C   0  0  0  0  0  0  0  0  0  0  0  0
  -19.0446   -5.6783   19.4183 C   0  0  0  0  0  0  0  0  0  0  0  0
  -23.8741  -10.4576   20.9923 C   0  0  0  0  0  0  0  0  0  0  0  0
  -24.1366  -12.9875   20.7964 C   0  0  0  0  0  0  0  0  0  0  0  0
  -24.2612  -27.3122   17.2299 C   0  0  0  0  0  0  0  0  0  0  0  0
  -24.9577  -20.4321   19.6919 C   0  0  0  0  0  0  0  0  0  0  0  0
  -24.7397  -26.3093   18.0945 C   0  0  0  0  0  0  0  0  0  0  0  0
  -24.0911  -20.1131   20.7470 C   0  0  0  0  0  0  0  0  0  0  0  0
  -32.8960  -16.6896   23.9950 C   0  0  0  0  0  0  0  0  0  0  0  0
  -31.7254  -14.5793   24.1108 C   0  0  0  0  0  0  0  0  0  0  0  0
  -30.7771  -16.5452   25.1466 C   0  0  0  0  0  0  0  0  0  0  0  0
  -30.7030  -15.1865   24.8399 C   0  0  0  0  0  0  0  0  0  0  0  0
  -22.4184   -8.1139   21.4050 C   0  0  0  0  0  0  0  0  0  0  0  0
  -25.9607  -19.1682   21.9806 C   0  0  0  0  0  0  0  0  0  0  0  0
  -20.4887   -6.8481   20.9620 C   0  0  0  0  0  0  0  0  0  0  0  0
  -18.0304   -6.6034   19.6660 C   0  0  0  0  0  0  0  0  0  0  0  0
  -20.2738   -5.8007   20.0663 C   0  0  0  0  0  0  0  0  0  0  0  0
  -24.6266  -11.6678   20.7797 C   0  0  0  0  0  0  0  0  0  0  0  0
  -25.2391  -13.7663   20.5425 C   0  0  0  0  0  0  0  0  0  0  0  0
  -27.4329  -18.1546   25.8704 C   0  0  0  0  0  0  0  0  0  0  0  0
  -26.8070  -17.5497   26.8869 C   0  0  0  0  0  0  0  0  0  0  0  0
  -22.8041  -13.4665   21.0215 C   0  0  0  0  0  0  0  0  0  0  0  0
  -23.3323  -23.1467   19.3869 C   0  0  0  0  0  0  0  0  0  0  0  0
  -20.7988  -21.1422   19.0947 C   0  0  0  0  0  0  0  0  0  0  0  0
  -19.4414  -18.0765   19.7318 C   0  0  0  0  0  0  0  0  0  0  0  0
  -31.1089  -12.9153   21.3621 C   0  0  0  0  0  0  0  0  0  0  0  0
  -22.8189  -27.7529   17.2476 C   0  0  0  0  0  0  0  0  0  0  0  0
  -24.4298  -21.0827   18.4427 C   0  0  0  0  0  0  0  0  0  0  0  0
  -22.6205  -20.4334   20.6898 C   0  0  0  0  0  0  0  0  0  0  0  0
  -27.0387  -19.4653   25.2644 C   0  0  0  0  0  0  0  0  0  0  0  0
  -21.8852  -26.7544   17.9269 C   0  0  0  0  0  0  0  0  0  0  0  0
  -29.4614  -13.6600   18.2949 C   0  0  0  0  0  0  0  0  0  0  0  0
  -22.4794  -26.2829   19.2503 C   0  0  0  0  0  0  0  0  0  0  0  0
  -27.9913  -13.3530   18.5854 C   0  0  0  0  0  0  0  0  0  0  0  0
  -30.3934  -12.6787   19.0023 C   0  0  0  0  0  0  0  0  0  0  0  0
  -28.7060  -12.2495   20.7465 C   0  0  0  0  0  0  0  0  0  0  0  0
  -28.7001  -18.3644   23.9120 C   0  0  0  0  0  0  0  0  0  0  0  0
  -23.8144  -25.5614   19.0297 C   0  0  1  0  0  0  0  0  0  0  0  0
  -23.1265  -21.8425   18.6697 C   0  0  1  0  0  0  0  0  0  0  0  0
  -27.7293  -13.2466   20.0998 C   0  0  2  0  0  0  0  0  0  0  0  0
  -27.4613  -19.2441   23.8204 C   0  0  1  0  0  0  0  0  0  1  0  0
  -34.0681  -17.4932   23.5427 C   0  0  0  0  0  0  0  0  0  0  0  0
  -29.5276  -14.3803   25.2932 C   0  0  0  0  0  0  0  0  0  0  0  0
  -17.3395  -16.7458   19.4025 C   0  0  0  0  0  0  0  0  0  0  0  0
  -19.4529  -22.7186   21.3338 C   0  0  0  0  0  0  0  0  0  0  0  0
  -17.8401  -20.8228   21.6045 C   0  0  0  0  0  0  0  0  0  0  0  0
  -17.9362  -22.0785   19.4512 C   0  0  0  0  0  0  0  0  0  0  0  0
  -20.8520  -16.0269   18.1292 C   0  0  0  0  0  0  0  0  0  0  0  0
  -31.6707  -13.1258   23.7702 C   0  0  0  0  0  0  0  0  0  0  0  0
  -29.6909  -17.2220   25.9296 C   0  0  0  0  0  0  0  0  0  0  0  0
  -19.8222  -20.5065   20.0545 C   0  0  1  0  0  0  0  0  0  0  0  0
  -18.7075  -17.0941   18.8370 C   0  0  2  0  0  0  0  0  0  0  0  0
  -18.7909  -21.5272   20.6132 C   0  0  0  0  0  0  0  0  0  0  0  0
  -25.9382  -11.6079   20.5343 N   0  0  0  0  0  0  0  0  0  0  0  0
  -26.2817  -12.8996   20.3944 N   0  0  0  0  0  0  0  0  0  0  0  0
  -22.1535  -21.0751   19.4498 N   0  0  0  0  0  0  0  0  0  0  0  0
  -30.0938  -12.6262   20.4353 N   0  0  0  0  0  0  0  0  0  0  0  0
  -25.4086  -15.1011   20.4335 N   0  0  0  0  0  0  0  0  0  0  0  0
  -21.7904  -12.5305   21.2679 N   0  0  0  0  0  0  0  0  0  0  0  0
  -23.5880  -24.2153   18.5489 N   0  0  0  0  0  0  0  0  0  0  0  0
  -19.2245  -19.3816   19.3435 N   0  0  0  0  0  0  0  0  0  0  0  0
  -30.7389  -12.8488   22.6998 N   0  0  0  0  0  0  0  0  0  0  0  0
  -28.4516  -17.4686   25.1228 N   0  3  1  0  0  0  0  0  0  0  0  0
  -19.4925  -15.8351   18.6965 N   0  3  0  0  0  0  0  0  0  0  0  0
  -22.5177  -14.6873   20.9885 O   0  0  0  0  0  0  0  0  0  0  0  0
  -23.2628  -23.1812   20.6098 O   0  0  0  0  0  0  0  0  0  0  0  0
  -20.3758  -21.6721   18.0642 O   0  0  0  0  0  0  0  0  0  0  0  0
  -20.1346  -17.7217   20.6827 O   0  0  0  0  0  0  0  0  0  0  0  0
  -32.2583  -13.2161   21.0224 O   0  0  0  0  0  0  0  0  0  0  0  0
  -21.7081   -6.9705   21.6068 O   0  0  0  0  0  0  0  0  0  0  0  0
  -26.4454  -18.5581   23.0963 O   0  0  0  0  0  0  0  0  0  1  0  0
  -16.8496   -6.4851   19.0449 F   0  0  0  0  0  0  0  0  0  0  0  0
  -21.2439   -4.9083   19.8252 F   0  0  0  0  0  0  0  0  0  0  0  0
  1  2  1  0  0  0  0
  1  5  2  0  0  0  0
  2  6  2  0  0  0  0
  3  8  2  0  0  0  0
  3 17  1  0  0  0  0
  4  9  1  0  0  0  0
  4 17  2  0  0  0  0
  5 19  1  0  0  0  0
  6 21  1  0  0  0  0
  7 10  2  0  0  0  0
  7 20  1  0  0  0  0
  8 27  1  0  0  0  0
  9 27  2  0  0  0  0
 10 28  1  0  0  0  0
 11 12  2  0  0  0  0
 11 29  1  0  0  0  0
 12 30  1  0  0  0  0
 13 22  1  0  0  0  0
 13 28  2  0  0  0  0
 14 23  1  0  0  0  0
 14 24  2  0  0  0  0
 15 23  2  0  0  0  0
 15 25  1  0  0  0  0
 16 30  2  0  0  0  0
 16 31  1  0  0  0  0
 17 32  1  0  0  0  0
 18 32  1  0  0  0  0
 18 33  2  0  0  0  0
 18 36  1  0  0  0  0
 19 21  2  0  0  0  0
 19 41  1  0  0  0  0
 20 22  2  0  0  0  0
 20 42  1  0  0  0  0
 21 52  1  0  0  0  0
 22 43  1  0  0  0  0
 23 56  1  0  0  0  0
 24 26  1  0  0  0  0
 24 63  1  0  0  0  0
 25 26  2  0  0  0  0
 25 64  1  0  0  0  0
 26 57  1  0  0  0  0
 27 84  1  0  0  0  0
 28 85  1  0  0  0  0
 29 31  2  0  0  0  0
 29 84  1  0  0  0  0
 30 86  1  0  0  0  0
 31 87  1  0  0  0  0
 32 68  2  0  0  0  0
 33 69  1  0  0  0  0
 33 72  1  0  0  0  0
 34 35  2  0  0  0  0
 34 44  1  0  0  0  0
 34 77  1  0  0  0  0
 36 73  1  0  0  0  0
 36 79  2  0  0  0  0
 37 53  1  0  0  0  0
 37 74  1  0  0  0  0
 37 80  2  0  0  0  0
 38 65  1  0  0  0  0
 38 70  1  0  0  0  0
 38 81  2  0  0  0  0
 39 66  1  0  0  0  0
 39 75  1  0  0  0  0
 39 82  2  0  0  0  0
 40 71  1  0  0  0  0
 40 76  1  0  0  0  0
 40 83  2  0  0  0  0
 41 45  1  0  0  0  0
 42 53  1  0  0  0  0
 43 70  1  0  0  0  0
 44 55  1  0  0  0  0
 45 47  1  0  0  0  0
 46 48  1  0  0  0  0
 46 49  1  0  0  0  0
 47 52  1  0  0  0  0
 48 54  1  0  0  0  0
 49 71  1  0  0  0  0
 50 54  1  0  0  0  0
 50 71  1  0  0  0  0
 51 55  1  0  0  0  0
 51 77  1  0  0  0  0
 52 74  1  0  0  0  0
 53 70  1  0  0  0  0
 54 69  1  0  0  0  0
 55 85  1  0  0  0  0
 58 66  1  0  0  0  0
 59 67  1  0  0  0  0
 60 67  1  0  0  0  0
 61 67  1  0  0  0  0
 62 78  1  0  0  0  0
 63 76  1  0  0  0  0
 64 77  1  0  0  0  0
 65 67  1  0  0  0  0
 65 75  1  0  0  0  0
 66 78  1  0  0  0  0
 68 69  1  0  0  0  0
M  CHG  2  77   1  78   1
M  ISO  4  40 100  55 101  76 100  85 101
M  END
> <Batch ID>
0033

> <Smiles>
C=C1C[101CH:1]([101O:1]c2ccc3c(c2)CN(C(=O)C(NC(=O)C(C)NC)C(C)(C)C)C(C(=O)NC2CCCc4ccccc42)C3)CN1Cc1cc(C)cc(C[100NH:0][100C:0](=O)N2CCCC(n3nc(-c4ccc(Oc5ccc(F)cc5F)cc4)c(C(N)=O)c3N)C2)c1C

> <Shape>
0.131

> <Color>
0.170

> <Negative vol penalty>
0.000

$$$$

  -OEChem-04042321453D

 86 95  0     1  0  0  0  0  0999 V2000
  -30.6055  -34.3706   23.0279 C   0  0  0  0  0  0  0  0  0  0  0  0
  -30.7667  -32.9891   23.0551 C   0  0  0  0  0  0  0  0  0  0  0  0
  -23.2292   -9.7195   20.0164 C   0  0  0  0  0  0  0  0  0  0  0  0
  -23.8716   -9.9429   22.3347 C   0  0  0  0  0  0  0  0  0  0  0  0
  -29.3249  -34.9220   23.0312 C   0  0  0  0  0  0  0  0  0  0  0  0
  -29.6474  -32.1581   23.0867 C   0  0  0  0  0  0  0  0  0  0  0  0
  -29.0622  -26.6679   20.4369 C   0  0  0  0  0  0  0  0  0  0  0  0
  -22.5445   -8.5428   20.3194 C   0  0  0  0  0  0  0  0  0  0  0  0
  -23.1868   -8.7661   22.6378 C   0  0  0  0  0  0  0  0  0  0  0  0
  -29.1839  -25.3700   20.9313 C   0  0  0  0  0  0  0  0  0  0  0  0
  -19.5805   -7.6684   21.6918 C   0  0  0  0  0  0  0  0  0  0  0  0
  -18.3047   -7.5036   21.1526 C   0  0  0  0  0  0  0  0  0  0  0  0
  -26.7940  -25.2716   21.2443 C   0  0  0  0  0  0  0  0  0  0  0  0
  -31.2966  -19.0300   24.0015 C   0  0  0  0  0  0  0  0  0  0  0  0
  -31.6565  -17.1757   22.4953 C   0  0  0  0  0  0  0  0  0  0  0  0
  -19.0457   -5.5085   20.0091 C   0  0  0  0  0  0  0  0  0  0  0  0
  -23.8929  -10.4196   21.0240 C   0  0  0  0  0  0  0  0  0  0  0  0
  -24.0878  -12.9458   20.7275 C   0  0  0  0  0  0  0  0  0  0  0  0
  -28.1892  -34.0972   23.0532 C   0  0  0  0  0  0  0  0  0  0  0  0
  -27.8046  -27.2824   20.3526 C   0  0  0  0  0  0  0  0  0  0  0  0
  -28.3504  -32.6990   23.0917 C   0  0  0  0  0  0  0  0  0  0  0  0
  -26.6588  -26.5765   20.7461 C   0  0  0  0  0  0  0  0  0  0  0  0
  -32.1646  -18.1531   23.3509 C   0  0  0  0  0  0  0  0  0  0  0  0
  -29.9205  -18.9295   23.7965 C   0  0  0  0  0  0  0  0  0  0  0  0
  -29.4124  -17.9520   22.9409 C   0  0  0  0  0  0  0  0  0  0  0  0
  -30.2804  -17.0751   22.2903 C   0  0  0  0  0  0  0  0  0  0  0  0
  -22.5232   -8.0660   21.6301 C   0  0  0  0  0  0  0  0  0  0  0  0
  -28.0500  -24.6727   21.3378 C   0  0  0  0  0  0  0  0  0  0  0  0
  -20.5890   -6.7533   21.3896 C   0  0  0  0  0  0  0  0  0  0  0  0
  -18.0373   -6.4237   20.3113 C   0  0  0  0  0  0  0  0  0  0  0  0
  -20.3216   -5.6734   20.5483 C   0  0  0  0  0  0  0  0  0  0  0  0
  -24.6009  -11.6349   20.7115 C   0  0  0  0  0  0  0  0  0  0  0  0
  -25.1498  -13.7347   20.3582 C   0  0  0  0  0  0  0  0  0  0  0  0
  -27.6208  -21.8856   24.3162 C   0  0  0  0  0  0  0  0  0  0  0  0
  -26.4347  -21.5045   24.8052 C   0  0  0  0  0  0  0  0  0  0  0  0
  -22.7693  -13.4089   21.0478 C   0  0  0  0  0  0  0  0  0  0  0  0
  -26.4739  -29.8571   21.6581 C   0  0  0  0  0  0  0  0  0  0  0  0
  -24.0285  -29.1298   19.6548 C   0  0  0  0  0  0  0  0  0  0  0  0
  -22.3911  -26.7619   17.8221 C   0  0  0  0  0  0  0  0  0  0  0  0
  -30.5276  -15.1363   20.7008 C   0  0  0  0  0  0  0  0  0  0  0  0
  -26.8259  -34.7402   23.1035 C   0  0  0  0  0  0  0  0  0  0  0  0
  -27.6872  -28.6733   19.7920 C   0  0  0  0  0  0  0  0  0  0  0  0
  -25.2834  -27.1838   20.6567 C   0  0  0  0  0  0  0  0  0  0  0  0
  -28.1171  -23.2958   24.2424 C   0  0  0  0  0  0  0  0  0  0  0  0
  -25.6878  -33.7828   22.7593 C   0  0  0  0  0  0  0  0  0  0  0  0
  -29.6803  -12.4895   18.4752 C   0  0  0  0  0  0  0  0  0  0  0  0
  -25.8566  -32.4628   23.5050 C   0  0  0  0  0  0  0  0  0  0  0  0
  -28.2411  -12.1390   18.8599 C   0  0  0  0  0  0  0  0  0  0  0  0
  -30.5187  -12.8635   19.6963 C   0  0  0  0  0  0  0  0  0  0  0  0
  -28.5049  -13.5642   20.9302 C   0  0  0  0  0  0  0  0  0  0  0  0
  -29.5483  -21.8200   22.9876 C   0  0  0  0  0  0  0  0  0  0  0  0
  -27.1606  -31.7640   23.1014 C   0  0  1  0  0  0  0  0  0  0  0  0
  -26.4138  -29.3892   20.2315 C   0  0  1  0  0  0  0  0  0  0  0  0
  -27.6044  -13.2436   19.7261 C   0  0  2  0  0  0  0  0  0  0  0  0
  -28.9681  -23.2272   22.9840 C   0  0  1  0  0  0  0  0  0  1  0  0
  -33.6357  -18.2597   23.5711 C   0  0  0  0  0  0  0  0  0  0  0  0
  -27.9351  -17.8478   22.7252 C   0  0  0  0  0  0  0  0  0  0  0  0
  -20.4039  -26.4599   16.3196 C   0  0  0  0  0  0  0  0  0  0  0  0
  -22.1847  -29.1909   22.0851 C   0  0  0  0  0  0  0  0  0  0  0  0
  -20.4666  -27.9800   20.7249 C   0  0  0  0  0  0  0  0  0  0  0  0
  -21.2344  -30.2487   20.0278 C   0  0  0  0  0  0  0  0  0  0  0  0
  -24.0919  -25.9335   15.5461 C   0  0  0  0  0  0  0  0  0  0  0  0
  -29.0090  -19.8839   24.5101 C   0  0  0  0  0  0  0  0  0  0  0  0
  -22.7884  -28.2741   19.7482 C   0  0  1  0  0  0  0  0  0  0  0  0
  -21.8922  -26.7648   16.3883 C   0  0  2  0  0  0  0  0  0  0  0  0
  -21.6945  -28.9124   20.6501 C   0  0  0  0  0  0  0  0  0  0  0  0
  -25.8886  -11.5895   20.3596 N   0  0  0  0  0  0  0  0  0  0  0  0
  -26.1936  -12.8816   20.1510 N   0  0  0  0  0  0  0  0  0  0  0  0
  -25.2213  -28.5485   20.1078 N   0  0  0  0  0  0  0  0  0  0  0  0
  -29.8555  -13.9181   20.4662 N   0  0  0  0  0  0  0  0  0  0  0  0
  -25.2831  -15.0679   20.1935 N   0  0  0  0  0  0  0  0  0  0  0  0
  -21.7982  -12.4643   21.4070 N   0  0  0  0  0  0  0  0  0  0  0  0
  -29.7856  -16.0757   21.4161 N   0  0  0  0  0  0  0  0  0  0  0  0
  -27.0114  -31.1205   21.8137 N   0  0  0  0  0  0  0  0  0  0  0  0
  -22.3605  -28.0243   18.3760 N   0  0  0  0  0  0  0  0  0  0  0  0
  -28.4594  -20.9525   23.6138 N   0  3  1  0  0  0  0  0  0  0  0  0
  -22.6192  -25.7416   15.5849 N   0  3  0  0  0  0  0  0  0  0  0  0
  -22.4569  -14.6229   21.0004 O   0  0  0  0  0  0  0  0  0  0  0  0
  -26.0617  -29.1265   22.5514 O   0  0  0  0  0  0  0  0  0  0  0  0
  -23.9434  -30.2693   19.1901 O   0  0  0  0  0  0  0  0  0  0  0  0
  -22.7665  -25.7413   18.3946 O   0  0  0  0  0  0  0  0  0  0  0  0
  -31.6665  -15.3419   20.2735 O   0  0  0  0  0  0  0  0  0  0  0  0
  -21.8549   -6.9179   21.9263 O   0  0  0  0  0  0  0  0  0  0  0  0
  -28.1661  -23.4060   21.8214 O   0  0  0  0  0  0  0  0  0  1  0  0
  -16.8117   -6.2647   19.7948 F   0  0  0  0  0  0  0  0  0  0  0  0
  -21.2860   -4.7903   20.2552 F   0  0  0  0  0  0  0  0  0  0  0  0
  1  2  1  0  0  0  0
  1  5  2  0  0  0  0
  2  6  2  0  0  0  0
  3  8  2  0  0  0  0
  3 17  1  0  0  0  0
  4  9  1  0  0  0  0
  4 17  2  0  0  0  0
  5 19  1  0  0  0  0
  6 21  1  0  0  0  0
  7 10  2  0  0  0  0
  7 20  1  0  0  0  0
  8 27  1  0  0  0  0
  9 27  2  0  0  0  0
 10 28  1  0  0  0  0
 11 12  2  0  0  0  0
 11 29  1  0  0  0  0
 12 30  1  0  0  0  0
 13 22  1  0  0  0  0
 13 28  2  0  0  0  0
 14 23  2  0  0  0  0
 14 24  1  0  0  0  0
 15 23  1  0  0  0  0
 15 26  2  0  0  0  0
 16 30  2  0  0  0  0
 16 31  1  0  0  0  0
 17 32  1  0  0  0  0
 18 32  1  0  0  0  0
 18 33  2  0  0  0  0
 18 36  1  0  0  0  0
 19 21  2  0  0  0  0
 19 41  1  0  0  0  0
 20 22  2  0  0  0  0
 20 42  1  0  0  0  0
 21 52  1  0  0  0  0
 22 43  1  0  0  0  0
 23 56  1  0  0  0  0
 24 25  2  0  0  0  0
 24 63  1  0  0  0  0
 25 26  1  0  0  0  0
 25 57  1  0  0  0  0
 26 73  1  0  0  0  0
 27 83  1  0  0  0  0
 28 84  1  0  0  0  0
 29 31  2  0  0  0  0
 29 83  1  0  0  0  0
 30 85  1  0  0  0  0
 31 86  1  0  0  0  0
 32 67  2  0  0  0  0
 33 68  1  0  0  0  0
 33 71  1  0  0  0  0
 34 35  2  0  0  0  0
 34 44  1  0  0  0  0
 34 76  1  0  0  0  0
 36 72  1  0  0  0  0
 36 78  2  0  0  0  0
 37 53  1  0  0  0  0
 37 74  1  0  0  0  0
 37 79  2  0  0  0  0
 38 64  1  0  0  0  0
 38 69  1  0  0  0  0
 38 80  2  0  0  0  0
 39 65  1  0  0  0  0
 39 75  1  0  0  0  0
 39 81  2  0  0  0  0
 40 70  1  0  0  0  0
 40 73  1  0  0  0  0
 40 82  2  0  0  0  0
 41 45  1  0  0  0  0
 42 53  1  0  0  0  0
 43 69  1  0  0  0  0
 44 55  1  0  0  0  0
 45 47  1  0  0  0  0
 46 48  1  0  0  0  0
 46 49  1  0  0  0  0
 47 52  1  0  0  0  0
 48 54  1  0  0  0  0
 49 70  1  0  0  0  0
 50 54  1  0  0  0  0
 50 70  1  0  0  0  0
 51 55  1  0  0  0  0
 51 76  1  0  0  0  0
 52 74  1  0  0  0  0
 53 69  1  0  0  0  0
 54 68  1  0  0  0  0
 55 84  1  0  0  0  0
 58 65  1  0  0  0  0
 59 66  1  0  0  0  0
 60 66  1  0  0  0  0
 61 66  1  0  0  0  0
 62 77  1  0  0  0  0
 63 76  1  0  0  0  0
 64 66  1  0  0  0  0
 64 75  1  0  0  0  0
 65 77  1  0  0  0  0
 67 68  1  0  0  0  0
M  CHG  2  76   1  77   1
M  ISO  4  40 100  55 101  73 100  84 101
M  END
> <Batch ID>
0033

> <Smiles>
C=C1C[101CH:1]([101O:1]c2ccc3c(c2)CN(C(=O)C(NC(=O)C(C)NC)C(C)(C)C)C(C(=O)NC2CCCc4ccccc42)C3)CN1Cc1cc(C)cc([100NH:0][100C:0](=O)N2CCCC(n3nc(-c4ccc(Oc5ccc(F)cc5F)cc4)c(C(N)=O)c3N)C2)c1C

> <Shape>
0.279

> <Color>
0.192

> <Negative vol penalty>
0.000

$$$$

  -OEChem-04042321453D

 85 93  0     1  0  0  0  0  0999 V2000
  -22.7632  -21.6286   15.0452 C   0  0  0  0  0  0  0  0  0  0  0  0
  -23.9236  -20.8683   15.1490 C   0  0  0  0  0  0  0  0  0  0  0  0
  -26.2748  -28.0825   18.8493 C   0  0  0  0  0  0  0  0  0  0  0  0
  -26.3099  -27.6682   21.2293 C   0  0  0  0  0  0  0  0  0  0  0  0
  -21.8847  -21.7086   16.1248 C   0  0  0  0  0  0  0  0  0  0  0  0
  -24.2067  -20.1884   16.3331 C   0  0  0  0  0  0  0  0  0  0  0  0
  -26.9967  -14.7649   16.8874 C   0  0  0  0  0  0  0  0  0  0  0  0
  -30.2984  -20.1216   24.0826 C   0  0  0  0  0  0  0  0  0  0  0  0
  -25.2267  -28.9865   19.0221 C   0  0  0  0  0  0  0  0  0  0  0  0
  -25.2618  -28.5723   21.4021 C   0  0  0  0  0  0  0  0  0  0  0  0
  -28.3137  -14.4131   17.1796 C   0  0  0  0  0  0  0  0  0  0  0  0
  -22.3013  -31.1346   18.7945 C   0  0  0  0  0  0  0  0  0  0  0  0
  -31.6236  -19.9155   24.4658 C   0  0  0  0  0  0  0  0  0  0  0  0
  -21.2251  -31.0588   17.9105 C   0  0  0  0  0  0  0  0  0  0  0  0
  -30.2847  -17.9744   22.9751 C   0  0  0  0  0  0  0  0  0  0  0  0
  -27.7194  -14.1401   19.5015 C   0  0  0  0  0  0  0  0  0  0  0  0
  -20.8046  -28.7870   18.6173 C   0  0  0  0  0  0  0  0  0  0  0  0
  -26.8164  -27.4233   19.9529 C   0  0  0  0  0  0  0  0  0  0  0  0
  -31.6100  -17.7684   23.3582 C   0  0  0  0  0  0  0  0  0  0  0  0
  -29.2778  -26.7700   19.8037 C   0  0  0  0  0  0  0  0  0  0  0  0
  -22.1523  -21.0216   17.3194 C   0  0  0  0  0  0  0  0  0  0  0  0
  -26.0319  -14.8176   17.9037 C   0  0  0  0  0  0  0  0  0  0  0  0
  -23.3316  -20.2604   17.4302 C   0  0  0  0  0  0  0  0  0  0  0  0
  -26.3902  -14.4904   19.2192 C   0  0  0  0  0  0  0  0  0  0  0  0
  -29.6288  -19.1510   23.3373 C   0  0  0  0  0  0  0  0  0  0  0  0
  -24.7202  -29.2314   20.2985 C   0  0  0  0  0  0  0  0  0  0  0  0
  -28.6759  -14.1035   18.4873 C   0  0  0  0  0  0  0  0  0  0  0  0
  -22.6293  -30.0366   19.5899 C   0  0  0  0  0  0  0  0  0  0  0  0
  -20.4767  -29.8850   17.8219 C   0  0  0  0  0  0  0  0  0  0  0  0
  -32.2794  -18.7389   24.1036 C   0  0  0  0  0  0  0  0  0  0  0  0
  -21.8810  -28.8628   19.5013 C   0  0  0  0  0  0  0  0  0  0  0  0
  -27.8986  -26.4889   19.7749 C   0  0  0  0  0  0  0  0  0  0  0  0
  -29.8803  -25.5554   19.5842 C   0  0  0  0  0  0  0  0  0  0  0  0
  -32.3025  -16.5223   22.9730 C   0  0  0  0  0  0  0  0  0  0  0  0
  -29.9537  -28.0174   20.0105 C   0  0  0  0  0  0  0  0  0  0  0  0
  -24.1977  -17.1009   19.1391 C   0  0  0  0  0  0  0  0  0  0  0  0
  -22.9084  -14.6281   20.7961 C   0  0  0  0  0  0  0  0  0  0  0  0
  -23.2813  -11.4801   22.0602 C   0  0  0  0  0  0  0  0  0  0  0  0
  -28.1227  -19.9061   20.5048 C   0  0  0  0  0  0  0  0  0  0  0  0
  -21.1965  -21.1765   18.4757 C   0  0  0  0  0  0  0  0  0  0  0  0
  -24.6095  -15.1729   17.5676 C   0  0  0  0  0  0  0  0  0  0  0  0
  -25.3877  -14.5123   20.3430 C   0  0  0  0  0  0  0  0  0  0  0  0
  -21.3827  -20.1235   19.5651 C   0  0  0  0  0  0  0  0  0  0  0  0
  -29.1531  -21.3516   17.4185 C   0  0  0  0  0  0  0  0  0  0  0  0
  -22.8607  -19.9652   19.9075 C   0  0  0  0  0  0  0  0  0  0  0  0
  -29.0729  -22.8575   17.6750 C   0  0  0  0  0  0  0  0  0  0  0  0
  -28.0305  -20.5977   18.1279 C   0  0  0  0  0  0  0  0  0  0  0  0
  -27.8440  -22.3689   19.8314 C   0  0  0  0  0  0  0  0  0  0  0  0
  -23.6612  -19.4885   18.6895 C   0  0  1  0  0  0  0  0  0  0  0  0
  -23.8243  -15.6937   18.7675 C   0  0  1  0  0  0  0  0  0  0  0  0
  -28.9883  -23.1659   19.1820 C   0  0  2  0  0  0  0  0  0  0  0  0
  -22.0690   -9.7393   23.4007 C   0  0  0  0  0  0  0  0  0  0  0  0
  -23.4493  -16.2171   23.3441 C   0  0  0  0  0  0  0  0  0  0  0  0
  -23.1200  -14.1052   24.6479 C   0  0  0  0  0  0  0  0  0  0  0  0
  -21.2430  -15.0405   23.2970 C   0  0  0  0  0  0  0  0  0  0  0  0
  -23.3746   -9.5334   19.8329 C   0  0  0  0  0  0  0  0  0  0  0  0
  -28.2122  -19.3716   22.9267 C   0  0  0  0  0  0  0  0  0  0  0  0
  -31.9479  -14.3118   20.0025 C   0  0  0  0  0  0  0  0  0  0  0  0
  -32.5527  -14.6813   21.3467 C   0  0  0  0  0  0  0  0  0  0  0  0
  -30.4434  -14.0851   20.0784 C   0  0  0  0  0  0  0  0  0  1  0  0
  -23.2003  -13.9590   22.1175 C   0  0  1  0  0  0  0  0  0  0  0  0
  -22.3802  -10.2597   22.0061 C   0  0  2  0  0  0  0  0  0  0  0  0
  -22.7727  -14.8318   23.3310 C   0  0  0  0  0  0  0  0  0  0  0  0
  -27.6401  -25.1972   19.5544 N   0  0  0  0  0  0  0  0  0  0  0  0
  -28.8651  -24.6558   19.4425 N   0  0  0  0  0  0  0  0  0  0  0  0
  -24.0110  -14.8720   19.9650 N   0  0  0  0  0  0  0  0  0  0  0  0
  -28.0059  -20.9331   19.5537 N   0  0  0  0  0  0  0  0  0  0  0  0
  -31.1743  -25.1799   19.5005 N   0  0  0  0  0  0  0  0  0  0  0  0
  -33.2551  -16.0575   23.7813 N   0  0  0  0  0  0  0  0  0  0  0  0
  -29.1823  -29.1684   20.2215 N   0  0  0  0  0  0  0  0  0  0  0  0
  -23.4657  -18.0700   18.4799 N   0  0  0  0  0  0  0  0  0  0  0  0
  -22.5545  -12.6519   22.0645 N   0  0  0  0  0  0  0  0  0  0  0  0
  -28.0965  -20.3112   21.8337 N   0  0  0  0  0  0  0  0  0  0  0  0
  -31.9438  -15.9202   21.8315 N   0  3  0  0  0  0  0  0  0  0  0  0
  -23.0340   -9.1670   21.2318 N   0  3  0  0  0  0  0  0  0  0  0  0
  -31.2044  -28.1115   19.9918 O   0  0  0  0  0  0  0  0  0  0  0  0
  -25.0833  -17.2932   19.9640 O   0  0  0  0  0  0  0  0  0  0  0  0
  -21.7442  -14.9172   20.5087 O   0  0  0  0  0  0  0  0  0  0  0  0
  -24.5072  -11.4018   22.0988 O   0  0  0  0  0  0  0  0  0  0  0  0
  -28.2469  -18.7169   20.1928 O   0  0  0  0  0  0  0  0  0  0  0  0
  -23.6977  -30.1137   20.4676 O   0  0  0  0  0  0  0  0  0  0  0  0
  -29.9609  -13.7604   18.7753 O   0  0  0  0  0  0  0  0  0  1  0  0
  -19.4422  -29.8129   16.9741 F   0  0  0  0  0  0  0  0  0  0  0  0
  -33.5531  -18.5502   24.4758 F   0  0  0  0  0  0  0  0  0  0  0  0
  -22.1905  -27.8051   20.2637 F   0  0  0  0  0  0  0  0  0  0  0  0
  1  2  1  0  0  0  0
  1  5  2  0  0  0  0
  2  6  2  0  0  0  0
  3  9  2  0  0  0  0
  3 18  1  0  0  0  0
  4 10  1  0  0  0  0
  4 18  2  0  0  0  0
  5 21  1  0  0  0  0
  6 23  1  0  0  0  0
  7 11  2  0  0  0  0
  7 22  1  0  0  0  0
  8 13  2  0  0  0  0
  8 25  1  0  0  0  0
  9 26  1  0  0  0  0
 10 26  2  0  0  0  0
 11 27  1  0  0  0  0
 12 14  2  0  0  0  0
 12 28  1  0  0  0  0
 13 30  1  0  0  0  0
 14 29  1  0  0  0  0
 15 19  1  0  0  0  0
 15 25  2  0  0  0  0
 16 24  1  0  0  0  0
 16 27  2  0  0  0  0
 17 29  2  0  0  0  0
 17 31  1  0  0  0  0
 18 32  1  0  0  0  0
 19 30  2  0  0  0  0
 19 34  1  0  0  0  0
 20 32  1  0  0  0  0
 20 33  2  0  0  0  0
 20 35  1  0  0  0  0
 21 23  2  0  0  0  0
 21 40  1  0  0  0  0
 22 24  2  0  0  0  0
 22 41  1  0  0  0  0
 23 49  1  0  0  0  0
 24 42  1  0  0  0  0
 25 57  1  0  0  0  0
 26 81  1  0  0  0  0
 27 82  1  0  0  0  0
 28 31  2  0  0  0  0
 28 81  1  0  0  0  0
 29 83  1  0  0  0  0
 30 84  1  0  0  0  0
 31 85  1  0  0  0  0
 32 64  2  0  0  0  0
 33 65  1  0  0  0  0
 33 68  1  0  0  0  0
 34 69  1  0  0  0  0
 34 74  2  0  0  0  0
 35 70  1  0  0  0  0
 35 76  2  0  0  0  0
 36 50  1  0  0  0  0
 36 71  1  0  0  0  0
 36 77  2  0  0  0  0
 37 61  1  0  0  0  0
 37 66  1  0  0  0  0
 37 78  2  0  0  0  0
 38 62  1  0  0  0  0
 38 72  1  0  0  0  0
 38 79  2  0  0  0  0
 39 67  1  0  0  0  0
 39 73  1  0  0  0  0
 39 80  2  0  0  0  0
 40 43  1  0  0  0  0
 41 50  1  0  0  0  0
 42 66  1  0  0  0  0
 43 45  1  0  0  0  0
 44 46  1  0  0  0  0
 44 47  1  0  0  0  0
 45 49  1  0  0  0  0
 46 51  1  0  0  0  0
 47 67  1  0  0  0  0
 48 51  1  0  0  0  0
 48 67  1  0  0  0  0
 49 71  1  0  0  0  0
 50 66  1  0  0  0  0
 51 65  1  0  0  0  0
 52 62  1  0  0  0  0
 53 63  1  0  0  0  0
 54 63  1  0  0  0  0
 55 63  1  0  0  0  0
 56 75  1  0  0  0  0
 57 73  1  0  0  0  0
 58 59  1  0  0  0  0
 58 60  1  0  0  0  0
 59 74  1  0  0  0  0
 60 82  1  0  0  0  0
 61 63  1  0  0  0  0
 61 72  1  0  0  0  0
 62 75  1  0  0  0  0
 64 65  1  0  0  0  0
M  CHG  2  74   1  75   1
M  ISO  4  39 100  60 101  73 100  82 101
M  END
> <Batch ID>
0033

> <Smiles>
CNC(C)C(=O)NC(C(=O)N1Cc2cc([101O:1][101CH2:1]CCNC(=N)c3cc(C[100NH:0][100C:0](=O)N4CCCC(n5nc(-c6ccc(Oc7ccc(F)cc7F)cc6)c(C(N)=O)c5N)C4)ccc3F)ccc2CC1C(=O)NC1CCCc2ccccc21)C(C)(C)C

> <Shape>
0.211

> <Color>
0.059

> <Negative vol penalty>
0.000

$$$$

  -OEChem-04042321453D

 87 96  0     1  0  0  0  0  0999 V2000
  -16.5091  -29.7595   22.7875 C   0  0  0  0  0  0  0  0  0  0  0  0
  -17.4679  -30.6706   23.2185 C   0  0  0  0  0  0  0  0  0  0  0  0
  -26.4852  -15.7814   22.8860 C   0  0  0  0  0  0  0  0  0  0  0  0
  -26.1730  -17.1150   20.8957 C   0  0  0  0  0  0  0  0  0  0  0  0
  -16.8712  -28.4381   22.5290 C   0  0  0  0  0  0  0  0  0  0  0  0
  -18.7893  -30.2606   23.3924 C   0  0  0  0  0  0  0  0  0  0  0  0
  -25.5063  -32.6889   22.8433 C   0  0  0  0  0  0  0  0  0  0  0  0
  -26.3538  -14.6183   22.1273 C   0  0  0  0  0  0  0  0  0  0  0  0
  -26.0417  -15.9519   20.1370 C   0  0  0  0  0  0  0  0  0  0  0  0
  -26.6818  -32.7829   23.5871 C   0  0  0  0  0  0  0  0  0  0  0  0
  -28.2747  -12.7723   20.0452 C   0  0  0  0  0  0  0  0  0  0  0  0
  -29.1899  -11.7442   20.2710 C   0  0  0  0  0  0  0  0  0  0  0  0
  -27.2077  -30.4945   23.0339 C   0  0  0  0  0  0  0  0  0  0  0  0
  -29.0795  -27.2951   25.0674 C   0  0  0  0  0  0  0  0  0  0  0  0
  -27.3936  -27.1803   26.7939 C   0  0  0  0  0  0  0  0  0  0  0  0
  -27.3789  -10.2661   20.8815 C   0  0  0  0  0  0  0  0  0  0  0  0
  -26.3947  -17.0297   22.2702 C   0  0  0  0  0  0  0  0  0  0  0  0
  -27.6411  -18.6243   23.8231 C   0  0  0  0  0  0  0  0  0  0  0  0
  -18.1996  -28.0141   22.6905 C   0  0  0  0  0  0  0  0  0  0  0  0
  -25.1667  -31.4916   22.1972 C   0  0  0  0  0  0  0  0  0  0  0  0
  -19.1693  -28.9320   23.1371 C   0  0  0  0  0  0  0  0  0  0  0  0
  -26.0286  -30.3887   22.2805 C   0  0  0  0  0  0  0  0  0  0  0  0
  -28.6101  -27.6755   26.3245 C   0  0  0  0  0  0  0  0  0  0  0  0
  -28.3324  -26.4195   24.2795 C   0  0  0  0  0  0  0  0  0  0  0  0
  -27.1158  -25.9242   24.7489 C   0  0  0  0  0  0  0  0  0  0  0  0
  -26.1321  -14.7036   20.7528 C   0  0  0  0  0  0  0  0  0  0  0  0
  -27.5313  -31.6847   23.6849 C   0  0  0  0  0  0  0  0  0  0  0  0
  -26.9116  -12.5474   20.2375 C   0  0  0  0  0  0  0  0  0  0  0  0
  -28.7420  -10.4911   20.6892 C   0  0  0  0  0  0  0  0  0  0  0  0
  -26.4637  -11.2943   20.6556 C   0  0  0  0  0  0  0  0  0  0  0  0
  -26.6464  -26.3046   26.0061 C   0  0  0  0  0  0  0  0  0  0  0  0
  -26.5297  -18.2316   23.0535 C   0  0  0  0  0  0  0  0  0  0  0  0
  -27.2732  -19.8307   24.3669 C   0  0  0  0  0  0  0  0  0  0  0  0
  -28.8941  -17.9582   24.0281 C   0  0  0  0  0  0  0  0  0  0  0  0
  -22.7598  -29.4273   22.4193 C   0  0  0  0  0  0  0  0  0  0  0  0
  -24.2011  -28.0683   19.8505 C   0  0  0  0  0  0  0  0  0  0  0  0
  -27.5758  -27.3311   18.8086 C   0  0  0  0  0  0  0  0  0  0  0  0
  -24.9812  -24.8843   23.9073 C   0  0  0  0  0  0  0  0  0  0  0  0
  -18.5338  -26.5641   22.4442 C   0  0  0  0  0  0  0  0  0  0  0  0
  -23.9084  -31.4147   21.3767 C   0  0  0  0  0  0  0  0  0  0  0  0
  -25.7197  -29.0869   21.5888 C   0  0  0  0  0  0  0  0  0  0  0  0
  -20.0299  -26.3011   22.2933 C   0  0  0  0  0  0  0  0  0  0  0  0
  -22.7764  -22.1512   24.4960 C   0  0  0  0  0  0  0  0  0  0  0  0
  -20.8107  -27.0122   23.3940 C   0  0  0  0  0  0  0  0  0  0  0  0
  -23.6478  -20.9201   24.2365 C   0  0  0  0  0  0  0  0  0  0  0  0
  -29.7590  -32.8671   26.2820 C   0  0  0  0  0  0  0  0  0  0  0  0
  -31.0215  -32.0130   26.2744 C   0  0  0  0  0  0  0  0  0  0  0  0
  -23.1085  -23.2933   23.5373 C   0  0  0  0  0  0  0  0  0  0  0  0
  -25.3984  -22.4388   23.2284 C   0  0  0  0  0  0  0  0  0  0  0  0
  -28.3701  -30.7821   26.5701 C   0  0  0  0  0  0  0  0  0  0  0  0
  -20.6179  -28.5314   23.3137 C   0  0  1  0  0  0  0  0  0  0  0  0
  -23.4070  -29.9869   21.1841 C   0  0  1  0  0  0  0  0  0  0  0  0
  -25.1452  -21.2845   24.2119 C   0  0  2  0  0  0  0  0  0  0  0  0
  -28.5479  -32.0803   25.7970 C   0  0  2  0  0  0  0  0  0  1  0  0
  -30.8485  -30.7126   27.0682 C   0  0  2  0  0  0  0  0  0  0  0  0
  -28.8636  -26.0316   22.9375 C   0  0  0  0  0  0  0  0  0  0  0  0
  -32.1161  -29.8676   26.9571 C   0  0  0  0  0  0  0  0  0  0  0  0
  -28.5593  -27.0942   16.5121 C   0  0  0  0  0  0  0  0  0  0  0  0
  -23.6411  -25.0934   20.2330 C   0  0  0  0  0  0  0  0  0  0  0  0
  -25.8028  -24.6078   19.0671 C   0  0  0  0  0  0  0  0  0  0  0  0
  -23.9737  -25.7951   17.8558 C   0  0  0  0  0  0  0  0  0  0  0  0
  -29.6441  -29.3756   19.3572 C   0  0  0  0  0  0  0  0  0  0  0  0
  -29.4142  -28.6166   27.1724 C   0  0  0  0  0  0  0  0  0  0  0  0
  -25.2650  -27.0155   19.6545 C   0  0  1  0  0  0  0  0  0  0  0  0
  -28.3560  -28.0184   17.7026 C   0  0  2  0  0  0  0  0  0  0  0  0
  -24.6701  -25.6444   19.2258 C   0  0  0  0  0  0  0  0  0  0  0  0
  -25.5305  -19.1166   23.1016 N   0  0  0  0  0  0  0  0  0  0  0  0
  -26.0127  -20.0774   23.9080 N   0  0  0  0  0  0  0  0  0  0  0  0
  -24.4745  -29.0594   20.8039 N   0  0  0  0  0  0  0  0  0  0  0  0
  -24.5431  -23.5860   23.5707 N   0  0  0  0  0  0  0  0  0  0  0  0
  -27.9080  -20.6938   25.1880 N   0  0  0  0  0  0  0  0  0  0  0  0
  -29.1074  -16.7263   23.3945 N   0  0  0  0  0  0  0  0  0  0  0  0
  -26.3672  -25.0351   23.9385 N   0  0  0  0  0  0  0  0  0  0  0  0
  -21.4304  -29.0887   22.2537 N   0  0  0  0  0  0  0  0  0  0  0  0
  -26.2224  -27.5742   18.7060 N   0  0  0  0  0  0  0  0  0  0  0  0
  -29.6446  -29.9560   26.5141 N   0  3  1  0  0  0  0  0  0  0  0  0
  -29.6944  -28.4445   18.2007 N   0  3  0  0  0  0  0  0  0  0  0  0
  -29.7914  -18.4332   24.7647 O   0  0  0  0  0  0  0  0  0  0  0  0
  -23.4183  -29.3100   23.4461 O   0  0  0  0  0  0  0  0  0  0  0  0
  -23.1687  -28.0175   19.1774 O   0  0  0  0  0  0  0  0  0  0  0  0
  -28.1127  -26.6440   19.6747 O   0  0  0  0  0  0  0  0  0  0  0  0
  -24.1859  -25.7881   24.1767 O   0  0  0  0  0  0  0  0  0  0  0  0
  -26.0042  -13.5689   20.0121 O   0  0  0  0  0  0  0  0  0  0  0  0
  -28.6789  -31.7736   24.4107 O   0  0  0  0  0  0  0  0  0  1  0  0
  -29.6208   -9.5035   20.9045 F   0  0  0  0  0  0  0  0  0  0  0  0
  -25.1552  -11.0719   20.8410 F   0  0  0  0  0  0  0  0  0  0  0  0
  -25.1453  -25.7165   26.6291 Cl  0  0  0  0  0  0  0  0  0  0  0  0
  1  2  1  0  0  0  0
  1  5  2  0  0  0  0
  2  6  2  0  0  0  0
  3  8  2  0  0  0  0
  3 17  1  0  0  0  0
  4  9  1  0  0  0  0
  4 17  2  0  0  0  0
  5 19  1  0  0  0  0
  6 21  1  0  0  0  0
  7 10  2  0  0  0  0
  7 20  1  0  0  0  0
  8 26  1  0  0  0  0
  9 26  2  0  0  0  0
 10 27  1  0  0  0  0
 11 12  2  0  0  0  0
 11 28  1  0  0  0  0
 12 29  1  0  0  0  0
 13 22  1  0  0  0  0
 13 27  2  0  0  0  0
 14 23  1  0  0  0  0
 14 24  2  0  0  0  0
 15 23  2  0  0  0  0
 15 31  1  0  0  0  0
 16 29  2  0  0  0  0
 16 30  1  0  0  0  0
 17 32  1  0  0  0  0
 18 32  1  0  0  0  0
 18 33  2  0  0  0  0
 18 34  1  0  0  0  0
 19 21  2  0  0  0  0
 19 39  1  0  0  0  0
 20 22  2  0  0  0  0
 20 40  1  0  0  0  0
 21 51  1  0  0  0  0
 22 41  1  0  0  0  0
 23 63  1  0  0  0  0
 24 25  1  0  0  0  0
 24 56  1  0  0  0  0
 25 31  2  0  0  0  0
 25 73  1  0  0  0  0
 26 83  1  0  0  0  0
 27 84  1  0  0  0  0
 28 30  2  0  0  0  0
 28 83  1  0  0  0  0
 29 85  1  0  0  0  0
 30 86  1  0  0  0  0
 31 87  1  0  0  0  0
 32 67  2  0  0  0  0
 33 68  1  0  0  0  0
 33 71  1  0  0  0  0
 34 72  1  0  0  0  0
 34 78  2  0  0  0  0
 35 52  1  0  0  0  0
 35 74  1  0  0  0  0
 35 79  2  0  0  0  0
 36 64  1  0  0  0  0
 36 69  1  0  0  0  0
 36 80  2  0  0  0  0
 37 65  1  0  0  0  0
 37 75  1  0  0  0  0
 37 81  2  0  0  0  0
 38 70  1  0  0  0  0
 38 73  1  0  0  0  0
 38 82  2  0  0  0  0
 39 42  1  0  0  0  0
 40 52  1  0  0  0  0
 41 69  1  0  0  0  0
 42 44  1  0  0  0  0
 43 45  1  0  0  0  0
 43 48  1  0  0  0  0
 44 51  1  0  0  0  0
 45 53  1  0  0  0  0
 46 47  1  0  0  0  0
 46 54  1  0  0  0  0
 47 55  1  0  0  0  0
 48 70  1  0  0  0  0
 49 53  1  0  0  0  0
 49 70  1  0  0  0  0
 50 54  1  0  0  0  0
 50 76  1  0  0  0  0
 51 74  1  0  0  0  0
 52 69  1  0  0  0  0
 53 68  1  0  0  0  0
 54 84  1  0  0  0  0
 55 57  1  0  0  0  0
 55 76  1  0  0  0  0
 58 65  1  0  0  0  0
 59 66  1  0  0  0  0
 60 66  1  0  0  0  0
 61 66  1  0  0  0  0
 62 77  1  0  0  0  0
 63 76  1  0  0  0  0
 64 66  1  0  0  0  0
 64 75  1  0  0  0  0
 65 77  1  0  0  0  0
 67 68  1  0  0  0  0
M  CHG  2  76   1  77   1
M  ISO  4  38 100  54 101  73 100  84 101
M  END
> <Batch ID>
0033

> <Smiles>
CNC(C)C(=O)NC(C(=O)N1Cc2cc([101O:1][101CH:1]3CCC(C)N(Cc4cc(C)c([100NH:0][100C:0](=O)N5CCCC(n6nc(-c7ccc(Oc8ccc(F)cc8F)cc7)c(C(N)=O)c6N)C5)c(Cl)c4)C3)ccc2CC1C(=O)NC1CCCc2ccccc21)C(C)(C)C

> <Shape>
0.226

> <Color>
0.095

> <Negative vol penalty>
0.000

$$$$

  -OEChem-04042321453D

 88 97  0     1  0  0  0  0  0999 V2000
  -17.1167  -29.3004   20.8507 C   0  0  0  0  0  0  0  0  0  0  0  0
  -18.2560  -30.0945   20.7682 C   0  0  0  0  0  0  0  0  0  0  0  0
  -26.4581  -13.0059   21.6571 C   0  0  0  0  0  0  0  0  0  0  0  0
  -26.0023  -14.0358   19.5197 C   0  0  0  0  0  0  0  0  0  0  0  0
  -17.1748  -28.0647   21.4939 C   0  0  0  0  0  0  0  0  0  0  0  0
  -19.4539  -29.6538   21.3298 C   0  0  0  0  0  0  0  0  0  0  0  0
  -26.5403  -29.9822   20.3346 C   0  0  0  0  0  0  0  0  0  0  0  0
  -25.1896  -12.4259   21.6482 C   0  0  0  0  0  0  0  0  0  0  0  0
  -24.7338  -13.4558   19.5107 C   0  0  0  0  0  0  0  0  0  0  0  0
  -27.7104  -30.3057   21.0202 C   0  0  0  0  0  0  0  0  0  0  0  0
  -23.6707   -9.7799   20.1907 C   0  0  0  0  0  0  0  0  0  0  0  0
  -23.5700   -8.4359   20.5500 C   0  0  0  0  0  0  0  0  0  0  0  0
  -27.7118  -28.1185   22.0376 C   0  0  0  0  0  0  0  0  0  0  0  0
  -33.1658  -24.1547   19.3064 C   0  0  0  0  0  0  0  0  0  0  0  0
  -33.5676  -25.4049   21.7677 C   0  0  0  0  0  0  0  0  0  0  0  0
  -22.1060   -9.0340   22.3766 C   0  0  0  0  0  0  0  0  0  0  0  0
  -26.8645  -13.8109   20.5929 C   0  0  0  0  0  0  0  0  0  0  0  0
  -29.3637  -13.8634   20.0842 C   0  0  0  0  0  0  0  0  0  0  0  0
  -18.3763  -27.6044   22.0553 C   0  0  0  0  0  0  0  0  0  0  0  0
  -25.9402  -28.7262   20.5040 C   0  0  0  0  0  0  0  0  0  0  0  0
  -19.5277  -28.4115   21.9823 C   0  0  0  0  0  0  0  0  0  0  0  0
  -26.5355  -27.7806   21.3510 C   0  0  0  0  0  0  0  0  0  0  0  0
  -33.0510  -25.5408   19.4115 C   0  0  0  0  0  0  0  0  0  0  0  0
  -33.4814  -23.3936   20.4320 C   0  0  0  0  0  0  0  0  0  0  0  0
  -33.2519  -26.1660   20.6422 C   0  0  0  0  0  0  0  0  0  0  0  0
  -24.3275  -12.6508   20.5750 C   0  0  0  0  0  0  0  0  0  0  0  0
  -28.2947  -29.3748   21.8741 C   0  0  0  0  0  0  0  0  0  0  0  0
  -22.9892  -10.7510   20.9243 C   0  0  0  0  0  0  0  0  0  0  0  0
  -22.7876   -8.0629   21.6429 C   0  0  0  0  0  0  0  0  0  0  0  0
  -22.2068  -10.3780   22.0172 C   0  0  0  0  0  0  0  0  0  0  0  0
  -33.6824  -24.0188   21.6626 C   0  0  0  0  0  0  0  0  0  0  0  0
  -28.1745  -14.4108   20.6018 C   0  0  0  0  0  0  0  0  0  0  0  0
  -30.3195  -14.8164   20.3385 C   0  0  0  0  0  0  0  0  0  0  0  0
  -32.9599  -29.4693   22.3840 C   0  0  0  0  0  0  0  0  0  0  0  0
  -34.2054  -29.8590   22.6776 C   0  0  0  0  0  0  0  0  0  0  0  0
  -29.5845  -12.6060   19.4317 C   0  0  0  0  0  0  0  0  0  0  0  0
  -23.1355  -27.7100   21.6015 C   0  0  0  0  0  0  0  0  0  0  0  0
  -24.2275  -24.8254   20.5969 C   0  0  0  0  0  0  0  0  0  0  0  0
  -26.8023  -22.3360   20.1600 C   0  0  0  0  0  0  0  0  0  0  0  0
  -31.9753  -20.0317   20.2622 C   0  0  0  0  0  0  0  0  0  0  0  0
  -18.3786  -26.2828   22.7819 C   0  0  0  0  0  0  0  0  0  0  0  0
  -24.6928  -28.3831   19.7367 C   0  0  0  0  0  0  0  0  0  0  0  0
  -25.9420  -26.4110   21.5520 C   0  0  0  0  0  0  0  0  0  0  0  0
  -31.7506  -30.3498   22.3678 C   0  0  0  0  0  0  0  0  0  0  0  0
  -19.7781  -25.7228   23.0232 C   0  0  0  0  0  0  0  0  0  0  0  0
  -30.1363  -18.9853   23.1983 C   0  0  0  0  0  0  0  0  0  0  0  0
  -20.7021  -26.8096   23.5636 C   0  0  0  0  0  0  0  0  0  0  0  0
  -29.5580  -17.6472   22.7341 C   0  0  0  0  0  0  0  0  0  0  0  0
  -30.1465  -20.0062   22.0643 C   0  0  0  0  0  0  0  0  0  0  0  0
  -30.2874  -18.2202   20.3720 C   0  0  0  0  0  0  0  0  0  0  0  0
  -31.1651  -28.0112   22.3177 C   0  0  0  0  0  0  0  0  0  0  0  0
  -20.8517  -27.9571   22.5575 C   0  0  1  0  0  0  0  0  0  0  0  0
  -23.8856  -27.2597   20.3800 C   0  0  1  0  0  0  0  0  0  0  0  0
  -30.2706  -17.1383   21.4671 C   0  0  2  0  0  0  0  0  0  0  0  0
  -30.6638  -29.3883   21.9043 C   0  0  1  0  0  0  0  0  0  1  0  0
  -32.7099  -26.3358   18.1940 C   0  0  0  0  0  0  0  0  0  0  0  0
  -35.3855  -28.9469   22.6822 C   0  0  0  0  0  0  0  0  0  0  0  0
  -26.7283  -20.0916   19.0401 C   0  0  0  0  0  0  0  0  0  0  0  0
  -23.6448  -23.7690   23.3995 C   0  0  0  0  0  0  0  0  0  0  0  0
  -25.0872  -21.7902   22.8779 C   0  0  0  0  0  0  0  0  0  0  0  0
  -23.0201  -22.2102   21.5462 C   0  0  0  0  0  0  0  0  0  0  0  0
  -29.0655  -23.0204   18.3800 C   0  0  0  0  0  0  0  0  0  0  0  0
  -33.5951  -21.9114   20.2775 C   0  0  0  0  0  0  0  0  0  0  0  0
  -33.1309  -27.6551   20.7797 C   0  0  0  0  0  0  0  0  0  0  0  0
  -25.0298  -23.7095   21.2214 C   0  0  1  0  0  0  0  0  0  0  0  0
  -27.1075  -21.5570   18.8934 C   0  0  2  0  0  0  0  0  0  0  0  0
  -24.2058  -22.8962   22.2592 C   0  0  0  0  0  0  0  0  0  0  0  0
  -28.3558  -15.6179   21.1442 N   0  0  0  0  0  0  0  0  0  0  0  0
  -29.6701  -15.8368   20.9688 N   0  0  0  0  0  0  0  0  0  0  0  0
  -24.7185  -26.1253   20.7845 N   0  0  0  0  0  0  0  0  0  0  0  0
  -30.8557  -19.4670   20.8954 N   0  0  0  0  0  0  0  0  0  0  0  0
  -31.6438  -14.8726   20.0824 N   0  0  0  0  0  0  0  0  0  0  0  0
  -28.4926  -11.7461   19.2510 N   0  0  0  0  0  0  0  0  0  0  0  0
  -21.7633  -27.5841   21.4973 N   0  0  0  0  0  0  0  0  0  0  0  0
  -25.5507  -22.9130   20.1156 N   0  0  0  0  0  0  0  0  0  0  0  0
  -32.4472  -21.2157   20.8155 N   0  0  0  0  0  0  0  0  0  0  0  0
  -32.6674  -28.0845   22.1423 N   0  3  1  0  0  0  0  0  0  0  0  0
  -28.5610  -21.6366   18.5739 N   0  3  0  0  0  0  0  0  0  0  0  0
  -30.7198  -12.2483   19.0356 O   0  0  0  0  0  0  0  0  0  0  0  0
  -23.7557  -28.1385   22.5676 O   0  0  0  0  0  0  0  0  0  0  0  0
  -23.2068  -24.5533   19.9600 O   0  0  0  0  0  0  0  0  0  0  0  0
  -27.5933  -22.4209   21.0968 O   0  0  0  0  0  0  0  0  0  0  0  0
  -32.5181  -19.5159   19.2792 O   0  0  0  0  0  0  0  0  0  0  0  0
  -23.0897  -12.0848   20.5659 O   0  0  0  0  0  0  0  0  0  0  0  0
  -29.4365  -29.6882   22.5450 O   0  0  0  0  0  0  0  0  0  1  0  0
  -22.6896   -6.7721   21.9869 F   0  0  0  0  0  0  0  0  0  0  0  0
  -21.5488  -11.3063   22.7251 F   0  0  0  0  0  0  0  0  0  0  0  0
  -34.0740  -23.1100   23.0769 Cl  0  0  0  0  0  0  0  0  0  0  0  0
  1  2  1  0  0  0  0
  1  5  2  0  0  0  0
  2  6  2  0  0  0  0
  3  8  2  0  0  0  0
  3 17  1  0  0  0  0
  4  9  1  0  0  0  0
  4 17  2  0  0  0  0
  5 19  1  0  0  0  0
  6 21  1  0  0  0  0
  7 10  2  0  0  0  0
  7 20  1  0  0  0  0
  8 26  1  0  0  0  0
  9 26  2  0  0  0  0
 10 27  1  0  0  0  0
 11 12  2  0  0  0  0
 11 28  1  0  0  0  0
 12 29  1  0  0  0  0
 13 22  1  0  0  0  0
 13 27  2  0  0  0  0
 14 23  1  0  0  0  0
 14 24  2  0  0  0  0
 15 25  1  0  0  0  0
 15 31  2  0  0  0  0
 16 29  2  0  0  0  0
 16 30  1  0  0  0  0
 17 32  1  0  0  0  0
 18 32  1  0  0  0  0
 18 33  2  0  0  0  0
 18 36  1  0  0  0  0
 19 21  2  0  0  0  0
 19 41  1  0  0  0  0
 20 22  2  0  0  0  0
 20 42  1  0  0  0  0
 21 52  1  0  0  0  0
 22 43  1  0  0  0  0
 23 25  2  0  0  0  0
 23 56  1  0  0  0  0
 24 31  1  0  0  0  0
 24 63  1  0  0  0  0
 25 64  1  0  0  0  0
 26 84  1  0  0  0  0
 27 85  1  0  0  0  0
 28 30  2  0  0  0  0
 28 84  1  0  0  0  0
 29 86  1  0  0  0  0
 30 87  1  0  0  0  0
 31 88  1  0  0  0  0
 32 68  2  0  0  0  0
 33 69  1  0  0  0  0
 33 72  1  0  0  0  0
 34 35  2  0  0  0  0
 34 44  1  0  0  0  0
 34 77  1  0  0  0  0
 35 57  1  0  0  0  0
 36 73  1  0  0  0  0
 36 79  2  0  0  0  0
 37 53  1  0  0  0  0
 37 74  1  0  0  0  0
 37 80  2  0  0  0  0
 38 65  1  0  0  0  0
 38 70  1  0  0  0  0
 38 81  2  0  0  0  0
 39 66  1  0  0  0  0
 39 75  1  0  0  0  0
 39 82  2  0  0  0  0
 40 71  1  0  0  0  0
 40 76  1  0  0  0  0
 40 83  2  0  0  0  0
 41 45  1  0  0  0  0
 42 53  1  0  0  0  0
 43 70  1  0  0  0  0
 44 55  1  0  0  0  0
 45 47  1  0  0  0  0
 46 48  1  0  0  0  0
 46 49  1  0  0  0  0
 47 52  1  0  0  0  0
 48 54  1  0  0  0  0
 49 71  1  0  0  0  0
 50 54  1  0  0  0  0
 50 71  1  0  0  0  0
 51 55  1  0  0  0  0
 51 77  1  0  0  0  0
 52 74  1  0  0  0  0
 53 70  1  0  0  0  0
 54 69  1  0  0  0  0
 55 85  1  0  0  0  0
 58 66  1  0  0  0  0
 59 67  1  0  0  0  0
 60 67  1  0  0  0  0
 61 67  1  0  0  0  0
 62 78  1  0  0  0  0
 63 76  1  0  0  0  0
 64 77  1  0  0  0  0
 65 67  1  0  0  0  0
 65 75  1  0  0  0  0
 66 78  1  0  0  0  0
 68 69  1  0  0  0  0
M  CHG  2  77   1  78   1
M  ISO  4  40 100  55 101  76 100  85 101
M  END
> <Batch ID>
0033

> <Smiles>
CC=C1C[101CH:1]([101O:1]c2ccc3c(c2)CN(C(=O)C(NC(=O)C(C)NC)C(C)(C)C)C(C(=O)NC2CCCc4ccccc42)C3)CN1Cc1cc(Cl)c(C[100NH:0][100C:0](=O)N2CCCC(n3nc(-c4ccc(Oc5ccc(F)cc5F)cc4)c(C(N)=O)c3N)C2)cc1C

> <Shape>
0.240

> <Color>
0.071

> <Negative vol penalty>
0.000

$$$$

  -OEChem-04042321453D

 90 99  0     1  0  0  0  0  0999 V2000
  -34.7341  -20.3571   21.3023 C   0  0  0  0  0  0  0  0  0  0  0  0
  -33.4996  -20.5703   20.6996 C   0  0  0  0  0  0  0  0  0  0  0  0
  -22.6614  -10.2105   20.1716 C   0  0  0  0  0  0  0  0  0  0  0  0
  -24.3224   -9.4167   21.7363 C   0  0  0  0  0  0  0  0  0  0  0  0
  -35.3393  -21.3833   22.0247 C   0  0  0  0  0  0  0  0  0  0  0  0
  -32.8753  -21.8133   20.8090 C   0  0  0  0  0  0  0  0  0  0  0  0
  -28.7820  -22.4988   18.1673 C   0  0  0  0  0  0  0  0  0  0  0  0
  -21.9240   -9.0418   20.3614 C   0  0  0  0  0  0  0  0  0  0  0  0
  -23.5849   -8.2480   21.9261 C   0  0  0  0  0  0  0  0  0  0  0  0
  -27.5702  -21.8854   18.4821 C   0  0  0  0  0  0  0  0  0  0  0  0
  -20.8464   -7.2862   23.6569 C   0  0  0  0  0  0  0  0  0  0  0  0
  -20.6694   -6.8388   24.9662 C   0  0  0  0  0  0  0  0  0  0  0  0
  -26.7640  -23.9641   19.4031 C   0  0  0  0  0  0  0  0  0  0  0  0
  -28.9489  -19.9840   21.7111 C   0  0  0  0  0  0  0  0  0  0  0  0
  -21.7814   -4.7676   24.4087 C   0  0  0  0  0  0  0  0  0  0  0  0
  -23.8606  -10.3979   20.8590 C   0  0  0  0  0  0  0  0  0  0  0  0
  -24.2037  -12.9252   20.9121 C   0  0  0  0  0  0  0  0  0  0  0  0
  -34.7156  -22.6353   22.1530 C   0  0  0  0  0  0  0  0  0  0  0  0
  -28.9982  -23.8489   18.4784 C   0  0  0  0  0  0  0  0  0  0  0  0
  -33.4811  -22.8692   21.5137 C   0  0  0  0  0  0  0  0  0  0  0  0
  -27.9785  -24.5930   19.0889 C   0  0  0  0  0  0  0  0  0  0  0  0
  -28.1786  -19.9688   22.8738 C   0  0  0  0  0  0  0  0  0  0  0  0
  -28.2875  -18.9044   23.7687 C   0  0  0  0  0  0  0  0  0  0  0  0
  -29.1667  -17.8551   23.5008 C   0  0  0  0  0  0  0  0  0  0  0  0
  -29.9369  -17.8703   22.3380 C   0  0  0  0  0  0  0  0  0  0  0  0
  -22.3857   -8.0606   21.2387 C   0  0  0  0  0  0  0  0  0  0  0  0
  -26.5621  -22.6172   19.1027 C   0  0  0  0  0  0  0  0  0  0  0  0
  -21.4907   -6.4743   22.7235 C   0  0  0  0  0  0  0  0  0  0  0  0
  -21.1369   -5.5796   25.3421 C   0  0  0  0  0  0  0  0  0  0  0  0
  -29.8280  -18.9346   21.4431 C   0  0  0  0  0  0  0  0  0  0  0  0
  -21.9583   -5.2150   23.0994 C   0  0  0  0  0  0  0  0  0  0  0  0
  -24.6231  -11.6047   20.6629 C   0  0  0  0  0  0  0  0  0  0  0  0
  -25.2845  -13.6996   20.5677 C   0  0  0  0  0  0  0  0  0  0  0  0
  -25.5188  -20.7541   21.4749 C   0  0  0  0  0  0  0  0  0  0  0  0
  -25.7402  -19.5949   20.8277 C   0  0  0  0  0  0  0  0  0  0  0  0
  -22.9492  -13.4086   21.4105 C   0  0  0  0  0  0  0  0  0  0  0  0
  -31.0420  -25.4235   20.3351 C   0  0  0  0  0  0  0  0  0  0  0  0
  -29.6569  -28.0282   18.9862 C   0  0  0  0  0  0  0  0  0  0  0  0
  -26.9412  -29.3846   17.4267 C   0  0  0  0  0  0  0  0  0  0  0  0
  -30.7737  -14.7039   20.6435 C   0  0  0  0  0  0  0  0  0  0  0  0
  -35.4189  -23.7131   22.9398 C   0  0  0  0  0  0  0  0  0  0  0  0
  -30.3011  -24.5029   18.1081 C   0  0  0  0  0  0  0  0  0  0  0  0
  -28.1531  -26.0506   19.4255 C   0  0  0  0  0  0  0  0  0  0  0  0
  -34.4853  -24.8395   23.3709 C   0  0  0  0  0  0  0  0  0  0  0  0
  -22.8978  -22.3318   22.2374 C   0  0  0  0  0  0  0  0  0  0  0  0
  -29.5506  -12.4997   18.1290 C   0  0  0  0  0  0  0  0  0  0  0  0
  -23.3915  -21.4066   23.3507 C   0  0  0  0  0  0  0  0  0  0  0  0
  -33.6701  -25.3231   22.1809 C   0  0  0  0  0  0  0  0  0  0  0  0
  -23.4732  -22.0595   20.8495 C   0  0  0  0  0  0  0  0  0  0  0  0
  -28.1281  -12.1747   18.5879 C   0  0  0  0  0  0  0  0  0  0  0  0
  -30.5084  -12.6325   19.3110 C   0  0  0  0  0  0  0  0  0  0  0  0
  -28.6564  -13.2597   20.8111 C   0  0  0  0  0  0  0  0  0  0  0  0
  -24.8617  -21.6247   23.7010 C   0  0  0  0  0  0  0  0  0  0  0  0
  -32.7690  -24.2034   21.6449 C   0  0  1  0  0  0  0  0  0  0  0  0
  -25.0011  -21.9991   20.7907 C   0  0  2  0  0  0  0  0  0  1  0  0
  -30.6009  -25.7487   18.9361 C   0  0  1  0  0  0  0  0  0  0  0  0
  -27.6425  -13.1713   19.6576 C   0  0  2  0  0  0  0  0  0  0  0  0
  -27.4579  -18.8899   25.0136 C   0  0  0  0  0  0  0  0  0  0  0  0
  -29.2835  -16.7127   24.4595 C   0  0  0  0  0  0  0  0  0  0  0  0
  -26.0896  -31.5466   16.4793 C   0  0  0  0  0  0  0  0  0  0  0  0
  -29.1297  -29.0553   21.8105 C   0  0  0  0  0  0  0  0  0  0  0  0
  -27.4873  -30.6764   20.8395 C   0  0  0  0  0  0  0  0  0  0  0  0
  -29.8928  -30.8015   20.1910 C   0  0  0  0  0  0  0  0  0  0  0  0
  -26.6907  -28.2309   14.7128 C   0  0  0  0  0  0  0  0  0  0  0  0
  -30.8861  -16.7583   22.0312 C   0  0  0  0  0  0  0  0  0  0  0  0
  -27.2393  -21.1088   23.1364 C   0  0  0  0  0  0  0  0  0  0  0  0
  -28.4712  -28.9014   19.3188 C   0  0  1  0  0  0  0  0  0  0  0  0
  -26.8200  -30.2462   16.1828 C   0  0  2  0  0  0  0  0  0  0  0  0
  -28.7424  -29.8307   20.5355 C   0  0  0  0  0  0  0  0  0  0  0  0
  -25.8729  -11.5401   20.1960 N   0  0  0  0  0  0  0  0  0  0  0  0
  -26.2480  -12.8297   20.1490 N   0  0  0  0  0  0  0  0  0  0  0  0
  -29.4472  -26.6433   19.0492 N   0  0  0  0  0  0  0  0  0  0  0  0
  -29.9905  -13.5934   20.2879 N   0  0  0  0  0  0  0  0  0  0  0  0
  -25.4952  -15.0329   20.5850 N   0  0  0  0  0  0  0  0  0  0  0  0
  -22.7911  -13.5517   22.7958 N   0  0  0  0  0  0  0  0  0  0  0  0
  -32.1733  -24.6326   20.3988 N   0  0  0  0  0  0  0  0  0  0  0  0
  -28.1287  -29.6099   18.0904 N   0  0  0  0  0  0  0  0  0  0  0  0
  -30.2054  -15.5685   21.5710 N   0  0  0  0  0  0  0  0  0  0  0  0
  -25.7939  -20.7515   22.8944 N   0  3  2  0  0  0  0  0  0  0  0  0
  -26.0711  -29.5184   15.1196 N   0  3  0  0  0  0  0  0  0  0  0  0
  -21.9912  -13.6893   20.6510 O   0  0  0  0  0  0  0  0  0  0  0  0
  -30.4041  -25.8592   21.2864 O   0  0  0  0  0  0  0  0  0  0  0  0
  -30.7278  -28.5554   18.6747 O   0  0  0  0  0  0  0  0  0  0  0  0
  -26.0680  -28.5937   17.7769 O   0  0  0  0  0  0  0  0  0  0  0  0
  -31.8940  -14.9124   20.1656 O   0  0  0  0  0  0  0  0  0  0  0  0
  -21.6663   -6.9202   21.4243 O   0  0  0  0  0  0  0  0  0  0  0  0
  -25.3786  -22.0207   19.4116 O   0  0  0  0  0  0  0  0  0  1  0  0
  -20.9683   -5.1507   26.5998 F   0  0  0  0  0  0  0  0  0  0  0  0
  -30.5641  -18.9588   20.3230 F   0  0  0  0  0  0  0  0  0  0  0  0
  -22.5792   -4.4310   22.2074 F   0  0  0  0  0  0  0  0  0  0  0  0
  1  2  1  0  0  0  0
  1  5  2  0  0  0  0
  2  6  2  0  0  0  0
  3  8  2  0  0  0  0
  3 16  1  0  0  0  0
  4  9  1  0  0  0  0
  4 16  2  0  0  0  0
  5 18  1  0  0  0  0
  6 20  1  0  0  0  0
  7 10  2  0  0  0  0
  7 19  1  0  0  0  0
  8 26  1  0  0  0  0
  9 26  2  0  0  0  0
 10 27  1  0  0  0  0
 11 12  2  0  0  0  0
 11 28  1  0  0  0  0
 12 29  1  0  0  0  0
 13 21  1  0  0  0  0
 13 27  2  0  0  0  0
 14 22  1  0  0  0  0
 14 30  2  0  0  0  0
 15 29  2  0  0  0  0
 15 31  1  0  0  0  0
 16 32  1  0  0  0  0
 17 32  1  0  0  0  0
 17 33  2  0  0  0  0
 17 36  1  0  0  0  0
 18 20  2  0  0  0  0
 18 41  1  0  0  0  0
 19 21  2  0  0  0  0
 19 42  1  0  0  0  0
 20 54  1  0  0  0  0
 21 43  1  0  0  0  0
 22 23  2  0  0  0  0
 22 66  1  0  0  0  0
 23 24  1  0  0  0  0
 23 58  1  0  0  0  0
 24 25  2  0  0  0  0
 24 59  1  0  0  0  0
 25 30  1  0  0  0  0
 25 65  1  0  0  0  0
 26 86  1  0  0  0  0
 27 87  1  0  0  0  0
 28 31  2  0  0  0  0
 28 86  1  0  0  0  0
 29 88  1  0  0  0  0
 30 89  1  0  0  0  0
 31 90  1  0  0  0  0
 32 70  2  0  0  0  0
 33 71  1  0  0  0  0
 33 74  1  0  0  0  0
 34 35  2  0  0  0  0
 34 55  1  0  0  0  0
 34 79  1  0  0  0  0
 36 75  1  0  0  0  0
 36 81  2  0  0  0  0
 37 56  1  0  0  0  0
 37 76  1  0  0  0  0
 37 82  2  0  0  0  0
 38 67  1  0  0  0  0
 38 72  1  0  0  0  0
 38 83  2  0  0  0  0
 39 68  1  0  0  0  0
 39 77  1  0  0  0  0
 39 84  2  0  0  0  0
 40 73  1  0  0  0  0
 40 78  1  0  0  0  0
 40 85  2  0  0  0  0
 41 44  1  0  0  0  0
 42 56  1  0  0  0  0
 43 72  1  0  0  0  0
 44 48  1  0  0  0  0
 45 47  1  0  0  0  0
 45 49  1  0  0  0  0
 46 50  1  0  0  0  0
 46 51  1  0  0  0  0
 47 53  1  0  0  0  0
 48 54  1  0  0  0  0
 49 55  1  0  0  0  0
 50 57  1  0  0  0  0
 51 73  1  0  0  0  0
 52 57  1  0  0  0  0
 52 73  1  0  0  0  0
 53 79  1  0  0  0  0
 54 76  1  0  0  0  0
 55 87  1  0  0  0  0
 56 72  1  0  0  0  0
 57 71  1  0  0  0  0
 60 68  1  0  0  0  0
 61 69  1  0  0  0  0
 62 69  1  0  0  0  0
 63 69  1  0  0  0  0
 64 80  1  0  0  0  0
 65 78  1  0  0  0  0
 66 79  1  0  0  0  0
 67 69  1  0  0  0  0
 67 77  1  0  0  0  0
 68 80  1  0  0  0  0
 70 71  1  0  0  0  0
M  CHG  2  79   1  80   1
M  ISO  4  40 100  55 101  78 100  87 101
M  END
> <Batch ID>
0033

> <Smiles>
C=C1N(Cc2cc(F)c(C[100NH:0][100C:0](=O)N3CCCC(n4nc(-c5ccc(Oc6ccc(F)cc6F)cc5)c(C(N)=O)c4N)C3)c(C)c2C)CCCC[101CH:1]1[101O:1]c1ccc2c(c1)CN(C(=O)C(NC(=O)C(C)NC)C(C)(C)C)C(C(=O)NC1CCCc3ccccc31)C2

> <Shape>
0.269

> <Color>
0.176

> <Negative vol penalty>
0.000

$$$$

  -OEChem-04042321453D

 88 97  0     1  0  0  0  0  0999 V2000
  -40.7374  -21.5251   34.8295 C   0  0  0  0  0  0  0  0  0  0  0  0
  -39.3888  -21.2256   34.6654 C   0  0  0  0  0  0  0  0  0  0  0  0
  -23.0725   -9.8700   19.9436 C   0  0  0  0  0  0  0  0  0  0  0  0
  -23.8351   -9.8787   22.2360 C   0  0  0  0  0  0  0  0  0  0  0  0
  -41.3841  -22.3495   33.9096 C   0  0  0  0  0  0  0  0  0  0  0  0
  -38.6858  -21.7512   33.5819 C   0  0  0  0  0  0  0  0  0  0  0  0
  -34.1665  -19.0410   30.4616 C   0  0  0  0  0  0  0  0  0  0  0  0
  -22.3290   -8.7169   20.1952 C   0  0  0  0  0  0  0  0  0  0  0  0
  -23.0916   -8.7256   22.4877 C   0  0  0  0  0  0  0  0  0  0  0  0
  -32.7787  -19.1539   30.5326 C   0  0  0  0  0  0  0  0  0  0  0  0
  -19.3826   -7.9211   21.6505 C   0  0  0  0  0  0  0  0  0  0  0  0
  -18.0751   -7.8743   21.1668 C   0  0  0  0  0  0  0  0  0  0  0  0
  -32.8222  -20.7519   28.7261 C   0  0  0  0  0  0  0  0  0  0  0  0
  -29.3596  -18.8988   22.1816 C   0  0  0  0  0  0  0  0  0  0  0  0
  -28.3145  -19.4144   24.2979 C   0  0  0  0  0  0  0  0  0  0  0  0
  -18.6335   -5.9304   19.8454 C   0  0  0  0  0  0  0  0  0  0  0  0
  -23.8256  -10.4508   20.9640 C   0  0  0  0  0  0  0  0  0  0  0  0
  -24.1670  -12.9759   20.8417 C   0  0  0  0  0  0  0  0  0  0  0  0
  -40.6911  -22.8776   32.8090 C   0  0  0  0  0  0  0  0  0  0  0  0
  -34.8948  -19.7922   29.5280 C   0  0  0  0  0  0  0  0  0  0  0  0
  -39.3235  -22.5845   32.6472 C   0  0  0  0  0  0  0  0  0  0  0  0
  -34.2189  -20.6448   28.6435 C   0  0  0  0  0  0  0  0  0  0  0  0
  -29.9421  -17.7639   22.7456 C   0  0  0  0  0  0  0  0  0  0  0  0
  -28.8969  -18.2794   24.8620 C   0  0  0  0  0  0  0  0  0  0  0  0
  -29.7107  -17.4541   24.0859 C   0  0  0  0  0  0  0  0  0  0  0  0
  -22.3386   -8.1448   21.4673 C   0  0  0  0  0  0  0  0  0  0  0  0
  -32.1066  -20.0116   29.6668 C   0  0  0  0  0  0  0  0  0  0  0  0
  -20.3156   -6.9725   21.2316 C   0  0  0  0  0  0  0  0  0  0  0  0
  -17.7006   -6.8790   20.2643 C   0  0  0  0  0  0  0  0  0  0  0  0
  -19.9410   -5.9771   20.3290 C   0  0  0  0  0  0  0  0  0  0  0  0
  -28.5459  -19.7241   22.9577 C   0  0  0  0  0  0  0  0  0  0  0  0
  -24.5942  -11.6416   20.7045 C   0  0  0  0  0  0  0  0  0  0  0  0
  -25.2586  -13.7253   20.4766 C   0  0  0  0  0  0  0  0  0  0  0  0
  -27.7405  -18.8703   28.3756 C   0  0  0  0  0  0  0  0  0  0  0  0
  -26.4329  -18.5892   28.4009 C   0  0  0  0  0  0  0  0  0  0  0  0
  -22.8969  -13.4919   21.2617 C   0  0  0  0  0  0  0  0  0  0  0  0
  -37.1457  -22.0289   29.7145 C   0  0  0  0  0  0  0  0  0  0  0  0
  -37.2010  -21.6904   26.4888 C   0  0  0  0  0  0  0  0  0  0  0  0
  -35.5615  -20.7561   23.6452 C   0  0  0  0  0  0  0  0  0  0  0  0
  -30.7425  -14.7450   20.6578 C   0  0  0  0  0  0  0  0  0  0  0  0
  -41.4211  -23.8022   31.8672 C   0  0  0  0  0  0  0  0  0  0  0  0
  -36.3889  -19.6390   29.4462 C   0  0  0  0  0  0  0  0  0  0  0  0
  -34.9526  -21.4579   27.6095 C   0  0  0  0  0  0  0  0  0  0  0  0
  -28.6330  -18.9809   29.5710 C   0  0  0  0  0  0  0  0  0  0  0  0
  -40.6975  -24.0151   30.5400 C   0  0  0  0  0  0  0  0  0  0  0  0
  -29.6023  -12.3587   18.2741 C   0  0  0  0  0  0  0  0  0  0  0  0
  -39.2179  -24.2996   30.7783 C   0  0  0  0  0  0  0  0  0  0  0  0
  -28.1654  -12.0651   18.7089 C   0  0  0  0  0  0  0  0  0  0  0  0
  -30.5209  -12.5805   19.4738 C   0  0  0  0  0  0  0  0  0  0  0  0
  -28.6207  -13.3123   20.8620 C   0  0  0  0  0  0  0  0  0  0  0  0
  -29.6678  -19.8771   27.5860 C   0  0  0  0  0  0  0  0  0  0  0  0
  -38.5330  -23.1154   31.4711 C   0  0  1  0  0  0  0  0  0  0  0  0
  -37.0780  -20.8376   28.8012 C   0  0  1  0  0  0  0  0  0  0  0  0
  -27.6451  -13.1368   19.6857 C   0  0  2  0  0  0  0  0  0  0  0  0
  -29.9908  -19.2401   28.9309 C   0  0  1  0  0  0  0  0  0  1  0  0
  -30.3360  -16.2375   24.6911 C   0  0  0  0  0  0  0  0  0  0  0  0
  -25.5778  -18.4881   27.1831 C   0  0  0  0  0  0  0  0  0  0  0  0
  -35.8508  -20.6299   21.1557 C   0  0  0  0  0  0  0  0  0  0  0  0
  -36.7892  -24.7072   26.2905 C   0  0  0  0  0  0  0  0  0  0  0  0
  -36.1435  -24.3912   23.8923 C   0  0  0  0  0  0  0  0  0  0  0  0
  -38.4349  -23.7693   24.6575 C   0  0  0  0  0  0  0  0  0  0  0  0
  -35.2090  -17.8176   23.6366 C   0  0  0  0  0  0  0  0  0  0  0  0
  -30.8095  -16.8965   21.8931 C   0  0  0  0  0  0  0  0  0  0  0  0
  -28.6324  -17.9678   26.3056 C   0  0  0  0  0  0  0  0  0  0  0  0
  -36.4691  -22.3305   25.3340 C   0  0  1  0  0  0  0  0  0  0  0  0
  -35.9882  -19.8874   22.4757 C   0  0  2  0  0  0  0  0  0  0  0  0
  -36.9453  -23.7858   25.0642 C   0  0  0  0  0  0  0  0  0  0  0  0
  -25.8586  -11.5456   20.2848 N   0  0  0  0  0  0  0  0  0  0  0  0
  -26.2352  -12.8291   20.1551 N   0  0  0  0  0  0  0  0  0  0  0  0
  -36.4134  -21.2783   27.5731 N   0  0  0  0  0  0  0  0  0  0  0  0
  -29.9712  -13.6096   20.3596 N   0  0  0  0  0  0  0  0  0  0  0  0
  -25.4688  -15.0567   20.4024 N   0  0  0  0  0  0  0  0  0  0  0  0
  -21.8855  -12.5829   21.6009 N   0  0  0  0  0  0  0  0  0  0  0  0
  -38.2683  -22.0574   30.5197 N   0  0  0  0  0  0  0  0  0  0  0  0
  -36.6304  -21.4289   24.1984 N   0  0  0  0  0  0  0  0  0  0  0  0
  -30.1442  -15.6744   21.4999 N   0  0  0  0  0  0  0  0  0  0  0  0
  -28.3924  -19.1948   27.1381 N   0  3  1  0  0  0  0  0  0  0  0  0
  -35.1504  -18.6565   22.4120 N   0  3  0  0  0  0  0  0  0  0  0  0
  -22.6606  -14.7225   21.3185 O   0  0  0  0  0  0  0  0  0  0  0  0
  -36.2467  -22.8613   29.6893 O   0  0  0  0  0  0  0  0  0  0  0  0
  -38.4255  -21.5543   26.4279 O   0  0  0  0  0  0  0  0  0  0  0  0
  -34.3959  -20.8332   24.0273 O   0  0  0  0  0  0  0  0  0  0  0  0
  -31.8779  -14.9203   20.2027 O   0  0  0  0  0  0  0  0  0  0  0  0
  -21.6130   -7.0198   21.7133 O   0  0  0  0  0  0  0  0  0  0  0  0
  -30.7521  -20.1241   29.7344 O   0  0  0  0  0  0  0  0  0  1  0  0
  -16.4446   -6.8333   19.8011 F   0  0  0  0  0  0  0  0  0  0  0  0
  -20.8326   -5.0624   19.9238 F   0  0  0  0  0  0  0  0  0  0  0  0
  -27.8272  -21.1248   22.2620 Cl  0  0  0  0  0  0  0  0  0  0  0  0
  1  2  1  0  0  0  0
  1  5  2  0  0  0  0
  2  6  2  0  0  0  0
  3  8  2  0  0  0  0
  3 17  1  0  0  0  0
  4  9  1  0  0  0  0
  4 17  2  0  0  0  0
  5 19  1  0  0  0  0
  6 21  1  0  0  0  0
  7 10  2  0  0  0  0
  7 20  1  0  0  0  0
  8 26  1  0  0  0  0
  9 26  2  0  0  0  0
 10 27  1  0  0  0  0
 11 12  2  0  0  0  0
 11 28  1  0  0  0  0
 12 29  1  0  0  0  0
 13 22  1  0  0  0  0
 13 27  2  0  0  0  0
 14 23  2  0  0  0  0
 14 31  1  0  0  0  0
 15 24  1  0  0  0  0
 15 31  2  0  0  0  0
 16 29  2  0  0  0  0
 16 30  1  0  0  0  0
 17 32  1  0  0  0  0
 18 32  1  0  0  0  0
 18 33  2  0  0  0  0
 18 36  1  0  0  0  0
 19 21  2  0  0  0  0
 19 41  1  0  0  0  0
 20 22  2  0  0  0  0
 20 42  1  0  0  0  0
 21 52  1  0  0  0  0
 22 43  1  0  0  0  0
 23 25  1  0  0  0  0
 23 63  1  0  0  0  0
 24 25  2  0  0  0  0
 24 64  1  0  0  0  0
 25 56  1  0  0  0  0
 26 84  1  0  0  0  0
 27 85  1  0  0  0  0
 28 30  2  0  0  0  0
 28 84  1  0  0  0  0
 29 86  1  0  0  0  0
 30 87  1  0  0  0  0
 31 88  1  0  0  0  0
 32 68  2  0  0  0  0
 33 69  1  0  0  0  0
 33 72  1  0  0  0  0
 34 35  2  0  0  0  0
 34 44  1  0  0  0  0
 34 77  1  0  0  0  0
 35 57  1  0  0  0  0
 36 73  1  0  0  0  0
 36 79  2  0  0  0  0
 37 53  1  0  0  0  0
 37 74  1  0  0  0  0
 37 80  2  0  0  0  0
 38 65  1  0  0  0  0
 38 70  1  0  0  0  0
 38 81  2  0  0  0  0
 39 66  1  0  0  0  0
 39 75  1  0  0  0  0
 39 82  2  0  0  0  0
 40 71  1  0  0  0  0
 40 76  1  0  0  0  0
 40 83  2  0  0  0  0
 41 45  1  0  0  0  0
 42 53  1  0  0  0  0
 43 70  1  0  0  0  0
 44 55  1  0  0  0  0
 45 47  1  0  0  0  0
 46 48  1  0  0  0  0
 46 49  1  0  0  0  0
 47 52  1  0  0  0  0
 48 54  1  0  0  0  0
 49 71  1  0  0  0  0
 50 54  1  0  0  0  0
 50 71  1  0  0  0  0
 51 55  1  0  0  0  0
 51 77  1  0  0  0  0
 52 74  1  0  0  0  0
 53 70  1  0  0  0  0
 54 69  1  0  0  0  0
 55 85  1  0  0  0  0
 58 66  1  0  0  0  0
 59 67  1  0  0  0  0
 60 67  1  0  0  0  0
 61 67  1  0  0  0  0
 62 78  1  0  0  0  0
 63 76  1  0  0  0  0
 64 77  1  0  0  0  0
 65 67  1  0  0  0  0
 65 75  1  0  0  0  0
 66 78  1  0  0  0  0
 68 69  1  0  0  0  0
M  CHG  2  77   1  78   1
M  ISO  4  40 100  55 101  76 100  85 101
M  END
> <Batch ID>
0033

> <Smiles>
CC=C1C[101CH:1]([101O:1]c2ccc3c(c2)CN(C(=O)C(NC(=O)C(C)NC)C(C)(C)C)C(C(=O)NC2CCCc4ccccc42)C3)CN1Cc1cc(Cl)cc(C[100NH:0][100C:0](=O)N2CCCC(n3nc(-c4ccc(Oc5ccc(F)cc5F)cc4)c(C(N)=O)c3N)C2)c1C

> <Shape>
0.149

> <Color>
0.184

> <Negative vol penalty>
0.000

$$$$

  -OEChem-04042321453D

 83 91  0     1  0  0  0  0  0999 V2000
  -33.2477  -30.1898   11.4575 C   0  0  0  0  0  0  0  0  0  0  0  0
  -33.0695  -28.9590   12.0811 C   0  0  0  0  0  0  0  0  0  0  0  0
  -23.0763   -9.8635   19.9429 C   0  0  0  0  0  0  0  0  0  0  0  0
  -23.8300   -9.8856   22.2382 C   0  0  0  0  0  0  0  0  0  0  0  0
  -32.9907  -31.3681   12.1571 C   0  0  0  0  0  0  0  0  0  0  0  0
  -32.6352  -28.9059   13.4051 C   0  0  0  0  0  0  0  0  0  0  0  0
  -28.9829  -24.6788   15.9148 C   0  0  0  0  0  0  0  0  0  0  0  0
  -31.2320  -19.5575   19.1656 C   0  0  0  0  0  0  0  0  0  0  0  0
  -31.4380  -18.5312   20.0874 C   0  0  0  0  0  0  0  0  0  0  0  0
  -22.3567   -8.6945   20.1904 C   0  0  0  0  0  0  0  0  0  0  0  0
  -23.1103   -8.7166   22.4857 C   0  0  0  0  0  0  0  0  0  0  0  0
  -29.2491  -23.5443   16.6802 C   0  0  0  0  0  0  0  0  0  0  0  0
  -23.4739   -5.4019   21.9276 C   0  0  0  0  0  0  0  0  0  0  0  0
  -24.1094   -4.3897   22.6467 C   0  0  0  0  0  0  0  0  0  0  0  0
  -28.8553  -24.8163   18.6917 C   0  0  0  0  0  0  0  0  0  0  0  0
  -28.9710  -19.8286   19.9727 C   0  0  0  0  0  0  0  0  0  0  0  0
  -22.4003   -4.5259   24.3489 C   0  0  0  0  0  0  0  0  0  0  0  0
  -23.8130  -10.4590   20.9668 C   0  0  0  0  0  0  0  0  0  0  0  0
  -24.1009  -12.9910   20.8488 C   0  0  0  0  0  0  0  0  0  0  0  0
  -32.5437  -31.3292   13.4872 C   0  0  0  0  0  0  0  0  0  0  0  0
  -28.6611  -25.8954   16.5335 C   0  0  0  0  0  0  0  0  0  0  0  0
  -32.3732  -30.0849   14.1236 C   0  0  0  0  0  0  0  0  0  0  0  0
  -28.5830  -25.9642   17.9318 C   0  0  0  0  0  0  0  0  0  0  0  0
  -29.9985  -20.2063   19.1083 C   0  0  0  0  0  0  0  0  0  0  0  0
  -30.4106  -18.1535   20.9519 C   0  0  0  0  0  0  0  0  0  0  0  0
  -29.1770  -18.8022   20.8945 C   0  0  0  0  0  0  0  0  0  0  0  0
  -22.3737   -8.1211   21.4618 C   0  0  0  0  0  0  0  0  0  0  0  0
  -29.1882  -23.6137   18.0689 C   0  0  0  0  0  0  0  0  0  0  0  0
  -22.3016   -5.9762   22.4192 C   0  0  0  0  0  0  0  0  0  0  0  0
  -23.5726   -3.9516   23.8573 C   0  0  0  0  0  0  0  0  0  0  0  0
  -21.7648   -5.5382   23.6298 C   0  0  0  0  0  0  0  0  0  0  0  0
  -24.5570  -11.6663   20.7116 C   0  0  0  0  0  0  0  0  0  0  0  0
  -25.1776  -13.7639   20.4887 C   0  0  0  0  0  0  0  0  0  0  0  0
  -22.8185  -13.4792   21.2647 C   0  0  0  0  0  0  0  0  0  0  0  0
  -29.9824  -28.7850   16.6230 C   0  0  0  0  0  0  0  0  0  0  0  0
  -27.2761  -29.5453   18.2416 C   0  0  0  0  0  0  0  0  0  0  0  0
  -24.6616  -28.4974   20.1687 C   0  0  0  0  0  0  0  0  0  0  0  0
  -30.6377  -14.9003   20.6915 C   0  0  0  0  0  0  0  0  0  0  0  0
  -32.3243  -32.6304   14.2176 C   0  0  0  0  0  0  0  0  0  0  0  0
  -28.3505  -27.1034   15.6929 C   0  0  0  0  0  0  0  0  0  0  0  0
  -28.2221  -27.2413   18.6440 C   0  0  0  0  0  0  0  0  0  0  0  0
  -31.5077  -32.4797   15.4985 C   0  0  0  0  0  0  0  0  0  0  0  0
  -29.5576  -12.4931   18.3008 C   0  0  0  0  0  0  0  0  0  0  0  0
  -32.0200  -31.3030   16.3229 C   0  0  0  0  0  0  0  0  0  0  0  0
  -28.1257  -12.1684   18.7299 C   0  0  0  0  0  0  0  0  0  0  0  0
  -30.4668  -12.7330   19.5041 C   0  0  0  0  0  0  0  0  0  0  0  0
  -28.5462  -13.4224   20.8862 C   0  0  0  0  0  0  0  0  0  0  0  0
  -31.8796  -29.9856   15.5507 C   0  0  1  0  0  0  0  0  0  0  0  0
  -28.5364  -28.4180   16.4443 C   0  0  1  0  0  0  0  0  0  0  0  0
  -27.5790  -13.2275   19.7059 C   0  0  2  0  0  0  0  0  0  0  0  0
  -22.6328  -29.3550   21.3711 C   0  0  0  0  0  0  0  0  0  0  0  0
  -29.0603  -30.6626   20.4503 C   0  0  0  0  0  0  0  0  0  0  0  0
  -27.0773  -30.6197   21.9780 C   0  0  0  0  0  0  0  0  0  0  0  0
  -27.0449  -32.0507   19.9350 C   0  0  0  0  0  0  0  0  0  0  0  0
  -22.8444  -26.8294   18.5334 C   0  0  0  0  0  0  0  0  0  0  0  0
  -30.6543  -17.0511   21.9296 C   0  0  0  0  0  0  0  0  0  0  0  0
  -29.7769  -21.3100   18.1162 C   0  0  0  0  0  0  0  0  0  1  0  0
  -26.8616  -29.5408   19.6933 C   0  0  1  0  0  0  0  0  0  0  0  0
  -23.1705  -28.7666   20.0759 C   0  0  2  0  0  0  0  0  0  0  0  0
  -28.0622  -18.4147   21.8098 C   0  0  0  0  0  0  0  0  0  0  0  0
  -27.5198  -30.6947   20.5011 C   0  0  0  0  0  0  0  0  0  0  0  0
  -25.8247  -11.5978   20.2965 N   0  0  0  0  0  0  0  0  0  0  0  0
  -26.1743  -12.8892   20.1697 N   0  0  0  0  0  0  0  0  0  0  0  0
  -27.9332  -28.3966   17.7785 N   0  0  0  0  0  0  0  0  0  0  0  0
  -29.8920  -13.7490   20.3891 N   0  0  0  0  0  0  0  0  0  0  0  0
  -25.3596  -15.0996   20.4168 N   0  0  0  0  0  0  0  0  0  0  0  0
  -21.8255  -12.5484   21.5989 N   0  0  0  0  0  0  0  0  0  0  0  0
  -30.5078  -29.5255   15.5814 N   0  0  0  0  0  0  0  0  0  0  0  0
  -25.4029  -29.5620   19.7013 N   0  0  0  0  0  0  0  0  0  0  0  0
  -30.0166  -15.8156   21.5325 N   0  0  0  0  0  0  0  0  0  0  0  0
  -22.4328  -27.5033   19.7917 N   0  3  0  0  0  0  0  0  0  0  0  0
  -22.5558  -14.7045   21.3220 O   0  0  0  0  0  0  0  0  0  0  0  0
  -30.5770  -28.4243   17.6320 O   0  0  0  0  0  0  0  0  0  0  0  0
  -27.0196  -30.5288   17.5426 O   0  0  0  0  0  0  0  0  0  0  0  0
  -25.1228  -27.4491   20.6148 O   0  0  0  0  0  0  0  0  0  0  0  0
  -31.7708  -15.1003   20.2409 O   0  0  0  0  0  0  0  0  0  0  0  0
  -21.6714   -6.9806   21.7038 O   0  0  0  0  0  0  0  0  0  0  0  0
  -29.4482  -22.5080   18.8184 O   0  0  0  0  0  0  0  0  0  1  0  0
  -24.1822   -2.9785   24.5469 F   0  0  0  0  0  0  0  0  0  0  0  0
  -20.6382   -6.0853   24.1066 F   0  0  0  0  0  0  0  0  0  0  0  0
  -26.9247  -19.1462   21.6240 F   0  0  0  0  0  0  0  0  0  0  0  0
  -27.6758  -17.1123   21.6765 F   0  0  0  0  0  0  0  0  0  0  0  0
  -28.3880  -18.5690   23.1254 F   0  0  0  0  0  0  0  0  0  0  0  0
  1  2  1  0  0  0  0
  1  5  2  0  0  0  0
  2  6  2  0  0  0  0
  3 10  2  0  0  0  0
  3 18  1  0  0  0  0
  4 11  1  0  0  0  0
  4 18  2  0  0  0  0
  5 20  1  0  0  0  0
  6 22  1  0  0  0  0
  7 12  2  0  0  0  0
  7 21  1  0  0  0  0
  8  9  2  0  0  0  0
  8 24  1  0  0  0  0
  9 25  1  0  0  0  0
 10 27  1  0  0  0  0
 11 27  2  0  0  0  0
 12 28  1  0  0  0  0
 13 14  2  0  0  0  0
 13 29  1  0  0  0  0
 14 30  1  0  0  0  0
 15 23  1  0  0  0  0
 15 28  2  0  0  0  0
 16 24  2  0  0  0  0
 16 26  1  0  0  0  0
 17 30  2  0  0  0  0
 17 31  1  0  0  0  0
 18 32  1  0  0  0  0
 19 32  1  0  0  0  0
 19 33  2  0  0  0  0
 19 34  1  0  0  0  0
 20 22  2  0  0  0  0
 20 39  1  0  0  0  0
 21 23  2  0  0  0  0
 21 40  1  0  0  0  0
 22 48  1  0  0  0  0
 23 41  1  0  0  0  0
 24 57  1  0  0  0  0
 25 26  2  0  0  0  0
 25 56  1  0  0  0  0
 26 60  1  0  0  0  0
 27 77  1  0  0  0  0
 28 78  1  0  0  0  0
 29 31  2  0  0  0  0
 29 77  1  0  0  0  0
 30 79  1  0  0  0  0
 31 80  1  0  0  0  0
 32 62  2  0  0  0  0
 33 63  1  0  0  0  0
 33 66  1  0  0  0  0
 34 67  1  0  0  0  0
 34 72  2  0  0  0  0
 35 49  1  0  0  0  0
 35 68  1  0  0  0  0
 35 73  2  0  0  0  0
 36 58  1  0  0  0  0
 36 64  1  0  0  0  0
 36 74  2  0  0  0  0
 37 59  1  0  0  0  0
 37 69  1  0  0  0  0
 37 75  2  0  0  0  0
 38 65  1  0  0  0  0
 38 70  1  0  0  0  0
 38 76  2  0  0  0  0
 39 42  1  0  0  0  0
 40 49  1  0  0  0  0
 41 64  1  0  0  0  0
 42 44  1  0  0  0  0
 43 45  1  0  0  0  0
 43 46  1  0  0  0  0
 44 48  1  0  0  0  0
 45 50  1  0  0  0  0
 46 65  1  0  0  0  0
 47 50  1  0  0  0  0
 47 65  1  0  0  0  0
 48 68  1  0  0  0  0
 49 64  1  0  0  0  0
 50 63  1  0  0  0  0
 51 59  1  0  0  0  0
 52 61  1  0  0  0  0
 53 61  1  0  0  0  0
 54 61  1  0  0  0  0
 55 71  1  0  0  0  0
 56 70  1  0  0  0  0
 57 78  1  0  0  0  0
 58 61  1  0  0  0  0
 58 69  1  0  0  0  0
 59 71  1  0  0  0  0
 60 81  1  0  0  0  0
 60 82  1  0  0  0  0
 60 83  1  0  0  0  0
 62 63  1  0  0  0  0
M  CHG  1  71   1
M  ISO  4  38 100  57 101  70 100  78 101
M  END
> <Batch ID>
0033

> <Smiles>
CNC(C)C(=O)NC(C(=O)N1Cc2cc([101O:1][101CH2:1]c3ccc(C[100NH:0][100C:0](=O)N4CCCC(n5nc(-c6ccc(Oc7ccc(F)cc7F)cc6)c(C(N)=O)c5N)C4)c(C(F)(F)F)c3)ccc2CC1C(=O)NC1CCCc2ccccc21)C(C)(C)C

> <Shape>
0.286

> <Color>
0.218

> <Negative vol penalty>
0.000

$$$$

  -OEChem-04042321453D

 81 89  0     1  0  0  0  0  0999 V2000
  -18.5806  -28.4443   23.3662 C   0  0  0  0  0  0  0  0  0  0  0  0
  -18.9672  -27.2648   23.9945 C   0  0  0  0  0  0  0  0  0  0  0  0
  -30.2688  -23.7490   20.2969 C   0  0  0  0  0  0  0  0  0  0  0  0
  -27.8901  -23.3270   20.2698 C   0  0  0  0  0  0  0  0  0  0  0  0
  -18.2315  -28.4318   22.0164 C   0  0  0  0  0  0  0  0  0  0  0  0
  -19.0037  -26.0717   23.2735 C   0  0  0  0  0  0  0  0  0  0  0  0
  -22.6258  -19.9050   22.8639 C   0  0  0  0  0  0  0  0  0  0  0  0
  -26.1070  -11.8558   20.4262 C   0  0  0  0  0  0  0  0  0  0  0  0
  -24.8174  -11.4598   20.0718 C   0  0  0  0  0  0  0  0  0  0  0  0
  -30.0398  -25.0655   19.8971 C   0  0  0  0  0  0  0  0  0  0  0  0
  -27.6610  -24.6436   19.8700 C   0  0  0  0  0  0  0  0  0  0  0  0
  -22.4097  -18.5277   22.8517 C   0  0  0  0  0  0  0  0  0  0  0  0
  -26.4275  -27.9956   19.1912 C   0  0  0  0  0  0  0  0  0  0  0  0
  -25.4078  -28.7002   19.8308 C   0  0  0  0  0  0  0  0  0  0  0  0
  -25.2228  -13.9023   21.3573 C   0  0  0  0  0  0  0  0  0  0  0  0
  -21.8614  -18.6406   20.5052 C   0  0  0  0  0  0  0  0  0  0  0  0
  -26.5330  -28.4066   21.9485 C   0  0  0  0  0  0  0  0  0  0  0  0
  -29.1939  -22.8797   20.4832 C   0  0  0  0  0  0  0  0  0  0  0  0
  -23.9331  -13.5064   21.0028 C   0  0  0  0  0  0  0  0  0  0  0  0
  -29.5013  -21.0311   22.2141 C   0  0  0  0  0  0  0  0  0  0  0  0
  -18.2730  -27.2397   21.2762 C   0  0  0  0  0  0  0  0  0  0  0  0
  -22.4505  -20.6634   21.6974 C   0  0  0  0  0  0  0  0  0  0  0  0
  -18.6534  -26.0430   21.9129 C   0  0  0  0  0  0  0  0  0  0  0  0
  -22.0784  -20.0270   20.5047 C   0  0  0  0  0  0  0  0  0  0  0  0
  -26.3097  -13.0770   21.0690 C   0  0  0  0  0  0  0  0  0  0  0  0
  -23.7304  -12.2851   20.3601 C   0  0  0  0  0  0  0  0  0  0  0  0
  -28.7359  -25.5129   19.6837 C   0  0  0  0  0  0  0  0  0  0  0  0
  -22.0247  -17.8957   21.6729 C   0  0  0  0  0  0  0  0  0  0  0  0
  -27.5000  -27.4963   19.9303 C   0  0  0  0  0  0  0  0  0  0  0  0
  -25.4605  -28.9058   21.2094 C   0  0  0  0  0  0  0  0  0  0  0  0
  -27.5528  -27.7018   21.3089 C   0  0  0  0  0  0  0  0  0  0  0  0
  -29.4299  -21.5194   20.8956 C   0  0  0  0  0  0  0  0  0  0  0  0
  -29.7407  -19.6864   22.0696 C   0  0  0  0  0  0  0  0  0  0  0  0
  -22.8064  -14.3999   21.3205 C   0  0  0  0  0  0  0  0  0  0  0  0
  -22.8705  -15.7363   21.3696 C   0  0  0  0  0  0  0  0  0  1  0  0
  -29.3635  -21.7305   23.4581 C   0  0  0  0  0  0  0  0  0  0  0  0
  -20.5311  -23.0473   20.8392 C   0  0  0  0  0  0  0  0  0  0  0  0
  -22.3569  -23.0344   18.1580 C   0  0  0  0  0  0  0  0  0  0  0  0
  -24.4241  -21.2997   16.0689 C   0  0  0  0  0  0  0  0  0  0  0  0
  -28.7000  -14.7968   19.5889 C   0  0  0  0  0  0  0  0  0  0  0  0
  -17.8412  -27.2670   19.8314 C   0  0  0  0  0  0  0  0  0  0  0  0
  -22.7135  -22.1441   21.7208 C   0  0  0  0  0  0  0  0  0  0  0  0
  -21.8964  -20.7929   19.2206 C   0  0  0  0  0  0  0  0  0  0  0  0
  -18.2667  -26.0297   19.0450 C   0  0  0  0  0  0  0  0  0  0  0  0
  -31.0013  -16.9871   17.9817 C   0  0  0  0  0  0  0  0  0  0  0  0
  -17.9558  -24.7623   19.8348 C   0  0  0  0  0  0  0  0  0  0  0  0
  -30.7989  -18.3220   18.7008 C   0  0  0  0  0  0  0  0  0  0  0  0
  -29.6866  -16.2266   17.8229 C   0  0  0  0  0  0  0  0  0  0  0  0
  -28.7322  -17.3567   19.7942 C   0  0  0  0  0  0  0  0  0  0  0  0
  -18.7294  -24.7334   21.1585 C   0  0  1  0  0  0  0  0  0  0  0  0
  -22.0060  -22.8945   20.5967 C   0  0  1  0  0  0  0  0  0  0  0  0
  -30.0386  -18.1346   20.0275 C   0  0  2  0  0  0  0  0  0  0  0  0
  -22.3627  -11.8296   19.9639 C   0  0  0  0  0  0  0  0  0  0  0  0
  -25.7293  -21.5441   13.9396 C   0  0  0  0  0  0  0  0  0  0  0  0
  -19.7737  -22.8020   16.5508 C   0  0  0  0  0  0  0  0  0  0  0  0
  -21.1465  -22.1031   14.5772 C   0  0  0  0  0  0  0  0  0  0  0  0
  -21.4690  -24.3639   15.5808 C   0  0  0  0  0  0  0  0  0  0  0  0
  -26.9904  -20.7709   17.4450 C   0  0  0  0  0  0  0  0  0  0  0  0
  -27.6892  -13.4993   21.4474 C   0  0  0  0  0  0  0  0  0  0  0  0
  -22.2962  -22.3254   16.8266 C   0  0  1  0  0  0  0  0  0  0  0  0
  -25.7664  -21.6560   15.4558 C   0  0  2  0  0  0  0  0  0  0  0  0
  -21.1728  -22.8842   15.9084 C   0  0  0  0  0  0  0  0  0  0  0  0
  -29.6095  -20.5628   19.9810 N   0  0  0  0  0  0  0  0  0  0  0  0
  -29.7963  -19.4599   20.7259 N   0  0  0  0  0  0  0  0  0  0  0  0
  -22.1593  -22.2395   19.2960 N   0  0  0  0  0  0  0  0  0  0  0  0
  -29.0162  -16.0816   19.1173 N   0  0  0  0  0  0  0  0  0  0  0  0
  -29.9070  -18.6874   22.9623 N   0  0  0  0  0  0  0  0  0  0  0  0
  -29.1199  -23.1103   23.4254 N   0  0  0  0  0  0  0  0  0  0  0  0
  -20.1088  -24.3599   20.9297 N   0  0  0  0  0  0  0  0  0  0  0  0
  -23.6353  -22.4153   16.2548 N   0  0  0  0  0  0  0  0  0  0  0  0
  -28.0714  -14.7483   20.8271 N   0  0  0  0  0  0  0  0  0  0  0  0
  -26.8283  -20.7448   15.9685 N   0  3  0  0  0  0  0  0  0  0  0  0
  -29.4701  -21.1520   24.5660 O   0  0  0  0  0  0  0  0  0  0  0  0
  -19.8280  -22.0482   20.9355 O   0  0  0  0  0  0  0  0  0  0  0  0
  -22.5788  -24.2474   18.1876 O   0  0  0  0  0  0  0  0  0  0  0  0
  -24.1057  -20.1467   16.3511 O   0  0  0  0  0  0  0  0  0  0  0  0
  -28.9636  -13.7687   18.9559 O   0  0  0  0  0  0  0  0  0  0  0  0
  -28.5121  -26.7975   19.2938 O   0  0  0  0  0  0  0  0  0  0  0  0
  -21.8124  -16.5516   21.6584 O   0  0  0  0  0  0  0  0  0  1  0  0
  -24.4819  -29.5839   21.8232 F   0  0  0  0  0  0  0  0  0  0  0  0
  -28.5812  -27.2256   22.0241 F   0  0  0  0  0  0  0  0  0  0  0  0
  1  2  1  0  0  0  0
  1  5  2  0  0  0  0
  2  6  2  0  0  0  0
  3 10  2  0  0  0  0
  3 18  1  0  0  0  0
  4 11  1  0  0  0  0
  4 18  2  0  0  0  0
  5 21  1  0  0  0  0
  6 23  1  0  0  0  0
  7 12  2  0  0  0  0
  7 22  1  0  0  0  0
  8  9  2  0  0  0  0
  8 25  1  0  0  0  0
  9 26  1  0  0  0  0
 10 27  1  0  0  0  0
 11 27  2  0  0  0  0
 12 28  1  0  0  0  0
 13 14  2  0  0  0  0
 13 29  1  0  0  0  0
 14 30  1  0  0  0  0
 15 19  1  0  0  0  0
 15 25  2  0  0  0  0
 16 24  1  0  0  0  0
 16 28  2  0  0  0  0
 17 30  2  0  0  0  0
 17 31  1  0  0  0  0
 18 32  1  0  0  0  0
 19 26  2  0  0  0  0
 19 34  1  0  0  0  0
 20 32  1  0  0  0  0
 20 33  2  0  0  0  0
 20 36  1  0  0  0  0
 21 23  2  0  0  0  0
 21 41  1  0  0  0  0
 22 24  2  0  0  0  0
 22 42  1  0  0  0  0
 23 50  1  0  0  0  0
 24 43  1  0  0  0  0
 25 59  1  0  0  0  0
 26 53  1  0  0  0  0
 27 78  1  0  0  0  0
 28 79  1  0  0  0  0
 29 31  2  0  0  0  0
 29 78  1  0  0  0  0
 30 80  1  0  0  0  0
 31 81  1  0  0  0  0
 32 63  2  0  0  0  0
 33 64  1  0  0  0  0
 33 67  1  0  0  0  0
 34 35  2  0  0  0  0
 35 79  1  0  0  0  0
 36 68  1  0  0  0  0
 36 73  2  0  0  0  0
 37 51  1  0  0  0  0
 37 69  1  0  0  0  0
 37 74  2  0  0  0  0
 38 60  1  0  0  0  0
 38 65  1  0  0  0  0
 38 75  2  0  0  0  0
 39 61  1  0  0  0  0
 39 70  1  0  0  0  0
 39 76  2  0  0  0  0
 40 66  1  0  0  0  0
 40 71  1  0  0  0  0
 40 77  2  0  0  0  0
 41 44  1  0  0  0  0
 42 51  1  0  0  0  0
 43 65  1  0  0  0  0
 44 46  1  0  0  0  0
 45 47  1  0  0  0  0
 45 48  1  0  0  0  0
 46 50  1  0  0  0  0
 47 52  1  0  0  0  0
 48 66  1  0  0  0  0
 49 52  1  0  0  0  0
 49 66  1  0  0  0  0
 50 69  1  0  0  0  0
 51 65  1  0  0  0  0
 52 64  1  0  0  0  0
 54 61  1  0  0  0  0
 55 62  1  0  0  0  0
 56 62  1  0  0  0  0
 57 62  1  0  0  0  0
 58 72  1  0  0  0  0
 59 71  1  0  0  0  0
 60 62  1  0  0  0  0
 60 70  1  0  0  0  0
 61 72  1  0  0  0  0
 63 64  1  0  0  0  0
M  CHG  1  72   1
M  ISO  4  35 101  40 100  71 100  79 101
M  END
> <Batch ID>
0033

> <Smiles>
CNC(C)C(=O)NC(C(=O)N1Cc2cc([101O:1][101CH:1]=Cc3cc(C[100NH:0][100C:0](=O)N4CCCC(n5nc(-c6ccc(Oc7ccc(F)cc7F)cc6)c(C(N)=O)c5N)C4)ccc3C)ccc2CC1C(=O)NC1CCCc2ccccc21)C(C)(C)C

> <Shape>
0.195

> <Color>
0.072

> <Negative vol penalty>
0.000

$$$$

  -OEChem-04042321453D

 88 97  0     1  0  0  0  0  0999 V2000
  -31.9543  -33.0812   17.1387 C   0  0  0  0  0  0  0  0  0  0  0  0
  -31.7962  -31.8613   17.7885 C   0  0  0  0  0  0  0  0  0  0  0  0
  -23.0720   -9.8381   19.9865 C   0  0  0  0  0  0  0  0  0  0  0  0
  -24.2652   -9.3349   22.0261 C   0  0  0  0  0  0  0  0  0  0  0  0
  -31.1280  -34.1558   17.4651 C   0  0  0  0  0  0  0  0  0  0  0  0
  -30.8123  -31.7155   18.7658 C   0  0  0  0  0  0  0  0  0  0  0  0
  -28.2083  -27.4003   18.2726 C   0  0  0  0  0  0  0  0  0  0  0  0
  -22.4363   -8.5984   20.0525 C   0  0  0  0  0  0  0  0  0  0  0  0
  -23.6295   -8.0951   22.0922 C   0  0  0  0  0  0  0  0  0  0  0  0
  -28.8203  -26.2321   18.7248 C   0  0  0  0  0  0  0  0  0  0  0  0
  -20.6147   -6.8906   23.0307 C   0  0  0  0  0  0  0  0  0  0  0  0
  -20.1037   -6.4910   24.2655 C   0  0  0  0  0  0  0  0  0  0  0  0
  -27.5265  -26.3482   20.7575 C   0  0  0  0  0  0  0  0  0  0  0  0
  -30.8170  -17.9131   21.2140 C   0  0  0  0  0  0  0  0  0  0  0  0
  -21.5386   -4.5476   24.2305 C   0  0  0  0  0  0  0  0  0  0  0  0
  -23.9866  -10.2064   20.9733 C   0  0  0  0  0  0  0  0  0  0  0  0
  -24.2011  -12.7005   21.4642 C   0  0  0  0  0  0  0  0  0  0  0  0
  -30.1271  -34.0203   18.4401 C   0  0  0  0  0  0  0  0  0  0  0  0
  -27.2571  -28.0583   19.0656 C   0  0  0  0  0  0  0  0  0  0  0  0
  -29.9727  -32.7897   19.1065 C   0  0  0  0  0  0  0  0  0  0  0  0
  -26.9020  -27.5232   20.3120 C   0  0  0  0  0  0  0  0  0  0  0  0
  -30.9425  -19.2641   21.5373 C   0  0  0  0  0  0  0  0  0  0  0  0
  -29.6880  -18.8945   23.5687 C   0  0  0  0  0  0  0  0  0  0  0  0
  -30.3781  -19.7549   22.7147 C   0  0  0  0  0  0  0  0  0  0  0  0
  -29.5625  -17.5435   23.2454 C   0  0  0  0  0  0  0  0  0  0  0  0
  -30.1269  -17.0528   22.0680 C   0  0  0  0  0  0  0  0  0  0  0  0
  -22.7150   -7.7268   21.1054 C   0  0  0  0  0  0  0  0  0  0  0  0
  -28.4816  -25.7074   19.9686 C   0  0  0  0  0  0  0  0  0  0  0  0
  -21.5876   -6.1186   22.3957 C   0  0  0  0  0  0  0  0  0  0  0  0
  -20.5656   -5.3195   24.8654 C   0  0  0  0  0  0  0  0  0  0  0  0
  -22.0496   -4.9472   22.9957 C   0  0  0  0  0  0  0  0  0  0  0  0
  -24.6441  -11.4867   20.9054 C   0  0  0  0  0  0  0  0  0  0  0  0
  -25.1715  -13.6103   21.1220 C   0  0  0  0  0  0  0  0  0  0  0  0
  -28.4864  -22.2555   22.1839 C   0  0  0  0  0  0  0  0  0  0  0  0
  -27.6679  -21.2239   21.9449 C   0  0  0  0  0  0  0  0  0  0  0  0
  -23.0184  -12.9805   22.2247 C   0  0  0  0  0  0  0  0  0  0  0  0
  -27.0638  -30.9277   20.4196 C   0  0  0  0  0  0  0  0  0  0  0  0
  -24.0658  -29.9418   21.1694 C   0  0  0  0  0  0  0  0  0  0  0  0
  -21.9210  -27.3429   21.7103 C   0  0  0  0  0  0  0  0  0  0  0  0
  -30.5219  -15.0551   20.5849 C   0  0  0  0  0  0  0  0  0  0  0  0
  -29.2893  -35.2239   18.7925 C   0  0  0  0  0  0  0  0  0  0  0  0
  -26.5865  -29.3029   18.5519 C   0  0  0  0  0  0  0  0  0  0  0  0
  -25.8720  -28.1803   21.1928 C   0  0  0  0  0  0  0  0  0  0  0  0
  -28.0555  -23.6696   22.4186 C   0  0  0  0  0  0  0  0  0  0  0  0
  -28.0244  -34.8778   19.5738 C   0  0  0  0  0  0  0  0  0  0  0  0
  -29.0590  -13.2262   17.9031 C   0  0  0  0  0  0  0  0  0  0  0  0
  -28.3444  -33.9045   20.7038 C   0  0  0  0  0  0  0  0  0  0  0  0
  -27.7436  -12.7104   18.4911 C   0  0  0  0  0  0  0  0  0  0  0  0
  -30.1822  -13.2250   18.9386 C   0  0  0  0  0  0  0  0  0  0  0  0
  -28.5561  -13.4081   20.7802 C   0  0  0  0  0  0  0  0  0  0  0  0
  -30.4408  -23.5437   22.1098 C   0  0  0  0  0  0  0  0  0  0  0  0
  -28.9005  -32.5851   20.1547 C   0  0  1  0  0  0  0  0  0  0  0  0
  -26.0075  -30.1720   19.6640 C   0  0  1  0  0  0  0  0  0  0  0  0
  -27.3789  -13.4517   19.7923 C   0  0  2  0  0  0  0  0  0  0  0  0
  -29.2330  -24.4236   21.8205 C   0  0  1  0  0  0  0  0  0  1  0  0
  -31.6832  -20.1650   20.6039 C   0  0  0  0  0  0  0  0  0  0  0  0
  -28.8200  -16.6226   24.1627 C   0  0  0  0  0  0  0  0  0  0  0  0
  -30.1260  -19.6460   25.9204 C   0  0  0  0  0  0  0  0  0  0  0  0
  -19.5436  -26.8503   22.3447 C   0  0  0  0  0  0  0  0  0  0  0  0
  -24.7008  -30.6298   24.0735 C   0  0  0  0  0  0  0  0  0  0  0  0
  -22.7168  -29.2646   24.7578 C   0  0  0  0  0  0  0  0  0  0  0  0
  -22.4056  -31.2825   23.3246 C   0  0  0  0  0  0  0  0  0  0  0  0
  -21.4052  -25.9480   19.1515 C   0  0  0  0  0  0  0  0  0  0  0  0
  -29.0826  -19.4217   24.8316 C   0  0  0  0  0  0  0  0  0  0  0  0
  -30.5139  -21.2089   23.0587 C   0  0  0  0  0  0  0  0  0  0  0  0
  -23.4421  -29.2026   22.3286 C   0  0  1  0  0  0  0  0  0  0  0  0
  -20.5179  -27.0716   21.1982 C   0  0  2  0  0  0  0  0  0  0  0  0
  -23.3372  -30.0833   23.6056 C   0  0  0  0  0  0  0  0  0  0  0  0
  -25.8053  -11.6108   20.2572 N   0  0  0  0  0  0  0  0  0  0  0  0
  -26.1003  -12.9134   20.4066 N   0  0  0  0  0  0  0  0  0  0  0  0
  -25.2490  -29.3984   20.6491 N   0  0  0  0  0  0  0  0  0  0  0  0
  -29.7666  -13.9487   20.1421 N   0  0  0  0  0  0  0  0  0  0  0  0
  -25.3123  -14.9305   21.3662 N   0  0  0  0  0  0  0  0  0  0  0  0
  -22.1277  -11.9304   22.4858 N   0  0  0  0  0  0  0  0  0  0  0  0
  -30.0123  -15.6839   21.7204 N   0  0  0  0  0  0  0  0  0  0  0  0
  -27.8298  -31.7645   19.6306 N   0  0  0  0  0  0  0  0  0  0  0  0
  -22.1625  -28.6936   21.8470 N   0  0  0  0  0  0  0  0  0  0  0  0
  -29.9089  -22.1151   22.0291 N   0  3  1  0  0  0  0  0  0  0  0  0
  -20.5080  -25.8588   20.3323 N   0  3  0  0  0  0  0  0  0  0  0  0
  -22.7509  -14.1314   22.6458 O   0  0  0  0  0  0  0  0  0  0  0  0
  -27.1747  -30.7647   21.6291 O   0  0  0  0  0  0  0  0  0  0  0  0
  -23.5195  -30.9596   20.7369 O   0  0  0  0  0  0  0  0  0  0  0  0
  -22.7213  -26.4463   21.9671 O   0  0  0  0  0  0  0  0  0  0  0  0
  -31.5304  -15.4347   19.9841 O   0  0  0  0  0  0  0  0  0  0  0  0
  -22.0946   -6.5171   21.1702 O   0  0  0  0  0  0  0  0  0  0  0  0
  -29.0779  -24.5677   20.4126 O   0  0  0  0  0  0  0  0  0  1  0  0
  -20.0759   -4.9367   26.0520 F   0  0  0  0  0  0  0  0  0  0  0  0
  -22.9850   -4.2021   22.3910 F   0  0  0  0  0  0  0  0  0  0  0  0
  1  2  1  0  0  0  0
  1  5  2  0  0  0  0
  2  6  2  0  0  0  0
  3  8  2  0  0  0  0
  3 16  1  0  0  0  0
  4  9  1  0  0  0  0
  4 16  2  0  0  0  0
  5 18  1  0  0  0  0
  6 20  1  0  0  0  0
  7 10  2  0  0  0  0
  7 19  1  0  0  0  0
  8 27  1  0  0  0  0
  9 27  2  0  0  0  0
 10 28  1  0  0  0  0
 11 12  2  0  0  0  0
 11 29  1  0  0  0  0
 12 30  1  0  0  0  0
 13 21  1  0  0  0  0
 13 28  2  0  0  0  0
 14 22  2  0  0  0  0
 14 26  1  0  0  0  0
 15 30  2  0  0  0  0
 15 31  1  0  0  0  0
 16 32  1  0  0  0  0
 17 32  1  0  0  0  0
 17 33  2  0  0  0  0
 17 36  1  0  0  0  0
 18 20  2  0  0  0  0
 18 41  1  0  0  0  0
 19 21  2  0  0  0  0
 19 42  1  0  0  0  0
 20 52  1  0  0  0  0
 21 43  1  0  0  0  0
 22 24  1  0  0  0  0
 22 56  1  0  0  0  0
 23 24  2  0  0  0  0
 23 25  1  0  0  0  0
 23 64  1  0  0  0  0
 24 65  1  0  0  0  0
 25 26  2  0  0  0  0
 25 57  1  0  0  0  0
 26 75  1  0  0  0  0
 27 85  1  0  0  0  0
 28 86  1  0  0  0  0
 29 31  2  0  0  0  0
 29 85  1  0  0  0  0
 30 87  1  0  0  0  0
 31 88  1  0  0  0  0
 32 69  2  0  0  0  0
 33 70  1  0  0  0  0
 33 73  1  0  0  0  0
 34 35  2  0  0  0  0
 34 44  1  0  0  0  0
 34 78  1  0  0  0  0
 36 74  1  0  0  0  0
 36 80  2  0  0  0  0
 37 53  1  0  0  0  0
 37 76  1  0  0  0  0
 37 81  2  0  0  0  0
 38 66  1  0  0  0  0
 38 71  1  0  0  0  0
 38 82  2  0  0  0  0
 39 67  1  0  0  0  0
 39 77  1  0  0  0  0
 39 83  2  0  0  0  0
 40 72  1  0  0  0  0
 40 75  1  0  0  0  0
 40 84  2  0  0  0  0
 41 45  1  0  0  0  0
 42 53  1  0  0  0  0
 43 71  1  0  0  0  0
 44 55  1  0  0  0  0
 45 47  1  0  0  0  0
 46 48  1  0  0  0  0
 46 49  1  0  0  0  0
 47 52  1  0  0  0  0
 48 54  1  0  0  0  0
 49 72  1  0  0  0  0
 50 54  1  0  0  0  0
 50 72  1  0  0  0  0
 51 55  1  0  0  0  0
 51 78  1  0  0  0  0
 52 76  1  0  0  0  0
 53 71  1  0  0  0  0
 54 70  1  0  0  0  0
 55 86  1  0  0  0  0
 58 64  1  0  0  0  0
 59 67  1  0  0  0  0
 60 68  1  0  0  0  0
 61 68  1  0  0  0  0
 62 68  1  0  0  0  0
 63 79  1  0  0  0  0
 65 78  1  0  0  0  0
 66 68  1  0  0  0  0
 66 77  1  0  0  0  0
 67 79  1  0  0  0  0
 69 70  1  0  0  0  0
M  CHG  2  78   1  79   1
M  ISO  4  40 100  55 101  75 100  86 101
M  END
> <Batch ID>
0033

> <Smiles>
C=C1C[101CH:1]([101O:1]c2ccc3c(c2)CN(C(=O)C(NC(=O)C(C)NC)C(C)(C)C)C(C(=O)NC2CCCc4ccccc42)C3)CN1Cc1c(C)cc([100NH:0][100C:0](=O)N2CCCC(n3nc(-c4ccc(Oc5ccc(F)cc5F)cc4)c(C(N)=O)c3N)C2)c(C)c1CC

> <Shape>
0.315

> <Color>
0.142

> <Negative vol penalty>
0.000

$$$$

  -OEChem-04042321453D

 88 97  0     1  0  0  0  0  0999 V2000
  -28.2593  -23.6767   18.1177 C   0  0  0  0  0  0  0  0  0  0  0  0
  -27.0503  -23.9990   18.7258 C   0  0  0  0  0  0  0  0  0  0  0  0
  -24.2767  -25.5953   24.8675 C   0  0  0  0  0  0  0  0  0  0  0  0
  -25.5661  -14.0239   19.3355 C   0  0  0  0  0  0  0  0  0  0  0  0
  -24.6173  -13.8801   21.5527 C   0  0  0  0  0  0  0  0  0  0  0  0
  -29.4457  -24.2401   18.5855 C   0  0  0  0  0  0  0  0  0  0  0  0
  -27.0272  -24.8843   19.8029 C   0  0  0  0  0  0  0  0  0  0  0  0
  -23.3193  -28.3123   19.4207 C   0  0  0  0  0  0  0  0  0  0  0  0
  -22.8819  -25.5933   24.8578 C   0  0  0  0  0  0  0  0  0  0  0  0
  -24.9786  -24.4607   24.4603 C   0  0  0  0  0  0  0  0  0  0  0  0
  -25.6969  -12.6356   19.3014 C   0  0  0  0  0  0  0  0  0  0  0  0
  -24.7480  -12.4917   21.5186 C   0  0  0  0  0  0  0  0  0  0  0  0
  -22.0297  -27.8942   19.7459 C   0  0  0  0  0  0  0  0  0  0  0  0
  -23.1055   -9.8694   20.1600 C   0  0  0  0  0  0  0  0  0  0  0  0
  -22.0230   -9.1071   20.5988 C   0  0  0  0  0  0  0  0  0  0  0  0
  -22.2512  -28.9202   21.9179 C   0  0  0  0  0  0  0  0  0  0  0  0
  -23.4127   -8.1193   22.3106 C   0  0  0  0  0  0  0  0  0  0  0  0
  -25.0263  -14.6461   20.4612 C   0  0  0  0  0  0  0  0  0  0  0  0
  -23.7854  -16.8410   20.0734 C   0  0  0  0  0  0  0  0  0  0  0  0
  -29.4360  -25.1402   19.6627 C   0  0  0  0  0  0  0  0  0  0  0  0
  -24.0900  -29.0293   20.3472 C   0  0  0  0  0  0  0  0  0  0  0  0
  -28.2147  -25.4593   20.2864 C   0  0  0  0  0  0  0  0  0  0  0  0
  -23.5494  -29.3485   21.6010 C   0  0  0  0  0  0  0  0  0  0  0  0
  -22.1890  -24.4567   24.4410 C   0  0  0  0  0  0  0  0  0  0  0  0
  -22.8909  -23.3221   24.0339 C   0  0  0  0  0  0  0  0  0  0  0  0
  -24.2857  -23.3241   24.0436 C   0  0  0  0  0  0  0  0  0  0  0  0
  -25.2879  -11.8695   20.3929 C   0  0  0  0  0  0  0  0  0  0  0  0
  -21.4965  -28.1956   20.9957 C   0  0  0  0  0  0  0  0  0  0  0  0
  -24.3416   -9.7567   20.7963 C   0  0  0  0  0  0  0  0  0  0  0  0
  -22.1766   -8.2320   21.6742 C   0  0  0  0  0  0  0  0  0  0  0  0
  -24.4952   -8.8816   21.8716 C   0  0  0  0  0  0  0  0  0  0  0  0
  -24.8915  -16.0802   20.4972 C   0  0  0  0  0  0  0  0  0  0  0  0
  -24.1510  -18.1426   20.3152 C   0  0  0  0  0  0  0  0  0  0  0  0
  -18.7631  -25.1238   23.1086 C   0  0  0  0  0  0  0  0  0  0  0  0
  -22.5388  -16.4096   19.5115 C   0  0  0  0  0  0  0  0  0  0  0  0
  -17.7458  -24.3363   23.4751 C   0  0  0  0  0  0  0  0  0  0  0  0
  -26.8483  -28.5196   21.8423 C   0  0  0  0  0  0  0  0  0  0  0  0
  -26.3947  -31.5562   22.8890 C   0  0  0  0  0  0  0  0  0  0  0  0
  -24.2142  -34.0951   23.5570 C   0  0  0  0  0  0  0  0  0  0  0  0
  -26.4055  -22.0406   23.5902 C   0  0  0  0  0  0  0  0  0  0  0  0
  -30.7492  -25.6872   20.1636 C   0  0  0  0  0  0  0  0  0  0  0  0
  -25.4695  -29.4962   19.9712 C   0  0  0  0  0  0  0  0  0  0  0  0
  -24.3281  -30.1334   22.6238 C   0  0  0  0  0  0  0  0  0  0  0  0
  -18.6447  -26.5344   22.6249 C   0  0  0  0  0  0  0  0  0  0  0  0
  -30.5955  -26.9061   21.0697 C   0  0  0  0  0  0  0  0  0  0  0  0
  -28.6337  -20.1242   21.5803 C   0  0  0  0  0  0  0  0  0  0  0  0
  -29.5066  -26.6638   22.1101 C   0  0  0  0  0  0  0  0  0  0  0  0
  -27.7677  -18.9639   21.0845 C   0  0  0  0  0  0  0  0  0  0  0  0
  -28.2846  -20.5202   23.0139 C   0  0  0  0  0  0  0  0  0  0  0  0
  -25.9973  -19.6422   22.7555 C   0  0  0  0  0  0  0  0  0  0  0  0
  -20.8299  -25.6118   22.1910 C   0  0  0  0  0  0  0  0  0  0  0  0
  -28.1458  -26.4347   21.4414 C   0  0  1  0  0  0  0  0  0  0  0  0
  -26.3560  -29.7757   21.1809 C   0  0  1  0  0  0  0  0  0  0  0  0
  -26.2678  -19.2505   21.2937 C   0  0  2  0  0  0  0  0  0  0  0  0
  -20.1038  -26.9282   22.4335 C   0  0  1  0  0  0  0  0  0  1  0  0
  -17.9602  -22.9278   23.9495 C   0  0  0  0  0  0  0  0  0  0  0  0
  -16.3206  -24.8073   23.4364 C   0  0  0  0  0  0  0  0  0  0  0  0
  -22.1394  -21.9563   22.0702 C   0  0  0  0  0  0  0  0  0  0  0  0
  -24.1351  -36.4429   24.4396 C   0  0  0  0  0  0  0  0  0  0  0  0
  -26.7573  -30.4986   25.7281 C   0  0  0  0  0  0  0  0  0  0  0  0
  -25.7460  -32.6264   26.5753 C   0  0  0  0  0  0  0  0  0  0  0  0
  -27.8770  -32.6895   25.2800 C   0  0  0  0  0  0  0  0  0  0  0  0
  -23.1136  -35.1372   21.0150 C   0  0  0  0  0  0  0  0  0  0  0  0
  -22.1431  -22.1050   23.5874 C   0  0  0  0  0  0  0  0  0  0  0  0
  -20.6889  -24.4814   24.4403 C   0  0  0  0  0  0  0  0  0  0  0  0
  -25.7104  -32.1861   24.0781 C   0  0  1  0  0  0  0  0  0  0  0  0
  -24.2454  -35.5700   23.1991 C   0  0  2  0  0  0  0  0  0  0  0  0
  -26.5084  -31.9837   25.3970 C   0  0  0  0  0  0  0  0  0  0  0  0
  -25.8853  -16.8357   20.9721 N   0  0  0  0  0  0  0  0  0  0  0  0
  -25.4051  -18.0847   20.8480 N   0  0  0  0  0  0  0  0  0  0  0  0
  -25.6748  -30.5621   22.2113 N   0  0  0  0  0  0  0  0  0  0  0  0
  -26.8485  -20.7806   23.1354 N   0  0  0  0  0  0  0  0  0  0  0  0
  -23.5188  -19.3197   20.1218 N   0  0  0  0  0  0  0  0  0  0  0  0
  -22.3271  -15.0359   19.3310 N   0  0  0  0  0  0  0  0  0  0  0  0
  -25.0190  -22.1831   23.6337 N   0  0  0  0  0  0  0  0  0  0  0  0
  -27.5772  -27.6932   21.0085 N   0  0  0  0  0  0  0  0  0  0  0  0
  -25.4834  -33.5835   23.7255 N   0  0  0  0  0  0  0  0  0  0  0  0
  -20.1030  -24.6099   23.0632 N   0  3  1  0  0  0  0  0  0  0  0  0
  -23.1161  -35.9056   22.2864 N   0  3  0  0  0  0  0  0  0  0  0  0
  -21.6459  -17.2192   19.1641 O   0  0  0  0  0  0  0  0  0  0  0  0
  -26.5876  -28.3160   23.0223 O   0  0  0  0  0  0  0  0  0  0  0  0
  -27.5233  -31.9373   22.5689 O   0  0  0  0  0  0  0  0  0  0  0  0
  -23.1683  -33.4612   23.6788 O   0  0  0  0  0  0  0  0  0  0  0  0
  -27.1977  -22.9372   23.8912 O   0  0  0  0  0  0  0  0  0  0  0  0
  -25.4151  -10.5148   20.3599 O   0  0  0  0  0  0  0  0  0  0  0  0
  -20.2382  -27.7882   21.3160 O   0  0  0  0  0  0  0  0  0  1  0  0
  -21.1366   -7.5011   22.0965 F   0  0  0  0  0  0  0  0  0  0  0  0
  -25.6800   -8.7699   22.4877 F   0  0  0  0  0  0  0  0  0  0  0  0
  1  2  1  0  0  0  0
  1  6  2  0  0  0  0
  2  7  2  0  0  0  0
  3  9  1  0  0  0  0
  3 10  2  0  0  0  0
  4 11  2  0  0  0  0
  4 18  1  0  0  0  0
  5 12  1  0  0  0  0
  5 18  2  0  0  0  0
  6 20  1  0  0  0  0
  7 22  1  0  0  0  0
  8 13  2  0  0  0  0
  8 21  1  0  0  0  0
  9 24  2  0  0  0  0
 10 26  1  0  0  0  0
 11 27  1  0  0  0  0
 12 27  2  0  0  0  0
 13 28  1  0  0  0  0
 14 15  2  0  0  0  0
 14 29  1  0  0  0  0
 15 30  1  0  0  0  0
 16 23  1  0  0  0  0
 16 28  2  0  0  0  0
 17 30  2  0  0  0  0
 17 31  1  0  0  0  0
 18 32  1  0  0  0  0
 19 32  1  0  0  0  0
 19 33  2  0  0  0  0
 19 35  1  0  0  0  0
 20 22  2  0  0  0  0
 20 41  1  0  0  0  0
 21 23  2  0  0  0  0
 21 42  1  0  0  0  0
 22 52  1  0  0  0  0
 23 43  1  0  0  0  0
 24 25  1  0  0  0  0
 24 65  1  0  0  0  0
 25 26  2  0  0  0  0
 25 64  1  0  0  0  0
 26 75  1  0  0  0  0
 27 85  1  0  0  0  0
 28 86  1  0  0  0  0
 29 31  2  0  0  0  0
 29 85  1  0  0  0  0
 30 87  1  0  0  0  0
 31 88  1  0  0  0  0
 32 69  2  0  0  0  0
 33 70  1  0  0  0  0
 33 73  1  0  0  0  0
 34 36  2  0  0  0  0
 34 44  1  0  0  0  0
 34 78  1  0  0  0  0
 35 74  1  0  0  0  0
 35 80  2  0  0  0  0
 36 56  1  0  0  0  0
 36 57  1  0  0  0  0
 37 53  1  0  0  0  0
 37 76  1  0  0  0  0
 37 81  2  0  0  0  0
 38 66  1  0  0  0  0
 38 71  1  0  0  0  0
 38 82  2  0  0  0  0
 39 67  1  0  0  0  0
 39 77  1  0  0  0  0
 39 83  2  0  0  0  0
 40 72  1  0  0  0  0
 40 75  1  0  0  0  0
 40 84  2  0  0  0  0
 41 45  1  0  0  0  0
 42 53  1  0  0  0  0
 43 71  1  0  0  0  0
 44 55  1  0  0  0  0
 45 47  1  0  0  0  0
 46 48  1  0  0  0  0
 46 49  1  0  0  0  0
 47 52  1  0  0  0  0
 48 54  1  0  0  0  0
 49 72  1  0  0  0  0
 50 54  1  0  0  0  0
 50 72  1  0  0  0  0
 51 55  1  0  0  0  0
 51 78  1  0  0  0  0
 52 76  1  0  0  0  0
 53 71  1  0  0  0  0
 54 70  1  0  0  0  0
 55 86  1  0  0  0  0
 58 64  1  0  0  0  0
 59 67  1  0  0  0  0
 60 68  1  0  0  0  0
 61 68  1  0  0  0  0
 62 68  1  0  0  0  0
 63 79  1  0  0  0  0
 65 78  1  0  0  0  0
 66 68  1  0  0  0  0
 66 77  1  0  0  0  0
 67 79  1  0  0  0  0
 69 70  1  0  0  0  0
M  CHG  2  78   1  79   1
M  ISO  4  40 100  55 101  75 100  86 101
M  END
> <Batch ID>
0033

> <Smiles>
CCc1c(CN2C[101CH:1]([101O:1]c3ccc4c(c3)CN(C(=O)C(NC(=O)C(C)NC)C(C)(C)C)C(C(=O)NC3CCCc5ccccc53)C4)CC2=C(C)C)cccc1[100NH:0][100C:0](=O)N1CCCC(n2nc(-c3ccc(Oc4ccc(F)cc4F)cc3)c(C(N)=O)c2N)C1

> <Shape>
0.285

> <Color>
0.075

> <Negative vol penalty>
0.000

$$$$

  -OEChem-04042321453D

 87 96  0     1  0  0  0  0  0999 V2000
  -21.7159  -34.7749   25.4075 C   0  0  0  0  0  0  0  0  0  0  0  0
  -22.2949  -33.6924   26.0621 C   0  0  0  0  0  0  0  0  0  0  0  0
  -22.6442  -10.3138   20.2384 C   0  0  0  0  0  0  0  0  0  0  0  0
  -24.2608   -9.5991   21.8855 C   0  0  0  0  0  0  0  0  0  0  0  0
  -21.2679  -34.6357   24.0945 C   0  0  0  0  0  0  0  0  0  0  0  0
  -22.4252  -32.4697   25.4044 C   0  0  0  0  0  0  0  0  0  0  0  0
  -26.9833  -28.4261   26.0193 C   0  0  0  0  0  0  0  0  0  0  0  0
  -21.8987   -9.1576   20.4683 C   0  0  0  0  0  0  0  0  0  0  0  0
  -23.5152   -8.4429   22.1155 C   0  0  0  0  0  0  0  0  0  0  0  0
  -27.1034  -27.2543   26.7651 C   0  0  0  0  0  0  0  0  0  0  0  0
  -23.0417   -5.4459   20.6238 C   0  0  0  0  0  0  0  0  0  0  0  0
  -23.7304   -4.2355   20.7019 C   0  0  0  0  0  0  0  0  0  0  0  0
  -26.4634  -25.9642   24.8298 C   0  0  0  0  0  0  0  0  0  0  0  0
  -29.3991  -18.9323   22.3076 C   0  0  0  0  0  0  0  0  0  0  0  0
  -28.9340  -18.2769   24.9791 C   0  0  0  0  0  0  0  0  0  0  0  0
  -22.9168   -3.9178   22.9544 C   0  0  0  0  0  0  0  0  0  0  0  0
  -23.8254  -10.5346   20.9469 C   0  0  0  0  0  0  0  0  0  0  0  0
  -24.1742  -13.0607   20.8791 C   0  0  0  0  0  0  0  0  0  0  0  0
  -21.4015  -33.4134   23.4172 C   0  0  0  0  0  0  0  0  0  0  0  0
  -26.5911  -28.3765   24.6739 C   0  0  0  0  0  0  0  0  0  0  0  0
  -21.9773  -32.3137   24.0816 C   0  0  0  0  0  0  0  0  0  0  0  0
  -26.3416  -27.1367   24.0685 C   0  0  0  0  0  0  0  0  0  0  0  0
  -29.9757  -17.7863   22.8552 C   0  0  0  0  0  0  0  0  0  0  0  0
  -28.3574  -19.4230   24.4316 C   0  0  0  0  0  0  0  0  0  0  0  0
  -22.3341   -8.2222   21.4069 C   0  0  0  0  0  0  0  0  0  0  0  0
  -26.8406  -26.0233   26.1712 C   0  0  0  0  0  0  0  0  0  0  0  0
  -22.2905   -5.8924   21.7111 C   0  0  0  0  0  0  0  0  0  0  0  0
  -23.6679   -3.4715   21.8671 C   0  0  0  0  0  0  0  0  0  0  0  0
  -22.2281   -5.1283   22.8764 C   0  0  0  0  0  0  0  0  0  0  0  0
  -29.7431  -17.4586   24.1909 C   0  0  0  0  0  0  0  0  0  0  0  0
  -28.5900  -19.7507   23.0959 C   0  0  0  0  0  0  0  0  0  0  0  0
  -24.5963  -11.7284   20.7094 C   0  0  0  0  0  0  0  0  0  0  0  0
  -25.2660  -13.8146   20.5241 C   0  0  0  0  0  0  0  0  0  0  0  0
  -22.9084  -13.5711   21.3184 C   0  0  0  0  0  0  0  0  0  0  0  0
  -24.1278  -29.5056   23.0124 C   0  0  0  0  0  0  0  0  0  0  0  0
  -25.8098  -28.3632   20.4850 C   0  0  0  0  0  0  0  0  0  0  0  0
  -28.1593  -26.1811   19.3165 C   0  0  0  0  0  0  0  0  0  0  0  0
  -30.7542  -14.8130   20.6942 C   0  0  0  0  0  0  0  0  0  0  0  0
  -20.8594  -33.2977   22.0145 C   0  0  0  0  0  0  0  0  0  0  0  0
  -26.4921  -29.6476   23.8758 C   0  0  0  0  0  0  0  0  0  0  0  0
  -25.9371  -27.0277   22.6217 C   0  0  0  0  0  0  0  0  0  0  0  0
  -21.3749  -32.0741   21.2613 C   0  0  0  0  0  0  0  0  0  0  0  0
  -29.5918  -12.4842   18.2648 C   0  0  0  0  0  0  0  0  0  0  0  0
  -29.9163  -22.5916   27.1579 C   0  0  0  0  0  0  0  0  0  0  0  0
  -21.2877  -30.8303   22.1400 C   0  0  0  0  0  0  0  0  0  0  0  0
  -28.1566  -12.1854   18.7018 C   0  0  0  0  0  0  0  0  0  0  0  0
  -28.9526  -23.7139   27.5201 C   0  0  0  0  0  0  0  0  0  0  0  0
  -30.5183  -12.6762   19.4634 C   0  0  0  0  0  0  0  0  0  0  0  0
  -28.6290  -13.3827   20.8795 C   0  0  0  0  0  0  0  0  0  0  0  0
  -29.1794  -21.2982   26.8403 C   0  0  0  0  0  0  0  0  0  0  0  0
  -27.1687  -22.6121   26.1188 C   0  0  0  0  0  0  0  0  0  0  0  0
  -22.1587  -30.9782   23.3934 C   0  0  1  0  0  0  0  0  0  0  0  0
  -25.5871  -29.5175   22.6547 C   0  0  1  0  0  0  0  0  0  0  0  0
  -27.6457  -13.2366   19.7055 C   0  0  2  0  0  0  0  0  0  0  0  0
  -27.8962  -23.9117   26.4375 C   0  0  1  0  0  0  0  0  0  1  0  0
  -29.2935  -25.4554   17.1990 C   0  0  0  0  0  0  0  0  0  0  0  0
  -23.3038  -26.8235   19.6731 C   0  0  0  0  0  0  0  0  0  0  0  0
  -24.7351  -25.4243   18.1693 C   0  0  0  0  0  0  0  0  0  0  0  0
  -24.5406  -27.8795   17.7732 C   0  0  0  0  0  0  0  0  0  0  0  0
  -30.8234  -26.9692   20.3365 C   0  0  0  0  0  0  0  0  0  0  0  0
  -30.8358  -16.9361   21.9769 C   0  0  0  0  0  0  0  0  0  0  0  0
  -27.4941  -20.2775   25.3122 C   0  0  0  0  0  0  0  0  0  0  0  0
  -25.8749  -27.0450   19.7520 C   0  0  1  0  0  0  0  0  0  0  0  0
  -29.3549  -26.3822   18.4031 C   0  0  2  0  0  0  0  0  0  0  0  0
  -24.6193  -26.7949   18.8697 C   0  0  0  0  0  0  0  0  0  0  0  0
  -25.8577  -11.6379   20.2798 N   0  0  0  0  0  0  0  0  0  0  0  0
  -26.2377  -12.9229   20.1766 N   0  0  0  0  0  0  0  0  0  0  0  0
  -25.8479  -28.2993   21.8851 N   0  0  0  0  0  0  0  0  0  0  0  0
  -29.9774  -13.6869   20.3755 N   0  0  0  0  0  0  0  0  0  0  0  0
  -25.4801  -15.1467   20.4784 N   0  0  0  0  0  0  0  0  0  0  0  0
  -22.7141  -13.7856   22.6897 N   0  0  0  0  0  0  0  0  0  0  0  0
  -23.5522  -30.7606   23.0690 N   0  0  0  0  0  0  0  0  0  0  0  0
  -27.1329  -27.0505   19.0132 N   0  0  0  0  0  0  0  0  0  0  0  0
  -30.1641  -15.7251   21.5606 N   0  0  0  0  0  0  0  0  0  0  0  0
  -28.1702  -21.5491   25.7451 N   0  3  2  0  0  0  0  0  0  0  0  0
  -30.6214  -26.1114   19.1405 N   0  3  0  0  0  0  0  0  0  0  0  0
  -21.9717  -13.8138   20.5202 O   0  0  0  0  0  0  0  0  0  0  0  0
  -23.5653  -28.4370   23.2202 O   0  0  0  0  0  0  0  0  0  0  0  0
  -25.7353  -29.4113   19.8389 O   0  0  0  0  0  0  0  0  0  0  0  0
  -28.1365  -25.3347   20.2074 O   0  0  0  0  0  0  0  0  0  0  0  0
  -31.8873  -14.9949   20.2362 O   0  0  0  0  0  0  0  0  0  0  0  0
  -21.6067   -7.0939   21.6317 O   0  0  0  0  0  0  0  0  0  0  0  0
  -26.9565  -24.8780   26.8970 O   0  0  0  0  0  0  0  0  0  1  0  0
  -24.3281   -2.3083   21.9414 F   0  0  0  0  0  0  0  0  0  0  0  0
  -21.5071   -5.5514   23.9238 F   0  0  0  0  0  0  0  0  0  0  0  0
  -30.4387  -16.0478   24.9016 Cl  0  0  0  0  0  0  0  0  0  0  0  0
  -27.8935  -21.1607   22.3844 Cl  0  0  0  0  0  0  0  0  0  0  0  0
  1  2  1  0  0  0  0
  1  5  2  0  0  0  0
  2  6  2  0  0  0  0
  3  8  2  0  0  0  0
  3 17  1  0  0  0  0
  4  9  1  0  0  0  0
  4 17  2  0  0  0  0
  5 19  1  0  0  0  0
  6 21  1  0  0  0  0
  7 10  2  0  0  0  0
  7 20  1  0  0  0  0
  8 25  1  0  0  0  0
  9 25  2  0  0  0  0
 10 26  1  0  0  0  0
 11 12  2  0  0  0  0
 11 27  1  0  0  0  0
 12 28  1  0  0  0  0
 13 22  1  0  0  0  0
 13 26  2  0  0  0  0
 14 23  2  0  0  0  0
 14 31  1  0  0  0  0
 15 24  1  0  0  0  0
 15 30  2  0  0  0  0
 16 28  2  0  0  0  0
 16 29  1  0  0  0  0
 17 32  1  0  0  0  0
 18 32  1  0  0  0  0
 18 33  2  0  0  0  0
 18 34  1  0  0  0  0
 19 21  2  0  0  0  0
 19 39  1  0  0  0  0
 20 22  2  0  0  0  0
 20 40  1  0  0  0  0
 21 52  1  0  0  0  0
 22 41  1  0  0  0  0
 23 30  1  0  0  0  0
 23 61  1  0  0  0  0
 24 31  2  0  0  0  0
 24 62  1  0  0  0  0
 25 82  1  0  0  0  0
 26 83  1  0  0  0  0
 27 29  2  0  0  0  0
 27 82  1  0  0  0  0
 28 84  1  0  0  0  0
 29 85  1  0  0  0  0
 30 86  1  0  0  0  0
 31 87  1  0  0  0  0
 32 66  2  0  0  0  0
 33 67  1  0  0  0  0
 33 70  1  0  0  0  0
 34 71  1  0  0  0  0
 34 77  2  0  0  0  0
 35 53  1  0  0  0  0
 35 72  1  0  0  0  0
 35 78  2  0  0  0  0
 36 63  1  0  0  0  0
 36 68  1  0  0  0  0
 36 79  2  0  0  0  0
 37 64  1  0  0  0  0
 37 73  1  0  0  0  0
 37 80  2  0  0  0  0
 38 69  1  0  0  0  0
 38 74  1  0  0  0  0
 38 81  2  0  0  0  0
 39 42  1  0  0  0  0
 40 53  1  0  0  0  0
 41 68  1  0  0  0  0
 42 45  1  0  0  0  0
 43 46  1  0  0  0  0
 43 48  1  0  0  0  0
 44 47  1  0  0  0  0
 44 50  1  0  0  0  0
 45 52  1  0  0  0  0
 46 54  1  0  0  0  0
 47 55  1  0  0  0  0
 48 69  1  0  0  0  0
 49 54  1  0  0  0  0
 49 69  1  0  0  0  0
 50 75  1  0  0  0  0
 51 55  1  0  0  0  0
 51 75  1  0  0  0  0
 52 72  1  0  0  0  0
 53 68  1  0  0  0  0
 54 67  1  0  0  0  0
 55 83  1  0  0  0  0
 56 64  1  0  0  0  0
 57 65  1  0  0  0  0
 58 65  1  0  0  0  0
 59 65  1  0  0  0  0
 60 76  1  0  0  0  0
 61 74  1  0  0  0  0
 62 75  1  0  0  0  0
 63 65  1  0  0  0  0
 63 73  1  0  0  0  0
 64 76  1  0  0  0  0
 66 67  1  0  0  0  0
M  CHG  2  75   1  76   1
M  ISO  4  38 100  55 101  74 100  83 101
M  END
> <Batch ID>
0033

> <Smiles>
CNC(C)C(=O)NC(C(=O)N1Cc2cc([101O:1][101CH:1]3CCCN(Cc4cc(Cl)c(C[100NH:0][100C:0](=O)N5CCCC(n6nc(-c7ccc(Oc8ccc(F)cc8F)cc7)c(C(N)=O)c6N)C5)cc4Cl)C3)ccc2CC1C(=O)NC1CCCc2ccccc21)C(C)(C)C

> <Shape>
0.282

> <Color>
0.192

> <Negative vol penalty>
0.000

$$$$

  -OEChem-04042321453D

 87 96  0     1  0  0  0  0  0999 V2000
  -23.9783   -7.1515   24.0471 C   0  0  0  0  0  0  0  0  0  0  0  0
  -25.1148   -7.9524   24.0968 C   0  0  0  0  0  0  0  0  0  0  0  0
  -25.0253  -31.2796   23.0291 C   0  0  0  0  0  0  0  0  0  0  0  0
  -23.2112  -31.0348   24.6059 C   0  0  0  0  0  0  0  0  0  0  0  0
  -23.0029   -7.3867   23.0790 C   0  0  0  0  0  0  0  0  0  0  0  0
  -25.2771   -8.9882   23.1775 C   0  0  0  0  0  0  0  0  0  0  0  0
  -28.0798  -15.5558   22.6043 C   0  0  0  0  0  0  0  0  0  0  0  0
  -29.0052  -21.3838   23.6585 C   0  0  0  0  0  0  0  0  0  0  0  0
  -25.5128  -32.3641   23.7583 C   0  0  0  0  0  0  0  0  0  0  0  0
  -23.6988  -32.1192   25.3352 C   0  0  0  0  0  0  0  0  0  0  0  0
  -28.9469  -16.2900   21.7963 C   0  0  0  0  0  0  0  0  0  0  0  0
  -24.7919  -35.6461   24.1227 C   0  0  0  0  0  0  0  0  0  0  0  0
  -25.1836  -36.7806   23.4120 C   0  0  0  0  0  0  0  0  0  0  0  0
  -28.0208  -21.3366   24.6455 C   0  0  0  0  0  0  0  0  0  0  0  0
  -27.1590  -16.6533   20.2181 C   0  0  0  0  0  0  0  0  0  0  0  0
  -27.4223  -36.5598   24.2932 C   0  0  0  0  0  0  0  0  0  0  0  0
  -23.8744  -30.6149   23.4528 C   0  0  0  0  0  0  0  0  0  0  0  0
  -22.9489  -29.4943   21.3563 C   0  0  0  0  0  0  0  0  0  0  0  0
  -23.1488   -8.4320   22.1535 C   0  0  0  0  0  0  0  0  0  0  0  0
  -26.7464  -15.3552   22.2192 C   0  0  0  0  0  0  0  0  0  0  0  0
  -24.3034   -9.2367   22.1952 C   0  0  0  0  0  0  0  0  0  0  0  0
  -26.2763  -15.9182   21.0242 C   0  0  0  0  0  0  0  0  0  0  0  0
  -28.7706  -22.0792   22.4722 C   0  0  0  0  0  0  0  0  0  0  0  0
  -26.5671  -22.6800   23.2601 C   0  0  0  0  0  0  0  0  0  0  0  0
  -24.8496  -32.7839   24.9113 C   0  0  0  0  0  0  0  0  0  0  0  0
  -28.4873  -16.8365   20.6016 C   0  0  0  0  0  0  0  0  0  0  0  0
  -25.7154  -34.9685   24.9189 C   0  0  0  0  0  0  0  0  0  0  0  0
  -26.4987  -37.2374   23.4972 C   0  0  0  0  0  0  0  0  0  0  0  0
  -27.0306  -35.4254   25.0041 C   0  0  0  0  0  0  0  0  0  0  0  0
  -26.8018  -21.9846   24.4464 C   0  0  0  0  0  0  0  0  0  0  0  0
  -27.5516  -22.7273   22.2731 C   0  0  0  0  0  0  0  0  0  0  0  0
  -23.3700  -29.4950   22.6996 C   0  0  0  0  0  0  0  0  0  0  0  0
  -22.5636  -28.1977   21.1179 C   0  0  0  0  0  0  0  0  0  0  0  0
  -29.5135  -21.7320   19.0291 C   0  0  0  0  0  0  0  0  0  0  0  0
  -22.9096  -30.5696   20.4088 C   0  0  0  0  0  0  0  0  0  0  0  0
  -24.9675  -12.8112   21.5356 C   0  0  0  0  0  0  0  0  0  0  0  0
  -22.5809  -15.0036   21.3927 C   0  0  0  0  0  0  0  0  0  0  0  0
  -22.1461  -18.3419   20.0951 C   0  0  0  0  0  0  0  0  0  0  0  0
  -24.0848  -22.9691   23.5779 C   0  0  0  0  0  0  0  0  0  0  0  0
  -22.0902   -8.6178   21.0954 C   0  0  0  0  0  0  0  0  0  0  0  0
  -25.8168  -14.5833   23.1150 C   0  0  0  0  0  0  0  0  0  0  0  0
  -24.8485  -15.7490   20.5756 C   0  0  0  0  0  0  0  0  0  0  0  0
  -29.1348  -20.7643   17.9237 C   0  0  0  0  0  0  0  0  0  0  0  0
  -22.1606   -9.9721   20.3945 C   0  0  0  0  0  0  0  0  0  0  0  0
  -29.5191  -19.3249   18.1933 C   0  0  0  0  0  0  0  0  0  0  0  0
  -20.8076  -24.3421   23.3507 C   0  0  0  0  0  0  0  0  0  0  0  0
  -23.5978  -10.2935   19.9972 C   0  0  0  0  0  0  0  0  0  0  0  0
  -21.0544  -25.8180   23.0297 C   0  0  0  0  0  0  0  0  0  0  0  0
  -21.8568  -23.7879   24.3129 C   0  0  0  0  0  0  0  0  0  0  0  0
  -23.4970  -25.4731   23.5787 C   0  0  0  0  0  0  0  0  0  0  0  0
  -29.5925  -19.7856   20.6252 C   0  0  0  0  0  0  0  0  0  0  0  0
  -24.5038  -10.3857   21.2309 C   0  0  1  0  0  0  0  0  0  0  0  0
  -24.6142  -14.0072   22.3738 C   0  0  1  0  0  0  0  0  0  0  0  0
  -22.5032  -26.0585   22.5621 C   0  0  2  0  0  0  0  0  0  0  0  0
  -28.9809  -18.9065   19.5484 C   0  0  2  0  0  0  0  0  0  1  0  0
  -20.5898  -20.1782   20.8045 C   0  0  0  0  0  0  0  0  0  0  0  0
  -20.7461  -13.8926   19.2227 C   0  0  0  0  0  0  0  0  0  0  0  0
  -20.1047  -16.2458   18.6578 C   0  0  0  0  0  0  0  0  0  0  0  0
  -19.6024  -15.3273   20.9220 C   0  0  0  0  0  0  0  0  0  0  0  0
  -24.3793  -20.2471   20.4712 C   0  0  0  0  0  0  0  0  0  0  0  0
  -29.8610  -22.1042   21.4404 C   0  0  0  0  0  0  0  0  0  0  0  0
  -21.9933  -15.8750   20.3092 C   0  0  1  0  0  0  0  0  0  0  0  0
  -22.0007  -19.6190   20.9026 C   0  0  2  0  0  0  0  0  0  0  0  0
  -20.6389  -15.3271   19.7774 C   0  0  0  0  0  0  0  0  0  0  0  0
  -23.2623  -28.2941   23.2743 N   0  0  0  0  0  0  0  0  0  0  0  0
  -22.7690  -27.5268   22.2874 N   0  0  0  0  0  0  0  0  0  0  0  0
  -29.5739  -21.2156   20.3223 N   0  0  0  0  0  0  0  0  0  0  0  0
  -23.9799  -14.9808   21.4827 N   0  0  0  0  0  0  0  0  0  0  0  0
  -23.2046  -24.0486   23.8027 N   0  0  0  0  0  0  0  0  0  0  0  0
  -22.0724  -27.5775   20.0240 N   0  0  0  0  0  0  0  0  0  0  0  0
  -23.3422  -31.8380   20.8192 N   0  0  0  0  0  0  0  0  0  0  0  0
  -25.3270  -23.3359   23.0612 N   0  0  0  0  0  0  0  0  0  0  0  0
  -24.3123  -11.6520   21.9050 N   0  0  0  0  0  0  0  0  0  0  0  0
  -21.9161  -17.2216   20.8653 N   0  0  0  0  0  0  0  0  0  0  0  0
  -22.9521  -20.6548   20.4097 N   0  3  0  0  0  0  0  0  0  0  0  0
  -29.6699  -22.9244   18.7519 O   0  0  0  0  0  0  0  0  0  0  0  0
  -22.4876  -30.4141   19.2378 O   0  0  0  0  0  0  0  0  0  0  0  0
  -25.7736  -12.9316   20.6206 O   0  0  0  0  0  0  0  0  0  0  0  0
  -21.8263  -14.3721   22.1366 O   0  0  0  0  0  0  0  0  0  0  0  0
  -22.4313  -18.3385   18.8996 O   0  0  0  0  0  0  0  0  0  0  0  0
  -23.7509  -21.8024   23.8000 O   0  0  0  0  0  0  0  0  0  0  0  0
  -25.3252  -33.8420   25.6233 O   0  0  0  0  0  0  0  0  0  0  0  0
  -29.3317  -17.5530   19.8108 O   0  0  0  0  0  0  0  0  0  1  0  0
  -26.8751  -38.3259   22.8133 F   0  0  0  0  0  0  0  0  0  0  0  0
  -27.9225  -34.7779   25.7663 F   0  0  0  0  0  0  0  0  0  0  0  0
  -25.6130  -21.8933   25.6982 Cl  0  0  0  0  0  0  0  0  0  0  0  0
  -27.2726  -23.5900   20.7943 Cl  0  0  0  0  0  0  0  0  0  0  0  0
  1  2  1  0  0  0  0
  1  5  2  0  0  0  0
  2  6  2  0  0  0  0
  3  9  2  0  0  0  0
  3 17  1  0  0  0  0
  4 10  1  0  0  0  0
  4 17  2  0  0  0  0
  5 19  1  0  0  0  0
  6 21  1  0  0  0  0
  7 11  2  0  0  0  0
  7 20  1  0  0  0  0
  8 14  2  0  0  0  0
  8 23  1  0  0  0  0
  9 25  1  0  0  0  0
 10 25  2  0  0  0  0
 11 26  1  0  0  0  0
 12 13  2  0  0  0  0
 12 27  1  0  0  0  0
 13 28  1  0  0  0  0
 14 30  1  0  0  0  0
 15 22  1  0  0  0  0
 15 26  2  0  0  0  0
 16 28  2  0  0  0  0
 16 29  1  0  0  0  0
 17 32  1  0  0  0  0
 18 32  1  0  0  0  0
 18 33  2  0  0  0  0
 18 35  1  0  0  0  0
 19 21  2  0  0  0  0
 19 40  1  0  0  0  0
 20 22  2  0  0  0  0
 20 41  1  0  0  0  0
 21 52  1  0  0  0  0
 22 42  1  0  0  0  0
 23 31  2  0  0  0  0
 23 61  1  0  0  0  0
 24 30  2  0  0  0  0
 24 31  1  0  0  0  0
 24 72  1  0  0  0  0
 25 82  1  0  0  0  0
 26 83  1  0  0  0  0
 27 29  2  0  0  0  0
 27 82  1  0  0  0  0
 28 84  1  0  0  0  0
 29 85  1  0  0  0  0
 30 86  1  0  0  0  0
 31 87  1  0  0  0  0
 32 65  2  0  0  0  0
 33 66  1  0  0  0  0
 33 70  1  0  0  0  0
 34 43  1  0  0  0  0
 34 67  1  0  0  0  0
 34 76  2  0  0  0  0
 35 71  1  0  0  0  0
 35 77  2  0  0  0  0
 36 53  1  0  0  0  0
 36 73  1  0  0  0  0
 36 78  2  0  0  0  0
 37 62  1  0  0  0  0
 37 68  1  0  0  0  0
 37 79  2  0  0  0  0
 38 63  1  0  0  0  0
 38 74  1  0  0  0  0
 38 80  2  0  0  0  0
 39 69  1  0  0  0  0
 39 72  1  0  0  0  0
 39 81  2  0  0  0  0
 40 44  1  0  0  0  0
 41 53  1  0  0  0  0
 42 68  1  0  0  0  0
 43 45  1  0  0  0  0
 44 47  1  0  0  0  0
 45 55  1  0  0  0  0
 46 48  1  0  0  0  0
 46 49  1  0  0  0  0
 47 52  1  0  0  0  0
 48 54  1  0  0  0  0
 49 69  1  0  0  0  0
 50 54  1  0  0  0  0
 50 69  1  0  0  0  0
 51 55  1  0  0  0  0
 51 67  1  0  0  0  0
 52 73  1  0  0  0  0
 53 68  1  0  0  0  0
 54 66  1  0  0  0  0
 55 83  1  0  0  0  0
 56 63  1  0  0  0  0
 57 64  1  0  0  0  0
 58 64  1  0  0  0  0
 59 64  1  0  0  0  0
 60 75  1  0  0  0  0
 61 67  1  0  0  0  0
 62 64  1  0  0  0  0
 62 74  1  0  0  0  0
 63 75  1  0  0  0  0
 65 66  1  0  0  0  0
M  CHG  1  75   1
M  ISO  4  39 100  55 101  72 100  83 101
M  END
> <Batch ID>
0033

> <Smiles>
CNC(C)C(=O)NC(C(=O)N1Cc2cc([101O:1][101CH:1]3CCC(=O)N(Cc4ccc(Cl)c([100NH:0][100C:0](=O)N5CCCC(n6nc(-c7ccc(Oc8ccc(F)cc8F)cc7)c(C(N)=O)c6N)C5)c4Cl)C3)ccc2CC1C(=O)NC1CCCc2ccccc21)C(C)(C)C

> <Shape>
0.253

> <Color>
0.055

> <Negative vol penalty>
0.000

$$$$

  -OEChem-04042321453D

 86 95  0     1  0  0  0  0  0999 V2000
  -36.3563  -30.9308   18.9550 C   0  0  0  0  0  0  0  0  0  0  0  0
  -35.8748  -29.9729   19.8415 C   0  0  0  0  0  0  0  0  0  0  0  0
  -23.0423   -9.9200   19.9004 C   0  0  0  0  0  0  0  0  0  0  0  0
  -23.8324   -9.8234   22.1815 C   0  0  0  0  0  0  0  0  0  0  0  0
  -35.6038  -31.2839   17.8356 C   0  0  0  0  0  0  0  0  0  0  0  0
  -34.6398  -29.3683   19.6097 C   0  0  0  0  0  0  0  0  0  0  0  0
  -34.7710  -24.3537   20.3036 C   0  0  0  0  0  0  0  0  0  0  0  0
  -32.8102  -17.2198   23.5571 C   0  0  0  0  0  0  0  0  0  0  0  0
  -32.1755  -16.3904   22.6325 C   0  0  0  0  0  0  0  0  0  0  0  0
  -22.2827   -8.7700   20.1148 C   0  0  0  0  0  0  0  0  0  0  0  0
  -23.0728   -8.6734   22.3960 C   0  0  0  0  0  0  0  0  0  0  0  0
  -34.7421  -23.8919   21.6188 C   0  0  0  0  0  0  0  0  0  0  0  0
  -19.8400   -7.9044   23.0111 C   0  0  0  0  0  0  0  0  0  0  0  0
  -19.0981   -7.8300   24.1899 C   0  0  0  0  0  0  0  0  0  0  0  0
  -32.3852  -23.4276   21.3977 C   0  0  0  0  0  0  0  0  0  0  0  0
  -20.3167   -5.8450   24.8318 C   0  0  0  0  0  0  0  0  0  0  0  0
  -23.8172  -10.4467   20.9338 C   0  0  0  0  0  0  0  0  0  0  0  0
  -24.1995  -12.9688   20.9091 C   0  0  0  0  0  0  0  0  0  0  0  0
  -34.3634  -30.6764   17.5849 C   0  0  0  0  0  0  0  0  0  0  0  0
  -33.6029  -24.3661   19.5278 C   0  0  0  0  0  0  0  0  0  0  0  0
  -33.8693  -29.7146   18.4867 C   0  0  0  0  0  0  0  0  0  0  0  0
  -32.4025  -23.8876   20.0721 C   0  0  0  0  0  0  0  0  0  0  0  0
  -32.0556  -18.0761   24.3591 C   0  0  0  0  0  0  0  0  0  0  0  0
  -30.6664  -18.1030   24.2364 C   0  0  0  0  0  0  0  0  0  0  0  0
  -30.0317  -17.2736   23.3118 C   0  0  0  0  0  0  0  0  0  0  0  0
  -30.7863  -16.4173   22.5098 C   0  0  0  0  0  0  0  0  0  0  0  0
  -22.2979   -8.1467   21.3626 C   0  0  0  0  0  0  0  0  0  0  0  0
  -33.5485  -23.4315   22.1670 C   0  0  0  0  0  0  0  0  0  0  0  0
  -20.8203   -6.9490   22.7426 C   0  0  0  0  0  0  0  0  0  0  0  0
  -19.3364   -6.8004   25.1002 C   0  0  0  0  0  0  0  0  0  0  0  0
  -21.0586   -5.9193   23.6529 C   0  0  0  0  0  0  0  0  0  0  0  0
  -24.6026  -11.6344   20.7128 C   0  0  0  0  0  0  0  0  0  0  0  0
  -25.2990  -13.7145   20.5607 C   0  0  0  0  0  0  0  0  0  0  0  0
  -33.5429  -21.2193   25.8443 C   0  0  0  0  0  0  0  0  0  0  0  0
  -33.0408  -21.4734   27.0586 C   0  0  0  0  0  0  0  0  0  0  0  0
  -22.9434  -13.4880   21.3658 C   0  0  0  0  0  0  0  0  0  0  0  0
  -31.8753  -26.6267   18.1105 C   0  0  0  0  0  0  0  0  0  0  0  0
  -30.2431  -24.0880   16.9217 C   0  0  0  0  0  0  0  0  0  0  0  0
  -29.0381  -20.9196   18.1570 C   0  0  0  0  0  0  0  0  0  0  0  0
  -30.7837  -14.6640   20.7008 C   0  0  0  0  0  0  0  0  0  0  0  0
  -33.5643  -31.1250   16.3870 C   0  0  0  0  0  0  0  0  0  0  0  0
  -33.6564  -24.8424   18.1021 C   0  0  0  0  0  0  0  0  0  0  0  0
  -31.1251  -23.8611   19.2745 C   0  0  0  0  0  0  0  0  0  0  0  0
  -34.7363  -21.8910   25.2401 C   0  0  0  0  0  0  0  0  0  0  0  0
  -32.4371  -30.1659   16.0129 C   0  0  0  0  0  0  0  0  0  0  0  0
  -29.5980  -12.3647   18.2545 C   0  0  0  0  0  0  0  0  0  0  0  0
  -31.6502  -29.7568   17.2540 C   0  0  0  0  0  0  0  0  0  0  0  0
  -28.1595  -12.0795   18.6921 C   0  0  0  0  0  0  0  0  0  0  0  0
  -30.5326  -12.5307   19.4515 C   0  0  0  0  0  0  0  0  0  0  0  0
  -28.6565  -13.2302   20.8867 C   0  0  0  0  0  0  0  0  0  0  0  0
  -33.5684  -20.5801   23.5914 C   0  0  0  0  0  0  0  0  0  0  0  0
  -32.5456  -29.0184   18.2563 C   0  0  1  0  0  0  0  0  0  0  0  0
  -32.2984  -25.2899   17.5703 C   0  0  1  0  0  0  0  0  0  0  0  0
  -27.6654  -13.1197   19.7165 C   0  0  2  0  0  0  0  0  0  0  0  0
  -34.3525  -21.8726   23.7688 C   0  0  1  0  0  0  0  0  0  1  0  0
  -29.8598  -19.0224   25.0980 C   0  0  0  0  0  0  0  0  0  0  0  0
  -28.5408  -17.3040   23.1818 C   0  0  0  0  0  0  0  0  0  0  0  0
  -28.5872  -18.7641   16.9537 C   0  0  0  0  0  0  0  0  0  0  0  0
  -27.3820  -25.1306   16.7281 C   0  0  0  0  0  0  0  0  0  0  0  0
  -26.5774  -22.7937   17.1279 C   0  0  0  0  0  0  0  0  0  0  0  0
  -27.9418  -23.3122   15.1050 C   0  0  0  0  0  0  0  0  0  0  0  0
  -30.8196  -19.4013   19.9681 C   0  0  0  0  0  0  0  0  0  0  0  0
  -32.7634  -18.9576   25.3455 C   0  0  0  0  0  0  0  0  0  0  0  0
  -29.0553  -23.2736   17.3744 C   0  0  1  0  0  0  0  0  0  0  0  0
  -29.5756  -19.5437   17.8068 C   0  0  2  0  0  0  0  0  0  0  0  0
  -27.7564  -23.6403   16.6025 C   0  0  0  0  0  0  0  0  0  0  0  0
  -25.8600  -11.5349   20.2735 N   0  0  0  0  0  0  0  0  0  0  0  0
  -26.2565  -12.8163   20.1909 N   0  0  0  0  0  0  0  0  0  0  0  0
  -31.2273  -24.3430   17.8871 N   0  0  0  0  0  0  0  0  0  0  0  0
  -30.0026  -13.5347   20.3767 N   0  0  0  0  0  0  0  0  0  0  0  0
  -25.5306  -15.0442   20.5376 N   0  0  0  0  0  0  0  0  0  0  0  0
  -21.9210  -12.5825   21.6808 N   0  0  0  0  0  0  0  0  0  0  0  0
  -30.1627  -15.5661   21.5641 N   0  0  0  0  0  0  0  0  0  0  0  0
  -32.7593  -27.6515   17.8316 N   0  0  0  0  0  0  0  0  0  0  0  0
  -29.4489  -21.8743   17.2510 N   0  0  0  0  0  0  0  0  0  0  0  0
  -32.8267  -20.3914   24.9122 N   0  3  1  0  0  0  0  0  0  0  0  0
  -29.8453  -18.7620   19.0466 N   0  3  0  0  0  0  0  0  0  0  0  0
  -22.7285  -14.7190   21.4751 O   0  0  0  0  0  0  0  0  0  0  0  0
  -30.8240  -26.7216   18.7329 O   0  0  0  0  0  0  0  0  0  0  0  0
  -30.2991  -24.4773   15.7525 O   0  0  0  0  0  0  0  0  0  0  0  0
  -28.3220  -21.1260   19.1344 O   0  0  0  0  0  0  0  0  0  0  0  0
  -31.9092  -14.8330   20.2246 O   0  0  0  0  0  0  0  0  0  0  0  0
  -21.5566   -7.0246   21.5722 O   0  0  0  0  0  0  0  0  0  0  0  0
  -33.5174  -22.9809   23.4507 O   0  0  0  0  0  0  0  0  0  1  0  0
  -18.6249   -6.7301   26.2329 F   0  0  0  0  0  0  0  0  0  0  0  0
  -21.9998   -4.9993   23.4010 F   0  0  0  0  0  0  0  0  0  0  0  0
  1  2  1  0  0  0  0
  1  5  2  0  0  0  0
  2  6  2  0  0  0  0
  3 10  2  0  0  0  0
  3 17  1  0  0  0  0
  4 11  1  0  0  0  0
  4 17  2  0  0  0  0
  5 19  1  0  0  0  0
  6 21  1  0  0  0  0
  7 12  2  0  0  0  0
  7 20  1  0  0  0  0
  8  9  2  0  0  0  0
  8 23  1  0  0  0  0
  9 26  1  0  0  0  0
 10 27  1  0  0  0  0
 11 27  2  0  0  0  0
 12 28  1  0  0  0  0
 13 14  2  0  0  0  0
 13 29  1  0  0  0  0
 14 30  1  0  0  0  0
 15 22  1  0  0  0  0
 15 28  2  0  0  0  0
 16 30  2  0  0  0  0
 16 31  1  0  0  0  0
 17 32  1  0  0  0  0
 18 32  1  0  0  0  0
 18 33  2  0  0  0  0
 18 36  1  0  0  0  0
 19 21  2  0  0  0  0
 19 41  1  0  0  0  0
 20 22  2  0  0  0  0
 20 42  1  0  0  0  0
 21 52  1  0  0  0  0
 22 43  1  0  0  0  0
 23 24  2  0  0  0  0
 23 63  1  0  0  0  0
 24 25  1  0  0  0  0
 24 56  1  0  0  0  0
 25 26  2  0  0  0  0
 25 57  1  0  0  0  0
 26 73  1  0  0  0  0
 27 83  1  0  0  0  0
 28 84  1  0  0  0  0
 29 31  2  0  0  0  0
 29 83  1  0  0  0  0
 30 85  1  0  0  0  0
 31 86  1  0  0  0  0
 32 67  2  0  0  0  0
 33 68  1  0  0  0  0
 33 71  1  0  0  0  0
 34 35  2  0  0  0  0
 34 44  1  0  0  0  0
 34 76  1  0  0  0  0
 36 72  1  0  0  0  0
 36 78  2  0  0  0  0
 37 53  1  0  0  0  0
 37 74  1  0  0  0  0
 37 79  2  0  0  0  0
 38 64  1  0  0  0  0
 38 69  1  0  0  0  0
 38 80  2  0  0  0  0
 39 65  1  0  0  0  0
 39 75  1  0  0  0  0
 39 81  2  0  0  0  0
 40 70  1  0  0  0  0
 40 73  1  0  0  0  0
 40 82  2  0  0  0  0
 41 45  1  0  0  0  0
 42 53  1  0  0  0  0
 43 69  1  0  0  0  0
 44 55  1  0  0  0  0
 45 47  1  0  0  0  0
 46 48  1  0  0  0  0
 46 49  1  0  0  0  0
 47 52  1  0  0  0  0
 48 54  1  0  0  0  0
 49 70  1  0  0  0  0
 50 54  1  0  0  0  0
 50 70  1  0  0  0  0
 51 55  1  0  0  0  0
 51 76  1  0  0  0  0
 52 74  1  0  0  0  0
 53 69  1  0  0  0  0
 54 68  1  0  0  0  0
 55 84  1  0  0  0  0
 58 65  1  0  0  0  0
 59 66  1  0  0  0  0
 60 66  1  0  0  0  0
 61 66  1  0  0  0  0
 62 77  1  0  0  0  0
 63 76  1  0  0  0  0
 64 66  1  0  0  0  0
 64 75  1  0  0  0  0
 65 77  1  0  0  0  0
 67 68  1  0  0  0  0
M  CHG  2  76   1  77   1
M  ISO  4  40 100  55 101  73 100  84 101
M  END
> <Batch ID>
0033

> <Smiles>
C=C1C[101CH:1]([101O:1]c2ccc3c(c2)CN(C(=O)C(NC(=O)C(C)NC)C(C)(C)C)C(C(=O)NC2CCCc4ccccc42)C3)CN1Cc1ccc([100NH:0][100C:0](=O)N2CCCC(n3nc(-c4ccc(Oc5ccc(F)cc5F)cc4)c(C(N)=O)c3N)C2)c(C)c1C

> <Shape>
0.225

> <Color>
0.191

> <Negative vol penalty>
0.000

$$$$

  -OEChem-04042321453D

 87 96  0     1  0  0  0  0  0999 V2000
  -27.7026  -35.7839   22.9463 C   0  0  0  0  0  0  0  0  0  0  0  0
  -28.4693  -34.7036   22.5215 C   0  0  0  0  0  0  0  0  0  0  0  0
  -23.4457  -11.5099   20.7407 C   0  0  0  0  0  0  0  0  0  0  0  0
  -25.2806  -13.0734   20.9009 C   0  0  0  0  0  0  0  0  0  0  0  0
  -26.4595  -35.5650   23.5386 C   0  0  0  0  0  0  0  0  0  0  0  0
  -27.9939  -33.4036   22.6898 C   0  0  0  0  0  0  0  0  0  0  0  0
  -28.8857  -28.6434   18.9413 C   0  0  0  0  0  0  0  0  0  0  0  0
  -27.5903  -20.9682   23.3645 C   0  0  0  0  0  0  0  0  0  0  0  0
  -26.2772  -21.1987   22.9541 C   0  0  0  0  0  0  0  0  0  0  0  0
  -24.3349  -10.5054   20.3590 C   0  0  0  0  0  0  0  0  0  0  0  0
  -26.1699  -12.0688   20.5192 C   0  0  0  0  0  0  0  0  0  0  0  0
  -29.7877  -27.5808   18.9728 C   0  0  0  0  0  0  0  0  0  0  0  0
  -27.1285  -10.5460   17.6569 C   0  0  0  0  0  0  0  0  0  0  0  0
  -28.0909  -10.8624   16.6981 C   0  0  0  0  0  0  0  0  0  0  0  0
  -28.1158  -26.2010   20.0313 C   0  0  0  0  0  0  0  0  0  0  0  0
  -29.8397  -10.3254   18.2763 C   0  0  0  0  0  0  0  0  0  0  0  0
  -23.9185  -12.7940   21.0117 C   0  0  0  0  0  0  0  0  0  0  0  0
  -22.1577  -13.8390   22.5332 C   0  0  0  0  0  0  0  0  0  0  0  0
  -25.9644  -34.2620   23.7055 C   0  0  0  0  0  0  0  0  0  0  0  0
  -27.5934  -28.4959   19.4653 C   0  0  0  0  0  0  0  0  0  0  0  0
  -26.7437  -33.1669   23.2861 C   0  0  0  0  0  0  0  0  0  0  0  0
  -27.1985  -27.2625   20.0029 C   0  0  0  0  0  0  0  0  0  0  0  0
  -28.5902  -20.7549   22.4156 C   0  0  0  0  0  0  0  0  0  0  0  0
  -25.9641  -21.2158   21.5950 C   0  0  0  0  0  0  0  0  0  0  0  0
  -28.2771  -20.7720   21.0565 C   0  0  0  0  0  0  0  0  0  0  0  0
  -25.6970  -10.7848   20.2482 C   0  0  0  0  0  0  0  0  0  0  0  0
  -29.4038  -26.3602   19.5205 C   0  0  0  0  0  0  0  0  0  0  0  0
  -27.5217  -10.1193   18.9254 C   0  0  0  0  0  0  0  0  0  0  0  0
  -29.4465  -10.7521   17.0078 C   0  0  0  0  0  0  0  0  0  0  0  0
  -28.8772  -10.0090   19.2351 C   0  0  0  0  0  0  0  0  0  0  0  0
  -26.9641  -21.0025   20.6461 C   0  0  0  0  0  0  0  0  0  0  0  0
  -23.0004  -13.8322   21.4055 C   0  0  0  0  0  0  0  0  0  0  0  0
  -21.4922  -15.0381   22.4574 C   0  0  0  0  0  0  0  0  0  0  0  0
  -21.9915  -12.8499   23.5578 C   0  0  0  0  0  0  0  0  0  0  0  0
  -25.9579  -29.8672   21.8208 C   0  0  0  0  0  0  0  0  0  0  0  0
  -23.5181  -28.0850   20.6405 C   0  0  0  0  0  0  0  0  0  0  0  0
  -22.5272  -25.3395   18.8720 C   0  0  0  0  0  0  0  0  0  0  0  0
  -22.8123  -20.2780   19.8783 C   0  0  0  0  0  0  0  0  0  0  0  0
  -24.6360  -34.0729   24.3941 C   0  0  0  0  0  0  0  0  0  0  0  0
  -26.6235  -29.6437   19.3995 C   0  0  0  0  0  0  0  0  0  0  0  0
  -25.8160  -27.0464   20.5601 C   0  0  0  0  0  0  0  0  0  0  0  0
  -24.0395  -32.6818   24.1956 C   0  0  0  0  0  0  0  0  0  0  0  0
  -19.9375  -18.2635   19.2839 C   0  0  0  0  0  0  0  0  0  0  0  0
  -30.6744  -22.5415   17.0684 C   0  0  0  0  0  0  0  0  0  0  0  0
  -25.0979  -31.6087   24.4303 C   0  0  0  0  0  0  0  0  0  0  0  0
  -20.3204  -16.9000   19.8620 C   0  0  0  0  0  0  0  0  0  0  0  0
  -30.9315  -23.8727   17.7623 C   0  0  0  0  0  0  0  0  0  0  0  0
  -21.1316  -18.9545   18.6294 C   0  0  0  0  0  0  0  0  0  0  0  0
  -22.7047  -17.7190   20.0691 C   0  0  0  0  0  0  0  0  0  0  0  0
  -30.6054  -21.3924   18.0641 C   0  0  0  0  0  0  0  0  0  0  0  0
  -29.8380  -22.9766   19.8506 C   0  0  0  0  0  0  0  0  0  0  0  0
  -26.2514  -31.7431   23.4289 C   0  0  1  0  0  0  0  0  0  0  0  0
  -25.5015  -29.5376   20.4277 C   0  0  1  0  0  0  0  0  0  0  0  0
  -21.5460  -17.0082   20.7891 C   0  0  2  0  0  0  0  0  0  0  0  0
  -29.9078  -24.1337   18.8628 C   0  0  1  0  0  0  0  0  0  1  0  0
  -29.9874  -20.5101   22.8837 C   0  0  0  0  0  0  0  0  0  0  0  0
  -20.4677  -24.1263   18.1079 C   0  0  0  0  0  0  0  0  0  0  0  0
  -23.1217  -26.9873   23.4597 C   0  0  0  0  0  0  0  0  0  0  0  0
  -21.7473  -25.1420   22.4729 C   0  0  0  0  0  0  0  0  0  0  0  0
  -21.0040  -27.5115   22.2370 C   0  0  0  0  0  0  0  0  0  0  0  0
  -23.2299  -25.7036   16.0202 C   0  0  0  0  0  0  0  0  0  0  0  0
  -24.5431  -21.4655   21.2025 C   0  0  0  0  0  0  0  0  0  0  0  0
  -29.3680  -20.5383   20.0533 C   0  0  0  0  0  0  0  0  0  0  0  0
  -22.9872  -26.6954   20.8979 C   0  0  1  0  0  0  0  0  0  0  0  0
  -21.5129  -25.1731   17.7549 C   0  0  2  0  0  0  0  0  0  0  0  0
  -22.2418  -26.5884   22.2582 C   0  0  0  0  0  0  0  0  0  0  0  0
  -22.8827  -14.9391   20.6673 N   0  0  0  0  0  0  0  0  0  0  0  0
  -21.9583  -15.6526   21.3325 N   0  0  0  0  0  0  0  0  0  0  0  0
  -24.9060  -28.2009   20.4785 N   0  0  0  0  0  0  0  0  0  0  0  0
  -22.2594  -19.0263   19.5616 N   0  0  0  0  0  0  0  0  0  0  0  0
  -20.5596  -15.6162   23.2438 N   0  0  0  0  0  0  0  0  0  0  0  0
  -22.8042  -12.9250   24.6972 N   0  0  0  0  0  0  0  0  0  0  0  0
  -25.8667  -31.2085   22.1402 N   0  0  0  0  0  0  0  0  0  0  0  0
  -22.1700  -26.3496   19.7399 N   0  0  0  0  0  0  0  0  0  0  0  0
  -23.8740  -20.2573   20.7746 N   0  0  0  0  0  0  0  0  0  0  0  0
  -29.5582  -21.6938   19.1097 N   0  3  2  0  0  0  0  0  0  0  0  0
  -22.1922  -24.7532   16.4967 N   0  3  0  0  0  0  0  0  0  0  0  0
  -21.1586  -11.9172   23.4582 O   0  0  0  0  0  0  0  0  0  0  0  0
  -26.3615  -28.9707   22.5523 O   0  0  0  0  0  0  0  0  0  0  0  0
  -22.7297  -29.0316   20.5780 O   0  0  0  0  0  0  0  0  0  0  0  0
  -23.5337  -24.6407   18.9673 O   0  0  0  0  0  0  0  0  0  0  0  0
  -22.3877  -21.3363   19.4022 O   0  0  0  0  0  0  0  0  0  0  0  0
  -26.5650   -9.8048   19.8759 O   0  0  0  0  0  0  0  0  0  0  0  0
  -30.2824  -25.3216   19.5532 O   0  0  0  0  0  0  0  0  0  1  0  0
  -30.3706  -11.0545   16.0865 F   0  0  0  0  0  0  0  0  0  0  0  0
  -29.2610   -9.5985   20.4516 F   0  0  0  0  0  0  0  0  0  0  0  0
  -26.5705  -21.0203   18.9592 Cl  0  0  0  0  0  0  0  0  0  0  0  0
  1  2  1  0  0  0  0
  1  5  2  0  0  0  0
  2  6  2  0  0  0  0
  3 10  2  0  0  0  0
  3 17  1  0  0  0  0
  4 11  1  0  0  0  0
  4 17  2  0  0  0  0
  5 19  1  0  0  0  0
  6 21  1  0  0  0  0
  7 12  2  0  0  0  0
  7 20  1  0  0  0  0
  8  9  1  0  0  0  0
  8 23  2  0  0  0  0
  9 24  2  0  0  0  0
 10 26  1  0  0  0  0
 11 26  2  0  0  0  0
 12 27  1  0  0  0  0
 13 14  2  0  0  0  0
 13 28  1  0  0  0  0
 14 29  1  0  0  0  0
 15 22  1  0  0  0  0
 15 27  2  0  0  0  0
 16 29  2  0  0  0  0
 16 30  1  0  0  0  0
 17 32  1  0  0  0  0
 18 32  1  0  0  0  0
 18 33  2  0  0  0  0
 18 34  1  0  0  0  0
 19 21  2  0  0  0  0
 19 39  1  0  0  0  0
 20 22  2  0  0  0  0
 20 40  1  0  0  0  0
 21 52  1  0  0  0  0
 22 41  1  0  0  0  0
 23 25  1  0  0  0  0
 23 56  1  0  0  0  0
 24 31  1  0  0  0  0
 24 62  1  0  0  0  0
 25 31  2  0  0  0  0
 25 63  1  0  0  0  0
 26 83  1  0  0  0  0
 27 84  1  0  0  0  0
 28 30  2  0  0  0  0
 28 83  1  0  0  0  0
 29 85  1  0  0  0  0
 30 86  1  0  0  0  0
 31 87  1  0  0  0  0
 32 67  2  0  0  0  0
 33 68  1  0  0  0  0
 33 71  1  0  0  0  0
 34 72  1  0  0  0  0
 34 78  2  0  0  0  0
 35 53  1  0  0  0  0
 35 73  1  0  0  0  0
 35 79  2  0  0  0  0
 36 64  1  0  0  0  0
 36 69  1  0  0  0  0
 36 80  2  0  0  0  0
 37 65  1  0  0  0  0
 37 74  1  0  0  0  0
 37 81  2  0  0  0  0
 38 70  1  0  0  0  0
 38 75  1  0  0  0  0
 38 82  2  0  0  0  0
 39 42  1  0  0  0  0
 40 53  1  0  0  0  0
 41 69  1  0  0  0  0
 42 45  1  0  0  0  0
 43 46  1  0  0  0  0
 43 48  1  0  0  0  0
 44 47  1  0  0  0  0
 44 50  1  0  0  0  0
 45 52  1  0  0  0  0
 46 54  1  0  0  0  0
 47 55  1  0  0  0  0
 48 70  1  0  0  0  0
 49 54  1  0  0  0  0
 49 70  1  0  0  0  0
 50 76  1  0  0  0  0
 51 55  1  0  0  0  0
 51 76  1  0  0  0  0
 52 73  1  0  0  0  0
 53 69  1  0  0  0  0
 54 68  1  0  0  0  0
 55 84  1  0  0  0  0
 57 65  1  0  0  0  0
 58 66  1  0  0  0  0
 59 66  1  0  0  0  0
 60 66  1  0  0  0  0
 61 77  1  0  0  0  0
 62 75  1  0  0  0  0
 63 76  1  0  0  0  0
 64 66  1  0  0  0  0
 64 74  1  0  0  0  0
 65 77  1  0  0  0  0
 67 68  1  0  0  0  0
M  CHG  2  76   1  77   1
M  ISO  4  38 100  55 101  75 100  84 101
M  END
> <Batch ID>
0033

> <Smiles>
CNC(C)C(=O)NC(C(=O)N1Cc2cc([101O:1][101CH:1]3CCCN(Cc4c(C)ccc(C[100NH:0][100C:0](=O)N5CCCC(n6nc(-c7ccc(Oc8ccc(F)cc8F)cc7)c(C(N)=O)c6N)C5)c4Cl)C3)ccc2CC1C(=O)NC1CCCc2ccccc21)C(C)(C)C

> <Shape>
0.236

> <Color>
0.052

> <Negative vol penalty>
0.000

$$$$

  -OEChem-04042321453D

 85 93  0     1  0  0  0  0  0999 V2000
  -22.6737  -17.7041   23.7977 C   0  0  0  0  0  0  0  0  0  0  0  0
  -23.4915  -18.8213   23.6705 C   0  0  0  0  0  0  0  0  0  0  0  0
  -24.3013  -13.7633   21.6859 C   0  0  0  0  0  0  0  0  0  0  0  0
  -26.4680  -13.6820   20.6200 C   0  0  0  0  0  0  0  0  0  0  0  0
  -21.3390  -17.7737   23.4044 C   0  0  0  0  0  0  0  0  0  0  0  0
  -22.9717  -20.0117   23.1610 C   0  0  0  0  0  0  0  0  0  0  0  0
  -25.8974  -23.9648   23.2926 C   0  0  0  0  0  0  0  0  0  0  0  0
  -28.8142  -24.0276   15.6486 C   0  0  0  0  0  0  0  0  0  0  0  0
  -27.7727  -23.1559   15.9666 C   0  0  0  0  0  0  0  0  0  0  0  0
  -24.3229  -12.3767   21.8356 C   0  0  0  0  0  0  0  0  0  0  0  0
  -26.4896  -12.2954   20.7698 C   0  0  0  0  0  0  0  0  0  0  0  0
  -27.0024  -24.1128   22.4555 C   0  0  0  0  0  0  0  0  0  0  0  0
  -23.7710   -9.6550   19.9090 C   0  0  0  0  0  0  0  0  0  0  0  0
  -22.6116   -8.9507   19.5846 C   0  0  0  0  0  0  0  0  0  0  0  0
  -25.7540  -25.6620   21.0915 C   0  0  0  0  0  0  0  0  0  0  0  0
  -22.4857   -8.1152   21.8480 C   0  0  0  0  0  0  0  0  0  0  0  0
  -25.3739  -14.4160   21.0781 C   0  0  0  0  0  0  0  0  0  0  0  0
  -29.7506  -23.7132   17.8534 C   0  0  0  0  0  0  0  0  0  0  0  0
  -25.8349  -16.8095   21.8307 C   0  0  0  0  0  0  0  0  0  0  0  0
  -20.8066  -18.9623   22.8783 C   0  0  0  0  0  0  0  0  0  0  0  0
  -24.7068  -24.6570   23.0288 C   0  0  0  0  0  0  0  0  0  0  0  0
  -21.6210  -20.1089   22.7808 C   0  0  0  0  0  0  0  0  0  0  0  0
  -24.6361  -25.5230   21.9282 C   0  0  0  0  0  0  0  0  0  0  0  0
  -29.8032  -24.3062   16.5920 C   0  0  0  0  0  0  0  0  0  0  0  0
  -27.7201  -22.5629   17.2280 C   0  0  0  0  0  0  0  0  0  0  0  0
  -25.4171  -11.6428   21.3776 C   0  0  0  0  0  0  0  0  0  0  0  0
  -26.9299  -24.9593   21.3531 C   0  0  0  0  0  0  0  0  0  0  0  0
  -24.2879   -9.5893   21.2030 C   0  0  0  0  0  0  0  0  0  0  0  0
  -21.9689   -8.1808   20.5541 C   0  0  0  0  0  0  0  0  0  0  0  0
  -23.6452   -8.8194   22.1725 C   0  0  0  0  0  0  0  0  0  0  0  0
  -28.7091  -22.8415   18.1715 C   0  0  0  0  0  0  0  0  0  0  0  0
  -25.3519  -15.8483   20.9226 C   0  0  0  0  0  0  0  0  0  0  0  0
  -25.5817  -18.0145   21.2222 C   0  0  0  0  0  0  0  0  0  0  0  0
  -30.7951  -23.9955   18.8747 C   0  0  0  0  0  0  0  0  0  0  0  0
  -26.4569  -16.6291   23.1099 C   0  0  0  0  0  0  0  0  0  0  0  0
  -21.7204  -23.8059   22.3501 C   0  0  0  0  0  0  0  0  0  0  0  0
  -30.2953  -25.7445   20.3045 C   0  0  0  0  0  0  0  0  0  0  0  0
  -21.1691  -26.9930   22.5971 C   0  0  0  0  0  0  0  0  0  0  0  0
  -22.4111  -30.1682   22.4474 C   0  0  0  0  0  0  0  0  0  0  0  0
  -25.5988  -21.2999   16.7268 C   0  0  0  0  0  0  0  0  0  0  0  0
  -19.3532  -18.9843   22.4755 C   0  0  0  0  0  0  0  0  0  0  0  0
  -23.5324  -24.5070   23.9566 C   0  0  0  0  0  0  0  0  0  0  0  0
  -23.3878  -26.3044   21.6128 C   0  0  0  0  0  0  0  0  0  0  0  0
  -19.0124  -20.1415   21.5422 C   0  0  0  0  0  0  0  0  0  0  0  0
  -22.8116  -19.1220   17.1330 C   0  0  0  0  0  0  0  0  0  0  0  0
  -19.5547  -21.4445   22.1104 C   0  0  0  0  0  0  0  0  0  0  0  0
  -23.2637  -18.1552   18.2298 C   0  0  0  0  0  0  0  0  0  0  0  0
  -23.9625  -19.5042   16.2041 C   0  0  0  0  0  0  0  0  0  0  0  0
  -25.6130  -19.0517   17.9763 C   0  0  0  0  0  0  0  0  0  0  0  0
  -21.0855  -21.4056   22.2009 C   0  0  1  0  0  0  0  0  0  0  0  0
  -22.2027  -24.8653   23.3002 C   0  0  1  0  0  0  0  0  0  0  0  0
  -24.5025  -18.6887   18.9757 C   0  0  2  0  0  0  0  0  0  0  0  0
  -30.9070  -25.2435   16.2238 C   0  0  0  0  0  0  0  0  0  0  0  0
  -30.5506  -27.1695   20.7330 C   0  0  0  0  0  0  0  0  0  0  0  0
  -21.7113  -32.5690   22.6561 C   0  0  0  0  0  0  0  0  0  0  0  0
  -19.8997  -26.8613   19.8256 C   0  0  0  0  0  0  0  0  0  0  0  0
  -20.0918  -29.3542   19.6957 C   0  0  0  0  0  0  0  0  0  0  0  0
  -18.6802  -28.3043   21.4642 C   0  0  0  0  0  0  0  0  0  0  0  0
  -24.2287  -30.6196   24.7390 C   0  0  0  0  0  0  0  0  0  0  0  0
  -29.2971  -24.9528   21.1243 C   0  0  0  0  0  0  0  0  0  1  0  0
  -21.1981  -28.1603   21.6403 C   0  0  1  0  0  0  0  0  0  0  0  0
  -22.2625  -31.3531   23.3845 C   0  0  2  0  0  0  0  0  0  0  0  0
  -19.9905  -28.1540   20.6610 C   0  0  0  0  0  0  0  0  0  0  0  0
  -24.8311  -16.3955   19.8211 N   0  0  0  0  0  0  0  0  0  0  0  0
  -30.9693  -25.2912   19.2898 N   0  0  0  0  0  0  0  0  0  0  0  0
  -24.9853  -17.7136   20.0331 N   0  0  0  0  0  0  0  0  0  0  0  0
  -22.2643  -26.1190   22.5461 N   0  0  0  0  0  0  0  0  0  0  0  0
  -25.0991  -20.0049   16.9802 N   0  0  0  0  0  0  0  0  0  0  0  0
  -25.8132  -19.2915   21.5937 N   0  0  0  0  0  0  0  0  0  0  0  0
  -26.6409  -15.3236   23.5852 N   0  0  0  0  0  0  0  0  0  0  0  0
  -26.6596  -21.6796   17.5485 N   0  0  0  0  0  0  0  0  0  0  0  0
  -21.5447  -22.5653   22.9329 N   0  0  0  0  0  0  0  0  0  0  0  0
  -21.2935  -29.3608   22.4637 N   0  0  0  0  0  0  0  0  0  0  0  0
  -31.4942  -23.0634   19.4195 N   0  3  0  0  0  0  0  0  0  0  0  0
  -23.5823  -31.7165   23.9735 N   0  3  0  0  0  0  0  0  0  0  0  0
  -26.8234  -17.5976   23.8179 O   0  0  0  0  0  0  0  0  0  0  0  0
  -21.5208  -24.0931   21.1757 O   0  0  0  0  0  0  0  0  0  0  0  0
  -20.2135  -26.8654   23.3666 O   0  0  0  0  0  0  0  0  0  0  0  0
  -23.4165  -29.9798   21.7661 O   0  0  0  0  0  0  0  0  0  0  0  0
  -25.1033  -22.0293   15.8640 O   0  0  0  0  0  0  0  0  0  0  0  0
  -25.4386  -10.2897   21.5237 O   0  0  0  0  0  0  0  0  0  0  0  0
  -28.0069  -25.1051   20.5341 O   0  0  0  0  0  0  0  0  0  1  0  0
  -20.8546   -7.5058   20.2427 F   0  0  0  0  0  0  0  0  0  0  0  0
  -24.1363   -8.7534   23.4176 F   0  0  0  0  0  0  0  0  0  0  0  0
  -28.6569  -22.2709   19.3850 F   0  0  0  0  0  0  0  0  0  0  0  0
  1  2  1  0  0  0  0
  1  5  2  0  0  0  0
  2  6  2  0  0  0  0
  3 10  2  0  0  0  0
  3 17  1  0  0  0  0
  4 11  1  0  0  0  0
  4 17  2  0  0  0  0
  5 20  1  0  0  0  0
  6 22  1  0  0  0  0
  7 12  2  0  0  0  0
  7 21  1  0  0  0  0
  8  9  1  0  0  0  0
  8 24  2  0  0  0  0
  9 25  2  0  0  0  0
 10 26  1  0  0  0  0
 11 26  2  0  0  0  0
 12 27  1  0  0  0  0
 13 14  2  0  0  0  0
 13 28  1  0  0  0  0
 14 29  1  0  0  0  0
 15 23  1  0  0  0  0
 15 27  2  0  0  0  0
 16 29  2  0  0  0  0
 16 30  1  0  0  0  0
 17 32  1  0  0  0  0
 18 24  1  0  0  0  0
 18 31  2  0  0  0  0
 18 34  1  0  0  0  0
 19 32  1  0  0  0  0
 19 33  2  0  0  0  0
 19 35  1  0  0  0  0
 20 22  2  0  0  0  0
 20 41  1  0  0  0  0
 21 23  2  0  0  0  0
 21 42  1  0  0  0  0
 22 50  1  0  0  0  0
 23 43  1  0  0  0  0
 24 53  1  0  0  0  0
 25 31  1  0  0  0  0
 25 71  1  0  0  0  0
 26 81  1  0  0  0  0
 27 82  1  0  0  0  0
 28 30  2  0  0  0  0
 28 81  1  0  0  0  0
 29 83  1  0  0  0  0
 30 84  1  0  0  0  0
 31 85  1  0  0  0  0
 32 64  2  0  0  0  0
 33 66  1  0  0  0  0
 33 69  1  0  0  0  0
 34 65  1  0  0  0  0
 34 74  2  0  0  0  0
 35 70  1  0  0  0  0
 35 76  2  0  0  0  0
 36 51  1  0  0  0  0
 36 72  1  0  0  0  0
 36 77  2  0  0  0  0
 37 54  1  0  0  0  0
 37 60  1  0  0  0  0
 37 65  2  0  0  0  0
 38 61  1  0  0  0  0
 38 67  1  0  0  0  0
 38 78  2  0  0  0  0
 39 62  1  0  0  0  0
 39 73  1  0  0  0  0
 39 79  2  0  0  0  0
 40 68  1  0  0  0  0
 40 71  1  0  0  0  0
 40 80  2  0  0  0  0
 41 44  1  0  0  0  0
 42 51  1  0  0  0  0
 43 67  1  0  0  0  0
 44 46  1  0  0  0  0
 45 47  1  0  0  0  0
 45 48  1  0  0  0  0
 46 50  1  0  0  0  0
 47 52  1  0  0  0  0
 48 68  1  0  0  0  0
 49 52  1  0  0  0  0
 49 68  1  0  0  0  0
 50 72  1  0  0  0  0
 51 67  1  0  0  0  0
 52 66  1  0  0  0  0
 55 62  1  0  0  0  0
 56 63  1  0  0  0  0
 57 63  1  0  0  0  0
 58 63  1  0  0  0  0
 59 75  1  0  0  0  0
 60 82  1  0  0  0  0
 61 63  1  0  0  0  0
 61 73  1  0  0  0  0
 62 75  1  0  0  0  0
 64 66  1  0  0  0  0
M  CHG  2  74   1  75   1
M  ISO  4  40 100  60 101  71 100  82 101
M  END
> <Batch ID>
0033

> <Smiles>
CNC(C)C(=O)NC(C(=O)N1Cc2cc([101O:1][101CH2:1]C(C)=NC(=N)c3c(C)ccc([100NH:0][100C:0](=O)N4CCCC(n5nc(-c6ccc(Oc7ccc(F)cc7F)cc6)c(C(N)=O)c5N)C4)c3F)ccc2CC1C(=O)NC1CCCc2ccccc21)C(C)(C)C

> <Shape>
0.186

> <Color>
0.067

> <Negative vol penalty>
0.000

$$$$

  -OEChem-04042321453D

 83 91  0     1  0  0  0  0  0999 V2000
  -17.7888  -27.1717   22.8466 C   0  0  0  0  0  0  0  0  0  0  0  0
  -18.6332  -26.2191   23.4077 C   0  0  0  0  0  0  0  0  0  0  0  0
  -23.0127   -9.9682   19.9900 C   0  0  0  0  0  0  0  0  0  0  0  0
  -23.7811   -9.9857   22.2805 C   0  0  0  0  0  0  0  0  0  0  0  0
  -18.3180  -28.1932   22.0589 C   0  0  0  0  0  0  0  0  0  0  0  0
  -20.0073  -26.2868   23.1806 C   0  0  0  0  0  0  0  0  0  0  0  0
  -24.4651  -24.7535   27.0900 C   0  0  0  0  0  0  0  0  0  0  0  0
  -22.2387   -8.8392   20.2583 C   0  0  0  0  0  0  0  0  0  0  0  0
  -23.0070   -8.8567   22.5488 C   0  0  0  0  0  0  0  0  0  0  0  0
  -25.2410  -23.6029   27.2233 C   0  0  0  0  0  0  0  0  0  0  0  0
  -19.7606   -8.1555   23.1730 C   0  0  0  0  0  0  0  0  0  0  0  0
  -19.0072   -8.1521   24.3469 C   0  0  0  0  0  0  0  0  0  0  0  0
  -26.9880  -24.6372   25.9206 C   0  0  0  0  0  0  0  0  0  0  0  0
  -29.5544  -18.8460   22.0861 C   0  0  0  0  0  0  0  0  0  0  0  0
  -29.0649  -18.2953   24.7768 C   0  0  0  0  0  0  0  0  0  0  0  0
  -20.1982   -6.1918   25.1057 C   0  0  0  0  0  0  0  0  0  0  0  0
  -23.7840  -10.5414   21.0011 C   0  0  0  0  0  0  0  0  0  0  0  0
  -24.1939  -13.0544   20.8453 C   0  0  0  0  0  0  0  0  0  0  0  0
  -19.7003  -28.2790   21.8299 C   0  0  0  0  0  0  0  0  0  0  0  0
  -24.9412  -25.8524   26.3605 C   0  0  0  0  0  0  0  0  0  0  0  0
  -20.5554  -27.3096   22.3879 C   0  0  0  0  0  0  0  0  0  0  0  0
  -26.2173  -25.8016   25.7816 C   0  0  0  0  0  0  0  0  0  0  0  0
  -28.7622  -19.7101   22.8419 C   0  0  0  0  0  0  0  0  0  0  0  0
  -30.1018  -17.7064   22.6756 C   0  0  0  0  0  0  0  0  0  0  0  0
  -28.5175  -19.4349   24.1872 C   0  0  0  0  0  0  0  0  0  0  0  0
  -22.2358   -8.2835   21.5376 C   0  0  0  0  0  0  0  0  0  0  0  0
  -26.5015  -23.5435   26.6362 C   0  0  0  0  0  0  0  0  0  0  0  0
  -20.7327   -7.1769   22.9654 C   0  0  0  0  0  0  0  0  0  0  0  0
  -19.2260   -7.1703   25.3132 C   0  0  0  0  0  0  0  0  0  0  0  0
  -20.9515   -6.1951   23.9317 C   0  0  0  0  0  0  0  0  0  0  0  0
  -29.8570  -17.4311   24.0209 C   0  0  0  0  0  0  0  0  0  0  0  0
  -24.5842  -11.7072   20.7245 C   0  0  0  0  0  0  0  0  0  0  0  0
  -25.3047  -13.7688   20.4682 C   0  0  0  0  0  0  0  0  0  0  0  0
  -22.9395  -13.6103   21.2614 C   0  0  0  0  0  0  0  0  0  0  0  0
  -23.9902  -27.3921   23.7473 C   0  0  0  0  0  0  0  0  0  0  0  0
  -26.4058  -29.4107   24.5299 C   0  0  0  0  0  0  0  0  0  0  0  0
  -29.3732  -29.8888   26.1465 C   0  0  0  0  0  0  0  0  0  0  0  0
  -30.8148  -14.6405   20.6242 C   0  0  0  0  0  0  0  0  0  0  0  0
  -20.2209  -29.3739   20.9327 C   0  0  0  0  0  0  0  0  0  0  0  0
  -24.1030  -27.0963   26.2484 C   0  0  0  0  0  0  0  0  0  0  0  0
  -26.7828  -26.9618   25.0054 C   0  0  0  0  0  0  0  0  0  0  0  0
  -21.7274  -29.5914   21.0484 C   0  0  0  0  0  0  0  0  0  0  0  0
  -29.6039  -12.2556   18.2742 C   0  0  0  0  0  0  0  0  0  0  0  0
  -22.4642  -28.2564   21.0075 C   0  0  0  0  0  0  0  0  0  0  0  0
  -28.1606  -12.0071   18.7159 C   0  0  0  0  0  0  0  0  0  0  0  0
  -30.5311  -12.4677   19.4689 C   0  0  0  0  0  0  0  0  0  0  0  0
  -28.6551  -13.2691   20.8516 C   0  0  0  0  0  0  0  0  0  0  0  0
  -22.0540  -27.3636   22.1849 C   0  0  1  0  0  0  0  0  0  0  0  0
  -24.4765  -27.9626   25.0495 C   0  0  1  0  0  0  0  0  0  0  0  0
  -27.6722  -13.1051   19.6798 C   0  0  2  0  0  0  0  0  0  0  0  0
  -28.1871  -20.9228   22.1851 C   0  0  0  0  0  0  0  0  0  0  0  0
  -31.1246  -31.6344   26.5740 C   0  0  0  0  0  0  0  0  0  0  0  0
  -27.4778  -29.0251   21.6993 C   0  0  0  0  0  0  0  0  0  0  0  0
  -29.6582  -29.9849   22.4691 C   0  0  0  0  0  0  0  0  0  0  0  0
  -27.5889  -31.3758   22.5457 C   0  0  0  0  0  0  0  0  0  0  0  0
  -28.9247  -29.7888   29.0701 C   0  0  0  0  0  0  0  0  0  0  0  0
  -30.9437  -16.8051   21.8312 C   0  0  0  0  0  0  0  0  0  0  0  0
  -27.4378  -20.0579   26.3486 C   0  0  0  0  0  0  0  0  0  0  0  0
  -26.5684  -21.1799   26.8910 C   0  0  0  0  0  0  0  0  0  1  0  0
  -27.8783  -29.4920   24.2068 C   0  0  1  0  0  0  0  0  0  0  0  0
  -29.8452  -30.9875   27.0815 C   0  0  2  0  0  0  0  0  0  0  0  0
  -28.1396  -29.9467   22.7431 C   0  0  0  0  0  0  0  0  0  0  0  0
  -25.8444  -11.5713   20.3034 N   0  0  0  0  0  0  0  0  0  0  0  0
  -26.2556  -12.8422   20.1562 N   0  0  0  0  0  0  0  0  0  0  0  0
  -25.9224  -28.1534   24.9187 N   0  0  0  0  0  0  0  0  0  0  0  0
  -30.0120  -13.5228   20.3425 N   0  0  0  0  0  0  0  0  0  0  0  0
  -25.5510  -15.0929   20.3762 N   0  0  0  0  0  0  0  0  0  0  0  0
  -21.9045  -12.7337   21.6145 N   0  0  0  0  0  0  0  0  0  0  0  0
  -27.7326  -20.2819   24.9519 N   0  0  0  0  0  0  0  0  0  0  0  0
  -22.7146  -27.7930   23.3989 N   0  0  0  0  0  0  0  0  0  0  0  0
  -28.4705  -30.3616   25.2175 N   0  0  0  0  0  0  0  0  0  0  0  0
  -30.2442  -15.5967   21.4554 N   0  0  0  0  0  0  0  0  0  0  0  0
  -30.1053  -30.4347   28.4408 N   0  3  0  0  0  0  0  0  0  0  0  0
  -22.7370  -14.8476   21.3026 O   0  0  0  0  0  0  0  0  0  0  0  0
  -24.7191  -26.6448   23.1054 O   0  0  0  0  0  0  0  0  0  0  0  0
  -25.7117  -30.4271   24.4474 O   0  0  0  0  0  0  0  0  0  0  0  0
  -29.7686  -28.7281   26.2293 O   0  0  0  0  0  0  0  0  0  0  0  0
  -31.9534  -14.7788   20.1644 O   0  0  0  0  0  0  0  0  0  0  0  0
  -21.4804   -7.1820   21.7998 O   0  0  0  0  0  0  0  0  0  0  0  0
  -27.2606  -22.4213   26.7643 O   0  0  0  0  0  0  0  0  0  1  0  0
  -18.5035   -7.1682   26.4411 F   0  0  0  0  0  0  0  0  0  0  0  0
  -21.8849   -5.2531   23.7385 F   0  0  0  0  0  0  0  0  0  0  0  0
  -30.5189  -16.0315   24.7842 Cl  0  0  0  0  0  0  0  0  0  0  0  0
  1  2  1  0  0  0  0
  1  5  2  0  0  0  0
  2  6  2  0  0  0  0
  3  8  2  0  0  0  0
  3 17  1  0  0  0  0
  4  9  1  0  0  0  0
  4 17  2  0  0  0  0
  5 19  1  0  0  0  0
  6 21  1  0  0  0  0
  7 10  2  0  0  0  0
  7 20  1  0  0  0  0
  8 26  1  0  0  0  0
  9 26  2  0  0  0  0
 10 27  1  0  0  0  0
 11 12  2  0  0  0  0
 11 28  1  0  0  0  0
 12 29  1  0  0  0  0
 13 22  1  0  0  0  0
 13 27  2  0  0  0  0
 14 23  1  0  0  0  0
 14 24  2  0  0  0  0
 15 25  1  0  0  0  0
 15 31  2  0  0  0  0
 16 29  2  0  0  0  0
 16 30  1  0  0  0  0
 17 32  1  0  0  0  0
 18 32  1  0  0  0  0
 18 33  2  0  0  0  0
 18 34  1  0  0  0  0
 19 21  2  0  0  0  0
 19 39  1  0  0  0  0
 20 22  2  0  0  0  0
 20 40  1  0  0  0  0
 21 48  1  0  0  0  0
 22 41  1  0  0  0  0
 23 25  2  0  0  0  0
 23 51  1  0  0  0  0
 24 31  1  0  0  0  0
 24 57  1  0  0  0  0
 25 69  1  0  0  0  0
 26 79  1  0  0  0  0
 27 80  1  0  0  0  0
 28 30  2  0  0  0  0
 28 79  1  0  0  0  0
 29 81  1  0  0  0  0
 30 82  1  0  0  0  0
 31 83  1  0  0  0  0
 32 63  2  0  0  0  0
 33 64  1  0  0  0  0
 33 67  1  0  0  0  0
 34 68  1  0  0  0  0
 34 74  2  0  0  0  0
 35 49  1  0  0  0  0
 35 70  1  0  0  0  0
 35 75  2  0  0  0  0
 36 60  1  0  0  0  0
 36 65  1  0  0  0  0
 36 76  2  0  0  0  0
 37 61  1  0  0  0  0
 37 71  1  0  0  0  0
 37 77  2  0  0  0  0
 38 66  1  0  0  0  0
 38 72  1  0  0  0  0
 38 78  2  0  0  0  0
 39 42  1  0  0  0  0
 40 49  1  0  0  0  0
 41 65  1  0  0  0  0
 42 44  1  0  0  0  0
 43 45  1  0  0  0  0
 43 46  1  0  0  0  0
 44 48  1  0  0  0  0
 45 50  1  0  0  0  0
 46 66  1  0  0  0  0
 47 50  1  0  0  0  0
 47 66  1  0  0  0  0
 48 70  1  0  0  0  0
 49 65  1  0  0  0  0
 50 64  1  0  0  0  0
 52 61  1  0  0  0  0
 53 62  1  0  0  0  0
 54 62  1  0  0  0  0
 55 62  1  0  0  0  0
 56 73  1  0  0  0  0
 57 72  1  0  0  0  0
 58 59  1  0  0  0  0
 58 69  1  0  0  0  0
 59 80  1  0  0  0  0
 60 62  1  0  0  0  0
 60 71  1  0  0  0  0
 61 73  1  0  0  0  0
 63 64  1  0  0  0  0
M  CHG  1  73   1
M  ISO  4  38 100  59 101  72 100  80 101
M  END
> <Batch ID>
0033

> <Smiles>
CNC(C)C(=O)NC(C(=O)N1Cc2cc([101O:1][101CH2:1]CNc3cc(Cl)c(C[100NH:0][100C:0](=O)N4CCCC(n5nc(-c6ccc(Oc7ccc(F)cc7F)cc6)c(C(N)=O)c5N)C4)cc3C)ccc2CC1C(=O)NC1CCCc2ccccc21)C(C)(C)C

> <Shape>
0.273

> <Color>
0.214

> <Negative vol penalty>
0.000

$$$$

  -OEChem-04042321453D

 83 91  0     1  0  0  0  0  0999 V2000
  -27.3608  -22.8606   18.8671 C   0  0  0  0  0  0  0  0  0  0  0  0
  -26.1717  -23.4088   19.3371 C   0  0  0  0  0  0  0  0  0  0  0  0
  -26.1716  -14.7073   20.8795 C   0  0  0  0  0  0  0  0  0  0  0  0
  -24.0250  -14.3780   19.8208 C   0  0  0  0  0  0  0  0  0  0  0  0
  -28.5784  -23.2727   19.4070 C   0  0  0  0  0  0  0  0  0  0  0  0
  -26.1994  -24.3688   20.3481 C   0  0  0  0  0  0  0  0  0  0  0  0
  -23.1231  -28.2781   19.3999 C   0  0  0  0  0  0  0  0  0  0  0  0
  -17.6619  -23.6569   19.9741 C   0  0  0  0  0  0  0  0  0  0  0  0
  -26.3690  -13.3269   20.9088 C   0  0  0  0  0  0  0  0  0  0  0  0
  -24.2224  -12.9975   19.8500 C   0  0  0  0  0  0  0  0  0  0  0  0
  -21.7613  -28.0867   19.6289 C   0  0  0  0  0  0  0  0  0  0  0  0
  -24.0009   -9.3717   19.9719 C   0  0  0  0  0  0  0  0  0  0  0  0
  -22.9349   -8.5730   20.3857 C   0  0  0  0  0  0  0  0  0  0  0  0
  -17.9365  -22.4107   19.4110 C   0  0  0  0  0  0  0  0  0  0  0  0
  -21.9615  -29.2339   21.7415 C   0  0  0  0  0  0  0  0  0  0  0  0
  -17.7845  -22.6860   22.1830 C   0  0  0  0  0  0  0  0  0  0  0  0
  -22.9248   -9.6950   22.5254 C   0  0  0  0  0  0  0  0  0  0  0  0
  -24.9996  -15.2329   20.3356 C   0  0  0  0  0  0  0  0  0  0  0  0
  -25.1641  -17.5493   19.2795 C   0  0  0  0  0  0  0  0  0  0  0  0
  -28.6217  -24.2453   20.4184 C   0  0  0  0  0  0  0  0  0  0  0  0
  -23.9179  -28.9403   20.3466 C   0  0  0  0  0  0  0  0  0  0  0  0
  -27.4187  -24.7934   20.9029 C   0  0  0  0  0  0  0  0  0  0  0  0
  -23.3327  -29.4346   21.5210 C   0  0  0  0  0  0  0  0  0  0  0  0
  -17.5860  -23.7946   21.3601 C   0  0  0  0  0  0  0  0  0  0  0  0
  -18.0590  -21.4397   21.6200 C   0  0  0  0  0  0  0  0  0  0  0  0
  -25.3944  -12.4719   20.3941 C   0  0  0  0  0  0  0  0  0  0  0  0
  -21.1808  -28.5621   20.8012 C   0  0  0  0  0  0  0  0  0  0  0  0
  -24.5290  -10.3321   20.8348 C   0  0  0  0  0  0  0  0  0  0  0  0
  -22.3968   -8.7347   21.6624 C   0  0  0  0  0  0  0  0  0  0  0  0
  -23.9909  -10.4937   22.1115 C   0  0  0  0  0  0  0  0  0  0  0  0
  -18.1350  -21.3021   20.2339 C   0  0  0  0  0  0  0  0  0  0  0  0
  -24.7948  -16.6589   20.3055 C   0  0  0  0  0  0  0  0  0  0  0  0
  -24.7527  -18.7803   19.7287 C   0  0  0  0  0  0  0  0  0  0  0  0
  -25.8201  -17.2870   18.0319 C   0  0  0  0  0  0  0  0  0  0  0  0
  -26.4282  -28.1373   22.1236 C   0  0  0  0  0  0  0  0  0  0  0  0
  -26.3741  -31.2799   22.9256 C   0  0  0  0  0  0  0  0  0  0  0  0
  -24.5737  -34.1640   23.2212 C   0  0  0  0  0  0  0  0  0  0  0  0
  -20.5057  -20.5046   23.5811 C   0  0  0  0  0  0  0  0  0  0  0  0
  -29.9588  -24.6246   21.0040 C   0  0  0  0  0  0  0  0  0  0  0  0
  -25.3801  -29.1622   20.0724 C   0  0  0  0  0  0  0  0  0  0  0  0
  -24.1381  -30.1700   22.5597 C   0  0  0  0  0  0  0  0  0  0  0  0
  -29.9248  -25.9197   21.8114 C   0  0  0  0  0  0  0  0  0  0  0  0
  -23.9868  -21.2283   23.7675 C   0  0  0  0  0  0  0  0  0  0  0  0
  -28.7291  -25.9271   22.7585 C   0  0  0  0  0  0  0  0  0  0  0  0
  -24.6219  -20.2197   22.8088 C   0  0  0  0  0  0  0  0  0  0  0  0
  -22.7976  -20.6267   24.5131 C   0  0  0  0  0  0  0  0  0  0  0  0
  -22.4000  -19.0165   22.6903 C   0  0  0  0  0  0  0  0  0  0  0  0
  -27.4092  -25.8552   21.9812 C   0  0  1  0  0  0  0  0  0  0  0  0
  -26.1966  -29.3979   21.3394 C   0  0  1  0  0  0  0  0  0  0  0  0
  -23.5688  -19.5945   21.8742 C   0  0  2  0  0  0  0  0  0  0  0  0
  -24.7933  -36.5584   23.9395 C   0  0  0  0  0  0  0  0  0  0  0  0
  -26.3293  -30.4047   25.8482 C   0  0  0  0  0  0  0  0  0  0  0  0
  -25.5997  -32.7207   26.4581 C   0  0  0  0  0  0  0  0  0  0  0  0
  -27.8137  -32.3591   25.3672 C   0  0  0  0  0  0  0  0  0  0  0  0
  -23.8654  -35.1589   20.5254 C   0  0  0  0  0  0  0  0  0  0  0  0
  -18.2662  -20.2770   22.5360 C   0  0  0  0  0  0  0  0  0  0  0  0
  -17.2905  -25.1353   21.9653 C   0  0  0  0  0  0  0  0  0  0  0  0
  -18.1729  -27.4193   22.4586 C   0  0  0  0  0  0  0  0  0  0  0  0
  -19.4351  -28.2558   22.3870 C   0  0  0  0  0  0  0  0  0  1  0  0
  -25.7018  -32.0971   24.0022 C   0  0  1  0  0  0  0  0  0  0  0  0
  -24.8667  -35.5847   22.7737 C   0  0  2  0  0  0  0  0  0  0  0  0
  -26.3461  -31.8799   25.4004 C   0  0  0  0  0  0  0  0  0  0  0  0
  -24.1952  -17.2721   21.3294 N   0  0  0  0  0  0  0  0  0  0  0  0
  -24.1845  -18.5610   20.9491 N   0  0  0  0  0  0  0  0  0  0  0  0
  -25.5650  -30.3564   22.2486 N   0  0  0  0  0  0  0  0  0  0  0  0
  -21.8355  -20.0523   23.5695 N   0  0  0  0  0  0  0  0  0  0  0  0
  -24.8252  -20.0181   19.1950 N   0  0  0  0  0  0  0  0  0  0  0  0
  -26.1737  -15.9653   17.7279 N   0  0  0  0  0  0  0  0  0  0  0  0
  -27.0839  -27.1474   21.4167 N   0  0  0  0  0  0  0  0  0  0  0  0
  -25.7281  -33.4809   23.5406 N   0  0  0  0  0  0  0  0  0  0  0  0
  -19.6608  -19.9125   22.6503 N   0  0  0  0  0  0  0  0  0  0  0  0
  -23.8839  -36.0150   21.7393 N   0  3  0  0  0  0  0  0  0  0  0  0
  -18.4522  -26.0639   21.9209 N   0  3  0  0  0  0  0  0  0  0  0  0
  -26.0997  -18.2000   17.2184 O   0  0  0  0  0  0  0  0  0  0  0  0
  -26.0419  -28.0683   23.2845 O   0  0  0  0  0  0  0  0  0  0  0  0
  -27.5714  -31.4596   22.6889 O   0  0  0  0  0  0  0  0  0  0  0  0
  -23.4345  -33.7072   23.2848 O   0  0  0  0  0  0  0  0  0  0  0  0
  -20.1025  -21.3755   24.3595 O   0  0  0  0  0  0  0  0  0  0  0  0
  -25.5868  -11.1248   20.4223 O   0  0  0  0  0  0  0  0  0  0  0  0
  -19.8519  -28.3762   21.0275 O   0  0  0  0  0  0  0  0  0  1  0  0
  -21.3721   -7.9686   22.0591 F   0  0  0  0  0  0  0  0  0  0  0  0
  -24.4932  -11.4154   22.9446 F   0  0  0  0  0  0  0  0  0  0  0  0
  -18.4729  -19.7759   19.5021 Cl  0  0  0  0  0  0  0  0  0  0  0  0
  1  2  1  0  0  0  0
  1  5  2  0  0  0  0
  2  6  2  0  0  0  0
  3  9  2  0  0  0  0
  3 18  1  0  0  0  0
  4 10  1  0  0  0  0
  4 18  2  0  0  0  0
  5 20  1  0  0  0  0
  6 22  1  0  0  0  0
  7 11  2  0  0  0  0
  7 21  1  0  0  0  0
  8 14  2  0  0  0  0
  8 24  1  0  0  0  0
  9 26  1  0  0  0  0
 10 26  2  0  0  0  0
 11 27  1  0  0  0  0
 12 13  2  0  0  0  0
 12 28  1  0  0  0  0
 13 29  1  0  0  0  0
 14 31  1  0  0  0  0
 15 23  1  0  0  0  0
 15 27  2  0  0  0  0
 16 24  2  0  0  0  0
 16 25  1  0  0  0  0
 17 29  2  0  0  0  0
 17 30  1  0  0  0  0
 18 32  1  0  0  0  0
 19 32  1  0  0  0  0
 19 33  2  0  0  0  0
 19 34  1  0  0  0  0
 20 22  2  0  0  0  0
 20 39  1  0  0  0  0
 21 23  2  0  0  0  0
 21 40  1  0  0  0  0
 22 48  1  0  0  0  0
 23 41  1  0  0  0  0
 24 57  1  0  0  0  0
 25 31  2  0  0  0  0
 25 56  1  0  0  0  0
 26 79  1  0  0  0  0
 27 80  1  0  0  0  0
 28 30  2  0  0  0  0
 28 79  1  0  0  0  0
 29 81  1  0  0  0  0
 30 82  1  0  0  0  0
 31 83  1  0  0  0  0
 32 63  2  0  0  0  0
 33 64  1  0  0  0  0
 33 67  1  0  0  0  0
 34 68  1  0  0  0  0
 34 74  2  0  0  0  0
 35 49  1  0  0  0  0
 35 69  1  0  0  0  0
 35 75  2  0  0  0  0
 36 60  1  0  0  0  0
 36 65  1  0  0  0  0
 36 76  2  0  0  0  0
 37 61  1  0  0  0  0
 37 70  1  0  0  0  0
 37 77  2  0  0  0  0
 38 66  1  0  0  0  0
 38 71  1  0  0  0  0
 38 78  2  0  0  0  0
 39 42  1  0  0  0  0
 40 49  1  0  0  0  0
 41 65  1  0  0  0  0
 42 44  1  0  0  0  0
 43 45  1  0  0  0  0
 43 46  1  0  0  0  0
 44 48  1  0  0  0  0
 45 50  1  0  0  0  0
 46 66  1  0  0  0  0
 47 50  1  0  0  0  0
 47 66  1  0  0  0  0
 48 69  1  0  0  0  0
 49 65  1  0  0  0  0
 50 64  1  0  0  0  0
 51 61  1  0  0  0  0
 52 62  1  0  0  0  0
 53 62  1  0  0  0  0
 54 62  1  0  0  0  0
 55 72  1  0  0  0  0
 56 71  1  0  0  0  0
 57 73  1  0  0  0  0
 58 59  1  0  0  0  0
 58 73  1  0  0  0  0
 59 80  1  0  0  0  0
 60 62  1  0  0  0  0
 60 70  1  0  0  0  0
 61 72  1  0  0  0  0
 63 64  1  0  0  0  0
M  CHG  2  72   1  73   1
M  ISO  4  38 100  59 101  71 100  80 101
M  END
> <Batch ID>
0033

> <Smiles>
CNC(C)C(=O)NC(C(=O)N1Cc2cc([101O:1][101CH2:1]CNCc3ccc(Cl)c(C[100NH:0][100C:0](=O)N4CCCC(n5nc(-c6ccc(Oc7ccc(F)cc7F)cc6)c(C(N)=O)c5N)C4)c3)ccc2CC1C(=O)NC1CCCc2ccccc21)C(C)(C)C

> <Shape>
0.238

> <Color>
0.070

> <Negative vol penalty>
0.000

$$$$

  -OEChem-04042321453D

 87 96  0     1  0  0  0  0  0999 V2000
  -26.5707  -35.2087   23.6486 C   0  0  0  0  0  0  0  0  0  0  0  0
  -27.0323  -33.9433   23.3007 C   0  0  0  0  0  0  0  0  0  0  0  0
  -27.8338  -13.0397   19.4694 C   0  0  0  0  0  0  0  0  0  0  0  0
  -27.4558  -12.6374   21.8215 C   0  0  0  0  0  0  0  0  0  0  0  0
  -25.3190  -35.3531   24.2455 C   0  0  0  0  0  0  0  0  0  0  0  0
  -26.2429  -32.8213   23.5505 C   0  0  0  0  0  0  0  0  0  0  0  0
  -26.1170  -29.6218   19.6272 C   0  0  0  0  0  0  0  0  0  0  0  0
  -25.2842  -21.1748   16.1779 C   0  0  0  0  0  0  0  0  0  0  0  0
  -29.0537  -12.3684   19.5506 C   0  0  0  0  0  0  0  0  0  0  0  0
  -28.6758  -11.9660   21.9027 C   0  0  0  0  0  0  0  0  0  0  0  0
  -27.2237  -28.7936   19.4453 C   0  0  0  0  0  0  0  0  0  0  0  0
  -30.1334   -9.1653   19.6363 C   0  0  0  0  0  0  0  0  0  0  0  0
  -30.4352   -8.2456   18.6320 C   0  0  0  0  0  0  0  0  0  0  0  0
  -25.9030  -22.0640   15.2993 C   0  0  0  0  0  0  0  0  0  0  0  0
  -26.0284  -26.9770   20.4895 C   0  0  0  0  0  0  0  0  0  0  0  0
  -32.4017   -9.5240   18.0525 C   0  0  0  0  0  0  0  0  0  0  0  0
  -27.0348  -13.1743   20.6049 C   0  0  0  0  0  0  0  0  0  0  0  0
  -24.5161  -13.3121   20.2246 C   0  0  0  0  0  0  0  0  0  0  0  0
  -24.5097  -34.2332   24.4940 C   0  0  0  0  0  0  0  0  0  0  0  0
  -24.9597  -29.1360   20.2526 C   0  0  0  0  0  0  0  0  0  0  0  0
  -24.9797  -32.9507   24.1525 C   0  0  0  0  0  0  0  0  0  0  0  0
  -24.9075  -27.8003   20.6759 C   0  0  0  0  0  0  0  0  0  0  0  0
  -27.1052  -21.4523   17.7413 C   0  0  0  0  0  0  0  0  0  0  0  0
  -27.7240  -22.3415   16.8626 C   0  0  0  0  0  0  0  0  0  0  0  0
  -25.8852  -20.8690   17.3990 C   0  0  0  0  0  0  0  0  0  0  0  0
  -29.4747  -11.8315   20.7672 C   0  0  0  0  0  0  0  0  0  0  0  0
  -27.1806  -27.4718   19.8790 C   0  0  0  0  0  0  0  0  0  0  0  0
  -30.9656  -10.2644   19.8487 C   0  0  0  0  0  0  0  0  0  0  0  0
  -31.5694   -8.4250   17.8401 C   0  0  0  0  0  0  0  0  0  0  0  0
  -32.0998  -10.4437   19.0568 C   0  0  0  0  0  0  0  0  0  0  0  0
  -27.1229  -22.6473   15.6416 C   0  0  0  0  0  0  0  0  0  0  0  0
  -25.7747  -13.8682   20.5218 C   0  0  0  0  0  0  0  0  0  0  0  0
  -23.6508  -14.3779   20.2688 C   0  0  0  0  0  0  0  0  0  0  0  0
  -30.1563  -24.6553   18.6027 C   0  0  0  0  0  0  0  0  0  0  0  0
  -31.1018  -23.9708   19.2573 C   0  0  0  0  0  0  0  0  0  0  0  0
  -24.1607  -11.9537   19.9347 C   0  0  0  0  0  0  0  0  0  0  0  0
  -23.3638  -29.8725   22.9011 C   0  0  0  0  0  0  0  0  0  0  0  0
  -21.2408  -27.7018   21.7595 C   0  0  0  0  0  0  0  0  0  0  0  0
  -21.3809  -24.4692   20.1632 C   0  0  0  0  0  0  0  0  0  0  0  0
  -24.8362  -20.3367   19.5924 C   0  0  0  0  0  0  0  0  0  0  0  0
  -23.1840  -34.4345   25.1844 C   0  0  0  0  0  0  0  0  0  0  0  0
  -23.7647  -30.0345   20.4174 C   0  0  0  0  0  0  0  0  0  0  0  0
  -23.6815  -27.2245   21.3347 C   0  0  0  0  0  0  0  0  0  0  0  0
  -30.1825  -26.1264   18.3277 C   0  0  0  0  0  0  0  0  0  0  0  0
  -22.2506  -33.2317   25.0733 C   0  0  0  0  0  0  0  0  0  0  0  0
  -23.0470  -18.6424   22.3381 C   0  0  0  0  0  0  0  0  0  0  0  0
  -23.0027  -31.9417   25.3850 C   0  0  0  0  0  0  0  0  0  0  0  0
  -23.4937  -17.1890   22.1897 C   0  0  0  0  0  0  0  0  0  0  0  0
  -24.1156  -19.6164   21.8504 C   0  0  0  0  0  0  0  0  0  0  0  0
  -25.0168  -17.9049   20.3048 C   0  0  0  0  0  0  0  0  0  0  0  0
  -28.0212  -25.1989   17.8084 C   0  0  0  0  0  0  0  0  0  0  0  0
  -24.1421  -31.7119   24.3848 C   0  0  1  0  0  0  0  0  0  0  0  0
  -22.8244  -29.5803   21.5295 C   0  0  1  0  0  0  0  0  0  0  0  0
  -23.9445  -16.8980   20.7478 C   0  0  1  0  0  0  0  0  0  0  0  0
  -28.6959  -26.4444   18.3655 C   0  0  1  0  0  0  0  0  0  1  0  0
  -27.7501  -21.1247   19.0520 C   0  0  0  0  0  0  0  0  0  0  0  0
  -19.7675  -23.3500   18.6006 C   0  0  0  0  0  0  0  0  0  0  0  0
  -20.1160  -26.4304   24.2949 C   0  0  0  0  0  0  0  0  0  0  0  0
  -19.7886  -24.3108   23.0033 C   0  0  0  0  0  0  0  0  0  0  0  0
  -18.5708  -26.3808   22.3291 C   0  0  0  0  0  0  0  0  0  0  0  0
  -24.7474  -18.6698   17.7531 C   0  0  0  0  0  0  0  0  0  0  0  0
  -23.4740  -24.0566   18.1120 C   0  0  0  0  0  0  0  0  0  0  0  0
  -29.0362  -22.9609   17.2439 C   0  0  0  0  0  0  0  0  0  0  0  0
  -21.0566  -26.2101   21.9006 C   0  0  1  0  0  0  0  0  0  0  0  0
  -21.0521  -24.1559   18.7147 C   0  0  2  0  0  0  0  0  0  0  0  0
  -19.9087  -25.8451   22.8837 C   0  0  0  0  0  0  0  0  0  0  0  0
  -25.7186  -15.1849   20.7386 N   0  0  0  0  0  0  0  0  0  0  0  0
  -24.4141  -15.4652   20.5774 N   0  0  0  0  0  0  0  0  0  0  0  0
  -22.5412  -28.1445   21.4789 N   0  0  0  0  0  0  0  0  0  0  0  0
  -24.5592  -19.2900   20.4946 N   0  0  0  0  0  0  0  0  0  0  0  0
  -22.3191  -14.4817   20.0733 N   0  0  0  0  0  0  0  0  0  0  0  0
  -25.1732  -10.9845   19.9308 N   0  0  0  0  0  0  0  0  0  0  0  0
  -23.6208  -31.2105   23.1313 N   0  0  0  0  0  0  0  0  0  0  0  0
  -20.8734  -25.6917   20.5492 N   0  0  0  0  0  0  0  0  0  0  0  0
  -25.2267  -19.9463   18.2932 N   0  0  0  0  0  0  0  0  0  0  0  0
  -28.8986  -24.0402   18.2752 N   0  3  1  0  0  0  0  0  0  0  0  0
  -22.1556  -23.3723   18.0908 N   0  3  0  0  0  0  0  0  0  0  0  0
  -22.9830  -11.6123   19.6702 O   0  0  0  0  0  0  0  0  0  0  0  0
  -23.5328  -28.9523   23.6925 O   0  0  0  0  0  0  0  0  0  0  0  0
  -20.2654  -28.4462   21.8862 O   0  0  0  0  0  0  0  0  0  0  0  0
  -22.0204  -23.7040   20.8816 O   0  0  0  0  0  0  0  0  0  0  0  0
  -24.7148  -21.5247   19.9143 O   0  0  0  0  0  0  0  0  0  0  0  0
  -30.6650  -11.1761   20.8467 O   0  0  0  0  0  0  0  0  0  0  0  0
  -28.2597  -26.6615   19.7032 O   0  0  0  0  0  0  0  0  0  1  0  0
  -31.8601   -7.5409   16.8767 F   0  0  0  0  0  0  0  0  0  0  0  0
  -32.9038  -11.4970   19.2569 F   0  0  0  0  0  0  0  0  0  0  0  0
  -27.8561  -23.7406   14.5244 Cl  0  0  0  0  0  0  0  0  0  0  0  0
  1  2  1  0  0  0  0
  1  5  2  0  0  0  0
  2  6  2  0  0  0  0
  3  9  2  0  0  0  0
  3 17  1  0  0  0  0
  4 10  1  0  0  0  0
  4 17  2  0  0  0  0
  5 19  1  0  0  0  0
  6 21  1  0  0  0  0
  7 11  2  0  0  0  0
  7 20  1  0  0  0  0
  8 14  1  0  0  0  0
  8 25  2  0  0  0  0
  9 26  1  0  0  0  0
 10 26  2  0  0  0  0
 11 27  1  0  0  0  0
 12 13  2  0  0  0  0
 12 28  1  0  0  0  0
 13 29  1  0  0  0  0
 14 31  2  0  0  0  0
 15 22  1  0  0  0  0
 15 27  2  0  0  0  0
 16 29  2  0  0  0  0
 16 30  1  0  0  0  0
 17 32  1  0  0  0  0
 18 32  1  0  0  0  0
 18 33  2  0  0  0  0
 18 36  1  0  0  0  0
 19 21  2  0  0  0  0
 19 41  1  0  0  0  0
 20 22  2  0  0  0  0
 20 42  1  0  0  0  0
 21 52  1  0  0  0  0
 22 43  1  0  0  0  0
 23 24  2  0  0  0  0
 23 25  1  0  0  0  0
 23 56  1  0  0  0  0
 24 31  1  0  0  0  0
 24 63  1  0  0  0  0
 25 75  1  0  0  0  0
 26 83  1  0  0  0  0
 27 84  1  0  0  0  0
 28 30  2  0  0  0  0
 28 83  1  0  0  0  0
 29 85  1  0  0  0  0
 30 86  1  0  0  0  0
 31 87  1  0  0  0  0
 32 67  2  0  0  0  0
 33 68  1  0  0  0  0
 33 71  1  0  0  0  0
 34 35  2  0  0  0  0
 34 44  1  0  0  0  0
 34 76  1  0  0  0  0
 36 72  1  0  0  0  0
 36 78  2  0  0  0  0
 37 53  1  0  0  0  0
 37 73  1  0  0  0  0
 37 79  2  0  0  0  0
 38 64  1  0  0  0  0
 38 69  1  0  0  0  0
 38 80  2  0  0  0  0
 39 65  1  0  0  0  0
 39 74  1  0  0  0  0
 39 81  2  0  0  0  0
 40 70  1  0  0  0  0
 40 75  1  0  0  0  0
 40 82  2  0  0  0  0
 41 45  1  0  0  0  0
 42 53  1  0  0  0  0
 43 69  1  0  0  0  0
 44 55  1  0  0  0  0
 45 47  1  0  0  0  0
 46 48  1  0  0  0  0
 46 49  1  0  0  0  0
 47 52  1  0  0  0  0
 48 54  1  0  0  0  0
 49 70  1  0  0  0  0
 50 54  1  0  0  0  0
 50 70  1  0  0  0  0
 51 55  1  0  0  0  0
 51 76  1  0  0  0  0
 52 73  1  0  0  0  0
 53 69  1  0  0  0  0
 54 68  1  0  0  0  0
 55 84  1  0  0  0  0
 57 65  1  0  0  0  0
 58 66  1  0  0  0  0
 59 66  1  0  0  0  0
 60 66  1  0  0  0  0
 61 75  1  0  0  0  0
 62 77  1  0  0  0  0
 63 76  1  0  0  0  0
 64 66  1  0  0  0  0
 64 74  1  0  0  0  0
 65 77  1  0  0  0  0
 67 68  1  0  0  0  0
M  CHG  2  76   1  77   1
M  ISO  4  40 100  55 101  75 100  84 101
M  END
> <Batch ID>
0033

> <Smiles>
C=C1C[101CH:1]([101O:1]c2ccc3c(c2)CN(C(=O)C(NC(=O)C(C)NC)C(C)(C)C)C(C(=O)NC2CCCc4ccccc42)C3)CN1Cc1c(Cl)ccc([100N:0](C)[100C:0](=O)N2CCCC(n3nc(-c4ccc(Oc5ccc(F)cc5F)cc4)c(C(N)=O)c3N)C2)c1C

> <Shape>
0.254

> <Color>
0.087

> <Negative vol penalty>
0.000

$$$$

  -OEChem-04042321453D

 86 95  0     1  0  0  0  0  0999 V2000
  -27.7132  -24.2067   17.2897 C   0  0  0  0  0  0  0  0  0  0  0  0
  -26.5440  -24.5075   17.9811 C   0  0  0  0  0  0  0  0  0  0  0  0
  -26.3622  -14.4782   19.8438 C   0  0  0  0  0  0  0  0  0  0  0  0
  -24.1865  -14.1894   20.8537 C   0  0  0  0  0  0  0  0  0  0  0  0
  -28.9373  -24.6912   17.7487 C   0  0  0  0  0  0  0  0  0  0  0  0
  -26.5984  -25.2922   19.1325 C   0  0  0  0  0  0  0  0  0  0  0  0
  -22.9922  -28.8460   19.2338 C   0  0  0  0  0  0  0  0  0  0  0  0
  -26.5860  -13.1043   19.9330 C   0  0  0  0  0  0  0  0  0  0  0  0
  -24.4102  -12.8155   20.9429 C   0  0  0  0  0  0  0  0  0  0  0  0
  -21.7053  -28.4376   19.5817 C   0  0  0  0  0  0  0  0  0  0  0  0
  -25.6761  -10.3178   18.2477 C   0  0  0  0  0  0  0  0  0  0  0  0
  -26.2117   -9.6745   17.1320 C   0  0  0  0  0  0  0  0  0  0  0  0
  -22.0580  -29.2566   21.8232 C   0  0  0  0  0  0  0  0  0  0  0  0
  -20.6198  -24.2298   25.1326 C   0  0  0  0  0  0  0  0  0  0  0  0
  -28.1178   -8.9829   18.4457 C   0  0  0  0  0  0  0  0  0  0  0  0
  -25.1625  -15.0208   20.3042 C   0  0  0  0  0  0  0  0  0  0  0  0
  -24.3411  -17.1379   19.1421 C   0  0  0  0  0  0  0  0  0  0  0  0
  -29.0057  -25.4903   18.9008 C   0  0  0  0  0  0  0  0  0  0  0  0
  -23.8269  -29.4540   20.1825 C   0  0  0  0  0  0  0  0  0  0  0  0
  -27.8248  -25.7868   19.6080 C   0  0  0  0  0  0  0  0  0  0  0  0
  -23.3540  -29.6741   21.4841 C   0  0  0  0  0  0  0  0  0  0  0  0
  -19.6367  -23.8327   24.2263 C   0  0  0  0  0  0  0  0  0  0  0  0
  -19.4945  -22.4845   23.8979 C   0  0  0  0  0  0  0  0  0  0  0  0
  -20.3355  -21.5334   24.4758 C   0  0  0  0  0  0  0  0  0  0  0  0
  -21.3187  -21.9306   25.3820 C   0  0  0  0  0  0  0  0  0  0  0  0
  -25.6100  -12.2730   20.4825 C   0  0  0  0  0  0  0  0  0  0  0  0
  -21.2391  -28.6402   20.8773 C   0  0  0  0  0  0  0  0  0  0  0  0
  -26.3614  -10.2937   19.4625 C   0  0  0  0  0  0  0  0  0  0  0  0
  -27.4325   -9.0070   17.2310 C   0  0  0  0  0  0  0  0  0  0  0  0
  -27.5822   -9.6263   19.5614 C   0  0  0  0  0  0  0  0  0  0  0  0
  -21.4609  -23.2788   25.7104 C   0  0  0  0  0  0  0  0  0  0  0  0
  -24.9310  -16.4400   20.2129 C   0  0  0  0  0  0  0  0  0  0  0  0
  -24.3512  -18.4520   19.5416 C   0  0  0  0  0  0  0  0  0  0  0  0
  -23.8297  -16.6427   17.8975 C   0  0  0  0  0  0  0  0  0  0  0  0
  -26.6314  -28.7322   21.4930 C   0  0  0  0  0  0  0  0  0  0  0  0
  -26.3255  -31.6736   22.8259 C   0  0  0  0  0  0  0  0  0  0  0  0
  -24.2621  -34.2036   23.8201 C   0  0  0  0  0  0  0  0  0  0  0  0
  -24.4456  -21.0772   24.9221 C   0  0  0  0  0  0  0  0  0  0  0  0
  -30.3574  -25.9518   19.3850 C   0  0  0  0  0  0  0  0  0  0  0  0
  -25.2027  -29.9130   19.7841 C   0  0  0  0  0  0  0  0  0  0  0  0
  -24.2034  -30.3407   22.5342 C   0  0  0  0  0  0  0  0  0  0  0  0
  -30.2848  -27.0877   20.4022 C   0  0  0  0  0  0  0  0  0  0  0  0
  -26.7990  -21.5126   22.2860 C   0  0  0  0  0  0  0  0  0  0  0  0
  -29.2364  -26.7840   21.4677 C   0  0  0  0  0  0  0  0  0  0  0  0
  -26.5339  -20.3249   21.3592 C   0  0  0  0  0  0  0  0  0  0  0  0
  -26.6300  -21.1308   23.7550 C   0  0  0  0  0  0  0  0  0  0  0  0
  -25.0717  -19.3164   23.1603 C   0  0  0  0  0  0  0  0  0  0  0  0
  -18.3618  -26.3658   21.7167 C   0  0  0  0  0  0  0  0  0  0  0  0
  -20.3628  -25.9050   22.0988 C   0  0  0  0  0  0  0  0  0  0  0  0
  -27.8401  -26.6555   20.8470 C   0  0  1  0  0  0  0  0  0  0  0  0
  -26.1515  -30.0565   20.9701 C   0  0  1  0  0  0  0  0  0  0  0  0
  -25.1753  -19.6665   21.6660 C   0  0  2  0  0  0  0  0  0  0  0  0
  -19.6823  -26.8435   21.0869 C   0  0  0  0  0  0  0  0  0  1  0  0
  -18.4391  -22.0618   22.9253 C   0  0  0  0  0  0  0  0  0  0  0  0
  -20.1813  -20.0874   24.1226 C   0  0  0  0  0  0  0  0  0  0  0  0
  -24.3002  -36.4634   24.9105 C   0  0  0  0  0  0  0  0  0  0  0  0
  -26.7803  -30.3540   25.5392 C   0  0  0  0  0  0  0  0  0  0  0  0
  -25.8788  -32.4249   26.6194 C   0  0  0  0  0  0  0  0  0  0  0  0
  -27.9503  -32.5433   25.2347 C   0  0  0  0  0  0  0  0  0  0  0  0
  -23.0833  -35.5022   21.4361 C   0  0  0  0  0  0  0  0  0  0  0  0
  -22.2147  -20.8988   25.9947 C   0  0  0  0  0  0  0  0  0  0  0  0
  -18.7450  -24.8753   23.6190 C   0  0  0  0  0  0  0  0  0  0  0  0
  -25.7165  -32.2131   24.0975 C   0  0  1  0  0  0  0  0  0  0  0  0
  -24.3258  -35.7033   23.5936 C   0  0  2  0  0  0  0  0  0  0  0  0
  -26.5659  -31.8695   25.3537 C   0  0  0  0  0  0  0  0  0  0  0  0
  -25.2898  -17.2441   21.2172 N   0  0  0  0  0  0  0  0  0  0  0  0
  -24.9245  -18.4609   20.7791 N   0  0  0  0  0  0  0  0  0  0  0  0
  -25.5436  -30.7659   22.0976 N   0  0  0  0  0  0  0  0  0  0  0  0
  -25.3206  -20.5133   23.9790 N   0  0  0  0  0  0  0  0  0  0  0  0
  -23.9256  -19.5891   18.9515 N   0  0  0  0  0  0  0  0  0  0  0  0
  -23.8975  -15.2652   17.6481 N   0  0  0  0  0  0  0  0  0  0  0  0
  -27.2943  -27.9637   20.5553 N   0  0  0  0  0  0  0  0  0  0  0  0
  -25.5201  -33.6425   23.8817 N   0  0  0  0  0  0  0  0  0  0  0  0
  -23.2227  -20.4338   25.0682 N   0  0  0  0  0  0  0  0  0  0  0  0
  -19.0840  -25.1793   22.2115 N   0  3  0  0  0  0  0  0  0  0  0  0
  -23.1683  -36.1523   22.7692 N   0  3  0  0  0  0  0  0  0  0  0  0
  -23.3423  -17.4012   17.0254 O   0  0  0  0  0  0  0  0  0  0  0  0
  -26.4173  -28.4305   22.6613 O   0  0  0  0  0  0  0  0  0  0  0  0
  -27.4506  -32.0494   22.4874 O   0  0  0  0  0  0  0  0  0  0  0  0
  -23.2024  -33.5917   23.9348 O   0  0  0  0  0  0  0  0  0  0  0  0
  -24.7309  -22.0829   25.5811 O   0  0  0  0  0  0  0  0  0  0  0  0
  -25.8279  -10.9322   20.5694 O   0  0  0  0  0  0  0  0  0  0  0  0
  -19.9837  -28.2419   21.2198 O   0  0  0  0  0  0  0  0  0  1  0  0
  -27.9460   -8.3880   16.1598 F   0  0  0  0  0  0  0  0  0  0  0  0
  -28.2445   -9.5987   20.7261 F   0  0  0  0  0  0  0  0  0  0  0  0
  -22.6645  -23.8114   26.8281 Cl  0  0  0  0  0  0  0  0  0  0  0  0
  1  2  1  0  0  0  0
  1  5  2  0  0  0  0
  2  6  2  0  0  0  0
  3  8  2  0  0  0  0
  3 16  1  0  0  0  0
  4  9  1  0  0  0  0
  4 16  2  0  0  0  0
  5 18  1  0  0  0  0
  6 20  1  0  0  0  0
  7 10  2  0  0  0  0
  7 19  1  0  0  0  0
  8 26  1  0  0  0  0
  9 26  2  0  0  0  0
 10 27  1  0  0  0  0
 11 12  2  0  0  0  0
 11 28  1  0  0  0  0
 12 29  1  0  0  0  0
 13 21  1  0  0  0  0
 13 27  2  0  0  0  0
 14 22  1  0  0  0  0
 14 31  2  0  0  0  0
 15 29  2  0  0  0  0
 15 30  1  0  0  0  0
 16 32  1  0  0  0  0
 17 32  1  0  0  0  0
 17 33  2  0  0  0  0
 17 34  1  0  0  0  0
 18 20  2  0  0  0  0
 18 39  1  0  0  0  0
 19 21  2  0  0  0  0
 19 40  1  0  0  0  0
 20 50  1  0  0  0  0
 21 41  1  0  0  0  0
 22 23  2  0  0  0  0
 22 62  1  0  0  0  0
 23 24  1  0  0  0  0
 23 54  1  0  0  0  0
 24 25  2  0  0  0  0
 24 55  1  0  0  0  0
 25 31  1  0  0  0  0
 25 61  1  0  0  0  0
 26 82  1  0  0  0  0
 27 83  1  0  0  0  0
 28 30  2  0  0  0  0
 28 82  1  0  0  0  0
 29 84  1  0  0  0  0
 30 85  1  0  0  0  0
 31 86  1  0  0  0  0
 32 66  2  0  0  0  0
 33 67  1  0  0  0  0
 33 70  1  0  0  0  0
 34 71  1  0  0  0  0
 34 77  2  0  0  0  0
 35 51  1  0  0  0  0
 35 72  1  0  0  0  0
 35 78  2  0  0  0  0
 36 63  1  0  0  0  0
 36 68  1  0  0  0  0
 36 79  2  0  0  0  0
 37 64  1  0  0  0  0
 37 73  1  0  0  0  0
 37 80  2  0  0  0  0
 38 69  1  0  0  0  0
 38 74  1  0  0  0  0
 38 81  2  0  0  0  0
 39 42  1  0  0  0  0
 40 51  1  0  0  0  0
 41 68  1  0  0  0  0
 42 44  1  0  0  0  0
 43 45  1  0  0  0  0
 43 46  1  0  0  0  0
 44 50  1  0  0  0  0
 45 52  1  0  0  0  0
 46 69  1  0  0  0  0
 47 52  1  0  0  0  0
 47 69  1  0  0  0  0
 48 53  1  0  0  0  0
 48 75  1  0  0  0  0
 49 53  1  0  0  0  0
 49 75  1  0  0  0  0
 50 72  1  0  0  0  0
 51 68  1  0  0  0  0
 52 67  1  0  0  0  0
 53 83  1  0  0  0  0
 56 64  1  0  0  0  0
 57 65  1  0  0  0  0
 58 65  1  0  0  0  0
 59 65  1  0  0  0  0
 60 76  1  0  0  0  0
 61 74  1  0  0  0  0
 62 75  1  0  0  0  0
 63 65  1  0  0  0  0
 63 73  1  0  0  0  0
 64 76  1  0  0  0  0
 66 67  1  0  0  0  0
M  CHG  2  75   1  76   1
M  ISO  4  38 100  53 101  74 100  83 101
M  END
> <Batch ID>
0033

> <Smiles>
CNC(C)C(=O)NC(C(=O)N1Cc2cc([101O:1][101CH:1]3CN(Cc4cc(Cl)c(C[100NH:0][100C:0](=O)N5CCCC(n6nc(-c7ccc(Oc8ccc(F)cc8F)cc7)c(C(N)=O)c6N)C5)c(C)c4C)C3)ccc2CC1C(=O)NC1CCCc2ccccc21)C(C)(C)C

> <Shape>
0.246

> <Color>
0.068

> <Negative vol penalty>
0.000

$$$$

  -OEChem-04042321453D

 87 96  0     1  0  0  0  0  0999 V2000
  -35.1451  -26.4663   11.3856 C   0  0  0  0  0  0  0  0  0  0  0  0
  -35.7183  -25.6322   12.3401 C   0  0  0  0  0  0  0  0  0  0  0  0
  -23.0696   -9.8648   19.9394 C   0  0  0  0  0  0  0  0  0  0  0  0
  -23.8335   -9.8647   22.2314 C   0  0  0  0  0  0  0  0  0  0  0  0
  -34.0976  -27.3147   11.7417 C   0  0  0  0  0  0  0  0  0  0  0  0
  -35.2450  -25.6468   13.6517 C   0  0  0  0  0  0  0  0  0  0  0  0
  -34.8747  -20.8853   17.4853 C   0  0  0  0  0  0  0  0  0  0  0  0
  -22.3245   -8.7121   20.1877 C   0  0  0  0  0  0  0  0  0  0  0  0
  -23.0884   -8.7120   22.4797 C   0  0  0  0  0  0  0  0  0  0  0  0
  -35.7013  -20.4468   18.5189 C   0  0  0  0  0  0  0  0  0  0  0  0
  -19.8601   -7.9173   23.0859 C   0  0  0  0  0  0  0  0  0  0  0  0
  -19.1052   -7.8755   24.2580 C   0  0  0  0  0  0  0  0  0  0  0  0
  -34.3118  -21.6061   20.1140 C   0  0  0  0  0  0  0  0  0  0  0  0
  -32.0740  -16.5577   22.5224 C   0  0  0  0  0  0  0  0  0  0  0  0
  -20.3450   -5.9343   24.9873 C   0  0  0  0  0  0  0  0  0  0  0  0
  -23.8242  -10.4411   20.9613 C   0  0  0  0  0  0  0  0  0  0  0  0
  -24.1695  -12.9660   20.8472 C   0  0  0  0  0  0  0  0  0  0  0  0
  -33.6048  -27.3328   13.0561 C   0  0  0  0  0  0  0  0  0  0  0  0
  -33.7648  -21.6980   17.7577 C   0  0  0  0  0  0  0  0  0  0  0  0
  -34.1909  -26.4973   14.0261 C   0  0  0  0  0  0  0  0  0  0  0  0
  -33.4712  -22.0516   19.0824 C   0  0  0  0  0  0  0  0  0  0  0  0
  -32.6998  -17.4235   23.4193 C   0  0  0  0  0  0  0  0  0  0  0  0
  -31.9367  -18.3024   24.1880 C   0  0  0  0  0  0  0  0  0  0  0  0
  -30.5478  -18.3155   24.0597 C   0  0  0  0  0  0  0  0  0  0  0  0
  -30.6851  -16.5709   22.3941 C   0  0  0  0  0  0  0  0  0  0  0  0
  -22.3338   -8.1357   21.4578 C   0  0  0  0  0  0  0  0  0  0  0  0
  -35.4215  -20.8095   19.8331 C   0  0  0  0  0  0  0  0  0  0  0  0
  -20.8575   -6.9677   22.8644 C   0  0  0  0  0  0  0  0  0  0  0  0
  -19.3476   -6.8840   25.2087 C   0  0  0  0  0  0  0  0  0  0  0  0
  -21.0999   -5.9762   23.8151 C   0  0  0  0  0  0  0  0  0  0  0  0
  -29.9220  -17.4497   23.1628 C   0  0  0  0  0  0  0  0  0  0  0  0
  -24.5946  -11.6315   20.7053 C   0  0  0  0  0  0  0  0  0  0  0  0
  -25.2621  -13.7148   20.4839 C   0  0  0  0  0  0  0  0  0  0  0  0
  -36.2131  -18.7521   23.3281 C   0  0  0  0  0  0  0  0  0  0  0  0
  -36.4608  -19.1564   24.5796 C   0  0  0  0  0  0  0  0  0  0  0  0
  -22.9005  -13.4826   21.2697 C   0  0  0  0  0  0  0  0  0  0  0  0
  -32.8871  -24.6426   16.9438 C   0  0  0  0  0  0  0  0  0  0  0  0
  -30.1393  -23.8238   18.4609 C   0  0  0  0  0  0  0  0  0  0  0  0
  -28.5829  -21.8565   20.7748 C   0  0  0  0  0  0  0  0  0  0  0  0
  -30.7301  -14.7520   20.6517 C   0  0  0  0  0  0  0  0  0  0  0  0
  -32.5023  -28.3011   13.4048 C   0  0  0  0  0  0  0  0  0  0  0  0
  -32.8677  -22.1407   16.6344 C   0  0  0  0  0  0  0  0  0  0  0  0
  -32.2802  -22.9055   19.4299 C   0  0  0  0  0  0  0  0  0  0  0  0
  -37.2245  -18.6618   22.2284 C   0  0  0  0  0  0  0  0  0  0  0  0
  -31.8100  -27.9851   14.7280 C   0  0  0  0  0  0  0  0  0  0  0  0
  -29.6080  -12.3460   18.2791 C   0  0  0  0  0  0  0  0  0  0  0  0
  -32.8410  -27.6926   15.8135 C   0  0  0  0  0  0  0  0  0  0  0  0
  -28.1687  -12.0554   18.7105 C   0  0  0  0  0  0  0  0  0  0  0  0
  -30.5256  -12.5703   19.4798 C   0  0  0  0  0  0  0  0  0  0  0  0
  -28.6221  -13.2940   20.8663 C   0  0  0  0  0  0  0  0  0  0  0  0
  -34.9943  -18.3840   21.3624 C   0  0  0  0  0  0  0  0  0  0  0  0
  -33.6887  -26.4665   15.4533 C   0  0  1  0  0  0  0  0  0  0  0  0
  -32.0589  -23.3893   16.9723 C   0  0  1  0  0  0  0  0  0  0  0  0
  -27.6470  -13.1252   19.6897 C   0  0  2  0  0  0  0  0  0  0  0  0
  -36.3543  -18.9766   21.0216 C   0  0  1  0  0  0  0  0  0  1  0  0
  -32.6126  -19.2312   25.1470 C   0  0  0  0  0  0  0  0  0  0  0  0
  -29.7468  -19.2680   24.8929 C   0  0  0  0  0  0  0  0  0  0  0  0
  -26.6926  -20.8620   22.0920 C   0  0  0  0  0  0  0  0  0  0  0  0
  -30.4625  -26.3491   20.1428 C   0  0  0  0  0  0  0  0  0  0  0  0
  -28.7888  -25.4090   21.7500 C   0  0  0  0  0  0  0  0  0  0  0  0
  -28.1215  -25.8866   19.3943 C   0  0  0  0  0  0  0  0  0  0  0  0
  -28.1407  -19.7354   18.7588 C   0  0  0  0  0  0  0  0  0  0  0  0
  -34.1951  -17.3898   23.5374 C   0  0  0  0  0  0  0  0  0  0  0  0
  -29.6324  -23.9185   19.8798 C   0  0  1  0  0  0  0  0  0  0  0  0
  -27.2995  -21.0483   20.7101 C   0  0  2  0  0  0  0  0  0  0  0  0
  -29.2749  -25.3763   20.2853 C   0  0  0  0  0  0  0  0  0  0  0  0
  -25.8585  -11.5349   20.2845 N   0  0  0  0  0  0  0  0  0  0  0  0
  -26.2371  -12.8182   20.1588 N   0  0  0  0  0  0  0  0  0  0  0  0
  -31.4368  -23.3186   18.2961 N   0  0  0  0  0  0  0  0  0  0  0  0
  -29.9697  -13.5997   20.3608 N   0  0  0  0  0  0  0  0  0  0  0  0
  -25.4743  -15.0462   20.4140 N   0  0  0  0  0  0  0  0  0  0  0  0
  -21.8879  -12.5740   21.6064 N   0  0  0  0  0  0  0  0  0  0  0  0
  -30.0856  -15.6758   21.4736 N   0  0  0  0  0  0  0  0  0  0  0  0
  -32.9478  -25.2487   15.7035 N   0  0  0  0  0  0  0  0  0  0  0  0
  -28.5193  -22.9807   19.9789 N   0  0  0  0  0  0  0  0  0  0  0  0
  -34.8632  -18.5562   22.8735 N   0  3  1  0  0  0  0  0  0  0  0  0
  -27.5638  -19.7023   20.1274 N   0  3  0  0  0  0  0  0  0  0  0  0
  -22.6662  -14.7134   21.3306 O   0  0  0  0  0  0  0  0  0  0  0  0
  -33.4296  -25.0319   17.9714 O   0  0  0  0  0  0  0  0  0  0  0  0
  -29.4083  -24.1781   17.5327 O   0  0  0  0  0  0  0  0  0  0  0  0
  -29.5442  -21.5257   21.4655 O   0  0  0  0  0  0  0  0  0  0  0  0
  -31.8586  -14.9203   20.1825 O   0  0  0  0  0  0  0  0  0  0  0  0
  -21.6067   -7.0110   21.7005 O   0  0  0  0  0  0  0  0  0  0  0  0
  -36.2271  -20.3834   20.8437 O   0  0  0  0  0  0  0  0  0  1  0  0
  -18.6236   -6.8449   26.3350 F   0  0  0  0  0  0  0  0  0  0  0  0
  -22.0576   -5.0618   23.6084 F   0  0  0  0  0  0  0  0  0  0  0  0
  -28.1948  -17.4664   23.0055 Cl  0  0  0  0  0  0  0  0  0  0  0  0
  1  2  1  0  0  0  0
  1  5  2  0  0  0  0
  2  6  2  0  0  0  0
  3  8  2  0  0  0  0
  3 16  1  0  0  0  0
  4  9  1  0  0  0  0
  4 16  2  0  0  0  0
  5 18  1  0  0  0  0
  6 20  1  0  0  0  0
  7 10  2  0  0  0  0
  7 19  1  0  0  0  0
  8 26  1  0  0  0  0
  9 26  2  0  0  0  0
 10 27  1  0  0  0  0
 11 12  2  0  0  0  0
 11 28  1  0  0  0  0
 12 29  1  0  0  0  0
 13 21  1  0  0  0  0
 13 27  2  0  0  0  0
 14 22  1  0  0  0  0
 14 25  2  0  0  0  0
 15 29  2  0  0  0  0
 15 30  1  0  0  0  0
 16 32  1  0  0  0  0
 17 32  1  0  0  0  0
 17 33  2  0  0  0  0
 17 36  1  0  0  0  0
 18 20  2  0  0  0  0
 18 41  1  0  0  0  0
 19 21  2  0  0  0  0
 19 42  1  0  0  0  0
 20 52  1  0  0  0  0
 21 43  1  0  0  0  0
 22 23  2  0  0  0  0
 22 63  1  0  0  0  0
 23 24  1  0  0  0  0
 23 56  1  0  0  0  0
 24 31  2  0  0  0  0
 24 57  1  0  0  0  0
 25 31  1  0  0  0  0
 25 73  1  0  0  0  0
 26 83  1  0  0  0  0
 27 84  1  0  0  0  0
 28 30  2  0  0  0  0
 28 83  1  0  0  0  0
 29 85  1  0  0  0  0
 30 86  1  0  0  0  0
 31 87  1  0  0  0  0
 32 67  2  0  0  0  0
 33 68  1  0  0  0  0
 33 71  1  0  0  0  0
 34 35  2  0  0  0  0
 34 44  1  0  0  0  0
 34 76  1  0  0  0  0
 36 72  1  0  0  0  0
 36 78  2  0  0  0  0
 37 53  1  0  0  0  0
 37 74  1  0  0  0  0
 37 79  2  0  0  0  0
 38 64  1  0  0  0  0
 38 69  1  0  0  0  0
 38 80  2  0  0  0  0
 39 65  1  0  0  0  0
 39 75  1  0  0  0  0
 39 81  2  0  0  0  0
 40 70  1  0  0  0  0
 40 73  1  0  0  0  0
 40 82  2  0  0  0  0
 41 45  1  0  0  0  0
 42 53  1  0  0  0  0
 43 69  1  0  0  0  0
 44 55  1  0  0  0  0
 45 47  1  0  0  0  0
 46 48  1  0  0  0  0
 46 49  1  0  0  0  0
 47 52  1  0  0  0  0
 48 54  1  0  0  0  0
 49 70  1  0  0  0  0
 50 54  1  0  0  0  0
 50 70  1  0  0  0  0
 51 55  1  0  0  0  0
 51 76  1  0  0  0  0
 52 74  1  0  0  0  0
 53 69  1  0  0  0  0
 54 68  1  0  0  0  0
 55 84  1  0  0  0  0
 58 65  1  0  0  0  0
 59 66  1  0  0  0  0
 60 66  1  0  0  0  0
 61 66  1  0  0  0  0
 62 77  1  0  0  0  0
 63 76  1  0  0  0  0
 64 66  1  0  0  0  0
 64 75  1  0  0  0  0
 65 77  1  0  0  0  0
 67 68  1  0  0  0  0
M  CHG  2  76   1  77   1
M  ISO  4  40 100  55 101  73 100  84 101
M  END
> <Batch ID>
0033

> <Smiles>
C=C1C[101CH:1]([101O:1]c2ccc3c(c2)CN(C(=O)C(NC(=O)C(C)NC)C(C)(C)C)C(C(=O)NC2CCCc4ccccc42)C3)CN1Cc1cc([100NH:0][100C:0](=O)N2CCCC(n3nc(-c4ccc(Oc5ccc(F)cc5F)cc4)c(C(N)=O)c3N)C2)c(Cl)c(C)c1C

> <Shape>
0.249

> <Color>
0.189

> <Negative vol penalty>
0.000

$$$$

  -OEChem-04042321453D

 85 94  0     1  0  0  0  0  0999 V2000
  -23.3352  -35.4151   26.2903 C   0  0  0  0  0  0  0  0  0  0  0  0
  -24.3124  -34.7923   25.5205 C   0  0  0  0  0  0  0  0  0  0  0  0
  -26.5452  -11.7735   21.5473 C   0  0  0  0  0  0  0  0  0  0  0  0
  -25.8220  -13.3265   19.8436 C   0  0  0  0  0  0  0  0  0  0  0  0
  -22.2369  -34.6859   26.7438 C   0  0  0  0  0  0  0  0  0  0  0  0
  -24.1922  -33.4395   25.2045 C   0  0  0  0  0  0  0  0  0  0  0  0
  -25.9514  -30.7001   20.0173 C   0  0  0  0  0  0  0  0  0  0  0  0
  -30.7127  -22.8641   20.4158 C   0  0  0  0  0  0  0  0  0  0  0  0
  -30.3574  -21.8292   21.2808 C   0  0  0  0  0  0  0  0  0  0  0  0
  -25.3239  -11.1059   21.4571 C   0  0  0  0  0  0  0  0  0  0  0  0
  -24.6007  -12.6588   19.7534 C   0  0  0  0  0  0  0  0  0  0  0  0
  -27.0903  -29.9691   19.6822 C   0  0  0  0  0  0  0  0  0  0  0  0
  -23.8586   -8.8605   19.3970 C   0  0  0  0  0  0  0  0  0  0  0  0
  -23.8836   -7.4666   19.3521 C   0  0  0  0  0  0  0  0  0  0  0  0
  -25.9052  -27.9204   20.1483 C   0  0  0  0  0  0  0  0  0  0  0  0
  -29.0232  -22.1355   18.8500 C   0  0  0  0  0  0  0  0  0  0  0  0
  -22.5600   -7.3779   21.3714 C   0  0  0  0  0  0  0  0  0  0  0  0
  -26.7943  -12.8839   20.7405 C   0  0  0  0  0  0  0  0  0  0  0  0
  -29.2255  -13.3107   20.0963 C   0  0  0  0  0  0  0  0  0  0  0  0
  -22.0983  -33.3258   26.4251 C   0  0  0  0  0  0  0  0  0  0  0  0
  -24.7822  -30.0461   20.4317 C   0  0  0  0  0  0  0  0  0  0  0  0
  -23.0916  -32.6910   25.6552 C   0  0  0  0  0  0  0  0  0  0  0  0
  -24.7520  -28.6453   20.4857 C   0  0  0  0  0  0  0  0  0  0  0  0
  -30.0456  -23.0173   19.2004 C   0  0  0  0  0  0  0  0  0  0  0  0
  -28.6679  -21.1005   19.7150 C   0  0  0  0  0  0  0  0  0  0  0  0
  -29.3350  -20.9474   20.9304 C   0  0  0  0  0  0  0  0  0  0  0  0
  -24.3516  -11.5485   20.5602 C   0  0  0  0  0  0  0  0  0  0  0  0
  -27.0682  -28.5792   19.7504 C   0  0  0  0  0  0  0  0  0  0  0  0
  -23.1843   -9.5132   20.4291 C   0  0  0  0  0  0  0  0  0  0  0  0
  -23.2342   -6.7253   20.3393 C   0  0  0  0  0  0  0  0  0  0  0  0
  -22.5350   -8.7718   21.4162 C   0  0  0  0  0  0  0  0  0  0  0  0
  -28.0555  -13.5744   20.8336 C   0  0  0  0  0  0  0  0  0  0  0  0
  -30.1339  -14.2347   20.5518 C   0  0  0  0  0  0  0  0  0  0  0  0
  -30.2789  -26.5233   17.8037 C   0  0  0  0  0  0  0  0  0  0  0  0
  -31.5518  -26.8997   17.6327 C   0  0  0  0  0  0  0  0  0  0  0  0
  -29.4692  -12.3192   19.0897 C   0  0  0  0  0  0  0  0  0  0  0  0
  -23.0449  -30.0287   23.0934 C   0  0  0  0  0  0  0  0  0  0  0  0
  -21.0443  -28.1992   21.3121 C   0  0  0  0  0  0  0  0  0  0  0  0
  -20.6372  -26.0879   18.6619 C   0  0  0  0  0  0  0  0  0  0  0  0
  -29.5625  -19.6264   23.0634 C   0  0  0  0  0  0  0  0  0  0  0  0
  -20.9175  -32.5674   26.9776 C   0  0  0  0  0  0  0  0  0  0  0  0
  -23.5538  -30.8479   20.7641 C   0  0  0  0  0  0  0  0  0  0  0  0
  -23.5155  -27.8944   20.9049 C   0  0  0  0  0  0  0  0  0  0  0  0
  -29.0813  -27.2401   17.2629 C   0  0  0  0  0  0  0  0  0  0  0  0
  -20.6747  -31.2291   26.2845 C   0  0  0  0  0  0  0  0  0  0  0  0
  -31.2345  -16.8014   24.4422 C   0  0  0  0  0  0  0  0  0  0  0  0
  -21.9830  -30.4586   26.1380 C   0  0  0  0  0  0  0  0  0  0  0  0
  -30.7201  -15.6300   23.6022 C   0  0  0  0  0  0  0  0  0  0  0  0
  -30.1443  -17.8419   24.6920 C   0  0  0  0  0  0  0  0  0  0  0  0
  -28.9531  -17.1628   22.6453 C   0  0  0  0  0  0  0  0  0  0  0  0
  -28.4210  -25.5428   18.8389 C   0  0  0  0  0  0  0  0  0  0  0  0
  -22.9842  -31.2313   25.2708 C   0  0  1  0  0  0  0  0  0  0  0  0
  -22.5781  -30.0996   21.6670 C   0  0  1  0  0  0  0  0  0  0  0  0
  -30.0330  -16.1203   22.3126 C   0  0  2  0  0  0  0  0  0  0  0  0
  -28.0606  -26.9380   18.3489 C   0  0  1  0  0  0  0  0  0  1  0  0
  -27.5709  -20.1688   19.3125 C   0  0  0  0  0  0  0  0  0  0  0  0
  -18.8937  -24.7244   17.4793 C   0  0  0  0  0  0  0  0  0  0  0  0
  -21.1570  -26.1229   23.5450 C   0  0  0  0  0  0  0  0  0  0  0  0
  -20.2155  -24.4478   21.9400 C   0  0  0  0  0  0  0  0  0  0  0  0
  -18.8866  -26.4675   22.5545 C   0  0  0  0  0  0  0  0  0  0  0  0
  -21.0012  -27.5958   16.1415 C   0  0  0  0  0  0  0  0  0  0  0  0
  -30.4295  -24.1291   18.2690 C   0  0  0  0  0  0  0  0  0  0  0  0
  -20.9000  -26.7202   21.0464 C   0  0  1  0  0  0  0  0  0  0  0  0
  -19.6127  -26.0630   17.5420 C   0  0  2  0  0  0  0  0  0  0  0  0
  -20.3138  -25.9535   22.2654 C   0  0  0  0  0  0  0  0  0  0  0  0
  -28.2044  -14.5865   21.6923 N   0  0  0  0  0  0  0  0  0  0  0  0
  -29.4785  -14.9669   21.4976 N   0  0  0  0  0  0  0  0  0  0  0  0
  -22.3419  -28.7233   21.2261 N   0  0  0  0  0  0  0  0  0  0  0  0
  -29.5415  -18.2628   23.4254 N   0  0  0  0  0  0  0  0  0  0  0  0
  -31.4214  -14.4841   20.2316 N   0  0  0  0  0  0  0  0  0  0  0  0
  -28.4262  -11.4502   18.7414 N   0  0  0  0  0  0  0  0  0  0  0  0
  -28.9889  -19.9025   21.8227 N   0  0  0  0  0  0  0  0  0  0  0  0
  -22.6460  -31.1000   23.8698 N   0  0  0  0  0  0  0  0  0  0  0  0
  -20.1074  -26.5999   19.8275 N   0  0  0  0  0  0  0  0  0  0  0  0
  -29.9415  -25.4715   18.7241 N   0  3  1  0  0  0  0  0  0  0  0  0
  -20.2750  -26.3027   16.2287 N   0  3  0  0  0  0  0  0  0  0  0  0
  -30.5840  -12.1965   18.5279 O   0  0  0  0  0  0  0  0  0  0  0  0
  -23.7159  -29.0722   23.4627 O   0  0  0  0  0  0  0  0  0  0  0  0
  -20.0416  -28.8664   21.5788 O   0  0  0  0  0  0  0  0  0  0  0  0
  -21.7909  -25.6893   18.5183 O   0  0  0  0  0  0  0  0  0  0  0  0
  -30.0776  -20.4822   23.7875 O   0  0  0  0  0  0  0  0  0  0  0  0
  -23.1598  -10.8971   20.4718 O   0  0  0  0  0  0  0  0  0  0  0  0
  -28.1787  -27.8633   19.4245 O   0  0  0  0  0  0  0  0  0  1  0  0
  -23.2570   -5.3868   20.2952 F   0  0  0  0  0  0  0  0  0  0  0  0
  -21.8846   -9.3932   22.4096 F   0  0  0  0  0  0  0  0  0  0  0  0
  1  2  1  0  0  0  0
  1  5  2  0  0  0  0
  2  6  2  0  0  0  0
  3 10  2  0  0  0  0
  3 18  1  0  0  0  0
  4 11  1  0  0  0  0
  4 18  2  0  0  0  0
  5 20  1  0  0  0  0
  6 22  1  0  0  0  0
  7 12  2  0  0  0  0
  7 21  1  0  0  0  0
  8  9  2  0  0  0  0
  8 24  1  0  0  0  0
  9 26  1  0  0  0  0
 10 27  1  0  0  0  0
 11 27  2  0  0  0  0
 12 28  1  0  0  0  0
 13 14  2  0  0  0  0
 13 29  1  0  0  0  0
 14 30  1  0  0  0  0
 15 23  1  0  0  0  0
 15 28  2  0  0  0  0
 16 24  2  0  0  0  0
 16 25  1  0  0  0  0
 17 30  2  0  0  0  0
 17 31  1  0  0  0  0
 18 32  1  0  0  0  0
 19 32  1  0  0  0  0
 19 33  2  0  0  0  0
 19 36  1  0  0  0  0
 20 22  2  0  0  0  0
 20 41  1  0  0  0  0
 21 23  2  0  0  0  0
 21 42  1  0  0  0  0
 22 52  1  0  0  0  0
 23 43  1  0  0  0  0
 24 62  1  0  0  0  0
 25 26  2  0  0  0  0
 25 56  1  0  0  0  0
 26 72  1  0  0  0  0
 27 82  1  0  0  0  0
 28 83  1  0  0  0  0
 29 31  2  0  0  0  0
 29 82  1  0  0  0  0
 30 84  1  0  0  0  0
 31 85  1  0  0  0  0
 32 66  2  0  0  0  0
 33 67  1  0  0  0  0
 33 70  1  0  0  0  0
 34 35  2  0  0  0  0
 34 44  1  0  0  0  0
 34 75  1  0  0  0  0
 36 71  1  0  0  0  0
 36 77  2  0  0  0  0
 37 53  1  0  0  0  0
 37 73  1  0  0  0  0
 37 78  2  0  0  0  0
 38 63  1  0  0  0  0
 38 68  1  0  0  0  0
 38 79  2  0  0  0  0
 39 64  1  0  0  0  0
 39 74  1  0  0  0  0
 39 80  2  0  0  0  0
 40 69  1  0  0  0  0
 40 72  1  0  0  0  0
 40 81  2  0  0  0  0
 41 45  1  0  0  0  0
 42 53  1  0  0  0  0
 43 68  1  0  0  0  0
 44 55  1  0  0  0  0
 45 47  1  0  0  0  0
 46 48  1  0  0  0  0
 46 49  1  0  0  0  0
 47 52  1  0  0  0  0
 48 54  1  0  0  0  0
 49 69  1  0  0  0  0
 50 54  1  0  0  0  0
 50 69  1  0  0  0  0
 51 55  1  0  0  0  0
 51 75  1  0  0  0  0
 52 73  1  0  0  0  0
 53 68  1  0  0  0  0
 54 67  1  0  0  0  0
 55 83  1  0  0  0  0
 57 64  1  0  0  0  0
 58 65  1  0  0  0  0
 59 65  1  0  0  0  0
 60 65  1  0  0  0  0
 61 76  1  0  0  0  0
 62 75  1  0  0  0  0
 63 65  1  0  0  0  0
 63 74  1  0  0  0  0
 64 76  1  0  0  0  0
 66 67  1  0  0  0  0
M  CHG  2  75   1  76   1
M  ISO  4  40 100  55 101  72 100  83 101
M  END
> <Batch ID>
0033

> <Smiles>
C=C1C[101CH:1]([101O:1]c2ccc3c(c2)CN(C(=O)C(NC(=O)C(C)NC)C(C)(C)C)C(C(=O)NC2CCCc4ccccc42)C3)CN1Cc1ccc([100NH:0][100C:0](=O)N2CCCC(n3nc(-c4ccc(Oc5ccc(F)cc5F)cc4)c(C(N)=O)c3N)C2)c(C)c1

> <Shape>
0.306

> <Color>
0.061

> <Negative vol penalty>
0.000

$$$$

  -OEChem-04042321453D

 87 96  0     1  0  0  0  0  0999 V2000
  -27.0359  -38.5860   23.6816 C   0  0  0  0  0  0  0  0  0  0  0  0
  -27.7031  -37.6498   22.8982 C   0  0  0  0  0  0  0  0  0  0  0  0
  -24.4734   -9.0648   21.5364 C   0  0  0  0  0  0  0  0  0  0  0  0
  -22.6133  -10.2286   20.5252 C   0  0  0  0  0  0  0  0  0  0  0  0
  -26.2791  -38.1660   24.7747 C   0  0  0  0  0  0  0  0  0  0  0  0
  -27.6148  -36.2931   23.2080 C   0  0  0  0  0  0  0  0  0  0  0  0
  -25.2715  -30.2948   18.7858 C   0  0  0  0  0  0  0  0  0  0  0  0
  -20.7402  -20.2633   17.8648 C   0  0  0  0  0  0  0  0  0  0  0  0
  -23.6950   -7.9122   21.6419 C   0  0  0  0  0  0  0  0  0  0  0  0
  -21.8348   -9.0759   20.6307 C   0  0  0  0  0  0  0  0  0  0  0  0
  -24.7294  -29.1760   18.1528 C   0  0  0  0  0  0  0  0  0  0  0  0
  -21.2678   -6.7235   23.6717 C   0  0  0  0  0  0  0  0  0  0  0  0
  -21.3080   -6.0233   24.8774 C   0  0  0  0  0  0  0  0  0  0  0  0
  -20.8524  -18.9272   17.4804 C   0  0  0  0  0  0  0  0  0  0  0  0
  -24.1777  -28.2142   20.3018 C   0  0  0  0  0  0  0  0  0  0  0  0
  -21.8845  -19.7644   19.9333 C   0  0  0  0  0  0  0  0  0  0  0  0
  -22.1243   -4.0688   23.7151 C   0  0  0  0  0  0  0  0  0  0  0  0
  -23.9325  -10.2230   20.9781 C   0  0  0  0  0  0  0  0  0  0  0  0
  -25.9431  -11.5635   20.1607 C   0  0  0  0  0  0  0  0  0  0  0  0
  -26.1736  -36.8027   25.0924 C   0  0  0  0  0  0  0  0  0  0  0  0
  -25.2548  -30.3846   20.1805 C   0  0  0  0  0  0  0  0  0  0  0  0
  -26.8570  -35.8546   24.3072 C   0  0  0  0  0  0  0  0  0  0  0  0
  -24.7080  -29.3380   20.9410 C   0  0  0  0  0  0  0  0  0  0  0  0
  -21.2563  -20.6819   19.0912 C   0  0  0  0  0  0  0  0  0  0  0  0
  -21.9966  -18.4282   19.5490 C   0  0  0  0  0  0  0  0  0  0  0  0
  -22.3757   -7.9178   21.1891 C   0  0  0  0  0  0  0  0  0  0  0  0
  -24.1841  -28.1382   18.9090 C   0  0  0  0  0  0  0  0  0  0  0  0
  -21.6557   -6.0964   22.4877 C   0  0  0  0  0  0  0  0  0  0  0  0
  -21.7363   -4.6960   24.8991 C   0  0  0  0  0  0  0  0  0  0  0  0
  -22.0840   -4.7691   22.5094 C   0  0  0  0  0  0  0  0  0  0  0  0
  -21.4806  -18.0096   18.3225 C   0  0  0  0  0  0  0  0  0  0  0  0
  -24.7360  -11.4142   20.8694 C   0  0  0  0  0  0  0  0  0  0  0  0
  -26.3039  -12.8723   20.3690 C   0  0  0  0  0  0  0  0  0  0  0  0
  -22.2738  -24.1409   20.1808 C   0  0  0  0  0  0  0  0  0  0  0  0
  -22.0767  -24.3255   21.4978 C   0  0  0  0  0  0  0  0  0  0  0  0
  -26.6731  -10.6050   19.3835 C   0  0  0  0  0  0  0  0  0  0  0  0
  -26.1134  -32.4005   23.2259 C   0  0  0  0  0  0  0  0  0  0  0  0
  -23.3550  -31.1564   23.7294 C   0  0  0  0  0  0  0  0  0  0  0  0
  -20.1658  -29.9454   23.7183 C   0  0  0  0  0  0  0  0  0  0  0  0
  -23.1950  -17.8052   21.6755 C   0  0  0  0  0  0  0  0  0  0  0  0
  -25.3823  -36.4006   26.3117 C   0  0  0  0  0  0  0  0  0  0  0  0
  -25.8829  -31.5429   20.9068 C   0  0  0  0  0  0  0  0  0  0  0  0
  -24.7430  -29.4620   22.4398 C   0  0  0  0  0  0  0  0  0  0  0  0
  -22.2930  -25.2998   19.2238 C   0  0  0  0  0  0  0  0  0  0  0  0
  -25.0353  -34.9145   26.3498 C   0  0  0  0  0  0  0  0  0  0  0  0
  -25.8721  -16.4125   23.5651 C   0  0  0  0  0  0  0  0  0  0  0  0
  -24.6749  -23.4272   18.6684 C   0  0  0  0  0  0  0  0  0  0  0  0
  -26.2610  -34.0713   26.0132 C   0  0  0  0  0  0  0  0  0  0  0  0
  -25.9984  -14.9882   23.0195 C   0  0  0  0  0  0  0  0  0  0  0  0
  -24.5820  -24.8609   18.1478 C   0  0  0  0  0  0  0  0  0  0  0  0
  -24.4156  -16.8690   23.6271 C   0  0  0  0  0  0  0  0  0  0  0  0
  -23.7945  -15.3084   21.8248 C   0  0  0  0  0  0  0  0  0  0  0  0
  -23.3657  -22.6556   18.5243 C   0  0  0  0  0  0  0  0  0  0  0  0
  -26.7654  -34.3721   24.5966 C   0  0  1  0  0  0  0  0  0  0  0  0
  -25.1321  -31.9263   22.1946 C   0  0  1  0  0  0  0  0  0  0  0  0
  -25.2481  -14.8282   21.6828 C   0  0  2  0  0  0  0  0  0  0  0  0
  -23.7171  -25.8055   18.9817 C   0  0  1  0  0  0  0  0  0  1  0  0
  -18.0984  -29.8281   25.1359 C   0  0  0  0  0  0  0  0  0  0  0  0
  -24.6631  -29.0062   25.4526 C   0  0  0  0  0  0  0  0  0  0  0  0
  -22.3738  -28.2822   26.1621 C   0  0  0  0  0  0  0  0  0  0  0  0
  -23.1756  -30.5821   26.7010 C   0  0  0  0  0  0  0  0  0  0  0  0
  -18.5646  -31.4148   21.7094 C   0  0  0  0  0  0  0  0  0  0  0  0
  -21.1357  -22.1193   19.5041 C   0  0  0  0  0  0  0  0  0  0  0  0
  -22.5733  -30.0071   24.3138 C   0  0  1  0  0  0  0  0  0  0  0  0
  -18.8383  -30.6003   24.0546 C   0  0  2  0  0  0  0  0  0  0  0  0
  -23.2035  -29.4701   25.6298 C   0  0  0  0  0  0  0  0  0  0  0  0
  -24.3553  -12.5382   21.4822 N   0  0  0  0  0  0  0  0  0  0  0  0
  -25.3290  -13.4064   21.1593 N   0  0  0  0  0  0  0  0  0  0  0  0
  -24.3858  -30.8323   22.8390 N   0  0  0  0  0  0  0  0  0  0  0  0
  -23.7701  -16.6921   22.3244 N   0  0  0  0  0  0  0  0  0  0  0  0
  -27.3567  -13.6069   19.9515 N   0  0  0  0  0  0  0  0  0  0  0  0
  -26.1609   -9.3051   19.2731 N   0  0  0  0  0  0  0  0  0  0  0  0
  -22.6393  -17.5219   20.4283 N   0  0  0  0  0  0  0  0  0  0  0  0
  -25.9318  -33.7145   23.6131 N   0  0  0  0  0  0  0  0  0  0  0  0
  -21.2003  -30.4787   24.4578 N   0  0  0  0  0  0  0  0  0  0  0  0
  -22.4717  -22.7821   19.7355 N   0  3  2  0  0  0  0  0  0  0  0  0
  -17.9704  -30.6633   22.8447 N   0  3  0  0  0  0  0  0  0  0  0  0
  -27.7561  -10.8882   18.8176 O   0  0  0  0  0  0  0  0  0  0  0  0
  -26.9719  -31.6313   23.6418 O   0  0  0  0  0  0  0  0  0  0  0  0
  -23.0654  -32.3108   24.0562 O   0  0  0  0  0  0  0  0  0  0  0  0
  -20.2738  -29.0479   22.8857 O   0  0  0  0  0  0  0  0  0  0  0  0
  -23.2195  -18.9324   22.1763 O   0  0  0  0  0  0  0  0  0  0  0  0
  -21.6159   -6.7932   21.2916 O   0  0  0  0  0  0  0  0  0  0  0  0
  -23.6525  -27.0510   18.2845 O   0  0  0  0  0  0  0  0  0  1  0  0
  -21.7764   -4.0242   26.0572 F   0  0  0  0  0  0  0  0  0  0  0  0
  -22.4590   -4.1616   21.3753 F   0  0  0  0  0  0  0  0  0  0  0  0
  -21.5972  -16.3647   17.8072 Cl  0  0  0  0  0  0  0  0  0  0  0  0
  1  2  1  0  0  0  0
  1  5  2  0  0  0  0
  2  6  2  0  0  0  0
  3  9  2  0  0  0  0
  3 18  1  0  0  0  0
  4 10  1  0  0  0  0
  4 18  2  0  0  0  0
  5 20  1  0  0  0  0
  6 22  1  0  0  0  0
  7 11  2  0  0  0  0
  7 21  1  0  0  0  0
  8 14  2  0  0  0  0
  8 24  1  0  0  0  0
  9 26  1  0  0  0  0
 10 26  2  0  0  0  0
 11 27  1  0  0  0  0
 12 13  2  0  0  0  0
 12 28  1  0  0  0  0
 13 29  1  0  0  0  0
 14 31  1  0  0  0  0
 15 23  1  0  0  0  0
 15 27  2  0  0  0  0
 16 24  2  0  0  0  0
 16 25  1  0  0  0  0
 17 29  2  0  0  0  0
 17 30  1  0  0  0  0
 18 32  1  0  0  0  0
 19 32  1  0  0  0  0
 19 33  2  0  0  0  0
 19 36  1  0  0  0  0
 20 22  2  0  0  0  0
 20 41  1  0  0  0  0
 21 23  2  0  0  0  0
 21 42  1  0  0  0  0
 22 54  1  0  0  0  0
 23 43  1  0  0  0  0
 24 63  1  0  0  0  0
 25 31  2  0  0  0  0
 25 73  1  0  0  0  0
 26 83  1  0  0  0  0
 27 84  1  0  0  0  0
 28 30  2  0  0  0  0
 28 83  1  0  0  0  0
 29 85  1  0  0  0  0
 30 86  1  0  0  0  0
 31 87  1  0  0  0  0
 32 67  2  0  0  0  0
 33 68  1  0  0  0  0
 33 71  1  0  0  0  0
 34 35  2  0  0  0  0
 34 44  1  0  0  0  0
 34 76  1  0  0  0  0
 36 72  1  0  0  0  0
 36 78  2  0  0  0  0
 37 55  1  0  0  0  0
 37 74  1  0  0  0  0
 37 79  2  0  0  0  0
 38 64  1  0  0  0  0
 38 69  1  0  0  0  0
 38 80  2  0  0  0  0
 39 65  1  0  0  0  0
 39 75  1  0  0  0  0
 39 81  2  0  0  0  0
 40 70  1  0  0  0  0
 40 73  1  0  0  0  0
 40 82  2  0  0  0  0
 41 45  1  0  0  0  0
 42 55  1  0  0  0  0
 43 69  1  0  0  0  0
 44 57  1  0  0  0  0
 45 48  1  0  0  0  0
 46 49  1  0  0  0  0
 46 51  1  0  0  0  0
 47 50  1  0  0  0  0
 47 53  1  0  0  0  0
 48 54  1  0  0  0  0
 49 56  1  0  0  0  0
 50 57  1  0  0  0  0
 51 70  1  0  0  0  0
 52 56  1  0  0  0  0
 52 70  1  0  0  0  0
 53 76  1  0  0  0  0
 54 74  1  0  0  0  0
 55 69  1  0  0  0  0
 56 68  1  0  0  0  0
 57 84  1  0  0  0  0
 58 65  1  0  0  0  0
 59 66  1  0  0  0  0
 60 66  1  0  0  0  0
 61 66  1  0  0  0  0
 62 77  1  0  0  0  0
 63 76  1  0  0  0  0
 64 66  1  0  0  0  0
 64 75  1  0  0  0  0
 65 77  1  0  0  0  0
 67 68  1  0  0  0  0
M  CHG  2  76   1  77   1
M  ISO  4  40 100  57 101  73 100  84 101
M  END
> <Batch ID>
0033

> <Smiles>
C=C1C[101CH:1]([101O:1]c2ccc3c(c2)CN(C(=O)C(NC(=O)C(C)NC)C(C)(C)C)C(C(=O)NC2CCCc4ccccc42)C3)CCCN1Cc1ccc(Cl)c([100NH:0][100C:0](=O)N2CCCC(n3nc(-c4ccc(Oc5ccc(F)cc5F)cc4)c(C(N)=O)c3N)C2)c1

> <Shape>
0.266

> <Color>
0.112

> <Negative vol penalty>
0.000

$$$$

  -OEChem-04042321453D

 86 95  0     1  0  0  0  0  0999 V2000
  -29.8718  -14.4279   22.5375 C   0  0  0  0  0  0  0  0  0  0  0  0
  -30.3785  -15.5231   23.2297 C   0  0  0  0  0  0  0  0  0  0  0  0
  -22.6257  -17.1583   19.3767 C   0  0  0  0  0  0  0  0  0  0  0  0
  -23.6824  -18.5053   21.0814 C   0  0  0  0  0  0  0  0  0  0  0  0
  -29.6902  -14.5003   21.1571 C   0  0  0  0  0  0  0  0  0  0  0  0
  -30.7049  -16.6911   22.5415 C   0  0  0  0  0  0  0  0  0  0  0  0
  -26.7754  -21.9182   24.1047 C   0  0  0  0  0  0  0  0  0  0  0  0
  -25.8059  -29.4920   21.6083 C   0  0  0  0  0  0  0  0  0  0  0  0
  -23.6427  -16.2111   19.4946 C   0  0  0  0  0  0  0  0  0  0  0  0
  -24.6995  -17.5581   21.1994 C   0  0  0  0  0  0  0  0  0  0  0  0
  -26.3391  -23.0019   24.8672 C   0  0  0  0  0  0  0  0  0  0  0  0
  -24.4750  -13.6987   21.5989 C   0  0  0  0  0  0  0  0  0  0  0  0
  -24.1059  -12.3547   21.6540 C   0  0  0  0  0  0  0  0  0  0  0  0
  -25.2066  -29.8145   20.3907 C   0  0  0  0  0  0  0  0  0  0  0  0
  -28.1425  -24.3560   23.9943 C   0  0  0  0  0  0  0  0  0  0  0  0
  -23.7875  -28.3594   22.3017 C   0  0  0  0  0  0  0  0  0  0  0  0
  -25.3990  -11.9178   19.6604 C   0  0  0  0  0  0  0  0  0  0  0  0
  -22.6455  -18.3055   20.1700 C   0  0  0  0  0  0  0  0  0  0  0  0
  -20.2186  -19.0858   20.2640 C   0  0  0  0  0  0  0  0  0  0  0  0
  -30.0055  -15.6731   20.4530 C   0  0  0  0  0  0  0  0  0  0  0  0
  -27.8891  -22.0541   23.2713 C   0  0  0  0  0  0  0  0  0  0  0  0
  -30.5286  -16.7789   21.1501 C   0  0  0  0  0  0  0  0  0  0  0  0
  -28.5767  -23.2777   23.2187 C   0  0  0  0  0  0  0  0  0  0  0  0
  -23.1882  -28.6820   21.0841 C   0  0  0  0  0  0  0  0  0  0  0  0
  -25.0963  -28.7644   22.5638 C   0  0  0  0  0  0  0  0  0  0  0  0
  -24.6796  -16.4110   20.4060 C   0  0  0  0  0  0  0  0  0  0  0  0
  -27.0211  -24.2176   24.8123 C   0  0  0  0  0  0  0  0  0  0  0  0
  -25.3060  -14.1523   20.5745 C   0  0  0  0  0  0  0  0  0  0  0  0
  -24.5679  -11.4642   20.6849 C   0  0  0  0  0  0  0  0  0  0  0  0
  -25.7680  -13.2619   19.6053 C   0  0  0  0  0  0  0  0  0  0  0  0
  -23.8978  -29.4096   20.1286 C   0  0  0  0  0  0  0  0  0  0  0  0
  -21.5954  -19.2846   20.0483 C   0  0  0  0  0  0  0  0  0  0  0  0
  -19.6523  -20.3134   20.0213 C   0  0  0  0  0  0  0  0  0  0  0  0
  -26.1836  -29.3971   24.7134 C   0  0  0  0  0  0  0  0  0  0  0  0
  -25.7488  -30.6682   24.8170 C   0  0  0  0  0  0  0  0  0  0  0  0
  -19.5145  -17.8978   20.6493 C   0  0  0  0  0  0  0  0  0  0  0  0
  -30.1886  -20.4400   20.7848 C   0  0  0  0  0  0  0  0  0  0  0  0
  -29.6719  -23.2977   19.7963 C   0  0  0  0  0  0  0  0  0  0  0  0
  -28.5158  -26.3601   18.8359 C   0  0  0  0  0  0  0  0  0  0  0  0
  -21.8274  -25.7898   20.3861 C   0  0  0  0  0  0  0  0  0  0  0  0
  -29.8365  -15.6878   18.9544 C   0  0  0  0  0  0  0  0  0  0  0  0
  -28.4312  -20.8955   22.4791 C   0  0  0  0  0  0  0  0  0  0  0  0
  -29.7903  -23.3676   22.3344 C   0  0  0  0  0  0  0  0  0  0  0  0
  -27.2610  -28.9432   25.6793 C   0  0  0  0  0  0  0  0  0  0  0  0
  -29.8550  -17.0908   18.3530 C   0  0  0  0  0  0  0  0  0  0  0  0
  -27.0179  -27.5347   26.2007 C   0  0  0  0  0  0  0  0  0  0  0  0
  -20.3112  -24.3004   17.4568 C   0  0  0  0  0  0  0  0  0  0  0  0
  -31.0135  -17.9015   18.9252 C   0  0  0  0  0  0  0  0  0  0  0  0
  -20.3415  -22.8149   17.8207 C   0  0  0  0  0  0  0  0  0  0  0  0
  -21.5644  -25.0165   17.9518 C   0  0  0  0  0  0  0  0  0  0  0  0
  -21.8513  -23.3872   19.7785 C   0  0  0  0  0  0  0  0  0  0  0  0
  -25.6545  -27.0036   24.1596 C   0  0  0  0  0  0  0  0  0  0  0  0
  -30.8713  -18.0719   20.4425 C   0  0  1  0  0  0  0  0  0  0  0  0
  -29.0170  -21.3158   21.1192 C   0  0  1  0  0  0  0  0  0  0  0  0
  -20.6010  -22.6117   19.3252 C   0  0  2  0  0  0  0  0  0  0  0  0
  -26.8308  -26.5755   25.0349 C   0  0  2  0  0  0  0  0  0  1  0  0
  -28.7355  -28.0634   17.0062 C   0  0  0  0  0  0  0  0  0  0  0  0
  -32.3748  -24.1528   20.9219 C   0  0  0  0  0  0  0  0  0  0  0  0
  -32.0915  -26.3446   19.7457 C   0  0  0  0  0  0  0  0  0  0  0  0
  -32.2114  -24.2301   18.4276 C   0  0  0  0  0  0  0  0  0  0  0  0
  -25.6468  -26.1524   18.1396 C   0  0  0  0  0  0  0  0  0  0  0  0
  -21.7848  -28.2287   20.8412 C   0  0  0  0  0  0  0  0  0  0  0  0
  -30.1340  -24.7328   19.7781 C   0  0  1  0  0  0  0  0  0  0  0  0
  -27.9598  -26.8579   17.5140 C   0  0  2  0  0  0  0  0  0  0  0  0
  -31.6834  -24.8560   19.7369 C   0  0  0  0  0  0  0  0  0  0  0  0
  -21.8862  -20.5396   19.6955 N   0  0  0  0  0  0  0  0  0  0  0  0
  -20.6841  -21.1405   19.6877 N   0  0  0  0  0  0  0  0  0  0  0  0
  -25.7089  -28.4340   23.8066 N   0  0  0  0  0  0  0  0  0  0  0  0
  -29.5285  -22.6953   21.0521 N   0  0  0  0  0  0  0  0  0  0  0  0
  -21.7434  -24.7985   19.3943 N   0  0  0  0  0  0  0  0  0  0  0  0
  -18.3773  -20.7551   20.0629 N   0  0  0  0  0  0  0  0  0  0  0  0
  -19.3289  -17.6445   22.0152 N   0  0  0  0  0  0  0  0  0  0  0  0
  -29.8901  -19.0913   20.7469 N   0  0  0  0  0  0  0  0  0  0  0  0
  -29.4541  -25.3663   18.6535 N   0  0  0  0  0  0  0  0  0  0  0  0
  -21.7229  -27.1010   19.9382 N   0  0  0  0  0  0  0  0  0  0  0  0
  -26.5302  -27.2498   17.6681 N   0  3  0  0  0  0  0  0  0  0  0  0
  -19.0776  -17.0765   19.8077 O   0  0  0  0  0  0  0  0  0  0  0  0
  -31.2832  -20.9493   20.5748 O   0  0  0  0  0  0  0  0  0  0  0  0
  -29.4489  -22.7222   18.7275 O   0  0  0  0  0  0  0  0  0  0  0  0
  -28.1566  -26.8105   19.9216 O   0  0  0  0  0  0  0  0  0  0  0  0
  -21.9789  -25.5257   21.5838 O   0  0  0  0  0  0  0  0  0  0  0  0
  -25.6721  -15.4868   20.5215 O   0  0  0  0  0  0  0  0  0  0  0  0
  -26.5871  -25.2728   25.5559 O   0  0  0  0  0  0  0  0  0  1  0  0
  -24.2147  -10.1733   20.7388 F   0  0  0  0  0  0  0  0  0  0  0  0
  -26.5675  -13.6915   18.6194 F   0  0  0  0  0  0  0  0  0  0  0  0
  -23.1894  -29.8274   18.6112 Cl  0  0  0  0  0  0  0  0  0  0  0  0
  1  2  1  0  0  0  0
  1  5  2  0  0  0  0
  2  6  2  0  0  0  0
  3  9  2  0  0  0  0
  3 18  1  0  0  0  0
  4 10  1  0  0  0  0
  4 18  2  0  0  0  0
  5 20  1  0  0  0  0
  6 22  1  0  0  0  0
  7 11  2  0  0  0  0
  7 21  1  0  0  0  0
  8 14  2  0  0  0  0
  8 25  1  0  0  0  0
  9 26  1  0  0  0  0
 10 26  2  0  0  0  0
 11 27  1  0  0  0  0
 12 13  2  0  0  0  0
 12 28  1  0  0  0  0
 13 29  1  0  0  0  0
 14 31  1  0  0  0  0
 15 23  1  0  0  0  0
 15 27  2  0  0  0  0
 16 24  1  0  0  0  0
 16 25  2  0  0  0  0
 17 29  2  0  0  0  0
 17 30  1  0  0  0  0
 18 32  1  0  0  0  0
 19 32  1  0  0  0  0
 19 33  2  0  0  0  0
 19 36  1  0  0  0  0
 20 22  2  0  0  0  0
 20 41  1  0  0  0  0
 21 23  2  0  0  0  0
 21 42  1  0  0  0  0
 22 53  1  0  0  0  0
 23 43  1  0  0  0  0
 24 31  2  0  0  0  0
 24 62  1  0  0  0  0
 25 68  1  0  0  0  0
 26 82  1  0  0  0  0
 27 83  1  0  0  0  0
 28 30  2  0  0  0  0
 28 82  1  0  0  0  0
 29 84  1  0  0  0  0
 30 85  1  0  0  0  0
 31 86  1  0  0  0  0
 32 66  2  0  0  0  0
 33 67  1  0  0  0  0
 33 71  1  0  0  0  0
 34 35  2  0  0  0  0
 34 44  1  0  0  0  0
 34 68  1  0  0  0  0
 36 72  1  0  0  0  0
 36 77  2  0  0  0  0
 37 54  1  0  0  0  0
 37 73  1  0  0  0  0
 37 78  2  0  0  0  0
 38 63  1  0  0  0  0
 38 69  1  0  0  0  0
 38 79  2  0  0  0  0
 39 64  1  0  0  0  0
 39 74  1  0  0  0  0
 39 80  2  0  0  0  0
 40 70  1  0  0  0  0
 40 75  1  0  0  0  0
 40 81  2  0  0  0  0
 41 45  1  0  0  0  0
 42 54  1  0  0  0  0
 43 69  1  0  0  0  0
 44 46  1  0  0  0  0
 45 48  1  0  0  0  0
 46 56  1  0  0  0  0
 47 49  1  0  0  0  0
 47 50  1  0  0  0  0
 48 53  1  0  0  0  0
 49 55  1  0  0  0  0
 50 70  1  0  0  0  0
 51 55  1  0  0  0  0
 51 70  1  0  0  0  0
 52 56  1  0  0  0  0
 52 68  1  0  0  0  0
 53 73  1  0  0  0  0
 54 69  1  0  0  0  0
 55 67  1  0  0  0  0
 56 83  1  0  0  0  0
 57 64  1  0  0  0  0
 58 65  1  0  0  0  0
 59 65  1  0  0  0  0
 60 65  1  0  0  0  0
 61 76  1  0  0  0  0
 62 75  1  0  0  0  0
 63 65  1  0  0  0  0
 63 74  1  0  0  0  0
 64 76  1  0  0  0  0
 66 67  1  0  0  0  0
M  CHG  1  76   1
M  ISO  4  40 100  56 101  75 100  83 101
M  END
> <Batch ID>
0033

> <Smiles>
C=C1CC[101CH:1]([101O:1]c2ccc3c(c2)CN(C(=O)C(NC(=O)C(C)NC)C(C)(C)C)C(C(=O)NC2CCCc4ccccc42)C3)CN1c1ccc(Cl)c(C[100NH:0][100C:0](=O)N2CCCC(n3nc(-c4ccc(Oc5ccc(F)cc5F)cc4)c(C(N)=O)c3N)C2)c1

> <Shape>
0.205

> <Color>
0.072

> <Negative vol penalty>
0.000

$$$$

  -OEChem-04042321453D

 88 97  0     1  0  0  0  0  0999 V2000
  -26.6603   -8.3046   22.1626 C   0  0  0  0  0  0  0  0  0  0  0  0
  -26.8918   -9.4344   21.3846 C   0  0  0  0  0  0  0  0  0  0  0  0
  -25.6828  -31.4378   24.0419 C   0  0  0  0  0  0  0  0  0  0  0  0
  -23.3388  -31.9160   23.7036 C   0  0  0  0  0  0  0  0  0  0  0  0
  -25.3553   -7.8645   22.3797 C   0  0  0  0  0  0  0  0  0  0  0  0
  -25.8183  -10.1242   20.8222 C   0  0  0  0  0  0  0  0  0  0  0  0
  -26.2417  -15.1426   21.3523 C   0  0  0  0  0  0  0  0  0  0  0  0
  -25.8301  -32.6440   24.7266 C   0  0  0  0  0  0  0  0  0  0  0  0
  -23.4861  -33.1222   24.3884 C   0  0  0  0  0  0  0  0  0  0  0  0
  -27.1111  -15.8034   20.4854 C   0  0  0  0  0  0  0  0  0  0  0  0
  -26.1489  -35.9203   23.9596 C   0  0  0  0  0  0  0  0  0  0  0  0
  -27.2550  -36.7108   23.6477 C   0  0  0  0  0  0  0  0  0  0  0  0
  -25.2349  -16.4769   19.1269 C   0  0  0  0  0  0  0  0  0  0  0  0
  -26.7266  -19.6143   22.3164 C   0  0  0  0  0  0  0  0  0  0  0  0
  -24.6896  -20.7007   23.0288 C   0  0  0  0  0  0  0  0  0  0  0  0
  -28.0100  -36.5578   25.9376 C   0  0  0  0  0  0  0  0  0  0  0  0
  -24.4371  -31.0738   23.5303 C   0  0  0  0  0  0  0  0  0  0  0  0
  -24.9507  -29.4308   21.6475 C   0  0  0  0  0  0  0  0  0  0  0  0
  -24.2647   -8.5548   21.8276 C   0  0  0  0  0  0  0  0  0  0  0  0
  -24.8611  -15.1349   21.1066 C   0  0  0  0  0  0  0  0  0  0  0  0
  -24.4975   -9.6921   21.0310 C   0  0  0  0  0  0  0  0  0  0  0  0
  -24.3499  -15.8175   19.9936 C   0  0  0  0  0  0  0  0  0  0  0  0
  -27.1077  -20.7727   21.6393 C   0  0  0  0  0  0  0  0  0  0  0  0
  -25.0707  -21.8591   22.3517 C   0  0  0  0  0  0  0  0  0  0  0  0
  -24.7318  -33.4862   24.8999 C   0  0  0  0  0  0  0  0  0  0  0  0
  -26.6080  -16.4682   19.3710 C   0  0  0  0  0  0  0  0  0  0  0  0
  -25.9733  -35.4486   25.2605 C   0  0  0  0  0  0  0  0  0  0  0  0
  -28.1855  -37.0295   24.6367 C   0  0  0  0  0  0  0  0  0  0  0  0
  -26.9038  -35.7673   26.2495 C   0  0  0  0  0  0  0  0  0  0  0  0
  -25.5176  -19.5782   23.0111 C   0  0  0  0  0  0  0  0  0  0  0  0
  -26.2797  -21.8951   21.6570 C   0  0  0  0  0  0  0  0  0  0  0  0
  -24.2845  -29.8281   22.8223 C   0  0  0  0  0  0  0  0  0  0  0  0
  -24.4597  -28.1759   21.3821 C   0  0  0  0  0  0  0  0  0  0  0  0
  -29.5407  -20.6913   18.7595 C   0  0  0  0  0  0  0  0  0  0  0  0
  -29.9054  -21.8293   18.1497 C   0  0  0  0  0  0  0  0  0  0  0  0
  -25.9262  -30.1334   20.8661 C   0  0  0  0  0  0  0  0  0  0  0  0
  -22.7002  -12.8794   20.5174 C   0  0  0  0  0  0  0  0  0  0  0  0
  -20.6233  -15.3625   20.7240 C   0  0  0  0  0  0  0  0  0  0  0  0
  -20.5039  -18.7948   19.6182 C   0  0  0  0  0  0  0  0  0  0  0  0
  -22.9756  -23.0737   23.0459 C   0  0  0  0  0  0  0  0  0  0  0  0
  -22.8748   -8.0137   22.0509 C   0  0  0  0  0  0  0  0  0  0  0  0
  -23.9341  -14.4401   22.0659 C   0  0  0  0  0  0  0  0  0  0  0  0
  -22.8739  -15.8564   19.6963 C   0  0  0  0  0  0  0  0  0  0  0  0
  -30.3913  -19.4503   18.7565 C   0  0  0  0  0  0  0  0  0  0  0  0
  -21.7711   -9.0180   21.7288 C   0  0  0  0  0  0  0  0  0  0  0  0
  -29.5704  -18.2460   18.3112 C   0  0  0  0  0  0  0  0  0  0  0  0
  -20.5625  -25.6656   23.4147 C   0  0  0  0  0  0  0  0  0  0  0  0
  -22.0410   -9.6965   20.3896 C   0  0  0  0  0  0  0  0  0  0  0  0
  -21.3705  -26.9469   23.1969 C   0  0  0  0  0  0  0  0  0  0  0  0
  -21.3699  -24.6063   24.1629 C   0  0  0  0  0  0  0  0  0  0  0  0
  -23.4869  -25.5751   23.3576 C   0  0  0  0  0  0  0  0  0  0  0  0
  -27.4579  -19.4647   18.9568 C   0  0  0  0  0  0  0  0  0  0  0  0
  -23.3578  -10.4816   20.4244 C   0  0  1  0  0  0  0  0  0  0  0  0
  -22.5963  -14.0632   21.4370 C   0  0  1  0  0  0  0  0  0  0  0  0
  -22.7376  -26.6480   22.5508 C   0  0  2  0  0  0  0  0  0  0  0  0
  -28.2470  -18.1629   19.0715 C   0  0  1  0  0  0  0  0  0  1  0  0
  -29.0789  -23.0686   18.1406 C   0  0  0  0  0  0  0  0  0  0  0  0
  -19.2856  -20.7730   20.5667 C   0  0  0  0  0  0  0  0  0  0  0  0
  -18.4449  -14.6143   18.7228 C   0  0  0  0  0  0  0  0  0  0  0  0
  -18.0664  -17.0574   18.3272 C   0  0  0  0  0  0  0  0  0  0  0  0
  -17.6814  -16.0884   20.5934 C   0  0  0  0  0  0  0  0  0  0  0  0
  -22.9966  -20.3766   19.8266 C   0  0  0  0  0  0  0  0  0  0  0  0
  -28.4165  -20.7652   20.9058 C   0  0  0  0  0  0  0  0  0  0  0  0
  -20.0483  -16.3596   19.7471 C   0  0  1  0  0  0  0  0  0  0  0  0
  -20.6125  -20.0341   20.4881 C   0  0  2  0  0  0  0  0  0  0  0  0
  -18.5860  -16.0184   19.3438 C   0  0  0  0  0  0  0  0  0  0  0  0
  -23.4349  -28.9008   23.2721 N   0  0  0  0  0  0  0  0  0  0  0  0
  -23.5639  -27.9083   22.3751 N   0  0  0  0  0  0  0  0  0  0  0  0
  -22.0087  -15.1568   20.6605 N   0  0  0  0  0  0  0  0  0  0  0  0
  -22.6500  -24.3724   23.4910 N   0  0  0  0  0  0  0  0  0  0  0  0
  -24.7111  -27.2862   20.3984 N   0  0  0  0  0  0  0  0  0  0  0  0
  -25.4800  -30.9568   19.8234 N   0  0  0  0  0  0  0  0  0  0  0  0
  -24.2038  -22.9793   22.3923 N   0  0  0  0  0  0  0  0  0  0  0  0
  -23.1804  -11.7352   21.1254 N   0  0  0  0  0  0  0  0  0  0  0  0
  -20.2076  -17.6726   20.3627 N   0  0  0  0  0  0  0  0  0  0  0  0
  -28.2555  -20.6614   19.4144 N   0  3  1  0  0  0  0  0  0  0  0  0
  -21.6372  -20.9655   19.9372 N   0  3  0  0  0  0  0  0  0  0  0  0
  -27.1579  -30.0210   21.0756 O   0  0  0  0  0  0  0  0  0  0  0  0
  -22.3679  -12.9952   19.3436 O   0  0  0  0  0  0  0  0  0  0  0  0
  -19.8718  -14.7927   21.5192 O   0  0  0  0  0  0  0  0  0  0  0  0
  -20.6622  -18.8203   18.3997 O   0  0  0  0  0  0  0  0  0  0  0  0
  -22.2083  -22.1211   23.2068 O   0  0  0  0  0  0  0  0  0  0  0  0
  -24.8751  -34.6632   25.5683 O   0  0  0  0  0  0  0  0  0  0  0  0
  -27.4544  -17.1134   18.5229 O   0  0  0  0  0  0  0  0  0  1  0  0
  -29.2485  -37.7874   24.3368 F   0  0  0  0  0  0  0  0  0  0  0  0
  -26.7411  -35.3160   27.5008 F   0  0  0  0  0  0  0  0  0  0  0  0
  -25.0474  -18.1487   23.8463 Cl  0  0  0  0  0  0  0  0  0  0  0  0
  -26.7588  -23.3320   20.8135 Cl  0  0  0  0  0  0  0  0  0  0  0  0
  1  2  1  0  0  0  0
  1  5  2  0  0  0  0
  2  6  2  0  0  0  0
  3  8  2  0  0  0  0
  3 17  1  0  0  0  0
  4  9  1  0  0  0  0
  4 17  2  0  0  0  0
  5 19  1  0  0  0  0
  6 21  1  0  0  0  0
  7 10  2  0  0  0  0
  7 20  1  0  0  0  0
  8 25  1  0  0  0  0
  9 25  2  0  0  0  0
 10 26  1  0  0  0  0
 11 12  2  0  0  0  0
 11 27  1  0  0  0  0
 12 28  1  0  0  0  0
 13 22  1  0  0  0  0
 13 26  2  0  0  0  0
 14 23  1  0  0  0  0
 14 30  2  0  0  0  0
 15 24  2  0  0  0  0
 15 30  1  0  0  0  0
 16 28  2  0  0  0  0
 16 29  1  0  0  0  0
 17 32  1  0  0  0  0
 18 32  1  0  0  0  0
 18 33  2  0  0  0  0
 18 36  1  0  0  0  0
 19 21  2  0  0  0  0
 19 41  1  0  0  0  0
 20 22  2  0  0  0  0
 20 42  1  0  0  0  0
 21 53  1  0  0  0  0
 22 43  1  0  0  0  0
 23 31  2  0  0  0  0
 23 63  1  0  0  0  0
 24 31  1  0  0  0  0
 24 73  1  0  0  0  0
 25 83  1  0  0  0  0
 26 84  1  0  0  0  0
 27 29  2  0  0  0  0
 27 83  1  0  0  0  0
 28 85  1  0  0  0  0
 29 86  1  0  0  0  0
 30 87  1  0  0  0  0
 31 88  1  0  0  0  0
 32 67  2  0  0  0  0
 33 68  1  0  0  0  0
 33 71  1  0  0  0  0
 34 35  2  0  0  0  0
 34 44  1  0  0  0  0
 34 76  1  0  0  0  0
 35 57  1  0  0  0  0
 36 72  1  0  0  0  0
 36 78  2  0  0  0  0
 37 54  1  0  0  0  0
 37 74  1  0  0  0  0
 37 79  2  0  0  0  0
 38 64  1  0  0  0  0
 38 69  1  0  0  0  0
 38 80  2  0  0  0  0
 39 65  1  0  0  0  0
 39 75  1  0  0  0  0
 39 81  2  0  0  0  0
 40 70  1  0  0  0  0
 40 73  1  0  0  0  0
 40 82  2  0  0  0  0
 41 45  1  0  0  0  0
 42 54  1  0  0  0  0
 43 69  1  0  0  0  0
 44 46  1  0  0  0  0
 45 48  1  0  0  0  0
 46 56  1  0  0  0  0
 47 49  1  0  0  0  0
 47 50  1  0  0  0  0
 48 53  1  0  0  0  0
 49 55  1  0  0  0  0
 50 70  1  0  0  0  0
 51 55  1  0  0  0  0
 51 70  1  0  0  0  0
 52 56  1  0  0  0  0
 52 76  1  0  0  0  0
 53 74  1  0  0  0  0
 54 69  1  0  0  0  0
 55 68  1  0  0  0  0
 56 84  1  0  0  0  0
 58 65  1  0  0  0  0
 59 66  1  0  0  0  0
 60 66  1  0  0  0  0
 61 66  1  0  0  0  0
 62 77  1  0  0  0  0
 63 76  1  0  0  0  0
 64 66  1  0  0  0  0
 64 75  1  0  0  0  0
 65 77  1  0  0  0  0
 67 68  1  0  0  0  0
M  CHG  2  76   1  77   1
M  ISO  4  40 100  56 101  73 100  84 101
M  END
> <Batch ID>
0033

> <Smiles>
CC=C1CC[101CH:1]([101O:1]c2ccc3c(c2)CN(C(=O)C(NC(=O)C(C)NC)C(C)(C)C)C(C(=O)NC2CCCc4ccccc42)C3)CN1Cc1cc(Cl)cc([100NH:0][100C:0](=O)N2CCCC(n3nc(-c4ccc(Oc5ccc(F)cc5F)cc4)c(C(N)=O)c3N)C2)c1Cl

> <Shape>
0.235

> <Color>
0.037

> <Negative vol penalty>
0.000

$$$$

  -OEChem-04042321453D

 85 94  0     1  0  0  0  0  0999 V2000
  -25.7903  -18.7276   23.9599 C   0  0  0  0  0  0  0  0  0  0  0  0
  -26.1750  -19.7495   23.0979 C   0  0  0  0  0  0  0  0  0  0  0  0
  -26.4271  -11.5684   21.2167 C   0  0  0  0  0  0  0  0  0  0  0  0
  -25.5353  -13.3307   19.8253 C   0  0  0  0  0  0  0  0  0  0  0  0
  -24.4591  -18.6184   24.3596 C   0  0  0  0  0  0  0  0  0  0  0  0
  -25.2282  -20.6623   22.6342 C   0  0  0  0  0  0  0  0  0  0  0  0
  -26.8823  -25.4447   22.8290 C   0  0  0  0  0  0  0  0  0  0  0  0
  -26.8423  -22.1355   16.5940 C   0  0  0  0  0  0  0  0  0  0  0  0
  -26.0510  -21.0974   17.0855 C   0  0  0  0  0  0  0  0  0  0  0  0
  -25.1343  -11.1022   21.4549 C   0  0  0  0  0  0  0  0  0  0  0  0
  -24.2424  -12.8643   20.0634 C   0  0  0  0  0  0  0  0  0  0  0  0
  -27.7595  -25.8563   21.8266 C   0  0  0  0  0  0  0  0  0  0  0  0
  -22.8125   -9.2580   19.8297 C   0  0  0  0  0  0  0  0  0  0  0  0
  -22.5930   -7.8833   19.7431 C   0  0  0  0  0  0  0  0  0  0  0  0
  -25.9305  -26.9260   20.6735 C   0  0  0  0  0  0  0  0  0  0  0  0
  -28.6546  -21.4337   18.0292 C   0  0  0  0  0  0  0  0  0  0  0  0
  -21.8734   -7.8529   22.0492 C   0  0  0  0  0  0  0  0  0  0  0  0
  -26.6276  -12.6827   20.4020 C   0  0  0  0  0  0  0  0  0  0  0  0
  -29.0245  -12.4608   19.5572 C   0  0  0  0  0  0  0  0  0  0  0  0
  -23.4974  -19.5361   23.9083 C   0  0  0  0  0  0  0  0  0  0  0  0
  -25.5183  -25.7618   22.7555 C   0  0  0  0  0  0  0  0  0  0  0  0
  -23.8826  -20.5645   23.0272 C   0  0  0  0  0  0  0  0  0  0  0  0
  -25.0384  -26.5194   21.6776 C   0  0  0  0  0  0  0  0  0  0  0  0
  -28.1442  -22.3037   17.0658 C   0  0  0  0  0  0  0  0  0  0  0  0
  -26.5614  -20.2274   18.0490 C   0  0  0  0  0  0  0  0  0  0  0  0
  -27.8633  -20.3956   18.5208 C   0  0  0  0  0  0  0  0  0  0  0  0
  -24.0419  -11.7501   20.8783 C   0  0  0  0  0  0  0  0  0  0  0  0
  -27.2832  -26.5947   20.7472 C   0  0  0  0  0  0  0  0  0  0  0  0
  -22.5625   -9.9302   21.0261 C   0  0  0  0  0  0  0  0  0  0  0  0
  -22.1234   -7.1807   20.8528 C   0  0  0  0  0  0  0  0  0  0  0  0
  -22.0929   -9.2277   22.1358 C   0  0  0  0  0  0  0  0  0  0  0  0
  -27.9628  -13.1652   20.1560 C   0  0  0  0  0  0  0  0  0  0  0  0
  -30.0697  -13.3519   19.5548 C   0  0  0  0  0  0  0  0  0  0  0  0
  -29.0624  -11.1208   19.0486 C   0  0  0  0  0  0  0  0  0  0  0  0
  -22.8305  -24.0759   22.5622 C   0  0  0  0  0  0  0  0  0  0  0  0
  -21.4395  -26.9885   22.8842 C   0  0  0  0  0  0  0  0  0  0  0  0
  -21.9824  -30.3211   21.6127 C   0  0  0  0  0  0  0  0  0  0  0  0
  -29.6757  -19.5573   20.0676 C   0  0  0  0  0  0  0  0  0  0  0  0
  -22.0615  -19.3493   24.3303 C   0  0  0  0  0  0  0  0  0  0  0  0
  -24.5897  -25.3332   23.8585 C   0  0  0  0  0  0  0  0  0  0  0  0
  -23.5866  -26.9033   21.5621 C   0  0  0  0  0  0  0  0  0  0  0  0
  -21.1913  -20.5805   24.0909 C   0  0  0  0  0  0  0  0  0  0  0  0
  -31.5108  -17.1539   22.1924 C   0  0  0  0  0  0  0  0  0  0  0  0
  -28.2097  -27.1282   16.0209 C   0  0  0  0  0  0  0  0  0  0  0  0
  -21.4329  -21.1413   22.6931 C   0  0  0  0  0  0  0  0  0  0  0  0
  -31.1026  -15.7619   21.7076 C   0  0  0  0  0  0  0  0  0  0  0  0
  -28.3366  -27.6065   17.4613 C   0  0  0  0  0  0  0  0  0  0  0  0
  -31.4877  -18.1974   21.0840 C   0  0  0  0  0  0  0  0  0  0  0  0
  -29.4371  -17.0229   20.2556 C   0  0  0  0  0  0  0  0  0  0  0  0
  -28.9257  -25.8028   15.8033 C   0  0  0  0  0  0  0  0  0  0  0  0
  -28.5836  -25.2132   18.2169 C   0  0  0  0  0  0  0  0  0  0  0  0
  -22.8896  -21.5888   22.5223 C   0  0  1  0  0  0  0  0  0  0  0  0
  -23.1297  -25.2724   23.4205 C   0  0  1  0  0  0  0  0  0  0  0  0
  -30.3432  -15.7871   20.3705 C   0  0  2  0  0  0  0  0  0  0  0  0
  -27.8694  -26.5388   18.4457 C   0  0  1  0  0  0  0  0  0  1  0  0
  -25.6908  -19.1248   18.5582 C   0  0  0  0  0  0  0  0  0  0  0  0
  -21.3983  -32.5564   22.5924 C   0  0  0  0  0  0  0  0  0  0  0  0
  -18.9011  -26.7349   21.2103 C   0  0  0  0  0  0  0  0  0  0  0  0
  -19.0567  -29.1869   20.7292 C   0  0  0  0  0  0  0  0  0  0  0  0
  -18.7590  -28.3945   23.0757 C   0  0  0  0  0  0  0  0  0  0  0  0
  -24.7813  -31.2643   21.4253 C   0  0  0  0  0  0  0  0  0  0  0  0
  -28.9947  -23.4205   16.5363 C   0  0  0  0  0  0  0  0  0  0  0  0
  -20.9900  -28.0698   21.9314 C   0  0  1  0  0  0  0  0  0  0  0  0
  -22.4926  -31.5194   22.3925 C   0  0  2  0  0  0  0  0  0  0  0  0
  -19.4483  -28.0791   21.7303 C   0  0  0  0  0  0  0  0  0  0  0  0
  -28.3025  -14.4079   20.5085 N   0  0  0  0  0  0  0  0  0  0  0  0
  -29.5894  -14.4914   20.1302 N   0  0  0  0  0  0  0  0  0  0  0  0
  -22.7172  -26.4554   22.6625 N   0  0  0  0  0  0  0  0  0  0  0  0
  -30.1654  -18.2870   20.4580 N   0  0  0  0  0  0  0  0  0  0  0  0
  -31.3435  -13.2640   19.1167 N   0  0  0  0  0  0  0  0  0  0  0  0
  -28.7278  -10.9066   17.7045 N   0  0  0  0  0  0  0  0  0  0  0  0
  -28.4000  -19.5217   19.4988 N   0  0  0  0  0  0  0  0  0  0  0  0
  -23.1054  -22.8653   23.1691 N   0  0  0  0  0  0  0  0  0  0  0  0
  -21.5327  -29.3213   22.4490 N   0  0  0  0  0  0  0  0  0  0  0  0
  -28.4025  -24.7805   16.7842 N   0  3  2  0  0  0  0  0  0  0  0  0
  -23.6248  -32.1643   21.6691 N   0  3  0  0  0  0  0  0  0  0  0  0
  -29.3675  -10.1403   19.7691 O   0  0  0  0  0  0  0  0  0  0  0  0
  -22.3821  -24.2389   21.4335 O   0  0  0  0  0  0  0  0  0  0  0  0
  -20.6876  -26.6351   23.7960 O   0  0  0  0  0  0  0  0  0  0  0  0
  -21.9793  -30.2779   20.3844 O   0  0  0  0  0  0  0  0  0  0  0  0
  -30.3329  -20.5859   20.2411 O   0  0  0  0  0  0  0  0  0  0  0  0
  -22.7802  -11.2952   21.1102 O   0  0  0  0  0  0  0  0  0  0  0  0
  -28.1371  -26.9972   19.7671 O   0  0  0  0  0  0  0  0  0  1  0  0
  -21.9112   -5.8608   20.7691 F   0  0  0  0  0  0  0  0  0  0  0  0
  -21.8498   -9.8682   23.2876 F   0  0  0  0  0  0  0  0  0  0  0  0
  1  2  1  0  0  0  0
  1  5  2  0  0  0  0
  2  6  2  0  0  0  0
  3 10  2  0  0  0  0
  3 18  1  0  0  0  0
  4 11  1  0  0  0  0
  4 18  2  0  0  0  0
  5 20  1  0  0  0  0
  6 22  1  0  0  0  0
  7 12  2  0  0  0  0
  7 21  1  0  0  0  0
  8  9  2  0  0  0  0
  8 24  1  0  0  0  0
  9 25  1  0  0  0  0
 10 27  1  0  0  0  0
 11 27  2  0  0  0  0
 12 28  1  0  0  0  0
 13 14  2  0  0  0  0
 13 29  1  0  0  0  0
 14 30  1  0  0  0  0
 15 23  1  0  0  0  0
 15 28  2  0  0  0  0
 16 24  2  0  0  0  0
 16 26  1  0  0  0  0
 17 30  2  0  0  0  0
 17 31  1  0  0  0  0
 18 32  1  0  0  0  0
 19 32  1  0  0  0  0
 19 33  2  0  0  0  0
 19 34  1  0  0  0  0
 20 22  2  0  0  0  0
 20 39  1  0  0  0  0
 21 23  2  0  0  0  0
 21 40  1  0  0  0  0
 22 52  1  0  0  0  0
 23 41  1  0  0  0  0
 24 62  1  0  0  0  0
 25 26  2  0  0  0  0
 25 56  1  0  0  0  0
 26 72  1  0  0  0  0
 27 82  1  0  0  0  0
 28 83  1  0  0  0  0
 29 31  2  0  0  0  0
 29 82  1  0  0  0  0
 30 84  1  0  0  0  0
 31 85  1  0  0  0  0
 32 66  2  0  0  0  0
 33 67  1  0  0  0  0
 33 70  1  0  0  0  0
 34 71  1  0  0  0  0
 34 77  2  0  0  0  0
 35 53  1  0  0  0  0
 35 73  1  0  0  0  0
 35 78  2  0  0  0  0
 36 63  1  0  0  0  0
 36 68  1  0  0  0  0
 36 79  2  0  0  0  0
 37 64  1  0  0  0  0
 37 74  1  0  0  0  0
 37 80  2  0  0  0  0
 38 69  1  0  0  0  0
 38 72  1  0  0  0  0
 38 81  2  0  0  0  0
 39 42  1  0  0  0  0
 40 53  1  0  0  0  0
 41 68  1  0  0  0  0
 42 45  1  0  0  0  0
 43 46  1  0  0  0  0
 43 48  1  0  0  0  0
 44 47  1  0  0  0  0
 44 50  1  0  0  0  0
 45 52  1  0  0  0  0
 46 54  1  0  0  0  0
 47 55  1  0  0  0  0
 48 69  1  0  0  0  0
 49 54  1  0  0  0  0
 49 69  1  0  0  0  0
 50 75  1  0  0  0  0
 51 55  1  0  0  0  0
 51 75  1  0  0  0  0
 52 73  1  0  0  0  0
 53 68  1  0  0  0  0
 54 67  1  0  0  0  0
 55 83  1  0  0  0  0
 57 64  1  0  0  0  0
 58 65  1  0  0  0  0
 59 65  1  0  0  0  0
 60 65  1  0  0  0  0
 61 76  1  0  0  0  0
 62 75  1  0  0  0  0
 63 65  1  0  0  0  0
 63 74  1  0  0  0  0
 64 76  1  0  0  0  0
 66 67  1  0  0  0  0
M  CHG  2  75   1  76   1
M  ISO  4  38 100  55 101  72 100  83 101
M  END
> <Batch ID>
0033

> <Smiles>
CNC(C)C(=O)NC(C(=O)N1Cc2cc([101O:1][101CH:1]3CCCN(Cc4ccc(C)c([100NH:0][100C:0](=O)N5CCCC(n6nc(-c7ccc(Oc8ccc(F)cc8F)cc7)c(C(N)=O)c6N)C5)c4)C3)ccc2CC1C(=O)NC1CCCc2ccccc21)C(C)(C)C

> <Shape>
0.255

> <Color>
0.071

> <Negative vol penalty>
0.000

$$$$

  -OEChem-04042321453D

 88 97  0     1  0  0  0  0  0999 V2000
  -27.6314  -23.6715   14.2217 C   0  0  0  0  0  0  0  0  0  0  0  0
  -26.5797  -23.8976   15.1039 C   0  0  0  0  0  0  0  0  0  0  0  0
  -25.6907  -11.3575   21.9484 C   0  0  0  0  0  0  0  0  0  0  0  0
  -25.3258  -12.6496   23.9570 C   0  0  0  0  0  0  0  0  0  0  0  0
  -28.9480  -23.7470   14.6743 C   0  0  0  0  0  0  0  0  0  0  0  0
  -26.8441  -24.1982   16.4397 C   0  0  0  0  0  0  0  0  0  0  0  0
  -24.0218  -28.0334   18.1632 C   0  0  0  0  0  0  0  0  0  0  0  0
  -24.7198  -23.0496   21.7219 C   0  0  0  0  0  0  0  0  0  0  0  0
  -23.3665  -23.3010   21.9475 C   0  0  0  0  0  0  0  0  0  0  0  0
  -25.7016  -10.1853   22.7044 C   0  0  0  0  0  0  0  0  0  0  0  0
  -25.3366  -11.4774   24.7130 C   0  0  0  0  0  0  0  0  0  0  0  0
  -22.6980  -27.7502   18.4964 C   0  0  0  0  0  0  0  0  0  0  0  0
  -23.4369   -8.1336   24.1517 C   0  0  0  0  0  0  0  0  0  0  0  0
  -22.7089   -7.0454   23.6708 C   0  0  0  0  0  0  0  0  0  0  0  0
  -23.3138  -27.6428   20.8263 C   0  0  0  0  0  0  0  0  0  0  0  0
  -24.7340   -5.7309   23.5796 C   0  0  0  0  0  0  0  0  0  0  0  0
  -25.5029  -12.5896   22.5747 C   0  0  0  0  0  0  0  0  0  0  0  0
  -24.3766  -14.4166   21.1959 C   0  0  0  0  0  0  0  0  0  0  0  0
  -29.2288  -24.0581   16.0141 C   0  0  0  0  0  0  0  0  0  0  0  0
  -25.0052  -28.1128   19.1597 C   0  0  0  0  0  0  0  0  0  0  0  0
  -28.1656  -24.2765   16.9109 C   0  0  0  0  0  0  0  0  0  0  0  0
  -24.6489  -27.9297   20.5034 C   0  0  0  0  0  0  0  0  0  0  0  0
  -25.1047  -22.1099   20.7656 C   0  0  0  0  0  0  0  0  0  0  0  0
  -22.3980  -22.6127   21.2168 C   0  0  0  0  0  0  0  0  0  0  0  0
  -24.1362  -21.4215   20.0349 C   0  0  0  0  0  0  0  0  0  0  0  0
  -22.7828  -21.6729   20.2606 C   0  0  0  0  0  0  0  0  0  0  0  0
  -25.5245  -10.2453   24.0867 C   0  0  0  0  0  0  0  0  0  0  0  0
  -22.3443  -27.5520   19.8278 C   0  0  0  0  0  0  0  0  0  0  0  0
  -24.8135   -8.0206   24.3464 C   0  0  0  0  0  0  0  0  0  0  0  0
  -23.3574   -5.8440   23.3848 C   0  0  0  0  0  0  0  0  0  0  0  0
  -25.4620   -6.8192   24.0604 C   0  0  0  0  0  0  0  0  0  0  0  0
  -25.4921  -13.8009   21.7944 C   0  0  0  0  0  0  0  0  0  0  0  0
  -24.8904  -15.5288   20.5749 C   0  0  0  0  0  0  0  0  0  0  0  0
  -19.1335  -24.3993   20.8879 C   0  0  0  0  0  0  0  0  0  0  0  0
  -17.9905  -23.7253   21.0571 C   0  0  0  0  0  0  0  0  0  0  0  0
  -22.9991  -14.0190   21.2009 C   0  0  0  0  0  0  0  0  0  0  0  0
  -27.6714  -26.5100   19.8127 C   0  0  0  0  0  0  0  0  0  0  0  0
  -28.0187  -28.7880   22.0958 C   0  0  0  0  0  0  0  0  0  0  0  0
  -26.5475  -31.1042   24.1249 C   0  0  0  0  0  0  0  0  0  0  0  0
  -28.2153  -20.0110   20.5888 C   0  0  0  0  0  0  0  0  0  0  0  0
  -30.6669  -24.0819   16.4677 C   0  0  0  0  0  0  0  0  0  0  0  0
  -26.4238  -28.4455   18.7864 C   0  0  0  0  0  0  0  0  0  0  0  0
  -25.6631  -28.0242   21.6128 C   0  0  0  0  0  0  0  0  0  0  0  0
  -19.3124  -25.8736   21.0677 C   0  0  0  0  0  0  0  0  0  0  0  0
  -30.8699  -24.7746   17.8128 C   0  0  0  0  0  0  0  0  0  0  0  0
  -29.6822  -16.8914   19.6982 C   0  0  0  0  0  0  0  0  0  0  0  0
  -29.8349  -24.2912   18.8238 C   0  0  0  0  0  0  0  0  0  0  0  0
  -28.6339  -15.8605   20.1204 C   0  0  0  0  0  0  0  0  0  0  0  0
  -29.7451  -18.0644   20.6739 C   0  0  0  0  0  0  0  0  0  0  0  0
  -27.4043  -17.6965   21.3517 C   0  0  0  0  0  0  0  0  0  0  0  0
  -21.1831  -24.8703   19.9240 C   0  0  0  0  0  0  0  0  0  0  0  0
  -28.4125  -24.6296   18.3616 C   0  0  1  0  0  0  0  0  0  0  0  0
  -27.4385  -27.9943   19.8325 C   0  0  1  0  0  0  0  0  0  0  0  0
  -27.2648  -16.5220   20.3681 C   0  0  2  0  0  0  0  0  0  0  0  0
  -20.8048  -26.0458   20.8150 C   0  0  1  0  0  0  0  0  0  1  0  0
  -24.5518  -20.4153   19.0091 C   0  0  0  0  0  0  0  0  0  0  0  0
  -21.7427  -20.9344   19.4790 C   0  0  0  0  0  0  0  0  0  0  0  0
  -17.8551  -22.2522   20.8672 C   0  0  0  0  0  0  0  0  0  0  0  0
  -27.0849  -32.7846   25.9095 C   0  0  0  0  0  0  0  0  0  0  0  0
  -28.3340  -26.5299   24.1236 C   0  0  0  0  0  0  0  0  0  0  0  0
  -27.9136  -28.1984   25.9424 C   0  0  0  0  0  0  0  0  0  0  0  0
  -29.8981  -28.4534   24.4526 C   0  0  0  0  0  0  0  0  0  0  0  0
  -25.5352  -33.3470   22.4805 C   0  0  0  0  0  0  0  0  0  0  0  0
  -26.5606  -21.8600   20.5434 C   0  0  0  0  0  0  0  0  0  0  0  0
  -20.9493  -22.9006   21.4806 C   0  0  0  0  0  0  0  0  0  0  0  0
  -27.5907  -28.9318   23.5364 C   0  0  1  0  0  0  0  0  0  0  0  0
  -26.8957  -32.5523   24.4185 C   0  0  2  0  0  0  0  0  0  0  0  0
  -28.4151  -28.0246   24.4929 C   0  0  0  0  0  0  0  0  0  0  0  0
  -26.6288  -14.4665   21.5734 N   0  0  0  0  0  0  0  0  0  0  0  0
  -26.2303  -15.5120   20.8290 N   0  0  0  0  0  0  0  0  0  0  0  0
  -27.0382  -28.3455   21.1965 N   0  0  0  0  0  0  0  0  0  0  0  0
  -28.4149  -18.6480   20.8638 N   0  0  0  0  0  0  0  0  0  0  0  0
  -24.3223  -16.5095   19.8416 N   0  0  0  0  0  0  0  0  0  0  0  0
  -22.6437  -12.8499   21.8875 N   0  0  0  0  0  0  0  0  0  0  0  0
  -28.1230  -26.0275   18.5991 N   0  0  0  0  0  0  0  0  0  0  0  0
  -27.6710  -30.3552   23.8459 N   0  0  0  0  0  0  0  0  0  0  0  0
  -26.9235  -20.4821   20.7890 N   0  0  0  0  0  0  0  0  0  0  0  0
  -20.3091  -23.7312   20.4052 N   0  3  1  0  0  0  0  0  0  0  0  0
  -25.8115  -33.4539   23.9362 N   0  3  0  0  0  0  0  0  0  0  0  0
  -22.1123  -14.6718   20.6002 O   0  0  0  0  0  0  0  0  0  0  0  0
  -27.4587  -25.8515   20.8240 O   0  0  0  0  0  0  0  0  0  0  0  0
  -29.1782  -29.0650   21.7789 O   0  0  0  0  0  0  0  0  0  0  0  0
  -25.3944  -30.6792   24.1449 O   0  0  0  0  0  0  0  0  0  0  0  0
  -29.1199  -20.7518   20.1890 O   0  0  0  0  0  0  0  0  0  0  0  0
  -25.5348   -9.1016   24.8246 O   0  0  0  0  0  0  0  0  0  0  0  0
  -21.0530  -27.2748   20.1558 O   0  0  0  0  0  0  0  0  0  1  0  0
  -22.6578   -4.7985   22.9245 F   0  0  0  0  0  0  0  0  0  0  0  0
  -26.7841   -6.7042   24.2466 F   0  0  0  0  0  0  0  0  0  0  0  0
  1  2  1  0  0  0  0
  1  5  2  0  0  0  0
  2  6  2  0  0  0  0
  3 10  2  0  0  0  0
  3 17  1  0  0  0  0
  4 11  1  0  0  0  0
  4 17  2  0  0  0  0
  5 19  1  0  0  0  0
  6 21  1  0  0  0  0
  7 12  2  0  0  0  0
  7 20  1  0  0  0  0
  8  9  2  0  0  0  0
  8 23  1  0  0  0  0
  9 24  1  0  0  0  0
 10 27  1  0  0  0  0
 11 27  2  0  0  0  0
 12 28  1  0  0  0  0
 13 14  2  0  0  0  0
 13 29  1  0  0  0  0
 14 30  1  0  0  0  0
 15 22  1  0  0  0  0
 15 28  2  0  0  0  0
 16 30  2  0  0  0  0
 16 31  1  0  0  0  0
 17 32  1  0  0  0  0
 18 32  1  0  0  0  0
 18 33  2  0  0  0  0
 18 36  1  0  0  0  0
 19 21  2  0  0  0  0
 19 41  1  0  0  0  0
 20 22  2  0  0  0  0
 20 42  1  0  0  0  0
 21 52  1  0  0  0  0
 22 43  1  0  0  0  0
 23 25  2  0  0  0  0
 23 64  1  0  0  0  0
 24 26  2  0  0  0  0
 24 65  1  0  0  0  0
 25 26  1  0  0  0  0
 25 56  1  0  0  0  0
 26 57  1  0  0  0  0
 27 85  1  0  0  0  0
 28 86  1  0  0  0  0
 29 31  2  0  0  0  0
 29 85  1  0  0  0  0
 30 87  1  0  0  0  0
 31 88  1  0  0  0  0
 32 69  2  0  0  0  0
 33 70  1  0  0  0  0
 33 73  1  0  0  0  0
 34 35  2  0  0  0  0
 34 44  1  0  0  0  0
 34 78  1  0  0  0  0
 35 58  1  0  0  0  0
 36 74  1  0  0  0  0
 36 80  2  0  0  0  0
 37 53  1  0  0  0  0
 37 75  1  0  0  0  0
 37 81  2  0  0  0  0
 38 66  1  0  0  0  0
 38 71  1  0  0  0  0
 38 82  2  0  0  0  0
 39 67  1  0  0  0  0
 39 76  1  0  0  0  0
 39 83  2  0  0  0  0
 40 72  1  0  0  0  0
 40 77  1  0  0  0  0
 40 84  2  0  0  0  0
 41 45  1  0  0  0  0
 42 53  1  0  0  0  0
 43 71  1  0  0  0  0
 44 55  1  0  0  0  0
 45 47  1  0  0  0  0
 46 48  1  0  0  0  0
 46 49  1  0  0  0  0
 47 52  1  0  0  0  0
 48 54  1  0  0  0  0
 49 72  1  0  0  0  0
 50 54  1  0  0  0  0
 50 72  1  0  0  0  0
 51 55  1  0  0  0  0
 51 78  1  0  0  0  0
 52 75  1  0  0  0  0
 53 71  1  0  0  0  0
 54 70  1  0  0  0  0
 55 86  1  0  0  0  0
 59 67  1  0  0  0  0
 60 68  1  0  0  0  0
 61 68  1  0  0  0  0
 62 68  1  0  0  0  0
 63 79  1  0  0  0  0
 64 77  1  0  0  0  0
 65 78  1  0  0  0  0
 66 68  1  0  0  0  0
 66 76  1  0  0  0  0
 67 79  1  0  0  0  0
 69 70  1  0  0  0  0
M  CHG  2  78   1  79   1
M  ISO  4  40 100  55 101  77 100  86 101
M  END
> <Batch ID>
0033

> <Smiles>
CC=C1C[101CH:1]([101O:1]c2ccc3c(c2)CN(C(=O)C(NC(=O)C(C)NC)C(C)(C)C)C(C(=O)NC2CCCc4ccccc42)C3)CN1Cc1ccc(C[100NH:0][100C:0](=O)N2CCCC(n3nc(-c4ccc(Oc5ccc(F)cc5F)cc4)c(C(N)=O)c3N)C2)c(C)c1C

> <Shape>
0.221

> <Color>
0.081

> <Negative vol penalty>
0.000

$$$$

  -OEChem-04042321453D

 89 98  0     1  0  0  0  0  0999 V2000
  -26.6532  -37.3317   22.1390 C   0  0  0  0  0  0  0  0  0  0  0  0
  -27.2776  -36.1518   21.7472 C   0  0  0  0  0  0  0  0  0  0  0  0
  -22.6697  -10.2473   20.1480 C   0  0  0  0  0  0  0  0  0  0  0  0
  -24.1813   -9.8283   21.9855 C   0  0  0  0  0  0  0  0  0  0  0  0
  -25.5928  -37.2908   23.0433 C   0  0  0  0  0  0  0  0  0  0  0  0
  -26.8426  -34.9304   22.2604 C   0  0  0  0  0  0  0  0  0  0  0  0
  -26.7204  -29.5461   19.3448 C   0  0  0  0  0  0  0  0  0  0  0  0
  -22.1111   -8.9806   20.3186 C   0  0  0  0  0  0  0  0  0  0  0  0
  -23.6227   -8.5616   22.1562 C   0  0  0  0  0  0  0  0  0  0  0  0
  -27.5890  -28.4555   19.3522 C   0  0  0  0  0  0  0  0  0  0  0  0
  -20.8462   -7.2329   23.5512 C   0  0  0  0  0  0  0  0  0  0  0  0
  -20.5481   -6.8277   24.8521 C   0  0  0  0  0  0  0  0  0  0  0  0
  -26.2141  -27.3794   21.0167 C   0  0  0  0  0  0  0  0  0  0  0  0
  -27.4454  -20.8090   18.4904 C   0  0  0  0  0  0  0  0  0  0  0  0
  -22.0520   -4.9521   24.6125 C   0  0  0  0  0  0  0  0  0  0  0  0
  -23.7048  -10.6711   20.9814 C   0  0  0  0  0  0  0  0  0  0  0  0
  -24.9232  -12.4778   19.6551 C   0  0  0  0  0  0  0  0  0  0  0  0
  -25.1383  -36.0674   23.5603 C   0  0  0  0  0  0  0  0  0  0  0  0
  -25.5962  -29.5663   20.1828 C   0  0  0  0  0  0  0  0  0  0  0  0
  -25.7760  -34.8732   23.1734 C   0  0  0  0  0  0  0  0  0  0  0  0
  -25.3314  -28.4703   21.0163 C   0  0  0  0  0  0  0  0  0  0  0  0
  -26.3988  -19.9299   18.7684 C   0  0  0  0  0  0  0  0  0  0  0  0
  -28.3468  -21.1604   19.4953 C   0  0  0  0  0  0  0  0  0  0  0  0
  -28.2015  -20.6326   20.7782 C   0  0  0  0  0  0  0  0  0  0  0  0
  -27.1548  -19.7534   21.0563 C   0  0  0  0  0  0  0  0  0  0  0  0
  -26.2535  -19.4021   20.0514 C   0  0  0  0  0  0  0  0  0  0  0  0
  -22.5876   -8.1378   21.3227 C   0  0  0  0  0  0  0  0  0  0  0  0
  -27.3375  -27.3732   20.1903 C   0  0  0  0  0  0  0  0  0  0  0  0
  -21.7471   -6.4977   22.7808 C   0  0  0  0  0  0  0  0  0  0  0  0
  -21.1510   -5.6873   25.3828 C   0  0  0  0  0  0  0  0  0  0  0  0
  -22.3501   -5.3573   23.3115 C   0  0  0  0  0  0  0  0  0  0  0  0
  -24.2826  -11.9793   20.8053 C   0  0  0  0  0  0  0  0  0  0  0  0
  -25.2899  -13.7574   19.9937 C   0  0  0  0  0  0  0  0  0  0  0  0
  -30.2992  -24.3957   19.3613 C   0  0  0  0  0  0  0  0  0  0  0  0
  -31.5268  -24.2496   19.8740 C   0  0  0  0  0  0  0  0  0  0  0  0
  -25.1651  -11.8412   18.3934 C   0  0  0  0  0  0  0  0  0  0  0  0
  -24.6114  -31.4187   22.5707 C   0  0  0  0  0  0  0  0  0  0  0  0
  -21.9336  -29.6001   22.3603 C   0  0  0  0  0  0  0  0  0  0  0  0
  -20.5022  -26.6493   21.4166 C   0  0  0  0  0  0  0  0  0  0  0  0
  -23.5971  -18.6455   22.3512 C   0  0  0  0  0  0  0  0  0  0  0  0
  -24.0192  -36.0775   24.5715 C   0  0  0  0  0  0  0  0  0  0  0  0
  -24.6545  -30.7385   20.1435 C   0  0  0  0  0  0  0  0  0  0  0  0
  -24.1271  -28.4340   21.9201 C   0  0  0  0  0  0  0  0  0  0  0  0
  -29.8228  -25.5744   18.5713 C   0  0  0  0  0  0  0  0  0  0  0  0
  -23.3751  -34.7095   24.7808 C   0  0  0  0  0  0  0  0  0  0  0  0
  -25.3084  -16.1249   24.4535 C   0  0  0  0  0  0  0  0  0  0  0  0
  -24.4453  -33.6351   24.9460 C   0  0  0  0  0  0  0  0  0  0  0  0
  -25.1779  -14.8516   23.6195 C   0  0  0  0  0  0  0  0  0  0  0  0
  -24.1628  -17.0968   24.1878 C   0  0  0  0  0  0  0  0  0  0  0  0
  -23.8557  -16.1681   21.9168 C   0  0  0  0  0  0  0  0  0  0  0  0
  -27.9788  -24.1446   19.1681 C   0  0  0  0  0  0  0  0  0  0  0  0
  -25.3167  -33.5266   23.6889 C   0  0  1  0  0  0  0  0  0  0  0  0
  -23.8205  -30.8777   21.4134 C   0  0  1  0  0  0  0  0  0  0  0  0
  -25.0193  -15.1875   22.1264 C   0  0  2  0  0  0  0  0  0  0  0  0
  -28.3564  -25.6061   18.9731 C   0  0  1  0  0  0  0  0  0  1  0  0
  -25.4471  -19.5704   17.6746 C   0  0  0  0  0  0  0  0  0  0  0  0
  -29.1692  -21.0117   21.8542 C   0  0  0  0  0  0  0  0  0  0  0  0
  -26.9993  -19.1868   22.4324 C   0  0  0  0  0  0  0  0  0  0  0  0
  -18.3028  -25.4410   21.4070 C   0  0  0  0  0  0  0  0  0  0  0  0
  -22.2334  -29.0357   25.3439 C   0  0  0  0  0  0  0  0  0  0  0  0
  -20.6349  -27.1280   25.0727 C   0  0  0  0  0  0  0  0  0  0  0  0
  -19.8857  -29.4585   24.5929 C   0  0  0  0  0  0  0  0  0  0  0  0
  -23.6700  -20.4249   20.6460 C   0  0  0  0  0  0  0  0  0  0  0  0
  -20.4819  -26.4694   18.4626 C   0  0  0  0  0  0  0  0  0  0  0  0
  -25.1302  -18.4592   20.3468 C   0  0  0  0  0  0  0  0  0  0  0  0
  -29.4642  -22.1071   19.1697 C   0  0  0  0  0  0  0  0  0  0  0  0
  -21.4657  -28.3094   22.9882 C   0  0  1  0  0  0  0  0  0  0  0  0
  -19.2410  -26.3487   20.6269 C   0  0  2  0  0  0  0  0  0  0  0  0
  -21.0788  -28.4841   24.4839 C   0  0  0  0  0  0  0  0  0  0  0  0
  -24.2431  -12.8695   21.8002 N   0  0  0  0  0  0  0  0  0  0  0  0
  -24.8636  -13.9403   21.2763 N   0  0  0  0  0  0  0  0  0  0  0  0
  -23.2396  -29.6066   21.8503 N   0  0  0  0  0  0  0  0  0  0  0  0
  -24.0068  -17.3650   22.7578 N   0  0  0  0  0  0  0  0  0  0  0  0
  -25.9323  -14.7327   19.3166 N   0  0  0  0  0  0  0  0  0  0  0  0
  -26.3574  -11.1241   18.2245 N   0  0  0  0  0  0  0  0  0  0  0  0
  -24.6186  -32.7982   22.6514 N   0  0  0  0  0  0  0  0  0  0  0  0
  -20.3832  -27.8141   22.1449 N   0  0  0  0  0  0  0  0  0  0  0  0
  -24.0581  -19.0992   21.1061 N   0  0  0  0  0  0  0  0  0  0  0  0
  -29.2431  -23.4862   19.7143 N   0  3  1  0  0  0  0  0  0  0  0  0
  -19.5828  -25.6776   19.3409 N   0  3  0  0  0  0  0  0  0  0  0  0
  -24.3556  -11.9200   17.4384 O   0  0  0  0  0  0  0  0  0  0  0  0
  -25.1723  -30.6421   23.3349 O   0  0  0  0  0  0  0  0  0  0  0  0
  -21.1660  -30.5648   22.3174 O   0  0  0  0  0  0  0  0  0  0  0  0
  -21.4923  -25.9216   21.3929 O   0  0  0  0  0  0  0  0  0  0  0  0
  -22.8690  -19.3472   23.0649 O   0  0  0  0  0  0  0  0  0  0  0  0
  -22.0426   -6.9018   21.4896 O   0  0  0  0  0  0  0  0  0  0  0  0
  -28.1840  -26.3078   20.1999 O   0  0  0  0  0  0  0  0  0  1  0  0
  -20.8658   -5.2991   26.6327 F   0  0  0  0  0  0  0  0  0  0  0  0
  -23.2173   -4.6476   22.5766 F   0  0  0  0  0  0  0  0  0  0  0  0
  1  2  1  0  0  0  0
  1  5  2  0  0  0  0
  2  6  2  0  0  0  0
  3  8  2  0  0  0  0
  3 16  1  0  0  0  0
  4  9  1  0  0  0  0
  4 16  2  0  0  0  0
  5 18  1  0  0  0  0
  6 20  1  0  0  0  0
  7 10  2  0  0  0  0
  7 19  1  0  0  0  0
  8 27  1  0  0  0  0
  9 27  2  0  0  0  0
 10 28  1  0  0  0  0
 11 12  2  0  0  0  0
 11 29  1  0  0  0  0
 12 30  1  0  0  0  0
 13 21  1  0  0  0  0
 13 28  2  0  0  0  0
 14 22  2  0  0  0  0
 14 23  1  0  0  0  0
 15 30  2  0  0  0  0
 15 31  1  0  0  0  0
 16 32  1  0  0  0  0
 17 32  1  0  0  0  0
 17 33  2  0  0  0  0
 17 36  1  0  0  0  0
 18 20  2  0  0  0  0
 18 41  1  0  0  0  0
 19 21  2  0  0  0  0
 19 42  1  0  0  0  0
 20 52  1  0  0  0  0
 21 43  1  0  0  0  0
 22 26  1  0  0  0  0
 22 56  1  0  0  0  0
 23 24  2  0  0  0  0
 23 66  1  0  0  0  0
 24 25  1  0  0  0  0
 24 57  1  0  0  0  0
 25 26  2  0  0  0  0
 25 58  1  0  0  0  0
 26 65  1  0  0  0  0
 27 86  1  0  0  0  0
 28 87  1  0  0  0  0
 29 31  2  0  0  0  0
 29 86  1  0  0  0  0
 30 88  1  0  0  0  0
 31 89  1  0  0  0  0
 32 70  2  0  0  0  0
 33 71  1  0  0  0  0
 33 74  1  0  0  0  0
 34 35  2  0  0  0  0
 34 44  1  0  0  0  0
 34 79  1  0  0  0  0
 36 75  1  0  0  0  0
 36 81  2  0  0  0  0
 37 53  1  0  0  0  0
 37 76  1  0  0  0  0
 37 82  2  0  0  0  0
 38 67  1  0  0  0  0
 38 72  1  0  0  0  0
 38 83  2  0  0  0  0
 39 68  1  0  0  0  0
 39 77  1  0  0  0  0
 39 84  2  0  0  0  0
 40 73  1  0  0  0  0
 40 78  1  0  0  0  0
 40 85  2  0  0  0  0
 41 45  1  0  0  0  0
 42 53  1  0  0  0  0
 43 72  1  0  0  0  0
 44 55  1  0  0  0  0
 45 47  1  0  0  0  0
 46 48  1  0  0  0  0
 46 49  1  0  0  0  0
 47 52  1  0  0  0  0
 48 54  1  0  0  0  0
 49 73  1  0  0  0  0
 50 54  1  0  0  0  0
 50 73  1  0  0  0  0
 51 55  1  0  0  0  0
 51 79  1  0  0  0  0
 52 76  1  0  0  0  0
 53 72  1  0  0  0  0
 54 71  1  0  0  0  0
 55 87  1  0  0  0  0
 59 68  1  0  0  0  0
 60 69  1  0  0  0  0
 61 69  1  0  0  0  0
 62 69  1  0  0  0  0
 63 78  1  0  0  0  0
 64 80  1  0  0  0  0
 65 78  1  0  0  0  0
 66 79  1  0  0  0  0
 67 69  1  0  0  0  0
 67 77  1  0  0  0  0
 68 80  1  0  0  0  0
 70 71  1  0  0  0  0
M  CHG  2  79   1  80   1
M  ISO  4  40 100  55 101  78 100  87 101
M  END
> <Batch ID>
0033

> <Smiles>
C=C1C[101CH:1]([101O:1]c2ccc3c(c2)CN(C(=O)C(NC(=O)C(C)NC)C(C)(C)C)C(C(=O)NC2CCCc4ccccc42)C3)CN1Cc1cc(C)c(C[100N:0](C)[100C:0](=O)N2CCCC(n3nc(-c4ccc(Oc5ccc(F)cc5F)cc4)c(C(N)=O)c3N)C2)c(C)c1C

> <Shape>
0.341

> <Color>
0.110

> <Negative vol penalty>
0.000

$$$$

  -OEChem-04042321453D

 92102  0     1  0  0  0  0  0999 V2000
  -27.2866  -36.8705   23.7353 C   0  0  0  0  0  0  0  0  0  0  0  0
  -27.8269  -35.7417   23.1276 C   0  0  0  0  0  0  0  0  0  0  0  0
  -21.6120  -10.5671   21.7454 C   0  0  0  0  0  0  0  0  0  0  0  0
  -23.8388  -10.5013   20.8103 C   0  0  0  0  0  0  0  0  0  0  0  0
  -26.2378  -36.7369   24.6441 C   0  0  0  0  0  0  0  0  0  0  0  0
  -27.3194  -34.4784   23.4292 C   0  0  0  0  0  0  0  0  0  0  0  0
  -26.8052  -29.7116   19.6189 C   0  0  0  0  0  0  0  0  0  0  0  0
  -21.5638   -9.1732   21.7287 C   0  0  0  0  0  0  0  0  0  0  0  0
  -23.7906   -9.1073   20.7936 C   0  0  0  0  0  0  0  0  0  0  0  0
  -27.6002  -28.5848   19.4136 C   0  0  0  0  0  0  0  0  0  0  0  0
  -22.7571   -6.6169   23.5927 C   0  0  0  0  0  0  0  0  0  0  0  0
  -22.2693   -5.9715   24.7289 C   0  0  0  0  0  0  0  0  0  0  0  0
  -26.1795  -27.3197   20.8969 C   0  0  0  0  0  0  0  0  0  0  0  0
  -25.8393  -20.3683   17.4075 C   0  0  0  0  0  0  0  0  0  0  0  0
  -20.5082   -4.9766   23.4077 C   0  0  0  0  0  0  0  0  0  0  0  0
  -22.7495  -11.2311   21.2861 C   0  0  0  0  0  0  0  0  0  0  0  0
  -23.2628  -13.4936   22.3470 C   0  0  0  0  0  0  0  0  0  0  0  0
  -25.7107  -35.4722   24.9497 C   0  0  0  0  0  0  0  0  0  0  0  0
  -25.6958  -29.6537   20.4747 C   0  0  0  0  0  0  0  0  0  0  0  0
  -26.2634  -34.3276   24.3439 C   0  0  0  0  0  0  0  0  0  0  0  0
  -25.3706  -28.4464   21.1094 C   0  0  0  0  0  0  0  0  0  0  0  0
  -26.9314  -21.2199   17.2410 C   0  0  0  0  0  0  0  0  0  0  0  0
  -27.7338  -20.6207   19.4397 C   0  0  0  0  0  0  0  0  0  0  0  0
  -27.8787  -21.3461   18.2571 C   0  0  0  0  0  0  0  0  0  0  0  0
  -26.6416  -19.7692   19.6062 C   0  0  0  0  0  0  0  0  0  0  0  0
  -25.6944  -19.6430   18.5902 C   0  0  0  0  0  0  0  0  0  0  0  0
  -22.6531   -8.4433   21.2528 C   0  0  0  0  0  0  0  0  0  0  0  0
  -27.2891  -27.3894   20.0549 C   0  0  0  0  0  0  0  0  0  0  0  0
  -22.1205   -6.4423   22.3639 C   0  0  0  0  0  0  0  0  0  0  0  0
  -21.1449   -5.1514   24.6364 C   0  0  0  0  0  0  0  0  0  0  0  0
  -20.9960   -5.6221   22.2714 C   0  0  0  0  0  0  0  0  0  0  0  0
  -22.7997  -12.6710   21.3026 C   0  0  0  0  0  0  0  0  0  0  0  0
  -23.1026  -14.7728   21.8733 C   0  0  0  0  0  0  0  0  0  0  0  0
  -30.0376  -24.4261   18.6445 C   0  0  0  0  0  0  0  0  0  0  0  0
  -31.2595  -24.1154   19.0933 C   0  0  0  0  0  0  0  0  0  0  0  0
  -23.7906  -13.1336   23.6305 C   0  0  0  0  0  0  0  0  0  0  0  0
  -24.8664  -31.1133   23.1738 C   0  0  0  0  0  0  0  0  0  0  0  0
  -22.0723  -29.5310   22.7136 C   0  0  0  0  0  0  0  0  0  0  0  0
  -20.4377  -26.8883   21.3026 C   0  0  0  0  0  0  0  0  0  0  0  0
  -23.5582  -18.5565   17.8138 C   0  0  0  0  0  0  0  0  0  0  0  0
  -24.6081  -35.3735   25.9741 C   0  0  0  0  0  0  0  0  0  0  0  0
  -24.8327  -30.8708   20.6646 C   0  0  0  0  0  0  0  0  0  0  0  0
  -24.1785  -28.3264   22.0221 C   0  0  0  0  0  0  0  0  0  0  0  0
  -29.6293  -25.7531   18.0852 C   0  0  0  0  0  0  0  0  0  0  0  0
  -23.8783  -34.0329   25.9561 C   0  0  0  0  0  0  0  0  0  0  0  0
  -20.6588  -16.4902   17.7866 C   0  0  0  0  0  0  0  0  0  0  0  0
  -29.4063  -20.3309   13.6449 C   0  0  0  0  0  0  0  0  0  0  0  0
  -29.0225  -21.6527   13.0107 C   0  0  0  0  0  0  0  0  0  0  0  0
  -24.8776  -32.8816   25.9042 C   0  0  0  0  0  0  0  0  0  0  0  0
  -20.9954  -15.3800   18.7848 C   0  0  0  0  0  0  0  0  0  0  0  0
  -21.8840  -16.9196   16.9815 C   0  0  0  0  0  0  0  0  0  0  0  0
  -23.3928  -16.1798   18.7831 C   0  0  0  0  0  0  0  0  0  0  0  0
  -28.8336  -20.4559   15.0403 C   0  0  0  0  0  0  0  0  0  0  0  0
  -27.6040  -21.8961   13.4954 C   0  0  0  0  0  0  0  0  0  0  0  0
  -27.7033  -24.3582   18.4672 C   0  0  0  0  0  0  0  0  0  0  0  0
  -25.7234  -32.9425   24.6265 C   0  0  1  0  0  0  0  0  0  0  0  0
  -24.0265  -30.8354   21.9593 C   0  0  1  0  0  0  0  0  0  0  0  0
  -22.2042  -15.7591   19.6628 C   0  0  2  0  0  0  0  0  0  0  0  0
  -28.1737  -25.8048   18.5223 C   0  0  1  0  0  0  0  0  0  1  0  0
  -28.7503  -20.7567   20.5294 C   0  0  0  0  0  0  0  0  0  0  0  0
  -26.4874  -18.9931   20.8769 C   0  0  0  0  0  0  0  0  0  0  0  0
  -18.1637  -25.8402   21.1354 C   0  0  0  0  0  0  0  0  0  0  0  0
  -22.3736  -28.4313   25.5437 C   0  0  0  0  0  0  0  0  0  0  0  0
  -20.6497  -26.7049   24.9816 C   0  0  0  0  0  0  0  0  0  0  0  0
  -20.0491  -29.1256   24.9364 C   0  0  0  0  0  0  0  0  0  0  0  0
  -20.3669  -27.2342   18.3642 C   0  0  0  0  0  0  0  0  0  0  0  0
  -27.0613  -21.9882   15.9666 C   0  0  0  0  0  0  0  0  0  0  0  0
  -29.0515  -22.2639   18.0752 C   0  0  0  0  0  0  0  0  0  0  0  0
  -21.5290  -28.1815   23.1168 C   0  0  1  0  0  0  0  0  0  0  0  0
  -19.1493  -26.8110   20.5036 C   0  0  2  0  0  0  0  0  0  0  0  0
  -21.1740  -28.1133   24.6290 C   0  0  0  0  0  0  0  0  0  0  0  0
  -22.3768  -13.3691   20.2452 N   0  0  0  0  0  0  0  0  0  0  0  0
  -22.5735  -14.6438   20.6228 N   0  0  0  0  0  0  0  0  0  0  0  0
  -23.3691  -29.5459   22.1807 N   0  0  0  0  0  0  0  0  0  0  0  0
  -22.9874  -17.2678   17.8794 N   0  0  0  0  0  0  0  0  0  0  0  0
  -23.3639  -15.9843   22.4086 N   0  0  0  0  0  0  0  0  0  0  0  0
  -23.8863  -11.7737   23.9560 N   0  0  0  0  0  0  0  0  0  0  0  0
  -24.5778  -18.7832   18.7377 N   0  0  0  0  0  0  0  0  0  0  0  0
  -24.9653  -32.4537   23.4948 N   0  0  0  0  0  0  0  0  0  0  0  0
  -20.4052  -27.9114   22.2265 N   0  0  0  0  0  0  0  0  0  0  0  0
  -28.9287  -23.5363   18.8584 N   0  3  1  0  0  0  0  0  0  0  0  0
  -27.5079  -21.1488   14.8130 N   0  3  0  0  0  0  0  0  0  0  0  0
  -19.4292  -26.3574   19.1119 N   0  3  0  0  0  0  0  0  0  0  0  0
  -24.1510  -13.9928   24.4704 O   0  0  0  0  0  0  0  0  0  0  0  0
  -25.3850  -30.1805   23.7760 O   0  0  0  0  0  0  0  0  0  0  0  0
  -21.3693  -30.5341   22.8593 O   0  0  0  0  0  0  0  0  0  0  0  0
  -21.3775  -26.1158   21.1275 O   0  0  0  0  0  0  0  0  0  0  0  0
  -23.1527  -19.4060   17.0164 O   0  0  0  0  0  0  0  0  0  0  0  0
  -22.6065   -7.0831   21.2366 O   0  0  0  0  0  0  0  0  0  0  0  0
  -28.0638  -26.2883   19.8569 O   0  0  0  0  0  0  0  0  0  1  0  0
  -20.6774   -4.5304   25.7274 F   0  0  0  0  0  0  0  0  0  0  0  0
  -20.3808   -5.4495   21.0935 F   0  0  0  0  0  0  0  0  0  0  0  0
  1  2  1  0  0  0  0
  1  5  2  0  0  0  0
  2  6  2  0  0  0  0
  3  8  2  0  0  0  0
  3 16  1  0  0  0  0
  4  9  1  0  0  0  0
  4 16  2  0  0  0  0
  5 18  1  0  0  0  0
  6 20  1  0  0  0  0
  7 10  2  0  0  0  0
  7 19  1  0  0  0  0
  8 27  1  0  0  0  0
  9 27  2  0  0  0  0
 10 28  1  0  0  0  0
 11 12  2  0  0  0  0
 11 29  1  0  0  0  0
 12 30  1  0  0  0  0
 13 21  1  0  0  0  0
 13 28  2  0  0  0  0
 14 22  2  0  0  0  0
 14 26  1  0  0  0  0
 15 30  2  0  0  0  0
 15 31  1  0  0  0  0
 16 32  1  0  0  0  0
 17 32  1  0  0  0  0
 17 33  2  0  0  0  0
 17 36  1  0  0  0  0
 18 20  2  0  0  0  0
 18 41  1  0  0  0  0
 19 21  2  0  0  0  0
 19 42  1  0  0  0  0
 20 56  1  0  0  0  0
 21 43  1  0  0  0  0
 22 24  1  0  0  0  0
 22 67  1  0  0  0  0
 23 24  2  0  0  0  0
 23 25  1  0  0  0  0
 23 60  1  0  0  0  0
 24 68  1  0  0  0  0
 25 26  2  0  0  0  0
 25 61  1  0  0  0  0
 26 78  1  0  0  0  0
 27 89  1  0  0  0  0
 28 90  1  0  0  0  0
 29 31  2  0  0  0  0
 29 89  1  0  0  0  0
 30 91  1  0  0  0  0
 31 92  1  0  0  0  0
 32 72  2  0  0  0  0
 33 73  1  0  0  0  0
 33 76  1  0  0  0  0
 34 35  2  0  0  0  0
 34 44  1  0  0  0  0
 34 81  1  0  0  0  0
 36 77  1  0  0  0  0
 36 84  2  0  0  0  0
 37 57  1  0  0  0  0
 37 79  1  0  0  0  0
 37 85  2  0  0  0  0
 38 69  1  0  0  0  0
 38 74  1  0  0  0  0
 38 86  2  0  0  0  0
 39 70  1  0  0  0  0
 39 80  1  0  0  0  0
 39 87  2  0  0  0  0
 40 75  1  0  0  0  0
 40 78  1  0  0  0  0
 40 88  2  0  0  0  0
 41 45  1  0  0  0  0
 42 57  1  0  0  0  0
 43 74  1  0  0  0  0
 44 59  1  0  0  0  0
 45 49  1  0  0  0  0
 46 50  1  0  0  0  0
 46 51  1  0  0  0  0
 47 48  1  0  0  0  0
 47 53  1  0  0  0  0
 48 54  1  0  0  0  0
 49 56  1  0  0  0  0
 50 58  1  0  0  0  0
 51 75  1  0  0  0  0
 52 58  1  0  0  0  0
 52 75  1  0  0  0  0
 53 82  1  0  0  0  0
 54 82  1  0  0  0  0
 55 59  1  0  0  0  0
 55 81  1  0  0  0  0
 56 79  1  0  0  0  0
 57 74  1  0  0  0  0
 58 73  1  0  0  0  0
 59 90  1  0  0  0  0
 62 70  1  0  0  0  0
 63 71  1  0  0  0  0
 64 71  1  0  0  0  0
 65 71  1  0  0  0  0
 66 83  1  0  0  0  0
 67 82  1  0  0  0  0
 68 81  1  0  0  0  0
 69 71  1  0  0  0  0
 69 80  1  0  0  0  0
 70 83  1  0  0  0  0
 72 73  1  0  0  0  0
M  CHG  3  81   1  82   1  83   1
M  ISO  4  40 100  59 101  78 100  90 101
M  END
> <Batch ID>
0033

> <Smiles>
C=C1C[101CH:1]([101O:1]c2ccc3c(c2)CN(C(=O)C(NC(=O)C(C)NC)C(C)(C)C)C(C(=O)NC2CCCc4ccccc42)C3)CN1Cc1c(CN2CCCC2)cc([100NH:0][100C:0](=O)N2CCCC(n3nc(-c4ccc(Oc5ccc(F)cc5F)cc4)c(C(N)=O)c3N)C2)c(C)c1C

> <Shape>
0.300

> <Color>
0.072

> <Negative vol penalty>
0.000

$$$$

  -OEChem-04042321453D

 84 93  0     1  0  0  0  0  0999 V2000
  -29.3170  -12.9529   18.7832 C   0  0  0  0  0  0  0  0  0  0  0  0
  -28.1756  -13.1852   18.0225 C   0  0  0  0  0  0  0  0  0  0  0  0
  -29.6537  -21.9315   21.8327 C   0  0  0  0  0  0  0  0  0  0  0  0
  -28.0995  -21.9684   19.9834 C   0  0  0  0  0  0  0  0  0  0  0  0
  -18.7848  -27.3083   22.3197 C   0  0  0  0  0  0  0  0  0  0  0  0
  -29.2194  -12.8458   20.1699 C   0  0  0  0  0  0  0  0  0  0  0  0
  -26.9356  -13.3095   18.6481 C   0  0  0  0  0  0  0  0  0  0  0  0
  -21.7403  -19.1354   18.3416 C   0  0  0  0  0  0  0  0  0  0  0  0
  -19.9176  -28.0558   21.9945 C   0  0  0  0  0  0  0  0  0  0  0  0
  -29.7182  -20.5406   21.7507 C   0  0  0  0  0  0  0  0  0  0  0  0
  -28.1640  -20.5775   19.9014 C   0  0  0  0  0  0  0  0  0  0  0  0
  -20.8152  -20.1687   18.4920 C   0  0  0  0  0  0  0  0  0  0  0  0
  -27.8333  -17.8999   22.6988 C   0  0  0  0  0  0  0  0  0  0  0  0
  -27.7566  -17.1771   23.8892 C   0  0  0  0  0  0  0  0  0  0  0  0
  -20.1993  -19.3150   20.6691 C   0  0  0  0  0  0  0  0  0  0  0  0
  -20.9106  -26.1057   20.9902 C   0  0  0  0  0  0  0  0  0  0  0  0
  -29.9359  -16.2292   23.4540 C   0  0  0  0  0  0  0  0  0  0  0  0
  -28.8443  -22.6454   20.9490 C   0  0  0  0  0  0  0  0  0  0  0  0
  -18.6938  -25.9483   21.9754 C   0  0  0  0  0  0  0  0  0  0  0  0
  -29.5947  -25.0125   20.3645 C   0  0  0  0  0  0  0  0  0  0  0  0
  -27.9790  -12.9784   20.8136 C   0  0  0  0  0  0  0  0  0  0  0  0
  -21.9095  -18.1956   19.3623 C   0  0  0  0  0  0  0  0  0  0  0  0
  -26.8211  -13.2027   20.0446 C   0  0  0  0  0  0  0  0  0  0  0  0
  -21.1332  -18.2849   20.5294 C   0  0  0  0  0  0  0  0  0  0  0  0
  -20.9805  -27.4551   21.3314 C   0  0  0  0  0  0  0  0  0  0  0  0
  -19.7724  -25.3391   21.2933 C   0  0  0  0  0  0  0  0  0  0  0  0
  -28.9734  -19.8635   20.7851 C   0  0  0  0  0  0  0  0  0  0  0  0
  -20.0465  -20.2581   19.6527 C   0  0  0  0  0  0  0  0  0  0  0  0
  -28.9613  -17.7874   21.8858 C   0  0  0  0  0  0  0  0  0  0  0  0
  -28.8079  -16.3417   24.2668 C   0  0  0  0  0  0  0  0  0  0  0  0
  -30.0126  -16.9520   22.2635 C   0  0  0  0  0  0  0  0  0  0  0  0
  -28.7768  -24.0822   21.0336 C   0  0  0  0  0  0  0  0  0  0  0  0
  -29.1306  -26.2374   20.7779 C   0  0  0  0  0  0  0  0  0  0  0  0
  -17.5198  -25.1151   22.3381 C   0  0  0  0  0  0  0  0  0  0  0  0
  -16.2984  -25.6117   22.5915 C   0  0  0  0  0  0  0  0  0  0  0  0
  -30.6770  -24.7894   19.4510 C   0  0  0  0  0  0  0  0  0  0  0  0
  -23.7215  -15.1427   20.5756 C   0  0  0  0  0  0  0  0  0  0  0  0
  -23.4399  -17.0263   22.9804 C   0  0  0  0  0  0  0  0  0  0  0  0
  -23.7104  -19.5640   24.8216 C   0  0  0  0  0  0  0  0  0  0  0  0
  -23.8321  -28.1024   22.8513 C   0  0  0  0  0  0  0  0  0  0  0  0
  -27.9162  -12.8079   22.3108 C   0  0  0  0  0  0  0  0  0  0  0  0
  -22.8502  -17.0303   19.2175 C   0  0  0  0  0  0  0  0  0  0  0  0
  -21.3245  -17.2317   21.5863 C   0  0  0  0  0  0  0  0  0  0  0  0
  -17.7750  -23.6275   22.3422 C   0  0  0  0  0  0  0  0  0  0  0  0
  -26.6197  -13.3250   22.9289 C   0  0  0  0  0  0  0  0  0  0  0  0
  -26.9851  -28.3729   24.4830 C   0  0  0  0  0  0  0  0  0  0  0  0
  -25.4157  -12.8399   22.1277 C   0  0  0  0  0  0  0  0  0  0  0  0
  -27.8756  -27.3879   23.7236 C   0  0  0  0  0  0  0  0  0  0  0  0
  -25.5546  -27.8548   24.6143 C   0  0  0  0  0  0  0  0  0  0  0  0
  -25.8073  -26.4829   22.5826 C   0  0  0  0  0  0  0  0  0  0  0  0
  -25.4617  -13.3679   20.6887 C   0  0  1  0  0  0  0  0  0  0  0  0
  -23.5229  -16.6296   20.5427 C   0  0  1  0  0  0  0  0  0  0  0  0
  -27.2460  -26.9867   22.3760 C   0  0  2  0  0  0  0  0  0  0  0  0
  -18.5374  -23.2098   21.0806 C   0  0  2  0  0  0  0  0  0  0  0  0
  -23.9309  -20.7335   27.0309 C   0  0  0  0  0  0  0  0  0  0  0  0
  -21.0884  -15.3616   23.9818 C   0  0  0  0  0  0  0  0  0  0  0  0
  -21.1636  -16.6686   26.1159 C   0  0  0  0  0  0  0  0  0  0  0  0
  -23.1205  -15.2786   25.4371 C   0  0  0  0  0  0  0  0  0  0  0  0
  -26.2695  -20.8229   24.0311 C   0  0  0  0  0  0  0  0  0  0  0  0
  -22.1954  -28.2501   20.9916 C   0  0  0  0  0  0  0  0  0  0  0  0
  -18.8872  -21.7256   21.1225 C   0  0  0  0  0  0  0  0  0  1  0  0
  -22.6303  -17.4221   24.1892 C   0  0  1  0  0  0  0  0  0  0  0  0
  -24.6724  -20.1600   25.8334 C   0  0  2  0  0  0  0  0  0  0  0  0
  -21.9976  -16.1960   24.9060 C   0  0  0  0  0  0  0  0  0  0  0  0
  -27.8627  -24.6661   21.8129 N   0  0  0  0  0  0  0  0  0  0  0  0
  -28.1033  -25.9764   21.6363 N   0  0  0  0  0  0  0  0  0  0  0  0
  -19.7591  -23.9886   20.9528 N   0  0  0  0  0  0  0  0  0  0  0  0
  -22.7579  -16.9488   21.7600 N   0  0  0  0  0  0  0  0  0  0  0  0
  -25.0153  -27.4935   23.3011 N   0  0  0  0  0  0  0  0  0  0  0  0
  -29.5052  -27.5013   20.4874 N   0  0  0  0  0  0  0  0  0  0  0  0
  -31.0229  -23.4685   19.1348 N   0  0  0  0  0  0  0  0  0  0  0  0
  -25.0455  -14.7533   20.6452 N   0  0  0  0  0  0  0  0  0  0  0  0
  -23.5176  -18.2152   25.0330 N   0  0  0  0  0  0  0  0  0  0  0  0
  -23.3933  -27.7081   21.5933 N   0  0  0  0  0  0  0  0  0  0  0  0
  -25.4711  -21.2518   25.2081 N   0  3  0  0  0  0  0  0  0  0  0  0
  -31.3289  -25.7331   18.9432 O   0  0  0  0  0  0  0  0  0  0  0  0
  -22.7459  -14.4020   20.5420 O   0  0  0  0  0  0  0  0  0  0  0  0
  -24.6433  -16.7864   23.1126 O   0  0  0  0  0  0  0  0  0  0  0  0
  -23.1799  -20.2293   23.9347 O   0  0  0  0  0  0  0  0  0  0  0  0
  -23.2156  -28.9397   23.5190 O   0  0  0  0  0  0  0  0  0  0  0  0
  -29.0362  -18.5063   20.7047 O   0  0  0  0  0  0  0  0  0  0  0  0
  -19.1484  -21.2721   19.7949 O   0  0  0  0  0  0  0  0  0  1  0  0
  -28.7348  -15.6488   25.4108 F   0  0  0  0  0  0  0  0  0  0  0  0
  -31.0992  -16.8407   21.4873 F   0  0  0  0  0  0  0  0  0  0  0  0
  1  2  1  0  0  0  0
  1  6  2  0  0  0  0
  2  7  2  0  0  0  0
  3 10  2  0  0  0  0
  3 18  1  0  0  0  0
  4 11  1  0  0  0  0
  4 18  2  0  0  0  0
  5  9  2  0  0  0  0
  5 19  1  0  0  0  0
  6 21  1  0  0  0  0
  7 23  1  0  0  0  0
  8 12  2  0  0  0  0
  8 22  1  0  0  0  0
  9 25  1  0  0  0  0
 10 27  1  0  0  0  0
 11 27  2  0  0  0  0
 12 28  1  0  0  0  0
 13 14  2  0  0  0  0
 13 29  1  0  0  0  0
 14 30  1  0  0  0  0
 15 24  1  0  0  0  0
 15 28  2  0  0  0  0
 16 25  2  0  0  0  0
 16 26  1  0  0  0  0
 17 30  2  0  0  0  0
 17 31  1  0  0  0  0
 18 32  1  0  0  0  0
 19 26  2  0  0  0  0
 19 34  1  0  0  0  0
 20 32  1  0  0  0  0
 20 33  2  0  0  0  0
 20 36  1  0  0  0  0
 21 23  2  0  0  0  0
 21 41  1  0  0  0  0
 22 24  2  0  0  0  0
 22 42  1  0  0  0  0
 23 51  1  0  0  0  0
 24 43  1  0  0  0  0
 25 60  1  0  0  0  0
 26 67  1  0  0  0  0
 27 81  1  0  0  0  0
 28 82  1  0  0  0  0
 29 31  2  0  0  0  0
 29 81  1  0  0  0  0
 30 83  1  0  0  0  0
 31 84  1  0  0  0  0
 32 65  2  0  0  0  0
 33 66  1  0  0  0  0
 33 70  1  0  0  0  0
 34 35  2  0  0  0  0
 34 44  1  0  0  0  0
 36 71  1  0  0  0  0
 36 76  2  0  0  0  0
 37 52  1  0  0  0  0
 37 72  1  0  0  0  0
 37 77  2  0  0  0  0
 38 62  1  0  0  0  0
 38 68  1  0  0  0  0
 38 78  2  0  0  0  0
 39 63  1  0  0  0  0
 39 73  1  0  0  0  0
 39 79  2  0  0  0  0
 40 69  1  0  0  0  0
 40 74  1  0  0  0  0
 40 80  2  0  0  0  0
 41 45  1  0  0  0  0
 42 52  1  0  0  0  0
 43 68  1  0  0  0  0
 44 54  1  0  0  0  0
 45 47  1  0  0  0  0
 46 48  1  0  0  0  0
 46 49  1  0  0  0  0
 47 51  1  0  0  0  0
 48 53  1  0  0  0  0
 49 69  1  0  0  0  0
 50 53  1  0  0  0  0
 50 69  1  0  0  0  0
 51 72  1  0  0  0  0
 52 68  1  0  0  0  0
 53 66  1  0  0  0  0
 54 61  1  0  0  0  0
 54 67  1  0  0  0  0
 55 63  1  0  0  0  0
 56 64  1  0  0  0  0
 57 64  1  0  0  0  0
 58 64  1  0  0  0  0
 59 75  1  0  0  0  0
 60 74  1  0  0  0  0
 61 82  1  0  0  0  0
 62 64  1  0  0  0  0
 62 73  1  0  0  0  0
 63 75  1  0  0  0  0
 65 66  1  0  0  0  0
M  CHG  1  75   1
M  ISO  4  40 100  61 101  74 100  82 101
M  END
> <Batch ID>
0033

> <Smiles>
C=C1CC([101CH2:1][101O:1]c2ccc3c(c2)CN(C(=O)C(NC(=O)C(C)NC)C(C)(C)C)C(C(=O)NC2CCCc4ccccc42)C3)Nc2cc(C[100NH:0][100C:0](=O)N3CCCC(n4nc(-c5ccc(Oc6ccc(F)cc6F)cc5)c(C(N)=O)c4N)C3)ccc21

> <Shape>
0.206

> <Color>
0.070

> <Negative vol penalty>
0.000

$$$$
