
  -OEChem-04042321483D

 86 95  0     1  0  0  0  0  0999 V2000
  -23.7516  -34.8355   22.6908 C   0  0  0  0  0  0  0  0  0  0  0  0
  -24.5989  -33.7361   22.5978 C   0  0  0  0  0  0  0  0  0  0  0  0
  -24.7723  -15.9135   23.5086 C   0  0  0  0  0  0  0  0  0  0  0  0
  -24.2938  -16.8540   21.3352 C   0  0  0  0  0  0  0  0  0  0  0  0
  -22.4130  -34.6553   23.0369 C   0  0  0  0  0  0  0  0  0  0  0  0
  -24.1083  -32.4557   22.8519 C   0  0  0  0  0  0  0  0  0  0  0  0
  -25.6548  -29.0666   19.4216 C   0  0  0  0  0  0  0  0  0  0  0  0
  -24.3670  -17.1035   24.1128 C   0  0  0  0  0  0  0  0  0  0  0  0
  -23.8885  -18.0441   21.9395 C   0  0  0  0  0  0  0  0  0  0  0  0
  -26.9571  -28.5844   19.5451 C   0  0  0  0  0  0  0  0  0  0  0  0
  -21.4556  -18.6247   24.9142 C   0  0  0  0  0  0  0  0  0  0  0  0
  -20.6209  -18.5347   26.0281 C   0  0  0  0  0  0  0  0  0  0  0  0
  -26.1104  -26.5845   20.5953 C   0  0  0  0  0  0  0  0  0  0  0  0
  -31.0280  -20.2013   20.0642 C   0  0  0  0  0  0  0  0  0  0  0  0
  -28.5513  -18.9977   19.6171 C   0  0  0  0  0  0  0  0  0  0  0  0
  -22.2794  -19.6768   27.3631 C   0  0  0  0  0  0  0  0  0  0  0  0
  -24.7357  -15.7887   22.1197 C   0  0  0  0  0  0  0  0  0  0  0  0
  -24.6037  -13.2785   21.6851 C   0  0  0  0  0  0  0  0  0  0  0  0
  -21.9035  -33.3712   23.2859 C   0  0  0  0  0  0  0  0  0  0  0  0
  -24.5696  -28.3150   19.8946 C   0  0  0  0  0  0  0  0  0  0  0  0
  -22.7621  -32.2583   23.2029 C   0  0  0  0  0  0  0  0  0  0  0  0
  -24.7951  -27.0583   20.4743 C   0  0  0  0  0  0  0  0  0  0  0  0
  -29.8535  -20.8859   20.3762 C   0  0  0  0  0  0  0  0  0  0  0  0
  -29.7259  -18.3132   19.3050 C   0  0  0  0  0  0  0  0  0  0  0  0
  -23.9251  -18.1688   23.3283 C   0  0  0  0  0  0  0  0  0  0  0  0
  -27.1853  -27.3445   20.1347 C   0  0  0  0  0  0  0  0  0  0  0  0
  -22.7022  -19.2408   25.0247 C   0  0  0  0  0  0  0  0  0  0  0  0
  -21.0328  -19.0607   27.2525 C   0  0  0  0  0  0  0  0  0  0  0  0
  -30.9642  -18.9149   19.5285 C   0  0  0  0  0  0  0  0  0  0  0  0
  -23.1140  -19.7668   26.2491 C   0  0  0  0  0  0  0  0  0  0  0  0
  -28.6152  -20.2841   20.1527 C   0  0  0  0  0  0  0  0  0  0  0  0
  -25.1548  -14.5599   21.4949 C   0  0  0  0  0  0  0  0  0  0  0  0
  -25.3488  -12.4601   20.8717 C   0  0  0  0  0  0  0  0  0  0  0  0
  -23.5156  -12.8649   22.5221 C   0  0  0  0  0  0  0  0  0  0  0  0
  -22.3287  -28.7568   22.1053 C   0  0  0  0  0  0  0  0  0  0  0  0
  -21.1506  -25.9820   20.9074 C   0  0  0  0  0  0  0  0  0  0  0  0
  -22.4817  -22.8171   19.7987 C   0  0  0  0  0  0  0  0  0  0  0  0
  -28.5148  -16.2563   18.4731 C   0  0  0  0  0  0  0  0  0  0  0  0
  -20.4609  -33.2308   23.7029 C   0  0  0  0  0  0  0  0  0  0  0  0
  -23.1687  -28.8374   19.7296 C   0  0  0  0  0  0  0  0  0  0  0  0
  -23.6628  -26.2034   20.9798 C   0  0  0  0  0  0  0  0  0  0  0  0
  -19.9304  -31.8039   23.5903 C   0  0  0  0  0  0  0  0  0  0  0  0
  -29.8618  -12.7115   19.1704 C   0  0  0  0  0  0  0  0  0  0  0  0
  -30.3109  -24.5898   17.9319 C   0  0  0  0  0  0  0  0  0  0  0  0
  -20.9231  -30.8160   24.1948 C   0  0  0  0  0  0  0  0  0  0  0  0
  -28.6137  -12.3715   19.9752 C   0  0  0  0  0  0  0  0  0  0  0  0
  -29.8406  -25.8901   18.5701 C   0  0  0  0  0  0  0  0  0  0  0  0
  -29.9692  -14.2211   18.9730 C   0  0  0  0  0  0  0  0  0  0  0  0
  -27.6054  -13.9559   18.2151 C   0  0  0  0  0  0  0  0  0  0  0  0
  -30.7502  -23.5761   18.9789 C   0  0  0  0  0  0  0  0  0  0  0  0
  -29.1962  -24.6173   20.6496 C   0  0  0  0  0  0  0  0  0  0  0  0
  -22.2613  -30.8512   23.4469 C   0  0  1  0  0  0  0  0  0  0  0  0
  -22.1799  -28.2162   20.7113 C   0  0  1  0  0  0  0  0  0  0  0  0
  -27.3344  -12.8616   19.2679 C   0  0  2  0  0  0  0  0  0  0  0  0
  -28.7533  -25.6385   19.6102 C   0  0  1  0  0  0  0  0  0  1  0  0
  -21.5848  -21.1610   18.1404 C   0  0  0  0  0  0  0  0  0  0  0  0
  -19.9188  -24.6370   23.3535 C   0  0  0  0  0  0  0  0  0  0  0  0
  -20.4470  -22.4212   22.3147 C   0  0  0  0  0  0  0  0  0  0  0  0
  -18.8792  -23.9900   21.1729 C   0  0  0  0  0  0  0  0  0  0  0  0
  -24.9810  -22.8745   18.2148 C   0  0  0  0  0  0  0  0  0  0  0  0
  -29.9662  -22.2671   20.9511 C   0  0  0  0  0  0  0  0  0  0  0  0
  -21.3517  -24.5166   21.2092 C   0  0  1  0  0  0  0  0  0  0  0  0
  -22.5524  -22.3117   18.3690 C   0  0  2  0  0  0  0  0  0  0  0  0
  -20.1697  -23.9103   22.0172 C   0  0  0  0  0  0  0  0  0  0  0  0
  -26.1716  -14.5605   20.6288 N   0  0  0  0  0  0  0  0  0  0  0  0
  -26.2654  -13.2695   20.2676 N   0  0  0  0  0  0  0  0  0  0  0  0
  -22.3118  -26.7606   20.8015 N   0  0  0  0  0  0  0  0  0  0  0  0
  -28.7006  -14.8557   18.5860 N   0  0  0  0  0  0  0  0  0  0  0  0
  -25.3029  -11.1343   20.6216 N   0  0  0  0  0  0  0  0  0  0  0  0
  -22.2202  -12.8739   21.9870 N   0  0  0  0  0  0  0  0  0  0  0  0
  -29.6588  -17.0058   18.7606 N   0  0  0  0  0  0  0  0  0  0  0  0
  -22.1620  -30.1254   22.1988 N   0  0  0  0  0  0  0  0  0  0  0  0
  -21.5950  -23.8653   19.9266 N   0  0  0  0  0  0  0  0  0  0  0  0
  -29.6261  -23.3469   19.9611 N   0  3  2  0  0  0  0  0  0  0  0  0
  -23.9298  -21.8371   18.0550 N   0  3  0  0  0  0  0  0  0  0  0  0
  -23.6849  -12.5140   23.7145 O   0  0  0  0  0  0  0  0  0  0  0  0
  -22.5751  -27.9890   23.0280 O   0  0  0  0  0  0  0  0  0  0  0  0
  -20.0058  -26.4183   20.7637 O   0  0  0  0  0  0  0  0  0  0  0  0
  -23.1437  -22.3283   20.7116 O   0  0  0  0  0  0  0  0  0  0  0  0
  -27.4301  -16.7414   18.1447 O   0  0  0  0  0  0  0  0  0  0  0  0
  -23.5293  -19.3301   23.9176 O   0  0  0  0  0  0  0  0  0  0  0  0
  -28.4555  -26.8717   20.2572 O   0  0  0  0  0  0  0  0  0  1  0  0
  -20.2305  -18.9755   28.3218 F   0  0  0  0  0  0  0  0  0  0  0  0
  -32.0994  -18.2661   19.2321 F   0  0  0  0  0  0  0  0  0  0  0  0
  -24.3100  -20.3609   26.3611 F   0  0  0  0  0  0  0  0  0  0  0  0
  -27.1414  -21.1017   20.5260 Cl  0  0  0  0  0  0  0  0  0  0  0  0
  1  2  1  0  0  0  0
  1  5  2  0  0  0  0
  2  6  2  0  0  0  0
  3  8  2  0  0  0  0
  3 17  1  0  0  0  0
  4  9  1  0  0  0  0
  4 17  2  0  0  0  0
  5 19  1  0  0  0  0
  6 21  1  0  0  0  0
  7 10  2  0  0  0  0
  7 20  1  0  0  0  0
  8 25  1  0  0  0  0
  9 25  2  0  0  0  0
 10 26  1  0  0  0  0
 11 12  2  0  0  0  0
 11 27  1  0  0  0  0
 12 28  1  0  0  0  0
 13 22  1  0  0  0  0
 13 26  2  0  0  0  0
 14 23  1  0  0  0  0
 14 29  2  0  0  0  0
 15 24  2  0  0  0  0
 15 31  1  0  0  0  0
 16 28  2  0  0  0  0
 16 30  1  0  0  0  0
 17 32  1  0  0  0  0
 18 32  1  0  0  0  0
 18 33  2  0  0  0  0
 18 34  1  0  0  0  0
 19 21  2  0  0  0  0
 19 39  1  0  0  0  0
 20 22  2  0  0  0  0
 20 40  1  0  0  0  0
 21 52  1  0  0  0  0
 22 41  1  0  0  0  0
 23 31  2  0  0  0  0
 23 61  1  0  0  0  0
 24 29  1  0  0  0  0
 24 71  1  0  0  0  0
 25 81  1  0  0  0  0
 26 82  1  0  0  0  0
 27 30  2  0  0  0  0
 27 81  1  0  0  0  0
 28 83  1  0  0  0  0
 29 84  1  0  0  0  0
 30 85  1  0  0  0  0
 31 86  1  0  0  0  0
 32 65  2  0  0  0  0
 33 66  1  0  0  0  0
 33 69  1  0  0  0  0
 34 70  1  0  0  0  0
 34 76  2  0  0  0  0
 35 53  1  0  0  0  0
 35 72  1  0  0  0  0
 35 77  2  0  0  0  0
 36 62  1  0  0  0  0
 36 67  1  0  0  0  0
 36 78  2  0  0  0  0
 37 63  1  0  0  0  0
 37 73  1  0  0  0  0
 37 79  2  0  0  0  0
 38 68  1  0  0  0  0
 38 71  1  0  0  0  0
 38 80  2  0  0  0  0
 39 42  1  0  0  0  0
 40 53  1  0  0  0  0
 41 67  1  0  0  0  0
 42 45  1  0  0  0  0
 43 46  1  0  0  0  0
 43 48  1  0  0  0  0
 44 47  1  0  0  0  0
 44 50  1  0  0  0  0
 45 52  1  0  0  0  0
 46 54  1  0  0  0  0
 47 55  1  0  0  0  0
 48 68  1  0  0  0  0
 49 54  1  0  0  0  0
 49 68  1  0  0  0  0
 50 74  1  0  0  0  0
 51 55  1  0  0  0  0
 51 74  1  0  0  0  0
 52 72  1  0  0  0  0
 53 67  1  0  0  0  0
 54 66  1  0  0  0  0
 55 82  1  0  0  0  0
 56 63  1  0  0  0  0
 57 64  1  0  0  0  0
 58 64  1  0  0  0  0
 59 64  1  0  0  0  0
 60 75  1  0  0  0  0
 61 74  1  0  0  0  0
 62 64  1  0  0  0  0
 62 73  1  0  0  0  0
 63 75  1  0  0  0  0
 65 66  1  0  0  0  0
M  CHG  2  74   1  75   1
M  ISO  4  38 100  55 101  71 100  82 101
M  END
> <Batch ID>
0034

> <Smiles>
CNC(C)C(=O)NC(C(=O)N1Cc2cc([101O:1][101CH:1]3CCCN(Cc4cc(F)c([100NH:0][100C:0](=O)N5CCCC(n6nc(-c7ccc(Oc8ccc(F)cc8F)cc7)c(C(N)=O)c6N)C5)cc4Cl)C3)ccc2CC1C(=O)NC1CCCc2ccccc21)C(C)(C)C

> <Shape>
0.239

> <Color>
0.092

> <Negative vol penalty>
0.000

$$$$

  -OEChem-04042321483D

 83 91  0     1  0  0  0  0  0999 V2000
  -32.4553  -14.9391   20.5770 C   0  0  0  0  0  0  0  0  0  0  0  0
  -31.5393  -15.9527   20.3145 C   0  0  0  0  0  0  0  0  0  0  0  0
  -29.1613  -27.0275   20.1142 C   0  0  0  0  0  0  0  0  0  0  0  0
  -27.5622  -25.6301   18.9622 C   0  0  0  0  0  0  0  0  0  0  0  0
  -32.0740  -13.6047   20.4434 C   0  0  0  0  0  0  0  0  0  0  0  0
  -30.2417  -15.6324   19.9170 C   0  0  0  0  0  0  0  0  0  0  0  0
  -25.1101  -18.6734   21.3045 C   0  0  0  0  0  0  0  0  0  0  0  0
  -19.1691  -23.7246   19.2027 C   0  0  0  0  0  0  0  0  0  0  0  0
  -30.1690  -26.1044   19.8352 C   0  0  0  0  0  0  0  0  0  0  0  0
  -28.5700  -24.7070   18.6831 C   0  0  0  0  0  0  0  0  0  0  0  0
  -24.3561  -19.6112   20.6005 C   0  0  0  0  0  0  0  0  0  0  0  0
  -30.6471  -21.8091   17.9777 C   0  0  0  0  0  0  0  0  0  0  0  0
  -30.3624  -20.4583   18.1772 C   0  0  0  0  0  0  0  0  0  0  0  0
  -18.5862  -24.9831   19.3510 C   0  0  0  0  0  0  0  0  0  0  0  0
  -22.8915  -17.8525   19.8381 C   0  0  0  0  0  0  0  0  0  0  0  0
  -29.9320  -20.8940   20.5143 C   0  0  0  0  0  0  0  0  0  0  0  0
  -27.8578  -26.7903   19.6778 C   0  0  0  0  0  0  0  0  0  0  0  0
  -26.4258  -28.8410   19.1763 C   0  0  0  0  0  0  0  0  0  0  0  0
  -30.7683  -13.2678   20.0534 C   0  0  0  0  0  0  0  0  0  0  0  0
  -24.7663  -17.3143   21.2718 C   0  0  0  0  0  0  0  0  0  0  0  0
  -29.8430  -14.2923   19.7767 C   0  0  0  0  0  0  0  0  0  0  0  0
  -23.6413  -16.8997   20.5447 C   0  0  0  0  0  0  0  0  0  0  0  0
  -20.1512  -23.9205   21.4014 C   0  0  0  0  0  0  0  0  0  0  0  0
  -19.5682  -25.1790   21.5497 C   0  0  0  0  0  0  0  0  0  0  0  0
  -19.9516  -23.1933   20.2279 C   0  0  0  0  0  0  0  0  0  0  0  0
  -29.8734  -24.9442   19.1196 C   0  0  0  0  0  0  0  0  0  0  0  0
  -23.2483  -19.2004   19.8648 C   0  0  0  0  0  0  0  0  0  0  0  0
  -30.5744  -22.7024   19.0466 C   0  0  0  0  0  0  0  0  0  0  0  0
  -30.0048  -20.0007   19.4454 C   0  0  0  0  0  0  0  0  0  0  0  0
  -30.2168  -22.2449   20.3148 C   0  0  0  0  0  0  0  0  0  0  0  0
  -18.7857  -25.7103   20.5244 C   0  0  0  0  0  0  0  0  0  0  0  0
  -26.8162  -27.7432   19.9663 C   0  0  0  0  0  0  0  0  0  0  0  0
  -25.4038  -29.4264   19.8830 C   0  0  0  0  0  0  0  0  0  0  0  0
  -26.9407  -29.2913   17.9162 C   0  0  0  0  0  0  0  0  0  0  0  0
  -26.1989  -14.6618   20.2637 C   0  0  0  0  0  0  0  0  0  0  0  0
  -23.6174  -13.2242   21.6022 C   0  0  0  0  0  0  0  0  0  0  0  0
  -20.3656  -13.4641   22.6095 C   0  0  0  0  0  0  0  0  0  0  0  0
  -21.5232  -27.3300   23.9323 C   0  0  0  0  0  0  0  0  0  0  0  0
  -30.4162  -11.8119   19.8767 C   0  0  0  0  0  0  0  0  0  0  0  0
  -25.5743  -16.3187   22.0583 C   0  0  0  0  0  0  0  0  0  0  0  0
  -23.2183  -15.4551   20.4936 C   0  0  0  0  0  0  0  0  0  0  0  0
  -28.9133  -11.5520   19.8136 C   0  0  0  0  0  0  0  0  0  0  0  0
  -23.8073  -30.0287   24.3528 C   0  0  0  0  0  0  0  0  0  0  0  0
  -28.2390  -12.5446   18.8718 C   0  0  0  0  0  0  0  0  0  0  0  0
  -24.8022  -29.8480   23.2050 C   0  0  0  0  0  0  0  0  0  0  0  0
  -23.3470  -28.6864   24.9172 C   0  0  0  0  0  0  0  0  0  0  0  0
  -23.8010  -27.5662   22.7695 C   0  0  0  0  0  0  0  0  0  0  0  0
  -28.4189  -13.9846   19.3672 C   0  0  1  0  0  0  0  0  0  0  0  0
  -25.4354  -14.8916   21.5373 C   0  0  1  0  0  0  0  0  0  0  0  0
  -24.2512  -28.8911   22.1307 C   0  0  2  0  0  0  0  0  0  0  0  0
  -20.9917  -23.3503   22.5013 C   0  0  0  0  0  0  0  0  0  0  0  0
  -18.5152  -12.1120   23.6319 C   0  0  0  0  0  0  0  0  0  0  0  0
  -23.1721  -11.8182   18.9311 C   0  0  0  0  0  0  0  0  0  0  0  0
  -20.8528  -11.2598   19.6910 C   0  0  0  0  0  0  0  0  0  0  0  0
  -22.8206  -10.3734   20.9419 C   0  0  0  0  0  0  0  0  0  0  0  0
  -20.1957  -15.2576   24.9575 C   0  0  0  0  0  0  0  0  0  0  0  0
  -19.7909  -25.9485   22.8144 C   0  0  0  0  0  0  0  0  0  0  0  0
  -20.3543  -21.1370   18.8732 C   0  0  0  0  0  0  0  0  0  0  0  0
  -21.1222  -19.8326   19.0070 C   0  0  0  0  0  0  0  0  0  1  0  0
  -22.2434  -12.8285   21.1181 C   0  0  1  0  0  0  0  0  0  0  0  0
  -19.6779  -13.0550   23.8995 C   0  0  2  0  0  0  0  0  0  0  0  0
  -22.2811  -11.5970   20.1697 C   0  0  0  0  0  0  0  0  0  0  0  0
  -26.1008  -27.6355   21.0890 N   0  0  0  0  0  0  0  0  0  0  0  0
  -25.2505  -28.6732   21.0096 N   0  0  0  0  0  0  0  0  0  0  0  0
  -24.0440  -14.5189   21.2741 N   0  0  0  0  0  0  0  0  0  0  0  0
  -22.8343  -27.8268   23.8476 N   0  0  0  0  0  0  0  0  0  0  0  0
  -24.6304  -30.5069   19.6444 N   0  0  0  0  0  0  0  0  0  0  0  0
  -27.9918  -28.5738   17.3291 N   0  0  0  0  0  0  0  0  0  0  0  0
  -20.5214  -21.9418   20.0616 N   0  0  0  0  0  0  0  0  0  0  0  0
  -27.5075  -14.2619   20.4566 N   0  0  0  0  0  0  0  0  0  0  0  0
  -21.4288  -12.6376   22.3132 N   0  0  0  0  0  0  0  0  0  0  0  0
  -21.1141  -26.5283   22.8737 N   0  0  0  0  0  0  0  0  0  0  0  0
  -19.1550  -14.2556   24.6110 N   0  3  0  0  0  0  0  0  0  0  0  0
  -26.4933  -30.3096   17.3362 O   0  0  0  0  0  0  0  0  0  0  0  0
  -25.6416  -14.8331   19.1859 O   0  0  0  0  0  0  0  0  0  0  0  0
  -24.2847  -12.4169   22.2538 O   0  0  0  0  0  0  0  0  0  0  0  0
  -19.9942  -14.4188   21.9304 O   0  0  0  0  0  0  0  0  0  0  0  0
  -20.7708  -27.5867   24.8784 O   0  0  0  0  0  0  0  0  0  0  0  0
  -30.8566  -24.0433   18.8468 O   0  0  0  0  0  0  0  0  0  0  0  0
  -22.5110  -20.1137   19.1762 O   0  0  0  0  0  0  0  0  0  1  0  0
  -29.7299  -18.7038   19.6365 F   0  0  0  0  0  0  0  0  0  0  0  0
  -30.1441  -23.0985   21.3453 F   0  0  0  0  0  0  0  0  0  0  0  0
  -18.0452  -27.2633   20.6683 Cl  0  0  0  0  0  0  0  0  0  0  0  0
  1  2  1  0  0  0  0
  1  5  2  0  0  0  0
  2  6  2  0  0  0  0
  3  9  2  0  0  0  0
  3 17  1  0  0  0  0
  4 10  1  0  0  0  0
  4 17  2  0  0  0  0
  5 19  1  0  0  0  0
  6 21  1  0  0  0  0
  7 11  2  0  0  0  0
  7 20  1  0  0  0  0
  8 14  2  0  0  0  0
  8 25  1  0  0  0  0
  9 26  1  0  0  0  0
 10 26  2  0  0  0  0
 11 27  1  0  0  0  0
 12 13  2  0  0  0  0
 12 28  1  0  0  0  0
 13 29  1  0  0  0  0
 14 31  1  0  0  0  0
 15 22  1  0  0  0  0
 15 27  2  0  0  0  0
 16 29  2  0  0  0  0
 16 30  1  0  0  0  0
 17 32  1  0  0  0  0
 18 32  1  0  0  0  0
 18 33  2  0  0  0  0
 18 34  1  0  0  0  0
 19 21  2  0  0  0  0
 19 39  1  0  0  0  0
 20 22  2  0  0  0  0
 20 40  1  0  0  0  0
 21 48  1  0  0  0  0
 22 41  1  0  0  0  0
 23 24  1  0  0  0  0
 23 25  2  0  0  0  0
 23 51  1  0  0  0  0
 24 31  2  0  0  0  0
 24 57  1  0  0  0  0
 25 69  1  0  0  0  0
 26 79  1  0  0  0  0
 27 80  1  0  0  0  0
 28 30  2  0  0  0  0
 28 79  1  0  0  0  0
 29 81  1  0  0  0  0
 30 82  1  0  0  0  0
 31 83  1  0  0  0  0
 32 63  2  0  0  0  0
 33 64  1  0  0  0  0
 33 67  1  0  0  0  0
 34 68  1  0  0  0  0
 34 74  2  0  0  0  0
 35 49  1  0  0  0  0
 35 70  1  0  0  0  0
 35 75  2  0  0  0  0
 36 60  1  0  0  0  0
 36 65  1  0  0  0  0
 36 76  2  0  0  0  0
 37 61  1  0  0  0  0
 37 71  1  0  0  0  0
 37 77  2  0  0  0  0
 38 66  1  0  0  0  0
 38 72  1  0  0  0  0
 38 78  2  0  0  0  0
 39 42  1  0  0  0  0
 40 49  1  0  0  0  0
 41 65  1  0  0  0  0
 42 44  1  0  0  0  0
 43 45  1  0  0  0  0
 43 46  1  0  0  0  0
 44 48  1  0  0  0  0
 45 50  1  0  0  0  0
 46 66  1  0  0  0  0
 47 50  1  0  0  0  0
 47 66  1  0  0  0  0
 48 70  1  0  0  0  0
 49 65  1  0  0  0  0
 50 64  1  0  0  0  0
 52 61  1  0  0  0  0
 53 62  1  0  0  0  0
 54 62  1  0  0  0  0
 55 62  1  0  0  0  0
 56 73  1  0  0  0  0
 57 72  1  0  0  0  0
 58 59  1  0  0  0  0
 58 69  1  0  0  0  0
 59 80  1  0  0  0  0
 60 62  1  0  0  0  0
 60 71  1  0  0  0  0
 61 73  1  0  0  0  0
 63 64  1  0  0  0  0
M  CHG  1  73   1
M  ISO  4  38 100  59 101  72 100  80 101
M  END
> <Batch ID>
0034

> <Smiles>
CNC(C)C(=O)NC(C(=O)N1Cc2cc([101O:1][101CH2:1]CNc3ccc(Cl)c(C[100NH:0][100C:0](=O)N4CCCC(n5nc(-c6ccc(Oc7ccc(F)cc7F)cc6)c(C(N)=O)c5N)C4)c3C)ccc2CC1C(=O)NC1CCCc2ccccc21)C(C)(C)C

> <Shape>
0.251

> <Color>
0.052

> <Negative vol penalty>
0.000

$$$$

  -OEChem-04042321483D

 87 96  0     1  0  0  0  0  0999 V2000
  -18.9589  -27.0032   18.4457 C   0  0  0  0  0  0  0  0  0  0  0  0
  -20.2291  -27.5706   18.4434 C   0  0  0  0  0  0  0  0  0  0  0  0
  -24.8744  -15.0186   19.7794 C   0  0  0  0  0  0  0  0  0  0  0  0
  -25.8424  -14.0445   21.7672 C   0  0  0  0  0  0  0  0  0  0  0  0
  -18.2883  -26.8030   19.6516 C   0  0  0  0  0  0  0  0  0  0  0  0
  -20.8291  -27.9392   19.6469 C   0  0  0  0  0  0  0  0  0  0  0  0
  -25.6817  -26.5157   19.9146 C   0  0  0  0  0  0  0  0  0  0  0  0
  -31.8930  -25.0770   20.3614 C   0  0  0  0  0  0  0  0  0  0  0  0
  -31.2400  -24.0319   21.0147 C   0  0  0  0  0  0  0  0  0  0  0  0
  -23.8349  -14.0900   19.8305 C   0  0  0  0  0  0  0  0  0  0  0  0
  -24.8028  -13.1159   21.8184 C   0  0  0  0  0  0  0  0  0  0  0  0
  -26.6115  -27.2902   19.2223 C   0  0  0  0  0  0  0  0  0  0  0  0
  -23.9614  -10.2303   20.2704 C   0  0  0  0  0  0  0  0  0  0  0  0
  -24.2940   -8.8981   20.5157 C   0  0  0  0  0  0  0  0  0  0  0  0
  -27.2084  -28.4011   21.2786 C   0  0  0  0  0  0  0  0  0  0  0  0
  -30.4592  -24.7724   18.4408 C   0  0  0  0  0  0  0  0  0  0  0  0
  -22.9323   -8.9256   22.5113 C   0  0  0  0  0  0  0  0  0  0  0  0
  -25.8782  -14.9958   20.7477 C   0  0  0  0  0  0  0  0  0  0  0  0
  -27.8797  -16.1358   19.6513 C   0  0  0  0  0  0  0  0  0  0  0  0
  -18.8844  -27.1605   20.8713 C   0  0  0  0  0  0  0  0  0  0  0  0
  -25.5002  -26.6861   21.2947 C   0  0  0  0  0  0  0  0  0  0  0  0
  -20.1654  -27.7448   20.8702 C   0  0  0  0  0  0  0  0  0  0  0  0
  -26.2775  -27.6258   21.9866 C   0  0  0  0  0  0  0  0  0  0  0  0
  -31.5025  -25.4474   19.0745 C   0  0  0  0  0  0  0  0  0  0  0  0
  -29.8062  -23.7272   19.0941 C   0  0  0  0  0  0  0  0  0  0  0  0
  -30.1966  -23.3569   20.3811 C   0  0  0  0  0  0  0  0  0  0  0  0
  -23.7990  -13.1387   20.8500 C   0  0  0  0  0  0  0  0  0  0  0  0
  -27.3730  -28.2351   19.9037 C   0  0  0  0  0  0  0  0  0  0  0  0
  -23.1144  -10.9102   21.1457 C   0  0  0  0  0  0  0  0  0  0  0  0
  -23.7794   -8.2457   21.6361 C   0  0  0  0  0  0  0  0  0  0  0  0
  -22.5999  -10.2578   22.2660 C   0  0  0  0  0  0  0  0  0  0  0  0
  -26.9527  -15.9544   20.6951 C   0  0  0  0  0  0  0  0  0  0  0  0
  -28.6864  -17.1603   20.0828 C   0  0  0  0  0  0  0  0  0  0  0  0
  -28.0008  -15.4405   18.4033 C   0  0  0  0  0  0  0  0  0  0  0  0
  -23.0710  -27.5671   23.1458 C   0  0  0  0  0  0  0  0  0  0  0  0
  -25.1227  -26.7978   25.5376 C   0  0  0  0  0  0  0  0  0  0  0  0
  -28.6332  -27.2441   26.2412 C   0  0  0  0  0  0  0  0  0  0  0  0
  -29.3717  -22.1590   22.4380 C   0  0  0  0  0  0  0  0  0  0  0  0
  -18.1012  -26.9683   22.1458 C   0  0  0  0  0  0  0  0  0  0  0  0
  -24.5120  -25.8241   22.0316 C   0  0  0  0  0  0  0  0  0  0  0  0
  -26.1353  -27.8332   23.4716 C   0  0  0  0  0  0  0  0  0  0  0  0
  -18.9603  -27.0416   23.4055 C   0  0  0  0  0  0  0  0  0  0  0  0
  -31.5886  -30.3857   20.4669 C   0  0  0  0  0  0  0  0  0  0  0  0
  -29.0667  -19.3647   24.6234 C   0  0  0  0  0  0  0  0  0  0  0  0
  -19.8956  -28.2450   23.3446 C   0  0  0  0  0  0  0  0  0  0  0  0
  -28.5658  -18.2433   23.7104 C   0  0  0  0  0  0  0  0  0  0  0  0
  -30.1024  -30.2587   20.1401 C   0  0  0  0  0  0  0  0  0  0  0  0
  -32.4644  -30.3681   19.2152 C   0  0  0  0  0  0  0  0  0  0  0  0
  -28.4629  -20.7161   24.2455 C   0  0  0  0  0  0  0  0  0  0  0  0
  -28.1193  -19.9725   21.9222 C   0  0  0  0  0  0  0  0  0  0  0  0
  -30.4334  -28.3362   18.4542 C   0  0  0  0  0  0  0  0  0  0  0  0
  -20.8595  -28.1350   22.1570 C   0  0  1  0  0  0  0  0  0  0  0  0
  -24.0452  -26.4409   23.3465 C   0  0  1  0  0  0  0  0  0  0  0  0
  -28.7500  -18.6030   22.2230 C   0  0  2  0  0  0  0  0  0  0  0  0
  -29.6477  -28.8883   19.6395 C   0  0  2  0  0  0  0  0  0  1  0  0
  -32.9048  -28.9817   18.7204 C   0  0  2  0  0  0  0  0  0  0  0  0
  -28.6938  -23.0198   18.3901 C   0  0  0  0  0  0  0  0  0  0  0  0
  -33.3946  -29.0593   17.2735 C   0  0  0  0  0  0  0  0  0  0  0  0
  -30.1997  -25.8846   27.6538 C   0  0  0  0  0  0  0  0  0  0  0  0
  -24.4021  -28.7859   27.7372 C   0  0  0  0  0  0  0  0  0  0  0  0
  -26.7866  -28.7039   28.4962 C   0  0  0  0  0  0  0  0  0  0  0  0
  -25.3892  -26.6383   28.5546 C   0  0  0  0  0  0  0  0  0  0  0  0
  -30.5259  -26.8783   23.9956 C   0  0  0  0  0  0  0  0  0  0  0  0
  -32.2065  -26.5700   18.3710 C   0  0  0  0  0  0  0  0  0  0  0  0
  -26.1719  -27.5427   26.3271 C   0  0  1  0  0  0  0  0  0  0  0  0
  -29.7034  -26.1675   26.2444 C   0  0  2  0  0  0  0  0  0  0  0  0
  -25.6810  -27.9250   27.7520 C   0  0  0  0  0  0  0  0  0  0  0  0
  -27.1511  -16.7961   21.7130 N   0  0  0  0  0  0  0  0  0  0  0  0
  -28.2122  -17.5162   21.3110 N   0  0  0  0  0  0  0  0  0  0  0  0
  -25.1513  -26.9706   24.1465 N   0  0  0  0  0  0  0  0  0  0  0  0
  -28.6796  -20.9915   22.8235 N   0  0  0  0  0  0  0  0  0  0  0  0
  -29.7481  -17.7824   19.5275 N   0  0  0  0  0  0  0  0  0  0  0  0
  -28.8124  -14.2991   18.3505 N   0  0  0  0  0  0  0  0  0  0  0  0
  -29.5460  -22.2979   21.0614 N   0  0  0  0  0  0  0  0  0  0  0  0
  -21.9282  -27.2066   22.4578 N   0  0  0  0  0  0  0  0  0  0  0  0
  -27.3661  -26.7048   26.3113 N   0  0  0  0  0  0  0  0  0  0  0  0
  -31.8212  -27.9319   18.8969 N   0  3  2  0  0  0  0  0  0  0  0  0
  -30.8657  -26.5900   25.4128 N   0  3  0  0  0  0  0  0  0  0  0  0
  -27.4199  -15.8295   17.3618 O   0  0  0  0  0  0  0  0  0  0  0  0
  -23.3359  -28.6804   23.5840 O   0  0  0  0  0  0  0  0  0  0  0  0
  -24.3123  -26.0831   26.1326 O   0  0  0  0  0  0  0  0  0  0  0  0
  -28.8952  -28.4436   26.1861 O   0  0  0  0  0  0  0  0  0  0  0  0
  -29.8036  -22.9617   23.2692 O   0  0  0  0  0  0  0  0  0  0  0  0
  -22.7846  -12.2326   20.9004 O   0  0  0  0  0  0  0  0  0  0  0  0
  -28.2809  -28.9928   19.2302 O   0  0  0  0  0  0  0  0  0  1  0  0
  -24.0976   -6.9659   21.8706 F   0  0  0  0  0  0  0  0  0  0  0  0
  -21.7847  -10.9055   23.1098 F   0  0  0  0  0  0  0  0  0  0  0  0
  1  2  1  0  0  0  0
  1  5  2  0  0  0  0
  2  6  2  0  0  0  0
  3 10  2  0  0  0  0
  3 18  1  0  0  0  0
  4 11  1  0  0  0  0
  4 18  2  0  0  0  0
  5 20  1  0  0  0  0
  6 22  1  0  0  0  0
  7 12  2  0  0  0  0
  7 21  1  0  0  0  0
  8  9  2  0  0  0  0
  8 24  1  0  0  0  0
  9 26  1  0  0  0  0
 10 27  1  0  0  0  0
 11 27  2  0  0  0  0
 12 28  1  0  0  0  0
 13 14  2  0  0  0  0
 13 29  1  0  0  0  0
 14 30  1  0  0  0  0
 15 23  1  0  0  0  0
 15 28  2  0  0  0  0
 16 24  2  0  0  0  0
 16 25  1  0  0  0  0
 17 30  2  0  0  0  0
 17 31  1  0  0  0  0
 18 32  1  0  0  0  0
 19 32  1  0  0  0  0
 19 33  2  0  0  0  0
 19 34  1  0  0  0  0
 20 22  2  0  0  0  0
 20 39  1  0  0  0  0
 21 23  2  0  0  0  0
 21 40  1  0  0  0  0
 22 52  1  0  0  0  0
 23 41  1  0  0  0  0
 24 64  1  0  0  0  0
 25 26  2  0  0  0  0
 25 57  1  0  0  0  0
 26 74  1  0  0  0  0
 27 84  1  0  0  0  0
 28 85  1  0  0  0  0
 29 31  2  0  0  0  0
 29 84  1  0  0  0  0
 30 86  1  0  0  0  0
 31 87  1  0  0  0  0
 32 68  2  0  0  0  0
 33 69  1  0  0  0  0
 33 72  1  0  0  0  0
 34 73  1  0  0  0  0
 34 79  2  0  0  0  0
 35 53  1  0  0  0  0
 35 75  1  0  0  0  0
 35 80  2  0  0  0  0
 36 65  1  0  0  0  0
 36 70  1  0  0  0  0
 36 81  2  0  0  0  0
 37 66  1  0  0  0  0
 37 76  1  0  0  0  0
 37 82  2  0  0  0  0
 38 71  1  0  0  0  0
 38 74  1  0  0  0  0
 38 83  2  0  0  0  0
 39 42  1  0  0  0  0
 40 53  1  0  0  0  0
 41 70  1  0  0  0  0
 42 45  1  0  0  0  0
 43 47  1  0  0  0  0
 43 48  1  0  0  0  0
 44 46  1  0  0  0  0
 44 49  1  0  0  0  0
 45 52  1  0  0  0  0
 46 54  1  0  0  0  0
 47 55  1  0  0  0  0
 48 56  1  0  0  0  0
 49 71  1  0  0  0  0
 50 54  1  0  0  0  0
 50 71  1  0  0  0  0
 51 55  1  0  0  0  0
 51 77  1  0  0  0  0
 52 75  1  0  0  0  0
 53 70  1  0  0  0  0
 54 69  1  0  0  0  0
 55 85  1  0  0  0  0
 56 58  1  0  0  0  0
 56 77  1  0  0  0  0
 59 66  1  0  0  0  0
 60 67  1  0  0  0  0
 61 67  1  0  0  0  0
 62 67  1  0  0  0  0
 63 78  1  0  0  0  0
 64 77  1  0  0  0  0
 65 67  1  0  0  0  0
 65 76  1  0  0  0  0
 66 78  1  0  0  0  0
 68 69  1  0  0  0  0
M  CHG  2  77   1  78   1
M  ISO  4  38 100  55 101  74 100  85 101
M  END
> <Batch ID>
0034

> <Smiles>
CNC(C)C(=O)NC(C(=O)N1Cc2cc([101O:1][101CH:1]3CCCC(C)N(Cc4ccc([100NH:0][100C:0](=O)N5CCCC(n6nc(-c7ccc(Oc8ccc(F)cc8F)cc7)c(C(N)=O)c6N)C5)c(C)c4)C3)ccc2CC1C(=O)NC1CCCc2ccccc21)C(C)(C)C

> <Shape>
0.212

> <Color>
0.066

> <Negative vol penalty>
0.000

$$$$

  -OEChem-04042321483D

 85 94  0     1  0  0  0  0  0999 V2000
  -23.3352  -35.4151   26.2903 C   0  0  0  0  0  0  0  0  0  0  0  0
  -24.3124  -34.7923   25.5205 C   0  0  0  0  0  0  0  0  0  0  0  0
  -26.5452  -11.7735   21.5473 C   0  0  0  0  0  0  0  0  0  0  0  0
  -25.8220  -13.3265   19.8436 C   0  0  0  0  0  0  0  0  0  0  0  0
  -22.2369  -34.6859   26.7438 C   0  0  0  0  0  0  0  0  0  0  0  0
  -24.1922  -33.4395   25.2045 C   0  0  0  0  0  0  0  0  0  0  0  0
  -25.9514  -30.7001   20.0173 C   0  0  0  0  0  0  0  0  0  0  0  0
  -30.7127  -22.8641   20.4158 C   0  0  0  0  0  0  0  0  0  0  0  0
  -30.3574  -21.8292   21.2808 C   0  0  0  0  0  0  0  0  0  0  0  0
  -25.3239  -11.1059   21.4571 C   0  0  0  0  0  0  0  0  0  0  0  0
  -24.6007  -12.6588   19.7534 C   0  0  0  0  0  0  0  0  0  0  0  0
  -27.0903  -29.9691   19.6822 C   0  0  0  0  0  0  0  0  0  0  0  0
  -23.8586   -8.8605   19.3970 C   0  0  0  0  0  0  0  0  0  0  0  0
  -23.8836   -7.4666   19.3521 C   0  0  0  0  0  0  0  0  0  0  0  0
  -25.9052  -27.9204   20.1483 C   0  0  0  0  0  0  0  0  0  0  0  0
  -29.0232  -22.1355   18.8500 C   0  0  0  0  0  0  0  0  0  0  0  0
  -22.5600   -7.3779   21.3714 C   0  0  0  0  0  0  0  0  0  0  0  0
  -26.7943  -12.8839   20.7405 C   0  0  0  0  0  0  0  0  0  0  0  0
  -29.2255  -13.3107   20.0963 C   0  0  0  0  0  0  0  0  0  0  0  0
  -22.0983  -33.3258   26.4251 C   0  0  0  0  0  0  0  0  0  0  0  0
  -24.7822  -30.0461   20.4317 C   0  0  0  0  0  0  0  0  0  0  0  0
  -23.0916  -32.6910   25.6552 C   0  0  0  0  0  0  0  0  0  0  0  0
  -24.7520  -28.6453   20.4857 C   0  0  0  0  0  0  0  0  0  0  0  0
  -30.0456  -23.0173   19.2004 C   0  0  0  0  0  0  0  0  0  0  0  0
  -28.6679  -21.1005   19.7150 C   0  0  0  0  0  0  0  0  0  0  0  0
  -29.3350  -20.9474   20.9304 C   0  0  0  0  0  0  0  0  0  0  0  0
  -24.3516  -11.5485   20.5602 C   0  0  0  0  0  0  0  0  0  0  0  0
  -27.0682  -28.5792   19.7504 C   0  0  0  0  0  0  0  0  0  0  0  0
  -23.1843   -9.5132   20.4291 C   0  0  0  0  0  0  0  0  0  0  0  0
  -23.2342   -6.7253   20.3393 C   0  0  0  0  0  0  0  0  0  0  0  0
  -22.5350   -8.7718   21.4162 C   0  0  0  0  0  0  0  0  0  0  0  0
  -28.0555  -13.5744   20.8336 C   0  0  0  0  0  0  0  0  0  0  0  0
  -30.1339  -14.2347   20.5518 C   0  0  0  0  0  0  0  0  0  0  0  0
  -30.2789  -26.5233   17.8037 C   0  0  0  0  0  0  0  0  0  0  0  0
  -31.5518  -26.8997   17.6327 C   0  0  0  0  0  0  0  0  0  0  0  0
  -29.4692  -12.3192   19.0897 C   0  0  0  0  0  0  0  0  0  0  0  0
  -23.0449  -30.0287   23.0934 C   0  0  0  0  0  0  0  0  0  0  0  0
  -21.0443  -28.1992   21.3121 C   0  0  0  0  0  0  0  0  0  0  0  0
  -20.6372  -26.0879   18.6619 C   0  0  0  0  0  0  0  0  0  0  0  0
  -29.5625  -19.6264   23.0634 C   0  0  0  0  0  0  0  0  0  0  0  0
  -20.9175  -32.5674   26.9776 C   0  0  0  0  0  0  0  0  0  0  0  0
  -23.5538  -30.8479   20.7641 C   0  0  0  0  0  0  0  0  0  0  0  0
  -23.5155  -27.8944   20.9049 C   0  0  0  0  0  0  0  0  0  0  0  0
  -29.0813  -27.2401   17.2629 C   0  0  0  0  0  0  0  0  0  0  0  0
  -20.6747  -31.2291   26.2845 C   0  0  0  0  0  0  0  0  0  0  0  0
  -31.2345  -16.8014   24.4422 C   0  0  0  0  0  0  0  0  0  0  0  0
  -21.9830  -30.4586   26.1380 C   0  0  0  0  0  0  0  0  0  0  0  0
  -30.7201  -15.6300   23.6022 C   0  0  0  0  0  0  0  0  0  0  0  0
  -30.1443  -17.8419   24.6920 C   0  0  0  0  0  0  0  0  0  0  0  0
  -28.9531  -17.1628   22.6453 C   0  0  0  0  0  0  0  0  0  0  0  0
  -28.4210  -25.5428   18.8389 C   0  0  0  0  0  0  0  0  0  0  0  0
  -22.9842  -31.2313   25.2708 C   0  0  1  0  0  0  0  0  0  0  0  0
  -22.5781  -30.0996   21.6670 C   0  0  1  0  0  0  0  0  0  0  0  0
  -30.0330  -16.1203   22.3126 C   0  0  2  0  0  0  0  0  0  0  0  0
  -28.0606  -26.9380   18.3489 C   0  0  1  0  0  0  0  0  0  1  0  0
  -27.5709  -20.1688   19.3125 C   0  0  0  0  0  0  0  0  0  0  0  0
  -18.8937  -24.7244   17.4793 C   0  0  0  0  0  0  0  0  0  0  0  0
  -21.1570  -26.1229   23.5450 C   0  0  0  0  0  0  0  0  0  0  0  0
  -20.2155  -24.4478   21.9400 C   0  0  0  0  0  0  0  0  0  0  0  0
  -18.8866  -26.4675   22.5545 C   0  0  0  0  0  0  0  0  0  0  0  0
  -21.0012  -27.5958   16.1415 C   0  0  0  0  0  0  0  0  0  0  0  0
  -30.4295  -24.1291   18.2690 C   0  0  0  0  0  0  0  0  0  0  0  0
  -20.9000  -26.7202   21.0464 C   0  0  1  0  0  0  0  0  0  0  0  0
  -19.6127  -26.0630   17.5420 C   0  0  2  0  0  0  0  0  0  0  0  0
  -20.3138  -25.9535   22.2654 C   0  0  0  0  0  0  0  0  0  0  0  0
  -28.2044  -14.5865   21.6923 N   0  0  0  0  0  0  0  0  0  0  0  0
  -29.4785  -14.9669   21.4976 N   0  0  0  0  0  0  0  0  0  0  0  0
  -22.3419  -28.7233   21.2261 N   0  0  0  0  0  0  0  0  0  0  0  0
  -29.5415  -18.2628   23.4254 N   0  0  0  0  0  0  0  0  0  0  0  0
  -31.4214  -14.4841   20.2316 N   0  0  0  0  0  0  0  0  0  0  0  0
  -28.4262  -11.4502   18.7414 N   0  0  0  0  0  0  0  0  0  0  0  0
  -28.9889  -19.9025   21.8227 N   0  0  0  0  0  0  0  0  0  0  0  0
  -22.6460  -31.1000   23.8698 N   0  0  0  0  0  0  0  0  0  0  0  0
  -20.1074  -26.5999   19.8275 N   0  0  0  0  0  0  0  0  0  0  0  0
  -29.9415  -25.4715   18.7241 N   0  3  1  0  0  0  0  0  0  0  0  0
  -20.2750  -26.3027   16.2287 N   0  3  0  0  0  0  0  0  0  0  0  0
  -30.5840  -12.1965   18.5279 O   0  0  0  0  0  0  0  0  0  0  0  0
  -23.7159  -29.0722   23.4627 O   0  0  0  0  0  0  0  0  0  0  0  0
  -20.0416  -28.8664   21.5788 O   0  0  0  0  0  0  0  0  0  0  0  0
  -21.7909  -25.6893   18.5183 O   0  0  0  0  0  0  0  0  0  0  0  0
  -30.0776  -20.4822   23.7875 O   0  0  0  0  0  0  0  0  0  0  0  0
  -23.1598  -10.8971   20.4718 O   0  0  0  0  0  0  0  0  0  0  0  0
  -28.1787  -27.8633   19.4245 O   0  0  0  0  0  0  0  0  0  1  0  0
  -23.2570   -5.3868   20.2952 F   0  0  0  0  0  0  0  0  0  0  0  0
  -21.8846   -9.3932   22.4096 F   0  0  0  0  0  0  0  0  0  0  0  0
  1  2  1  0  0  0  0
  1  5  2  0  0  0  0
  2  6  2  0  0  0  0
  3 10  2  0  0  0  0
  3 18  1  0  0  0  0
  4 11  1  0  0  0  0
  4 18  2  0  0  0  0
  5 20  1  0  0  0  0
  6 22  1  0  0  0  0
  7 12  2  0  0  0  0
  7 21  1  0  0  0  0
  8  9  2  0  0  0  0
  8 24  1  0  0  0  0
  9 26  1  0  0  0  0
 10 27  1  0  0  0  0
 11 27  2  0  0  0  0
 12 28  1  0  0  0  0
 13 14  2  0  0  0  0
 13 29  1  0  0  0  0
 14 30  1  0  0  0  0
 15 23  1  0  0  0  0
 15 28  2  0  0  0  0
 16 24  2  0  0  0  0
 16 25  1  0  0  0  0
 17 30  2  0  0  0  0
 17 31  1  0  0  0  0
 18 32  1  0  0  0  0
 19 32  1  0  0  0  0
 19 33  2  0  0  0  0
 19 36  1  0  0  0  0
 20 22  2  0  0  0  0
 20 41  1  0  0  0  0
 21 23  2  0  0  0  0
 21 42  1  0  0  0  0
 22 52  1  0  0  0  0
 23 43  1  0  0  0  0
 24 62  1  0  0  0  0
 25 26  2  0  0  0  0
 25 56  1  0  0  0  0
 26 72  1  0  0  0  0
 27 82  1  0  0  0  0
 28 83  1  0  0  0  0
 29 31  2  0  0  0  0
 29 82  1  0  0  0  0
 30 84  1  0  0  0  0
 31 85  1  0  0  0  0
 32 66  2  0  0  0  0
 33 67  1  0  0  0  0
 33 70  1  0  0  0  0
 34 35  2  0  0  0  0
 34 44  1  0  0  0  0
 34 75  1  0  0  0  0
 36 71  1  0  0  0  0
 36 77  2  0  0  0  0
 37 53  1  0  0  0  0
 37 73  1  0  0  0  0
 37 78  2  0  0  0  0
 38 63  1  0  0  0  0
 38 68  1  0  0  0  0
 38 79  2  0  0  0  0
 39 64  1  0  0  0  0
 39 74  1  0  0  0  0
 39 80  2  0  0  0  0
 40 69  1  0  0  0  0
 40 72  1  0  0  0  0
 40 81  2  0  0  0  0
 41 45  1  0  0  0  0
 42 53  1  0  0  0  0
 43 68  1  0  0  0  0
 44 55  1  0  0  0  0
 45 47  1  0  0  0  0
 46 48  1  0  0  0  0
 46 49  1  0  0  0  0
 47 52  1  0  0  0  0
 48 54  1  0  0  0  0
 49 69  1  0  0  0  0
 50 54  1  0  0  0  0
 50 69  1  0  0  0  0
 51 55  1  0  0  0  0
 51 75  1  0  0  0  0
 52 73  1  0  0  0  0
 53 68  1  0  0  0  0
 54 67  1  0  0  0  0
 55 83  1  0  0  0  0
 57 64  1  0  0  0  0
 58 65  1  0  0  0  0
 59 65  1  0  0  0  0
 60 65  1  0  0  0  0
 61 76  1  0  0  0  0
 62 75  1  0  0  0  0
 63 65  1  0  0  0  0
 63 74  1  0  0  0  0
 64 76  1  0  0  0  0
 66 67  1  0  0  0  0
M  CHG  2  75   1  76   1
M  ISO  4  40 100  55 101  72 100  83 101
M  END
> <Batch ID>
0034

> <Smiles>
C=C1C[101CH:1]([101O:1]c2ccc3c(c2)CN(C(=O)C(NC(=O)C(C)NC)C(C)(C)C)C(C(=O)NC2CCCc4ccccc42)C3)CN1Cc1ccc([100NH:0][100C:0](=O)N2CCCC(n3nc(-c4ccc(Oc5ccc(F)cc5F)cc4)c(C(N)=O)c3N)C2)c(C)c1

> <Shape>
0.306

> <Color>
0.061

> <Negative vol penalty>
0.000

$$$$

  -OEChem-04042321483D

 88 97  0     1  0  0  0  0  0999 V2000
  -35.0209  -31.7023   16.3493 C   0  0  0  0  0  0  0  0  0  0  0  0
  -35.1852  -30.8735   17.4545 C   0  0  0  0  0  0  0  0  0  0  0  0
  -23.0447   -9.8969   19.9048 C   0  0  0  0  0  0  0  0  0  0  0  0
  -23.8263   -9.8174   22.1895 C   0  0  0  0  0  0  0  0  0  0  0  0
  -33.8135  -31.7015   15.6521 C   0  0  0  0  0  0  0  0  0  0  0  0
  -34.1416  -30.0441   17.8639 C   0  0  0  0  0  0  0  0  0  0  0  0
  -34.6272  -24.4503   20.3091 C   0  0  0  0  0  0  0  0  0  0  0  0
  -22.2931   -8.7421   20.1217 C   0  0  0  0  0  0  0  0  0  0  0  0
  -23.0747   -8.6626   22.4064 C   0  0  0  0  0  0  0  0  0  0  0  0
  -34.5872  -23.9958   21.6266 C   0  0  0  0  0  0  0  0  0  0  0  0
  -19.3519   -7.9202   21.5731 C   0  0  0  0  0  0  0  0  0  0  0  0
  -18.0401   -7.9019   21.0993 C   0  0  0  0  0  0  0  0  0  0  0  0
  -32.2438  -23.4829   21.3721 C   0  0  0  0  0  0  0  0  0  0  0  0
  -32.1164  -16.4513   22.6425 C   0  0  0  0  0  0  0  0  0  0  0  0
  -18.5702   -6.0015   19.7048 C   0  0  0  0  0  0  0  0  0  0  0  0
  -23.8113  -10.4346   20.9387 C   0  0  0  0  0  0  0  0  0  0  0  0
  -24.1741  -12.9594   20.9033 C   0  0  0  0  0  0  0  0  0  0  0  0
  -32.7580  -30.8647   16.0473 C   0  0  0  0  0  0  0  0  0  0  0  0
  -33.4713  -24.4346   19.5154 C   0  0  0  0  0  0  0  0  0  0  0  0
  -32.9185  -30.0331   17.1721 C   0  0  0  0  0  0  0  0  0  0  0  0
  -32.2724  -23.9353   20.0441 C   0  0  0  0  0  0  0  0  0  0  0  0
  -32.7404  -17.2897   23.5662 C   0  0  0  0  0  0  0  0  0  0  0  0
  -30.5868  -18.1585   24.2326 C   0  0  0  0  0  0  0  0  0  0  0  0
  -31.9756  -18.1433   24.3612 C   0  0  0  0  0  0  0  0  0  0  0  0
  -29.9627  -17.3201   23.3088 C   0  0  0  0  0  0  0  0  0  0  0  0
  -30.7275  -16.4666   22.5137 C   0  0  0  0  0  0  0  0  0  0  0  0
  -22.3081   -8.1249   21.3725 C   0  0  0  0  0  0  0  0  0  0  0  0
  -33.3947  -23.5147   22.1592 C   0  0  0  0  0  0  0  0  0  0  0  0
  -20.2729   -6.9792   21.1127 C   0  0  0  0  0  0  0  0  0  0  0  0
  -17.6492   -6.9426   20.1652 C   0  0  0  0  0  0  0  0  0  0  0  0
  -19.8820   -6.0198   20.1786 C   0  0  0  0  0  0  0  0  0  0  0  0
  -24.5883  -11.6272   20.7151 C   0  0  0  0  0  0  0  0  0  0  0  0
  -25.2693  -13.7119   20.5557 C   0  0  0  0  0  0  0  0  0  0  0  0
  -33.3765  -21.3245   25.8496 C   0  0  0  0  0  0  0  0  0  0  0  0
  -32.8507  -21.5756   27.0544 C   0  0  0  0  0  0  0  0  0  0  0  0
  -22.9122  -13.4710   21.3523 C   0  0  0  0  0  0  0  0  0  0  0  0
  -31.7209  -26.6516   18.0577 C   0  0  0  0  0  0  0  0  0  0  0  0
  -30.1584  -24.0737   16.8597 C   0  0  0  0  0  0  0  0  0  0  0  0
  -29.3180  -20.7828   17.1926 C   0  0  0  0  0  0  0  0  0  0  0  0
  -30.7458  -14.7047   20.7133 C   0  0  0  0  0  0  0  0  0  0  0  0
  -31.4550  -30.9332   15.2909 C   0  0  0  0  0  0  0  0  0  0  0  0
  -33.5373  -24.9035   18.0877 C   0  0  0  0  0  0  0  0  0  0  0  0
  -31.0083  -23.8784   19.2272 C   0  0  0  0  0  0  0  0  0  0  0  0
  -34.5654  -22.0166   25.2597 C   0  0  0  0  0  0  0  0  0  0  0  0
  -30.5294  -29.7504   15.5637 C   0  0  0  0  0  0  0  0  0  0  0  0
  -29.5879  -12.3844   18.2734 C   0  0  0  0  0  0  0  0  0  0  0  0
  -30.4446  -29.4731   17.0613 C   0  0  0  0  0  0  0  0  0  0  0  0
  -28.1499  -12.0902   18.7066 C   0  0  0  0  0  0  0  0  0  0  0  0
  -30.5163  -12.5634   19.4733 C   0  0  0  0  0  0  0  0  0  0  0  0
  -28.6290  -13.2553   20.8975 C   0  0  0  0  0  0  0  0  0  0  0  0
  -33.4497  -20.6727   23.6013 C   0  0  0  0  0  0  0  0  0  0  0  0
  -31.8185  -29.1012   17.6321 C   0  0  1  0  0  0  0  0  0  0  0  0
  -32.1789  -25.3205   17.5324 C   0  0  1  0  0  0  0  0  0  0  0  0
  -27.6436  -13.1315   19.7239 C   0  0  2  0  0  0  0  0  0  0  0  0
  -34.2049  -21.9817   23.7827 C   0  0  1  0  0  0  0  0  0  1  0  0
  -34.2294  -17.2568   23.6817 C   0  0  0  0  0  0  0  0  0  0  0  0
  -29.7670  -19.0746   25.0857 C   0  0  0  0  0  0  0  0  0  0  0  0
  -28.0187  -18.1052   21.9337 C   0  0  0  0  0  0  0  0  0  0  0  0
  -27.9990  -18.9638   16.0751 C   0  0  0  0  0  0  0  0  0  0  0  0
  -27.5712  -25.3188   17.8922 C   0  0  0  0  0  0  0  0  0  0  0  0
  -26.4684  -23.0885   17.6131 C   0  0  0  0  0  0  0  0  0  0  0  0
  -27.3955  -24.2769   15.6255 C   0  0  0  0  0  0  0  0  0  0  0  0
  -31.7296  -19.1108   16.8081 C   0  0  0  0  0  0  0  0  0  0  0  0
  -28.4723  -17.3395   23.1714 C   0  0  0  0  0  0  0  0  0  0  0  0
  -32.6502  -19.0447   25.3529 C   0  0  0  0  0  0  0  0  0  0  0  0
  -28.9804  -23.2382   17.2992 C   0  0  1  0  0  0  0  0  0  0  0  0
  -29.3606  -19.6278   16.2084 C   0  0  2  0  0  0  0  0  0  0  0  0
  -27.6271  -23.9834   17.1238 C   0  0  0  0  0  0  0  0  0  0  0  0
  -25.8483  -11.5354   20.2813 N   0  0  0  0  0  0  0  0  0  0  0  0
  -26.2352  -12.8194   20.1941 N   0  0  0  0  0  0  0  0  0  0  0  0
  -31.1223  -24.3541   17.8386 N   0  0  0  0  0  0  0  0  0  0  0  0
  -29.9748  -13.5677   20.3915 N   0  0  0  0  0  0  0  0  0  0  0  0
  -25.4906  -15.0433   20.5270 N   0  0  0  0  0  0  0  0  0  0  0  0
  -21.8956  -12.5592   21.6676 N   0  0  0  0  0  0  0  0  0  0  0  0
  -30.1144  -15.6060   21.5697 N   0  0  0  0  0  0  0  0  0  0  0  0
  -32.1469  -27.7300   17.3059 N   0  0  0  0  0  0  0  0  0  0  0  0
  -29.0717  -21.9834   16.5607 N   0  0  0  0  0  0  0  0  0  0  0  0
  -32.6916  -20.4769   24.9117 N   0  3  1  0  0  0  0  0  0  0  0  0
  -30.3425  -18.6006   16.6575 N   0  3  0  0  0  0  0  0  0  0  0  0
  -22.6873  -14.7008   21.4548 O   0  0  0  0  0  0  0  0  0  0  0  0
  -31.0308  -26.6969   19.0693 O   0  0  0  0  0  0  0  0  0  0  0  0
  -30.2247  -24.4571   15.6891 O   0  0  0  0  0  0  0  0  0  0  0  0
  -29.4828  -20.6343   18.4014 O   0  0  0  0  0  0  0  0  0  0  0  0
  -31.8719  -14.8801   20.2408 O   0  0  0  0  0  0  0  0  0  0  0  0
  -21.5747   -6.9981   21.5846 O   0  0  0  0  0  0  0  0  0  0  0  0
  -33.3528  -23.0711   23.4450 O   0  0  0  0  0  0  0  0  0  1  0  0
  -16.3891   -6.9242   19.7115 F   0  0  0  0  0  0  0  0  0  0  0  0
  -20.7620   -5.1125   19.7334 F   0  0  0  0  0  0  0  0  0  0  0  0
  1  2  1  0  0  0  0
  1  5  2  0  0  0  0
  2  6  2  0  0  0  0
  3  8  2  0  0  0  0
  3 16  1  0  0  0  0
  4  9  1  0  0  0  0
  4 16  2  0  0  0  0
  5 18  1  0  0  0  0
  6 20  1  0  0  0  0
  7 10  2  0  0  0  0
  7 19  1  0  0  0  0
  8 27  1  0  0  0  0
  9 27  2  0  0  0  0
 10 28  1  0  0  0  0
 11 12  2  0  0  0  0
 11 29  1  0  0  0  0
 12 30  1  0  0  0  0
 13 21  1  0  0  0  0
 13 28  2  0  0  0  0
 14 22  2  0  0  0  0
 14 26  1  0  0  0  0
 15 30  2  0  0  0  0
 15 31  1  0  0  0  0
 16 32  1  0  0  0  0
 17 32  1  0  0  0  0
 17 33  2  0  0  0  0
 17 36  1  0  0  0  0
 18 20  2  0  0  0  0
 18 41  1  0  0  0  0
 19 21  2  0  0  0  0
 19 42  1  0  0  0  0
 20 52  1  0  0  0  0
 21 43  1  0  0  0  0
 22 24  1  0  0  0  0
 22 56  1  0  0  0  0
 23 24  2  0  0  0  0
 23 25  1  0  0  0  0
 23 57  1  0  0  0  0
 24 65  1  0  0  0  0
 25 26  2  0  0  0  0
 25 64  1  0  0  0  0
 26 75  1  0  0  0  0
 27 85  1  0  0  0  0
 28 86  1  0  0  0  0
 29 31  2  0  0  0  0
 29 85  1  0  0  0  0
 30 87  1  0  0  0  0
 31 88  1  0  0  0  0
 32 69  2  0  0  0  0
 33 70  1  0  0  0  0
 33 73  1  0  0  0  0
 34 35  2  0  0  0  0
 34 44  1  0  0  0  0
 34 78  1  0  0  0  0
 36 74  1  0  0  0  0
 36 80  2  0  0  0  0
 37 53  1  0  0  0  0
 37 76  1  0  0  0  0
 37 81  2  0  0  0  0
 38 66  1  0  0  0  0
 38 71  1  0  0  0  0
 38 82  2  0  0  0  0
 39 67  1  0  0  0  0
 39 77  1  0  0  0  0
 39 83  2  0  0  0  0
 40 72  1  0  0  0  0
 40 75  1  0  0  0  0
 40 84  2  0  0  0  0
 41 45  1  0  0  0  0
 42 53  1  0  0  0  0
 43 71  1  0  0  0  0
 44 55  1  0  0  0  0
 45 47  1  0  0  0  0
 46 48  1  0  0  0  0
 46 49  1  0  0  0  0
 47 52  1  0  0  0  0
 48 54  1  0  0  0  0
 49 72  1  0  0  0  0
 50 54  1  0  0  0  0
 50 72  1  0  0  0  0
 51 55  1  0  0  0  0
 51 78  1  0  0  0  0
 52 76  1  0  0  0  0
 53 71  1  0  0  0  0
 54 70  1  0  0  0  0
 55 86  1  0  0  0  0
 58 64  1  0  0  0  0
 59 67  1  0  0  0  0
 60 68  1  0  0  0  0
 61 68  1  0  0  0  0
 62 68  1  0  0  0  0
 63 79  1  0  0  0  0
 65 78  1  0  0  0  0
 66 68  1  0  0  0  0
 66 77  1  0  0  0  0
 67 79  1  0  0  0  0
 69 70  1  0  0  0  0
M  CHG  2  78   1  79   1
M  ISO  4  40 100  55 101  75 100  86 101
M  END
> <Batch ID>
0034

> <Smiles>
C=C1C[101CH:1]([101O:1]c2ccc3c(c2)CN(C(=O)C(NC(=O)C(C)NC)C(C)(C)C)C(C(=O)NC2CCCc4ccccc42)C3)CN1Cc1c(C)cc([100NH:0][100C:0](=O)N2CCCC(n3nc(-c4ccc(Oc5ccc(F)cc5F)cc4)c(C(N)=O)c3N)C2)c(CC)c1C

> <Shape>
0.191

> <Color>
0.187

> <Negative vol penalty>
0.000

$$$$

  -OEChem-04042321483D

 86 95  0     1  0  0  0  0  0999 V2000
  -26.2472  -37.7095   24.7405 C   0  0  0  0  0  0  0  0  0  0  0  0
  -26.2305  -37.1969   23.4483 C   0  0  0  0  0  0  0  0  0  0  0  0
  -27.3197  -16.5463   18.1605 C   0  0  0  0  0  0  0  0  0  0  0  0
  -27.6591  -17.1689   20.4701 C   0  0  0  0  0  0  0  0  0  0  0  0
  -26.3714  -36.8464   25.8271 C   0  0  0  0  0  0  0  0  0  0  0  0
  -26.3259  -35.8201   23.2428 C   0  0  0  0  0  0  0  0  0  0  0  0
  -26.7123  -28.9994   19.1743 C   0  0  0  0  0  0  0  0  0  0  0  0
  -27.9231  -17.7354   17.7513 C   0  0  0  0  0  0  0  0  0  0  0  0
  -28.2625  -18.3581   20.0609 C   0  0  0  0  0  0  0  0  0  0  0  0
  -27.0973  -27.6634   19.2764 C   0  0  0  0  0  0  0  0  0  0  0  0
  -29.6985  -20.4412   16.0954 C   0  0  0  0  0  0  0  0  0  0  0  0
  -30.6328  -20.3722   15.0621 C   0  0  0  0  0  0  0  0  0  0  0  0
  -25.6589  -27.4016   21.1951 C   0  0  0  0  0  0  0  0  0  0  0  0
  -20.9766  -21.2034   23.1327 C   0  0  0  0  0  0  0  0  0  0  0  0
  -23.3299  -19.7958   22.6195 C   0  0  0  0  0  0  0  0  0  0  0  0
  -31.9953  -18.8860   16.3934 C   0  0  0  0  0  0  0  0  0  0  0  0
  -27.1877  -16.2630   19.5200 C   0  0  0  0  0  0  0  0  0  0  0  0
  -26.9823  -13.7236   19.6488 C   0  0  0  0  0  0  0  0  0  0  0  0
  -26.4809  -35.4595   25.6334 C   0  0  0  0  0  0  0  0  0  0  0  0
  -25.8044  -29.5504   20.0901 C   0  0  0  0  0  0  0  0  0  0  0  0
  -26.4279  -34.9306   24.3277 C   0  0  0  0  0  0  0  0  0  0  0  0
  -25.2620  -28.7442   21.1010 C   0  0  0  0  0  0  0  0  0  0  0  0
  -22.1924  -21.8825   23.0539 C   0  0  0  0  0  0  0  0  0  0  0  0
  -20.9375  -19.8204   22.9550 C   0  0  0  0  0  0  0  0  0  0  0  0
  -23.3690  -21.1788   22.7973 C   0  0  0  0  0  0  0  0  0  0  0  0
  -22.1141  -19.1166   22.6984 C   0  0  0  0  0  0  0  0  0  0  0  0
  -28.3945  -18.6413   18.7014 C   0  0  0  0  0  0  0  0  0  0  0  0
  -26.5729  -26.8650   20.2886 C   0  0  0  0  0  0  0  0  0  0  0  0
  -29.9125  -19.7327   17.2778 C   0  0  0  0  0  0  0  0  0  0  0  0
  -31.7812  -19.5946   15.2110 C   0  0  0  0  0  0  0  0  0  0  0  0
  -31.0609  -18.9551   17.4267 C   0  0  0  0  0  0  0  0  0  0  0  0
  -26.5640  -15.0351   19.9434 C   0  0  0  0  0  0  0  0  0  0  0  0
  -26.0628  -12.9204   20.2781 C   0  0  0  0  0  0  0  0  0  0  0  0
  -28.1019  -13.2717   18.8755 C   0  0  0  0  0  0  0  0  0  0  0  0
  -25.9270  -31.8890   22.2394 C   0  0  0  0  0  0  0  0  0  0  0  0
  -22.7592  -31.2561   22.5346 C   0  0  0  0  0  0  0  0  0  0  0  0
  -20.6608  -28.3241   22.6659 C   0  0  0  0  0  0  0  0  0  0  0  0
  -23.1065  -16.7948   22.8153 C   0  0  0  0  0  0  0  0  0  0  0  0
  -26.6054  -34.5704   26.8455 C   0  0  0  0  0  0  0  0  0  0  0  0
  -25.3787  -30.9863   19.9502 C   0  0  0  0  0  0  0  0  0  0  0  0
  -24.2685  -29.2822   22.0970 C   0  0  0  0  0  0  0  0  0  0  0  0
  -27.1439  -33.1829   26.5124 C   0  0  0  0  0  0  0  0  0  0  0  0
  -21.4478  -13.5504   21.5548 C   0  0  0  0  0  0  0  0  0  0  0  0
  -25.2313  -22.5412   18.9790 C   0  0  0  0  0  0  0  0  0  0  0  0
  -26.3704  -32.5921   25.3431 C   0  0  0  0  0  0  0  0  0  0  0  0
  -22.7302  -13.1471   20.8379 C   0  0  0  0  0  0  0  0  0  0  0  0
  -26.2141  -23.7006   19.0756 C   0  0  0  0  0  0  0  0  0  0  0  0
  -21.4929  -15.0297   21.9277 C   0  0  0  0  0  0  0  0  0  0  0  0
  -23.7122  -14.3833   22.8707 C   0  0  0  0  0  0  0  0  0  0  0  0
  -25.1839  -21.7352   20.2693 C   0  0  0  0  0  0  0  0  0  0  0  0
  -25.8652  -23.7669   21.5723 C   0  0  0  0  0  0  0  0  0  0  0  0
  -26.5611  -33.4391   24.0785 C   0  0  1  0  0  0  0  0  0  0  0  0
  -24.8406  -31.5791   21.2488 C   0  0  1  0  0  0  0  0  0  0  0  0
  -23.9710  -13.3884   21.7208 C   0  0  2  0  0  0  0  0  0  0  0  0
  -25.9195  -24.5809   20.2861 C   0  0  1  0  0  0  0  0  0  1  0  0
  -22.2098  -23.3633   23.2480 C   0  0  0  0  0  0  0  0  0  0  0  0
  -19.6212  -19.1188   23.0447 C   0  0  0  0  0  0  0  0  0  0  0  0
  -18.2528  -28.0115   22.0322 C   0  0  0  0  0  0  0  0  0  0  0  0
  -22.2116  -31.8125   25.4843 C   0  0  0  0  0  0  0  0  0  0  0  0
  -20.4153  -30.0702   25.4076 C   0  0  0  0  0  0  0  0  0  0  0  0
  -20.2343  -32.1093   23.9821 C   0  0  0  0  0  0  0  0  0  0  0  0
  -21.3137  -26.1026   20.8227 C   0  0  0  0  0  0  0  0  0  0  0  0
  -24.6883  -21.8877   22.7083 C   0  0  0  0  0  0  0  0  0  0  0  0
  -21.9293  -30.3294   23.3898 C   0  0  1  0  0  0  0  0  0  0  0  0
  -19.6993  -27.8459   21.5929 C   0  0  2  0  0  0  0  0  0  0  0  0
  -21.2244  -31.0739   24.5586 C   0  0  0  0  0  0  0  0  0  0  0  0
  -25.4643  -15.0677   20.7008 N   0  0  0  0  0  0  0  0  0  0  0  0
  -25.1838  -13.7667   20.8874 N   0  0  0  0  0  0  0  0  0  0  0  0
  -23.8884  -30.6938   21.9224 N   0  0  0  0  0  0  0  0  0  0  0  0
  -22.7751  -15.4507   22.5112 N   0  0  0  0  0  0  0  0  0  0  0  0
  -25.9286  -11.5799   20.3642 N   0  0  0  0  0  0  0  0  0  0  0  0
  -29.3224  -13.0561   19.5298 N   0  0  0  0  0  0  0  0  0  0  0  0
  -22.0949  -17.7109   22.5147 N   0  0  0  0  0  0  0  0  0  0  0  0
  -25.6530  -32.9703   23.0550 N   0  0  0  0  0  0  0  0  0  0  0  0
  -21.0168  -29.6434   22.4815 N   0  0  0  0  0  0  0  0  0  0  0  0
  -24.8609  -22.6524   21.4248 N   0  3  2  0  0  0  0  0  0  0  0  0
  -19.9364  -26.4063   21.2892 N   0  3  0  0  0  0  0  0  0  0  0  0
  -28.0266  -13.0810   17.6379 O   0  0  0  0  0  0  0  0  0  0  0  0
  -26.9383  -31.1974   22.2631 O   0  0  0  0  0  0  0  0  0  0  0  0
  -22.4143  -32.4337   22.4084 O   0  0  0  0  0  0  0  0  0  0  0  0
  -21.0536  -27.6008   23.5786 O   0  0  0  0  0  0  0  0  0  0  0  0
  -24.1965  -17.0984   23.3046 O   0  0  0  0  0  0  0  0  0  0  0  0
  -28.9835  -19.8016   18.3024 O   0  0  0  0  0  0  0  0  0  0  0  0
  -26.9476  -25.5607   20.3908 O   0  0  0  0  0  0  0  0  0  1  0  0
  -32.6777  -19.5271   14.2181 F   0  0  0  0  0  0  0  0  0  0  0  0
  -31.2714  -18.2713   18.5598 F   0  0  0  0  0  0  0  0  0  0  0  0
  1  2  1  0  0  0  0
  1  5  2  0  0  0  0
  2  6  2  0  0  0  0
  3  8  2  0  0  0  0
  3 17  1  0  0  0  0
  4  9  1  0  0  0  0
  4 17  2  0  0  0  0
  5 19  1  0  0  0  0
  6 21  1  0  0  0  0
  7 10  2  0  0  0  0
  7 20  1  0  0  0  0
  8 27  1  0  0  0  0
  9 27  2  0  0  0  0
 10 28  1  0  0  0  0
 11 12  2  0  0  0  0
 11 29  1  0  0  0  0
 12 30  1  0  0  0  0
 13 22  1  0  0  0  0
 13 28  2  0  0  0  0
 14 23  1  0  0  0  0
 14 24  2  0  0  0  0
 15 25  1  0  0  0  0
 15 26  2  0  0  0  0
 16 30  2  0  0  0  0
 16 31  1  0  0  0  0
 17 32  1  0  0  0  0
 18 32  1  0  0  0  0
 18 33  2  0  0  0  0
 18 34  1  0  0  0  0
 19 21  2  0  0  0  0
 19 39  1  0  0  0  0
 20 22  2  0  0  0  0
 20 40  1  0  0  0  0
 21 52  1  0  0  0  0
 22 41  1  0  0  0  0
 23 25  2  0  0  0  0
 23 56  1  0  0  0  0
 24 26  1  0  0  0  0
 24 57  1  0  0  0  0
 25 63  1  0  0  0  0
 26 73  1  0  0  0  0
 27 83  1  0  0  0  0
 28 84  1  0  0  0  0
 29 31  2  0  0  0  0
 29 83  1  0  0  0  0
 30 85  1  0  0  0  0
 31 86  1  0  0  0  0
 32 67  2  0  0  0  0
 33 68  1  0  0  0  0
 33 71  1  0  0  0  0
 34 72  1  0  0  0  0
 34 78  2  0  0  0  0
 35 53  1  0  0  0  0
 35 74  1  0  0  0  0
 35 79  2  0  0  0  0
 36 64  1  0  0  0  0
 36 69  1  0  0  0  0
 36 80  2  0  0  0  0
 37 65  1  0  0  0  0
 37 75  1  0  0  0  0
 37 81  2  0  0  0  0
 38 70  1  0  0  0  0
 38 73  1  0  0  0  0
 38 82  2  0  0  0  0
 39 42  1  0  0  0  0
 40 53  1  0  0  0  0
 41 69  1  0  0  0  0
 42 45  1  0  0  0  0
 43 46  1  0  0  0  0
 43 48  1  0  0  0  0
 44 47  1  0  0  0  0
 44 50  1  0  0  0  0
 45 52  1  0  0  0  0
 46 54  1  0  0  0  0
 47 55  1  0  0  0  0
 48 70  1  0  0  0  0
 49 54  1  0  0  0  0
 49 70  1  0  0  0  0
 50 76  1  0  0  0  0
 51 55  1  0  0  0  0
 51 76  1  0  0  0  0
 52 74  1  0  0  0  0
 53 69  1  0  0  0  0
 54 68  1  0  0  0  0
 55 84  1  0  0  0  0
 58 65  1  0  0  0  0
 59 66  1  0  0  0  0
 60 66  1  0  0  0  0
 61 66  1  0  0  0  0
 62 77  1  0  0  0  0
 63 76  1  0  0  0  0
 64 66  1  0  0  0  0
 64 75  1  0  0  0  0
 65 77  1  0  0  0  0
 67 68  1  0  0  0  0
M  CHG  2  76   1  77   1
M  ISO  4  38 100  55 101  73 100  84 101
M  END
> <Batch ID>
0034

> <Smiles>
CNC(C)C(=O)NC(C(=O)N1Cc2cc([101O:1][101CH:1]3CCCN(Cc4cc([100NH:0][100C:0](=O)N5CCCC(n6nc(-c7ccc(Oc8ccc(F)cc8F)cc7)c(C(N)=O)c6N)C5)c(C)cc4C)C3)ccc2CC1C(=O)NC1CCCc2ccccc21)C(C)(C)C

> <Shape>
0.266

> <Color>
0.093

> <Negative vol penalty>
0.000

$$$$

  -OEChem-04042321483D

 86 95  0     1  0  0  0  0  0999 V2000
  -22.2501  -10.9182   18.8098 C   0  0  0  0  0  0  0  0  0  0  0  0
  -21.8380  -12.2369   18.9727 C   0  0  0  0  0  0  0  0  0  0  0  0
  -29.1704  -27.0986   24.7853 C   0  0  0  0  0  0  0  0  0  0  0  0
  -27.1893  -25.8282   25.3316 C   0  0  0  0  0  0  0  0  0  0  0  0
  -23.4628  -10.4959   19.3529 C   0  0  0  0  0  0  0  0  0  0  0  0
  -22.6379  -13.1339   19.6798 C   0  0  0  0  0  0  0  0  0  0  0  0
  -23.3348  -19.1151   18.5639 C   0  0  0  0  0  0  0  0  0  0  0  0
  -18.3176  -26.9761   24.1206 C   0  0  0  0  0  0  0  0  0  0  0  0
  -18.7682  -28.1872   23.5956 C   0  0  0  0  0  0  0  0  0  0  0  0
  -29.7124  -26.7898   26.0329 C   0  0  0  0  0  0  0  0  0  0  0  0
  -27.7313  -25.5194   26.5791 C   0  0  0  0  0  0  0  0  0  0  0  0
  -22.7573  -20.2490   19.1335 C   0  0  0  0  0  0  0  0  0  0  0  0
  -29.3721  -27.8442   29.2261 C   0  0  0  0  0  0  0  0  0  0  0  0
  -29.9720  -28.8780   29.9451 C   0  0  0  0  0  0  0  0  0  0  0  0
  -24.6671  -20.4834   20.5884 C   0  0  0  0  0  0  0  0  0  0  0  0
  -32.0647  -27.6706   29.9351 C   0  0  0  0  0  0  0  0  0  0  0  0
  -27.9088  -26.6179   24.4347 C   0  0  0  0  0  0  0  0  0  0  0  0
  -27.4888  -26.2040   21.9527 C   0  0  0  0  0  0  0  0  0  0  0  0
  -24.2826  -11.3906   20.0587 C   0  0  0  0  0  0  0  0  0  0  0  0
  -24.5799  -18.6497   19.0106 C   0  0  0  0  0  0  0  0  0  0  0  0
  -23.8621  -12.7228   20.2340 C   0  0  0  0  0  0  0  0  0  0  0  0
  -25.2594  -19.3448   20.0211 C   0  0  0  0  0  0  0  0  0  0  0  0
  -18.7237  -25.7722   23.5450 C   0  0  0  0  0  0  0  0  0  0  0  0
  -19.6249  -28.1945   22.4948 C   0  0  0  0  0  0  0  0  0  0  0  0
  -20.0309  -26.9906   21.9191 C   0  0  0  0  0  0  0  0  0  0  0  0
  -19.5803  -25.7794   22.4442 C   0  0  0  0  0  0  0  0  0  0  0  0
  -28.9929  -26.0002   26.9298 C   0  0  0  0  0  0  0  0  0  0  0  0
  -23.4221  -20.9317   20.1479 C   0  0  0  0  0  0  0  0  0  0  0  0
  -30.1185  -26.7235   28.8616 C   0  0  0  0  0  0  0  0  0  0  0  0
  -31.3183  -28.7912   30.2996 C   0  0  0  0  0  0  0  0  0  0  0  0
  -31.4647  -26.6368   29.2161 C   0  0  0  0  0  0  0  0  0  0  0  0
  -27.3481  -26.9370   23.1463 C   0  0  0  0  0  0  0  0  0  0  0  0
  -26.7730  -26.9193   21.0240 C   0  0  0  0  0  0  0  0  0  0  0  0
  -28.2027  -24.9854   21.7056 C   0  0  0  0  0  0  0  0  0  0  0  0
  -25.6161  -15.9720   20.3743 C   0  0  0  0  0  0  0  0  0  0  0  0
  -28.5236  -17.3522   19.9704 C   0  0  0  0  0  0  0  0  0  0  0  0
  -30.3435  -20.2122   19.5764 C   0  0  0  0  0  0  0  0  0  0  0  0
  -22.1881  -30.7439   21.4734 C   0  0  0  0  0  0  0  0  0  0  0  0
  -25.5626  -10.8760   20.6682 C   0  0  0  0  0  0  0  0  0  0  0  0
  -25.2016  -17.4405   18.3674 C   0  0  0  0  0  0  0  0  0  0  0  0
  -26.6076  -18.8979   20.5224 C   0  0  0  0  0  0  0  0  0  0  0  0
  -26.5282  -11.9834   21.0823 C   0  0  0  0  0  0  0  0  0  0  0  0
  -25.3682  -31.3773   20.0027 C   0  0  0  0  0  0  0  0  0  0  0  0
  -25.7898  -13.0769   21.8477 C   0  0  0  0  0  0  0  0  0  0  0  0
  -26.2489  -30.2450   20.5339 C   0  0  0  0  0  0  0  0  0  0  0  0
  -23.3269  -23.1391   22.7921 C   0  0  0  0  0  0  0  0  0  0  0  0
  -24.3638  -31.8505   21.0513 C   0  0  0  0  0  0  0  0  0  0  0  0
  -24.4078  -29.6520   22.1641 C   0  0  0  0  0  0  0  0  0  0  0  0
  -22.4355  -24.3315   22.5094 C   0  0  0  0  0  0  0  0  0  0  0  0
  -21.1235  -22.2679   22.3695 C   0  0  0  0  0  0  0  0  0  0  0  0
  -24.7137  -13.7319   20.9733 C   0  0  1  0  0  0  0  0  0  0  0  0
  -26.2379  -16.7580   19.2549 C   0  0  1  0  0  0  0  0  0  0  0  0
  -25.3992  -29.1033   21.1237 C   0  0  2  0  0  0  0  0  0  0  0  0
  -22.5968  -21.9963   22.1078 C   0  0  1  0  0  0  0  0  0  1  0  0
  -18.2268  -24.4893   24.1270 C   0  0  0  0  0  0  0  0  0  0  0  0
  -20.9485  -27.0003   20.7375 C   0  0  0  0  0  0  0  0  0  0  0  0
  -32.7027  -21.0249   19.3099 C   0  0  0  0  0  0  0  0  0  0  0  0
  -29.0138  -16.8981   22.9476 C   0  0  0  0  0  0  0  0  0  0  0  0
  -30.9032  -18.5355   22.8151 C   0  0  0  0  0  0  0  0  0  0  0  0
  -30.9852  -16.4285   21.4822 C   0  0  0  0  0  0  0  0  0  0  0  0
  -29.7620  -21.3873   16.9231 C   0  0  0  0  0  0  0  0  0  0  0  0
  -20.0911  -29.5054   21.9508 C   0  0  0  0  0  0  0  0  0  0  0  0
  -20.0165  -24.4830   21.8279 C   0  0  0  0  0  0  0  0  0  0  0  0
  -29.3952  -18.2696   20.7936 C   0  0  1  0  0  0  0  0  0  0  0  0
  -31.4376  -20.5823   18.5913 C   0  0  2  0  0  0  0  0  0  0  0  0
  -30.0481  -17.5405   22.0017 C   0  0  0  0  0  0  0  0  0  0  0  0
  -26.6017  -28.0340   22.9927 N   0  0  0  0  0  0  0  0  0  0  0  0
  -26.2671  -27.9956   21.6917 N   0  0  0  0  0  0  0  0  0  0  0  0
  -27.1711  -17.7065   19.8662 N   0  0  0  0  0  0  0  0  0  0  0  0
  -23.5893  -30.7201   21.5692 N   0  0  0  0  0  0  0  0  0  0  0  0
  -26.5334  -26.7264   19.7096 N   0  0  0  0  0  0  0  0  0  0  0  0
  -28.8842  -24.3823   22.7716 N   0  0  0  0  0  0  0  0  0  0  0  0
  -25.3158  -14.6641   20.0444 N   0  0  0  0  0  0  0  0  0  0  0  0
  -30.3520  -18.8643   19.8665 N   0  0  0  0  0  0  0  0  0  0  0  0
  -21.5313  -29.6304   21.9827 N   0  0  0  0  0  0  0  0  0  0  0  0
  -21.0422  -23.7627   22.6428 N   0  3  2  0  0  0  0  0  0  0  0  0
  -30.9852  -21.6943   17.7083 N   0  3  0  0  0  0  0  0  0  0  0  0
  -28.2488  -24.4559   20.5694 O   0  0  0  0  0  0  0  0  0  0  0  0
  -25.4243  -16.5116   21.4577 O   0  0  0  0  0  0  0  0  0  0  0  0
  -29.0259  -16.3617   19.4334 O   0  0  0  0  0  0  0  0  0  0  0  0
  -29.5620  -21.0371   20.0448 O   0  0  0  0  0  0  0  0  0  0  0  0
  -21.5686  -31.6852   20.9663 O   0  0  0  0  0  0  0  0  0  0  0  0
  -29.5217  -25.6984   28.1471 O   0  0  0  0  0  0  0  0  0  0  0  0
  -22.8604  -22.0385   20.7060 O   0  0  0  0  0  0  0  0  0  1  0  0
  -31.8946  -29.7847   30.9887 F   0  0  0  0  0  0  0  0  0  0  0  0
  -32.1872  -25.5632   28.8678 F   0  0  0  0  0  0  0  0  0  0  0  0
  1  2  1  0  0  0  0
  1  5  2  0  0  0  0
  2  6  2  0  0  0  0
  3 10  2  0  0  0  0
  3 17  1  0  0  0  0
  4 11  1  0  0  0  0
  4 17  2  0  0  0  0
  5 19  1  0  0  0  0
  6 21  1  0  0  0  0
  7 12  2  0  0  0  0
  7 20  1  0  0  0  0
  8  9  1  0  0  0  0
  8 23  2  0  0  0  0
  9 24  2  0  0  0  0
 10 27  1  0  0  0  0
 11 27  2  0  0  0  0
 12 28  1  0  0  0  0
 13 14  2  0  0  0  0
 13 29  1  0  0  0  0
 14 30  1  0  0  0  0
 15 22  1  0  0  0  0
 15 28  2  0  0  0  0
 16 30  2  0  0  0  0
 16 31  1  0  0  0  0
 17 32  1  0  0  0  0
 18 32  1  0  0  0  0
 18 33  2  0  0  0  0
 18 34  1  0  0  0  0
 19 21  2  0  0  0  0
 19 39  1  0  0  0  0
 20 22  2  0  0  0  0
 20 40  1  0  0  0  0
 21 51  1  0  0  0  0
 22 41  1  0  0  0  0
 23 26  1  0  0  0  0
 23 55  1  0  0  0  0
 24 25  1  0  0  0  0
 24 62  1  0  0  0  0
 25 26  2  0  0  0  0
 25 56  1  0  0  0  0
 26 63  1  0  0  0  0
 27 83  1  0  0  0  0
 28 84  1  0  0  0  0
 29 31  2  0  0  0  0
 29 83  1  0  0  0  0
 30 85  1  0  0  0  0
 31 86  1  0  0  0  0
 32 67  2  0  0  0  0
 33 68  1  0  0  0  0
 33 71  1  0  0  0  0
 34 72  1  0  0  0  0
 34 78  2  0  0  0  0
 35 52  1  0  0  0  0
 35 73  1  0  0  0  0
 35 79  2  0  0  0  0
 36 64  1  0  0  0  0
 36 69  1  0  0  0  0
 36 80  2  0  0  0  0
 37 65  1  0  0  0  0
 37 74  1  0  0  0  0
 37 81  2  0  0  0  0
 38 70  1  0  0  0  0
 38 75  1  0  0  0  0
 38 82  2  0  0  0  0
 39 42  1  0  0  0  0
 40 52  1  0  0  0  0
 41 69  1  0  0  0  0
 42 44  1  0  0  0  0
 43 45  1  0  0  0  0
 43 47  1  0  0  0  0
 44 51  1  0  0  0  0
 45 53  1  0  0  0  0
 46 49  1  0  0  0  0
 46 54  1  0  0  0  0
 47 70  1  0  0  0  0
 48 53  1  0  0  0  0
 48 70  1  0  0  0  0
 49 76  1  0  0  0  0
 50 54  1  0  0  0  0
 50 76  1  0  0  0  0
 51 73  1  0  0  0  0
 52 69  1  0  0  0  0
 53 68  1  0  0  0  0
 54 84  1  0  0  0  0
 57 65  1  0  0  0  0
 58 66  1  0  0  0  0
 59 66  1  0  0  0  0
 60 66  1  0  0  0  0
 61 77  1  0  0  0  0
 62 75  1  0  0  0  0
 63 76  1  0  0  0  0
 64 66  1  0  0  0  0
 64 74  1  0  0  0  0
 65 77  1  0  0  0  0
 67 68  1  0  0  0  0
M  CHG  2  76   1  77   1
M  ISO  4  38 100  54 101  75 100  84 101
M  END
> <Batch ID>
0034

> <Smiles>
CNC(C)C(=O)NC(C(=O)N1Cc2cc([101O:1][101CH:1]3CCN(Cc4c(C)ccc(C[100NH:0][100C:0](=O)N5CCCC(n6nc(-c7ccc(Oc8ccc(F)cc8F)cc7)c(C(N)=O)c6N)C5)c4C)C3)ccc2CC1C(=O)NC1CCCc2ccccc21)C(C)(C)C

> <Shape>
0.194

> <Color>
0.085

> <Negative vol penalty>
0.000

$$$$

  -OEChem-04042321483D

 87 96  0     1  0  0  0  0  0999 V2000
  -18.8379  -28.7330   23.3740 C   0  0  0  0  0  0  0  0  0  0  0  0
  -20.2117  -28.5187   23.4199 C   0  0  0  0  0  0  0  0  0  0  0  0
  -24.4346  -13.3652   21.4283 C   0  0  0  0  0  0  0  0  0  0  0  0
  -25.6983  -13.2094   19.3751 C   0  0  0  0  0  0  0  0  0  0  0  0
  -18.0482  -27.9994   22.4896 C   0  0  0  0  0  0  0  0  0  0  0  0
  -20.7965  -27.5697   22.5821 C   0  0  0  0  0  0  0  0  0  0  0  0
  -25.0328  -29.2649   20.3855 C   0  0  0  0  0  0  0  0  0  0  0  0
  -24.6097  -11.9977   21.6399 C   0  0  0  0  0  0  0  0  0  0  0  0
  -25.8735  -11.8419   19.5867 C   0  0  0  0  0  0  0  0  0  0  0  0
  -26.1902  -29.2816   21.1626 C   0  0  0  0  0  0  0  0  0  0  0  0
  -23.2669   -9.1102   20.5071 C   0  0  0  0  0  0  0  0  0  0  0  0
  -22.1545   -8.3691   20.9059 C   0  0  0  0  0  0  0  0  0  0  0  0
  -26.9119  -27.2289   20.1210 C   0  0  0  0  0  0  0  0  0  0  0  0
  -24.0077  -23.0624   22.9217 C   0  0  0  0  0  0  0  0  0  0  0  0
  -26.2566  -23.9429   22.9859 C   0  0  0  0  0  0  0  0  0  0  0  0
  -23.3030   -7.7374   22.9354 C   0  0  0  0  0  0  0  0  0  0  0  0
  -24.9788  -13.9711   20.2958 C   0  0  0  0  0  0  0  0  0  0  0  0
  -23.5781  -16.0721   19.9330 C   0  0  0  0  0  0  0  0  0  0  0  0
  -18.6249  -27.0478   21.6337 C   0  0  0  0  0  0  0  0  0  0  0  0
  -24.8007  -28.2226   19.4766 C   0  0  0  0  0  0  0  0  0  0  0  0
  -20.0136  -26.8217   21.6864 C   0  0  0  0  0  0  0  0  0  0  0  0
  -25.7520  -27.2027   19.3317 C   0  0  0  0  0  0  0  0  0  0  0  0
  -23.5955  -24.0497   23.8167 C   0  0  0  0  0  0  0  0  0  0  0  0
  -25.8444  -24.9303   23.8809 C   0  0  0  0  0  0  0  0  0  0  0  0
  -24.5139  -24.9836   24.2963 C   0  0  0  0  0  0  0  0  0  0  0  0
  -25.3382  -23.0090   22.5064 C   0  0  0  0  0  0  0  0  0  0  0  0
  -25.3293  -11.2360   20.7192 C   0  0  0  0  0  0  0  0  0  0  0  0
  -27.1286  -28.2620   21.0325 C   0  0  0  0  0  0  0  0  0  0  0  0
  -24.3974   -9.1648   21.3225 C   0  0  0  0  0  0  0  0  0  0  0  0
  -22.1725   -7.6828   22.1200 C   0  0  0  0  0  0  0  0  0  0  0  0
  -24.4154   -8.4785   22.5366 C   0  0  0  0  0  0  0  0  0  0  0  0
  -24.7976  -15.3836   20.0763 C   0  0  0  0  0  0  0  0  0  0  0  0
  -23.9437  -17.3828   19.7466 C   0  0  0  0  0  0  0  0  0  0  0  0
  -29.2310  -26.4070   24.5217 C   0  0  0  0  0  0  0  0  0  0  0  0
  -29.5293  -27.1382   23.4419 C   0  0  0  0  0  0  0  0  0  0  0  0
  -22.2350  -15.5716   19.9655 C   0  0  0  0  0  0  0  0  0  0  0  0
  -22.5752  -25.9750   19.1616 C   0  0  0  0  0  0  0  0  0  0  0  0
  -24.1464  -25.3564   16.3920 C   0  0  0  0  0  0  0  0  0  0  0  0
  -27.1341  -24.9773   14.4052 C   0  0  0  0  0  0  0  0  0  0  0  0
  -27.0394  -21.8136   21.0839 C   0  0  0  0  0  0  0  0  0  0  0  0
  -17.7244  -26.2456   20.7281 C   0  0  0  0  0  0  0  0  0  0  0  0
  -23.5599  -28.2333   18.6265 C   0  0  0  0  0  0  0  0  0  0  0  0
  -25.5597  -26.0718   18.3557 C   0  0  0  0  0  0  0  0  0  0  0  0
  -29.9067  -26.5005   25.8542 C   0  0  0  0  0  0  0  0  0  0  0  0
  -18.4717  -25.5247   19.6091 C   0  0  0  0  0  0  0  0  0  0  0  0
  -29.0515  -25.5692   26.6994 C   0  0  0  0  0  0  0  0  0  0  0  0
  -28.4806  -19.4420   18.8533 C   0  0  0  0  0  0  0  0  0  0  0  0
  -19.7046  -24.8160   20.1608 C   0  0  0  0  0  0  0  0  0  0  0  0
  -27.5506  -18.2314   18.9608 C   0  0  0  0  0  0  0  0  0  0  0  0
  -28.6541  -20.1452   20.1984 C   0  0  0  0  0  0  0  0  0  0  0  0
  -26.4726  -19.3070   20.9777 C   0  0  0  0  0  0  0  0  0  0  0  0
  -28.5066  -24.5530   25.7080 C   0  0  0  0  0  0  0  0  0  0  0  0
  -20.6883  -25.8187   20.7760 C   0  0  1  0  0  0  0  0  0  0  0  0
  -23.1825  -26.8510   18.1027 C   0  0  1  0  0  0  0  0  0  0  0  0
  -26.2155  -18.6045   19.6346 C   0  0  2  0  0  0  0  0  0  0  0  0
  -22.1654  -24.0847   24.2463 C   0  0  0  0  0  0  0  0  0  0  0  0
  -24.0716  -26.0426   25.2555 C   0  0  0  0  0  0  0  0  0  0  0  0
  -27.4164  -24.4800   11.9618 C   0  0  0  0  0  0  0  0  0  0  0  0
  -24.3521  -22.4518   17.3033 C   0  0  0  0  0  0  0  0  0  0  0  0
  -26.1203  -22.1045   15.5652 C   0  0  0  0  0  0  0  0  0  0  0  0
  -23.8099  -22.7489   14.8801 C   0  0  0  0  0  0  0  0  0  0  0  0
  -28.8035  -27.3854   13.9893 C   0  0  0  0  0  0  0  0  0  0  0  0
  -26.8520  -25.9228   24.3816 C   0  0  0  0  0  0  0  0  0  0  0  0
  -28.8281  -27.0118   22.1302 C   0  0  0  0  0  0  0  0  0  1  0  0
  -25.2970  -24.4649   15.9917 C   0  0  1  0  0  0  0  0  0  0  0  0
  -27.3905  -25.5635   13.0286 C   0  0  2  0  0  0  0  0  0  0  0  0
  -24.8978  -22.9627   15.9550 C   0  0  0  0  0  0  0  0  0  0  0  0
  -25.8586  -16.1902   19.9884 N   0  0  0  0  0  0  0  0  0  0  0  0
  -25.3069  -17.3991   19.7877 N   0  0  0  0  0  0  0  0  0  0  0  0
  -24.3275  -26.1234   17.5516 N   0  0  0  0  0  0  0  0  0  0  0  0
  -27.3481  -20.4719   20.7749 N   0  0  0  0  0  0  0  0  0  0  0  0
  -23.2289  -18.5116   19.5531 N   0  0  0  0  0  0  0  0  0  0  0  0
  -21.5699  -15.5225   21.1982 N   0  0  0  0  0  0  0  0  0  0  0  0
  -25.7570  -22.0068   21.5964 N   0  0  0  0  0  0  0  0  0  0  0  0
  -21.4331  -26.4979   19.7376 N   0  0  0  0  0  0  0  0  0  0  0  0
  -25.7919  -24.9829   14.7208 N   0  0  0  0  0  0  0  0  0  0  0  0
  -28.2447  -25.3638   24.4508 N   0  3  1  0  0  0  0  0  0  0  0  0
  -28.6984  -26.2776   13.0051 N   0  3  0  0  0  0  0  0  0  0  0  0
  -21.6479  -15.1642   18.9346 O   0  0  0  0  0  0  0  0  0  0  0  0
  -23.1028  -24.9032   19.4349 O   0  0  0  0  0  0  0  0  0  0  0  0
  -23.1273  -25.3771   15.6973 O   0  0  0  0  0  0  0  0  0  0  0  0
  -28.0341  -24.5532   15.1268 O   0  0  0  0  0  0  0  0  0  0  0  0
  -27.8430  -22.7275   20.8816 O   0  0  0  0  0  0  0  0  0  0  0  0
  -25.5006   -9.9016   20.9255 O   0  0  0  0  0  0  0  0  0  0  0  0
  -28.2588  -28.2755   21.7903 O   0  0  0  0  0  0  0  0  0  1  0  0
  -21.1036   -6.9724   22.5036 F   0  0  0  0  0  0  0  0  0  0  0  0
  -25.4981   -8.5282   23.3247 F   0  0  0  0  0  0  0  0  0  0  0  0
  1  2  1  0  0  0  0
  1  5  2  0  0  0  0
  2  6  2  0  0  0  0
  3  8  2  0  0  0  0
  3 17  1  0  0  0  0
  4  9  1  0  0  0  0
  4 17  2  0  0  0  0
  5 19  1  0  0  0  0
  6 21  1  0  0  0  0
  7 10  2  0  0  0  0
  7 20  1  0  0  0  0
  8 27  1  0  0  0  0
  9 27  2  0  0  0  0
 10 28  1  0  0  0  0
 11 12  2  0  0  0  0
 11 29  1  0  0  0  0
 12 30  1  0  0  0  0
 13 22  1  0  0  0  0
 13 28  2  0  0  0  0
 14 23  2  0  0  0  0
 14 26  1  0  0  0  0
 15 24  1  0  0  0  0
 15 26  2  0  0  0  0
 16 30  2  0  0  0  0
 16 31  1  0  0  0  0
 17 32  1  0  0  0  0
 18 32  1  0  0  0  0
 18 33  2  0  0  0  0
 18 36  1  0  0  0  0
 19 21  2  0  0  0  0
 19 41  1  0  0  0  0
 20 22  2  0  0  0  0
 20 42  1  0  0  0  0
 21 53  1  0  0  0  0
 22 43  1  0  0  0  0
 23 25  1  0  0  0  0
 23 56  1  0  0  0  0
 24 25  2  0  0  0  0
 24 63  1  0  0  0  0
 25 57  1  0  0  0  0
 26 74  1  0  0  0  0
 27 84  1  0  0  0  0
 28 85  1  0  0  0  0
 29 31  2  0  0  0  0
 29 84  1  0  0  0  0
 30 86  1  0  0  0  0
 31 87  1  0  0  0  0
 32 68  2  0  0  0  0
 33 69  1  0  0  0  0
 33 72  1  0  0  0  0
 34 35  2  0  0  0  0
 34 44  1  0  0  0  0
 34 77  1  0  0  0  0
 35 64  1  0  0  0  0
 36 73  1  0  0  0  0
 36 79  2  0  0  0  0
 37 54  1  0  0  0  0
 37 75  1  0  0  0  0
 37 80  2  0  0  0  0
 38 65  1  0  0  0  0
 38 70  1  0  0  0  0
 38 81  2  0  0  0  0
 39 66  1  0  0  0  0
 39 76  1  0  0  0  0
 39 82  2  0  0  0  0
 40 71  1  0  0  0  0
 40 74  1  0  0  0  0
 40 83  2  0  0  0  0
 41 45  1  0  0  0  0
 42 54  1  0  0  0  0
 43 70  1  0  0  0  0
 44 46  1  0  0  0  0
 45 48  1  0  0  0  0
 46 52  1  0  0  0  0
 47 49  1  0  0  0  0
 47 50  1  0  0  0  0
 48 53  1  0  0  0  0
 49 55  1  0  0  0  0
 50 71  1  0  0  0  0
 51 55  1  0  0  0  0
 51 71  1  0  0  0  0
 52 77  1  0  0  0  0
 53 75  1  0  0  0  0
 54 70  1  0  0  0  0
 55 69  1  0  0  0  0
 58 66  1  0  0  0  0
 59 67  1  0  0  0  0
 60 67  1  0  0  0  0
 61 67  1  0  0  0  0
 62 78  1  0  0  0  0
 63 77  1  0  0  0  0
 64 85  1  0  0  0  0
 65 67  1  0  0  0  0
 65 76  1  0  0  0  0
 66 78  1  0  0  0  0
 68 69  1  0  0  0  0
M  CHG  2  77   1  78   1
M  ISO  4  40 100  64 101  74 100  85 101
M  END
> <Batch ID>
0034

> <Smiles>
CNC(C)C(=O)NC(C(=O)N1Cc2cc([101O:1][101CH2:1]C=C3CCCN3Cc3cc([100NH:0][100C:0](=O)N4CCCC(n5nc(-c6ccc(Oc7ccc(F)cc7F)cc6)c(C(N)=O)c5N)C4)cc(C)c3C)ccc2CC1C(=O)NC1CCCc2ccccc21)C(C)(C)C

> <Shape>
0.202

> <Color>
0.068

> <Negative vol penalty>
0.000

$$$$

  -OEChem-04042321483D

 88 97  0     1  0  0  0  0  0999 V2000
  -32.3466  -24.4431   17.3265 C   0  0  0  0  0  0  0  0  0  0  0  0
  -31.0940  -24.7348   16.7962 C   0  0  0  0  0  0  0  0  0  0  0  0
  -27.0260  -12.7003   20.6839 C   0  0  0  0  0  0  0  0  0  0  0  0
  -24.7653  -13.3611   20.1457 C   0  0  0  0  0  0  0  0  0  0  0  0
  -32.5105  -24.3373   18.7070 C   0  0  0  0  0  0  0  0  0  0  0  0
  -30.0042  -24.9199   17.6462 C   0  0  0  0  0  0  0  0  0  0  0  0
  -23.9265  -28.6719   18.1955 C   0  0  0  0  0  0  0  0  0  0  0  0
  -22.6994  -23.4408   21.4484 C   0  0  0  0  0  0  0  0  0  0  0  0
  -23.8628  -22.7364   21.1386 C   0  0  0  0  0  0  0  0  0  0  0  0
  -26.5361  -11.6124   21.4063 C   0  0  0  0  0  0  0  0  0  0  0  0
  -24.2754  -12.2731   20.8681 C   0  0  0  0  0  0  0  0  0  0  0  0
  -22.5634  -28.4870   18.4222 C   0  0  0  0  0  0  0  0  0  0  0  0
  -23.8901   -8.9478   20.4050 C   0  0  0  0  0  0  0  0  0  0  0  0
  -22.8739   -8.1900   19.8229 C   0  0  0  0  0  0  0  0  0  0  0  0
  -22.9816  -28.3584   20.7945 C   0  0  0  0  0  0  0  0  0  0  0  0
  -21.4230   -8.7057   21.6847 C   0  0  0  0  0  0  0  0  0  0  0  0
  -26.1406  -13.5747   20.0536 C   0  0  0  0  0  0  0  0  0  0  0  0
  -26.9807  -14.7311   17.9406 C   0  0  0  0  0  0  0  0  0  0  0  0
  -31.4241  -24.5307   19.5748 C   0  0  0  0  0  0  0  0  0  0  0  0
  -24.8303  -28.6905   19.2675 C   0  0  0  0  0  0  0  0  0  0  0  0
  -30.1534  -24.8153   19.0396 C   0  0  0  0  0  0  0  0  0  0  0  0
  -24.3554  -28.5462   20.5789 C   0  0  0  0  0  0  0  0  0  0  0  0
  -21.4739  -23.0278   20.9256 C   0  0  0  0  0  0  0  0  0  0  0  0
  -21.4118  -21.9106   20.0928 C   0  0  0  0  0  0  0  0  0  0  0  0
  -22.5752  -21.2062   19.7829 C   0  0  0  0  0  0  0  0  0  0  0  0
  -23.8007  -21.6191   20.3058 C   0  0  0  0  0  0  0  0  0  0  0  0
  -25.1608  -11.3987   21.4984 C   0  0  0  0  0  0  0  0  0  0  0  0
  -22.0910  -28.3273   19.7216 C   0  0  0  0  0  0  0  0  0  0  0  0
  -23.6728   -9.5845   21.6269 C   0  0  0  0  0  0  0  0  0  0  0  0
  -21.6404   -8.0690   20.4628 C   0  0  0  0  0  0  0  0  0  0  0  0
  -22.4392   -9.4634   22.2667 C   0  0  0  0  0  0  0  0  0  0  0  0
  -26.6461  -14.6991   19.3077 C   0  0  0  0  0  0  0  0  0  0  0  0
  -27.4080  -16.0180   17.7218 C   0  0  0  0  0  0  0  0  0  0  0  0
  -18.5877  -25.4219   20.5323 C   0  0  0  0  0  0  0  0  0  0  0  0
  -26.9114  -13.6907   16.9566 C   0  0  0  0  0  0  0  0  0  0  0  0
  -17.3894  -24.8327   20.6115 C   0  0  0  0  0  0  0  0  0  0  0  0
  -27.3137  -26.9082   20.1391 C   0  0  0  0  0  0  0  0  0  0  0  0
  -27.6400  -29.1775   22.4339 C   0  0  0  0  0  0  0  0  0  0  0  0
  -26.1814  -31.6122   24.3290 C   0  0  0  0  0  0  0  0  0  0  0  0
  -26.2826  -21.2129   20.4515 C   0  0  0  0  0  0  0  0  0  0  0  0
  -31.6402  -24.3596   21.0576 C   0  0  0  0  0  0  0  0  0  0  0  0
  -26.2944  -28.9177   19.0083 C   0  0  0  0  0  0  0  0  0  0  0  0
  -25.2818  -28.5789   21.7659 C   0  0  0  0  0  0  0  0  0  0  0  0
  -18.8570  -26.8814   20.7201 C   0  0  0  0  0  0  0  0  0  0  0  0
  -30.5133  -24.9398   21.9083 C   0  0  0  0  0  0  0  0  0  0  0  0
  -29.4738  -19.7104   19.9652 C   0  0  0  0  0  0  0  0  0  0  0  0
  -29.1556  -24.5185   21.3552 C   0  0  0  0  0  0  0  0  0  0  0  0
  -29.1410  -18.2592   19.6110 C   0  0  0  0  0  0  0  0  0  0  0  0
  -28.5138  -20.2731   21.0119 C   0  0  0  0  0  0  0  0  0  0  0  0
  -26.7561  -18.6877   20.3291 C   0  0  0  0  0  0  0  0  0  0  0  0
  -20.7363  -25.7362   19.7345 C   0  0  0  0  0  0  0  0  0  0  0  0
  -28.9521  -25.0474   19.9303 C   0  0  1  0  0  0  0  0  0  0  0  0
  -27.1871  -28.4054   20.1343 C   0  0  1  0  0  0  0  0  0  0  0  0
  -27.6561  -18.0982   19.2308 C   0  0  2  0  0  0  0  0  0  0  0  0
  -20.3733  -26.9443   20.5876 C   0  0  1  0  0  0  0  0  0  1  0  0
  -20.0959  -21.4701   19.5336 C   0  0  0  0  0  0  0  0  0  0  0  0
  -22.5062  -20.0074   18.8891 C   0  0  0  0  0  0  0  0  0  0  0  0
  -17.2135  -23.3555   20.4076 C   0  0  0  0  0  0  0  0  0  0  0  0
  -16.1389  -25.6089   20.9091 C   0  0  0  0  0  0  0  0  0  0  0  0
  -26.6937  -33.2671   26.1446 C   0  0  0  0  0  0  0  0  0  0  0  0
  -27.6291  -26.9224   24.4893 C   0  0  0  0  0  0  0  0  0  0  0  0
  -27.1856  -28.6340   26.2618 C   0  0  0  0  0  0  0  0  0  0  0  0
  -29.2960  -28.7326   24.9356 C   0  0  0  0  0  0  0  0  0  0  0  0
  -25.4676  -33.9055   22.5998 C   0  0  0  0  0  0  0  0  0  0  0  0
  -20.2379  -23.8033   21.2748 C   0  0  0  0  0  0  0  0  0  0  0  0
  -27.1097  -29.3653   23.8348 C   0  0  1  0  0  0  0  0  0  0  0  0
  -26.6082  -33.0345   24.6441 C   0  0  2  0  0  0  0  0  0  0  0  0
  -27.7876  -28.4109   24.8581 C   0  0  0  0  0  0  0  0  0  0  0  0
  -26.8440  -15.8723   19.9146 N   0  0  0  0  0  0  0  0  0  0  0  0
  -27.3076  -16.6536   18.9243 N   0  0  0  0  0  0  0  0  0  0  0  0
  -26.7054  -28.7974   21.4604 N   0  0  0  0  0  0  0  0  0  0  0  0
  -27.1259  -20.0892   20.5818 N   0  0  0  0  0  0  0  0  0  0  0  0
  -27.8562  -16.6564   16.6200 N   0  0  0  0  0  0  0  0  0  0  0  0
  -26.4492  -12.4277   17.3510 N   0  0  0  0  0  0  0  0  0  0  0  0
  -24.9949  -20.9186   20.0045 N   0  0  0  0  0  0  0  0  0  0  0  0
  -28.6054  -26.4521   19.9573 N   0  0  0  0  0  0  0  0  0  0  0  0
  -27.2669  -30.7823   24.1442 N   0  0  0  0  0  0  0  0  0  0  0  0
  -19.7471  -24.6670   20.1482 N   0  3  1  0  0  0  0  0  0  0  0  0
  -25.6336  -34.0064   24.0726 N   0  3  0  0  0  0  0  0  0  0  0  0
  -27.2648  -13.8710   15.7666 O   0  0  0  0  0  0  0  0  0  0  0  0
  -26.3137  -26.2178   20.2976 O   0  0  0  0  0  0  0  0  0  0  0  0
  -28.8380  -29.3681   22.2103 O   0  0  0  0  0  0  0  0  0  0  0  0
  -25.0029  -31.2706   24.2579 O   0  0  0  0  0  0  0  0  0  0  0  0
  -26.6821  -22.3553   20.6909 O   0  0  0  0  0  0  0  0  0  0  0  0
  -24.6824  -10.3371   22.2031 O   0  0  0  0  0  0  0  0  0  0  0  0
  -20.7611  -28.1460   19.9457 O   0  0  0  0  0  0  0  0  0  1  0  0
  -20.6641   -7.3425   19.9030 F   0  0  0  0  0  0  0  0  0  0  0  0
  -22.2242  -10.0738   23.4402 F   0  0  0  0  0  0  0  0  0  0  0  0
  1  2  1  0  0  0  0
  1  5  2  0  0  0  0
  2  6  2  0  0  0  0
  3 10  2  0  0  0  0
  3 17  1  0  0  0  0
  4 11  1  0  0  0  0
  4 17  2  0  0  0  0
  5 19  1  0  0  0  0
  6 21  1  0  0  0  0
  7 12  2  0  0  0  0
  7 20  1  0  0  0  0
  8  9  2  0  0  0  0
  8 23  1  0  0  0  0
  9 26  1  0  0  0  0
 10 27  1  0  0  0  0
 11 27  2  0  0  0  0
 12 28  1  0  0  0  0
 13 14  2  0  0  0  0
 13 29  1  0  0  0  0
 14 30  1  0  0  0  0
 15 22  1  0  0  0  0
 15 28  2  0  0  0  0
 16 30  2  0  0  0  0
 16 31  1  0  0  0  0
 17 32  1  0  0  0  0
 18 32  1  0  0  0  0
 18 33  2  0  0  0  0
 18 35  1  0  0  0  0
 19 21  2  0  0  0  0
 19 41  1  0  0  0  0
 20 22  2  0  0  0  0
 20 42  1  0  0  0  0
 21 52  1  0  0  0  0
 22 43  1  0  0  0  0
 23 24  2  0  0  0  0
 23 65  1  0  0  0  0
 24 25  1  0  0  0  0
 24 56  1  0  0  0  0
 25 26  2  0  0  0  0
 25 57  1  0  0  0  0
 26 75  1  0  0  0  0
 27 85  1  0  0  0  0
 28 86  1  0  0  0  0
 29 31  2  0  0  0  0
 29 85  1  0  0  0  0
 30 87  1  0  0  0  0
 31 88  1  0  0  0  0
 32 69  2  0  0  0  0
 33 70  1  0  0  0  0
 33 73  1  0  0  0  0
 34 36  2  0  0  0  0
 34 44  1  0  0  0  0
 34 78  1  0  0  0  0
 35 74  1  0  0  0  0
 35 80  2  0  0  0  0
 36 58  1  0  0  0  0
 36 59  1  0  0  0  0
 37 53  1  0  0  0  0
 37 76  1  0  0  0  0
 37 81  2  0  0  0  0
 38 66  1  0  0  0  0
 38 71  1  0  0  0  0
 38 82  2  0  0  0  0
 39 67  1  0  0  0  0
 39 77  1  0  0  0  0
 39 83  2  0  0  0  0
 40 72  1  0  0  0  0
 40 75  1  0  0  0  0
 40 84  2  0  0  0  0
 41 45  1  0  0  0  0
 42 53  1  0  0  0  0
 43 71  1  0  0  0  0
 44 55  1  0  0  0  0
 45 47  1  0  0  0  0
 46 48  1  0  0  0  0
 46 49  1  0  0  0  0
 47 52  1  0  0  0  0
 48 54  1  0  0  0  0
 49 72  1  0  0  0  0
 50 54  1  0  0  0  0
 50 72  1  0  0  0  0
 51 55  1  0  0  0  0
 51 78  1  0  0  0  0
 52 76  1  0  0  0  0
 53 71  1  0  0  0  0
 54 70  1  0  0  0  0
 55 86  1  0  0  0  0
 60 67  1  0  0  0  0
 61 68  1  0  0  0  0
 62 68  1  0  0  0  0
 63 68  1  0  0  0  0
 64 79  1  0  0  0  0
 65 78  1  0  0  0  0
 66 68  1  0  0  0  0
 66 77  1  0  0  0  0
 67 79  1  0  0  0  0
 69 70  1  0  0  0  0
M  CHG  2  78   1  79   1
M  ISO  4  40 100  55 101  75 100  86 101
M  END
> <Batch ID>
0034

> <Smiles>
CNC(C)C(=O)NC(C(=O)N1Cc2cc([101O:1][101CH:1]3CC(=C(C)C)N(Cc4ccc([100NH:0][100C:0](=O)N5CCCC(n6nc(-c7ccc(Oc8ccc(F)cc8F)cc7)c(C(N)=O)c6N)C5)c(C)c4C)C3)ccc2CC1C(=O)NC1CCCc2ccccc21)C(C)(C)C

> <Shape>
0.258

> <Color>
0.060

> <Negative vol penalty>
0.000

$$$$

  -OEChem-04042321483D

 88 97  0     1  0  0  0  0  0999 V2000
  -29.5438  -12.3019   20.1470 C   0  0  0  0  0  0  0  0  0  0  0  0
  -29.2594  -13.3921   19.3309 C   0  0  0  0  0  0  0  0  0  0  0  0
  -28.1553  -23.8780   18.5275 C   0  0  0  0  0  0  0  0  0  0  0  0
  -29.3311  -24.3248   20.5902 C   0  0  0  0  0  0  0  0  0  0  0  0
  -28.5103  -11.6382   20.8069 C   0  0  0  0  0  0  0  0  0  0  0  0
  -27.9412  -13.8186   19.1734 C   0  0  0  0  0  0  0  0  0  0  0  0
  -24.7705  -20.8428   20.4516 C   0  0  0  0  0  0  0  0  0  0  0  0
  -28.4463  -22.5199   18.6558 C   0  0  0  0  0  0  0  0  0  0  0  0
  -29.6220  -22.9667   20.7186 C   0  0  0  0  0  0  0  0  0  0  0  0
  -24.0644  -21.9969   20.7916 C   0  0  0  0  0  0  0  0  0  0  0  0
  -31.0844  -20.4765   18.1178 C   0  0  0  0  0  0  0  0  0  0  0  0
  -31.5364  -19.8014   16.9840 C   0  0  0  0  0  0  0  0  0  0  0  0
  -22.0650  -20.6829   21.1435 C   0  0  0  0  0  0  0  0  0  0  0  0
  -19.6358  -29.1307   22.6744 C   0  0  0  0  0  0  0  0  0  0  0  0
  -29.6422  -18.3077   17.1184 C   0  0  0  0  0  0  0  0  0  0  0  0
  -28.5978  -24.7805   19.4947 C   0  0  0  0  0  0  0  0  0  0  0  0
  -28.6727  -27.0371   18.3074 C   0  0  0  0  0  0  0  0  0  0  0  0
  -27.1798  -12.0628   20.6651 C   0  0  0  0  0  0  0  0  0  0  0  0
  -24.1297  -19.6009   20.4712 C   0  0  0  0  0  0  0  0  0  0  0  0
  -26.8888  -13.1592   19.8310 C   0  0  0  0  0  0  0  0  0  0  0  0
  -22.7704  -19.5219   20.8160 C   0  0  0  0  0  0  0  0  0  0  0  0
  -20.5279  -28.5522   21.7716 C   0  0  0  0  0  0  0  0  0  0  0  0
  -20.5939  -27.1643   21.6486 C   0  0  0  0  0  0  0  0  0  0  0  0
  -18.8755  -26.9335   23.3311 C   0  0  0  0  0  0  0  0  0  0  0  0
  -19.7677  -26.3550   22.4283 C   0  0  0  0  0  0  0  0  0  0  0  0
  -29.1796  -22.0642   19.7513 C   0  0  0  0  0  0  0  0  0  0  0  0
  -22.7149  -21.9171   21.1364 C   0  0  0  0  0  0  0  0  0  0  0  0
  -29.9114  -20.0672   18.7519 C   0  0  0  0  0  0  0  0  0  0  0  0
  -30.8153  -18.7170   16.4843 C   0  0  0  0  0  0  0  0  0  0  0  0
  -29.1903  -18.9828   18.2522 C   0  0  0  0  0  0  0  0  0  0  0  0
  -18.8096  -28.3213   23.4542 C   0  0  0  0  0  0  0  0  0  0  0  0
  -28.2980  -26.1836   19.3624 C   0  0  0  0  0  0  0  0  0  0  0  0
  -28.1487  -28.2591   18.6519 C   0  0  0  0  0  0  0  0  0  0  0  0
  -19.1244  -24.1105   21.4605 C   0  0  0  0  0  0  0  0  0  0  0  0
  -18.0998  -24.3446   20.6281 C   0  0  0  0  0  0  0  0  0  0  0  0
  -29.4269  -26.7510   17.1221 C   0  0  0  0  0  0  0  0  0  0  0  0
  -24.4084  -15.8949   19.9575 C   0  0  0  0  0  0  0  0  0  0  0  0
  -22.6654  -16.3210   22.4456 C   0  0  0  0  0  0  0  0  0  0  0  0
  -21.1460  -17.2084   25.3682 C   0  0  0  0  0  0  0  0  0  0  0  0
  -23.5461  -29.8920   22.1160 C   0  0  0  0  0  0  0  0  0  0  0  0
  -26.0914  -11.2845   21.3609 C   0  0  0  0  0  0  0  0  0  0  0  0
  -24.8349  -18.3394   20.0528 C   0  0  0  0  0  0  0  0  0  0  0  0
  -22.1134  -18.1689   20.7900 C   0  0  0  0  0  0  0  0  0  0  0  0
  -19.6428  -22.6973   21.6474 C   0  0  0  0  0  0  0  0  0  0  0  0
  -24.7622  -12.0315   21.4375 C   0  0  0  0  0  0  0  0  0  0  0  0
  -26.9490  -30.8763   22.4731 C   0  0  0  0  0  0  0  0  0  0  0  0
  -24.4156  -12.6444   20.0843 C   0  0  0  0  0  0  0  0  0  0  0  0
  -27.7145  -29.8623   21.6212 C   0  0  0  0  0  0  0  0  0  0  0  0
  -25.7570  -30.2344   23.1795 C   0  0  0  0  0  0  0  0  0  0  0  0
  -25.5933  -28.4960   21.4403 C   0  0  0  0  0  0  0  0  0  0  0  0
  -20.7765  -24.2194   23.1582 C   0  0  0  0  0  0  0  0  0  0  0  0
  -25.4743  -13.6672   19.6545 C   0  0  1  0  0  0  0  0  0  0  0  0
  -24.3813  -17.1022   20.8481 C   0  0  1  0  0  0  0  0  0  0  0  0
  -26.7714  -29.1088   20.6639 C   0  0  2  0  0  0  0  0  0  0  0  0
  -20.9592  -22.9048   22.3971 C   0  0  2  0  0  0  0  0  0  1  0  0
  -21.5552  -26.5499   20.6797 C   0  0  0  0  0  0  0  0  0  0  0  0
  -17.9925  -26.0555   24.1642 C   0  0  0  0  0  0  0  0  0  0  0  0
  -17.5216  -25.6958   20.3790 C   0  0  0  0  0  0  0  0  0  0  0  0
  -19.9955  -16.2225   27.3686 C   0  0  0  0  0  0  0  0  0  0  0  0
  -20.1736  -15.8178   20.7599 C   0  0  0  0  0  0  0  0  0  0  0  0
  -18.8384  -15.7652   22.8771 C   0  0  0  0  0  0  0  0  0  0  0  0
  -20.6310  -14.0736   22.4927 C   0  0  0  0  0  0  0  0  0  0  0  0
  -23.1630  -18.3253   27.2238 C   0  0  0  0  0  0  0  0  0  0  0  0
  -21.4022  -29.4419   20.9497 C   0  0  0  0  0  0  0  0  0  0  0  0
  -21.2725  -16.4648   23.0048 C   0  0  1  0  0  0  0  0  0  0  0  0
  -21.3177  -16.6994   26.7880 C   0  0  2  0  0  0  0  0  0  0  0  0
  -20.2447  -15.5531   22.2771 C   0  0  0  0  0  0  0  0  0  0  0  0
  -27.5908  -26.8103   20.3063 N   0  0  0  0  0  0  0  0  0  0  0  0
  -27.5169  -28.0707   19.8458 N   0  0  0  0  0  0  0  0  0  0  0  0
  -19.8354  -24.9552   22.3039 N   0  0  0  0  0  0  0  0  0  0  0  0
  -23.0100  -17.1636   21.3818 N   0  0  0  0  0  0  0  0  0  0  0  0
  -24.9016  -29.5377   22.2158 N   0  0  0  0  0  0  0  0  0  0  0  0
  -28.1714  -29.4658   18.0469 N   0  0  0  0  0  0  0  0  0  0  0  0
  -30.8202  -26.8964   17.1654 N   0  0  0  0  0  0  0  0  0  0  0  0
  -25.2912  -14.9137   20.3666 N   0  0  0  0  0  0  0  0  0  0  0  0
  -21.3807  -16.2175   24.4385 N   0  0  0  0  0  0  0  0  0  0  0  0
  -22.8078  -29.1869   21.1734 N   0  0  0  0  0  0  0  0  0  0  0  0
  -21.8535  -17.7793   27.6642 N   0  3  0  0  0  0  0  0  0  0  0  0
  -28.8799  -26.3932   16.0515 O   0  0  0  0  0  0  0  0  0  0  0  0
  -23.6811  -15.8546   18.9720 O   0  0  0  0  0  0  0  0  0  0  0  0
  -23.4273  -15.4813   22.9332 O   0  0  0  0  0  0  0  0  0  0  0  0
  -20.8313  -18.3680   25.1098 O   0  0  0  0  0  0  0  0  0  0  0  0
  -23.0331  -30.7753   22.8115 O   0  0  0  0  0  0  0  0  0  0  0  0
  -29.4635  -20.7390   19.8770 O   0  0  0  0  0  0  0  0  0  0  0  0
  -22.0327  -23.0472   21.4717 O   0  0  0  0  0  0  0  0  0  1  0  0
  -31.2486  -18.0697   15.3946 F   0  0  0  0  0  0  0  0  0  0  0  0
  -28.0620  -18.5857   18.8564 F   0  0  0  0  0  0  0  0  0  0  0  0
  -17.7208  -29.0769   24.5611 Cl  0  0  0  0  0  0  0  0  0  0  0  0
  1  2  1  0  0  0  0
  1  5  2  0  0  0  0
  2  6  2  0  0  0  0
  3  8  2  0  0  0  0
  3 16  1  0  0  0  0
  4  9  1  0  0  0  0
  4 16  2  0  0  0  0
  5 18  1  0  0  0  0
  6 20  1  0  0  0  0
  7 10  2  0  0  0  0
  7 19  1  0  0  0  0
  8 26  1  0  0  0  0
  9 26  2  0  0  0  0
 10 27  1  0  0  0  0
 11 12  2  0  0  0  0
 11 28  1  0  0  0  0
 12 29  1  0  0  0  0
 13 21  1  0  0  0  0
 13 27  2  0  0  0  0
 14 22  2  0  0  0  0
 14 31  1  0  0  0  0
 15 29  2  0  0  0  0
 15 30  1  0  0  0  0
 16 32  1  0  0  0  0
 17 32  1  0  0  0  0
 17 33  2  0  0  0  0
 17 36  1  0  0  0  0
 18 20  2  0  0  0  0
 18 41  1  0  0  0  0
 19 21  2  0  0  0  0
 19 42  1  0  0  0  0
 20 52  1  0  0  0  0
 21 43  1  0  0  0  0
 22 23  1  0  0  0  0
 22 64  1  0  0  0  0
 23 25  2  0  0  0  0
 23 56  1  0  0  0  0
 24 25  1  0  0  0  0
 24 31  2  0  0  0  0
 24 57  1  0  0  0  0
 25 70  1  0  0  0  0
 26 84  1  0  0  0  0
 27 85  1  0  0  0  0
 28 30  2  0  0  0  0
 28 84  1  0  0  0  0
 29 86  1  0  0  0  0
 30 87  1  0  0  0  0
 31 88  1  0  0  0  0
 32 68  2  0  0  0  0
 33 69  1  0  0  0  0
 33 73  1  0  0  0  0
 34 35  2  0  0  0  0
 34 44  1  0  0  0  0
 34 70  1  0  0  0  0
 35 58  1  0  0  0  0
 36 74  1  0  0  0  0
 36 79  2  0  0  0  0
 37 53  1  0  0  0  0
 37 75  1  0  0  0  0
 37 80  2  0  0  0  0
 38 65  1  0  0  0  0
 38 71  1  0  0  0  0
 38 81  2  0  0  0  0
 39 66  1  0  0  0  0
 39 76  1  0  0  0  0
 39 82  2  0  0  0  0
 40 72  1  0  0  0  0
 40 77  1  0  0  0  0
 40 83  2  0  0  0  0
 41 45  1  0  0  0  0
 42 53  1  0  0  0  0
 43 71  1  0  0  0  0
 44 55  1  0  0  0  0
 45 47  1  0  0  0  0
 46 48  1  0  0  0  0
 46 49  1  0  0  0  0
 47 52  1  0  0  0  0
 48 54  1  0  0  0  0
 49 72  1  0  0  0  0
 50 54  1  0  0  0  0
 50 72  1  0  0  0  0
 51 55  1  0  0  0  0
 51 70  1  0  0  0  0
 52 75  1  0  0  0  0
 53 71  1  0  0  0  0
 54 69  1  0  0  0  0
 55 85  1  0  0  0  0
 59 66  1  0  0  0  0
 60 67  1  0  0  0  0
 61 67  1  0  0  0  0
 62 67  1  0  0  0  0
 63 78  1  0  0  0  0
 64 77  1  0  0  0  0
 65 67  1  0  0  0  0
 65 76  1  0  0  0  0
 66 78  1  0  0  0  0
 68 69  1  0  0  0  0
M  CHG  1  78   1
M  ISO  4  40 100  55 101  77 100  85 101
M  END
> <Batch ID>
0034

> <Smiles>
CC=C1C[101CH:1]([101O:1]c2ccc3c(c2)CN(C(=O)C(NC(=O)C(C)NC)C(C)(C)C)C(C(=O)NC2CCCc4ccccc42)C3)CN1c1c(C)c(Cl)cc(C[100NH:0][100C:0](=O)N2CCCC(n3nc(-c4ccc(Oc5ccc(F)cc5F)cc4)c(C(N)=O)c3N)C2)c1C

> <Shape>
0.231

> <Color>
0.086

> <Negative vol penalty>
0.000

$$$$

  -OEChem-04042321483D

 84 92  0     1  0  0  0  0  0999 V2000
  -27.3652  -23.6193   17.5446 C   0  0  0  0  0  0  0  0  0  0  0  0
  -26.2033  -24.0101   18.2025 C   0  0  0  0  0  0  0  0  0  0  0  0
  -26.5601  -13.1112   24.3512 C   0  0  0  0  0  0  0  0  0  0  0  0
  -25.0518  -14.0181   22.6960 C   0  0  0  0  0  0  0  0  0  0  0  0
  -28.6066  -24.0531   18.0078 C   0  0  0  0  0  0  0  0  0  0  0  0
  -26.2823  -24.8340   19.3247 C   0  0  0  0  0  0  0  0  0  0  0  0
  -22.8779  -28.5818   19.2267 C   0  0  0  0  0  0  0  0  0  0  0  0
  -25.8260  -11.9253   24.3703 C   0  0  0  0  0  0  0  0  0  0  0  0
  -24.3178  -12.8321   22.7151 C   0  0  0  0  0  0  0  0  0  0  0  0
  -21.5648  -28.2582   19.5657 C   0  0  0  0  0  0  0  0  0  0  0  0
  -24.5804   -9.7211   21.4217 C   0  0  0  0  0  0  0  0  0  0  0  0
  -24.2000   -9.1764   20.1953 C   0  0  0  0  0  0  0  0  0  0  0  0
  -21.9255  -29.1415   21.7813 C   0  0  0  0  0  0  0  0  0  0  0  0
  -21.7167  -22.5671   22.4088 C   0  0  0  0  0  0  0  0  0  0  0  0
  -22.9339  -22.9867   24.8837 C   0  0  0  0  0  0  0  0  0  0  0  0
  -21.8771   -9.3639   20.8326 C   0  0  0  0  0  0  0  0  0  0  0  0
  -26.1729  -14.1576   23.5141 C   0  0  0  0  0  0  0  0  0  0  0  0
  -28.0256  -15.6923   22.6655 C   0  0  0  0  0  0  0  0  0  0  0  0
  -28.7003  -24.8906   19.1305 C   0  0  0  0  0  0  0  0  0  0  0  0
  -23.7294  -29.1787   20.1675 C   0  0  0  0  0  0  0  0  0  0  0  0
  -27.5263  -25.2783   19.8041 C   0  0  0  0  0  0  0  0  0  0  0  0
  -23.2481  -29.4740   21.4509 C   0  0  0  0  0  0  0  0  0  0  0  0
  -22.8819  -21.8751   22.7392 C   0  0  0  0  0  0  0  0  0  0  0  0
  -21.1601  -23.4689   23.3158 C   0  0  0  0  0  0  0  0  0  0  0  0
  -23.4905  -22.0849   23.9767 C   0  0  0  0  0  0  0  0  0  0  0  0
  -24.7049  -11.7857   23.5523 C   0  0  0  0  0  0  0  0  0  0  0  0
  -21.0893  -28.5354   20.8440 C   0  0  0  0  0  0  0  0  0  0  0  0
  -23.6092  -10.0872   22.3536 C   0  0  0  0  0  0  0  0  0  0  0  0
  -22.8483   -8.9978   19.9007 C   0  0  0  0  0  0  0  0  0  0  0  0
  -21.7687  -23.6787   24.5533 C   0  0  0  0  0  0  0  0  0  0  0  0
  -22.2576   -9.9086   22.0591 C   0  0  0  0  0  0  0  0  0  0  0  0
  -26.9304  -15.3831   23.4943 C   0  0  0  0  0  0  0  0  0  0  0  0
  -28.3860  -16.9656   23.0335 C   0  0  0  0  0  0  0  0  0  0  0  0
  -28.6603  -14.8995   21.6534 C   0  0  0  0  0  0  0  0  0  0  0  0
  -26.4675  -28.3546   21.5558 C   0  0  0  0  0  0  0  0  0  0  0  0
  -26.3036  -31.3572   22.7723 C   0  0  0  0  0  0  0  0  0  0  0  0
  -24.3679  -34.0327   23.6332 C   0  0  0  0  0  0  0  0  0  0  0  0
  -25.3908  -21.4975   25.5226 C   0  0  0  0  0  0  0  0  0  0  0  0
  -30.0675  -25.2953   19.6222 C   0  0  0  0  0  0  0  0  0  0  0  0
  -25.1350  -29.5460   19.7778 C   0  0  0  0  0  0  0  0  0  0  0  0
  -24.1158  -30.1326   22.4911 C   0  0  0  0  0  0  0  0  0  0  0  0
  -30.0414  -26.4716   20.5948 C   0  0  0  0  0  0  0  0  0  0  0  0
  -28.3289  -19.9357   26.7898 C   0  0  0  0  0  0  0  0  0  0  0  0
  -28.9603  -26.2668   21.6513 C   0  0  0  0  0  0  0  0  0  0  0  0
  -28.4067  -18.6219   26.0087 C   0  0  0  0  0  0  0  0  0  0  0  0
  -26.8861  -20.3160   27.1174 C   0  0  0  0  0  0  0  0  0  0  0  0
  -26.0537  -19.0354   25.1845 C   0  0  0  0  0  0  0  0  0  0  0  0
  -27.5694  -26.1916   21.0100 C   0  0  1  0  0  0  0  0  0  0  0  0
  -26.0706  -29.6824   20.9751 C   0  0  1  0  0  0  0  0  0  0  0  0
  -27.4830  -18.6441   24.7751 C   0  0  2  0  0  0  0  0  0  0  0  0
  -23.4561  -20.9150   21.7483 C   0  0  0  0  0  0  0  0  0  0  0  0
  -24.5136  -36.3271   24.6393 C   0  0  0  0  0  0  0  0  0  0  0  0
  -18.0182  -27.5493   19.7089 C   0  0  0  0  0  0  0  0  0  0  0  0
  -26.6396  -30.1192   25.5408 C   0  0  0  0  0  0  0  0  0  0  0  0
  -25.8370  -32.2762   26.5263 C   0  0  0  0  0  0  0  0  0  0  0  0
  -27.9344  -32.2276   25.1768 C   0  0  0  0  0  0  0  0  0  0  0  0
  -23.3025  -35.3021   21.1811 C   0  0  0  0  0  0  0  0  0  0  0  0
  -19.9066  -24.2115   22.9578 C   0  0  0  0  0  0  0  0  0  0  0  0
  -18.9080  -26.0254   21.5609 C   0  0  0  0  0  0  0  0  0  0  0  0
  -25.7047  -31.9774   24.0115 C   0  0  1  0  0  0  0  0  0  0  0  0
  -24.5186  -35.5169   23.3523 C   0  0  2  0  0  0  0  0  0  0  0  0
  -19.2241  -27.0957   20.5212 C   0  0  2  0  0  0  0  0  0  1  0  0
  -26.5129  -31.6359   25.2951 C   0  0  0  0  0  0  0  0  0  0  0  0
  -26.6159  -16.3796   24.3262 N   0  0  0  0  0  0  0  0  0  0  0  0
  -27.5188  -17.3274   24.0221 N   0  0  0  0  0  0  0  0  0  0  0  0
  -25.4846  -30.4666   22.0639 N   0  0  0  0  0  0  0  0  0  0  0  0
  -26.0712  -20.3206   25.9005 N   0  0  0  0  0  0  0  0  0  0  0  0
  -29.3569  -17.7997   22.6047 N   0  0  0  0  0  0  0  0  0  0  0  0
  -28.1632  -13.6133   21.4027 N   0  0  0  0  0  0  0  0  0  0  0  0
  -24.6746  -21.3920   24.3308 N   0  0  0  0  0  0  0  0  0  0  0  0
  -27.1021  -27.5157   20.6597 N   0  0  0  0  0  0  0  0  0  0  0  0
  -25.5916  -33.4062   23.7390 N   0  0  0  0  0  0  0  0  0  0  0  0
  -23.4015  -35.9970   22.4905 N   0  3  0  0  0  0  0  0  0  0  0  0
  -20.1386  -25.3104   21.9814 N   0  3  0  0  0  0  0  0  0  0  0  0
  -29.6495  -15.3130   21.0024 O   0  0  0  0  0  0  0  0  0  0  0  0
  -26.2178  -28.1100   22.7303 O   0  0  0  0  0  0  0  0  0  0  0  0
  -27.4533  -31.6574   22.4410 O   0  0  0  0  0  0  0  0  0  0  0  0
  -23.2741  -33.4848   23.7510 O   0  0  0  0  0  0  0  0  0  0  0  0
  -25.4620  -22.5315   26.1918 O   0  0  0  0  0  0  0  0  0  0  0  0
  -23.9886  -10.6285   23.5705 O   0  0  0  0  0  0  0  0  0  0  0  0
  -19.8083  -28.2200   21.1777 O   0  0  0  0  0  0  0  0  0  1  0  0
  -22.4830   -8.4762   18.7223 F   0  0  0  0  0  0  0  0  0  0  0  0
  -21.2412  -24.5433   25.4312 F   0  0  0  0  0  0  0  0  0  0  0  0
  -21.3200  -10.2595   22.9499 F   0  0  0  0  0  0  0  0  0  0  0  0
  1  2  1  0  0  0  0
  1  5  2  0  0  0  0
  2  6  2  0  0  0  0
  3  8  2  0  0  0  0
  3 17  1  0  0  0  0
  4  9  1  0  0  0  0
  4 17  2  0  0  0  0
  5 19  1  0  0  0  0
  6 21  1  0  0  0  0
  7 10  2  0  0  0  0
  7 20  1  0  0  0  0
  8 26  1  0  0  0  0
  9 26  2  0  0  0  0
 10 27  1  0  0  0  0
 11 12  2  0  0  0  0
 11 28  1  0  0  0  0
 12 29  1  0  0  0  0
 13 22  1  0  0  0  0
 13 27  2  0  0  0  0
 14 23  2  0  0  0  0
 14 24  1  0  0  0  0
 15 25  2  0  0  0  0
 15 30  1  0  0  0  0
 16 29  2  0  0  0  0
 16 31  1  0  0  0  0
 17 32  1  0  0  0  0
 18 32  1  0  0  0  0
 18 33  2  0  0  0  0
 18 34  1  0  0  0  0
 19 21  2  0  0  0  0
 19 39  1  0  0  0  0
 20 22  2  0  0  0  0
 20 40  1  0  0  0  0
 21 48  1  0  0  0  0
 22 41  1  0  0  0  0
 23 25  1  0  0  0  0
 23 51  1  0  0  0  0
 24 30  2  0  0  0  0
 24 58  1  0  0  0  0
 25 70  1  0  0  0  0
 26 80  1  0  0  0  0
 27 81  1  0  0  0  0
 28 31  2  0  0  0  0
 28 80  1  0  0  0  0
 29 82  1  0  0  0  0
 30 83  1  0  0  0  0
 31 84  1  0  0  0  0
 32 64  2  0  0  0  0
 33 65  1  0  0  0  0
 33 68  1  0  0  0  0
 34 69  1  0  0  0  0
 34 75  2  0  0  0  0
 35 49  1  0  0  0  0
 35 71  1  0  0  0  0
 35 76  2  0  0  0  0
 36 60  1  0  0  0  0
 36 66  1  0  0  0  0
 36 77  2  0  0  0  0
 37 61  1  0  0  0  0
 37 72  1  0  0  0  0
 37 78  2  0  0  0  0
 38 67  1  0  0  0  0
 38 70  1  0  0  0  0
 38 79  2  0  0  0  0
 39 42  1  0  0  0  0
 40 49  1  0  0  0  0
 41 66  1  0  0  0  0
 42 44  1  0  0  0  0
 43 45  1  0  0  0  0
 43 46  1  0  0  0  0
 44 48  1  0  0  0  0
 45 50  1  0  0  0  0
 46 67  1  0  0  0  0
 47 50  1  0  0  0  0
 47 67  1  0  0  0  0
 48 71  1  0  0  0  0
 49 66  1  0  0  0  0
 50 65  1  0  0  0  0
 52 61  1  0  0  0  0
 53 62  1  0  0  0  0
 54 63  1  0  0  0  0
 55 63  1  0  0  0  0
 56 63  1  0  0  0  0
 57 73  1  0  0  0  0
 58 74  1  0  0  0  0
 59 62  1  0  0  0  0
 59 74  1  0  0  0  0
 60 63  1  0  0  0  0
 60 72  1  0  0  0  0
 61 73  1  0  0  0  0
 62 81  1  0  0  0  0
 64 65  1  0  0  0  0
M  CHG  2  73   1  74   1
M  ISO  4  38 100  62 101  70 100  81 101
M  END
> <Batch ID>
0034

> <Smiles>
CNC(C)C(=O)NC(C(=O)N1Cc2cc([101O:1][101CH:1](C)CNCc3cc(C)c([100NH:0][100C:0](=O)N4CCCC(n5nc(-c6ccc(Oc7ccc(F)cc7F)cc6)c(C(N)=O)c5N)C4)cc3F)ccc2CC1C(=O)NC1CCCc2ccccc21)C(C)(C)C

> <Shape>
0.231

> <Color>
0.065

> <Negative vol penalty>
0.000

$$$$

  -OEChem-04042321483D

 87 96  0     1  0  0  0  0  0999 V2000
  -22.8819  -30.9217   16.9016 C   0  0  0  0  0  0  0  0  0  0  0  0
  -24.1530  -30.3593   16.8724 C   0  0  0  0  0  0  0  0  0  0  0  0
  -23.2557  -10.1371   22.1692 C   0  0  0  0  0  0  0  0  0  0  0  0
  -23.4984   -9.5693   19.8334 C   0  0  0  0  0  0  0  0  0  0  0  0
  -22.0327  -30.6603   17.9747 C   0  0  0  0  0  0  0  0  0  0  0  0
  -24.5709  -29.5257   17.9104 C   0  0  0  0  0  0  0  0  0  0  0  0
  -29.4553  -24.7976   22.0347 C   0  0  0  0  0  0  0  0  0  0  0  0
  -30.7062  -19.6794   21.8124 C   0  0  0  0  0  0  0  0  0  0  0  0
  -30.2399  -19.1043   20.6304 C   0  0  0  0  0  0  0  0  0  0  0  0
  -22.4920   -8.9872   22.3694 C   0  0  0  0  0  0  0  0  0  0  0  0
  -22.7348   -8.4193   20.0336 C   0  0  0  0  0  0  0  0  0  0  0  0
  -29.6777  -24.2623   23.3027 C   0  0  0  0  0  0  0  0  0  0  0  0
  -23.0359   -5.6738   22.7679 C   0  0  0  0  0  0  0  0  0  0  0  0
  -23.3202   -4.8939   23.8888 C   0  0  0  0  0  0  0  0  0  0  0  0
  -27.4461  -23.3460   23.3005 C   0  0  0  0  0  0  0  0  0  0  0  0
  -21.0676   -5.2311   24.6947 C   0  0  0  0  0  0  0  0  0  0  0  0
  -23.7589  -10.4282   20.9012 C   0  0  0  0  0  0  0  0  0  0  0  0
  -24.1487  -12.9492   20.9079 C   0  0  0  0  0  0  0  0  0  0  0  0
  -22.4458  -29.8330   19.0321 C   0  0  0  0  0  0  0  0  0  0  0  0
  -28.2208  -24.6201   21.3936 C   0  0  0  0  0  0  0  0  0  0  0  0
  -23.7196  -29.2306   18.9905 C   0  0  0  0  0  0  0  0  0  0  0  0
  -27.2115  -23.8779   22.0234 C   0  0  0  0  0  0  0  0  0  0  0  0
  -30.9793  -18.8752   22.9190 C   0  0  0  0  0  0  0  0  0  0  0  0
  -30.0466  -17.7249   20.5548 C   0  0  0  0  0  0  0  0  0  0  0  0
  -30.7860  -17.4959   22.8435 C   0  0  0  0  0  0  0  0  0  0  0  0
  -30.3197  -16.9207   21.6614 C   0  0  0  0  0  0  0  0  0  0  0  0
  -22.2316   -8.1283   21.3016 C   0  0  0  0  0  0  0  0  0  0  0  0
  -28.6720  -23.5388   23.9370 C   0  0  0  0  0  0  0  0  0  0  0  0
  -21.7675   -6.2325   22.6104 C   0  0  0  0  0  0  0  0  0  0  0  0
  -22.3360   -4.6725   24.8522 C   0  0  0  0  0  0  0  0  0  0  0  0
  -20.7834   -6.0111   23.5738 C   0  0  0  0  0  0  0  0  0  0  0  0
  -24.5473  -11.6162   20.6936 C   0  0  0  0  0  0  0  0  0  0  0  0
  -25.2498  -13.6959   20.5666 C   0  0  0  0  0  0  0  0  0  0  0  0
  -31.0437  -19.7506   26.5513 C   0  0  0  0  0  0  0  0  0  0  0  0
  -31.0769  -18.6737   27.3507 C   0  0  0  0  0  0  0  0  0  0  0  0
  -22.8952  -13.4663   21.3738 C   0  0  0  0  0  0  0  0  0  0  0  0
  -25.9283  -26.5658   20.3630 C   0  0  0  0  0  0  0  0  0  0  0  0
  -24.6847  -23.8251   19.1527 C   0  0  0  0  0  0  0  0  0  0  0  0
  -24.2759  -20.4111   20.2458 C   0  0  0  0  0  0  0  0  0  0  0  0
  -30.7376  -14.6271   20.7069 C   0  0  0  0  0  0  0  0  0  0  0  0
  -21.4833  -29.5774   20.1650 C   0  0  0  0  0  0  0  0  0  0  0  0
  -28.0061  -25.1811   20.0146 C   0  0  0  0  0  0  0  0  0  0  0  0
  -25.8755  -23.6416   21.3694 C   0  0  0  0  0  0  0  0  0  0  0  0
  -31.5792  -21.0949   26.9634 C   0  0  0  0  0  0  0  0  0  0  0  0
  -22.1698  -29.0494   21.4205 C   0  0  0  0  0  0  0  0  0  0  0  0
  -30.5366  -22.1789   26.7179 C   0  0  0  0  0  0  0  0  0  0  0  0
  -29.5397  -12.3628   18.2340 C   0  0  0  0  0  0  0  0  0  0  0  0
  -23.0846  -27.8875   21.0632 C   0  0  0  0  0  0  0  0  0  0  0  0
  -28.1013  -12.0764   18.6711 C   0  0  0  0  0  0  0  0  0  0  0  0
  -30.4774  -12.5107   19.4310 C   0  0  0  0  0  0  0  0  0  0  0  0
  -28.6064  -13.1975   20.8790 C   0  0  0  0  0  0  0  0  0  0  0  0
  -29.4006  -20.6852   25.0319 C   0  0  0  0  0  0  0  0  0  0  0  0
  -24.2071  -28.3454   20.1233 C   0  0  1  0  0  0  0  0  0  0  0  0
  -26.5324  -25.3763   19.6718 C   0  0  1  0  0  0  0  0  0  0  0  0
  -27.6125  -13.1049   19.7097 C   0  0  2  0  0  0  0  0  0  0  0  0
  -29.9534  -22.0810   25.3084 C   0  0  1  0  0  0  0  0  0  1  0  0
  -29.5455  -17.1385   19.2747 C   0  0  0  0  0  0  0  0  0  0  0  0
  -31.0798  -16.6392   24.0353 C   0  0  0  0  0  0  0  0  0  0  0  0
  -24.1064  -18.2843   18.9247 C   0  0  0  0  0  0  0  0  0  0  0  0
  -21.6743  -24.2788   19.3568 C   0  0  0  0  0  0  0  0  0  0  0  0
  -21.3920  -21.8082   19.6473 C   0  0  0  0  0  0  0  0  0  0  0  0
  -22.3720  -22.7103   17.5382 C   0  0  0  0  0  0  0  0  0  0  0  0
  -26.5256  -19.1787   21.7218 C   0  0  0  0  0  0  0  0  0  0  0  0
  -31.4796  -19.5202   24.1779 C   0  0  0  0  0  0  0  0  0  0  0  0
  -23.7415  -22.7625   19.6627 C   0  0  1  0  0  0  0  0  0  0  0  0
  -25.0224  -19.1953   19.7271 C   0  0  2  0  0  0  0  0  0  0  0  0
  -22.3116  -22.9048   19.0689 C   0  0  0  0  0  0  0  0  0  0  0  0
  -25.8035  -11.5185   20.2504 N   0  0  0  0  0  0  0  0  0  0  0  0
  -26.2037  -12.7997   20.1833 N   0  0  0  0  0  0  0  0  0  0  0  0
  -25.7118  -24.2157   20.0236 N   0  0  0  0  0  0  0  0  0  0  0  0
  -29.9523  -13.5043   20.3700 N   0  0  0  0  0  0  0  0  0  0  0  0
  -25.4854  -15.0252   20.5599 N   0  0  0  0  0  0  0  0  0  0  0  0
  -21.9063  -13.7729   20.4291 N   0  0  0  0  0  0  0  0  0  0  0  0
  -30.1212  -15.5199   21.5830 N   0  0  0  0  0  0  0  0  0  0  0  0
  -24.9239  -27.1845   19.6433 N   0  0  0  0  0  0  0  0  0  0  0  0
  -24.3802  -21.4811   19.3823 N   0  0  0  0  0  0  0  0  0  0  0  0
  -30.4316  -19.6055   25.2528 N   0  3  1  0  0  0  0  0  0  0  0  0
  -25.5880  -18.4119   20.8617 N   0  3  0  0  0  0  0  0  0  0  0  0
  -22.6650  -13.6663   22.5905 O   0  0  0  0  0  0  0  0  0  0  0  0
  -26.3417  -26.8968   21.4681 O   0  0  0  0  0  0  0  0  0  0  0  0
  -24.5207  -24.2864   18.0204 O   0  0  0  0  0  0  0  0  0  0  0  0
  -23.6587  -20.4105   21.3086 O   0  0  0  0  0  0  0  0  0  0  0  0
  -31.8626  -14.7988   20.2304 O   0  0  0  0  0  0  0  0  0  0  0  0
  -21.4866   -7.0060   21.4966 O   0  0  0  0  0  0  0  0  0  0  0  0
  -28.8861  -23.0158   25.1749 O   0  0  0  0  0  0  0  0  0  1  0  0
  -22.6087   -3.9222   25.9278 F   0  0  0  0  0  0  0  0  0  0  0  0
  -19.5626   -6.5442   23.4274 F   0  0  0  0  0  0  0  0  0  0  0  0
  1  2  1  0  0  0  0
  1  5  2  0  0  0  0
  2  6  2  0  0  0  0
  3 10  2  0  0  0  0
  3 17  1  0  0  0  0
  4 11  1  0  0  0  0
  4 17  2  0  0  0  0
  5 19  1  0  0  0  0
  6 21  1  0  0  0  0
  7 12  2  0  0  0  0
  7 20  1  0  0  0  0
  8  9  2  0  0  0  0
  8 23  1  0  0  0  0
  9 24  1  0  0  0  0
 10 27  1  0  0  0  0
 11 27  2  0  0  0  0
 12 28  1  0  0  0  0
 13 14  2  0  0  0  0
 13 29  1  0  0  0  0
 14 30  1  0  0  0  0
 15 22  1  0  0  0  0
 15 28  2  0  0  0  0
 16 30  2  0  0  0  0
 16 31  1  0  0  0  0
 17 32  1  0  0  0  0
 18 32  1  0  0  0  0
 18 33  2  0  0  0  0
 18 36  1  0  0  0  0
 19 21  2  0  0  0  0
 19 41  1  0  0  0  0
 20 22  2  0  0  0  0
 20 42  1  0  0  0  0
 21 53  1  0  0  0  0
 22 43  1  0  0  0  0
 23 25  2  0  0  0  0
 23 64  1  0  0  0  0
 24 26  2  0  0  0  0
 24 57  1  0  0  0  0
 25 26  1  0  0  0  0
 25 58  1  0  0  0  0
 26 74  1  0  0  0  0
 27 84  1  0  0  0  0
 28 85  1  0  0  0  0
 29 31  2  0  0  0  0
 29 84  1  0  0  0  0
 30 86  1  0  0  0  0
 31 87  1  0  0  0  0
 32 68  2  0  0  0  0
 33 69  1  0  0  0  0
 33 72  1  0  0  0  0
 34 35  2  0  0  0  0
 34 44  1  0  0  0  0
 34 77  1  0  0  0  0
 36 73  1  0  0  0  0
 36 79  2  0  0  0  0
 37 54  1  0  0  0  0
 37 75  1  0  0  0  0
 37 80  2  0  0  0  0
 38 65  1  0  0  0  0
 38 70  1  0  0  0  0
 38 81  2  0  0  0  0
 39 66  1  0  0  0  0
 39 76  1  0  0  0  0
 39 82  2  0  0  0  0
 40 71  1  0  0  0  0
 40 74  1  0  0  0  0
 40 83  2  0  0  0  0
 41 45  1  0  0  0  0
 42 54  1  0  0  0  0
 43 70  1  0  0  0  0
 44 46  1  0  0  0  0
 45 48  1  0  0  0  0
 46 56  1  0  0  0  0
 47 49  1  0  0  0  0
 47 50  1  0  0  0  0
 48 53  1  0  0  0  0
 49 55  1  0  0  0  0
 50 71  1  0  0  0  0
 51 55  1  0  0  0  0
 51 71  1  0  0  0  0
 52 56  1  0  0  0  0
 52 77  1  0  0  0  0
 53 75  1  0  0  0  0
 54 70  1  0  0  0  0
 55 69  1  0  0  0  0
 56 85  1  0  0  0  0
 59 66  1  0  0  0  0
 60 67  1  0  0  0  0
 61 67  1  0  0  0  0
 62 67  1  0  0  0  0
 63 78  1  0  0  0  0
 64 77  1  0  0  0  0
 65 67  1  0  0  0  0
 65 76  1  0  0  0  0
 66 78  1  0  0  0  0
 68 69  1  0  0  0  0
M  CHG  2  77   1  78   1
M  ISO  4  40 100  56 101  74 100  85 101
M  END
> <Batch ID>
0034

> <Smiles>
C=C1CC[101CH:1]([101O:1]c2ccc3c(c2)CN(C(=O)C(NC(=O)C(C)NC)C(C)(C)C)C(C(=O)NC2CCCc4ccccc42)C3)CN1Cc1ccc(C)c([100NH:0][100C:0](=O)N2CCCC(n3nc(-c4ccc(Oc5ccc(F)cc5F)cc4)c(C(N)=O)c3N)C2)c1C

> <Shape>
0.240

> <Color>
0.173

> <Negative vol penalty>
0.000

$$$$

  -OEChem-04042321483D

 86 95  0     1  0  0  0  0  0999 V2000
  -26.1598   -7.5036   23.1270 C   0  0  0  0  0  0  0  0  0  0  0  0
  -27.0658   -8.5427   22.9403 C   0  0  0  0  0  0  0  0  0  0  0  0
  -19.6140  -28.1570   22.4015 C   0  0  0  0  0  0  0  0  0  0  0  0
  -20.9723  -26.3474   23.2484 C   0  0  0  0  0  0  0  0  0  0  0  0
  -24.9785   -7.4690   22.3874 C   0  0  0  0  0  0  0  0  0  0  0  0
  -26.7914   -9.5473   22.0129 C   0  0  0  0  0  0  0  0  0  0  0  0
  -28.2756  -15.4723   22.4564 C   0  0  0  0  0  0  0  0  0  0  0  0
  -18.4700  -27.3767   22.5689 C   0  0  0  0  0  0  0  0  0  0  0  0
  -19.8283  -25.5671   23.4159 C   0  0  0  0  0  0  0  0  0  0  0  0
  -29.3246  -16.2191   21.9220 C   0  0  0  0  0  0  0  0  0  0  0  0
  -17.7716  -23.7126   21.4764 C   0  0  0  0  0  0  0  0  0  0  0  0
  -17.8233  -22.3863   21.0476 C   0  0  0  0  0  0  0  0  0  0  0  0
  -27.9022  -16.8993   20.0962 C   0  0  0  0  0  0  0  0  0  0  0  0
  -30.3331  -23.7881   21.0716 C   0  0  0  0  0  0  0  0  0  0  0  0
  -30.7742  -22.8614   18.4774 C   0  0  0  0  0  0  0  0  0  0  0  0
  -17.3571  -21.6406   23.2978 C   0  0  0  0  0  0  0  0  0  0  0  0
  -20.8652  -27.6423   22.7412 C   0  0  0  0  0  0  0  0  0  0  0  0
  -22.3266  -29.6885   23.1714 C   0  0  0  0  0  0  0  0  0  0  0  0
  -24.6850   -8.4788   21.4574 C   0  0  0  0  0  0  0  0  0  0  0  0
  -27.0332  -15.4246   21.8079 C   0  0  0  0  0  0  0  0  0  0  0  0
  -25.6056   -9.5254   21.2592 C   0  0  0  0  0  0  0  0  0  0  0  0
  -26.8383  -16.1532   20.6259 C   0  0  0  0  0  0  0  0  0  0  0  0
  -30.3924  -22.4171   20.8214 C   0  0  0  0  0  0  0  0  0  0  0  0
  -30.4942  -24.6957   20.0247 C   0  0  0  0  0  0  0  0  0  0  0  0
  -30.6130  -21.9538   19.5243 C   0  0  0  0  0  0  0  0  0  0  0  0
  -18.5771  -26.0818   23.0762 C   0  0  0  0  0  0  0  0  0  0  0  0
  -29.1389  -16.9304   20.7401 C   0  0  0  0  0  0  0  0  0  0  0  0
  -17.5128  -24.0029   22.8159 C   0  0  0  0  0  0  0  0  0  0  0  0
  -17.6160  -21.3503   21.9583 C   0  0  0  0  0  0  0  0  0  0  0  0
  -30.7148  -24.2324   18.7277 C   0  0  0  0  0  0  0  0  0  0  0  0
  -17.3055  -22.9670   23.7266 C   0  0  0  0  0  0  0  0  0  0  0  0
  -22.0473  -28.4477   22.5679 C   0  0  0  0  0  0  0  0  0  0  0  0
  -23.5638  -30.0355   22.6861 C   0  0  0  0  0  0  0  0  0  0  0  0
  -31.7314  -19.8455   18.7135 C   0  0  0  0  0  0  0  0  0  0  0  0
  -33.0452  -20.1114   18.6806 C   0  0  0  0  0  0  0  0  0  0  0  0
  -21.5383  -30.4585   24.0886 C   0  0  0  0  0  0  0  0  0  0  0  0
  -25.2759  -13.1251   20.4935 C   0  0  0  0  0  0  0  0  0  0  0  0
  -23.0948  -15.5060   20.1830 C   0  0  0  0  0  0  0  0  0  0  0  0
  -22.4728  -18.8541   19.9581 C   0  0  0  0  0  0  0  0  0  0  0  0
  -28.0559  -26.7755   20.6740 C   0  0  0  0  0  0  0  0  0  0  0  0
  -23.4172   -8.3733   20.6472 C   0  0  0  0  0  0  0  0  0  0  0  0
  -25.9036  -14.6359   22.4116 C   0  0  0  0  0  0  0  0  0  0  0  0
  -25.5176  -16.1513   19.9018 C   0  0  0  0  0  0  0  0  0  0  0  0
  -31.1931  -18.5263   18.2038 C   0  0  0  0  0  0  0  0  0  0  0  0
  -23.0270   -9.6764   19.9544 C   0  0  0  0  0  0  0  0  0  0  0  0
  -26.3932  -29.4377   18.8724 C   0  0  0  0  0  0  0  0  0  0  0  0
  -24.2375  -10.2977   19.2648 C   0  0  0  0  0  0  0  0  0  0  0  0
  -25.1078  -29.5989   19.6860 C   0  0  0  0  0  0  0  0  0  0  0  0
  -26.8065  -27.9720   18.7766 C   0  0  0  0  0  0  0  0  0  0  0  0
  -25.6822  -27.4494   20.9064 C   0  0  0  0  0  0  0  0  0  0  0  0
  -29.4324  -19.7898   19.3112 C   0  0  0  0  0  0  0  0  0  0  0  0
  -25.3321  -10.6467   20.2805 C   0  0  1  0  0  0  0  0  0  0  0  0
  -24.8367  -14.2452   21.3936 C   0  0  1  0  0  0  0  0  0  0  0  0
  -25.2238  -28.9111   21.0592 C   0  0  2  0  0  0  0  0  0  0  0  0
  -29.9017  -18.3629   19.0041 C   0  0  2  0  0  0  0  0  0  1  0  0
  -30.2166  -21.4672   21.9613 C   0  0  0  0  0  0  0  0  0  0  0  0
  -21.1285  -20.9695   19.8356 C   0  0  0  0  0  0  0  0  0  0  0  0
  -22.9380  -14.8059   17.2173 C   0  0  0  0  0  0  0  0  0  0  0  0
  -21.8247  -17.0140   16.8263 C   0  0  0  0  0  0  0  0  0  0  0  0
  -20.7350  -15.3113   18.2878 C   0  0  0  0  0  0  0  0  0  0  0  0
  -22.3592  -19.0897   22.9060 C   0  0  0  0  0  0  0  0  0  0  0  0
  -30.4299  -26.1610   20.2953 C   0  0  0  0  0  0  0  0  0  0  0  0
  -22.7810  -16.5373   19.1261 C   0  0  1  0  0  0  0  0  0  0  0  0
  -21.4651  -19.7412   20.6666 C   0  0  2  0  0  0  0  0  0  0  0  0
  -22.0953  -15.9158   17.8768 C   0  0  0  0  0  0  0  0  0  0  0  0
  -23.0281  -28.0344   21.7608 N   0  0  0  0  0  0  0  0  0  0  0  0
  -23.9357  -29.0212   21.8537 N   0  0  0  0  0  0  0  0  0  0  0  0
  -30.6762  -20.5724   19.2529 N   0  0  0  0  0  0  0  0  0  0  0  0
  -24.4458  -15.3600   20.5284 N   0  0  0  0  0  0  0  0  0  0  0  0
  -26.9171  -27.3818   20.1180 N   0  0  0  0  0  0  0  0  0  0  0  0
  -24.3589  -31.1064   22.8945 N   0  0  0  0  0  0  0  0  0  0  0  0
  -21.7050  -30.2368   25.4624 N   0  0  0  0  0  0  0  0  0  0  0  0
  -24.9967  -11.8647   20.9864 N   0  0  0  0  0  0  0  0  0  0  0  0
  -21.9936  -17.5725   19.7870 N   0  0  0  0  0  0  0  0  0  0  0  0
  -29.1814  -26.7462   19.8597 N   0  0  0  0  0  0  0  0  0  0  0  0
  -22.0071  -20.1954   21.9785 N   0  3  0  0  0  0  0  0  0  0  0  0
  -20.6987  -31.3060   23.7009 O   0  0  0  0  0  0  0  0  0  0  0  0
  -25.8259  -13.3851   19.4297 O   0  0  0  0  0  0  0  0  0  0  0  0
  -22.1743  -14.8591   20.6888 O   0  0  0  0  0  0  0  0  0  0  0  0
  -23.5733  -19.2585   19.5896 O   0  0  0  0  0  0  0  0  0  0  0  0
  -28.0703  -26.3000   21.8145 O   0  0  0  0  0  0  0  0  0  0  0  0
  -17.4610  -25.3202   23.2399 O   0  0  0  0  0  0  0  0  0  0  0  0
  -30.1614  -17.6595   20.2159 O   0  0  0  0  0  0  0  0  0  1  0  0
  -17.6642  -20.0768   21.5461 F   0  0  0  0  0  0  0  0  0  0  0  0
  -30.8706  -25.0970   17.7153 F   0  0  0  0  0  0  0  0  0  0  0  0
  -17.0552  -23.2397   25.0146 F   0  0  0  0  0  0  0  0  0  0  0  0
  1  2  1  0  0  0  0
  1  5  2  0  0  0  0
  2  6  2  0  0  0  0
  3  8  2  0  0  0  0
  3 17  1  0  0  0  0
  4  9  1  0  0  0  0
  4 17  2  0  0  0  0
  5 19  1  0  0  0  0
  6 21  1  0  0  0  0
  7 10  2  0  0  0  0
  7 20  1  0  0  0  0
  8 26  1  0  0  0  0
  9 26  2  0  0  0  0
 10 27  1  0  0  0  0
 11 12  2  0  0  0  0
 11 28  1  0  0  0  0
 12 29  1  0  0  0  0
 13 22  1  0  0  0  0
 13 27  2  0  0  0  0
 14 23  1  0  0  0  0
 14 24  2  0  0  0  0
 15 25  1  0  0  0  0
 15 30  2  0  0  0  0
 16 29  2  0  0  0  0
 16 31  1  0  0  0  0
 17 32  1  0  0  0  0
 18 32  1  0  0  0  0
 18 33  2  0  0  0  0
 18 36  1  0  0  0  0
 19 21  2  0  0  0  0
 19 41  1  0  0  0  0
 20 22  2  0  0  0  0
 20 42  1  0  0  0  0
 21 52  1  0  0  0  0
 22 43  1  0  0  0  0
 23 25  2  0  0  0  0
 23 56  1  0  0  0  0
 24 30  1  0  0  0  0
 24 62  1  0  0  0  0
 25 68  1  0  0  0  0
 26 82  1  0  0  0  0
 27 83  1  0  0  0  0
 28 31  2  0  0  0  0
 28 82  1  0  0  0  0
 29 84  1  0  0  0  0
 30 85  1  0  0  0  0
 31 86  1  0  0  0  0
 32 66  2  0  0  0  0
 33 67  1  0  0  0  0
 33 71  1  0  0  0  0
 34 35  2  0  0  0  0
 34 44  1  0  0  0  0
 34 68  1  0  0  0  0
 36 72  1  0  0  0  0
 36 77  2  0  0  0  0
 37 53  1  0  0  0  0
 37 73  1  0  0  0  0
 37 78  2  0  0  0  0
 38 63  1  0  0  0  0
 38 69  1  0  0  0  0
 38 79  2  0  0  0  0
 39 64  1  0  0  0  0
 39 74  1  0  0  0  0
 39 80  2  0  0  0  0
 40 70  1  0  0  0  0
 40 75  1  0  0  0  0
 40 81  2  0  0  0  0
 41 45  1  0  0  0  0
 42 53  1  0  0  0  0
 43 69  1  0  0  0  0
 44 55  1  0  0  0  0
 45 47  1  0  0  0  0
 46 48  1  0  0  0  0
 46 49  1  0  0  0  0
 47 52  1  0  0  0  0
 48 54  1  0  0  0  0
 49 70  1  0  0  0  0
 50 54  1  0  0  0  0
 50 70  1  0  0  0  0
 51 55  1  0  0  0  0
 51 68  1  0  0  0  0
 52 73  1  0  0  0  0
 53 69  1  0  0  0  0
 54 67  1  0  0  0  0
 55 83  1  0  0  0  0
 57 64  1  0  0  0  0
 58 65  1  0  0  0  0
 59 65  1  0  0  0  0
 60 65  1  0  0  0  0
 61 76  1  0  0  0  0
 62 75  1  0  0  0  0
 63 65  1  0  0  0  0
 63 74  1  0  0  0  0
 64 76  1  0  0  0  0
 66 67  1  0  0  0  0
M  CHG  1  76   1
M  ISO  4  40 100  55 101  75 100  83 101
M  END
> <Batch ID>
0034

> <Smiles>
C=C1C[101CH:1]([101O:1]c2ccc3c(c2)CN(C(=O)C(NC(=O)C(C)NC)C(C)(C)C)C(C(=O)NC2CCCc4ccccc42)C3)CN1c1cc(F)c(C[100NH:0][100C:0](=O)N2CCCC(n3nc(-c4ccc(Oc5ccc(F)cc5F)cc4)c(C(N)=O)c3N)C2)cc1C

> <Shape>
0.248

> <Color>
0.067

> <Negative vol penalty>
0.000

$$$$

  -OEChem-04042321483D

 85 93  0     1  0  0  0  0  0999 V2000
  -26.6196  -20.1664   14.3168 C   0  0  0  0  0  0  0  0  0  0  0  0
  -27.3242  -19.5211   15.3280 C   0  0  0  0  0  0  0  0  0  0  0  0
  -26.4728  -29.5527   19.6367 C   0  0  0  0  0  0  0  0  0  0  0  0
  -26.9338  -29.0276   21.9495 C   0  0  0  0  0  0  0  0  0  0  0  0
  -25.2608  -20.4345   14.4771 C   0  0  0  0  0  0  0  0  0  0  0  0
  -26.6705  -19.1446   16.5008 C   0  0  0  0  0  0  0  0  0  0  0  0
  -27.8640  -14.4469   17.9676 C   0  0  0  0  0  0  0  0  0  0  0  0
  -25.3893  -30.3377   20.0309 C   0  0  0  0  0  0  0  0  0  0  0  0
  -25.8503  -29.8127   22.3437 C   0  0  0  0  0  0  0  0  0  0  0  0
  -29.0919  -14.2712   18.6042 C   0  0  0  0  0  0  0  0  0  0  0  0
  -25.1773  -33.0984   22.7582 C   0  0  0  0  0  0  0  0  0  0  0  0
  -25.3666  -33.9700   23.8306 C   0  0  0  0  0  0  0  0  0  0  0  0
  -30.7131  -19.9895   22.6323 C   0  0  0  0  0  0  0  0  0  0  0  0
  -27.9748  -14.2578   20.7422 C   0  0  0  0  0  0  0  0  0  0  0  0
  -29.8564  -20.5483   25.2278 C   0  0  0  0  0  0  0  0  0  0  0  0
  -23.6160  -32.8426   25.0559 C   0  0  0  0  0  0  0  0  0  0  0  0
  -27.2450  -28.8976   20.5960 C   0  0  0  0  0  0  0  0  0  0  0  0
  -31.1012  -19.1642   23.6877 C   0  0  0  0  0  0  0  0  0  0  0  0
  -29.6980  -28.5019   20.0181 C   0  0  0  0  0  0  0  0  0  0  0  0
  -24.5880  -20.0525   15.6484 C   0  0  0  0  0  0  0  0  0  0  0  0
  -26.6815  -14.5404   18.7155 C   0  0  0  0  0  0  0  0  0  0  0  0
  -25.3017  -19.4091   16.6775 C   0  0  0  0  0  0  0  0  0  0  0  0
  -26.7329  -14.4320   20.1126 C   0  0  0  0  0  0  0  0  0  0  0  0
  -30.6729  -19.4436   24.9854 C   0  0  0  0  0  0  0  0  0  0  0  0
  -29.4684  -21.3737   24.1724 C   0  0  0  0  0  0  0  0  0  0  0  0
  -29.8967  -21.0943   22.8747 C   0  0  0  0  0  0  0  0  0  0  0  0
  -25.0781  -30.4677   21.3844 C   0  0  0  0  0  0  0  0  0  0  0  0
  -29.1478  -14.1796   19.9918 C   0  0  0  0  0  0  0  0  0  0  0  0
  -24.2072  -32.0989   22.8346 C   0  0  0  0  0  0  0  0  0  0  0  0
  -24.5860  -33.8421   24.9794 C   0  0  0  0  0  0  0  0  0  0  0  0
  -23.4266  -31.9710   23.9835 C   0  0  0  0  0  0  0  0  0  0  0  0
  -28.3640  -28.0860   20.1894 C   0  0  0  0  0  0  0  0  0  0  0  0
  -30.3644  -27.3660   19.6283 C   0  0  0  0  0  0  0  0  0  0  0  0
  -31.9723  -17.9953   23.4014 C   0  0  0  0  0  0  0  0  0  0  0  0
  -30.2825  -29.7991   20.1956 C   0  0  0  0  0  0  0  0  0  0  0  0
  -24.4595  -16.7755   19.1286 C   0  0  0  0  0  0  0  0  0  0  0  0
  -22.9724  -14.4341   20.8105 C   0  0  0  0  0  0  0  0  0  0  0  0
  -23.2334  -11.5398   22.5998 C   0  0  0  0  0  0  0  0  0  0  0  0
  -29.3328  -21.5394   20.4601 C   0  0  0  0  0  0  0  0  0  0  0  0
  -23.1292  -20.4060   15.7958 C   0  0  0  0  0  0  0  0  0  0  0  0
  -25.3620  -14.7030   18.0121 C   0  0  0  0  0  0  0  0  0  0  0  0
  -25.4899  -14.5059   20.9599 C   0  0  0  0  0  0  0  0  0  0  0  0
  -22.4266  -19.6394   16.9134 C   0  0  0  0  0  0  0  0  0  0  0  0
  -29.6715  -23.2175   17.3382 C   0  0  0  0  0  0  0  0  0  0  0  0
  -23.2720  -19.6526   18.1830 C   0  0  0  0  0  0  0  0  0  0  0  0
  -29.5021  -24.6948   17.7004 C   0  0  0  0  0  0  0  0  0  0  0  0
  -28.7583  -22.3208   18.1722 C   0  0  0  0  0  0  0  0  0  0  0  0
  -28.6931  -23.9854   19.9872 C   0  0  0  0  0  0  0  0  0  0  0  0
  -24.6223  -18.9629   17.9540 C   0  0  1  0  0  0  0  0  0  0  0  0
  -24.2787  -15.3007   18.9047 C   0  0  1  0  0  0  0  0  0  0  0  0
  -29.6395  -24.9221   19.2186 C   0  0  2  0  0  0  0  0  0  0  0  0
  -31.0731  -18.5755   26.1336 C   0  0  0  0  0  0  0  0  0  0  0  0
  -28.5946  -22.5510   24.4612 C   0  0  0  0  0  0  0  0  0  0  0  0
  -21.8496   -9.8846   23.8814 C   0  0  0  0  0  0  0  0  0  0  0  0
  -22.7792  -16.4000   23.1360 C   0  0  0  0  0  0  0  0  0  0  0  0
  -22.2834  -14.4623   24.6418 C   0  0  0  0  0  0  0  0  0  0  0  0
  -20.7304  -15.0135   22.7691 C   0  0  0  0  0  0  0  0  0  0  0  0
  -23.9867   -9.3281   20.7832 C   0  0  0  0  0  0  0  0  0  0  0  0
  -31.9383  -14.9169   22.1634 C   0  0  0  0  0  0  0  0  0  0  0  0
  -32.1833  -15.5269   23.5369 C   0  0  0  0  0  0  0  0  0  0  0  0
  -30.4772  -14.5537   21.9279 C   0  0  0  0  0  0  0  0  0  1  0  0
  -22.9802  -13.9828   22.2511 C   0  0  1  0  0  0  0  0  0  0  0  0
  -22.4531  -10.2394   22.5314 C   0  0  2  0  0  0  0  0  0  0  0  0
  -22.2171  -14.9652   23.1839 C   0  0  0  0  0  0  0  0  0  0  0  0
  -28.1914  -26.7873   19.9295 N   0  0  0  0  0  0  0  0  0  0  0  0
  -29.4256  -26.3773   19.5909 N   0  0  0  0  0  0  0  0  0  0  0  0
  -24.2245  -14.6718   20.2260 N   0  0  0  0  0  0  0  0  0  0  0  0
  -28.9463  -22.5887   19.5997 N   0  0  0  0  0  0  0  0  0  0  0  0
  -31.6560  -27.1264   19.3171 N   0  0  0  0  0  0  0  0  0  0  0  0
  -29.4546  -30.8553   20.5997 N   0  0  0  0  0  0  0  0  0  0  0  0
  -29.5128  -21.9204   21.7894 N   0  0  0  0  0  0  0  0  0  0  0  0
  -31.4524  -16.7486   23.7308 N   0  0  0  0  0  0  0  0  0  0  0  0
  -24.4637  -17.5244   17.9673 N   0  0  0  0  0  0  0  0  0  0  0  0
  -22.4524  -12.6228   22.2557 N   0  0  0  0  0  0  0  0  0  0  0  0
  -23.3437   -9.1226   22.1066 N   0  3  0  0  0  0  0  0  0  0  0  0
  -33.0869  -18.1813   22.9202 O   0  0  0  0  0  0  0  0  0  0  0  0
  -31.4995  -30.0187   19.9858 O   0  0  0  0  0  0  0  0  0  0  0  0
  -24.5843  -17.2024   20.2704 O   0  0  0  0  0  0  0  0  0  0  0  0
  -21.8954  -14.5638   20.2232 O   0  0  0  0  0  0  0  0  0  0  0  0
  -24.4164  -11.5902   22.9293 O   0  0  0  0  0  0  0  0  0  0  0  0
  -29.5189  -20.3934   20.0430 O   0  0  0  0  0  0  0  0  0  0  0  0
  -24.0210  -31.2339   21.7694 O   0  0  0  0  0  0  0  0  0  0  0  0
  -30.3451  -14.0088   20.6157 O   0  0  0  0  0  0  0  0  0  1  0  0
  -24.7690  -34.6782   26.0098 F   0  0  0  0  0  0  0  0  0  0  0  0
  -22.4940  -31.0121   24.0632 F   0  0  0  0  0  0  0  0  0  0  0  0
  1  2  1  0  0  0  0
  1  5  2  0  0  0  0
  2  6  2  0  0  0  0
  3  8  2  0  0  0  0
  3 17  1  0  0  0  0
  4  9  1  0  0  0  0
  4 17  2  0  0  0  0
  5 20  1  0  0  0  0
  6 22  1  0  0  0  0
  7 10  2  0  0  0  0
  7 21  1  0  0  0  0
  8 27  1  0  0  0  0
  9 27  2  0  0  0  0
 10 28  1  0  0  0  0
 11 12  2  0  0  0  0
 11 29  1  0  0  0  0
 12 30  1  0  0  0  0
 13 18  1  0  0  0  0
 13 26  2  0  0  0  0
 14 23  1  0  0  0  0
 14 28  2  0  0  0  0
 15 24  1  0  0  0  0
 15 25  2  0  0  0  0
 16 30  2  0  0  0  0
 16 31  1  0  0  0  0
 17 32  1  0  0  0  0
 18 24  2  0  0  0  0
 18 34  1  0  0  0  0
 19 32  1  0  0  0  0
 19 33  2  0  0  0  0
 19 35  1  0  0  0  0
 20 22  2  0  0  0  0
 20 40  1  0  0  0  0
 21 23  2  0  0  0  0
 21 41  1  0  0  0  0
 22 49  1  0  0  0  0
 23 42  1  0  0  0  0
 24 52  1  0  0  0  0
 25 26  1  0  0  0  0
 25 53  1  0  0  0  0
 26 71  1  0  0  0  0
 27 82  1  0  0  0  0
 28 83  1  0  0  0  0
 29 31  2  0  0  0  0
 29 82  1  0  0  0  0
 30 84  1  0  0  0  0
 31 85  1  0  0  0  0
 32 65  2  0  0  0  0
 33 66  1  0  0  0  0
 33 69  1  0  0  0  0
 34 72  1  0  0  0  0
 34 76  2  0  0  0  0
 35 70  1  0  0  0  0
 35 77  2  0  0  0  0
 36 50  1  0  0  0  0
 36 73  1  0  0  0  0
 36 78  2  0  0  0  0
 37 62  1  0  0  0  0
 37 67  1  0  0  0  0
 37 79  2  0  0  0  0
 38 63  1  0  0  0  0
 38 74  1  0  0  0  0
 38 80  2  0  0  0  0
 39 68  1  0  0  0  0
 39 71  1  0  0  0  0
 39 81  2  0  0  0  0
 40 43  1  0  0  0  0
 41 50  1  0  0  0  0
 42 67  1  0  0  0  0
 43 45  1  0  0  0  0
 44 46  1  0  0  0  0
 44 47  1  0  0  0  0
 45 49  1  0  0  0  0
 46 51  1  0  0  0  0
 47 68  1  0  0  0  0
 48 51  1  0  0  0  0
 48 68  1  0  0  0  0
 49 73  1  0  0  0  0
 50 67  1  0  0  0  0
 51 66  1  0  0  0  0
 54 63  1  0  0  0  0
 55 64  1  0  0  0  0
 56 64  1  0  0  0  0
 57 64  1  0  0  0  0
 58 75  1  0  0  0  0
 59 60  1  0  0  0  0
 59 61  1  0  0  0  0
 60 72  1  0  0  0  0
 61 83  1  0  0  0  0
 62 64  1  0  0  0  0
 62 74  1  0  0  0  0
 63 75  1  0  0  0  0
 65 66  1  0  0  0  0
M  CHG  1  75   1
M  ISO  4  39 100  61 101  71 100  83 101
M  END
> <Batch ID>
0034

> <Smiles>
CNC(C)C(=O)NC(C(=O)N1Cc2cc([101O:1][101CH2:1]CCNC(=O)c3cc([100NH:0][100C:0](=O)N4CCCC(n5nc(-c6ccc(Oc7ccc(F)cc7F)cc6)c(C(N)=O)c5N)C4)c(C)cc3C)ccc2CC1C(=O)NC1CCCc2ccccc21)C(C)(C)C

> <Shape>
0.237

> <Color>
0.069

> <Negative vol penalty>
0.000

$$$$

  -OEChem-04042321483D

 87 96  0     1  0  0  0  0  0999 V2000
  -20.8905  -33.2309   23.1874 C   0  0  0  0  0  0  0  0  0  0  0  0
  -21.5299  -33.1096   21.9579 C   0  0  0  0  0  0  0  0  0  0  0  0
  -22.7255  -10.0976   20.1353 C   0  0  0  0  0  0  0  0  0  0  0  0
  -24.3388   -9.4551   21.8150 C   0  0  0  0  0  0  0  0  0  0  0  0
  -21.5501  -32.8507   24.3555 C   0  0  0  0  0  0  0  0  0  0  0  0
  -22.8299  -32.6090   21.8958 C   0  0  0  0  0  0  0  0  0  0  0  0
  -25.6706  -26.5553   17.8572 C   0  0  0  0  0  0  0  0  0  0  0  0
  -22.0270   -8.9098   20.3518 C   0  0  0  0  0  0  0  0  0  0  0  0
  -23.6403   -8.2673   22.0315 C   0  0  0  0  0  0  0  0  0  0  0  0
  -26.2580  -25.4122   17.3145 C   0  0  0  0  0  0  0  0  0  0  0  0
  -20.8616   -7.2789   23.6814 C   0  0  0  0  0  0  0  0  0  0  0  0
  -20.6392   -6.8912   25.0027 C   0  0  0  0  0  0  0  0  0  0  0  0
  -27.8878  -25.3885   19.1008 C   0  0  0  0  0  0  0  0  0  0  0  0
  -31.1319  -19.6498   19.3220 C   0  0  0  0  0  0  0  0  0  0  0  0
  -21.8589   -4.8435   24.6070 C   0  0  0  0  0  0  0  0  0  0  0  0
  -23.8814  -10.3703   20.8669 C   0  0  0  0  0  0  0  0  0  0  0  0
  -24.1201  -12.9093   20.8031 C   0  0  0  0  0  0  0  0  0  0  0  0
  -22.8553  -32.3361   24.3067 C   0  0  0  0  0  0  0  0  0  0  0  0
  -26.1808  -27.1111   19.0337 C   0  0  0  0  0  0  0  0  0  0  0  0
  -23.5081  -32.2228   23.0644 C   0  0  0  0  0  0  0  0  0  0  0  0
  -27.2959  -26.5262   19.6560 C   0  0  0  0  0  0  0  0  0  0  0  0
  -29.0785  -18.8168   21.0168 C   0  0  0  0  0  0  0  0  0  0  0  0
  -28.8595  -19.8585   20.1154 C   0  0  0  0  0  0  0  0  0  0  0  0
  -30.3243  -18.1916   21.0709 C   0  0  0  0  0  0  0  0  0  0  0  0
  -29.8862  -20.2749   19.2679 C   0  0  0  0  0  0  0  0  0  0  0  0
  -22.4844   -7.9946   21.2999 C   0  0  0  0  0  0  0  0  0  0  0  0
  -27.3640  -24.8305   17.9347 C   0  0  0  0  0  0  0  0  0  0  0  0
  -21.5825   -6.4489   22.8228 C   0  0  0  0  0  0  0  0  0  0  0  0
  -21.1379   -5.6735   25.4655 C   0  0  0  0  0  0  0  0  0  0  0  0
  -31.3510  -18.6081   20.2235 C   0  0  0  0  0  0  0  0  0  0  0  0
  -22.0812   -5.2312   23.2857 C   0  0  0  0  0  0  0  0  0  0  0  0
  -24.6036  -11.5968   20.6434 C   0  0  0  0  0  0  0  0  0  0  0  0
  -25.1846  -13.7104   20.4690 C   0  0  0  0  0  0  0  0  0  0  0  0
  -29.7935  -21.2961   16.9654 C   0  0  0  0  0  0  0  0  0  0  0  0
  -29.7068  -20.2695   16.1073 C   0  0  0  0  0  0  0  0  0  0  0  0
  -22.8246  -13.3636   21.2166 C   0  0  0  0  0  0  0  0  0  0  0  0
  -25.9047  -29.8012   21.6343 C   0  0  0  0  0  0  0  0  0  0  0  0
  -26.5791  -27.1990   23.1122 C   0  0  0  0  0  0  0  0  0  0  0  0
  -26.9073  -24.0550   24.3947 C   0  0  0  0  0  0  0  0  0  0  0  0
  -30.6190  -14.9493   20.7470 C   0  0  0  0  0  0  0  0  0  0  0  0
  -23.5451  -31.9827   25.6005 C   0  0  0  0  0  0  0  0  0  0  0  0
  -25.6181  -28.3773   19.6201 C   0  0  0  0  0  0  0  0  0  0  0  0
  -27.8321  -27.1786   20.9009 C   0  0  0  0  0  0  0  0  0  0  0  0
  -29.9289  -22.7176   16.4644 C   0  0  0  0  0  0  0  0  0  0  0  0
  -24.7838  -31.1108   25.4119 C   0  0  0  0  0  0  0  0  0  0  0  0
  -29.6087  -12.5709   18.2976 C   0  0  0  0  0  0  0  0  0  0  0  0
  -25.6592  -31.6623   24.2910 C   0  0  0  0  0  0  0  0  0  0  0  0
  -28.1796  -12.2094   18.7064 C   0  0  0  0  0  0  0  0  0  0  0  0
  -30.5019  -12.8038   19.5142 C   0  0  0  0  0  0  0  0  0  0  0  0
  -28.5555  -13.4269   20.8916 C   0  0  0  0  0  0  0  0  0  0  0  0
  -29.5722  -22.6971   18.8717 C   0  0  0  0  0  0  0  0  0  0  0  0
  -24.9089  -31.6609   22.9536 C   0  0  1  0  0  0  0  0  0  0  0  0
  -25.6580  -28.3997   21.1586 C   0  0  1  0  0  0  0  0  0  0  0  0
  -27.6032  -13.2374   19.6985 C   0  0  2  0  0  0  0  0  0  0  0  0
  -29.3281  -23.5320   17.6093 C   0  0  2  0  0  0  0  0  0  1  0  0
  -27.9794  -18.3677   21.9271 C   0  0  0  0  0  0  0  0  0  0  0  0
  -27.5227  -20.5294   20.0589 C   0  0  0  0  0  0  0  0  0  0  0  0
  -27.1407  -22.8305   26.5726 C   0  0  0  0  0  0  0  0  0  0  0  0
  -29.4934  -28.0814   23.2918 C   0  0  0  0  0  0  0  0  0  0  0  0
  -29.9065  -26.1574   24.8397 C   0  0  0  0  0  0  0  0  0  0  0  0
  -28.3038  -27.9556   25.4881 C   0  0  0  0  0  0  0  0  0  0  0  0
  -24.4011  -22.5456   23.9478 C   0  0  0  0  0  0  0  0  0  0  0  0
  -30.5816  -17.0742   22.0285 C   0  0  0  0  0  0  0  0  0  0  0  0
  -27.6558  -26.3101   23.6814 C   0  0  1  0  0  0  0  0  0  0  0  0
  -26.1736  -23.3429   25.5167 C   0  0  2  0  0  0  0  0  0  0  0  0
  -28.8292  -27.1217   24.2992 C   0  0  0  0  0  0  0  0  0  0  0  0
  -25.8762  -11.5618   20.2391 N   0  0  0  0  0  0  0  0  0  0  0  0
  -26.2012  -12.8622   20.1419 N   0  0  0  0  0  0  0  0  0  0  0  0
  -29.6861  -21.3263   18.3512 N   0  0  0  0  0  0  0  0  0  0  0  0
  -26.7198  -27.5854   21.7738 N   0  0  0  0  0  0  0  0  0  0  0  0
  -29.8990  -13.7900   20.4141 N   0  0  0  0  0  0  0  0  0  0  0  0
  -25.3407  -15.0506   20.4261 N   0  0  0  0  0  0  0  0  0  0  0  0
  -22.5938  -13.5697   22.5836 N   0  0  0  0  0  0  0  0  0  0  0  0
  -24.8768  -30.3268   22.3935 N   0  0  0  0  0  0  0  0  0  0  0  0
  -26.9905  -25.4128   24.6198 N   0  0  0  0  0  0  0  0  0  0  0  0
  -29.9723  -15.8348   21.6004 N   0  0  0  0  0  0  0  0  0  0  0  0
  -25.4063  -22.1835   24.9800 N   0  3  0  0  0  0  0  0  0  0  0  0
  -21.8941  -13.5646   20.3997 O   0  0  0  0  0  0  0  0  0  0  0  0
  -26.9513  -30.3649   21.3364 O   0  0  0  0  0  0  0  0  0  0  0  0
  -25.6406  -27.5475   23.8341 O   0  0  0  0  0  0  0  0  0  0  0  0
  -27.3644  -23.4652   23.4181 O   0  0  0  0  0  0  0  0  0  0  0  0
  -31.7520  -15.1807   20.3113 O   0  0  0  0  0  0  0  0  0  0  0  0
  -21.8030   -6.8356   21.5115 O   0  0  0  0  0  0  0  0  0  0  0  0
  -27.9297  -23.7120   17.4020 O   0  0  0  0  0  0  0  0  0  1  0  0
  -20.9257   -5.3020   26.7348 F   0  0  0  0  0  0  0  0  0  0  0  0
  -32.5512  -18.0128   20.2662 F   0  0  0  0  0  0  0  0  0  0  0  0
  -22.7755   -4.4301   22.4659 F   0  0  0  0  0  0  0  0  0  0  0  0
  1  2  1  0  0  0  0
  1  5  2  0  0  0  0
  2  6  2  0  0  0  0
  3  8  2  0  0  0  0
  3 16  1  0  0  0  0
  4  9  1  0  0  0  0
  4 16  2  0  0  0  0
  5 18  1  0  0  0  0
  6 20  1  0  0  0  0
  7 10  2  0  0  0  0
  7 19  1  0  0  0  0
  8 26  1  0  0  0  0
  9 26  2  0  0  0  0
 10 27  1  0  0  0  0
 11 12  2  0  0  0  0
 11 28  1  0  0  0  0
 12 29  1  0  0  0  0
 13 21  1  0  0  0  0
 13 27  2  0  0  0  0
 14 25  1  0  0  0  0
 14 30  2  0  0  0  0
 15 29  2  0  0  0  0
 15 31  1  0  0  0  0
 16 32  1  0  0  0  0
 17 32  1  0  0  0  0
 17 33  2  0  0  0  0
 17 36  1  0  0  0  0
 18 20  2  0  0  0  0
 18 41  1  0  0  0  0
 19 21  2  0  0  0  0
 19 42  1  0  0  0  0
 20 52  1  0  0  0  0
 21 43  1  0  0  0  0
 22 23  1  0  0  0  0
 22 24  2  0  0  0  0
 22 56  1  0  0  0  0
 23 25  2  0  0  0  0
 23 57  1  0  0  0  0
 24 30  1  0  0  0  0
 24 63  1  0  0  0  0
 25 69  1  0  0  0  0
 26 83  1  0  0  0  0
 27 84  1  0  0  0  0
 28 31  2  0  0  0  0
 28 83  1  0  0  0  0
 29 85  1  0  0  0  0
 30 86  1  0  0  0  0
 31 87  1  0  0  0  0
 32 67  2  0  0  0  0
 33 68  1  0  0  0  0
 33 72  1  0  0  0  0
 34 35  2  0  0  0  0
 34 44  1  0  0  0  0
 34 69  1  0  0  0  0
 36 73  1  0  0  0  0
 36 78  2  0  0  0  0
 37 53  1  0  0  0  0
 37 74  1  0  0  0  0
 37 79  2  0  0  0  0
 38 64  1  0  0  0  0
 38 70  1  0  0  0  0
 38 80  2  0  0  0  0
 39 65  1  0  0  0  0
 39 75  1  0  0  0  0
 39 81  2  0  0  0  0
 40 71  1  0  0  0  0
 40 76  1  0  0  0  0
 40 82  2  0  0  0  0
 41 45  1  0  0  0  0
 42 53  1  0  0  0  0
 43 70  1  0  0  0  0
 44 55  1  0  0  0  0
 45 47  1  0  0  0  0
 46 48  1  0  0  0  0
 46 49  1  0  0  0  0
 47 52  1  0  0  0  0
 48 54  1  0  0  0  0
 49 71  1  0  0  0  0
 50 54  1  0  0  0  0
 50 71  1  0  0  0  0
 51 55  1  0  0  0  0
 51 69  1  0  0  0  0
 52 74  1  0  0  0  0
 53 70  1  0  0  0  0
 54 68  1  0  0  0  0
 55 84  1  0  0  0  0
 58 65  1  0  0  0  0
 59 66  1  0  0  0  0
 60 66  1  0  0  0  0
 61 66  1  0  0  0  0
 62 77  1  0  0  0  0
 63 76  1  0  0  0  0
 64 66  1  0  0  0  0
 64 75  1  0  0  0  0
 65 77  1  0  0  0  0
 67 68  1  0  0  0  0
M  CHG  1  77   1
M  ISO  4  40 100  55 101  76 100  84 101
M  END
> <Batch ID>
0034

> <Smiles>
C=C1C[101CH:1]([101O:1]c2ccc3c(c2)CN(C(=O)C(NC(=O)C(C)NC)C(C)(C)C)C(C(=O)NC2CCCc4ccccc42)C3)CN1c1cc(F)c(C[100NH:0][100C:0](=O)N2CCCC(n3nc(-c4ccc(Oc5ccc(F)cc5F)cc4)c(C(N)=O)c3N)C2)c(C)c1C

> <Shape>
0.337

> <Color>
0.190

> <Negative vol penalty>
0.000

$$$$

  -OEChem-04042321483D

 84 92  0     1  0  0  0  0  0999 V2000
  -32.6603  -31.4316   18.5962 C   0  0  0  0  0  0  0  0  0  0  0  0
  -31.7988  -30.4671   18.0834 C   0  0  0  0  0  0  0  0  0  0  0  0
  -26.4647  -12.6786   21.4945 C   0  0  0  0  0  0  0  0  0  0  0  0
  -26.1894  -13.3835   19.2000 C   0  0  0  0  0  0  0  0  0  0  0  0
  -32.7334  -31.6380   19.9732 C   0  0  0  0  0  0  0  0  0  0  0  0
  -31.0106  -29.7076   18.9474 C   0  0  0  0  0  0  0  0  0  0  0  0
  -26.2262  -29.2811   17.3436 C   0  0  0  0  0  0  0  0  0  0  0  0
  -25.1975  -12.0964   21.4677 C   0  0  0  0  0  0  0  0  0  0  0  0
  -24.9222  -12.8013   19.1732 C   0  0  0  0  0  0  0  0  0  0  0  0
  -25.9762  -28.3655   16.3224 C   0  0  0  0  0  0  0  0  0  0  0  0
  -23.7848   -9.2577   20.2933 C   0  0  0  0  0  0  0  0  0  0  0  0
  -23.6469   -7.9799   20.8353 C   0  0  0  0  0  0  0  0  0  0  0  0
  -25.1819  -26.7740   17.9519 C   0  0  0  0  0  0  0  0  0  0  0  0
  -29.2442  -22.2963   18.1910 C   0  0  0  0  0  0  0  0  0  0  0  0
  -29.0553  -20.5232   16.5608 C   0  0  0  0  0  0  0  0  0  0  0  0
  -22.0440   -8.8296   22.4308 C   0  0  0  0  0  0  0  0  0  0  0  0
  -26.9607  -13.3223   20.3606 C   0  0  0  0  0  0  0  0  0  0  0  0
  -28.4967  -22.7924   15.9478 C   0  0  0  0  0  0  0  0  0  0  0  0
  -29.4931  -13.3141   20.0534 C   0  0  0  0  0  0  0  0  0  0  0  0
  -31.9387  -30.8873   20.8539 C   0  0  0  0  0  0  0  0  0  0  0  0
  -25.9657  -28.9455   18.6800 C   0  0  0  0  0  0  0  0  0  0  0  0
  -31.0742  -29.9032   20.3375 C   0  0  0  0  0  0  0  0  0  0  0  0
  -25.4270  -27.6881   18.9880 C   0  0  0  0  0  0  0  0  0  0  0  0
  -28.8089  -23.2180   17.2389 C   0  0  0  0  0  0  0  0  0  0  0  0
  -29.3675  -20.9488   17.8519 C   0  0  0  0  0  0  0  0  0  0  0  0
  -24.4262  -12.1577   20.3071 C   0  0  0  0  0  0  0  0  0  0  0  0
  -25.4567  -27.1107   16.6267 C   0  0  0  0  0  0  0  0  0  0  0  0
  -23.0523  -10.3216   20.8201 C   0  0  0  0  0  0  0  0  0  0  0  0
  -22.7765   -7.7658   21.9040 C   0  0  0  0  0  0  0  0  0  0  0  0
  -28.6199  -21.4449   15.6087 C   0  0  0  0  0  0  0  0  0  0  0  0
  -22.1819  -10.1075   21.8889 C   0  0  0  0  0  0  0  0  0  0  0  0
  -28.2694  -13.9244   20.3879 C   0  0  0  0  0  0  0  0  0  0  0  0
  -30.4312  -14.2993   20.2426 C   0  0  0  0  0  0  0  0  0  0  0  0
  -28.0341  -23.7538   14.9269 C   0  0  0  0  0  0  0  0  0  0  0  0
  -29.7581  -11.9763   19.6110 C   0  0  0  0  0  0  0  0  0  0  0  0
  -27.7336  -28.6557   21.3057 C   0  0  0  0  0  0  0  0  0  0  0  0
  -24.8505  -28.2300   22.7300 C   0  0  0  0  0  0  0  0  0  0  0  0
  -21.5779  -27.3101   22.4288 C   0  0  0  0  0  0  0  0  0  0  0  0
  -30.1597  -20.2677   20.1442 C   0  0  0  0  0  0  0  0  0  0  0  0
  -32.0870  -31.1135   22.3376 C   0  0  0  0  0  0  0  0  0  0  0  0
  -26.2158  -29.9541   19.7675 C   0  0  0  0  0  0  0  0  0  0  0  0
  -25.1108  -27.2862   20.4047 C   0  0  0  0  0  0  0  0  0  0  0  0
  -30.9435  -30.5259   23.1606 C   0  0  0  0  0  0  0  0  0  0  0  0
  -31.2597  -18.2304   22.8492 C   0  0  0  0  0  0  0  0  0  0  0  0
  -30.6353  -29.1027   22.7065 C   0  0  0  0  0  0  0  0  0  0  0  0
  -30.7343  -16.8382   22.4915 C   0  0  0  0  0  0  0  0  0  0  0  0
  -30.2790  -19.3286   22.4418 C   0  0  0  0  0  0  0  0  0  0  0  0
  -29.3233  -17.8953   20.6807 C   0  0  0  0  0  0  0  0  0  0  0  0
  -30.1851  -29.0765   21.2409 C   0  0  1  0  0  0  0  0  0  0  0  0
  -26.3950  -29.3182   21.1425 C   0  0  1  0  0  0  0  0  0  0  0  0
  -30.3057  -16.7603   21.0130 C   0  0  2  0  0  0  0  0  0  0  0  0
  -28.6853  -24.6555   17.6260 C   0  0  0  0  0  0  0  0  0  0  0  0
  -19.4788  -27.0290   23.7750 C   0  0  0  0  0  0  0  0  0  0  0  0
  -25.9534  -25.6386   23.9041 C   0  0  0  0  0  0  0  0  0  0  0  0
  -23.6014  -24.9526   24.4192 C   0  0  0  0  0  0  0  0  0  0  0  0
  -24.5655  -26.9921   25.4840 C   0  0  0  0  0  0  0  0  0  0  0  0
  -20.1355  -29.3302   20.8171 C   0  0  0  0  0  0  0  0  0  0  0  0
  -26.1407  -24.9111   13.8443 C   0  0  0  0  0  0  0  0  0  0  0  0
  -26.0454  -26.2854   14.4754 C   0  0  0  0  0  0  0  0  0  1  0  0
  -23.9703  -27.0401   23.0273 C   0  0  1  0  0  0  0  0  0  0  0  0
  -20.2977  -27.9714   22.9066 C   0  0  2  0  0  0  0  0  0  0  0  0
  -24.5303  -26.1624   24.1820 C   0  0  0  0  0  0  0  0  0  0  0  0
  -28.4138  -15.1986   20.7615 N   0  0  0  0  0  0  0  0  0  0  0  0
  -29.7394  -15.3970   20.6629 N   0  0  0  0  0  0  0  0  0  0  0  0
  -25.3787  -28.3048   21.4334 N   0  0  0  0  0  0  0  0  0  0  0  0
  -29.9215  -19.1939   21.0280 N   0  0  0  0  0  0  0  0  0  0  0  0
  -31.7721  -14.3250   20.0888 N   0  0  0  0  0  0  0  0  0  0  0  0
  -28.9506  -24.3477   14.1624 N   0  0  0  0  0  0  0  0  0  0  0  0
  -28.6790  -11.0931   19.4700 N   0  0  0  0  0  0  0  0  0  0  0  0
  -29.8095  -20.0121   18.8188 N   0  0  0  0  0  0  0  0  0  0  0  0
  -28.8079  -29.5064   21.1275 N   0  0  0  0  0  0  0  0  0  0  0  0
  -22.6346  -27.5722   23.2750 N   0  0  0  0  0  0  0  0  0  0  0  0
  -26.7201  -23.9841   14.8195 N   0  3  0  0  0  0  0  0  0  0  0  0
  -19.4623  -28.3837   21.7433 N   0  3  0  0  0  0  0  0  0  0  0  0
  -30.9193  -11.5710   19.3644 O   0  0  0  0  0  0  0  0  0  0  0  0
  -27.7879  -27.4614   21.5747 O   0  0  0  0  0  0  0  0  0  0  0  0
  -25.0559  -29.0660   23.6134 O   0  0  0  0  0  0  0  0  0  0  0  0
  -21.6340  -26.6262   21.4092 O   0  0  0  0  0  0  0  0  0  0  0  0
  -30.6644  -21.3255   20.5294 O   0  0  0  0  0  0  0  0  0  0  0  0
  -23.1897  -11.5894   20.2805 O   0  0  0  0  0  0  0  0  0  0  0  0
  -25.2124  -26.2149   15.6319 O   0  0  0  0  0  0  0  0  0  1  0  0
  -22.6430   -6.5384   22.4234 F   0  0  0  0  0  0  0  0  0  0  0  0
  -28.3224  -21.0254   14.3707 F   0  0  0  0  0  0  0  0  0  0  0  0
  -21.4747  -11.1253   22.3985 F   0  0  0  0  0  0  0  0  0  0  0  0
  1  2  1  0  0  0  0
  1  5  2  0  0  0  0
  2  6  2  0  0  0  0
  3  8  2  0  0  0  0
  3 17  1  0  0  0  0
  4  9  1  0  0  0  0
  4 17  2  0  0  0  0
  5 20  1  0  0  0  0
  6 22  1  0  0  0  0
  7 10  2  0  0  0  0
  7 21  1  0  0  0  0
  8 26  1  0  0  0  0
  9 26  2  0  0  0  0
 10 27  1  0  0  0  0
 11 12  2  0  0  0  0
 11 28  1  0  0  0  0
 12 29  1  0  0  0  0
 13 23  1  0  0  0  0
 13 27  2  0  0  0  0
 14 24  2  0  0  0  0
 14 25  1  0  0  0  0
 15 25  2  0  0  0  0
 15 30  1  0  0  0  0
 16 29  2  0  0  0  0
 16 31  1  0  0  0  0
 17 32  1  0  0  0  0
 18 24  1  0  0  0  0
 18 30  2  0  0  0  0
 18 34  1  0  0  0  0
 19 32  1  0  0  0  0
 19 33  2  0  0  0  0
 19 35  1  0  0  0  0
 20 22  2  0  0  0  0
 20 40  1  0  0  0  0
 21 23  2  0  0  0  0
 21 41  1  0  0  0  0
 22 49  1  0  0  0  0
 23 42  1  0  0  0  0
 24 52  1  0  0  0  0
 25 70  1  0  0  0  0
 26 80  1  0  0  0  0
 27 81  1  0  0  0  0
 28 31  2  0  0  0  0
 28 80  1  0  0  0  0
 29 82  1  0  0  0  0
 30 83  1  0  0  0  0
 31 84  1  0  0  0  0
 32 63  2  0  0  0  0
 33 64  1  0  0  0  0
 33 67  1  0  0  0  0
 34 68  1  0  0  0  0
 34 73  2  0  0  0  0
 35 69  1  0  0  0  0
 35 75  2  0  0  0  0
 36 50  1  0  0  0  0
 36 71  1  0  0  0  0
 36 76  2  0  0  0  0
 37 60  1  0  0  0  0
 37 65  1  0  0  0  0
 37 77  2  0  0  0  0
 38 61  1  0  0  0  0
 38 72  1  0  0  0  0
 38 78  2  0  0  0  0
 39 66  1  0  0  0  0
 39 70  1  0  0  0  0
 39 79  2  0  0  0  0
 40 43  1  0  0  0  0
 41 50  1  0  0  0  0
 42 65  1  0  0  0  0
 43 45  1  0  0  0  0
 44 46  1  0  0  0  0
 44 47  1  0  0  0  0
 45 49  1  0  0  0  0
 46 51  1  0  0  0  0
 47 66  1  0  0  0  0
 48 51  1  0  0  0  0
 48 66  1  0  0  0  0
 49 71  1  0  0  0  0
 50 65  1  0  0  0  0
 51 64  1  0  0  0  0
 53 61  1  0  0  0  0
 54 62  1  0  0  0  0
 55 62  1  0  0  0  0
 56 62  1  0  0  0  0
 57 74  1  0  0  0  0
 58 59  1  0  0  0  0
 58 73  1  0  0  0  0
 59 81  1  0  0  0  0
 60 62  1  0  0  0  0
 60 72  1  0  0  0  0
 61 74  1  0  0  0  0
 63 64  1  0  0  0  0
M  CHG  2  73   1  74   1
M  ISO  4  39 100  59 101  70 100  81 101
M  END
> <Batch ID>
0034

> <Smiles>
CNC(C)C(=O)NC(C(=O)N1Cc2cc([101O:1][101CH2:1]CNC(=N)c3c(C)cc([100NH:0][100C:0](=O)N4CCCC(n5nc(-c6ccc(Oc7ccc(F)cc7F)cc6)c(C(N)=O)c5N)C4)cc3F)ccc2CC1C(=O)NC1CCCc2ccccc21)C(C)(C)C

> <Shape>
0.237

> <Color>
0.066

> <Negative vol penalty>
0.000

$$$$

  -OEChem-04042321483D

 78 86  0     1  0  0  0  0  0999 V2000
  -33.7698  -27.0373   13.4815 C   0  0  0  0  0  0  0  0  0  0  0  0
  -33.2802  -25.9521   14.2013 C   0  0  0  0  0  0  0  0  0  0  0  0
  -23.2586  -10.2089   22.2116 C   0  0  0  0  0  0  0  0  0  0  0  0
  -23.5792   -9.4621   19.9365 C   0  0  0  0  0  0  0  0  0  0  0  0
  -34.1775  -28.1899   14.1517 C   0  0  0  0  0  0  0  0  0  0  0  0
  -33.1991  -26.0185   15.5918 C   0  0  0  0  0  0  0  0  0  0  0  0
  -28.9144  -23.4788   19.1551 C   0  0  0  0  0  0  0  0  0  0  0  0
  -22.5188   -9.0585   22.4851 C   0  0  0  0  0  0  0  0  0  0  0  0
  -22.8394   -8.3116   20.2099 C   0  0  0  0  0  0  0  0  0  0  0  0
  -28.8912  -22.2999   19.8990 C   0  0  0  0  0  0  0  0  0  0  0  0
  -23.1346   -5.8039   23.1644 C   0  0  0  0  0  0  0  0  0  0  0  0
  -23.4076   -5.1246   24.3516 C   0  0  0  0  0  0  0  0  0  0  0  0
  -29.5363  -23.5363   21.8673 C   0  0  0  0  0  0  0  0  0  0  0  0
  -21.1261   -5.4640   25.0705 C   0  0  0  0  0  0  0  0  0  0  0  0
  -23.7887  -10.4108   20.9373 C   0  0  0  0  0  0  0  0  0  0  0  0
  -24.1148  -12.9339   20.7495 C   0  0  0  0  0  0  0  0  0  0  0  0
  -34.0923  -28.2742   15.5503 C   0  0  0  0  0  0  0  0  0  0  0  0
  -29.2600  -24.6956   19.7603 C   0  0  0  0  0  0  0  0  0  0  0  0
  -33.6073  -27.1729   16.2813 C   0  0  0  0  0  0  0  0  0  0  0  0
  -29.5607  -24.7297   21.1294 C   0  0  0  0  0  0  0  0  0  0  0  0
  -22.3092   -8.1098   21.4842 C   0  0  0  0  0  0  0  0  0  0  0  0
  -29.2050  -22.3281   21.2547 C   0  0  0  0  0  0  0  0  0  0  0  0
  -21.8573   -6.3134   22.9302 C   0  0  0  0  0  0  0  0  0  0  0  0
  -22.4034   -4.9546   25.3047 C   0  0  0  0  0  0  0  0  0  0  0  0
  -20.8531   -6.1434   23.8833 C   0  0  0  0  0  0  0  0  0  0  0  0
  -24.5525  -11.5993   20.6541 C   0  0  0  0  0  0  0  0  0  0  0  0
  -25.2058  -13.6805   20.3767 C   0  0  0  0  0  0  0  0  0  0  0  0
  -22.8365  -13.4524   21.1403 C   0  0  0  0  0  0  0  0  0  0  0  0
  -30.7005  -14.6794   20.6929 C   0  0  0  0  0  0  0  0  0  0  0  0
  -31.5902  -26.8195   19.3569 C   0  0  0  0  0  0  0  0  0  0  0  0
  -29.8887  -28.5187   21.5341 C   0  0  0  0  0  0  0  0  0  0  0  0
  -27.6765  -29.6922   23.4418 C   0  0  0  0  0  0  0  0  0  0  0  0
  -34.5893  -29.5233   16.2340 C   0  0  0  0  0  0  0  0  0  0  0  0
  -29.2543  -25.9628   18.9499 C   0  0  0  0  0  0  0  0  0  0  0  0
  -29.9184  -26.0135   21.8311 C   0  0  0  0  0  0  0  0  0  0  0  0
  -34.1205  -29.6533   17.6809 C   0  0  0  0  0  0  0  0  0  0  0  0
  -30.6247  -17.3998   23.4928 C   0  0  0  0  0  0  0  0  0  0  0  0
  -29.5779  -12.3053   18.2550 C   0  0  0  0  0  0  0  0  0  0  0  0
  -34.3132  -28.3357   18.4250 C   0  0  0  0  0  0  0  0  0  0  0  0
  -31.1192  -16.3270   22.5244 C   0  0  0  0  0  0  0  0  0  0  0  0
  -29.2715  -16.7407   20.7748 C   0  0  0  0  0  0  0  0  0  0  0  0
  -30.3050  -18.7205   22.7994 C   0  0  0  0  0  0  0  0  0  0  0  0
  -28.2922  -17.5808   21.5967 C   0  0  0  0  0  0  0  0  0  0  0  0
  -28.1450  -11.9970   18.6874 C   0  0  0  0  0  0  0  0  0  0  0  0
  -30.4841  -12.5481   19.4579 C   0  0  0  0  0  0  0  0  0  0  0  0
  -28.5610  -13.3087   20.8161 C   0  0  0  0  0  0  0  0  0  0  0  0
  -33.4808  -27.2160   17.7887 C   0  0  1  0  0  0  0  0  0  0  0  0
  -30.0446  -15.7127   21.6175 C   0  0  1  0  0  0  0  0  0  0  0  0
  -30.1208  -27.0629   19.5551 C   0  0  1  0  0  0  0  0  0  0  0  0
  -28.8796  -18.8292   22.2584 C   0  0  2  0  0  0  0  0  0  0  0  0
  -27.6055  -13.0871   19.6302 C   0  0  2  0  0  0  0  0  0  0  0  0
  -27.4464  -32.1093   22.8078 C   0  0  0  0  0  0  0  0  0  0  0  0
  -32.1643  -27.4414   23.2577 C   0  0  0  0  0  0  0  0  0  0  0  0
  -31.2262  -28.7373   25.1835 C   0  0  0  0  0  0  0  0  0  0  0  0
  -32.0293  -29.9362   23.1487 C   0  0  0  0  0  0  0  0  0  0  0  0
  -27.1461  -30.4958   26.2403 C   0  0  0  0  0  0  0  0  0  0  0  0
  -28.8311  -19.9797   21.2941 C   0  0  0  0  0  0  0  0  0  1  0  0
  -29.8756  -28.6164   23.0405 C   0  0  1  0  0  0  0  0  0  0  0  0
  -27.0519  -31.0281   23.8018 C   0  0  2  0  0  0  0  0  0  0  0  0
  -31.3078  -28.6638   23.6438 C   0  0  0  0  0  0  0  0  0  0  0  0
  -25.8224  -11.5006   20.2520 N   0  0  0  0  0  0  0  0  0  0  0  0
  -26.1920  -12.7826   20.0914 N   0  0  0  0  0  0  0  0  0  0  0  0
  -29.9258  -13.5741   20.3404 N   0  0  0  0  0  0  0  0  0  0  0  0
  -29.9051  -27.2248   20.9944 N   0  0  0  0  0  0  0  0  0  0  0  0
  -25.4080  -15.0108   20.2683 N   0  0  0  0  0  0  0  0  0  0  0  0
  -21.8664  -13.6551   20.1492 N   0  0  0  0  0  0  0  0  0  0  0  0
  -32.0919  -27.3356   18.1773 N   0  0  0  0  0  0  0  0  0  0  0  0
  -29.0509  -29.7746   23.3673 N   0  0  0  0  0  0  0  0  0  0  0  0
  -27.4907  -31.4558   25.1603 N   0  3  0  0  0  0  0  0  0  0  0  0
  -22.5682  -13.7432   22.3306 O   0  0  0  0  0  0  0  0  0  0  0  0
  -31.8572  -14.8658   20.3064 O   0  0  0  0  0  0  0  0  0  0  0  0
  -32.2224  -26.2100   20.2117 O   0  0  0  0  0  0  0  0  0  0  0  0
  -29.8774  -29.5524   20.8609 O   0  0  0  0  0  0  0  0  0  0  0  0
  -27.0120  -28.6763   23.2498 O   0  0  0  0  0  0  0  0  0  0  0  0
  -21.5876   -6.9869   21.7507 O   0  0  0  0  0  0  0  0  0  0  0  0
  -29.1837  -21.1787   21.9829 O   0  0  0  0  0  0  0  0  0  1  0  0
  -22.6653   -4.3009   26.4441 F   0  0  0  0  0  0  0  0  0  0  0  0
  -19.6238   -6.6296   23.6634 F   0  0  0  0  0  0  0  0  0  0  0  0
  1  2  1  0  0  0  0
  1  5  2  0  0  0  0
  2  6  2  0  0  0  0
  3  8  2  0  0  0  0
  3 15  1  0  0  0  0
  4  9  1  0  0  0  0
  4 15  2  0  0  0  0
  5 17  1  0  0  0  0
  6 19  1  0  0  0  0
  7 10  2  0  0  0  0
  7 18  1  0  0  0  0
  8 21  1  0  0  0  0
  9 21  2  0  0  0  0
 10 22  1  0  0  0  0
 11 12  2  0  0  0  0
 11 23  1  0  0  0  0
 12 24  1  0  0  0  0
 13 20  1  0  0  0  0
 13 22  2  0  0  0  0
 14 24  2  0  0  0  0
 14 25  1  0  0  0  0
 15 26  1  0  0  0  0
 16 26  1  0  0  0  0
 16 27  2  0  0  0  0
 16 28  1  0  0  0  0
 17 19  2  0  0  0  0
 17 33  1  0  0  0  0
 18 20  2  0  0  0  0
 18 34  1  0  0  0  0
 19 47  1  0  0  0  0
 20 35  1  0  0  0  0
 21 75  1  0  0  0  0
 22 76  1  0  0  0  0
 23 25  2  0  0  0  0
 23 75  1  0  0  0  0
 24 77  1  0  0  0  0
 25 78  1  0  0  0  0
 26 61  2  0  0  0  0
 27 62  1  0  0  0  0
 27 65  1  0  0  0  0
 28 66  1  0  0  0  0
 28 70  2  0  0  0  0
 29 48  1  0  0  0  0
 29 63  1  0  0  0  0
 29 71  2  0  0  0  0
 30 49  1  0  0  0  0
 30 67  1  0  0  0  0
 30 72  2  0  0  0  0
 31 58  1  0  0  0  0
 31 64  1  0  0  0  0
 31 73  2  0  0  0  0
 32 59  1  0  0  0  0
 32 68  1  0  0  0  0
 32 74  2  0  0  0  0
 33 36  1  0  0  0  0
 34 49  1  0  0  0  0
 35 64  1  0  0  0  0
 36 39  1  0  0  0  0
 37 40  1  0  0  0  0
 37 42  1  0  0  0  0
 38 44  1  0  0  0  0
 38 45  1  0  0  0  0
 39 47  1  0  0  0  0
 40 48  1  0  0  0  0
 41 43  1  0  0  0  0
 41 48  1  0  0  0  0
 42 50  1  0  0  0  0
 43 50  1  0  0  0  0
 44 51  1  0  0  0  0
 45 63  1  0  0  0  0
 46 51  1  0  0  0  0
 46 63  1  0  0  0  0
 47 67  1  0  0  0  0
 49 64  1  0  0  0  0
 50 57  1  0  0  0  0
 51 62  1  0  0  0  0
 52 59  1  0  0  0  0
 53 60  1  0  0  0  0
 54 60  1  0  0  0  0
 55 60  1  0  0  0  0
 56 69  1  0  0  0  0
 57 76  1  0  0  0  0
 58 60  1  0  0  0  0
 58 68  1  0  0  0  0
 59 69  1  0  0  0  0
 61 62  1  0  0  0  0
M  CHG  1  69   1
M  ISO  4  29 100  48 100  57 101  76 101
M  END
> <Batch ID>
0034

> <Smiles>
CNC(C)C(=O)NC(C(=O)N1Cc2cc([101O:1][101CH2:1]C3CCC[100CH:0]([100C:0](=O)N4CCCC(n5nc(-c6ccc(Oc7ccc(F)cc7F)cc6)c(C(N)=O)c5N)C4)CC3)ccc2CC1C(=O)NC1CCCc2ccccc21)C(C)(C)C

> <Shape>
0.305

> <Color>
0.179

> <Negative vol penalty>
0.000

$$$$

  -OEChem-04042321483D

 86 94  0     1  0  0  0  0  0999 V2000
  -33.7182  -27.9331   16.6101 C   0  0  0  0  0  0  0  0  0  0  0  0
  -32.3960  -28.0645   17.0224 C   0  0  0  0  0  0  0  0  0  0  0  0
  -23.5163  -14.9556   18.9962 C   0  0  0  0  0  0  0  0  0  0  0  0
  -24.9179  -15.5571   20.8698 C   0  0  0  0  0  0  0  0  0  0  0  0
  -34.2105  -26.6824   16.2395 C   0  0  0  0  0  0  0  0  0  0  0  0
  -31.5651  -26.9455   17.0634 C   0  0  0  0  0  0  0  0  0  0  0  0
  -28.8168  -26.7207   21.3109 C   0  0  0  0  0  0  0  0  0  0  0  0
  -19.1280  -28.8404   22.1207 C   0  0  0  0  0  0  0  0  0  0  0  0
  -24.5325  -14.1406   18.4975 C   0  0  0  0  0  0  0  0  0  0  0  0
  -25.9342  -14.7421   20.3712 C   0  0  0  0  0  0  0  0  0  0  0  0
  -27.6963  -27.5466   21.3887 C   0  0  0  0  0  0  0  0  0  0  0  0
  -26.6728  -11.4451   20.3024 C   0  0  0  0  0  0  0  0  0  0  0  0
  -27.3320  -10.6092   21.2036 C   0  0  0  0  0  0  0  0  0  0  0  0
  -18.3135  -27.8357   21.5983 C   0  0  0  0  0  0  0  0  0  0  0  0
  -26.2851  -25.6759   20.8159 C   0  0  0  0  0  0  0  0  0  0  0  0
  -20.2505  -27.2101   23.5060 C   0  0  0  0  0  0  0  0  0  0  0  0
  -29.4242  -11.7008   20.6857 C   0  0  0  0  0  0  0  0  0  0  0  0
  -23.7090  -15.6639   20.1823 C   0  0  0  0  0  0  0  0  0  0  0  0
  -21.6318  -16.1370   21.5855 C   0  0  0  0  0  0  0  0  0  0  0  0
  -33.3879  -25.5458   16.2851 C   0  0  0  0  0  0  0  0  0  0  0  0
  -28.6807  -25.3663   20.9737 C   0  0  0  0  0  0  0  0  0  0  0  0
  -32.0465  -25.6787   16.6917 C   0  0  0  0  0  0  0  0  0  0  0  0
  -27.4052  -24.8343   20.7369 C   0  0  0  0  0  0  0  0  0  0  0  0
  -20.0966  -28.5275   23.0745 C   0  0  0  0  0  0  0  0  0  0  0  0
  -19.4359  -26.2054   22.9837 C   0  0  0  0  0  0  0  0  0  0  0  0
  -25.7414  -14.0338   19.1850 C   0  0  0  0  0  0  0  0  0  0  0  0
  -26.4305  -27.0249   21.1383 C   0  0  0  0  0  0  0  0  0  0  0  0
  -27.3893  -12.4088   19.5927 C   0  0  0  0  0  0  0  0  0  0  0  0
  -28.7077  -10.7370   21.3953 C   0  0  0  0  0  0  0  0  0  0  0  0
  -28.7650  -12.5366   19.7844 C   0  0  0  0  0  0  0  0  0  0  0  0
  -18.4674  -26.5183   22.0298 C   0  0  0  0  0  0  0  0  0  0  0  0
  -22.6598  -16.5064   20.6976 C   0  0  0  0  0  0  0  0  0  0  0  0
  -20.9020  -17.2868   21.7634 C   0  0  0  0  0  0  0  0  0  0  0  0
  -21.3608  -14.8678   22.1951 C   0  0  0  0  0  0  0  0  0  0  0  0
  -29.7145  -23.5329   18.5918 C   0  0  0  0  0  0  0  0  0  0  0  0
  -28.3947  -21.1586   20.3647 C   0  0  0  0  0  0  0  0  0  0  0  0
  -23.2523  -29.3882   22.6161 C   0  0  0  0  0  0  0  0  0  0  0  0
  -26.1230  -20.2356   22.7384 C   0  0  0  0  0  0  0  0  0  0  0  0
  -20.6622  -22.6608   22.7686 C   0  0  0  0  0  0  0  0  0  0  0  0
  -33.9515  -24.2231   15.8297 C   0  0  0  0  0  0  0  0  0  0  0  0
  -29.8967  -24.4826   20.9201 C   0  0  0  0  0  0  0  0  0  0  0  0
  -27.2033  -23.3824   20.3911 C   0  0  0  0  0  0  0  0  0  0  0  0
  -33.1116  -23.0229   16.2591 C   0  0  0  0  0  0  0  0  0  0  0  0
  -21.0600  -21.7032   19.3013 C   0  0  0  0  0  0  0  0  0  0  0  0
  -31.6341  -23.2774   15.9780 C   0  0  0  0  0  0  0  0  0  0  0  0
  -21.4291  -20.2246   19.4345 C   0  0  0  0  0  0  0  0  0  0  0  0
  -21.6873  -22.5324   20.4180 C   0  0  0  0  0  0  0  0  0  0  0  0
  -21.7257  -20.5857   21.9288 C   0  0  0  0  0  0  0  0  0  0  0  0
  -31.1211  -24.4841   16.7731 C   0  0  1  0  0  0  0  0  0  0  0  0
  -29.6921  -23.2361   20.0646 C   0  0  1  0  0  0  0  0  0  0  0  0
  -21.1034  -19.6904   20.8419 C   0  0  2  0  0  0  0  0  0  0  0  0
  -24.9210  -18.7371   24.3531 C   0  0  0  0  0  0  0  0  0  0  0  0
  -26.8224  -20.3468   17.8790 C   0  0  0  0  0  0  0  0  0  0  0  0
  -25.3162  -18.9995   19.3569 C   0  0  0  0  0  0  0  0  0  0  0  0
  -27.7410  -18.4343   19.2031 C   0  0  0  0  0  0  0  0  0  0  0  0
  -21.6474  -31.1422   21.8295 C   0  0  0  0  0  0  0  0  0  0  0  0
  -28.0585  -20.8187   24.9001 C   0  0  0  0  0  0  0  0  0  0  0  0
  -20.9730  -29.6092   23.6367 C   0  0  0  0  0  0  0  0  0  0  0  0
  -19.6330  -24.8064   23.4715 C   0  0  0  0  0  0  0  0  0  0  0  0
  -24.2235  -29.9359   21.5754 C   0  0  0  0  0  0  0  0  0  0  0  0
  -25.5558  -29.1972   21.5529 C   0  0  0  0  0  0  0  0  0  1  0  0
  -27.0303  -20.5177   20.4468 C   0  0  1  0  0  0  0  0  0  0  0  0
  -26.2545  -19.3614   23.9725 C   0  0  2  0  0  0  0  0  0  0  0  0
  -26.7311  -19.6024   19.2260 C   0  0  0  0  0  0  0  0  0  0  0  0
  -22.5924  -17.7906   20.3364 N   0  0  0  0  0  0  0  0  0  0  0  0
  -21.5132  -18.2380   21.0006 N   0  0  0  0  0  0  0  0  0  0  0  0
  -28.4237  -22.5602   20.3447 N   0  0  0  0  0  0  0  0  0  0  0  0
  -21.3234  -21.9823   21.7314 N   0  0  0  0  0  0  0  0  0  0  0  0
  -19.8034  -17.5670   22.4962 N   0  0  0  0  0  0  0  0  0  0  0  0
  -22.2104  -13.7918   21.9040 N   0  0  0  0  0  0  0  0  0  0  0  0
  -30.8874  -24.1174   18.1535 N   0  0  0  0  0  0  0  0  0  0  0  0
  -26.9777  -19.8331   21.7340 N   0  0  0  0  0  0  0  0  0  0  0  0
  -20.3220  -23.9817   22.5039 N   0  0  0  0  0  0  0  0  0  0  0  0
  -22.0070  -30.0221   22.6905 N   0  0  0  0  0  0  0  0  0  0  0  0
  -26.7434  -20.1661   25.1276 N   0  3  0  0  0  0  0  0  0  0  0  0
  -20.3843  -14.6891   22.9620 O   0  0  0  0  0  0  0  0  0  0  0  0
  -28.7404  -23.2510   17.9038 O   0  0  0  0  0  0  0  0  0  0  0  0
  -29.3981  -20.4421   20.3272 O   0  0  0  0  0  0  0  0  0  0  0  0
  -23.5740  -28.4394   23.3362 O   0  0  0  0  0  0  0  0  0  0  0  0
  -25.3379  -21.1787   22.6708 O   0  0  0  0  0  0  0  0  0  0  0  0
  -20.3900  -22.1270   23.8494 O   0  0  0  0  0  0  0  0  0  0  0  0
  -26.7332  -13.2384   18.6989 O   0  0  0  0  0  0  0  0  0  0  0  0
  -25.3351  -27.8290   21.2130 O   0  0  0  0  0  0  0  0  0  1  0  0
  -29.3404   -9.9353   22.2620 F   0  0  0  0  0  0  0  0  0  0  0  0
  -29.4584  -13.4614   19.1064 F   0  0  0  0  0  0  0  0  0  0  0  0
  -17.4420  -25.3014   21.3613 Cl  0  0  0  0  0  0  0  0  0  0  0  0
  1  2  1  0  0  0  0
  1  5  2  0  0  0  0
  2  6  2  0  0  0  0
  3  9  2  0  0  0  0
  3 18  1  0  0  0  0
  4 10  1  0  0  0  0
  4 18  2  0  0  0  0
  5 20  1  0  0  0  0
  6 22  1  0  0  0  0
  7 11  2  0  0  0  0
  7 21  1  0  0  0  0
  8 14  2  0  0  0  0
  8 24  1  0  0  0  0
  9 26  1  0  0  0  0
 10 26  2  0  0  0  0
 11 27  1  0  0  0  0
 12 13  2  0  0  0  0
 12 28  1  0  0  0  0
 13 29  1  0  0  0  0
 14 31  1  0  0  0  0
 15 23  1  0  0  0  0
 15 27  2  0  0  0  0
 16 24  2  0  0  0  0
 16 25  1  0  0  0  0
 17 29  2  0  0  0  0
 17 30  1  0  0  0  0
 18 32  1  0  0  0  0
 19 32  1  0  0  0  0
 19 33  2  0  0  0  0
 19 34  1  0  0  0  0
 20 22  2  0  0  0  0
 20 40  1  0  0  0  0
 21 23  2  0  0  0  0
 21 41  1  0  0  0  0
 22 49  1  0  0  0  0
 23 42  1  0  0  0  0
 24 58  1  0  0  0  0
 25 31  2  0  0  0  0
 25 59  1  0  0  0  0
 26 82  1  0  0  0  0
 27 83  1  0  0  0  0
 28 30  2  0  0  0  0
 28 82  1  0  0  0  0
 29 84  1  0  0  0  0
 30 85  1  0  0  0  0
 31 86  1  0  0  0  0
 32 65  2  0  0  0  0
 33 66  1  0  0  0  0
 33 69  1  0  0  0  0
 34 70  1  0  0  0  0
 34 76  2  0  0  0  0
 35 50  1  0  0  0  0
 35 71  1  0  0  0  0
 35 77  2  0  0  0  0
 36 62  1  0  0  0  0
 36 67  1  0  0  0  0
 36 78  2  0  0  0  0
 37 60  1  0  0  0  0
 37 74  1  0  0  0  0
 37 79  2  0  0  0  0
 38 63  1  0  0  0  0
 38 72  1  0  0  0  0
 38 80  2  0  0  0  0
 39 68  1  0  0  0  0
 39 73  1  0  0  0  0
 39 81  2  0  0  0  0
 40 43  1  0  0  0  0
 41 50  1  0  0  0  0
 42 67  1  0  0  0  0
 43 45  1  0  0  0  0
 44 46  1  0  0  0  0
 44 47  1  0  0  0  0
 45 49  1  0  0  0  0
 46 51  1  0  0  0  0
 47 68  1  0  0  0  0
 48 51  1  0  0  0  0
 48 68  1  0  0  0  0
 49 71  1  0  0  0  0
 50 67  1  0  0  0  0
 51 66  1  0  0  0  0
 52 63  1  0  0  0  0
 53 64  1  0  0  0  0
 54 64  1  0  0  0  0
 55 64  1  0  0  0  0
 56 74  1  0  0  0  0
 57 75  1  0  0  0  0
 58 74  1  0  0  0  0
 59 73  1  0  0  0  0
 60 61  1  0  0  0  0
 61 83  1  0  0  0  0
 62 64  1  0  0  0  0
 62 72  1  0  0  0  0
 63 75  1  0  0  0  0
 65 66  1  0  0  0  0
M  CHG  1  75   1
M  ISO  4  39 100  61 101  73 100  83 101
M  END
> <Batch ID>
0034

> <Smiles>
CNC(C)C(=O)NC(C(=O)N1Cc2cc([101O:1][101CH2:1]CC(=O)N(C)Cc3ccc(Cl)c(C[100NH:0][100C:0](=O)N4CCCC(n5nc(-c6ccc(Oc7ccc(F)cc7F)cc6)c(C(N)=O)c5N)C4)c3)ccc2CC1C(=O)NC1CCCc2ccccc21)C(C)(C)C

> <Shape>
0.216

> <Color>
0.067

> <Negative vol penalty>
0.000

$$$$

  -OEChem-04042321483D

 88 97  0     1  0  0  0  0  0999 V2000
  -30.1687  -24.8449   14.0754 C   0  0  0  0  0  0  0  0  0  0  0  0
  -28.8169  -25.0239   14.3511 C   0  0  0  0  0  0  0  0  0  0  0  0
  -26.8088  -13.8306   20.0063 C   0  0  0  0  0  0  0  0  0  0  0  0
  -24.5885  -14.3037   20.8328 C   0  0  0  0  0  0  0  0  0  0  0  0
  -31.0774  -24.6879   15.1212 C   0  0  0  0  0  0  0  0  0  0  0  0
  -28.3729  -25.0449   15.6727 C   0  0  0  0  0  0  0  0  0  0  0  0
  -23.7981  -28.4090   17.9662 C   0  0  0  0  0  0  0  0  0  0  0  0
  -23.2436  -24.9580   23.7448 C   0  0  0  0  0  0  0  0  0  0  0  0
  -24.2258  -24.0794   23.2879 C   0  0  0  0  0  0  0  0  0  0  0  0
  -26.7137  -12.5281   20.4962 C   0  0  0  0  0  0  0  0  0  0  0  0
  -24.4933  -13.0012   21.3227 C   0  0  0  0  0  0  0  0  0  0  0  0
  -22.4653  -28.1121   18.2479 C   0  0  0  0  0  0  0  0  0  0  0  0
  -23.8627   -9.9182   20.0906 C   0  0  0  0  0  0  0  0  0  0  0  0
  -22.6765   -9.2235   19.8542 C   0  0  0  0  0  0  0  0  0  0  0  0
  -23.0545  -27.6763   20.5462 C   0  0  0  0  0  0  0  0  0  0  0  0
  -21.5559  -23.2734   23.3559 C   0  0  0  0  0  0  0  0  0  0  0  0
  -22.3350   -8.9964   22.2352 C   0  0  0  0  0  0  0  0  0  0  0  0
  -25.7462  -14.7184   20.1746 C   0  0  0  0  0  0  0  0  0  0  0  0
  -25.4664  -16.5226   18.3929 C   0  0  0  0  0  0  0  0  0  0  0  0
  -30.6456  -24.7167   16.4566 C   0  0  0  0  0  0  0  0  0  0  0  0
  -24.7725  -28.3311   18.9716 C   0  0  0  0  0  0  0  0  0  0  0  0
  -29.2764  -24.8869   16.7373 C   0  0  0  0  0  0  0  0  0  0  0  0
  -24.3985  -27.9752   20.2752 C   0  0  0  0  0  0  0  0  0  0  0  0
  -21.9086  -24.5550   23.7788 C   0  0  0  0  0  0  0  0  0  0  0  0
  -22.5382  -22.3948   22.8990 C   0  0  0  0  0  0  0  0  0  0  0  0
  -23.8732  -22.7978   22.8650 C   0  0  0  0  0  0  0  0  0  0  0  0
  -25.5559  -12.1134   21.1544 C   0  0  0  0  0  0  0  0  0  0  0  0
  -22.0938  -27.7429   19.5374 C   0  0  0  0  0  0  0  0  0  0  0  0
  -24.2851  -10.1519   21.3993 C   0  0  0  0  0  0  0  0  0  0  0  0
  -21.9126   -8.7627   20.9265 C   0  0  0  0  0  0  0  0  0  0  0  0
  -23.5212   -9.6911   22.4716 C   0  0  0  0  0  0  0  0  0  0  0  0
  -25.8441  -16.0642   19.6693 C   0  0  0  0  0  0  0  0  0  0  0  0
  -25.7578  -17.8647   18.4099 C   0  0  0  0  0  0  0  0  0  0  0  0
  -19.7706  -27.6467   24.0131 C   0  0  0  0  0  0  0  0  0  0  0  0
  -20.1678  -28.4562   25.0103 C   0  0  0  0  0  0  0  0  0  0  0  0
  -24.9026  -15.7998   17.2905 C   0  0  0  0  0  0  0  0  0  0  0  0
  -27.3983  -26.5969   19.4208 C   0  0  0  0  0  0  0  0  0  0  0  0
  -27.7686  -28.5360   21.9947 C   0  0  0  0  0  0  0  0  0  0  0  0
  -26.3243  -30.5872   24.3085 C   0  0  0  0  0  0  0  0  0  0  0  0
  -26.2208  -21.8860   22.8054 C   0  0  0  0  0  0  0  0  0  0  0  0
  -31.6584  -24.4954   17.5520 C   0  0  0  0  0  0  0  0  0  0  0  0
  -26.2015  -28.6804   18.6576 C   0  0  0  0  0  0  0  0  0  0  0  0
  -25.4030  -27.8963   21.3948 C   0  0  0  0  0  0  0  0  0  0  0  0
  -18.3538  -27.6614   23.5079 C   0  0  0  0  0  0  0  0  0  0  0  0
  -31.1589  -24.9047   18.9352 C   0  0  0  0  0  0  0  0  0  0  0  0
  -18.1968  -28.5952   22.3093 C   0  0  0  0  0  0  0  0  0  0  0  0
  -28.7328  -21.0254   20.4333 C   0  0  0  0  0  0  0  0  0  0  0  0
  -29.7525  -24.3654   19.1760 C   0  0  0  0  0  0  0  0  0  0  0  0
  -28.2396  -19.7003   19.8477 C   0  0  0  0  0  0  0  0  0  0  0  0
  -18.8545  -28.0955   21.0261 C   0  0  0  0  0  0  0  0  0  0  0  0
  -28.4206  -21.1375   21.9245 C   0  0  0  0  0  0  0  0  0  0  0  0
  -26.5219  -19.5842   21.6978 C   0  0  0  0  0  0  0  0  0  0  0  0
  -20.5655  -26.4660   21.9857 C   0  0  0  0  0  0  0  0  0  0  0  0
  -28.7595  -24.9402   18.1586 C   0  0  1  0  0  0  0  0  0  0  0  0
  -27.1957  -28.0695   19.6402 C   0  0  1  0  0  0  0  0  0  0  0  0
  -26.7559  -19.4529   20.1840 C   0  0  2  0  0  0  0  0  0  0  0  0
  -20.3347  -27.7226   21.1444 C   0  0  1  0  0  0  0  0  0  1  0  0
  -22.1313  -21.0290   22.4493 C   0  0  0  0  0  0  0  0  0  0  0  0
  -21.5539  -28.4856   25.5505 C   0  0  0  0  0  0  0  0  0  0  0  0
  -26.8775  -31.9979   26.3088 C   0  0  0  0  0  0  0  0  0  0  0  0
  -28.0163  -26.0176   23.6993 C   0  0  0  0  0  0  0  0  0  0  0  0
  -27.6114  -27.4326   25.7246 C   0  0  0  0  0  0  0  0  0  0  0  0
  -29.6161  -27.8442   24.2982 C   0  0  0  0  0  0  0  0  0  0  0  0
  -25.3754  -33.0538   22.9764 C   0  0  0  0  0  0  0  0  0  0  0  0
  -20.8518  -25.5010   24.2680 C   0  0  0  0  0  0  0  0  0  0  0  0
  -27.3287  -28.4924   23.4382 C   0  0  1  0  0  0  0  0  0  0  0  0
  -26.6991  -31.9741   24.7987 C   0  0  2  0  0  0  0  0  0  0  0  0
  -28.1243  -27.4462   24.2688 C   0  0  0  0  0  0  0  0  0  0  0  0
  -26.3379  -17.0362   20.4409 N   0  0  0  0  0  0  0  0  0  0  0  0
  -26.2726  -18.1187   19.6471 N   0  0  0  0  0  0  0  0  0  0  0  0
  -26.7886  -28.2411   21.0363 N   0  0  0  0  0  0  0  0  0  0  0  0
  -26.9967  -20.8955   22.1668 N   0  0  0  0  0  0  0  0  0  0  0  0
  -25.6215  -18.8405   17.4871 N   0  0  0  0  0  0  0  0  0  0  0  0
  -24.6673  -14.4265   17.4423 N   0  0  0  0  0  0  0  0  0  0  0  0
  -24.8857  -21.9202   22.4043 N   0  0  0  0  0  0  0  0  0  0  0  0
  -28.3978  -26.2953   18.5155 N   0  0  0  0  0  0  0  0  0  0  0  0
  -27.4350  -29.8586   23.9387 N   0  0  0  0  0  0  0  0  0  0  0  0
  -20.7678  -26.7674   23.4514 N   0  3  2  0  0  0  0  0  0  0  0  0
  -25.6387  -32.9562   24.4352 N   0  3  0  0  0  0  0  0  0  0  0  0
  -24.6311  -16.3520   16.1974 O   0  0  0  0  0  0  0  0  0  0  0  0
  -26.7005  -25.7938   20.0289 O   0  0  0  0  0  0  0  0  0  0  0  0
  -28.9368  -28.8282   21.7270 O   0  0  0  0  0  0  0  0  0  0  0  0
  -25.1626  -30.1885   24.2620 O   0  0  0  0  0  0  0  0  0  0  0  0
  -26.7114  -22.6655   23.6261 O   0  0  0  0  0  0  0  0  0  0  0  0
  -25.4627  -10.8424   21.6324 O   0  0  0  0  0  0  0  0  0  0  0  0
  -20.7938  -27.4519   19.8150 O   0  0  0  0  0  0  0  0  0  1  0  0
  -20.7727   -8.0970   20.6993 F   0  0  0  0  0  0  0  0  0  0  0  0
  -23.9213   -9.9136   23.7310 F   0  0  0  0  0  0  0  0  0  0  0  0
  1  2  1  0  0  0  0
  1  5  2  0  0  0  0
  2  6  2  0  0  0  0
  3 10  2  0  0  0  0
  3 18  1  0  0  0  0
  4 11  1  0  0  0  0
  4 18  2  0  0  0  0
  5 20  1  0  0  0  0
  6 22  1  0  0  0  0
  7 12  2  0  0  0  0
  7 21  1  0  0  0  0
  8  9  2  0  0  0  0
  8 24  1  0  0  0  0
  9 26  1  0  0  0  0
 10 27  1  0  0  0  0
 11 27  2  0  0  0  0
 12 28  1  0  0  0  0
 13 14  2  0  0  0  0
 13 29  1  0  0  0  0
 14 30  1  0  0  0  0
 15 23  1  0  0  0  0
 15 28  2  0  0  0  0
 16 24  2  0  0  0  0
 16 25  1  0  0  0  0
 17 30  2  0  0  0  0
 17 31  1  0  0  0  0
 18 32  1  0  0  0  0
 19 32  1  0  0  0  0
 19 33  2  0  0  0  0
 19 36  1  0  0  0  0
 20 22  2  0  0  0  0
 20 41  1  0  0  0  0
 21 23  2  0  0  0  0
 21 42  1  0  0  0  0
 22 54  1  0  0  0  0
 23 43  1  0  0  0  0
 24 65  1  0  0  0  0
 25 26  2  0  0  0  0
 25 58  1  0  0  0  0
 26 75  1  0  0  0  0
 27 85  1  0  0  0  0
 28 86  1  0  0  0  0
 29 31  2  0  0  0  0
 29 85  1  0  0  0  0
 30 87  1  0  0  0  0
 31 88  1  0  0  0  0
 32 69  2  0  0  0  0
 33 70  1  0  0  0  0
 33 73  1  0  0  0  0
 34 35  2  0  0  0  0
 34 44  1  0  0  0  0
 34 78  1  0  0  0  0
 35 59  1  0  0  0  0
 36 74  1  0  0  0  0
 36 80  2  0  0  0  0
 37 55  1  0  0  0  0
 37 76  1  0  0  0  0
 37 81  2  0  0  0  0
 38 66  1  0  0  0  0
 38 71  1  0  0  0  0
 38 82  2  0  0  0  0
 39 67  1  0  0  0  0
 39 77  1  0  0  0  0
 39 83  2  0  0  0  0
 40 72  1  0  0  0  0
 40 75  1  0  0  0  0
 40 84  2  0  0  0  0
 41 45  1  0  0  0  0
 42 55  1  0  0  0  0
 43 71  1  0  0  0  0
 44 46  1  0  0  0  0
 45 48  1  0  0  0  0
 46 50  1  0  0  0  0
 47 49  1  0  0  0  0
 47 51  1  0  0  0  0
 48 54  1  0  0  0  0
 49 56  1  0  0  0  0
 50 57  1  0  0  0  0
 51 72  1  0  0  0  0
 52 56  1  0  0  0  0
 52 72  1  0  0  0  0
 53 57  1  0  0  0  0
 53 78  1  0  0  0  0
 54 76  1  0  0  0  0
 55 71  1  0  0  0  0
 56 70  1  0  0  0  0
 57 86  1  0  0  0  0
 60 67  1  0  0  0  0
 61 68  1  0  0  0  0
 62 68  1  0  0  0  0
 63 68  1  0  0  0  0
 64 79  1  0  0  0  0
 65 78  1  0  0  0  0
 66 68  1  0  0  0  0
 66 77  1  0  0  0  0
 67 79  1  0  0  0  0
 69 70  1  0  0  0  0
M  CHG  2  78   1  79   1
M  ISO  4  40 100  57 101  75 100  86 101
M  END
> <Batch ID>
0034

> <Smiles>
CC=C1CCC[101CH:1]([101O:1]c2ccc3c(c2)CN(C(=O)C(NC(=O)C(C)NC)C(C)(C)C)C(C(=O)NC2CCCc4ccccc42)C3)CN1Cc1ccc([100NH:0][100C:0](=O)N2CCCC(n3nc(-c4ccc(Oc5ccc(F)cc5F)cc4)c(C(N)=O)c3N)C2)c(C)c1

> <Shape>
0.259

> <Color>
0.071

> <Negative vol penalty>
0.000

$$$$

  -OEChem-04042321483D

 87 96  0     1  0  0  0  0  0999 V2000
  -25.4796  -17.9833   25.0699 C   0  0  0  0  0  0  0  0  0  0  0  0
  -25.5709  -19.2816   25.5589 C   0  0  0  0  0  0  0  0  0  0  0  0
  -25.9823  -13.0228   21.8473 C   0  0  0  0  0  0  0  0  0  0  0  0
  -26.4194  -13.2099   19.4785 C   0  0  0  0  0  0  0  0  0  0  0  0
  -24.9660  -17.7576   23.7945 C   0  0  0  0  0  0  0  0  0  0  0  0
  -25.1378  -20.3534   24.7775 C   0  0  0  0  0  0  0  0  0  0  0  0
  -25.3900  -26.3554   25.7972 C   0  0  0  0  0  0  0  0  0  0  0  0
  -30.9534  -24.6625   20.4743 C   0  0  0  0  0  0  0  0  0  0  0  0
  -30.6402  -25.9887   20.7718 C   0  0  0  0  0  0  0  0  0  0  0  0
  -24.7934  -12.3463   21.5745 C   0  0  0  0  0  0  0  0  0  0  0  0
  -25.2305  -12.5333   19.2057 C   0  0  0  0  0  0  0  0  0  0  0  0
  -26.2626  -27.4091   25.5286 C   0  0  0  0  0  0  0  0  0  0  0  0
  -23.8516   -9.2197   20.6967 C   0  0  0  0  0  0  0  0  0  0  0  0
  -23.5706   -8.0758   21.4437 C   0  0  0  0  0  0  0  0  0  0  0  0
  -24.9652  -27.9779   23.5761 C   0  0  0  0  0  0  0  0  0  0  0  0
  -29.1878  -24.6151   18.8259 C   0  0  0  0  0  0  0  0  0  0  0  0
  -21.5417   -9.1051   22.2570 C   0  0  0  0  0  0  0  0  0  0  0  0
  -26.7953  -13.4547   20.7993 C   0  0  0  0  0  0  0  0  0  0  0  0
  -29.2987  -13.5896   21.2711 C   0  0  0  0  0  0  0  0  0  0  0  0
  -24.5382  -18.8287   22.9929 C   0  0  0  0  0  0  0  0  0  0  0  0
  -24.3028  -26.0979   24.9497 C   0  0  0  0  0  0  0  0  0  0  0  0
  -24.5943  -20.1440   23.4971 C   0  0  0  0  0  0  0  0  0  0  0  0
  -24.0788  -26.9220   23.8376 C   0  0  0  0  0  0  0  0  0  0  0  0
  -30.2273  -23.9757   19.5013 C   0  0  0  0  0  0  0  0  0  0  0  0
  -29.6007  -26.6282   20.0964 C   0  0  0  0  0  0  0  0  0  0  0  0
  -28.8745  -25.9414   19.1234 C   0  0  0  0  0  0  0  0  0  0  0  0
  -24.4175  -12.1015   20.2537 C   0  0  0  0  0  0  0  0  0  0  0  0
  -26.0519  -28.2187   24.4163 C   0  0  0  0  0  0  0  0  0  0  0  0
  -22.9777  -10.3064   20.7299 C   0  0  0  0  0  0  0  0  0  0  0  0
  -22.4157   -8.0184   22.2238 C   0  0  0  0  0  0  0  0  0  0  0  0
  -21.8228  -10.2491   21.5100 C   0  0  0  0  0  0  0  0  0  0  0  0
  -28.0232  -14.1541   21.0805 C   0  0  0  0  0  0  0  0  0  0  0  0
  -30.1188  -14.6658   21.5066 C   0  0  0  0  0  0  0  0  0  0  0  0
  -29.6817  -29.8253   22.0466 C   0  0  0  0  0  0  0  0  0  0  0  0
  -30.7673  -30.4938   21.6415 C   0  0  0  0  0  0  0  0  0  0  0  0
  -29.7056  -12.2152   21.2381 C   0  0  0  0  0  0  0  0  0  0  0  0
  -23.4141  -23.6552   23.1203 C   0  0  0  0  0  0  0  0  0  0  0  0
  -20.7373  -25.4410   22.7107 C   0  0  0  0  0  0  0  0  0  0  0  0
  -19.2789  -28.5262   22.7488 C   0  0  0  0  0  0  0  0  0  0  0  0
  -29.7277  -20.3344   19.9036 C   0  0  0  0  0  0  0  0  0  0  0  0
  -23.9834  -18.5267   21.6232 C   0  0  0  0  0  0  0  0  0  0  0  0
  -23.3554  -24.9739   25.2682 C   0  0  0  0  0  0  0  0  0  0  0  0
  -22.9147  -26.7001   22.9079 C   0  0  0  0  0  0  0  0  0  0  0  0
  -28.5256  -30.4094   22.7951 C   0  0  0  0  0  0  0  0  0  0  0  0
  -23.9660  -19.7458   20.7067 C   0  0  0  0  0  0  0  0  0  0  0  0
  -30.0509  -19.1058   23.2924 C   0  0  0  0  0  0  0  0  0  0  0  0
  -23.3309  -20.9270   21.4251 C   0  0  0  0  0  0  0  0  0  0  0  0
  -29.6845  -17.6309   23.1174 C   0  0  0  0  0  0  0  0  0  0  0  0
  -29.1992  -19.9974   22.3936 C   0  0  0  0  0  0  0  0  0  0  0  0
  -28.8860  -18.1701   20.7697 C   0  0  0  0  0  0  0  0  0  0  0  0
  -28.4984  -27.9985   22.8303 C   0  0  0  0  0  0  0  0  0  0  0  0
  -24.1577  -21.3280   22.6533 C   0  0  1  0  0  0  0  0  0  0  0  0
  -22.5764  -24.4860   24.0506 C   0  0  1  0  0  0  0  0  0  0  0  0
  -29.7278  -17.2148   21.6351 C   0  0  2  0  0  0  0  0  0  0  0  0
  -27.5867  -29.2154   22.9116 C   0  0  1  0  0  0  0  0  0  1  0  0
  -27.7572  -26.6054   18.3876 C   0  0  0  0  0  0  0  0  0  0  0  0
  -31.8997  -29.8720   20.8962 C   0  0  0  0  0  0  0  0  0  0  0  0
  -17.0862  -29.6738   22.3336 C   0  0  0  0  0  0  0  0  0  0  0  0
  -21.1678  -25.1698   19.7022 C   0  0  0  0  0  0  0  0  0  0  0  0
  -19.5670  -27.0664   19.3725 C   0  0  0  0  0  0  0  0  0  0  0  0
  -18.7882  -24.9503   20.4395 C   0  0  0  0  0  0  0  0  0  0  0  0
  -19.1321  -29.5074   25.5371 C   0  0  0  0  0  0  0  0  0  0  0  0
  -30.5621  -22.5576   19.1838 C   0  0  0  0  0  0  0  0  0  0  0  0
  -29.2815  -28.0547   20.4344 C   0  0  0  0  0  0  0  0  0  0  0  0
  -20.3023  -26.5069   21.7342 C   0  0  1  0  0  0  0  0  0  0  0  0
  -17.9861  -29.0216   23.3716 C   0  0  2  0  0  0  0  0  0  0  0  0
  -19.9795  -25.9266   20.3283 C   0  0  0  0  0  0  0  0  0  0  0  0
  -28.0277  -15.4856   21.1860 N   0  0  0  0  0  0  0  0  0  0  0  0
  -29.3160  -15.7667   21.4455 N   0  0  0  0  0  0  0  0  0  0  0  0
  -22.0201  -25.5846   23.2581 N   0  0  0  0  0  0  0  0  0  0  0  0
  -29.2991  -19.5595   20.9941 N   0  0  0  0  0  0  0  0  0  0  0  0
  -31.4412  -14.7684   21.7580 N   0  0  0  0  0  0  0  0  0  0  0  0
  -28.7351  -11.2369   20.9824 N   0  0  0  0  0  0  0  0  0  0  0  0
  -23.4190  -22.3064   23.4207 N   0  0  0  0  0  0  0  0  0  0  0  0
  -19.1866  -27.2057   22.3628 N   0  0  0  0  0  0  0  0  0  0  0  0
  -30.0946  -21.6414   20.2001 N   0  0  0  0  0  0  0  0  0  0  0  0
  -29.5897  -28.4044   21.8622 N   0  3  1  0  0  0  0  0  0  0  0  0
  -18.2749  -30.0216   24.4382 N   0  3  0  0  0  0  0  0  0  0  0  0
  -30.8917  -11.8637   21.4458 O   0  0  0  0  0  0  0  0  0  0  0  0
  -24.0106  -24.1974   22.1973 O   0  0  0  0  0  0  0  0  0  0  0  0
  -19.9646  -24.5190   22.9833 O   0  0  0  0  0  0  0  0  0  0  0  0
  -20.2701  -29.2403   22.6146 O   0  0  0  0  0  0  0  0  0  0  0  0
  -29.7844  -19.8925   18.7510 O   0  0  0  0  0  0  0  0  0  0  0  0
  -23.2576  -11.4411   19.9871 O   0  0  0  0  0  0  0  0  0  0  0  0
  -26.9025  -29.2475   24.1515 O   0  0  0  0  0  0  0  0  0  1  0  0
  -22.1452   -6.9192   22.9399 F   0  0  0  0  0  0  0  0  0  0  0  0
  -20.9788  -11.2895   21.5449 F   0  0  0  0  0  0  0  0  0  0  0  0
  1  2  1  0  0  0  0
  1  5  2  0  0  0  0
  2  6  2  0  0  0  0
  3 10  2  0  0  0  0
  3 18  1  0  0  0  0
  4 11  1  0  0  0  0
  4 18  2  0  0  0  0
  5 20  1  0  0  0  0
  6 22  1  0  0  0  0
  7 12  2  0  0  0  0
  7 21  1  0  0  0  0
  8  9  2  0  0  0  0
  8 24  1  0  0  0  0
  9 25  1  0  0  0  0
 10 27  1  0  0  0  0
 11 27  2  0  0  0  0
 12 28  1  0  0  0  0
 13 14  2  0  0  0  0
 13 29  1  0  0  0  0
 14 30  1  0  0  0  0
 15 23  1  0  0  0  0
 15 28  2  0  0  0  0
 16 24  2  0  0  0  0
 16 26  1  0  0  0  0
 17 30  2  0  0  0  0
 17 31  1  0  0  0  0
 18 32  1  0  0  0  0
 19 32  1  0  0  0  0
 19 33  2  0  0  0  0
 19 36  1  0  0  0  0
 20 22  2  0  0  0  0
 20 41  1  0  0  0  0
 21 23  2  0  0  0  0
 21 42  1  0  0  0  0
 22 52  1  0  0  0  0
 23 43  1  0  0  0  0
 24 63  1  0  0  0  0
 25 26  2  0  0  0  0
 25 64  1  0  0  0  0
 26 56  1  0  0  0  0
 27 84  1  0  0  0  0
 28 85  1  0  0  0  0
 29 31  2  0  0  0  0
 29 84  1  0  0  0  0
 30 86  1  0  0  0  0
 31 87  1  0  0  0  0
 32 68  2  0  0  0  0
 33 69  1  0  0  0  0
 33 72  1  0  0  0  0
 34 35  2  0  0  0  0
 34 44  1  0  0  0  0
 34 77  1  0  0  0  0
 35 57  1  0  0  0  0
 36 73  1  0  0  0  0
 36 79  2  0  0  0  0
 37 53  1  0  0  0  0
 37 74  1  0  0  0  0
 37 80  2  0  0  0  0
 38 65  1  0  0  0  0
 38 70  1  0  0  0  0
 38 81  2  0  0  0  0
 39 66  1  0  0  0  0
 39 75  1  0  0  0  0
 39 82  2  0  0  0  0
 40 71  1  0  0  0  0
 40 76  1  0  0  0  0
 40 83  2  0  0  0  0
 41 45  1  0  0  0  0
 42 53  1  0  0  0  0
 43 70  1  0  0  0  0
 44 55  1  0  0  0  0
 45 47  1  0  0  0  0
 46 48  1  0  0  0  0
 46 49  1  0  0  0  0
 47 52  1  0  0  0  0
 48 54  1  0  0  0  0
 49 71  1  0  0  0  0
 50 54  1  0  0  0  0
 50 71  1  0  0  0  0
 51 55  1  0  0  0  0
 51 77  1  0  0  0  0
 52 74  1  0  0  0  0
 53 70  1  0  0  0  0
 54 69  1  0  0  0  0
 55 85  1  0  0  0  0
 58 66  1  0  0  0  0
 59 67  1  0  0  0  0
 60 67  1  0  0  0  0
 61 67  1  0  0  0  0
 62 78  1  0  0  0  0
 63 76  1  0  0  0  0
 64 77  1  0  0  0  0
 65 67  1  0  0  0  0
 65 75  1  0  0  0  0
 66 78  1  0  0  0  0
 68 69  1  0  0  0  0
M  CHG  2  77   1  78   1
M  ISO  4  40 100  55 101  76 100  85 101
M  END
> <Batch ID>
0034

> <Smiles>
CC=C1C[101CH:1]([101O:1]c2ccc3c(c2)CN(C(=O)C(NC(=O)C(C)NC)C(C)(C)C)C(C(=O)NC2CCCc4ccccc42)C3)CN1Cc1ccc(C[100NH:0][100C:0](=O)N2CCCC(n3nc(-c4ccc(Oc5ccc(F)cc5F)cc4)c(C(N)=O)c3N)C2)cc1C

> <Shape>
0.256

> <Color>
0.032

> <Negative vol penalty>
0.000

$$$$

  -OEChem-04042321483D

 88 97  0     1  0  0  0  0  0999 V2000
  -29.4438  -32.8407   25.7619 C   0  0  0  0  0  0  0  0  0  0  0  0
  -29.0307  -31.5713   25.3703 C   0  0  0  0  0  0  0  0  0  0  0  0
  -22.8304  -10.1064   20.0694 C   0  0  0  0  0  0  0  0  0  0  0  0
  -24.5396   -9.1381   21.4759 C   0  0  0  0  0  0  0  0  0  0  0  0
  -28.5246  -33.8880   25.8094 C   0  0  0  0  0  0  0  0  0  0  0  0
  -27.6977  -31.3482   25.0271 C   0  0  0  0  0  0  0  0  0  0  0  0
  -27.2135  -28.5878   20.8092 C   0  0  0  0  0  0  0  0  0  0  0  0
  -21.8488   -9.6556   20.9518 C   0  0  0  0  0  0  0  0  0  0  0  0
  -23.5579   -8.6873   22.3584 C   0  0  0  0  0  0  0  0  0  0  0  0
  -27.4070  -27.2118   20.9231 C   0  0  0  0  0  0  0  0  0  0  0  0
  -21.3417   -6.1397   22.5294 C   0  0  0  0  0  0  0  0  0  0  0  0
  -21.4454   -4.8309   23.0004 C   0  0  0  0  0  0  0  0  0  0  0  0
  -25.0173  -26.8855   20.9686 C   0  0  0  0  0  0  0  0  0  0  0  0
  -30.7664  -20.0203   18.9831 C   0  0  0  0  0  0  0  0  0  0  0  0
  -21.5829   -5.6574   25.2665 C   0  0  0  0  0  0  0  0  0  0  0  0
  -24.1759   -9.8476   20.3314 C   0  0  0  0  0  0  0  0  0  0  0  0
  -25.3285   -9.9785   18.0594 C   0  0  0  0  0  0  0  0  0  0  0  0
  -27.1817  -33.6797   25.4573 C   0  0  0  0  0  0  0  0  0  0  0  0
  -25.9183  -29.1248   20.7851 C   0  0  0  0  0  0  0  0  0  0  0  0
  -26.7593  -32.3933   25.0713 C   0  0  0  0  0  0  0  0  0  0  0  0
  -24.8100  -28.2685   20.8518 C   0  0  0  0  0  0  0  0  0  0  0  0
  -30.2192  -20.7197   20.0588 C   0  0  0  0  0  0  0  0  0  0  0  0
  -30.6678  -18.6298   18.9325 C   0  0  0  0  0  0  0  0  0  0  0  0
  -29.5733  -20.0285   21.0839 C   0  0  0  0  0  0  0  0  0  0  0  0
  -29.4746  -18.6380   21.0333 C   0  0  0  0  0  0  0  0  0  0  0  0
  -30.0219  -17.9387   19.9576 C   0  0  0  0  0  0  0  0  0  0  0  0
  -22.2125   -8.9460   22.0963 C   0  0  0  0  0  0  0  0  0  0  0  0
  -26.3089  -26.3607   21.0057 C   0  0  0  0  0  0  0  0  0  0  0  0
  -21.3587   -7.2074   23.4269 C   0  0  0  0  0  0  0  0  0  0  0  0
  -21.5660   -4.5897   24.3690 C   0  0  0  0  0  0  0  0  0  0  0  0
  -21.4793   -6.9662   24.7954 C   0  0  0  0  0  0  0  0  0  0  0  0
  -25.1903  -10.3126   19.4199 C   0  0  0  0  0  0  0  0  0  0  0  0
  -26.4379  -10.6746   17.6458 C   0  0  0  0  0  0  0  0  0  0  0  0
  -28.4706  -23.7605   20.6352 C   0  0  0  0  0  0  0  0  0  0  0  0
  -24.5256   -9.1161   17.2424 C   0  0  0  0  0  0  0  0  0  0  0  0
  -24.2847  -31.1254   22.6378 C   0  0  0  0  0  0  0  0  0  0  0  0
  -22.0620  -30.8686   20.2893 C   0  0  0  0  0  0  0  0  0  0  0  0
  -20.6925  -28.2367   18.2362 C   0  0  0  0  0  0  0  0  0  0  0  0
  -28.7558  -15.7535   19.8795 C   0  0  0  0  0  0  0  0  0  0  0  0
  -26.2148  -34.8317   25.5697 C   0  0  0  0  0  0  0  0  0  0  0  0
  -25.7262  -30.6090   20.6350 C   0  0  0  0  0  0  0  0  0  0  0  0
  -23.3988  -28.7931   20.8097 C   0  0  0  0  0  0  0  0  0  0  0  0
  -24.9000  -34.5977   24.8301 C   0  0  0  0  0  0  0  0  0  0  0  0
  -27.0585  -22.5005   18.3681 C   0  0  0  0  0  0  0  0  0  0  0  0
  -30.3149  -12.2527   20.0734 C   0  0  0  0  0  0  0  0  0  0  0  0
  -24.3551  -33.2065   25.1371 C   0  0  0  0  0  0  0  0  0  0  0  0
  -26.3280  -23.2824   19.4583 C   0  0  0  0  0  0  0  0  0  0  0  0
  -29.3787  -11.5054   19.1266 C   0  0  0  0  0  0  0  0  0  0  0  0
  -28.5710  -22.7013   18.3962 C   0  0  0  0  0  0  0  0  0  0  0  0
  -30.3333  -13.7519   19.8033 C   0  0  0  0  0  0  0  0  0  0  0  0
  -27.8520  -13.4373   19.8101 C   0  0  0  0  0  0  0  0  0  0  0  0
  -25.3272  -32.1173   24.6677 C   0  0  1  0  0  0  0  0  0  0  0  0
  -27.1973  -24.3742   20.0689 C   0  0  1  0  0  0  0  0  0  1  0  0
  -24.3686  -31.0897   21.1381 C   0  0  1  0  0  0  0  0  0  0  0  0
  -28.0810  -12.2807   18.8246 C   0  0  2  0  0  0  0  0  0  0  0  0
  -31.2630  -17.9090   17.7664 C   0  0  0  0  0  0  0  0  0  0  0  0
  -28.9875  -20.7816   22.2361 C   0  0  0  0  0  0  0  0  0  0  0  0
  -28.7806  -17.9011   22.1361 C   0  0  0  0  0  0  0  0  0  0  0  0
  -19.6627  -28.3200   15.9492 C   0  0  0  0  0  0  0  0  0  0  0  0
  -19.4226  -31.0974   21.8028 C   0  0  0  0  0  0  0  0  0  0  0  0
  -18.3801  -29.6240   20.0678 C   0  0  0  0  0  0  0  0  0  0  0  0
  -19.3244  -31.8391   19.4165 C   0  0  0  0  0  0  0  0  0  0  0  0
  -22.5785  -26.2120   17.1863 C   0  0  0  0  0  0  0  0  0  0  0  0
  -30.3378  -22.2161   20.0881 C   0  0  0  0  0  0  0  0  0  0  0  0
  -20.8944  -29.9509   20.0181 C   0  0  1  0  0  0  0  0  0  0  0  0
  -20.9228  -28.0304   16.7499 C   0  0  2  0  0  0  0  0  0  0  0  0
  -19.5281  -30.6191   20.3410 C   0  0  0  0  0  0  0  0  0  0  0  0
  -26.1365  -11.1553   19.8426 N   0  0  0  0  0  0  0  0  0  0  0  0
  -26.8799  -11.3565   18.7412 N   0  0  0  0  0  0  0  0  0  0  0  0
  -29.0833  -22.8678   19.7515 N   0  0  0  0  0  0  0  0  0  0  0  0
  -23.2629  -30.2523   20.6684 N   0  0  0  0  0  0  0  0  0  0  0  0
  -28.9942  -14.3584   19.8224 N   0  0  0  0  0  0  0  0  0  0  0  0
  -27.0688  -10.7638   16.4557 N   0  0  0  0  0  0  0  0  0  0  0  0
  -24.8656   -7.7585   17.1689 N   0  0  0  0  0  0  0  0  0  0  0  0
  -29.9199  -16.5261   19.9022 N   0  0  0  0  0  0  0  0  0  0  0  0
  -25.2304  -31.9369   23.2350 N   0  0  0  0  0  0  0  0  0  0  0  0
  -21.0327  -29.5125   18.6335 N   0  0  0  0  0  0  0  0  0  0  0  0
  -21.3384  -26.6249   16.4803 N   0  3  0  0  0  0  0  0  0  0  0  0
  -28.8941  -24.0512   21.7524 O   0  0  0  0  0  0  0  0  0  0  0  0
  -23.5459   -9.5402   16.5838 O   0  0  0  0  0  0  0  0  0  0  0  0
  -23.4247  -30.4668   23.2108 O   0  0  0  0  0  0  0  0  0  0  0  0
  -21.9160  -32.0868   20.1622 O   0  0  0  0  0  0  0  0  0  0  0  0
  -20.2511  -27.3555   18.9704 O   0  0  0  0  0  0  0  0  0  0  0  0
  -27.6128  -16.2153   19.8935 O   0  0  0  0  0  0  0  0  0  0  0  0
  -21.2549   -8.5061   22.9577 O   0  0  0  0  0  0  0  0  0  0  0  0
  -26.4949  -25.0172   21.1175 O   0  0  0  0  0  0  0  0  0  1  0  0
  -21.6640   -3.3328   24.8213 F   0  0  0  0  0  0  0  0  0  0  0  0
  -21.4950   -7.9878   25.6626 F   0  0  0  0  0  0  0  0  0  0  0  0
  1  2  1  0  0  0  0
  1  5  2  0  0  0  0
  2  6  2  0  0  0  0
  3  8  2  0  0  0  0
  3 16  1  0  0  0  0
  4  9  1  0  0  0  0
  4 16  2  0  0  0  0
  5 18  1  0  0  0  0
  6 20  1  0  0  0  0
  7 10  2  0  0  0  0
  7 19  1  0  0  0  0
  8 27  1  0  0  0  0
  9 27  2  0  0  0  0
 10 28  1  0  0  0  0
 11 12  2  0  0  0  0
 11 29  1  0  0  0  0
 12 30  1  0  0  0  0
 13 21  1  0  0  0  0
 13 28  2  0  0  0  0
 14 22  1  0  0  0  0
 14 23  2  0  0  0  0
 15 30  2  0  0  0  0
 15 31  1  0  0  0  0
 16 32  1  0  0  0  0
 17 32  1  0  0  0  0
 17 33  2  0  0  0  0
 17 35  1  0  0  0  0
 18 20  2  0  0  0  0
 18 40  1  0  0  0  0
 19 21  2  0  0  0  0
 19 41  1  0  0  0  0
 20 52  1  0  0  0  0
 21 42  1  0  0  0  0
 22 24  2  0  0  0  0
 22 64  1  0  0  0  0
 23 26  1  0  0  0  0
 23 56  1  0  0  0  0
 24 25  1  0  0  0  0
 24 57  1  0  0  0  0
 25 26  2  0  0  0  0
 25 58  1  0  0  0  0
 26 75  1  0  0  0  0
 27 85  1  0  0  0  0
 28 86  1  0  0  0  0
 29 31  2  0  0  0  0
 29 85  1  0  0  0  0
 30 87  1  0  0  0  0
 31 88  1  0  0  0  0
 32 68  2  0  0  0  0
 33 69  1  0  0  0  0
 33 73  1  0  0  0  0
 34 53  1  0  0  0  0
 34 70  1  0  0  0  0
 34 79  2  0  0  0  0
 35 74  1  0  0  0  0
 35 80  2  0  0  0  0
 36 54  1  0  0  0  0
 36 76  1  0  0  0  0
 36 81  2  0  0  0  0
 37 65  1  0  0  0  0
 37 71  1  0  0  0  0
 37 82  2  0  0  0  0
 38 66  1  0  0  0  0
 38 77  1  0  0  0  0
 38 83  2  0  0  0  0
 39 72  1  0  0  0  0
 39 75  1  0  0  0  0
 39 84  2  0  0  0  0
 40 43  1  0  0  0  0
 41 54  1  0  0  0  0
 42 71  1  0  0  0  0
 43 46  1  0  0  0  0
 44 47  1  0  0  0  0
 44 49  1  0  0  0  0
 45 48  1  0  0  0  0
 45 50  1  0  0  0  0
 46 52  1  0  0  0  0
 47 53  1  0  0  0  0
 48 55  1  0  0  0  0
 49 70  1  0  0  0  0
 50 72  1  0  0  0  0
 51 55  1  0  0  0  0
 51 72  1  0  0  0  0
 52 76  1  0  0  0  0
 53 86  1  0  0  0  0
 54 71  1  0  0  0  0
 55 69  1  0  0  0  0
 59 66  1  0  0  0  0
 60 67  1  0  0  0  0
 61 67  1  0  0  0  0
 62 67  1  0  0  0  0
 63 78  1  0  0  0  0
 64 70  1  0  0  0  0
 65 67  1  0  0  0  0
 65 77  1  0  0  0  0
 66 78  1  0  0  0  0
 68 69  1  0  0  0  0
M  CHG  1  78   1
M  ISO  4  39 100  53 101  75 100  86 101
M  END
> <Batch ID>
0034

> <Smiles>
CNC(C)C(=O)NC(C(=O)N1Cc2cc([101O:1][101CH:1]3CCCN(Cc4cc(C)c([100NH:0][100C:0](=O)N5CCCC(n6nc(-c7ccc(Oc8ccc(F)cc8F)cc7)c(C(N)=O)c6N)C5)c(C)c4C)C3=O)ccc2CC1C(=O)NC1CCCc2ccccc21)C(C)(C)C

> <Shape>
0.311

> <Color>
0.082

> <Negative vol penalty>
0.000

$$$$

  -OEChem-04042321483D

 87 96  0     1  0  0  0  0  0999 V2000
  -29.9192   -9.0862   20.1614 C   0  0  0  0  0  0  0  0  0  0  0  0
  -29.5939   -9.4603   21.4603 C   0  0  0  0  0  0  0  0  0  0  0  0
  -27.6759  -25.0330   20.3410 C   0  0  0  0  0  0  0  0  0  0  0  0
  -25.2775  -24.7638   20.2311 C   0  0  0  0  0  0  0  0  0  0  0  0
  -29.8511  -10.0231   19.1325 C   0  0  0  0  0  0  0  0  0  0  0  0
  -29.1891  -10.7683   21.7287 C   0  0  0  0  0  0  0  0  0  0  0  0
  -25.6938  -17.7425   24.6521 C   0  0  0  0  0  0  0  0  0  0  0  0
  -27.7914  -23.7688   20.9191 C   0  0  0  0  0  0  0  0  0  0  0  0
  -25.3929  -23.4996   20.8091 C   0  0  0  0  0  0  0  0  0  0  0  0
  -25.2268  -18.9222   24.0741 C   0  0  0  0  0  0  0  0  0  0  0  0
  -28.7494  -20.4642   22.0923 C   0  0  0  0  0  0  0  0  0  0  0  0
  -29.7472  -19.6183   21.6081 C   0  0  0  0  0  0  0  0  0  0  0  0
  -24.3067  -17.6527   22.2408 C   0  0  0  0  0  0  0  0  0  0  0  0
  -19.9949  -25.1389   22.1313 C   0  0  0  0  0  0  0  0  0  0  0  0
  -22.0727  -24.7315   23.2949 C   0  0  0  0  0  0  0  0  0  0  0  0
  -28.7498  -19.7004   19.4091 C   0  0  0  0  0  0  0  0  0  0  0  0
  -26.4190  -25.5305   19.9971 C   0  0  0  0  0  0  0  0  0  0  0  0
  -26.8703  -27.2741   18.1905 C   0  0  0  0  0  0  0  0  0  0  0  0
  -29.4571  -11.3463   19.3914 C   0  0  0  0  0  0  0  0  0  0  0  0
  -25.4799  -16.5080   24.0222 C   0  0  0  0  0  0  0  0  0  0  0  0
  -29.0910  -11.7224   20.6998 C   0  0  0  0  0  0  0  0  0  0  0  0
  -24.7698  -16.4585   22.8141 C   0  0  0  0  0  0  0  0  0  0  0  0
  -20.8106  -24.2982   22.8885 C   0  0  0  0  0  0  0  0  0  0  0  0
  -21.7033  -26.8464   22.1867 C   0  0  0  0  0  0  0  0  0  0  0  0
  -26.6499  -23.0021   21.1531 C   0  0  0  0  0  0  0  0  0  0  0  0
  -24.5357  -18.8777   22.8669 C   0  0  0  0  0  0  0  0  0  0  0  0
  -27.7517  -20.9281   21.2349 C   0  0  0  0  0  0  0  0  0  0  0  0
  -29.7475  -19.2365   20.2666 C   0  0  0  0  0  0  0  0  0  0  0  0
  -27.7519  -20.5462   19.8933 C   0  0  0  0  0  0  0  0  0  0  0  0
  -20.4413  -26.4130   21.7804 C   0  0  0  0  0  0  0  0  0  0  0  0
  -22.5190  -26.0057   22.9440 C   0  0  0  0  0  0  0  0  0  0  0  0
  -26.2991  -26.8366   19.4004 C   0  0  0  0  0  0  0  0  0  0  0  0
  -26.4618  -28.5800   18.0704 C   0  0  0  0  0  0  0  0  0  0  0  0
  -22.1365  -21.2826   22.9360 C   0  0  0  0  0  0  0  0  0  0  0  0
  -27.6963  -26.5637   17.2584 C   0  0  0  0  0  0  0  0  0  0  0  0
  -27.3632  -14.2444   22.8252 C   0  0  0  0  0  0  0  0  0  0  0  0
  -24.5596  -12.6573   22.4465 C   0  0  0  0  0  0  0  0  0  0  0  0
  -21.2072  -13.4526   21.3757 C   0  0  0  0  0  0  0  0  0  0  0  0
  -23.0323  -28.9557   22.5478 C   0  0  0  0  0  0  0  0  0  0  0  0
  -29.3934  -12.3175   18.2391 C   0  0  0  0  0  0  0  0  0  0  0  0
  -25.9668  -15.2419   24.6720 C   0  0  0  0  0  0  0  0  0  0  0  0
  -24.4962  -15.1567   22.1079 C   0  0  0  0  0  0  0  0  0  0  0  0
  -29.3853  -13.7747   18.6895 C   0  0  0  0  0  0  0  0  0  0  0  0
  -20.9376  -20.4859   20.3835 C   0  0  0  0  0  0  0  0  0  0  0  0
  -26.1054  -30.7786   21.7260 C   0  0  0  0  0  0  0  0  0  0  0  0
  -28.3394  -13.9772   19.7757 C   0  0  0  0  0  0  0  0  0  0  0  0
  -22.4230  -20.2963   20.6093 C   0  0  0  0  0  0  0  0  0  0  0  0
  -25.9581  -31.1097   20.2462 C   0  0  0  0  0  0  0  0  0  0  0  0
  -20.4682  -21.7393   21.1002 C   0  0  0  0  0  0  0  0  0  0  0  0
  -24.7476  -30.7353   22.4104 C   0  0  0  0  0  0  0  0  0  0  0  0
  -23.6666  -29.9955   20.2884 C   0  0  0  0  0  0  0  0  0  0  0  0
  -28.6775  -13.1473   21.0207 C   0  0  1  0  0  0  0  0  0  0  0  0
  -22.6804  -20.1350   22.0946 C   0  0  1  0  0  0  0  0  0  1  0  0
  -26.1402  -14.0920   23.6846 C   0  0  1  0  0  0  0  0  0  0  0  0
  -25.0031  -30.1431   19.5293 C   0  0  2  0  0  0  0  0  0  0  0  0
  -19.0131  -12.3786   21.9499 C   0  0  0  0  0  0  0  0  0  0  0  0
  -25.0166  -11.0375   19.9015 C   0  0  0  0  0  0  0  0  0  0  0  0
  -22.5641  -11.2162   19.4306 C   0  0  0  0  0  0  0  0  0  0  0  0
  -23.3557  -10.0447   21.4858 C   0  0  0  0  0  0  0  0  0  0  0  0
  -20.0597  -16.0200   22.2981 C   0  0  0  0  0  0  0  0  0  0  0  0
  -20.3305  -22.9264   23.2653 C   0  0  0  0  0  0  0  0  0  0  0  0
  -23.5233  -12.5639   21.3528 C   0  0  1  0  0  0  0  0  0  0  0  0
  -19.9674  -13.5244   22.2487 C   0  0  2  0  0  0  0  0  0  0  0  0
  -23.6307  -11.2390   20.5462 C   0  0  0  0  0  0  0  0  0  0  0  0
  -25.5824  -27.7873   20.0058 N   0  0  0  0  0  0  0  0  0  0  0  0
  -25.7007  -28.8353   19.1729 N   0  0  0  0  0  0  0  0  0  0  0  0
  -20.9684  -21.8874   22.4680 N   0  0  0  0  0  0  0  0  0  0  0  0
  -24.9979  -13.9467   22.7800 N   0  0  0  0  0  0  0  0  0  0  0  0
  -23.8144  -29.8228   21.7453 N   0  0  0  0  0  0  0  0  0  0  0  0
  -26.6832  -29.5232   17.1303 N   0  0  0  0  0  0  0  0  0  0  0  0
  -28.0205  -25.2286   17.5355 N   0  0  0  0  0  0  0  0  0  0  0  0
  -22.1559  -28.1409   21.8306 N   0  0  0  0  0  0  0  0  0  0  0  0
  -27.5630  -13.2014   21.9410 N   0  0  0  0  0  0  0  0  0  0  0  0
  -22.2303  -12.7681   21.9970 N   0  0  0  0  0  0  0  0  0  0  0  0
  -19.2463  -14.8084   22.0197 N   0  3  0  0  0  0  0  0  0  0  0  0
  -22.6898  -21.5827   23.9972 O   0  0  0  0  0  0  0  0  0  0  0  0
  -28.1475  -27.1020   16.2191 O   0  0  0  0  0  0  0  0  0  0  0  0
  -28.0722  -15.2356   22.9536 O   0  0  0  0  0  0  0  0  0  0  0  0
  -24.9600  -11.6249   22.9900 O   0  0  0  0  0  0  0  0  0  0  0  0
  -21.2614  -13.9505   20.2534 O   0  0  0  0  0  0  0  0  0  0  0  0
  -23.1190  -28.9524   23.7784 O   0  0  0  0  0  0  0  0  0  0  0  0
  -26.7621  -21.7684   21.7169 O   0  0  0  0  0  0  0  0  0  0  0  0
  -24.0793  -20.0277   22.3002 O   0  0  0  0  0  0  0  0  0  1  0  0
  -30.7067  -18.4255   19.8014 F   0  0  0  0  0  0  0  0  0  0  0  0
  -26.7967  -20.9896   19.0646 F   0  0  0  0  0  0  0  0  0  0  0  0
  -19.3938  -27.4180   20.8421 Cl  0  0  0  0  0  0  0  0  0  0  0  0
  -24.0900  -26.4970   23.4719 Cl  0  0  0  0  0  0  0  0  0  0  0  0
  1  2  1  0  0  0  0
  1  5  2  0  0  0  0
  2  6  2  0  0  0  0
  3  8  2  0  0  0  0
  3 17  1  0  0  0  0
  4  9  1  0  0  0  0
  4 17  2  0  0  0  0
  5 19  1  0  0  0  0
  6 21  1  0  0  0  0
  7 10  2  0  0  0  0
  7 20  1  0  0  0  0
  8 25  1  0  0  0  0
  9 25  2  0  0  0  0
 10 26  1  0  0  0  0
 11 12  2  0  0  0  0
 11 27  1  0  0  0  0
 12 28  1  0  0  0  0
 13 22  1  0  0  0  0
 13 26  2  0  0  0  0
 14 23  1  0  0  0  0
 14 30  2  0  0  0  0
 15 23  2  0  0  0  0
 15 31  1  0  0  0  0
 16 28  2  0  0  0  0
 16 29  1  0  0  0  0
 17 32  1  0  0  0  0
 18 32  1  0  0  0  0
 18 33  2  0  0  0  0
 18 35  1  0  0  0  0
 19 21  2  0  0  0  0
 19 40  1  0  0  0  0
 20 22  2  0  0  0  0
 20 41  1  0  0  0  0
 21 52  1  0  0  0  0
 22 42  1  0  0  0  0
 23 61  1  0  0  0  0
 24 30  1  0  0  0  0
 24 31  2  0  0  0  0
 24 72  1  0  0  0  0
 25 82  1  0  0  0  0
 26 83  1  0  0  0  0
 27 29  2  0  0  0  0
 27 82  1  0  0  0  0
 28 84  1  0  0  0  0
 29 85  1  0  0  0  0
 30 86  1  0  0  0  0
 31 87  1  0  0  0  0
 32 65  2  0  0  0  0
 33 66  1  0  0  0  0
 33 70  1  0  0  0  0
 34 53  1  0  0  0  0
 34 67  1  0  0  0  0
 34 76  2  0  0  0  0
 35 71  1  0  0  0  0
 35 77  2  0  0  0  0
 36 54  1  0  0  0  0
 36 73  1  0  0  0  0
 36 78  2  0  0  0  0
 37 62  1  0  0  0  0
 37 68  1  0  0  0  0
 37 79  2  0  0  0  0
 38 63  1  0  0  0  0
 38 74  1  0  0  0  0
 38 80  2  0  0  0  0
 39 69  1  0  0  0  0
 39 72  1  0  0  0  0
 39 81  2  0  0  0  0
 40 43  1  0  0  0  0
 41 54  1  0  0  0  0
 42 68  1  0  0  0  0
 43 46  1  0  0  0  0
 44 47  1  0  0  0  0
 44 49  1  0  0  0  0
 45 48  1  0  0  0  0
 45 50  1  0  0  0  0
 46 52  1  0  0  0  0
 47 53  1  0  0  0  0
 48 55  1  0  0  0  0
 49 67  1  0  0  0  0
 50 69  1  0  0  0  0
 51 55  1  0  0  0  0
 51 69  1  0  0  0  0
 52 73  1  0  0  0  0
 53 83  1  0  0  0  0
 54 68  1  0  0  0  0
 55 66  1  0  0  0  0
 56 63  1  0  0  0  0
 57 64  1  0  0  0  0
 58 64  1  0  0  0  0
 59 64  1  0  0  0  0
 60 75  1  0  0  0  0
 61 67  1  0  0  0  0
 62 64  1  0  0  0  0
 62 74  1  0  0  0  0
 63 75  1  0  0  0  0
 65 66  1  0  0  0  0
M  CHG  1  75   1
M  ISO  4  39 100  53 101  72 100  83 101
M  END
> <Batch ID>
0034

> <Smiles>
CNC(C)C(=O)NC(C(=O)N1Cc2cc([101O:1][101CH:1]3CCCN(Cc4cc(Cl)c([100NH:0][100C:0](=O)N5CCCC(n6nc(-c7ccc(Oc8ccc(F)cc8F)cc7)c(C(N)=O)c6N)C5)c(Cl)c4)C3=O)ccc2CC1C(=O)NC1CCCc2ccccc21)C(C)(C)C

> <Shape>
0.216

> <Color>
0.078

> <Negative vol penalty>
0.000

$$$$

  -OEChem-04042321483D

 90 99  0     1  0  0  0  0  0999 V2000
  -31.1005  -11.3722   24.0216 C   0  0  0  0  0  0  0  0  0  0  0  0
  -31.4424  -12.6680   24.3915 C   0  0  0  0  0  0  0  0  0  0  0  0
  -22.6313  -10.2780   20.2337 C   0  0  0  0  0  0  0  0  0  0  0  0
  -24.2541   -9.5335   21.8613 C   0  0  0  0  0  0  0  0  0  0  0  0
  -29.9145  -10.8085   24.4874 C   0  0  0  0  0  0  0  0  0  0  0  0
  -30.6045  -13.3962   25.2368 C   0  0  0  0  0  0  0  0  0  0  0  0
  -30.9748  -19.1605   27.1767 C   0  0  0  0  0  0  0  0  0  0  0  0
  -21.8771   -9.1265   20.4588 C   0  0  0  0  0  0  0  0  0  0  0  0
  -23.4999   -8.3820   22.0865 C   0  0  0  0  0  0  0  0  0  0  0  0
  -30.5116  -20.4129   26.7758 C   0  0  0  0  0  0  0  0  0  0  0  0
  -19.7086   -6.2096   20.3441 C   0  0  0  0  0  0  0  0  0  0  0  0
  -19.2120   -5.5300   19.2319 C   0  0  0  0  0  0  0  0  0  0  0  0
  -28.6553  -20.2085   28.3028 C   0  0  0  0  0  0  0  0  0  0  0  0
  -28.2889  -19.0216   23.5952 C   0  0  0  0  0  0  0  0  0  0  0  0
  -28.9700  -20.0376   21.5118 C   0  0  0  0  0  0  0  0  0  0  0  0
  -21.4665   -5.1918   18.4320 C   0  0  0  0  0  0  0  0  0  0  0  0
  -23.8198  -10.4816   20.9349 C   0  0  0  0  0  0  0  0  0  0  0  0
  -24.1910  -13.0050   20.8876 C   0  0  0  0  0  0  0  0  0  0  0  0
  -29.0562  -11.5353   25.3288 C   0  0  0  0  0  0  0  0  0  0  0  0
  -30.2745  -18.4167   28.1373 C   0  0  0  0  0  0  0  0  0  0  0  0
  -29.4150  -12.8361   25.7368 C   0  0  0  0  0  0  0  0  0  0  0  0
  -29.1131  -18.9480   28.7160 C   0  0  0  0  0  0  0  0  0  0  0  0
  -28.1889  -20.0582   22.6672 C   0  0  0  0  0  0  0  0  0  0  0  0
  -29.1701  -17.9645   23.3678 C   0  0  0  0  0  0  0  0  0  0  0  0
  -29.8512  -18.9805   21.2843 C   0  0  0  0  0  0  0  0  0  0  0  0
  -29.9512  -17.9439   22.2123 C   0  0  0  0  0  0  0  0  0  0  0  0
  -22.3114   -8.1784   21.3853 C   0  0  0  0  0  0  0  0  0  0  0  0
  -29.3501  -20.9359   27.3368 C   0  0  0  0  0  0  0  0  0  0  0  0
  -21.0842   -6.3804   20.5003 C   0  0  0  0  0  0  0  0  0  0  0  0
  -20.0910   -5.0210   18.2758 C   0  0  0  0  0  0  0  0  0  0  0  0
  -21.9631   -5.8715   19.5442 C   0  0  0  0  0  0  0  0  0  0  0  0
  -24.5996  -11.6706   20.7023 C   0  0  0  0  0  0  0  0  0  0  0  0
  -25.2867  -13.7524   20.5310 C   0  0  0  0  0  0  0  0  0  0  0  0
  -26.9828  -23.5255   23.5290 C   0  0  0  0  0  0  0  0  0  0  0  0
  -27.6168  -25.3888   20.4287 C   0  0  0  0  0  0  0  0  0  0  0  0
  -26.9041  -24.4698   22.5792 C   0  0  0  0  0  0  0  0  0  0  0  0
  -27.6958  -24.4469   21.3754 C   0  0  0  0  0  0  0  0  0  0  0  0
  -22.9333  -13.5226   21.3416 C   0  0  0  0  0  0  0  0  0  0  0  0
  -28.8053  -15.5980   28.1581 C   0  0  0  0  0  0  0  0  0  0  0  0
  -28.4935  -16.2219   31.3261 C   0  0  0  0  0  0  0  0  0  0  0  0
  -27.6944  -19.0774   33.3814 C   0  0  0  0  0  0  0  0  0  0  0  0
  -30.7848  -14.7000   20.6670 C   0  0  0  0  0  0  0  0  0  0  0  0
  -27.7889  -10.8737   25.8099 C   0  0  0  0  0  0  0  0  0  0  0  0
  -30.8019  -17.0789   28.5784 C   0  0  0  0  0  0  0  0  0  0  0  0
  -28.3358  -18.1983   29.7658 C   0  0  0  0  0  0  0  0  0  0  0  0
  -26.1540  -23.5537   24.7843 C   0  0  0  0  0  0  0  0  0  0  0  0
  -26.7595  -11.8703   26.3328 C   0  0  0  0  0  0  0  0  0  0  0  0
  -27.0423  -23.3801   26.0103 C   0  0  0  0  0  0  0  0  0  0  0  0
  -29.5825  -12.4043   18.2255 C   0  0  0  0  0  0  0  0  0  0  0  0
  -27.4151  -12.8256   27.3188 C   0  0  0  0  0  0  0  0  0  0  0  0
  -28.1482  -12.1144   18.6710 C   0  0  0  0  0  0  0  0  0  0  0  0
  -30.5201  -12.5769   19.4185 C   0  0  0  0  0  0  0  0  0  0  0  0
  -28.6483  -13.2871   20.8558 C   0  0  0  0  0  0  0  0  0  0  0  0
  -28.8074  -22.3068   24.5621 C   0  0  0  0  0  0  0  0  0  0  0  0
  -28.5042  -13.6582   26.6307 C   0  0  1  0  0  0  0  0  0  0  0  0
  -29.7273  -16.1848   29.1893 C   0  0  1  0  0  0  0  0  0  0  0  0
  -27.6547  -13.1607   19.6883 C   0  0  2  0  0  0  0  0  0  0  0  0
  -27.9905  -22.1923   25.8466 C   0  0  1  0  0  0  0  0  0  1  0  0
  -29.2575  -16.8663   24.3767 C   0  0  0  0  0  0  0  0  0  0  0  0
  -30.6765  -18.9820   20.0390 C   0  0  0  0  0  0  0  0  0  0  0  0
  -28.3288  -19.6116   35.7499 C   0  0  0  0  0  0  0  0  0  0  0  0
  -25.8173  -14.9349   32.0273 C   0  0  0  0  0  0  0  0  0  0  0  0
  -25.5155  -16.6874   33.7897 C   0  0  0  0  0  0  0  0  0  0  0  0
  -27.4294  -15.0940   33.9326 C   0  0  0  0  0  0  0  0  0  0  0  0
  -28.8651  -21.6817   32.6030 C   0  0  0  0  0  0  0  0  0  0  0  0
  -30.8956  -16.8102   21.9685 C   0  0  0  0  0  0  0  0  0  0  0  0
  -27.2416  -21.1955   22.9122 C   0  0  0  0  0  0  0  0  0  0  0  0
  -27.4633  -16.9180   32.1823 C   0  0  1  0  0  0  0  0  0  0  0  0
  -28.6465  -19.8446   34.2811 C   0  0  2  0  0  0  0  0  0  0  0  0
  -26.5606  -15.9159   32.9558 C   0  0  0  0  0  0  0  0  0  0  0  0
  -25.8568  -11.5728   20.2620 N   0  0  0  0  0  0  0  0  0  0  0  0
  -26.2476  -12.8552   20.1676 N   0  0  0  0  0  0  0  0  0  0  0  0
  -28.8884  -16.8916   30.1593 N   0  0  0  0  0  0  0  0  0  0  0  0
  -29.9955  -13.5839   20.3440 N   0  0  0  0  0  0  0  0  0  0  0  0
  -25.5124  -15.0829   20.4959 N   0  0  0  0  0  0  0  0  0  0  0  0
  -22.7516  -13.7261   22.7163 N   0  0  0  0  0  0  0  0  0  0  0  0
  -29.2397  -14.3953   27.6344 N   0  0  0  0  0  0  0  0  0  0  0  0
  -28.2004  -17.8416   33.0379 N   0  0  0  0  0  0  0  0  0  0  0  0
  -30.2098  -15.6092   21.5464 N   0  0  0  0  0  0  0  0  0  0  0  0
  -27.9359  -22.4590   23.3394 N   0  3  1  0  0  0  0  0  0  0  0  0
  -28.5541  -21.3064   34.0064 N   0  3  0  0  0  0  0  0  0  0  0  0
  -21.9926  -13.7810   20.5531 O   0  0  0  0  0  0  0  0  0  0  0  0
  -27.7753  -16.1917   27.8608 O   0  0  0  0  0  0  0  0  0  0  0  0
  -28.9369  -15.1276   31.6831 O   0  0  0  0  0  0  0  0  0  0  0  0
  -26.6085  -19.5278   33.0227 O   0  0  0  0  0  0  0  0  0  0  0  0
  -31.9160  -14.8759   20.2017 O   0  0  0  0  0  0  0  0  0  0  0  0
  -21.5756   -7.0547   21.6054 O   0  0  0  0  0  0  0  0  0  0  0  0
  -28.8955  -22.1578   26.9468 O   0  0  0  0  0  0  0  0  0  1  0  0
  -19.6140   -4.3670   17.2086 F   0  0  0  0  0  0  0  0  0  0  0  0
  -23.2857   -6.0314   19.6894 F   0  0  0  0  0  0  0  0  0  0  0  0
  1  2  1  0  0  0  0
  1  5  2  0  0  0  0
  2  6  2  0  0  0  0
  3  8  2  0  0  0  0
  3 17  1  0  0  0  0
  4  9  1  0  0  0  0
  4 17  2  0  0  0  0
  5 19  1  0  0  0  0
  6 21  1  0  0  0  0
  7 10  2  0  0  0  0
  7 20  1  0  0  0  0
  8 27  1  0  0  0  0
  9 27  2  0  0  0  0
 10 28  1  0  0  0  0
 11 12  2  0  0  0  0
 11 29  1  0  0  0  0
 12 30  1  0  0  0  0
 13 22  1  0  0  0  0
 13 28  2  0  0  0  0
 14 23  1  0  0  0  0
 14 24  2  0  0  0  0
 15 23  2  0  0  0  0
 15 25  1  0  0  0  0
 16 30  2  0  0  0  0
 16 31  1  0  0  0  0
 17 32  1  0  0  0  0
 18 32  1  0  0  0  0
 18 33  2  0  0  0  0
 18 38  1  0  0  0  0
 19 21  2  0  0  0  0
 19 43  1  0  0  0  0
 20 22  2  0  0  0  0
 20 44  1  0  0  0  0
 21 55  1  0  0  0  0
 22 45  1  0  0  0  0
 23 67  1  0  0  0  0
 24 26  1  0  0  0  0
 24 59  1  0  0  0  0
 25 26  2  0  0  0  0
 25 60  1  0  0  0  0
 26 66  1  0  0  0  0
 27 87  1  0  0  0  0
 28 88  1  0  0  0  0
 29 31  2  0  0  0  0
 29 87  1  0  0  0  0
 30 89  1  0  0  0  0
 31 90  1  0  0  0  0
 32 71  2  0  0  0  0
 33 72  1  0  0  0  0
 33 75  1  0  0  0  0
 34 36  2  0  0  0  0
 34 46  1  0  0  0  0
 34 80  1  0  0  0  0
 35 37  2  0  0  0  0
 36 37  1  0  0  0  0
 38 76  1  0  0  0  0
 38 82  2  0  0  0  0
 39 56  1  0  0  0  0
 39 77  1  0  0  0  0
 39 83  2  0  0  0  0
 40 68  1  0  0  0  0
 40 73  1  0  0  0  0
 40 84  2  0  0  0  0
 41 69  1  0  0  0  0
 41 78  1  0  0  0  0
 41 85  2  0  0  0  0
 42 74  1  0  0  0  0
 42 79  1  0  0  0  0
 42 86  2  0  0  0  0
 43 47  1  0  0  0  0
 44 56  1  0  0  0  0
 45 73  1  0  0  0  0
 46 48  1  0  0  0  0
 47 50  1  0  0  0  0
 48 58  1  0  0  0  0
 49 51  1  0  0  0  0
 49 52  1  0  0  0  0
 50 55  1  0  0  0  0
 51 57  1  0  0  0  0
 52 74  1  0  0  0  0
 53 57  1  0  0  0  0
 53 74  1  0  0  0  0
 54 58  1  0  0  0  0
 54 80  1  0  0  0  0
 55 77  1  0  0  0  0
 56 73  1  0  0  0  0
 57 72  1  0  0  0  0
 58 88  1  0  0  0  0
 61 69  1  0  0  0  0
 62 70  1  0  0  0  0
 63 70  1  0  0  0  0
 64 70  1  0  0  0  0
 65 81  1  0  0  0  0
 66 79  1  0  0  0  0
 67 80  1  0  0  0  0
 68 70  1  0  0  0  0
 68 78  1  0  0  0  0
 69 81  1  0  0  0  0
 71 72  1  0  0  0  0
M  CHG  2  80   1  81   1
M  ISO  4  42 100  58 101  79 100  88 101
M  END
> <Batch ID>
0034

> <Smiles>
C=CC=C1CC[101CH:1]([101O:1]c2ccc3c(c2)CN(C(=O)C(NC(=O)C(C)NC)C(C)(C)C)C(C(=O)NC2CCCc4ccccc42)C3)CN1Cc1cc(C)c(C[100NH:0][100C:0](=O)N2CCCC(n3nc(-c4ccc(Oc5ccc(F)cc5F)cc4)c(C(N)=O)c3N)C2)c(C)c1

> <Shape>
0.162

> <Color>
0.166

> <Negative vol penalty>
0.000

$$$$

  -OEChem-04042321483D

 87 96  0     1  0  0  0  0  0999 V2000
  -19.5753  -23.8644   22.7121 C   0  0  0  0  0  0  0  0  0  0  0  0
  -20.7546  -24.1572   22.0346 C   0  0  0  0  0  0  0  0  0  0  0  0
  -22.1386  -11.6616   21.7175 C   0  0  0  0  0  0  0  0  0  0  0  0
  -22.6188  -12.1893   19.4093 C   0  0  0  0  0  0  0  0  0  0  0  0
  -18.7119  -24.8943   23.0835 C   0  0  0  0  0  0  0  0  0  0  0  0
  -21.0707  -25.4801   21.7273 C   0  0  0  0  0  0  0  0  0  0  0  0
  -25.9064  -26.6044   22.7258 C   0  0  0  0  0  0  0  0  0  0  0  0
  -21.6966  -10.3949   21.3361 C   0  0  0  0  0  0  0  0  0  0  0  0
  -22.1768  -10.9225   19.0278 C   0  0  0  0  0  0  0  0  0  0  0  0
  -26.8633  -26.1704   21.8094 C   0  0  0  0  0  0  0  0  0  0  0  0
  -23.0758   -7.4298   20.4763 C   0  0  0  0  0  0  0  0  0  0  0  0
  -23.5085   -6.3383   21.2293 C   0  0  0  0  0  0  0  0  0  0  0  0
  -26.9342  -28.3807   20.8458 C   0  0  0  0  0  0  0  0  0  0  0  0
  -28.8271  -21.2726   19.4646 C   0  0  0  0  0  0  0  0  0  0  0  0
  -26.2855  -22.0413   18.6094 C   0  0  0  0  0  0  0  0  0  0  0  0
  -21.2151   -5.7982   21.7641 C   0  0  0  0  0  0  0  0  0  0  0  0
  -22.5996  -12.5589   20.7541 C   0  0  0  0  0  0  0  0  0  0  0  0
  -24.1147  -14.1711   22.0241 C   0  0  0  0  0  0  0  0  0  0  0  0
  -19.0223  -26.2313   22.7890 C   0  0  0  0  0  0  0  0  0  0  0  0
  -25.4475  -27.9292   22.7019 C   0  0  0  0  0  0  0  0  0  0  0  0
  -20.2100  -26.5287   22.0939 C   0  0  0  0  0  0  0  0  0  0  0  0
  -25.9733  -28.8297   21.7645 C   0  0  0  0  0  0  0  0  0  0  0  0
  -28.6791  -22.3691   18.6154 C   0  0  0  0  0  0  0  0  0  0  0  0
  -27.7043  -20.5603   19.8862 C   0  0  0  0  0  0  0  0  0  0  0  0
  -27.4083  -22.7535   18.1877 C   0  0  0  0  0  0  0  0  0  0  0  0
  -26.4335  -20.9447   19.4586 C   0  0  0  0  0  0  0  0  0  0  0  0
  -21.7158  -10.0253   19.9912 C   0  0  0  0  0  0  0  0  0  0  0  0
  -27.3753  -27.0578   20.8673 C   0  0  0  0  0  0  0  0  0  0  0  0
  -21.7128   -7.7056   20.3672 C   0  0  0  0  0  0  0  0  0  0  0  0
  -22.5782   -5.5225   21.8732 C   0  0  0  0  0  0  0  0  0  0  0  0
  -20.7825   -6.8898   21.0111 C   0  0  0  0  0  0  0  0  0  0  0  0
  -23.0558  -13.8678   21.1475 C   0  0  0  0  0  0  0  0  0  0  0  0
  -24.1434  -15.5437   22.0660 C   0  0  0  0  0  0  0  0  0  0  0  0
  -24.9939  -13.2909   22.7368 C   0  0  0  0  0  0  0  0  0  0  0  0
  -22.6294  -29.3186   22.2201 C   0  0  0  0  0  0  0  0  0  0  0  0
  -24.2565  -32.0082   23.0208 C   0  0  0  0  0  0  0  0  0  0  0  0
  -27.4998  -33.4286   22.3272 C   0  0  0  0  0  0  0  0  0  0  0  0
  -23.9552  -20.4990   19.5337 C   0  0  0  0  0  0  0  0  0  0  0  0
  -18.0351  -27.3063   23.1690 C   0  0  0  0  0  0  0  0  0  0  0  0
  -24.4345  -28.3887   23.7145 C   0  0  0  0  0  0  0  0  0  0  0  0
  -25.5287  -30.2677   21.7102 C   0  0  0  0  0  0  0  0  0  0  0  0
  -18.6249  -28.7139   23.1363 C   0  0  0  0  0  0  0  0  0  0  0  0
  -20.8420  -18.9620   20.3231 C   0  0  0  0  0  0  0  0  0  0  0  0
  -19.4207  -28.9297   21.8530 C   0  0  0  0  0  0  0  0  0  0  0  0
  -21.2276  -17.5246   20.6801 C   0  0  0  0  0  0  0  0  0  0  0  0
  -30.7048  -26.9854   20.0154 C   0  0  0  0  0  0  0  0  0  0  0  0
  -30.9287  -26.8281   18.5158 C   0  0  0  0  0  0  0  0  0  0  0  0
  -21.7005  -19.5138   19.1863 C   0  0  0  0  0  0  0  0  0  0  0  0
  -23.5357  -17.9708   19.7524 C   0  0  0  0  0  0  0  0  0  0  0  0
  -29.6864  -24.6796   20.0884 C   0  0  0  0  0  0  0  0  0  0  0  0
  -20.5998  -27.9534   21.7644 C   0  0  1  0  0  0  0  0  0  0  0  0
  -23.6619  -29.6260   23.2676 C   0  0  1  0  0  0  0  0  0  0  0  0
  -22.7418  -17.3943   20.9361 C   0  0  2  0  0  0  0  0  0  0  0  0
  -29.5356  -26.1368   20.4989 C   0  0  2  0  0  0  0  0  0  1  0  0
  -31.0983  -25.3608   18.1041 C   0  0  2  0  0  0  0  0  0  0  0  0
  -27.8925  -19.3899   20.7960 C   0  0  0  0  0  0  0  0  0  0  0  0
  -27.2254  -23.9240   17.2783 C   0  0  0  0  0  0  0  0  0  0  0  0
  -31.2392  -25.2638   16.5862 C   0  0  0  0  0  0  0  0  0  0  0  0
  -28.9035  -35.0210   23.6655 C   0  0  0  0  0  0  0  0  0  0  0  0
  -22.9208  -34.1604   21.3197 C   0  0  0  0  0  0  0  0  0  0  0  0
  -25.1112  -35.3715   21.2566 C   0  0  0  0  0  0  0  0  0  0  0  0
  -23.9571  -34.9975   23.4362 C   0  0  0  0  0  0  0  0  0  0  0  0
  -29.8147  -31.5848   22.3097 C   0  0  0  0  0  0  0  0  0  0  0  0
  -29.9013  -23.1195   18.1748 C   0  0  0  0  0  0  0  0  0  0  0  0
  -25.0499  -33.0438   22.2611 C   0  0  1  0  0  0  0  0  0  0  0  0
  -28.6584  -33.5657   23.2984 C   0  0  2  0  0  0  0  0  0  0  0  0
  -24.2578  -34.3664   22.0593 C   0  0  0  0  0  0  0  0  0  0  0  0
  -22.4551  -14.9598   20.6672 N   0  0  0  0  0  0  0  0  0  0  0  0
  -23.1388  -15.9627   21.2441 N   0  0  0  0  0  0  0  0  0  0  0  0
  -24.5318  -30.6673   22.7172 N   0  0  0  0  0  0  0  0  0  0  0  0
  -23.1226  -19.3603   19.5007 N   0  0  0  0  0  0  0  0  0  0  0  0
  -24.9297  -16.4209   22.7253 N   0  0  0  0  0  0  0  0  0  0  0  0
  -24.8261  -11.9082   22.5802 N   0  0  0  0  0  0  0  0  0  0  0  0
  -25.2808  -20.2342   19.8760 N   0  0  0  0  0  0  0  0  0  0  0  0
  -21.6842  -28.3919   22.6166 N   0  0  0  0  0  0  0  0  0  0  0  0
  -26.3076  -33.2047   22.9828 N   0  0  0  0  0  0  0  0  0  0  0  0
  -29.8834  -24.5726   18.5852 N   0  3  1  0  0  0  0  0  0  0  0  0
  -29.9062  -33.0161   22.6970 N   0  3  0  0  0  0  0  0  0  0  0  0
  -25.8907  -13.7176   23.5030 O   0  0  0  0  0  0  0  0  0  0  0  0
  -22.6853  -29.8817   21.1331 O   0  0  0  0  0  0  0  0  0  0  0  0
  -23.4283  -32.3753   23.8581 O   0  0  0  0  0  0  0  0  0  0  0  0
  -27.6379  -33.5154   21.1091 O   0  0  0  0  0  0  0  0  0  0  0  0
  -23.5180  -21.6294   19.3037 O   0  0  0  0  0  0  0  0  0  0  0  0
  -21.2848   -8.7891   19.6186 O   0  0  0  0  0  0  0  0  0  0  0  0
  -28.3089  -26.6366   19.9713 O   0  0  0  0  0  0  0  0  0  1  0  0
  -22.9937   -4.4735   22.5950 F   0  0  0  0  0  0  0  0  0  0  0  0
  -19.4717   -7.1490   20.9090 F   0  0  0  0  0  0  0  0  0  0  0  0
  1  2  1  0  0  0  0
  1  5  2  0  0  0  0
  2  6  2  0  0  0  0
  3  8  2  0  0  0  0
  3 17  1  0  0  0  0
  4  9  1  0  0  0  0
  4 17  2  0  0  0  0
  5 19  1  0  0  0  0
  6 21  1  0  0  0  0
  7 10  2  0  0  0  0
  7 20  1  0  0  0  0
  8 27  1  0  0  0  0
  9 27  2  0  0  0  0
 10 28  1  0  0  0  0
 11 12  2  0  0  0  0
 11 29  1  0  0  0  0
 12 30  1  0  0  0  0
 13 22  1  0  0  0  0
 13 28  2  0  0  0  0
 14 23  1  0  0  0  0
 14 24  2  0  0  0  0
 15 25  1  0  0  0  0
 15 26  2  0  0  0  0
 16 30  2  0  0  0  0
 16 31  1  0  0  0  0
 17 32  1  0  0  0  0
 18 32  1  0  0  0  0
 18 33  2  0  0  0  0
 18 34  1  0  0  0  0
 19 21  2  0  0  0  0
 19 39  1  0  0  0  0
 20 22  2  0  0  0  0
 20 40  1  0  0  0  0
 21 51  1  0  0  0  0
 22 41  1  0  0  0  0
 23 25  2  0  0  0  0
 23 64  1  0  0  0  0
 24 26  1  0  0  0  0
 24 56  1  0  0  0  0
 25 57  1  0  0  0  0
 26 74  1  0  0  0  0
 27 84  1  0  0  0  0
 28 85  1  0  0  0  0
 29 31  2  0  0  0  0
 29 84  1  0  0  0  0
 30 86  1  0  0  0  0
 31 87  1  0  0  0  0
 32 68  2  0  0  0  0
 33 69  1  0  0  0  0
 33 72  1  0  0  0  0
 34 73  1  0  0  0  0
 34 79  2  0  0  0  0
 35 52  1  0  0  0  0
 35 75  1  0  0  0  0
 35 80  2  0  0  0  0
 36 65  1  0  0  0  0
 36 70  1  0  0  0  0
 36 81  2  0  0  0  0
 37 66  1  0  0  0  0
 37 76  1  0  0  0  0
 37 82  2  0  0  0  0
 38 71  1  0  0  0  0
 38 74  1  0  0  0  0
 38 83  2  0  0  0  0
 39 42  1  0  0  0  0
 40 52  1  0  0  0  0
 41 70  1  0  0  0  0
 42 44  1  0  0  0  0
 43 45  1  0  0  0  0
 43 48  1  0  0  0  0
 44 51  1  0  0  0  0
 45 53  1  0  0  0  0
 46 47  1  0  0  0  0
 46 54  1  0  0  0  0
 47 55  1  0  0  0  0
 48 71  1  0  0  0  0
 49 53  1  0  0  0  0
 49 71  1  0  0  0  0
 50 54  1  0  0  0  0
 50 77  1  0  0  0  0
 51 75  1  0  0  0  0
 52 70  1  0  0  0  0
 53 69  1  0  0  0  0
 54 85  1  0  0  0  0
 55 58  1  0  0  0  0
 55 77  1  0  0  0  0
 59 66  1  0  0  0  0
 60 67  1  0  0  0  0
 61 67  1  0  0  0  0
 62 67  1  0  0  0  0
 63 78  1  0  0  0  0
 64 77  1  0  0  0  0
 65 67  1  0  0  0  0
 65 76  1  0  0  0  0
 66 78  1  0  0  0  0
 68 69  1  0  0  0  0
M  CHG  2  77   1  78   1
M  ISO  4  38 100  54 101  74 100  85 101
M  END
> <Batch ID>
0034

> <Smiles>
CNC(C)C(=O)NC(C(=O)N1Cc2cc([101O:1][101CH:1]3CCC(C)N(Cc4cc(C)c([100NH:0][100C:0](=O)N5CCCC(n6nc(-c7ccc(Oc8ccc(F)cc8F)cc7)c(C(N)=O)c6N)C5)cc4C)C3)ccc2CC1C(=O)NC1CCCc2ccccc21)C(C)(C)C

> <Shape>
0.261

> <Color>
0.081

> <Negative vol penalty>
0.000

$$$$

  -OEChem-04042321483D

 87 96  0     1  0  0  0  0  0999 V2000
  -15.3684  -33.9255   23.4980 C   0  0  0  0  0  0  0  0  0  0  0  0
  -16.6867  -34.2016   23.8462 C   0  0  0  0  0  0  0  0  0  0  0  0
  -26.9377  -13.0211   20.0346 C   0  0  0  0  0  0  0  0  0  0  0  0
  -24.9981  -13.6163   21.3464 C   0  0  0  0  0  0  0  0  0  0  0  0
  -14.9265  -32.6044   23.4380 C   0  0  0  0  0  0  0  0  0  0  0  0
  -17.5637  -33.1568   24.1356 C   0  0  0  0  0  0  0  0  0  0  0  0
  -24.4754  -31.3995   20.9471 C   0  0  0  0  0  0  0  0  0  0  0  0
  -26.7207  -11.6742   20.3248 C   0  0  0  0  0  0  0  0  0  0  0  0
  -24.7811  -12.2694   21.6367 C   0  0  0  0  0  0  0  0  0  0  0  0
  -25.6336  -30.8966   20.3540 C   0  0  0  0  0  0  0  0  0  0  0  0
  -23.4612   -9.5708   20.0887 C   0  0  0  0  0  0  0  0  0  0  0  0
  -22.1561   -9.0894   19.9859 C   0  0  0  0  0  0  0  0  0  0  0  0
  -25.0404  -28.6626   21.0650 C   0  0  0  0  0  0  0  0  0  0  0  0
  -26.7026  -24.1591   16.0462 C   0  0  0  0  0  0  0  0  0  0  0  0
  -28.6973  -24.1092   17.9959 C   0  0  0  0  0  0  0  0  0  0  0  0
  -22.1982   -8.4763   22.3224 C   0  0  0  0  0  0  0  0  0  0  0  0
  -26.0764  -13.9922   20.5454 C   0  0  0  0  0  0  0  0  0  0  0  0
  -27.4421  -16.1468   20.5562 C   0  0  0  0  0  0  0  0  0  0  0  0
  -15.8010  -31.5425   23.7175 C   0  0  0  0  0  0  0  0  0  0  0  0
  -23.5865  -30.5327   21.5888 C   0  0  0  0  0  0  0  0  0  0  0  0
  -17.1327  -31.8204   24.0806 C   0  0  0  0  0  0  0  0  0  0  0  0
  -23.8724  -29.1589   21.6500 C   0  0  0  0  0  0  0  0  0  0  0  0
  -26.8928  -25.2627   16.8777 C   0  0  0  0  0  0  0  0  0  0  0  0
  -27.5096  -23.0304   16.1897 C   0  0  0  0  0  0  0  0  0  0  0  0
  -27.8902  -25.2378   17.8525 C   0  0  0  0  0  0  0  0  0  0  0  0
  -25.6424  -11.2983   21.1258 C   0  0  0  0  0  0  0  0  0  0  0  0
  -25.9155  -29.5316   20.4130 C   0  0  0  0  0  0  0  0  0  0  0  0
  -24.1348   -9.5049   21.3084 C   0  0  0  0  0  0  0  0  0  0  0  0
  -21.5246   -8.5422   21.1027 C   0  0  0  0  0  0  0  0  0  0  0  0
  -23.5033   -8.9577   22.4253 C   0  0  0  0  0  0  0  0  0  0  0  0
  -28.5069  -23.0055   17.1645 C   0  0  0  0  0  0  0  0  0  0  0  0
  -26.3004  -15.3838   20.2464 C   0  0  0  0  0  0  0  0  0  0  0  0
  -27.1629  -17.3982   20.0637 C   0  0  0  0  0  0  0  0  0  0  0  0
  -29.2415  -27.1165   18.8513 C   0  0  0  0  0  0  0  0  0  0  0  0
  -30.2726  -27.3160   18.0177 C   0  0  0  0  0  0  0  0  0  0  0  0
  -28.6475  -15.7591   21.2289 C   0  0  0  0  0  0  0  0  0  0  0  0
  -20.3652  -30.1375   23.4712 C   0  0  0  0  0  0  0  0  0  0  0  0
  -20.5615  -27.7674   21.5336 C   0  0  0  0  0  0  0  0  0  0  0  0
  -20.9551  -25.5493   18.9718 C   0  0  0  0  0  0  0  0  0  0  0  0
  -25.2058  -20.7128   16.0228 C   0  0  0  0  0  0  0  0  0  0  0  0
  -15.2651  -30.1331   23.6856 C   0  0  0  0  0  0  0  0  0  0  0  0
  -22.3578  -31.0387   22.2946 C   0  0  0  0  0  0  0  0  0  0  0  0
  -22.9048  -28.2687   22.3809 C   0  0  0  0  0  0  0  0  0  0  0  0
  -29.1399  -27.8758   20.1564 C   0  0  0  0  0  0  0  0  0  0  0  0
  -16.3569  -29.0671   23.6420 C   0  0  0  0  0  0  0  0  0  0  0  0
  -22.8406  -19.3584   18.3138 C   0  0  0  0  0  0  0  0  0  0  0  0
  -17.4407  -29.3706   24.6716 C   0  0  0  0  0  0  0  0  0  0  0  0
  -23.6221  -18.2630   19.0414 C   0  0  0  0  0  0  0  0  0  0  0  0
  -23.2372  -19.4518   16.8420 C   0  0  0  0  0  0  0  0  0  0  0  0
  -25.4647  -18.5153   17.3268 C   0  0  0  0  0  0  0  0  0  0  0  0
  -27.0953  -26.6221   19.7431 C   0  0  0  0  0  0  0  0  0  0  0  0
  -18.1207  -30.7132   24.3775 C   0  0  1  0  0  0  0  0  0  0  0  0
  -21.1673  -30.0671   22.2050 C   0  0  1  0  0  0  0  0  0  0  0  0
  -25.1395  -18.4203   18.8273 C   0  0  2  0  0  0  0  0  0  0  0  0
  -27.6342  -27.8897   20.4163 C   0  0  2  0  0  0  0  0  0  1  0  0
  -26.0133  -26.4581   16.7036 C   0  0  0  0  0  0  0  0  0  0  0  0
  -30.4411  -26.6071   16.7173 C   0  0  0  0  0  0  0  0  0  0  0  0
  -19.8492  -23.5737   17.8895 C   0  0  0  0  0  0  0  0  0  0  0  0
  -21.4910  -25.9920   23.8331 C   0  0  0  0  0  0  0  0  0  0  0  0
  -21.2393  -24.0164   22.3159 C   0  0  0  0  0  0  0  0  0  0  0  0
  -19.2477  -25.4007   22.8991 C   0  0  0  0  0  0  0  0  0  0  0  0
  -20.6789  -26.9711   16.3909 C   0  0  0  0  0  0  0  0  0  0  0  0
  -27.2728  -21.8682   15.2801 C   0  0  0  0  0  0  0  0  0  0  0  0
  -20.9897  -26.3370   21.3240 C   0  0  1  0  0  0  0  0  0  0  0  0
  -20.0023  -25.0867   17.8843 C   0  0  2  0  0  0  0  0  0  0  0  0
  -20.7587  -25.4583   22.5858 C   0  0  0  0  0  0  0  0  0  0  0  0
  -25.3653  -16.0914   19.6069 N   0  0  0  0  0  0  0  0  0  0  0  0
  -25.9191  -17.3121   19.5108 N   0  0  0  0  0  0  0  0  0  0  0  0
  -28.0956  -26.3437   18.7015 N   0  0  0  0  0  0  0  0  0  0  0  0
  -21.5230  -28.6468   22.0460 N   0  0  0  0  0  0  0  0  0  0  0  0
  -24.6883  -19.6013   16.7084 N   0  0  0  0  0  0  0  0  0  0  0  0
  -27.8623  -18.5528   20.0541 N   0  0  0  0  0  0  0  0  0  0  0  0
  -28.7068  -15.8914   22.6229 N   0  0  0  0  0  0  0  0  0  0  0  0
  -19.0664  -30.5734   23.2910 N   0  0  0  0  0  0  0  0  0  0  0  0
  -20.2863  -25.8705   20.1341 N   0  0  0  0  0  0  0  0  0  0  0  0
  -26.5915  -20.7813   15.9475 N   0  0  0  0  0  0  0  0  0  0  0  0
  -20.5039  -25.5038   16.5444 N   0  3  0  0  0  0  0  0  0  0  0  0
  -29.6483  -15.3240   20.6103 O   0  0  0  0  0  0  0  0  0  0  0  0
  -20.8850  -29.8185   24.5341 O   0  0  0  0  0  0  0  0  0  0  0  0
  -19.4050  -28.0975   21.2566 O   0  0  0  0  0  0  0  0  0  0  0  0
  -22.1713  -25.6154   18.8079 O   0  0  0  0  0  0  0  0  0  0  0  0
  -24.4862  -21.5825   15.5201 O   0  0  0  0  0  0  0  0  0  0  0  0
  -25.4302   -9.9840   21.4091 O   0  0  0  0  0  0  0  0  0  0  0  0
  -27.0457  -29.0467   19.8281 O   0  0  0  0  0  0  0  0  0  1  0  0
  -20.2708   -8.0813   21.0042 F   0  0  0  0  0  0  0  0  0  0  0  0
  -24.1449   -8.8928   23.6000 F   0  0  0  0  0  0  0  0  0  0  0  0
  -29.5254  -21.6270   17.3698 Cl  0  0  0  0  0  0  0  0  0  0  0  0
  1  2  1  0  0  0  0
  1  5  2  0  0  0  0
  2  6  2  0  0  0  0
  3  8  2  0  0  0  0
  3 17  1  0  0  0  0
  4  9  1  0  0  0  0
  4 17  2  0  0  0  0
  5 19  1  0  0  0  0
  6 21  1  0  0  0  0
  7 10  2  0  0  0  0
  7 20  1  0  0  0  0
  8 26  1  0  0  0  0
  9 26  2  0  0  0  0
 10 27  1  0  0  0  0
 11 12  2  0  0  0  0
 11 28  1  0  0  0  0
 12 29  1  0  0  0  0
 13 22  1  0  0  0  0
 13 27  2  0  0  0  0
 14 23  1  0  0  0  0
 14 24  2  0  0  0  0
 15 25  1  0  0  0  0
 15 31  2  0  0  0  0
 16 29  2  0  0  0  0
 16 30  1  0  0  0  0
 17 32  1  0  0  0  0
 18 32  1  0  0  0  0
 18 33  2  0  0  0  0
 18 36  1  0  0  0  0
 19 21  2  0  0  0  0
 19 41  1  0  0  0  0
 20 22  2  0  0  0  0
 20 42  1  0  0  0  0
 21 52  1  0  0  0  0
 22 43  1  0  0  0  0
 23 25  2  0  0  0  0
 23 56  1  0  0  0  0
 24 31  1  0  0  0  0
 24 63  1  0  0  0  0
 25 69  1  0  0  0  0
 26 83  1  0  0  0  0
 27 84  1  0  0  0  0
 28 30  2  0  0  0  0
 28 83  1  0  0  0  0
 29 85  1  0  0  0  0
 30 86  1  0  0  0  0
 31 87  1  0  0  0  0
 32 67  2  0  0  0  0
 33 68  1  0  0  0  0
 33 72  1  0  0  0  0
 34 35  2  0  0  0  0
 34 44  1  0  0  0  0
 34 69  1  0  0  0  0
 35 57  1  0  0  0  0
 36 73  1  0  0  0  0
 36 78  2  0  0  0  0
 37 53  1  0  0  0  0
 37 74  1  0  0  0  0
 37 79  2  0  0  0  0
 38 64  1  0  0  0  0
 38 70  1  0  0  0  0
 38 80  2  0  0  0  0
 39 65  1  0  0  0  0
 39 75  1  0  0  0  0
 39 81  2  0  0  0  0
 40 71  1  0  0  0  0
 40 76  1  0  0  0  0
 40 82  2  0  0  0  0
 41 45  1  0  0  0  0
 42 53  1  0  0  0  0
 43 70  1  0  0  0  0
 44 55  1  0  0  0  0
 45 47  1  0  0  0  0
 46 48  1  0  0  0  0
 46 49  1  0  0  0  0
 47 52  1  0  0  0  0
 48 54  1  0  0  0  0
 49 71  1  0  0  0  0
 50 54  1  0  0  0  0
 50 71  1  0  0  0  0
 51 55  1  0  0  0  0
 51 69  1  0  0  0  0
 52 74  1  0  0  0  0
 53 70  1  0  0  0  0
 54 68  1  0  0  0  0
 55 84  1  0  0  0  0
 58 65  1  0  0  0  0
 59 66  1  0  0  0  0
 60 66  1  0  0  0  0
 61 66  1  0  0  0  0
 62 77  1  0  0  0  0
 63 76  1  0  0  0  0
 64 66  1  0  0  0  0
 64 75  1  0  0  0  0
 65 77  1  0  0  0  0
 67 68  1  0  0  0  0
M  CHG  1  77   1
M  ISO  4  40 100  55 101  76 100  84 101
M  END
> <Batch ID>
0034

> <Smiles>
CC=C1C[101CH:1]([101O:1]c2ccc3c(c2)CN(C(=O)C(NC(=O)C(C)NC)C(C)(C)C)C(C(=O)NC2CCCc4ccccc42)C3)CN1c1cc(Cl)c(C[100NH:0][100C:0](=O)N2CCCC(n3nc(-c4ccc(Oc5ccc(F)cc5F)cc4)c(C(N)=O)c3N)C2)cc1C

> <Shape>
0.255

> <Color>
0.054

> <Negative vol penalty>
0.000

$$$$

  -OEChem-04042321483D

 86 95  0     1  0  0  0  0  0999 V2000
  -39.6957  -26.1589   14.0481 C   0  0  0  0  0  0  0  0  0  0  0  0
  -39.3712  -25.4757   15.2157 C   0  0  0  0  0  0  0  0  0  0  0  0
  -23.0741   -9.8682   19.9430 C   0  0  0  0  0  0  0  0  0  0  0  0
  -23.8314   -9.8787   22.2373 C   0  0  0  0  0  0  0  0  0  0  0  0
  -38.8627  -27.1751   13.5819 C   0  0  0  0  0  0  0  0  0  0  0  0
  -38.2139  -25.8091   15.9184 C   0  0  0  0  0  0  0  0  0  0  0  0
  -35.5942  -21.7336   17.3924 C   0  0  0  0  0  0  0  0  0  0  0  0
  -22.3291   -8.7161   20.1942 C   0  0  0  0  0  0  0  0  0  0  0  0
  -23.0863   -8.7266   22.4885 C   0  0  0  0  0  0  0  0  0  0  0  0
  -36.0648  -21.0437   18.5088 C   0  0  0  0  0  0  0  0  0  0  0  0
  -19.3785   -7.9244   21.6435 C   0  0  0  0  0  0  0  0  0  0  0  0
  -18.0722   -7.8783   21.1569 C   0  0  0  0  0  0  0  0  0  0  0  0
  -34.4113  -22.1440   19.8780 C   0  0  0  0  0  0  0  0  0  0  0  0
  -30.5015  -18.3444   24.0423 C   0  0  0  0  0  0  0  0  0  0  0  0
  -32.0652  -16.5926   22.5359 C   0  0  0  0  0  0  0  0  0  0  0  0
  -18.6319   -5.9324   19.8388 C   0  0  0  0  0  0  0  0  0  0  0  0
  -23.8254  -10.4495   20.9645 C   0  0  0  0  0  0  0  0  0  0  0  0
  -24.1693  -12.9741   20.8403 C   0  0  0  0  0  0  0  0  0  0  0  0
  -37.6895  -27.5146   14.2740 C   0  0  0  0  0  0  0  0  0  0  0  0
  -34.5340  -22.6435   17.5126 C   0  0  0  0  0  0  0  0  0  0  0  0
  -37.3650  -26.8317   15.4618 C   0  0  0  0  0  0  0  0  0  0  0  0
  -33.9274  -22.8422   18.7611 C   0  0  0  0  0  0  0  0  0  0  0  0
  -31.8887  -18.3467   24.1879 C   0  0  0  0  0  0  0  0  0  0  0  0
  -29.8961  -17.4660   23.1435 C   0  0  0  0  0  0  0  0  0  0  0  0
  -32.6706  -17.4709   23.4348 C   0  0  0  0  0  0  0  0  0  0  0  0
  -30.6779  -16.5902   22.3903 C   0  0  0  0  0  0  0  0  0  0  0  0
  -22.3351   -8.1453   21.4669 C   0  0  0  0  0  0  0  0  0  0  0  0
  -35.4752  -21.2510   19.7524 C   0  0  0  0  0  0  0  0  0  0  0  0
  -20.3116   -6.9746   21.2278 C   0  0  0  0  0  0  0  0  0  0  0  0
  -17.6988   -6.8823   20.2545 C   0  0  0  0  0  0  0  0  0  0  0  0
  -19.9383   -5.9786   20.3254 C   0  0  0  0  0  0  0  0  0  0  0  0
  -24.5957  -11.6393   20.7055 C   0  0  0  0  0  0  0  0  0  0  0  0
  -25.2625  -13.7221   20.4770 C   0  0  0  0  0  0  0  0  0  0  0  0
  -36.2618  -18.5779   23.0162 C   0  0  0  0  0  0  0  0  0  0  0  0
  -36.8666  -18.7390   24.1991 C   0  0  0  0  0  0  0  0  0  0  0  0
  -22.8988  -13.4917   21.2569 C   0  0  0  0  0  0  0  0  0  0  0  0
  -34.1918  -25.7660   17.0263 C   0  0  0  0  0  0  0  0  0  0  0  0
  -31.0713  -25.1238   17.6365 C   0  0  0  0  0  0  0  0  0  0  0  0
  -29.2069  -23.0942   19.9651 C   0  0  0  0  0  0  0  0  0  0  0  0
  -30.7293  -14.7637   20.6561 C   0  0  0  0  0  0  0  0  0  0  0  0
  -36.8449  -28.6521   13.7569 C   0  0  0  0  0  0  0  0  0  0  0  0
  -34.0206  -23.3597   16.2937 C   0  0  0  0  0  0  0  0  0  0  0  0
  -32.7731  -23.7929   18.9396 C   0  0  0  0  0  0  0  0  0  0  0  0
  -36.9489  -18.5464   21.6868 C   0  0  0  0  0  0  0  0  0  0  0  0
  -35.4420  -28.6909   14.3573 C   0  0  0  0  0  0  0  0  0  0  0  0
  -29.6157  -12.3465   18.2909 C   0  0  0  0  0  0  0  0  0  0  0  0
  -35.5037  -28.5092   15.8706 C   0  0  0  0  0  0  0  0  0  0  0  0
  -28.1753  -12.0568   18.7193 C   0  0  0  0  0  0  0  0  0  0  0  0
  -30.5296  -12.5767   19.4932 C   0  0  0  0  0  0  0  0  0  0  0  0
  -28.6216  -13.3052   20.8709 C   0  0  0  0  0  0  0  0  0  0  0  0
  -34.5604  -18.6870   21.4105 C   0  0  0  0  0  0  0  0  0  0  0  0
  -36.1053  -27.1476   16.2386 C   0  0  1  0  0  0  0  0  0  0  0  0
  -33.2722  -24.6465   16.6277 C   0  0  1  0  0  0  0  0  0  0  0  0
  -27.6500  -13.1306   19.6923 C   0  0  2  0  0  0  0  0  0  0  0  0
  -35.8737  -19.1576   20.8019 C   0  0  1  0  0  0  0  0  0  1  0  0
  -32.5145  -19.2957   25.1566 C   0  0  0  0  0  0  0  0  0  0  0  0
  -28.4081  -17.4853   23.0079 C   0  0  0  0  0  0  0  0  0  0  0  0
  -26.9346  -22.0487   19.7625 C   0  0  0  0  0  0  0  0  0  0  0  0
  -30.0994  -27.6595   19.0277 C   0  0  0  0  0  0  0  0  0  0  0  0
  -28.4689  -26.2513   20.3031 C   0  0  0  0  0  0  0  0  0  0  0  0
  -28.3196  -26.3865   17.8167 C   0  0  0  0  0  0  0  0  0  0  0  0
  -30.2664  -20.3972   20.5674 C   0  0  0  0  0  0  0  0  0  0  0  0
  -34.1643  -17.4553   23.5746 C   0  0  0  0  0  0  0  0  0  0  0  0
  -30.2104  -25.0845   18.8759 C   0  0  1  0  0  0  0  0  0  0  0  0
  -28.4347  -21.8259   19.6495 C   0  0  2  0  0  0  0  0  0  0  0  0
  -29.3024  -26.3398   19.0069 C   0  0  0  0  0  0  0  0  0  0  0  0
  -25.8609  -11.5417   20.2889 N   0  0  0  0  0  0  0  0  0  0  0  0
  -26.2390  -12.8247   20.1587 N   0  0  0  0  0  0  0  0  0  0  0  0
  -32.3111  -24.4743   17.7190 N   0  0  0  0  0  0  0  0  0  0  0  0
  -29.9704  -13.6096   20.3681 N   0  0  0  0  0  0  0  0  0  0  0  0
  -25.4740  -15.0533   20.4018 N   0  0  0  0  0  0  0  0  0  0  0  0
  -21.8857  -12.5839   21.5946 N   0  0  0  0  0  0  0  0  0  0  0  0
  -30.0817  -15.6907   21.4721 N   0  0  0  0  0  0  0  0  0  0  0  0
  -35.1249  -26.0976   16.0626 N   0  0  0  0  0  0  0  0  0  0  0  0
  -29.4809  -23.8220   18.8265 N   0  0  0  0  0  0  0  0  0  0  0  0
  -34.8286  -18.6245   22.9120 N   0  3  1  0  0  0  0  0  0  0  0  0
  -28.8203  -20.7368   20.5909 N   0  3  0  0  0  0  0  0  0  0  0  0
  -22.6634  -14.7226   21.3117 O   0  0  0  0  0  0  0  0  0  0  0  0
  -34.0631  -26.2910   18.1260 O   0  0  0  0  0  0  0  0  0  0  0  0
  -30.6558  -25.7030   16.6297 O   0  0  0  0  0  0  0  0  0  0  0  0
  -29.5312  -23.4097   21.1078 O   0  0  0  0  0  0  0  0  0  0  0  0
  -31.8590  -14.9307   20.1895 O   0  0  0  0  0  0  0  0  0  0  0  0
  -21.6080   -7.0212   21.7125 O   0  0  0  0  0  0  0  0  0  0  0  0
  -35.9330  -20.5795   20.8439 O   0  0  0  0  0  0  0  0  0  1  0  0
  -16.4438   -6.8373   19.7885 F   0  0  0  0  0  0  0  0  0  0  0  0
  -20.8299   -5.0626   19.9233 F   0  0  0  0  0  0  0  0  0  0  0  0
  1  2  1  0  0  0  0
  1  5  2  0  0  0  0
  2  6  2  0  0  0  0
  3  8  2  0  0  0  0
  3 17  1  0  0  0  0
  4  9  1  0  0  0  0
  4 17  2  0  0  0  0
  5 19  1  0  0  0  0
  6 21  1  0  0  0  0
  7 10  2  0  0  0  0
  7 20  1  0  0  0  0
  8 27  1  0  0  0  0
  9 27  2  0  0  0  0
 10 28  1  0  0  0  0
 11 12  2  0  0  0  0
 11 29  1  0  0  0  0
 12 30  1  0  0  0  0
 13 22  1  0  0  0  0
 13 28  2  0  0  0  0
 14 23  1  0  0  0  0
 14 24  2  0  0  0  0
 15 25  1  0  0  0  0
 15 26  2  0  0  0  0
 16 30  2  0  0  0  0
 16 31  1  0  0  0  0
 17 32  1  0  0  0  0
 18 32  1  0  0  0  0
 18 33  2  0  0  0  0
 18 36  1  0  0  0  0
 19 21  2  0  0  0  0
 19 41  1  0  0  0  0
 20 22  2  0  0  0  0
 20 42  1  0  0  0  0
 21 52  1  0  0  0  0
 22 43  1  0  0  0  0
 23 25  2  0  0  0  0
 23 56  1  0  0  0  0
 24 26  1  0  0  0  0
 24 57  1  0  0  0  0
 25 63  1  0  0  0  0
 26 73  1  0  0  0  0
 27 83  1  0  0  0  0
 28 84  1  0  0  0  0
 29 31  2  0  0  0  0
 29 83  1  0  0  0  0
 30 85  1  0  0  0  0
 31 86  1  0  0  0  0
 32 67  2  0  0  0  0
 33 68  1  0  0  0  0
 33 71  1  0  0  0  0
 34 35  2  0  0  0  0
 34 44  1  0  0  0  0
 34 76  1  0  0  0  0
 36 72  1  0  0  0  0
 36 78  2  0  0  0  0
 37 53  1  0  0  0  0
 37 74  1  0  0  0  0
 37 79  2  0  0  0  0
 38 64  1  0  0  0  0
 38 69  1  0  0  0  0
 38 80  2  0  0  0  0
 39 65  1  0  0  0  0
 39 75  1  0  0  0  0
 39 81  2  0  0  0  0
 40 70  1  0  0  0  0
 40 73  1  0  0  0  0
 40 82  2  0  0  0  0
 41 45  1  0  0  0  0
 42 53  1  0  0  0  0
 43 69  1  0  0  0  0
 44 55  1  0  0  0  0
 45 47  1  0  0  0  0
 46 48  1  0  0  0  0
 46 49  1  0  0  0  0
 47 52  1  0  0  0  0
 48 54  1  0  0  0  0
 49 70  1  0  0  0  0
 50 54  1  0  0  0  0
 50 70  1  0  0  0  0
 51 55  1  0  0  0  0
 51 76  1  0  0  0  0
 52 74  1  0  0  0  0
 53 69  1  0  0  0  0
 54 68  1  0  0  0  0
 55 84  1  0  0  0  0
 58 65  1  0  0  0  0
 59 66  1  0  0  0  0
 60 66  1  0  0  0  0
 61 66  1  0  0  0  0
 62 77  1  0  0  0  0
 63 76  1  0  0  0  0
 64 66  1  0  0  0  0
 64 75  1  0  0  0  0
 65 77  1  0  0  0  0
 67 68  1  0  0  0  0
M  CHG  2  76   1  77   1
M  ISO  4  40 100  55 101  73 100  84 101
M  END
> <Batch ID>
0034

> <Smiles>
C=C1C[101CH:1]([101O:1]c2ccc3c(c2)CN(C(=O)C(NC(=O)C(C)NC)C(C)(C)C)C(C(=O)NC2CCCc4ccccc42)C3)CN1Cc1cc([100NH:0][100C:0](=O)N2CCCC(n3nc(-c4ccc(Oc5ccc(F)cc5F)cc4)c(C(N)=O)c3N)C2)c(C)cc1C

> <Shape>
0.222

> <Color>
0.188

> <Negative vol penalty>
0.000

$$$$

  -OEChem-04042321483D

 87 96  0     1  0  0  0  0  0999 V2000
  -16.8097  -30.8751   23.9341 C   0  0  0  0  0  0  0  0  0  0  0  0
  -18.0145  -30.4385   24.4756 C   0  0  0  0  0  0  0  0  0  0  0  0
  -22.5838  -10.4472   20.2933 C   0  0  0  0  0  0  0  0  0  0  0  0
  -24.1558   -9.6868   21.9630 C   0  0  0  0  0  0  0  0  0  0  0  0
  -16.0325  -30.0035   23.1725 C   0  0  0  0  0  0  0  0  0  0  0  0
  -18.4422  -29.1295   24.2567 C   0  0  0  0  0  0  0  0  0  0  0  0
  -24.2165  -27.2107   23.5623 C   0  0  0  0  0  0  0  0  0  0  0  0
  -30.8165  -17.8551   23.9648 C   0  0  0  0  0  0  0  0  0  0  0  0
  -30.0823  -18.7191   24.7773 C   0  0  0  0  0  0  0  0  0  0  0  0
  -21.7700   -9.3457   20.5578 C   0  0  0  0  0  0  0  0  0  0  0  0
  -23.3419   -8.5853   22.2275 C   0  0  0  0  0  0  0  0  0  0  0  0
  -25.1239  -26.6277   24.4458 C   0  0  0  0  0  0  0  0  0  0  0  0
  -20.5100   -7.9404   23.9551 C   0  0  0  0  0  0  0  0  0  0  0  0
  -20.2758   -7.6155   25.2912 C   0  0  0  0  0  0  0  0  0  0  0  0
  -24.4932  -24.4425   23.6419 C   0  0  0  0  0  0  0  0  0  0  0  0
  -21.2670   -5.4409   24.9361 C   0  0  0  0  0  0  0  0  0  0  0  0
  -23.7767  -10.6177   20.9958 C   0  0  0  0  0  0  0  0  0  0  0  0
  -24.2774  -13.1150   20.8512 C   0  0  0  0  0  0  0  0  0  0  0  0
  -16.4556  -28.6860   22.9361 C   0  0  0  0  0  0  0  0  0  0  0  0
  -23.4315  -26.4121   22.7183 C   0  0  0  0  0  0  0  0  0  0  0  0
  -17.6693  -28.2389   23.4924 C   0  0  0  0  0  0  0  0  0  0  0  0
  -23.5784  -25.0180   22.7468 C   0  0  0  0  0  0  0  0  0  0  0  0
  -30.3561  -17.5403   22.6862 C   0  0  0  0  0  0  0  0  0  0  0  0
  -28.8878  -19.2682   24.3113 C   0  0  0  0  0  0  0  0  0  0  0  0
  -29.1615  -18.0894   22.2203 C   0  0  0  0  0  0  0  0  0  0  0  0
  -28.4273  -18.9534   23.0328 C   0  0  0  0  0  0  0  0  0  0  0  0
  -22.1490   -8.4147   21.5249 C   0  0  0  0  0  0  0  0  0  0  0  0
  -25.2602  -25.2432   24.4877 C   0  0  0  0  0  0  0  0  0  0  0  0
  -21.1226   -7.0155   23.1094 C   0  0  0  0  0  0  0  0  0  0  0  0
  -20.6544   -6.3658   25.7817 C   0  0  0  0  0  0  0  0  0  0  0  0
  -21.5011   -5.7658   23.6000 C   0  0  0  0  0  0  0  0  0  0  0  0
  -24.6181  -11.7551   20.7227 C   0  0  0  0  0  0  0  0  0  0  0  0
  -25.4124  -13.7904   20.4744 C   0  0  0  0  0  0  0  0  0  0  0  0
  -23.0451  -13.7140   21.2736 C   0  0  0  0  0  0  0  0  0  0  0  0
  -20.3120  -25.9177   22.3607 C   0  0  0  0  0  0  0  0  0  0  0  0
  -21.2788  -24.1549   19.8151 C   0  0  0  0  0  0  0  0  0  0  0  0
  -23.7589  -22.3580   18.3094 C   0  0  0  0  0  0  0  0  0  0  0  0
  -30.9510  -14.4604   20.6191 C   0  0  0  0  0  0  0  0  0  0  0  0
  -15.5586  -27.7662   22.1461 C   0  0  0  0  0  0  0  0  0  0  0  0
  -22.4766  -27.0578   21.7520 C   0  0  0  0  0  0  0  0  0  0  0  0
  -22.7738  -24.1172   21.8470 C   0  0  0  0  0  0  0  0  0  0  0  0
  -16.2640  -26.5074   21.6481 C   0  0  0  0  0  0  0  0  0  0  0  0
  -29.6479  -12.1329   18.2608 C   0  0  0  0  0  0  0  0  0  0  0  0
  -29.6879  -23.6411   24.6860 C   0  0  0  0  0  0  0  0  0  0  0  0
  -17.0849  -25.8767   22.7684 C   0  0  0  0  0  0  0  0  0  0  0  0
  -28.1977  -11.9348   18.7054 C   0  0  0  0  0  0  0  0  0  0  0  0
  -28.5235  -24.5106   25.1418 C   0  0  0  0  0  0  0  0  0  0  0  0
  -30.5854  -12.3052   19.4539 C   0  0  0  0  0  0  0  0  0  0  0  0
  -28.7435  -13.1673   20.8459 C   0  0  0  0  0  0  0  0  0  0  0  0
  -29.5695  -22.2194   25.2165 C   0  0  0  0  0  0  0  0  0  0  0  0
  -27.0742  -22.4536   25.3086 C   0  0  0  0  0  0  0  0  0  0  0  0
  -18.1791  -26.8338   23.2565 C   0  0  1  0  0  0  0  0  0  0  0  0
  -21.3584  -26.1227   21.3021 C   0  0  1  0  0  0  0  0  0  0  0  0
  -27.7521  -13.0451   19.6760 C   0  0  2  0  0  0  0  0  0  0  0  0
  -27.1825  -23.8786   24.7820 C   0  0  1  0  0  0  0  0  0  1  0  0
  -28.6709  -17.7511   20.8482 C   0  0  0  0  0  0  0  0  0  0  0  0
  -27.1451  -19.5420   22.5353 C   0  0  0  0  0  0  0  0  0  0  0  0
  -24.2398  -21.0046   16.2517 C   0  0  0  0  0  0  0  0  0  0  0  0
  -19.6604  -21.8375   20.9640 C   0  0  0  0  0  0  0  0  0  0  0  0
  -20.9149  -20.2972   19.4402 C   0  0  0  0  0  0  0  0  0  0  0  0
  -19.4851  -22.1036   18.4835 C   0  0  0  0  0  0  0  0  0  0  0  0
  -25.9265  -24.1900   17.4701 C   0  0  0  0  0  0  0  0  0  0  0  0
  -31.1617  -16.6128   21.8364 C   0  0  0  0  0  0  0  0  0  0  0  0
  -28.1166  -20.1930   25.2063 C   0  0  0  0  0  0  0  0  0  0  0  0
  -21.6701  -22.7129   19.5999 C   0  0  1  0  0  0  0  0  0  0  0  0
  -24.3024  -22.3825   16.8922 C   0  0  2  0  0  0  0  0  0  0  0  0
  -20.4465  -21.7544   19.6403 C   0  0  0  0  0  0  0  0  0  0  0  0
  -25.8714  -11.5755   20.2973 N   0  0  0  0  0  0  0  0  0  0  0  0
  -26.3282  -12.8314   20.1552 N   0  0  0  0  0  0  0  0  0  0  0  0
  -21.8490  -24.7958   20.9241 N   0  0  0  0  0  0  0  0  0  0  0  0
  -30.1074  -13.3741   20.3341 N   0  0  0  0  0  0  0  0  0  0  0  0
  -25.7064  -15.1051   20.3883 N   0  0  0  0  0  0  0  0  0  0  0  0
  -22.8653  -13.9817   22.6375 N   0  0  0  0  0  0  0  0  0  0  0  0
  -19.2897  -26.8469   22.3288 N   0  0  0  0  0  0  0  0  0  0  0  0
  -22.4176  -22.6752   18.3476 N   0  0  0  0  0  0  0  0  0  0  0  0
  -30.4178  -15.4325   21.4566 N   0  0  0  0  0  0  0  0  0  0  0  0
  -28.2378  -21.6375   24.8058 N   0  3  2  0  0  0  0  0  0  0  0  0
  -25.7213  -22.8381   16.8894 N   0  3  0  0  0  0  0  0  0  0  0  0
  -22.1240  -13.9883   20.4675 O   0  0  0  0  0  0  0  0  0  0  0  0
  -20.4230  -24.9846   23.1473 O   0  0  0  0  0  0  0  0  0  0  0  0
  -20.5015  -24.6951   19.0240 O   0  0  0  0  0  0  0  0  0  0  0  0
  -24.4539  -22.0813   19.2846 O   0  0  0  0  0  0  0  0  0  0  0  0
  -32.0926  -14.5595   20.1567 O   0  0  0  0  0  0  0  0  0  0  0  0
  -21.3551   -7.3399   21.7834 O   0  0  0  0  0  0  0  0  0  0  0  0
  -26.1446  -24.6715   25.3496 O   0  0  0  0  0  0  0  0  0  1  0  0
  -20.4308   -6.0545   27.0652 F   0  0  0  0  0  0  0  0  0  0  0  0
  -22.0911   -4.8736   22.7927 F   0  0  0  0  0  0  0  0  0  0  0  0
  1  2  1  0  0  0  0
  1  5  2  0  0  0  0
  2  6  2  0  0  0  0
  3 10  2  0  0  0  0
  3 17  1  0  0  0  0
  4 11  1  0  0  0  0
  4 17  2  0  0  0  0
  5 19  1  0  0  0  0
  6 21  1  0  0  0  0
  7 12  2  0  0  0  0
  7 20  1  0  0  0  0
  8  9  2  0  0  0  0
  8 23  1  0  0  0  0
  9 24  1  0  0  0  0
 10 27  1  0  0  0  0
 11 27  2  0  0  0  0
 12 28  1  0  0  0  0
 13 14  2  0  0  0  0
 13 29  1  0  0  0  0
 14 30  1  0  0  0  0
 15 22  1  0  0  0  0
 15 28  2  0  0  0  0
 16 30  2  0  0  0  0
 16 31  1  0  0  0  0
 17 32  1  0  0  0  0
 18 32  1  0  0  0  0
 18 33  2  0  0  0  0
 18 34  1  0  0  0  0
 19 21  2  0  0  0  0
 19 39  1  0  0  0  0
 20 22  2  0  0  0  0
 20 40  1  0  0  0  0
 21 52  1  0  0  0  0
 22 41  1  0  0  0  0
 23 25  2  0  0  0  0
 23 63  1  0  0  0  0
 24 26  2  0  0  0  0
 24 64  1  0  0  0  0
 25 26  1  0  0  0  0
 25 56  1  0  0  0  0
 26 57  1  0  0  0  0
 27 84  1  0  0  0  0
 28 85  1  0  0  0  0
 29 31  2  0  0  0  0
 29 84  1  0  0  0  0
 30 86  1  0  0  0  0
 31 87  1  0  0  0  0
 32 68  2  0  0  0  0
 33 69  1  0  0  0  0
 33 72  1  0  0  0  0
 34 73  1  0  0  0  0
 34 79  2  0  0  0  0
 35 53  1  0  0  0  0
 35 74  1  0  0  0  0
 35 80  2  0  0  0  0
 36 65  1  0  0  0  0
 36 70  1  0  0  0  0
 36 81  2  0  0  0  0
 37 66  1  0  0  0  0
 37 75  1  0  0  0  0
 37 82  2  0  0  0  0
 38 71  1  0  0  0  0
 38 76  1  0  0  0  0
 38 83  2  0  0  0  0
 39 42  1  0  0  0  0
 40 53  1  0  0  0  0
 41 70  1  0  0  0  0
 42 45  1  0  0  0  0
 43 46  1  0  0  0  0
 43 48  1  0  0  0  0
 44 47  1  0  0  0  0
 44 50  1  0  0  0  0
 45 52  1  0  0  0  0
 46 54  1  0  0  0  0
 47 55  1  0  0  0  0
 48 71  1  0  0  0  0
 49 54  1  0  0  0  0
 49 71  1  0  0  0  0
 50 77  1  0  0  0  0
 51 55  1  0  0  0  0
 51 77  1  0  0  0  0
 52 74  1  0  0  0  0
 53 70  1  0  0  0  0
 54 69  1  0  0  0  0
 55 85  1  0  0  0  0
 58 66  1  0  0  0  0
 59 67  1  0  0  0  0
 60 67  1  0  0  0  0
 61 67  1  0  0  0  0
 62 78  1  0  0  0  0
 63 76  1  0  0  0  0
 64 77  1  0  0  0  0
 65 67  1  0  0  0  0
 65 75  1  0  0  0  0
 66 78  1  0  0  0  0
 68 69  1  0  0  0  0
M  CHG  2  77   1  78   1
M  ISO  4  38 100  55 101  76 100  85 101
M  END
> <Batch ID>
0034

> <Smiles>
CNC(C)C(=O)NC(C(=O)N1Cc2cc([101O:1][101CH:1]3CCCN(Cc4ccc(C[100NH:0][100C:0](=O)N5CCCC(n6nc(-c7ccc(Oc8ccc(F)cc8F)cc7)c(C(N)=O)c6N)C5)c(C)c4C)C3)ccc2CC1C(=O)NC1CCCc2ccccc21)C(C)(C)C

> <Shape>
0.261

> <Color>
0.176

> <Negative vol penalty>
0.000

$$$$

  -OEChem-04042321483D

 90 99  0     1  0  0  0  0  0999 V2000
  -16.3826  -30.9368   23.9308 C   0  0  0  0  0  0  0  0  0  0  0  0
  -16.4993  -29.9594   22.9476 C   0  0  0  0  0  0  0  0  0  0  0  0
  -31.2734  -19.4925   19.4265 C   0  0  0  0  0  0  0  0  0  0  0  0
  -22.7218  -10.0576   20.1068 C   0  0  0  0  0  0  0  0  0  0  0  0
  -24.3493   -9.3439   21.7436 C   0  0  0  0  0  0  0  0  0  0  0  0
  -17.5073  -31.3375   24.6507 C   0  0  0  0  0  0  0  0  0  0  0  0
  -17.7411  -29.3829   22.6831 C   0  0  0  0  0  0  0  0  0  0  0  0
  -20.6973  -23.1890   20.6307 C   0  0  0  0  0  0  0  0  0  0  0  0
  -31.4858  -18.4234   20.2969 C   0  0  0  0  0  0  0  0  0  0  0  0
  -30.0385  -20.1408   19.4064 C   0  0  0  0  0  0  0  0  0  0  0  0
  -22.0076   -8.8754   20.3014 C   0  0  0  0  0  0  0  0  0  0  0  0
  -23.6351   -8.1616   21.9382 C   0  0  0  0  0  0  0  0  0  0  0  0
  -21.5830  -22.6805   19.6817 C   0  0  0  0  0  0  0  0  0  0  0  0
  -20.8655   -7.1719   23.6026 C   0  0  0  0  0  0  0  0  0  0  0  0
  -20.6566   -6.7515   24.9161 C   0  0  0  0  0  0  0  0  0  0  0  0
  -23.4421  -23.3946   21.0429 C   0  0  0  0  0  0  0  0  0  0  0  0
  -21.8371   -4.6966   24.4461 C   0  0  0  0  0  0  0  0  0  0  0  0
  -23.8927  -10.2918   20.8279 C   0  0  0  0  0  0  0  0  0  0  0  0
  -24.1713  -12.8276   20.8298 C   0  0  0  0  0  0  0  0  0  0  0  0
  -18.7617  -30.7587   24.4015 C   0  0  0  0  0  0  0  0  0  0  0  0
  -21.1782  -23.8148   21.7898 C   0  0  0  0  0  0  0  0  0  0  0  0
  -18.8839  -29.7772   23.3995 C   0  0  0  0  0  0  0  0  0  0  0  0
  -22.5604  -23.9079   22.0064 C   0  0  0  0  0  0  0  0  0  0  0  0
  -30.4632  -18.0025   21.1470 C   0  0  0  0  0  0  0  0  0  0  0  0
  -29.0159  -19.7199   20.2565 C   0  0  0  0  0  0  0  0  0  0  0  0
  -29.2282  -18.6507   21.1269 C   0  0  0  0  0  0  0  0  0  0  0  0
  -22.4642   -7.9274   21.2171 C   0  0  0  0  0  0  0  0  0  0  0  0
  -22.9557  -22.7859   19.8863 C   0  0  0  0  0  0  0  0  0  0  0  0
  -21.5601   -6.3546   22.7108 C   0  0  0  0  0  0  0  0  0  0  0  0
  -21.1424   -5.5139   25.3378 C   0  0  0  0  0  0  0  0  0  0  0  0
  -22.0460   -5.1170   23.1326 C   0  0  0  0  0  0  0  0  0  0  0  0
  -24.6312  -11.5126   20.6269 C   0  0  0  0  0  0  0  0  0  0  0  0
  -25.2435  -13.6208   20.5015 C   0  0  0  0  0  0  0  0  0  0  0  0
  -26.3524  -19.0079   18.7854 C   0  0  0  0  0  0  0  0  0  0  0  0
  -26.9440  -18.0767   18.0221 C   0  0  0  0  0  0  0  0  0  0  0  0
  -22.8896  -13.2906   21.2753 C   0  0  0  0  0  0  0  0  0  0  0  0
  -20.9483  -26.7360   23.0216 C   0  0  0  0  0  0  0  0  0  0  0  0
  -22.4739  -25.3723   25.5386 C   0  0  0  0  0  0  0  0  0  0  0  0
  -25.1840  -23.0411   26.0265 C   0  0  0  0  0  0  0  0  0  0  0  0
  -30.7007  -14.7661   20.7302 C   0  0  0  0  0  0  0  0  0  0  0  0
  -19.9577  -31.2581   25.1728 C   0  0  0  0  0  0  0  0  0  0  0  0
  -20.2096  -24.3343   22.8166 C   0  0  0  0  0  0  0  0  0  0  0  0
  -23.1276  -24.5526   23.2438 C   0  0  0  0  0  0  0  0  0  0  0  0
  -25.0477  -18.7766   19.4981 C   0  0  0  0  0  0  0  0  0  0  0  0
  -21.1669  -30.3301   25.0897 C   0  0  0  0  0  0  0  0  0  0  0  0
  -24.0704  -19.9058   19.1948 C   0  0  0  0  0  0  0  0  0  0  0  0
  -29.6160  -12.4723   18.2326 C   0  0  0  0  0  0  0  0  0  0  0  0
  -21.4078  -29.8950   23.6477 C   0  0  0  0  0  0  0  0  0  0  0  0
  -28.1875  -12.1222   18.6531 C   0  0  0  0  0  0  0  0  0  0  0  0
  -30.5307  -12.6576   19.4413 C   0  0  0  0  0  0  0  0  0  0  0  0
  -28.6153  -13.2730   20.8647 C   0  0  0  0  0  0  0  0  0  0  0  0
  -26.0085  -21.4000   18.5818 C   0  0  0  0  0  0  0  0  0  0  0  0
  -20.2092  -29.1106   23.1005 C   0  0  1  0  0  0  0  0  0  0  0  0
  -20.8114  -25.4102   23.7153 C   0  0  1  0  0  0  0  0  0  0  0  0
  -27.6425  -13.1313   19.6816 C   0  0  2  0  0  0  0  0  0  0  0  0
  -24.7221  -21.2741   19.3940 C   0  0  1  0  0  0  0  0  0  1  0  0
  -28.1317  -18.1993   22.0385 C   0  0  0  0  0  0  0  0  0  0  0  0
  -28.6498  -17.0470   16.5243 C   0  0  0  0  0  0  0  0  0  0  0  0
  -27.8154  -21.9287   20.5260 C   0  0  0  0  0  0  0  0  0  0  0  0
  -25.6576  -21.4628   27.9191 C   0  0  0  0  0  0  0  0  0  0  0  0
  -24.1991  -27.6450   26.6195 C   0  0  0  0  0  0  0  0  0  0  0  0
  -25.8614  -25.9314   27.3734 C   0  0  0  0  0  0  0  0  0  0  0  0
  -23.5528  -25.9271   28.3182 C   0  0  0  0  0  0  0  0  0  0  0  0
  -25.3177  -20.7127   24.2046 C   0  0  0  0  0  0  0  0  0  0  0  0
  -30.7165  -16.8553   22.0698 C   0  0  0  0  0  0  0  0  0  0  0  0
  -28.2412  -18.2865   17.3049 C   0  0  0  0  0  0  0  0  0  0  0  0
  -27.6876  -20.4396   20.2150 C   0  0  1  0  0  0  0  0  0  0  0  0
  -23.9172  -25.1721   25.9331 C   0  0  1  0  0  0  0  0  0  0  0  0
  -25.0741  -21.6106   26.5226 C   0  0  2  0  0  0  0  0  0  0  0  0
  -24.3747  -26.1704   27.0337 C   0  0  0  0  0  0  0  0  0  0  0  0
  -25.8969  -11.4688   20.2025 N   0  0  0  0  0  0  0  0  0  0  0  0
  -26.2414  -12.7661   20.1359 N   0  0  0  0  0  0  0  0  0  0  0  0
  -22.1400  -25.0508   24.2153 N   0  0  0  0  0  0  0  0  0  0  0  0
  -29.9573  -13.6279   20.3769 N   0  0  0  0  0  0  0  0  0  0  0  0
  -25.4205  -14.9591   20.4928 N   0  0  0  0  0  0  0  0  0  0  0  0
  -22.6824  -13.4627   22.6507 N   0  0  0  0  0  0  0  0  0  0  0  0
  -20.2194  -27.7544   23.6057 N   0  0  0  0  0  0  0  0  0  0  0  0
  -24.0469  -23.7682   26.3084 N   0  0  0  0  0  0  0  0  0  0  0  0
  -30.0810  -15.6379   21.6173 N   0  0  0  0  0  0  0  0  0  0  0  0
  -26.9917  -20.2972   18.8897 N   0  3  1  0  0  0  0  0  0  0  0  0
  -25.8041  -20.6877   25.6081 N   0  3  0  0  0  0  0  0  0  0  0  0
  -21.9505  -13.5287   20.4784 O   0  0  0  0  0  0  0  0  0  0  0  0
  -21.6633  -26.8286   22.0308 O   0  0  0  0  0  0  0  0  0  0  0  0
  -21.6707  -25.7915   26.3758 O   0  0  0  0  0  0  0  0  0  0  0  0
  -26.1806  -23.4716   25.4503 O   0  0  0  0  0  0  0  0  0  0  0  0
  -31.8306  -14.9917   20.2838 O   0  0  0  0  0  0  0  0  0  0  0  0
  -21.7674   -6.7738   21.4074 O   0  0  0  0  0  0  0  0  0  0  0  0
  -23.8224  -22.2910   18.9612 O   0  0  0  0  0  0  0  0  0  1  0  0
  -20.9430   -5.1109   26.5996 F   0  0  0  0  0  0  0  0  0  0  0  0
  -22.7151   -4.3280   22.2808 F   0  0  0  0  0  0  0  0  0  0  0  0
  1  2  1  0  0  0  0
  1  6  2  0  0  0  0
  2  7  2  0  0  0  0
  3  9  1  0  0  0  0
  3 10  2  0  0  0  0
  4 11  2  0  0  0  0
  4 18  1  0  0  0  0
  5 12  1  0  0  0  0
  5 18  2  0  0  0  0
  6 20  1  0  0  0  0
  7 22  1  0  0  0  0
  8 13  2  0  0  0  0
  8 21  1  0  0  0  0
  9 24  2  0  0  0  0
 10 25  1  0  0  0  0
 11 27  1  0  0  0  0
 12 27  2  0  0  0  0
 13 28  1  0  0  0  0
 14 15  2  0  0  0  0
 14 29  1  0  0  0  0
 15 30  1  0  0  0  0
 16 23  1  0  0  0  0
 16 28  2  0  0  0  0
 17 30  2  0  0  0  0
 17 31  1  0  0  0  0
 18 32  1  0  0  0  0
 19 32  1  0  0  0  0
 19 33  2  0  0  0  0
 19 36  1  0  0  0  0
 20 22  2  0  0  0  0
 20 41  1  0  0  0  0
 21 23  2  0  0  0  0
 21 42  1  0  0  0  0
 22 53  1  0  0  0  0
 23 43  1  0  0  0  0
 24 26  1  0  0  0  0
 24 65  1  0  0  0  0
 25 26  2  0  0  0  0
 25 67  1  0  0  0  0
 26 57  1  0  0  0  0
 27 87  1  0  0  0  0
 28 88  1  0  0  0  0
 29 31  2  0  0  0  0
 29 87  1  0  0  0  0
 30 89  1  0  0  0  0
 31 90  1  0  0  0  0
 32 71  2  0  0  0  0
 33 72  1  0  0  0  0
 33 75  1  0  0  0  0
 34 35  2  0  0  0  0
 34 44  1  0  0  0  0
 34 80  1  0  0  0  0
 35 66  1  0  0  0  0
 36 76  1  0  0  0  0
 36 82  2  0  0  0  0
 37 54  1  0  0  0  0
 37 77  1  0  0  0  0
 37 83  2  0  0  0  0
 38 68  1  0  0  0  0
 38 73  1  0  0  0  0
 38 84  2  0  0  0  0
 39 69  1  0  0  0  0
 39 78  1  0  0  0  0
 39 85  2  0  0  0  0
 40 74  1  0  0  0  0
 40 79  1  0  0  0  0
 40 86  2  0  0  0  0
 41 45  1  0  0  0  0
 42 54  1  0  0  0  0
 43 73  1  0  0  0  0
 44 46  1  0  0  0  0
 45 48  1  0  0  0  0
 46 56  1  0  0  0  0
 47 49  1  0  0  0  0
 47 50  1  0  0  0  0
 48 53  1  0  0  0  0
 49 55  1  0  0  0  0
 50 74  1  0  0  0  0
 51 55  1  0  0  0  0
 51 74  1  0  0  0  0
 52 56  1  0  0  0  0
 52 80  1  0  0  0  0
 53 77  1  0  0  0  0
 54 73  1  0  0  0  0
 55 72  1  0  0  0  0
 56 88  1  0  0  0  0
 58 66  1  0  0  0  0
 59 67  1  0  0  0  0
 60 69  1  0  0  0  0
 61 70  1  0  0  0  0
 62 70  1  0  0  0  0
 63 70  1  0  0  0  0
 64 81  1  0  0  0  0
 65 79  1  0  0  0  0
 67 80  1  0  0  0  0
 68 70  1  0  0  0  0
 68 78  1  0  0  0  0
 69 81  1  0  0  0  0
 71 72  1  0  0  0  0
M  CHG  2  80   1  81   1
M  ISO  4  40 100  56 101  79 100  88 101
M  END
> <Batch ID>
0034

> <Smiles>
CCC=C1CC[101CH:1]([101O:1]c2ccc3c(c2)CN(C(=O)C(NC(=O)C(C)NC)C(C)(C)C)C(C(=O)NC2CCCc4ccccc42)C3)CN1C(C)c1cccc(C[100NH:0][100C:0](=O)N2CCCC(n3nc(-c4ccc(Oc5ccc(F)cc5F)cc4)c(C(N)=O)c3N)C2)c1C

> <Shape>
0.300

> <Color>
0.179

> <Negative vol penalty>
0.000

$$$$

  -OEChem-04042321483D

 89 98  0     1  0  0  0  0  0999 V2000
  -27.9642  -33.4262   26.7538 C   0  0  0  0  0  0  0  0  0  0  0  0
  -28.1312  -32.3292   25.9148 C   0  0  0  0  0  0  0  0  0  0  0  0
  -23.8656  -11.8956   24.8041 C   0  0  0  0  0  0  0  0  0  0  0  0
  -23.5437  -14.1713   25.5486 C   0  0  0  0  0  0  0  0  0  0  0  0
  -26.6919  -33.7632   27.2138 C   0  0  0  0  0  0  0  0  0  0  0  0
  -27.0260  -31.5678   25.5361 C   0  0  0  0  0  0  0  0  0  0  0  0
  -27.0269  -30.4665   20.5933 C   0  0  0  0  0  0  0  0  0  0  0  0
  -30.2102  -21.3841   19.1664 C   0  0  0  0  0  0  0  0  0  0  0  0
  -30.1412  -20.0920   19.6873 C   0  0  0  0  0  0  0  0  0  0  0  0
  -23.1999  -11.4304   25.9381 C   0  0  0  0  0  0  0  0  0  0  0  0
  -22.8780  -13.7062   26.6827 C   0  0  0  0  0  0  0  0  0  0  0  0
  -27.8701  -29.4401   20.1698 C   0  0  0  0  0  0  0  0  0  0  0  0
  -19.8020  -12.5432   27.4614 C   0  0  0  0  0  0  0  0  0  0  0  0
  -18.6174  -13.1841   27.8241 C   0  0  0  0  0  0  0  0  0  0  0  0
  -25.9943  -27.9238   20.1298 C   0  0  0  0  0  0  0  0  0  0  0  0
  -19.5897  -13.7750   29.9555 C   0  0  0  0  0  0  0  0  0  0  0  0
  -24.0376  -13.2661   24.6094 C   0  0  0  0  0  0  0  0  0  0  0  0
  -24.1573  -14.0745   22.1928 C   0  0  0  0  0  0  0  0  0  0  0  0
  -25.5693  -33.0114   26.8329 C   0  0  0  0  0  0  0  0  0  0  0  0
  -25.6608  -30.2262   20.7990 C   0  0  0  0  0  0  0  0  0  0  0  0
  -25.7377  -31.8942   25.9926 C   0  0  0  0  0  0  0  0  0  0  0  0
  -25.1354  -28.9495   20.5534 C   0  0  0  0  0  0  0  0  0  0  0  0
  -29.0998  -21.9403   18.5314 C   0  0  0  0  0  0  0  0  0  0  0  0
  -27.9204  -21.2044   18.4172 C   0  0  0  0  0  0  0  0  0  0  0  0
  -27.8513  -19.9123   18.9380 C   0  0  0  0  0  0  0  0  0  0  0  0
  -28.9618  -19.3561   19.5731 C   0  0  0  0  0  0  0  0  0  0  0  0
  -22.7060  -12.3357   26.8774 C   0  0  0  0  0  0  0  0  0  0  0  0
  -27.3543  -28.1678   19.9407 C   0  0  0  0  0  0  0  0  0  0  0  0
  -20.8805  -12.5181   28.3458 C   0  0  0  0  0  0  0  0  0  0  0  0
  -18.5112  -13.8000   29.0711 C   0  0  0  0  0  0  0  0  0  0  0  0
  -20.7743  -13.1340   29.5928 C   0  0  0  0  0  0  0  0  0  0  0  0
  -24.7257  -13.7472   23.4384 C   0  0  0  0  0  0  0  0  0  0  0  0
  -25.2222  -14.4773   21.4246 C   0  0  0  0  0  0  0  0  0  0  0  0
  -30.2511  -24.8759   19.6745 C   0  0  0  0  0  0  0  0  0  0  0  0
  -22.7890  -14.0195   21.7681 C   0  0  0  0  0  0  0  0  0  0  0  0
  -23.7095  -30.3743   23.3039 C   0  0  0  0  0  0  0  0  0  0  0  0
  -21.4342  -29.7600   21.0750 C   0  0  0  0  0  0  0  0  0  0  0  0
  -20.6478  -28.4572   18.0204 C   0  0  0  0  0  0  0  0  0  0  0  0
  -29.9379  -17.3639   20.7668 C   0  0  0  0  0  0  0  0  0  0  0  0
  -24.2203  -33.3860   27.3937 C   0  0  0  0  0  0  0  0  0  0  0  0
  -24.7597  -31.3506   21.2303 C   0  0  0  0  0  0  0  0  0  0  0  0
  -23.6723  -28.6447   20.7400 C   0  0  0  0  0  0  0  0  0  0  0  0
  -29.7271  -25.7843   20.7630 C   0  0  0  0  0  0  0  0  0  0  0  0
  -23.0516  -32.7513   26.6443 C   0  0  0  0  0  0  0  0  0  0  0  0
  -30.2027  -14.1450   22.2653 C   0  0  0  0  0  0  0  0  0  0  0  0
  -23.3126  -31.2674   26.4066 C   0  0  0  0  0  0  0  0  0  0  0  0
  -28.7546  -13.7815   22.6016 C   0  0  0  0  0  0  0  0  0  0  0  0
  -30.4753  -15.6344   22.4682 C   0  0  0  0  0  0  0  0  0  0  0  0
  -28.0977  -16.1722   22.1117 C   0  0  0  0  0  0  0  0  0  0  0  0
  -27.8878  -24.7850   19.5716 C   0  0  0  0  0  0  0  0  0  0  0  0
  -24.5601  -31.0586   25.5398 C   0  0  1  0  0  0  0  0  0  0  0  0
  -23.4791  -30.8658   21.9028 C   0  0  1  0  0  0  0  0  0  0  0  0
  -27.7578  -14.6940   21.8605 C   0  0  2  0  0  0  0  0  0  0  0  0
  -28.2714  -26.0183   20.3684 C   0  0  2  0  0  0  0  0  0  1  0  0
  -26.7311  -21.8037   17.7356 C   0  0  0  0  0  0  0  0  0  0  0  0
  -18.6995  -28.0664   16.4878 C   0  0  0  0  0  0  0  0  0  0  0  0
  -25.6599  -19.3496   20.0058 C   0  0  0  0  0  0  0  0  0  0  0  0
  -20.5329  -27.4250   22.8201 C   0  0  0  0  0  0  0  0  0  0  0  0
  -19.2727  -26.5301   20.8505 C   0  0  0  0  0  0  0  0  0  0  0  0
  -18.6696  -28.7524   21.8099 C   0  0  0  0  0  0  0  0  0  0  0  0
  -21.8284  -30.1494   15.8988 C   0  0  0  0  0  0  0  0  0  0  0  0
  -29.2010  -23.3330   17.9796 C   0  0  0  0  0  0  0  0  0  0  0  0
  -20.8155  -28.5112   20.4949 C   0  0  1  0  0  0  0  0  0  0  0  0
  -19.8278  -29.0119   16.8695 C   0  0  2  0  0  0  0  0  0  0  0  0
  -26.5846  -19.1244   18.8144 C   0  0  0  0  0  0  0  0  0  0  0  0
  -19.8506  -27.8096   21.4921 C   0  0  0  0  0  0  0  0  0  0  0  0
  -26.0491  -13.9264   23.4644 N   0  0  0  0  0  0  0  0  0  0  0  0
  -26.3210  -14.3706   22.2255 N   0  0  0  0  0  0  0  0  0  0  0  0
  -29.1476  -24.3341   19.0233 N   0  0  0  0  0  0  0  0  0  0  0  0
  -22.8330  -29.7758   21.1688 N   0  0  0  0  0  0  0  0  0  0  0  0
  -29.4948  -16.4368   21.7336 N   0  0  0  0  0  0  0  0  0  0  0  0
  -25.3166  -14.9088   20.1490 N   0  0  0  0  0  0  0  0  0  0  0  0
  -21.8222  -13.5823   22.6839 N   0  0  0  0  0  0  0  0  0  0  0  0
  -28.9141  -18.0455   20.1097 N   0  0  0  0  0  0  0  0  0  0  0  0
  -24.2585  -31.3200   24.1487 N   0  0  0  0  0  0  0  0  0  0  0  0
  -20.1897  -28.9111   19.2392 N   0  0  0  0  0  0  0  0  0  0  0  0
  -20.6906  -29.2214   15.6726 N   0  3  0  0  0  0  0  0  0  0  0  0
  -31.4349  -24.6516   19.4694 O   0  0  0  0  0  0  0  0  0  0  0  0
  -22.4363  -14.3325   20.6058 O   0  0  0  0  0  0  0  0  0  0  0  0
  -23.4100  -29.2228   23.5972 O   0  0  0  0  0  0  0  0  0  0  0  0
  -20.7037  -30.6903   21.4253 O   0  0  0  0  0  0  0  0  0  0  0  0
  -21.5971  -27.6944   17.8550 O   0  0  0  0  0  0  0  0  0  0  0  0
  -31.1363  -17.5207   20.5193 O   0  0  0  0  0  0  0  0  0  0  0  0
  -22.0561  -11.8821   27.9839 O   0  0  0  0  0  0  0  0  0  0  0  0
  -28.1752  -27.1640   19.5280 O   0  0  0  0  0  0  0  0  0  1  0  0
  -17.3742  -14.4168   29.4187 F   0  0  0  0  0  0  0  0  0  0  0  0
  -21.8074  -13.1143   30.4461 F   0  0  0  0  0  0  0  0  0  0  0  0
  -26.8051  -17.7758   18.7217 F   0  0  0  0  0  0  0  0  0  0  0  0
  -25.8743  -19.4350   17.6853 F   0  0  0  0  0  0  0  0  0  0  0  0
  1  2  1  0  0  0  0
  1  5  2  0  0  0  0
  2  6  2  0  0  0  0
  3 10  2  0  0  0  0
  3 17  1  0  0  0  0
  4 11  1  0  0  0  0
  4 17  2  0  0  0  0
  5 19  1  0  0  0  0
  6 21  1  0  0  0  0
  7 12  2  0  0  0  0
  7 20  1  0  0  0  0
  8  9  2  0  0  0  0
  8 23  1  0  0  0  0
  9 26  1  0  0  0  0
 10 27  1  0  0  0  0
 11 27  2  0  0  0  0
 12 28  1  0  0  0  0
 13 14  2  0  0  0  0
 13 29  1  0  0  0  0
 14 30  1  0  0  0  0
 15 22  1  0  0  0  0
 15 28  2  0  0  0  0
 16 30  2  0  0  0  0
 16 31  1  0  0  0  0
 17 32  1  0  0  0  0
 18 32  1  0  0  0  0
 18 33  2  0  0  0  0
 18 35  1  0  0  0  0
 19 21  2  0  0  0  0
 19 40  1  0  0  0  0
 20 22  2  0  0  0  0
 20 41  1  0  0  0  0
 21 51  1  0  0  0  0
 22 42  1  0  0  0  0
 23 24  2  0  0  0  0
 23 62  1  0  0  0  0
 24 25  1  0  0  0  0
 24 55  1  0  0  0  0
 25 26  2  0  0  0  0
 25 65  1  0  0  0  0
 26 74  1  0  0  0  0
 27 84  1  0  0  0  0
 28 85  1  0  0  0  0
 29 31  2  0  0  0  0
 29 84  1  0  0  0  0
 30 86  1  0  0  0  0
 31 87  1  0  0  0  0
 32 67  2  0  0  0  0
 33 68  1  0  0  0  0
 33 72  1  0  0  0  0
 34 43  1  0  0  0  0
 34 69  1  0  0  0  0
 34 78  2  0  0  0  0
 35 73  1  0  0  0  0
 35 79  2  0  0  0  0
 36 52  1  0  0  0  0
 36 75  1  0  0  0  0
 36 80  2  0  0  0  0
 37 63  1  0  0  0  0
 37 70  1  0  0  0  0
 37 81  2  0  0  0  0
 38 64  1  0  0  0  0
 38 76  1  0  0  0  0
 38 82  2  0  0  0  0
 39 71  1  0  0  0  0
 39 74  1  0  0  0  0
 39 83  2  0  0  0  0
 40 44  1  0  0  0  0
 41 52  1  0  0  0  0
 42 70  1  0  0  0  0
 43 54  1  0  0  0  0
 44 46  1  0  0  0  0
 45 47  1  0  0  0  0
 45 48  1  0  0  0  0
 46 51  1  0  0  0  0
 47 53  1  0  0  0  0
 48 71  1  0  0  0  0
 49 53  1  0  0  0  0
 49 71  1  0  0  0  0
 50 54  1  0  0  0  0
 50 69  1  0  0  0  0
 51 75  1  0  0  0  0
 52 70  1  0  0  0  0
 53 68  1  0  0  0  0
 54 85  1  0  0  0  0
 56 64  1  0  0  0  0
 57 65  1  0  0  0  0
 58 66  1  0  0  0  0
 59 66  1  0  0  0  0
 60 66  1  0  0  0  0
 61 77  1  0  0  0  0
 62 69  1  0  0  0  0
 63 66  1  0  0  0  0
 63 76  1  0  0  0  0
 64 77  1  0  0  0  0
 65 88  1  0  0  0  0
 65 89  1  0  0  0  0
 67 68  1  0  0  0  0
M  CHG  1  77   1
M  ISO  4  39 100  54 101  74 100  85 101
M  END
> <Batch ID>
0034

> <Smiles>
CNC(C)C(=O)NC(C(=O)N1Cc2cc([101O:1][101CH:1]3CC(=O)N(Cc4ccc([100NH:0][100C:0](=O)N5CCCC(n6nc(-c7ccc(Oc8ccc(F)cc8F)cc7)c(C(N)=O)c6N)C5)c(C(C)(F)F)c4C)C3)ccc2CC1C(=O)NC1CCCc2ccccc21)C(C)(C)C

> <Shape>
0.266

> <Color>
0.126

> <Negative vol penalty>
0.000

$$$$

  -OEChem-04042321483D

 87 96  0     1  0  0  0  0  0999 V2000
  -35.5010  -29.4188   20.6976 C   0  0  0  0  0  0  0  0  0  0  0  0
  -34.4697  -28.7083   21.3034 C   0  0  0  0  0  0  0  0  0  0  0  0
  -22.6160  -10.3550   20.1934 C   0  0  0  0  0  0  0  0  0  0  0  0
  -24.2465   -9.4836   21.7487 C   0  0  0  0  0  0  0  0  0  0  0  0
  -35.5405  -29.5405   19.3092 C   0  0  0  0  0  0  0  0  0  0  0  0
  -33.4766  -28.1199   20.5211 C   0  0  0  0  0  0  0  0  0  0  0  0
  -32.3989  -23.3924   21.9822 C   0  0  0  0  0  0  0  0  0  0  0  0
  -21.8440   -9.2050   20.3585 C   0  0  0  0  0  0  0  0  0  0  0  0
  -23.4745   -8.3337   21.9139 C   0  0  0  0  0  0  0  0  0  0  0  0
  -31.5905  -23.2427   23.1082 C   0  0  0  0  0  0  0  0  0  0  0  0
  -21.8609   -6.0133   19.2464 C   0  0  0  0  0  0  0  0  0  0  0  0
  -21.3403   -5.4130   18.1000 C   0  0  0  0  0  0  0  0  0  0  0  0
  -29.6876  -22.8408   21.6812 C   0  0  0  0  0  0  0  0  0  0  0  0
  -31.9118  -19.0017   23.2928 C   0  0  0  0  0  0  0  0  0  0  0  0
  -31.7087  -17.4093   21.4874 C   0  0  0  0  0  0  0  0  0  0  0  0
  -19.1010   -5.7381   18.9468 C   0  0  0  0  0  0  0  0  0  0  0  0
  -23.8173  -10.4943   20.8885 C   0  0  0  0  0  0  0  0  0  0  0  0
  -24.2338  -13.0090   20.9905 C   0  0  0  0  0  0  0  0  0  0  0  0
  -34.5527  -28.9451   18.5090 C   0  0  0  0  0  0  0  0  0  0  0  0
  -31.8546  -23.2781   20.6949 C   0  0  0  0  0  0  0  0  0  0  0  0
  -33.5022  -28.2348   19.1208 C   0  0  0  0  0  0  0  0  0  0  0  0
  -30.4916  -22.9870   20.5405 C   0  0  0  0  0  0  0  0  0  0  0  0
  -32.2663  -18.5747   22.0132 C   0  0  0  0  0  0  0  0  0  0  0  0
  -30.9998  -18.2632   24.0468 C   0  0  0  0  0  0  0  0  0  0  0  0
  -30.4422  -17.0977   23.5210 C   0  0  0  0  0  0  0  0  0  0  0  0
  -30.7966  -16.6707   22.2413 C   0  0  0  0  0  0  0  0  0  0  0  0
  -22.2732   -8.1944   21.2187 C   0  0  0  0  0  0  0  0  0  0  0  0
  -30.2341  -22.9697   22.9578 C   0  0  0  0  0  0  0  0  0  0  0  0
  -21.0016   -6.4759   20.2430 C   0  0  0  0  0  0  0  0  0  0  0  0
  -19.9603   -5.2755   17.9502 C   0  0  0  0  0  0  0  0  0  0  0  0
  -19.6217   -6.3383   20.0932 C   0  0  0  0  0  0  0  0  0  0  0  0
  -24.6155  -11.6816   20.7179 C   0  0  0  0  0  0  0  0  0  0  0  0
  -25.3382  -13.7577   20.6646 C   0  0  0  0  0  0  0  0  0  0  0  0
  -28.9617  -19.7803   26.8332 C   0  0  0  0  0  0  0  0  0  0  0  0
  -28.1126  -19.0204   27.5413 C   0  0  0  0  0  0  0  0  0  0  0  0
  -22.9920  -13.5195   21.4935 C   0  0  0  0  0  0  0  0  0  0  0  0
  -31.5580  -25.2295   18.2034 C   0  0  0  0  0  0  0  0  0  0  0  0
  -30.4402  -22.5590   16.7401 C   0  0  0  0  0  0  0  0  0  0  0  0
  -28.2651  -19.8074   17.5859 C   0  0  0  0  0  0  0  0  0  0  0  0
  -30.8369  -14.6274   20.7683 C   0  0  0  0  0  0  0  0  0  0  0  0
  -34.6115  -29.1438   17.0151 C   0  0  0  0  0  0  0  0  0  0  0  0
  -32.7453  -23.4159   19.4907 C   0  0  0  0  0  0  0  0  0  0  0  0
  -29.8625  -22.8344   19.1806 C   0  0  0  0  0  0  0  0  0  0  0  0
  -29.5683  -21.0490   27.3682 C   0  0  0  0  0  0  0  0  0  0  0  0
  -33.7270  -28.1737   16.2362 C   0  0  0  0  0  0  0  0  0  0  0  0
  -29.3682  -22.1907   26.3788 C   0  0  0  0  0  0  0  0  0  0  0  0
  -29.5831  -12.4760   18.2234 C   0  0  0  0  0  0  0  0  0  0  0  0
  -32.3409  -28.0905   16.8677 C   0  0  0  0  0  0  0  0  0  0  0  0
  -28.1476  -12.1868   18.6679 C   0  0  0  0  0  0  0  0  0  0  0  0
  -30.5378  -12.5665   19.4126 C   0  0  0  0  0  0  0  0  0  0  0  0
  -28.6931  -13.2135   20.9118 C   0  0  0  0  0  0  0  0  0  0  0  0
  -29.0619  -20.5099   24.5225 C   0  0  0  0  0  0  0  0  0  0  0  0
  -32.4202  -27.5613   18.3048 C   0  0  1  0  0  0  0  0  0  0  0  0
  -31.9827  -23.7884   18.2230 C   0  0  1  0  0  0  0  0  0  0  0  0
  -27.6832  -13.1778   19.7532 C   0  0  2  0  0  0  0  0  0  0  0  0
  -29.7819  -21.7810   24.9654 C   0  0  1  0  0  0  0  0  0  1  0  0
  -33.2426  -19.3635   21.2076 C   0  0  0  0  0  0  0  0  0  0  0  0
  -29.4648  -16.3085   24.3345 C   0  0  0  0  0  0  0  0  0  0  0  0
  -28.1931  -17.4563   16.7115 C   0  0  0  0  0  0  0  0  0  0  0  0
  -28.3497  -23.6510   14.8044 C   0  0  0  0  0  0  0  0  0  0  0  0
  -27.0909  -21.5021   15.0609 C   0  0  0  0  0  0  0  0  0  0  0  0
  -29.3937  -21.4898   14.1020 C   0  0  0  0  0  0  0  0  0  0  0  0
  -28.5139  -18.6653   20.3048 C   0  0  0  0  0  0  0  0  0  0  0  0
  -30.6372  -18.7435   25.4211 C   0  0  0  0  0  0  0  0  0  0  0  0
  -29.0827  -21.9197   16.5739 C   0  0  1  0  0  0  0  0  0  0  0  0
  -28.6756  -18.3665   17.8303 C   0  0  2  0  0  0  0  0  0  0  0  0
  -28.4855  -22.1566   15.1580 C   0  0  0  0  0  0  0  0  0  0  0  0
  -25.8647  -11.5892   20.2544 N   0  0  0  0  0  0  0  0  0  0  0  0
  -26.2775  -12.8680   20.2331 N   0  0  0  0  0  0  0  0  0  0  0  0
  -30.7736  -22.9843   18.0339 N   0  0  0  0  0  0  0  0  0  0  0  0
  -30.0355  -13.5270   20.3975 N   0  0  0  0  0  0  0  0  0  0  0  0
  -25.5876  -15.0837   20.7078 N   0  0  0  0  0  0  0  0  0  0  0  0
  -22.8324  -13.6412   22.8806 N   0  0  0  0  0  0  0  0  0  0  0  0
  -30.2414  -15.4906   21.6875 N   0  0  0  0  0  0  0  0  0  0  0  0
  -32.6047  -26.1259   18.3053 N   0  0  0  0  0  0  0  0  0  0  0  0
  -29.2481  -20.5134   16.9251 N   0  0  0  0  0  0  0  0  0  0  0  0
  -29.2704  -19.3670   25.4858 N   0  3  1  0  0  0  0  0  0  0  0  0
  -28.1028  -17.8756   19.1155 N   0  3  0  0  0  0  0  0  0  0  0  0
  -22.0457  -13.8423   20.7360 O   0  0  0  0  0  0  0  0  0  0  0  0
  -30.3689  -25.5077   18.1018 O   0  0  0  0  0  0  0  0  0  0  0  0
  -31.1804  -22.6703   15.7597 O   0  0  0  0  0  0  0  0  0  0  0  0
  -27.1795  -20.2604   17.9420 O   0  0  0  0  0  0  0  0  0  0  0  0
  -31.9573  -14.8068   20.2840 O   0  0  0  0  0  0  0  0  0  0  0  0
  -21.5200   -7.0723   21.3802 O   0  0  0  0  0  0  0  0  0  0  0  0
  -29.4427  -22.8237   24.0552 O   0  0  0  0  0  0  0  0  0  1  0  0
  -19.4604   -4.7004   16.8486 F   0  0  0  0  0  0  0  0  0  0  0  0
  -18.7911   -6.7819   21.0468 F   0  0  0  0  0  0  0  0  0  0  0  0
  1  2  1  0  0  0  0
  1  5  2  0  0  0  0
  2  6  2  0  0  0  0
  3  8  2  0  0  0  0
  3 17  1  0  0  0  0
  4  9  1  0  0  0  0
  4 17  2  0  0  0  0
  5 19  1  0  0  0  0
  6 21  1  0  0  0  0
  7 10  2  0  0  0  0
  7 20  1  0  0  0  0
  8 27  1  0  0  0  0
  9 27  2  0  0  0  0
 10 28  1  0  0  0  0
 11 12  2  0  0  0  0
 11 29  1  0  0  0  0
 12 30  1  0  0  0  0
 13 22  1  0  0  0  0
 13 28  2  0  0  0  0
 14 23  2  0  0  0  0
 14 24  1  0  0  0  0
 15 23  1  0  0  0  0
 15 26  2  0  0  0  0
 16 30  2  0  0  0  0
 16 31  1  0  0  0  0
 17 32  1  0  0  0  0
 18 32  1  0  0  0  0
 18 33  2  0  0  0  0
 18 36  1  0  0  0  0
 19 21  2  0  0  0  0
 19 41  1  0  0  0  0
 20 22  2  0  0  0  0
 20 42  1  0  0  0  0
 21 53  1  0  0  0  0
 22 43  1  0  0  0  0
 23 57  1  0  0  0  0
 24 25  2  0  0  0  0
 24 64  1  0  0  0  0
 25 26  1  0  0  0  0
 25 58  1  0  0  0  0
 26 74  1  0  0  0  0
 27 84  1  0  0  0  0
 28 85  1  0  0  0  0
 29 31  2  0  0  0  0
 29 84  1  0  0  0  0
 30 86  1  0  0  0  0
 31 87  1  0  0  0  0
 32 68  2  0  0  0  0
 33 69  1  0  0  0  0
 33 72  1  0  0  0  0
 34 35  2  0  0  0  0
 34 44  1  0  0  0  0
 34 77  1  0  0  0  0
 36 73  1  0  0  0  0
 36 79  2  0  0  0  0
 37 54  1  0  0  0  0
 37 75  1  0  0  0  0
 37 80  2  0  0  0  0
 38 65  1  0  0  0  0
 38 70  1  0  0  0  0
 38 81  2  0  0  0  0
 39 66  1  0  0  0  0
 39 76  1  0  0  0  0
 39 82  2  0  0  0  0
 40 71  1  0  0  0  0
 40 74  1  0  0  0  0
 40 83  2  0  0  0  0
 41 45  1  0  0  0  0
 42 54  1  0  0  0  0
 43 70  1  0  0  0  0
 44 46  1  0  0  0  0
 45 48  1  0  0  0  0
 46 56  1  0  0  0  0
 47 49  1  0  0  0  0
 47 50  1  0  0  0  0
 48 53  1  0  0  0  0
 49 55  1  0  0  0  0
 50 71  1  0  0  0  0
 51 55  1  0  0  0  0
 51 71  1  0  0  0  0
 52 56  1  0  0  0  0
 52 77  1  0  0  0  0
 53 75  1  0  0  0  0
 54 70  1  0  0  0  0
 55 69  1  0  0  0  0
 56 85  1  0  0  0  0
 59 66  1  0  0  0  0
 60 67  1  0  0  0  0
 61 67  1  0  0  0  0
 62 67  1  0  0  0  0
 63 78  1  0  0  0  0
 64 77  1  0  0  0  0
 65 67  1  0  0  0  0
 65 76  1  0  0  0  0
 66 78  1  0  0  0  0
 68 69  1  0  0  0  0
M  CHG  2  77   1  78   1
M  ISO  4  40 100  56 101  74 100  85 101
M  END
> <Batch ID>
0034

> <Smiles>
C=C1CC[101CH:1]([101O:1]c2ccc3c(c2)CN(C(=O)C(NC(=O)C(C)NC)C(C)(C)C)C(C(=O)NC2CCCc4ccccc42)C3)CN1Cc1cc(C)cc([100NH:0][100C:0](=O)N2CCCC(n3nc(-c4ccc(Oc5ccc(F)cc5F)cc4)c(C(N)=O)c3N)C2)c1C

> <Shape>
0.215

> <Color>
0.168

> <Negative vol penalty>
0.000

$$$$

  -OEChem-04042321483D

 86 95  0     1  0  0  0  0  0999 V2000
  -32.7325  -28.0390   11.6561 C   0  0  0  0  0  0  0  0  0  0  0  0
  -33.6033  -27.0231   12.0371 C   0  0  0  0  0  0  0  0  0  0  0  0
  -23.0693   -9.8639   19.9409 C   0  0  0  0  0  0  0  0  0  0  0  0
  -23.8328   -9.8668   22.2330 C   0  0  0  0  0  0  0  0  0  0  0  0
  -31.9589  -28.6892   12.6166 C   0  0  0  0  0  0  0  0  0  0  0  0
  -33.7017  -26.6576   13.3792 C   0  0  0  0  0  0  0  0  0  0  0  0
  -34.8835  -20.9453   17.5373 C   0  0  0  0  0  0  0  0  0  0  0  0
  -22.3238   -8.7117   20.1906 C   0  0  0  0  0  0  0  0  0  0  0  0
  -23.0873   -8.7147   22.4828 C   0  0  0  0  0  0  0  0  0  0  0  0
  -35.6982  -20.5289   18.5892 C   0  0  0  0  0  0  0  0  0  0  0  0
  -19.8587   -7.9217   23.0895 C   0  0  0  0  0  0  0  0  0  0  0  0
  -19.1035   -7.8816   24.2615 C   0  0  0  0  0  0  0  0  0  0  0  0
  -34.2546  -21.6679   20.1504 C   0  0  0  0  0  0  0  0  0  0  0  0
  -29.8904  -17.4384   23.1369 C   0  0  0  0  0  0  0  0  0  0  0  0
  -32.0721  -16.5876   22.5425 C   0  0  0  0  0  0  0  0  0  0  0  0
  -20.3428   -5.9412   24.9937 C   0  0  0  0  0  0  0  0  0  0  0  0
  -23.8238  -10.4415   20.9621 C   0  0  0  0  0  0  0  0  0  0  0  0
  -24.1698  -12.9662   20.8445 C   0  0  0  0  0  0  0  0  0  0  0  0
  -32.0407  -28.3249   13.9698 C   0  0  0  0  0  0  0  0  0  0  0  0
  -33.7523  -21.7367   17.7834 C   0  0  0  0  0  0  0  0  0  0  0  0
  -32.9293  -27.3044   14.3589 C   0  0  0  0  0  0  0  0  0  0  0  0
  -33.4256  -22.0910   19.1002 C   0  0  0  0  0  0  0  0  0  0  0  0
  -30.4810  -18.3211   24.0411 C   0  0  0  0  0  0  0  0  0  0  0  0
  -32.6628  -17.4704   23.4466 C   0  0  0  0  0  0  0  0  0  0  0  0
  -31.8672  -18.3372   24.1959 C   0  0  0  0  0  0  0  0  0  0  0  0
  -30.6860  -16.5715   22.3877 C   0  0  0  0  0  0  0  0  0  0  0  0
  -22.3328   -8.1371   21.4616 C   0  0  0  0  0  0  0  0  0  0  0  0
  -35.3855  -20.8926   19.8957 C   0  0  0  0  0  0  0  0  0  0  0  0
  -20.8559   -6.9714   22.8695 C   0  0  0  0  0  0  0  0  0  0  0  0
  -19.3456   -6.8914   25.2136 C   0  0  0  0  0  0  0  0  0  0  0  0
  -21.0979   -5.9812   23.8216 C   0  0  0  0  0  0  0  0  0  0  0  0
  -24.5945  -11.6313   20.7045 C   0  0  0  0  0  0  0  0  0  0  0  0
  -25.2627  -13.7142   20.4804 C   0  0  0  0  0  0  0  0  0  0  0  0
  -36.1496  -18.8695   23.4167 C   0  0  0  0  0  0  0  0  0  0  0  0
  -36.3646  -19.2851   24.6706 C   0  0  0  0  0  0  0  0  0  0  0  0
  -22.9009  -13.4836   21.2661 C   0  0  0  0  0  0  0  0  0  0  0  0
  -32.8315  -24.6587   16.9364 C   0  0  0  0  0  0  0  0  0  0  0  0
  -30.0715  -23.7921   18.4041 C   0  0  0  0  0  0  0  0  0  0  0  0
  -28.5100  -21.8055   20.6979 C   0  0  0  0  0  0  0  0  0  0  0  0
  -30.7309  -14.7502   20.6478 C   0  0  0  0  0  0  0  0  0  0  0  0
  -31.2194  -29.0886   14.9782 C   0  0  0  0  0  0  0  0  0  0  0  0
  -32.8687  -22.1553   16.6405 C   0  0  0  0  0  0  0  0  0  0  0  0
  -32.2111  -22.9223   19.4197 C   0  0  0  0  0  0  0  0  0  0  0  0
  -37.1840  -18.7941   22.3375 C   0  0  0  0  0  0  0  0  0  0  0  0
  -31.1069  -28.3869   16.3292 C   0  0  0  0  0  0  0  0  0  0  0  0
  -29.6086  -12.3411   18.2784 C   0  0  0  0  0  0  0  0  0  0  0  0
  -32.4739  -27.8886   16.7873 C   0  0  0  0  0  0  0  0  0  0  0  0
  -28.1692  -12.0515   18.7099 C   0  0  0  0  0  0  0  0  0  0  0  0
  -30.5260  -12.5669   19.4789 C   0  0  0  0  0  0  0  0  0  0  0  0
  -28.6225  -13.2930   20.8640 C   0  0  0  0  0  0  0  0  0  0  0  0
  -34.9773  -18.4667   21.4297 C   0  0  0  0  0  0  0  0  0  0  0  0
  -33.0459  -26.8626   15.8016 C   0  0  1  0  0  0  0  0  0  0  0  0
  -32.0283  -23.3890   16.9557 C   0  0  1  0  0  0  0  0  0  0  0  0
  -27.6475  -13.1228   19.6875 C   0  0  2  0  0  0  0  0  0  0  0  0
  -36.3315  -19.0850   21.1123 C   0  0  1  0  0  0  0  0  0  1  0  0
  -29.6068  -19.2386   24.8318 C   0  0  0  0  0  0  0  0  0  0  0  0
  -32.5004  -19.2843   25.1651 C   0  0  0  0  0  0  0  0  0  0  0  0
  -26.2551  -21.3535   21.7022 C   0  0  0  0  0  0  0  0  0  0  0  0
  -30.3106  -26.3320   20.0780 C   0  0  0  0  0  0  0  0  0  0  0  0
  -28.6250  -25.3664   21.6574 C   0  0  0  0  0  0  0  0  0  0  0  0
  -27.9945  -25.8183   19.2866 C   0  0  0  0  0  0  0  0  0  0  0  0
  -28.5140  -19.0066   19.7361 C   0  0  0  0  0  0  0  0  0  0  0  0
  -34.1558  -17.4677   23.5940 C   0  0  0  0  0  0  0  0  0  0  0  0
  -29.5350  -23.8837   19.8122 C   0  0  1  0  0  0  0  0  0  0  0  0
  -27.2447  -20.9711   20.6126 C   0  0  2  0  0  0  0  0  0  0  0  0
  -29.1404  -25.3361   20.2027 C   0  0  0  0  0  0  0  0  0  0  0  0
  -25.8586  -11.5338   20.2842 N   0  0  0  0  0  0  0  0  0  0  0  0
  -26.2375  -12.8169   20.1568 N   0  0  0  0  0  0  0  0  0  0  0  0
  -31.3819  -23.3125   18.2673 N   0  0  0  0  0  0  0  0  0  0  0  0
  -29.9702  -13.5977   20.3584 N   0  0  0  0  0  0  0  0  0  0  0  0
  -25.4752  -15.0454   20.4087 N   0  0  0  0  0  0  0  0  0  0  0  0
  -21.8879  -12.5758   21.6038 N   0  0  0  0  0  0  0  0  0  0  0  0
  -30.0864  -15.6754   21.4683 N   0  0  0  0  0  0  0  0  0  0  0  0
  -32.4138  -25.5743   15.9895 N   0  0  0  0  0  0  0  0  0  0  0  0
  -28.4393  -22.9241   19.8948 N   0  0  0  0  0  0  0  0  0  0  0  0
  -34.8131  -18.6440   22.9369 N   0  3  1  0  0  0  0  0  0  0  0  0
  -27.5679  -19.5236   20.7582 N   0  3  0  0  0  0  0  0  0  0  0  0
  -22.6668  -14.7146   21.3252 O   0  0  0  0  0  0  0  0  0  0  0  0
  -33.7603  -24.7981   17.7235 O   0  0  0  0  0  0  0  0  0  0  0  0
  -29.3519  -24.1268   17.4598 O   0  0  0  0  0  0  0  0  0  0  0  0
  -29.4641  -21.4978   21.4090 O   0  0  0  0  0  0  0  0  0  0  0  0
  -31.8595  -14.9176   20.1786 O   0  0  0  0  0  0  0  0  0  0  0  0
  -21.6053   -7.0130   21.7057 O   0  0  0  0  0  0  0  0  0  0  0  0
  -36.1795  -20.4880   20.9242 O   0  0  0  0  0  0  0  0  0  1  0  0
  -18.6213   -6.8540   26.3398 F   0  0  0  0  0  0  0  0  0  0  0  0
  -22.0554   -5.0663   23.6164 F   0  0  0  0  0  0  0  0  0  0  0  0
  1  2  1  0  0  0  0
  1  5  2  0  0  0  0
  2  6  2  0  0  0  0
  3  8  2  0  0  0  0
  3 17  1  0  0  0  0
  4  9  1  0  0  0  0
  4 17  2  0  0  0  0
  5 19  1  0  0  0  0
  6 21  1  0  0  0  0
  7 10  2  0  0  0  0
  7 20  1  0  0  0  0
  8 27  1  0  0  0  0
  9 27  2  0  0  0  0
 10 28  1  0  0  0  0
 11 12  2  0  0  0  0
 11 29  1  0  0  0  0
 12 30  1  0  0  0  0
 13 22  1  0  0  0  0
 13 28  2  0  0  0  0
 14 23  2  0  0  0  0
 14 26  1  0  0  0  0
 15 24  1  0  0  0  0
 15 26  2  0  0  0  0
 16 30  2  0  0  0  0
 16 31  1  0  0  0  0
 17 32  1  0  0  0  0
 18 32  1  0  0  0  0
 18 33  2  0  0  0  0
 18 36  1  0  0  0  0
 19 21  2  0  0  0  0
 19 41  1  0  0  0  0
 20 22  2  0  0  0  0
 20 42  1  0  0  0  0
 21 52  1  0  0  0  0
 22 43  1  0  0  0  0
 23 25  1  0  0  0  0
 23 56  1  0  0  0  0
 24 25  2  0  0  0  0
 24 63  1  0  0  0  0
 25 57  1  0  0  0  0
 26 73  1  0  0  0  0
 27 83  1  0  0  0  0
 28 84  1  0  0  0  0
 29 31  2  0  0  0  0
 29 83  1  0  0  0  0
 30 85  1  0  0  0  0
 31 86  1  0  0  0  0
 32 67  2  0  0  0  0
 33 68  1  0  0  0  0
 33 71  1  0  0  0  0
 34 35  2  0  0  0  0
 34 44  1  0  0  0  0
 34 76  1  0  0  0  0
 36 72  1  0  0  0  0
 36 78  2  0  0  0  0
 37 53  1  0  0  0  0
 37 74  1  0  0  0  0
 37 79  2  0  0  0  0
 38 64  1  0  0  0  0
 38 69  1  0  0  0  0
 38 80  2  0  0  0  0
 39 65  1  0  0  0  0
 39 75  1  0  0  0  0
 39 81  2  0  0  0  0
 40 70  1  0  0  0  0
 40 73  1  0  0  0  0
 40 82  2  0  0  0  0
 41 45  1  0  0  0  0
 42 53  1  0  0  0  0
 43 69  1  0  0  0  0
 44 55  1  0  0  0  0
 45 47  1  0  0  0  0
 46 48  1  0  0  0  0
 46 49  1  0  0  0  0
 47 52  1  0  0  0  0
 48 54  1  0  0  0  0
 49 70  1  0  0  0  0
 50 54  1  0  0  0  0
 50 70  1  0  0  0  0
 51 55  1  0  0  0  0
 51 76  1  0  0  0  0
 52 74  1  0  0  0  0
 53 69  1  0  0  0  0
 54 68  1  0  0  0  0
 55 84  1  0  0  0  0
 58 65  1  0  0  0  0
 59 66  1  0  0  0  0
 60 66  1  0  0  0  0
 61 66  1  0  0  0  0
 62 77  1  0  0  0  0
 63 76  1  0  0  0  0
 64 66  1  0  0  0  0
 64 75  1  0  0  0  0
 65 77  1  0  0  0  0
 67 68  1  0  0  0  0
M  CHG  2  76   1  77   1
M  ISO  4  40 100  55 101  73 100  84 101
M  END
> <Batch ID>
0034

> <Smiles>
C=C1C[101CH:1]([101O:1]c2ccc3c(c2)CN(C(=O)C(NC(=O)C(C)NC)C(C)(C)C)C(C(=O)NC2CCCc4ccccc42)C3)CN1Cc1cc([100NH:0][100C:0](=O)N2CCCC(n3nc(-c4ccc(Oc5ccc(F)cc5F)cc4)c(C(N)=O)c3N)C2)cc(C)c1C

> <Shape>
0.250

> <Color>
0.189

> <Negative vol penalty>
0.000

$$$$

  -OEChem-04042321483D

 88 97  0     1  0  0  0  0  0999 V2000
  -29.0455  -25.3797   16.5980 C   0  0  0  0  0  0  0  0  0  0  0  0
  -27.6817  -25.5934   16.7702 C   0  0  0  0  0  0  0  0  0  0  0  0
  -26.3002  -14.5045   18.7519 C   0  0  0  0  0  0  0  0  0  0  0  0
  -24.2804  -14.7850   20.0474 C   0  0  0  0  0  0  0  0  0  0  0  0
  -29.9265  -25.6233   17.6508 C   0  0  0  0  0  0  0  0  0  0  0  0
  -27.1979  -26.0498   17.9958 C   0  0  0  0  0  0  0  0  0  0  0  0
  -22.4659  -29.8287   18.9090 C   0  0  0  0  0  0  0  0  0  0  0  0
  -26.5075  -13.2590   19.3445 C   0  0  0  0  0  0  0  0  0  0  0  0
  -24.4875  -13.5393   20.6400 C   0  0  0  0  0  0  0  0  0  0  0  0
  -21.1339  -29.5984   19.2507 C   0  0  0  0  0  0  0  0  0  0  0  0
  -24.0458  -10.2899   19.8235 C   0  0  0  0  0  0  0  0  0  0  0  0
  -22.9498   -9.4336   19.9286 C   0  0  0  0  0  0  0  0  0  0  0  0
  -21.6660  -29.9978   21.5694 C   0  0  0  0  0  0  0  0  0  0  0  0
  -22.2774  -24.4319   21.7005 C   0  0  0  0  0  0  0  0  0  0  0  0
  -23.1928   -9.4176   22.3323 C   0  0  0  0  0  0  0  0  0  0  0  0
  -25.1867  -15.2676   19.1034 C   0  0  0  0  0  0  0  0  0  0  0  0
  -24.2534  -16.8263   17.3126 C   0  0  0  0  0  0  0  0  0  0  0  0
  -29.4544  -26.0923   18.8869 C   0  0  0  0  0  0  0  0  0  0  0  0
  -23.4116  -30.1351   19.8980 C   0  0  0  0  0  0  0  0  0  0  0  0
  -28.0732  -26.2987   19.0665 C   0  0  0  0  0  0  0  0  0  0  0  0
  -23.0087  -30.2341   21.2374 C   0  0  0  0  0  0  0  0  0  0  0  0
  -21.2393  -25.0829   22.3670 C   0  0  0  0  0  0  0  0  0  0  0  0
  -19.9202  -24.6737   22.1718 C   0  0  0  0  0  0  0  0  0  0  0  0
  -19.6391  -23.6135   21.3100 C   0  0  0  0  0  0  0  0  0  0  0  0
  -21.9963  -23.3717   20.8386 C   0  0  0  0  0  0  0  0  0  0  0  0
  -25.6011  -12.7763   20.2885 C   0  0  0  0  0  0  0  0  0  0  0  0
  -20.7344  -29.6801   20.5814 C   0  0  0  0  0  0  0  0  0  0  0  0
  -24.7154  -10.7100   20.9728 C   0  0  0  0  0  0  0  0  0  0  0  0
  -22.5232   -8.9975   21.1830 C   0  0  0  0  0  0  0  0  0  0  0  0
  -24.2889  -10.2739   22.2271 C   0  0  0  0  0  0  0  0  0  0  0  0
  -20.6771  -22.9625   20.6435 C   0  0  0  0  0  0  0  0  0  0  0  0
  -24.9724  -16.5546   18.4920 C   0  0  0  0  0  0  0  0  0  0  0  0
  -24.3444  -18.1884   17.1612 C   0  0  0  0  0  0  0  0  0  0  0  0
  -17.3238  -27.2962   22.7535 C   0  0  0  0  0  0  0  0  0  0  0  0
  -16.2126  -26.9880   23.4314 C   0  0  0  0  0  0  0  0  0  0  0  0
  -23.5648  -15.9279   16.4327 C   0  0  0  0  0  0  0  0  0  0  0  0
  -26.0694  -28.7557   20.9642 C   0  0  0  0  0  0  0  0  0  0  0  0
  -26.3092  -31.4712   22.7223 C   0  0  0  0  0  0  0  0  0  0  0  0
  -24.7405  -34.1373   24.1637 C   0  0  0  0  0  0  0  0  0  0  0  0
  -24.4327  -23.0432   20.2890 C   0  0  0  0  0  0  0  0  0  0  0  0
  -30.4397  -26.2963   20.0103 C   0  0  0  0  0  0  0  0  0  0  0  0
  -24.8391  -30.4070   19.5098 C   0  0  0  0  0  0  0  0  0  0  0  0
  -23.9810  -30.5798   22.3345 C   0  0  0  0  0  0  0  0  0  0  0  0
  -17.9087  -28.6658   22.6123 C   0  0  0  0  0  0  0  0  0  0  0  0
  -29.8880  -27.1363   21.1594 C   0  0  0  0  0  0  0  0  0  0  0  0
  -27.4005  -21.6877   18.8636 C   0  0  0  0  0  0  0  0  0  0  0  0
  -28.4904  -26.6617   21.5444 C   0  0  0  0  0  0  0  0  0  0  0  0
  -27.0083  -20.2522   18.5065 C   0  0  0  0  0  0  0  0  0  0  0  0
  -26.7471  -22.1469   20.1659 C   0  0  0  0  0  0  0  0  0  0  0  0
  -24.8963  -20.5495   19.8622 C   0  0  0  0  0  0  0  0  0  0  0  0
  -18.8798  -27.1044   21.0523 C   0  0  0  0  0  0  0  0  0  0  0  0
  -27.5128  -26.8171   20.3732 C   0  0  1  0  0  0  0  0  0  0  0  0
  -25.8200  -30.2060   20.6609 C   0  0  1  0  0  0  0  0  0  0  0  0
  -25.4785  -20.0649   18.5244 C   0  0  2  0  0  0  0  0  0  0  0  0
  -19.1764  -28.3891   21.8140 C   0  0  1  0  0  0  0  0  0  1  0  0
  -21.5674  -26.2159   23.2839 C   0  0  0  0  0  0  0  0  0  0  0  0
  -18.2159  -23.1907   21.1128 C   0  0  0  0  0  0  0  0  0  0  0  0
  -15.6626  -25.6065   23.5474 C   0  0  0  0  0  0  0  0  0  0  0  0
  -25.1947  -36.1669   25.5680 C   0  0  0  0  0  0  0  0  0  0  0  0
  -26.5750  -29.6997   25.1923 C   0  0  0  0  0  0  0  0  0  0  0  0
  -26.0710  -31.7074   26.6007 C   0  0  0  0  0  0  0  0  0  0  0  0
  -28.1054  -31.6774   25.1573 C   0  0  0  0  0  0  0  0  0  0  0  0
  -23.7644  -35.9624   22.0483 C   0  0  0  0  0  0  0  0  0  0  0  0
  -18.8067  -25.3785   22.8889 C   0  0  0  0  0  0  0  0  0  0  0  0
  -25.8278  -31.9088   24.0845 C   0  0  1  0  0  0  0  0  0  0  0  0
  -25.0623  -35.6208   24.1548 C   0  0  2  0  0  0  0  0  0  0  0  0
  -26.6266  -31.2399   25.2385 C   0  0  0  0  0  0  0  0  0  0  0  0
  -25.4827  -17.6556   19.0501 N   0  0  0  0  0  0  0  0  0  0  0  0
  -25.0838  -18.6324   18.2177 N   0  0  0  0  0  0  0  0  0  0  0  0
  -25.3668  -30.8307   21.9053 N   0  0  0  0  0  0  0  0  0  0  0  0
  -25.2979  -21.9434   20.1084 N   0  0  0  0  0  0  0  0  0  0  0  0
  -23.8633  -19.0377   16.2286 N   0  0  0  0  0  0  0  0  0  0  0  0
  -23.5706  -14.5597   16.7365 N   0  0  0  0  0  0  0  0  0  0  0  0
  -23.0772  -22.7344   20.1805 N   0  0  0  0  0  0  0  0  0  0  0  0
  -27.1034  -28.1984   20.2364 N   0  0  0  0  0  0  0  0  0  0  0  0
  -25.8814  -33.3668   24.0874 N   0  0  0  0  0  0  0  0  0  0  0  0
  -18.0174  -26.2928   21.9960 N   0  3  1  0  0  0  0  0  0  0  0  0
  -23.9866  -36.3800   23.4565 N   0  3  0  0  0  0  0  0  0  0  0  0
  -22.9761  -16.3246   15.3985 O   0  0  0  0  0  0  0  0  0  0  0  0
  -25.3762  -28.1849   21.7980 O   0  0  0  0  0  0  0  0  0  0  0  0
  -27.4764  -31.6959   22.3924 O   0  0  0  0  0  0  0  0  0  0  0  0
  -23.5922  -33.7052   24.2353 O   0  0  0  0  0  0  0  0  0  0  0  0
  -24.8634  -24.1807   20.4956 O   0  0  0  0  0  0  0  0  0  0  0  0
  -25.8028  -11.5608   20.8668 O   0  0  0  0  0  0  0  0  0  0  0  0
  -19.4351  -29.4551   20.9176 O   0  0  0  0  0  0  0  0  0  1  0  0
  -21.4698   -8.1764   21.2838 F   0  0  0  0  0  0  0  0  0  0  0  0
  -24.9274  -10.6750   23.3349 F   0  0  0  0  0  0  0  0  0  0  0  0
  -20.3260  -21.6436   19.5732 Cl  0  0  0  0  0  0  0  0  0  0  0  0
  1  2  1  0  0  0  0
  1  5  2  0  0  0  0
  2  6  2  0  0  0  0
  3  8  2  0  0  0  0
  3 16  1  0  0  0  0
  4  9  1  0  0  0  0
  4 16  2  0  0  0  0
  5 18  1  0  0  0  0
  6 20  1  0  0  0  0
  7 10  2  0  0  0  0
  7 19  1  0  0  0  0
  8 26  1  0  0  0  0
  9 26  2  0  0  0  0
 10 27  1  0  0  0  0
 11 12  2  0  0  0  0
 11 28  1  0  0  0  0
 12 29  1  0  0  0  0
 13 21  1  0  0  0  0
 13 27  2  0  0  0  0
 14 22  2  0  0  0  0
 14 25  1  0  0  0  0
 15 29  2  0  0  0  0
 15 30  1  0  0  0  0
 16 32  1  0  0  0  0
 17 32  1  0  0  0  0
 17 33  2  0  0  0  0
 17 36  1  0  0  0  0
 18 20  2  0  0  0  0
 18 41  1  0  0  0  0
 19 21  2  0  0  0  0
 19 42  1  0  0  0  0
 20 52  1  0  0  0  0
 21 43  1  0  0  0  0
 22 23  1  0  0  0  0
 22 56  1  0  0  0  0
 23 24  2  0  0  0  0
 23 64  1  0  0  0  0
 24 31  1  0  0  0  0
 24 57  1  0  0  0  0
 25 31  2  0  0  0  0
 25 74  1  0  0  0  0
 26 84  1  0  0  0  0
 27 85  1  0  0  0  0
 28 30  2  0  0  0  0
 28 84  1  0  0  0  0
 29 86  1  0  0  0  0
 30 87  1  0  0  0  0
 31 88  1  0  0  0  0
 32 68  2  0  0  0  0
 33 69  1  0  0  0  0
 33 72  1  0  0  0  0
 34 35  2  0  0  0  0
 34 44  1  0  0  0  0
 34 77  1  0  0  0  0
 35 58  1  0  0  0  0
 36 73  1  0  0  0  0
 36 79  2  0  0  0  0
 37 53  1  0  0  0  0
 37 75  1  0  0  0  0
 37 80  2  0  0  0  0
 38 65  1  0  0  0  0
 38 70  1  0  0  0  0
 38 81  2  0  0  0  0
 39 66  1  0  0  0  0
 39 76  1  0  0  0  0
 39 82  2  0  0  0  0
 40 71  1  0  0  0  0
 40 74  1  0  0  0  0
 40 83  2  0  0  0  0
 41 45  1  0  0  0  0
 42 53  1  0  0  0  0
 43 70  1  0  0  0  0
 44 55  1  0  0  0  0
 45 47  1  0  0  0  0
 46 48  1  0  0  0  0
 46 49  1  0  0  0  0
 47 52  1  0  0  0  0
 48 54  1  0  0  0  0
 49 71  1  0  0  0  0
 50 54  1  0  0  0  0
 50 71  1  0  0  0  0
 51 55  1  0  0  0  0
 51 77  1  0  0  0  0
 52 75  1  0  0  0  0
 53 70  1  0  0  0  0
 54 69  1  0  0  0  0
 55 85  1  0  0  0  0
 59 66  1  0  0  0  0
 60 67  1  0  0  0  0
 61 67  1  0  0  0  0
 62 67  1  0  0  0  0
 63 78  1  0  0  0  0
 64 77  1  0  0  0  0
 65 67  1  0  0  0  0
 65 76  1  0  0  0  0
 66 78  1  0  0  0  0
 68 69  1  0  0  0  0
M  CHG  2  77   1  78   1
M  ISO  4  40 100  55 101  74 100  85 101
M  END
> <Batch ID>
0034

> <Smiles>
CC=C1C[101CH:1]([101O:1]c2ccc3c(c2)CN(C(=O)C(NC(=O)C(C)NC)C(C)(C)C)C(C(=O)NC2CCCc4ccccc42)C3)CN1Cc1c(C)cc([100NH:0][100C:0](=O)N2CCCC(n3nc(-c4ccc(Oc5ccc(F)cc5F)cc4)c(C(N)=O)c3N)C2)c(Cl)c1C

> <Shape>
0.305

> <Color>
0.077

> <Negative vol penalty>
0.000

$$$$

  -OEChem-04042321483D

 90 99  0     1  0  0  0  0  0999 V2000
  -29.0715  -25.1490   16.5949 C   0  0  0  0  0  0  0  0  0  0  0  0
  -27.8225  -25.2548   17.1984 C   0  0  0  0  0  0  0  0  0  0  0  0
  -20.6217  -21.8178   20.9628 C   0  0  0  0  0  0  0  0  0  0  0  0
  -25.7035  -17.2972   22.3503 C   0  0  0  0  0  0  0  0  0  0  0  0
  -24.9154  -15.0137   22.3868 C   0  0  0  0  0  0  0  0  0  0  0  0
  -20.0741  -20.6225   21.4288 C   0  0  0  0  0  0  0  0  0  0  0  0
  -30.1955  -25.6838   17.2232 C   0  0  0  0  0  0  0  0  0  0  0  0
  -27.6968  -25.8944   18.4310 C   0  0  0  0  0  0  0  0  0  0  0  0
  -23.7503  -29.0641   18.5817 C   0  0  0  0  0  0  0  0  0  0  0  0
  -19.9916  -23.0300   21.2442 C   0  0  0  0  0  0  0  0  0  0  0  0
  -26.4826  -17.0104   21.2294 C   0  0  0  0  0  0  0  0  0  0  0  0
  -25.6945  -14.7269   21.2658 C   0  0  0  0  0  0  0  0  0  0  0  0
  -22.4869  -28.5002   18.7537 C   0  0  0  0  0  0  0  0  0  0  0  0
  -28.9413  -14.0686   20.5908 C   0  0  0  0  0  0  0  0  0  0  0  0
  -29.6858  -12.8891   20.6036 C   0  0  0  0  0  0  0  0  0  0  0  0
  -22.5593  -29.0676   21.0972 C   0  0  0  0  0  0  0  0  0  0  0  0
  -28.4994  -12.1190   18.6449 C   0  0  0  0  0  0  0  0  0  0  0  0
  -24.9199  -16.2988   22.9290 C   0  0  0  0  0  0  0  0  0  0  0  0
  -18.8964  -20.6395   22.1761 C   0  0  0  0  0  0  0  0  0  0  0  0
  -24.5649  -17.0521   25.3402 C   0  0  0  0  0  0  0  0  0  0  0  0
  -30.0821  -26.3388   18.4597 C   0  0  0  0  0  0  0  0  0  0  0  0
  -24.4334  -29.6252   19.6702 C   0  0  0  0  0  0  0  0  0  0  0  0
  -28.8205  -26.4372   19.0771 C   0  0  0  0  0  0  0  0  0  0  0  0
  -23.8301  -29.6403   20.9358 C   0  0  0  0  0  0  0  0  0  0  0  0
  -18.8139  -23.0470   21.9915 C   0  0  0  0  0  0  0  0  0  0  0  0
  -18.2663  -21.8517   22.4575 C   0  0  0  0  0  0  0  0  0  0  0  0
  -26.4781  -15.7253   20.6872 C   0  0  0  0  0  0  0  0  0  0  0  0
  -21.8924  -28.4993   20.0121 C   0  0  0  0  0  0  0  0  0  0  0  0
  -27.9758  -14.2733   19.6051 C   0  0  0  0  0  0  0  0  0  0  0  0
  -29.4648  -11.9143   19.6306 C   0  0  0  0  0  0  0  0  0  0  0  0
  -27.7549  -13.2985   18.6321 C   0  0  0  0  0  0  0  0  0  0  0  0
  -24.1153  -16.5943   24.0872 C   0  0  0  0  0  0  0  0  0  0  0  0
  -23.4211  -17.1784   26.0902 C   0  0  0  0  0  0  0  0  0  0  0  0
  -19.4319  -26.2031   21.2441 C   0  0  0  0  0  0  0  0  0  0  0  0
  -18.3334  -19.3392   22.6637 C   0  0  0  0  0  0  0  0  0  0  0  0
  -25.8972  -17.3378   25.7864 C   0  0  0  0  0  0  0  0  0  0  0  0
  -27.1737  -29.0082   21.1582 C   0  0  0  0  0  0  0  0  0  0  0  0
  -26.4544  -31.7241   22.7796 C   0  0  0  0  0  0  0  0  0  0  0  0
  -24.0647  -33.9139   23.8477 C   0  0  0  0  0  0  0  0  0  0  0  0
  -17.6855  -18.0146   24.4617 C   0  0  0  0  0  0  0  0  0  0  0  0
  -31.3326  -26.8593   19.1228 C   0  0  0  0  0  0  0  0  0  0  0  0
  -25.7842  -30.2535   19.4627 C   0  0  0  0  0  0  0  0  0  0  0  0
  -24.5130  -30.2483   22.1327 C   0  0  0  0  0  0  0  0  0  0  0  0
  -31.0567  -27.8508   20.2502 C   0  0  0  0  0  0  0  0  0  0  0  0
  -19.9165  -28.2058   23.8424 C   0  0  0  0  0  0  0  0  0  0  0  0
  -19.2244  -26.9451   24.3507 C   0  0  0  0  0  0  0  0  0  0  0  0
  -19.0186  -15.3847   26.5572 C   0  0  0  0  0  0  0  0  0  0  0  0
  -29.9570  -27.3244   21.1669 C   0  0  0  0  0  0  0  0  0  0  0  0
  -19.7567  -28.4635   22.3473 C   0  0  0  0  0  0  0  0  0  0  0  0
  -20.5135  -15.4142   26.2410 C   0  0  0  0  0  0  0  0  0  0  0  0
  -19.7289  -25.6679   23.6897 C   0  0  0  0  0  0  0  0  0  0  0  0
  -18.1808  -15.7338   25.3313 C   0  0  0  0  0  0  0  0  0  0  0  0
  -20.0409  -17.0811   24.3922 C   0  0  0  0  0  0  0  0  0  0  0  0
  -28.6399  -27.1456   20.4022 C   0  0  1  0  0  0  0  0  0  0  0  0
  -20.3767  -27.3810   21.4640 C   0  0  2  0  0  0  0  0  0  1  0  0
  -26.6076  -30.3371   20.7443 C   0  0  1  0  0  0  0  0  0  0  0  0
  -20.9180  -16.7600   25.6140 C   0  0  2  0  0  0  0  0  0  0  0  0
  -17.0031  -21.8737   23.2592 C   0  0  0  0  0  0  0  0  0  0  0  0
  -16.4798  -18.3772   21.2470 C   0  0  0  0  0  0  0  0  0  0  0  0
  -23.7771  -36.0173   25.1858 C   0  0  0  0  0  0  0  0  0  0  0  0
  -26.8064  -30.1297   25.3571 C   0  0  0  0  0  0  0  0  0  0  0  0
  -25.6078  -31.9616   26.5719 C   0  0  0  0  0  0  0  0  0  0  0  0
  -27.7679  -32.4375   25.4185 C   0  0  0  0  0  0  0  0  0  0  0  0
  -22.9690  -35.3811   21.5227 C   0  0  0  0  0  0  0  0  0  0  0  0
  -18.1601  -24.3586   22.2807 C   0  0  0  0  0  0  0  0  0  0  0  0
  -17.9468  -18.2824   21.6311 C   0  0  0  0  0  0  0  0  0  0  0  0
  -25.6860  -32.0459   24.0385 C   0  0  1  0  0  0  0  0  0  0  0  0
  -23.9938  -35.4296   23.8000 C   0  0  2  0  0  0  0  0  0  0  0  0
  -26.4547  -31.6304   25.3245 C   0  0  0  0  0  0  0  0  0  0  0  0
  -22.7895  -16.4399   24.0399 N   0  0  0  0  0  0  0  0  0  0  0  0
  -18.2110  -19.1789   23.9497 N   0  0  0  0  0  0  0  0  0  0  0  0
  -22.3960  -16.8028   25.2727 N   0  0  0  0  0  0  0  0  0  0  0  0
  -19.1244  -25.4472   22.3750 N   0  0  0  0  0  0  0  0  0  0  0  0
  -25.8352  -30.8446   21.8802 N   0  0  0  0  0  0  0  0  0  0  0  0
  -18.6154  -16.9971   24.7356 N   0  0  0  0  0  0  0  0  0  0  0  0
  -23.2023  -17.5729   27.3625 N   0  0  0  0  0  0  0  0  0  0  0  0
  -26.6399  -16.3060   26.3762 N   0  0  0  0  0  0  0  0  0  0  0  0
  -27.9902  -28.4242   20.2086 N   0  0  0  0  0  0  0  0  0  0  0  0
  -25.3636  -33.4670   23.9680 N   0  0  0  0  0  0  0  0  0  0  0  0
  -22.8717  -35.8682   22.9227 N   0  3  0  0  0  0  0  0  0  0  0  0
  -18.9813  -25.9641   20.1206 O   0  0  0  0  0  0  0  0  0  0  0  0
  -26.4078  -18.4787   25.6805 O   0  0  0  0  0  0  0  0  0  0  0  0
  -26.8918  -28.5475   22.2582 O   0  0  0  0  0  0  0  0  0  0  0  0
  -27.5601  -32.2399   22.5974 O   0  0  0  0  0  0  0  0  0  0  0  0
  -23.0674  -33.1982   23.7883 O   0  0  0  0  0  0  0  0  0  0  0  0
  -16.4842  -17.8919   24.7059 O   0  0  0  0  0  0  0  0  0  0  0  0
  -27.2380  -15.4451   19.5933 O   0  0  0  0  0  0  0  0  0  0  0  0
  -20.6527  -27.9458   20.1838 O   0  0  0  0  0  0  0  0  0  1  0  0
  -30.1809  -10.7824   19.6421 F   0  0  0  0  0  0  0  0  0  0  0  0
  -26.8295  -13.4900   17.6819 F   0  0  0  0  0  0  0  0  0  0  0  0
  1  2  1  0  0  0  0
  1  7  2  0  0  0  0
  2  8  2  0  0  0  0
  3  6  2  0  0  0  0
  3 10  1  0  0  0  0
  4 11  2  0  0  0  0
  4 18  1  0  0  0  0
  5 12  1  0  0  0  0
  5 18  2  0  0  0  0
  6 19  1  0  0  0  0
  7 21  1  0  0  0  0
  8 23  1  0  0  0  0
  9 13  2  0  0  0  0
  9 22  1  0  0  0  0
 10 25  2  0  0  0  0
 11 27  1  0  0  0  0
 12 27  2  0  0  0  0
 13 28  1  0  0  0  0
 14 15  2  0  0  0  0
 14 29  1  0  0  0  0
 15 30  1  0  0  0  0
 16 24  1  0  0  0  0
 16 28  2  0  0  0  0
 17 30  2  0  0  0  0
 17 31  1  0  0  0  0
 18 32  1  0  0  0  0
 19 26  2  0  0  0  0
 19 35  1  0  0  0  0
 20 32  1  0  0  0  0
 20 33  2  0  0  0  0
 20 36  1  0  0  0  0
 21 23  2  0  0  0  0
 21 41  1  0  0  0  0
 22 24  2  0  0  0  0
 22 42  1  0  0  0  0
 23 54  1  0  0  0  0
 24 43  1  0  0  0  0
 25 26  1  0  0  0  0
 25 65  1  0  0  0  0
 26 58  1  0  0  0  0
 27 87  1  0  0  0  0
 28 88  1  0  0  0  0
 29 31  2  0  0  0  0
 29 87  1  0  0  0  0
 30 89  1  0  0  0  0
 31 90  1  0  0  0  0
 32 70  2  0  0  0  0
 33 72  1  0  0  0  0
 33 76  1  0  0  0  0
 34 55  1  0  0  0  0
 34 73  1  0  0  0  0
 34 81  2  0  0  0  0
 35 66  1  0  0  0  0
 35 71  2  0  0  0  0
 36 77  1  0  0  0  0
 36 82  2  0  0  0  0
 37 56  1  0  0  0  0
 37 78  1  0  0  0  0
 37 83  2  0  0  0  0
 38 67  1  0  0  0  0
 38 74  1  0  0  0  0
 38 84  2  0  0  0  0
 39 68  1  0  0  0  0
 39 79  1  0  0  0  0
 39 85  2  0  0  0  0
 40 71  1  0  0  0  0
 40 75  1  0  0  0  0
 40 86  2  0  0  0  0
 41 44  1  0  0  0  0
 42 56  1  0  0  0  0
 43 74  1  0  0  0  0
 44 48  1  0  0  0  0
 45 46  1  0  0  0  0
 45 49  1  0  0  0  0
 46 51  1  0  0  0  0
 47 50  1  0  0  0  0
 47 52  1  0  0  0  0
 48 54  1  0  0  0  0
 49 55  1  0  0  0  0
 50 57  1  0  0  0  0
 51 73  1  0  0  0  0
 52 75  1  0  0  0  0
 53 57  1  0  0  0  0
 53 75  1  0  0  0  0
 54 78  1  0  0  0  0
 55 88  1  0  0  0  0
 56 74  1  0  0  0  0
 57 72  1  0  0  0  0
 59 66  1  0  0  0  0
 60 68  1  0  0  0  0
 61 69  1  0  0  0  0
 62 69  1  0  0  0  0
 63 69  1  0  0  0  0
 64 80  1  0  0  0  0
 65 73  1  0  0  0  0
 67 69  1  0  0  0  0
 67 79  1  0  0  0  0
 68 80  1  0  0  0  0
 70 72  1  0  0  0  0
M  CHG  1  80   1
M  ISO  4  40 100  55 101  71 100  88 101
M  END
> <Batch ID>
0034

> <Smiles>
CCC(=[100N:0][100C:0](=O)N1CCCC(n2nc(-c3ccc(Oc4ccc(F)cc4F)cc3)c(C(N)=O)c2N)C1)c1cccc(CN2CCCC[101CH:1]([101O:1]c3ccc4c(c3)CN(C(=O)C(NC(=O)C(C)NC)C(C)(C)C)C(C(=O)NC3CCCc5ccccc53)C4)C2=O)c1C

> <Shape>
0.263

> <Color>
0.076

> <Negative vol penalty>
0.000

$$$$

  -OEChem-04042321483D

 86 95  0     1  0  0  0  0  0999 V2000
  -29.8844  -21.3290   18.0111 C   0  0  0  0  0  0  0  0  0  0  0  0
  -29.8612  -22.6130   17.4786 C   0  0  0  0  0  0  0  0  0  0  0  0
  -25.4620  -13.7590   19.5938 C   0  0  0  0  0  0  0  0  0  0  0  0
  -23.9071  -13.4579   21.4183 C   0  0  0  0  0  0  0  0  0  0  0  0
  -28.8158  -20.8797   18.7841 C   0  0  0  0  0  0  0  0  0  0  0  0
  -28.7750  -23.4524   17.7288 C   0  0  0  0  0  0  0  0  0  0  0  0
  -23.6083  -29.8282   19.1626 C   0  0  0  0  0  0  0  0  0  0  0  0
  -17.3406  -23.8596   21.1843 C   0  0  0  0  0  0  0  0  0  0  0  0
  -17.0288  -22.5594   21.5814 C   0  0  0  0  0  0  0  0  0  0  0  0
  -25.8921  -12.4405   19.7426 C   0  0  0  0  0  0  0  0  0  0  0  0
  -24.3372  -12.1393   21.5671 C   0  0  0  0  0  0  0  0  0  0  0  0
  -22.4972  -30.0251   19.9814 C   0  0  0  0  0  0  0  0  0  0  0  0
  -23.8209   -9.1660   20.0462 C   0  0  0  0  0  0  0  0  0  0  0  0
  -22.8456   -8.1822   20.2090 C   0  0  0  0  0  0  0  0  0  0  0  0
  -23.5823  -28.7836   21.7422 C   0  0  0  0  0  0  0  0  0  0  0  0
  -23.7916   -7.5993   22.3543 C   0  0  0  0  0  0  0  0  0  0  0  0
  -24.4695  -14.2677   20.4317 C   0  0  0  0  0  0  0  0  0  0  0  0
  -23.4434  -16.2110   19.1362 C   0  0  0  0  0  0  0  0  0  0  0  0
  -27.7107  -21.7102   19.0330 C   0  0  0  0  0  0  0  0  0  0  0  0
  -24.7122  -29.0970   19.6245 C   0  0  0  0  0  0  0  0  0  0  0  0
  -27.6978  -23.0257   18.5264 C   0  0  0  0  0  0  0  0  0  0  0  0
  -24.7073  -28.5811   20.9283 C   0  0  0  0  0  0  0  0  0  0  0  0
  -18.6732  -24.2648   21.1075 C   0  0  0  0  0  0  0  0  0  0  0  0
  -18.0495  -21.6643   21.9017 C   0  0  0  0  0  0  0  0  0  0  0  0
  -19.6939  -23.3697   21.4278 C   0  0  0  0  0  0  0  0  0  0  0  0
  -19.3821  -22.0694   21.8249 C   0  0  0  0  0  0  0  0  0  0  0  0
  -25.3297  -11.6306   20.7293 C   0  0  0  0  0  0  0  0  0  0  0  0
  -22.4829  -29.5003   21.2704 C   0  0  0  0  0  0  0  0  0  0  0  0
  -24.7817   -9.3663   21.0374 C   0  0  0  0  0  0  0  0  0  0  0  0
  -22.8309   -7.3989   21.3631 C   0  0  0  0  0  0  0  0  0  0  0  0
  -24.7670   -8.5830   22.1915 C   0  0  0  0  0  0  0  0  0  0  0  0
  -24.0252  -15.6298   20.2788 C   0  0  0  0  0  0  0  0  0  0  0  0
  -23.2033  -17.5140   19.4983 C   0  0  0  0  0  0  0  0  0  0  0  0
  -23.1464  -15.6255   17.8616 C   0  0  0  0  0  0  0  0  0  0  0  0
  -26.1519  -26.4065   18.7345 C   0  0  0  0  0  0  0  0  0  0  0  0
  -28.2942  -27.2565   21.0171 C   0  0  0  0  0  0  0  0  0  0  0  0
  -28.1839  -28.6343   24.3498 C   0  0  0  0  0  0  0  0  0  0  0  0
  -21.3776  -21.2963   23.1540 C   0  0  0  0  0  0  0  0  0  0  0  0
  -26.5849  -21.1758   19.8829 C   0  0  0  0  0  0  0  0  0  0  0  0
  -25.9140  -28.9164   18.7383 C   0  0  0  0  0  0  0  0  0  0  0  0
  -25.8755  -27.8061   21.4788 C   0  0  0  0  0  0  0  0  0  0  0  0
  -25.2917  -21.9686   19.7235 C   0  0  0  0  0  0  0  0  0  0  0  0
  -24.7218  -20.1401   23.5504 C   0  0  0  0  0  0  0  0  0  0  0  0
  -18.7162  -27.7765   23.8587 C   0  0  0  0  0  0  0  0  0  0  0  0
  -25.5730  -23.4566   19.8689 C   0  0  0  0  0  0  0  0  0  0  0  0
  -24.7908  -18.9114   22.6406 C   0  0  0  0  0  0  0  0  0  0  0  0
  -19.5735  -28.9625   23.4369 C   0  0  0  0  0  0  0  0  0  0  0  0
  -23.3619  -20.2628   24.2355 C   0  0  0  0  0  0  0  0  0  0  0  0
  -22.2747  -18.9998   22.4211 C   0  0  0  0  0  0  0  0  0  0  0  0
  -18.2230  -26.9834   22.6569 C   0  0  0  0  0  0  0  0  0  0  0  0
  -20.2222  -27.7258   21.3371 C   0  0  0  0  0  0  0  0  0  0  0  0
  -26.5130  -23.9457   18.7598 C   0  0  1  0  0  0  0  0  0  0  0  0
  -26.7710  -27.7169   19.1309 C   0  0  1  0  0  0  0  0  0  0  0  0
  -23.6034  -18.8698   21.6588 C   0  0  2  0  0  0  0  0  0  0  0  0
  -20.7220  -28.5258   22.5328 C   0  0  1  0  0  0  0  0  0  1  0  0
  -17.6835  -20.2781   22.3243 C   0  0  0  0  0  0  0  0  0  0  0  0
  -21.1215  -23.8118   21.3445 C   0  0  0  0  0  0  0  0  0  0  0  0
  -29.8682  -30.0085   25.6037 C   0  0  0  0  0  0  0  0  0  0  0  0
  -29.2261  -24.5723   22.1292 C   0  0  0  0  0  0  0  0  0  0  0  0
  -29.5876  -25.6923   24.3390 C   0  0  0  0  0  0  0  0  0  0  0  0
  -30.8921  -26.4252   22.3430 C   0  0  0  0  0  0  0  0  0  0  0  0
  -26.2172  -30.7848   24.8663 C   0  0  0  0  0  0  0  0  0  0  0  0
  -18.9801  -25.6691   20.6778 C   0  0  0  0  0  0  0  0  0  0  0  0
  -28.4355  -27.0023   22.4984 C   0  0  1  0  0  0  0  0  0  0  0  0
  -28.5973  -30.0336   24.7688 C   0  0  2  0  0  0  0  0  0  0  0  0
  -29.5098  -25.9238   22.8148 C   0  0  0  0  0  0  0  0  0  0  0  0
  -24.1476  -16.4928   21.2908 N   0  0  0  0  0  0  0  0  0  0  0  0
  -23.6393  -17.6296   20.7854 N   0  0  0  0  0  0  0  0  0  0  0  0
  -27.0246  -27.6508   20.5716 N   0  0  0  0  0  0  0  0  0  0  0  0
  -22.2855  -20.2200   23.2433 N   0  0  0  0  0  0  0  0  0  0  0  0
  -22.6640  -18.5607   18.8380 N   0  0  0  0  0  0  0  0  0  0  0  0
  -21.8898  -15.0335   17.6748 N   0  0  0  0  0  0  0  0  0  0  0  0
  -20.4174  -21.1590   22.1522 N   0  0  0  0  0  0  0  0  0  0  0  0
  -26.9206  -25.3026   19.0506 N   0  0  0  0  0  0  0  0  0  0  0  0
  -28.6929  -28.3003   23.1126 N   0  0  0  0  0  0  0  0  0  0  0  0
  -19.4029  -26.5549   21.8172 N   0  3  2  0  0  0  0  0  0  0  0  0
  -27.5186  -30.6732   25.5740 N   0  3  0  0  0  0  0  0  0  0  0  0
  -23.9770  -15.6126   16.9217 O   0  0  0  0  0  0  0  0  0  0  0  0
  -25.0571  -26.3976   18.1840 O   0  0  0  0  0  0  0  0  0  0  0  0
  -29.2760  -27.1175   20.2833 O   0  0  0  0  0  0  0  0  0  0  0  0
  -27.4827  -27.9087   25.0515 O   0  0  0  0  0  0  0  0  0  0  0  0
  -21.4636  -22.2808   23.8925 O   0  0  0  0  0  0  0  0  0  0  0  0
  -25.7489  -10.3439   20.8746 O   0  0  0  0  0  0  0  0  0  0  0  0
  -21.3993  -29.6904   22.0715 O   0  0  0  0  0  0  0  0  0  1  0  0
  -21.8932   -6.4553   21.5200 F   0  0  0  0  0  0  0  0  0  0  0  0
  -25.6867   -8.7717   23.1477 F   0  0  0  0  0  0  0  0  0  0  0  0
  1  2  1  0  0  0  0
  1  5  2  0  0  0  0
  2  6  2  0  0  0  0
  3 10  2  0  0  0  0
  3 17  1  0  0  0  0
  4 11  1  0  0  0  0
  4 17  2  0  0  0  0
  5 19  1  0  0  0  0
  6 21  1  0  0  0  0
  7 12  2  0  0  0  0
  7 20  1  0  0  0  0
  8  9  2  0  0  0  0
  8 23  1  0  0  0  0
  9 24  1  0  0  0  0
 10 27  1  0  0  0  0
 11 27  2  0  0  0  0
 12 28  1  0  0  0  0
 13 14  2  0  0  0  0
 13 29  1  0  0  0  0
 14 30  1  0  0  0  0
 15 22  1  0  0  0  0
 15 28  2  0  0  0  0
 16 30  2  0  0  0  0
 16 31  1  0  0  0  0
 17 32  1  0  0  0  0
 18 32  1  0  0  0  0
 18 33  2  0  0  0  0
 18 34  1  0  0  0  0
 19 21  2  0  0  0  0
 19 39  1  0  0  0  0
 20 22  2  0  0  0  0
 20 40  1  0  0  0  0
 21 52  1  0  0  0  0
 22 41  1  0  0  0  0
 23 25  2  0  0  0  0
 23 63  1  0  0  0  0
 24 26  2  0  0  0  0
 24 56  1  0  0  0  0
 25 26  1  0  0  0  0
 25 57  1  0  0  0  0
 26 73  1  0  0  0  0
 27 83  1  0  0  0  0
 28 84  1  0  0  0  0
 29 31  2  0  0  0  0
 29 83  1  0  0  0  0
 30 85  1  0  0  0  0
 31 86  1  0  0  0  0
 32 67  2  0  0  0  0
 33 68  1  0  0  0  0
 33 71  1  0  0  0  0
 34 72  1  0  0  0  0
 34 78  2  0  0  0  0
 35 53  1  0  0  0  0
 35 74  1  0  0  0  0
 35 79  2  0  0  0  0
 36 64  1  0  0  0  0
 36 69  1  0  0  0  0
 36 80  2  0  0  0  0
 37 65  1  0  0  0  0
 37 75  1  0  0  0  0
 37 81  2  0  0  0  0
 38 70  1  0  0  0  0
 38 73  1  0  0  0  0
 38 82  2  0  0  0  0
 39 42  1  0  0  0  0
 40 53  1  0  0  0  0
 41 69  1  0  0  0  0
 42 45  1  0  0  0  0
 43 46  1  0  0  0  0
 43 48  1  0  0  0  0
 44 47  1  0  0  0  0
 44 50  1  0  0  0  0
 45 52  1  0  0  0  0
 46 54  1  0  0  0  0
 47 55  1  0  0  0  0
 48 70  1  0  0  0  0
 49 54  1  0  0  0  0
 49 70  1  0  0  0  0
 50 76  1  0  0  0  0
 51 55  1  0  0  0  0
 51 76  1  0  0  0  0
 52 74  1  0  0  0  0
 53 69  1  0  0  0  0
 54 68  1  0  0  0  0
 55 84  1  0  0  0  0
 58 65  1  0  0  0  0
 59 66  1  0  0  0  0
 60 66  1  0  0  0  0
 61 66  1  0  0  0  0
 62 77  1  0  0  0  0
 63 76  1  0  0  0  0
 64 66  1  0  0  0  0
 64 75  1  0  0  0  0
 65 77  1  0  0  0  0
 67 68  1  0  0  0  0
M  CHG  2  76   1  77   1
M  ISO  4  38 100  55 101  73 100  84 101
M  END
> <Batch ID>
0034

> <Smiles>
CNC(C)C(=O)NC(C(=O)N1Cc2cc([101O:1][101CH:1]3CCCN(Cc4ccc(C)c([100NH:0][100C:0](=O)N5CCCC(n6nc(-c7ccc(Oc8ccc(F)cc8F)cc7)c(C(N)=O)c6N)C5)c4C)C3)ccc2CC1C(=O)NC1CCCc2ccccc21)C(C)(C)C

> <Shape>
0.230

> <Color>
0.069

> <Negative vol penalty>
0.000

$$$$

  -OEChem-04042321483D

 85 93  0     1  0  0  0  0  0999 V2000
  -18.0329  -32.7313   24.1314 C   0  0  0  0  0  0  0  0  0  0  0  0
  -19.2705  -32.9965   23.5539 C   0  0  0  0  0  0  0  0  0  0  0  0
  -25.5479  -13.6522   21.4448 C   0  0  0  0  0  0  0  0  0  0  0  0
  -25.2565  -14.1396   19.0965 C   0  0  0  0  0  0  0  0  0  0  0  0
  -17.7818  -31.4814   24.6957 C   0  0  0  0  0  0  0  0  0  0  0  0
  -20.2581  -32.0122   23.5414 C   0  0  0  0  0  0  0  0  0  0  0  0
  -25.7106  -29.6249   19.5555 C   0  0  0  0  0  0  0  0  0  0  0  0
  -24.5494  -12.6814   21.3673 C   0  0  0  0  0  0  0  0  0  0  0  0
  -24.2579  -13.1688   19.0190 C   0  0  0  0  0  0  0  0  0  0  0  0
  -27.0653  -29.3125   19.6600 C   0  0  0  0  0  0  0  0  0  0  0  0
  -24.2541   -9.4930   20.2813 C   0  0  0  0  0  0  0  0  0  0  0  0
  -24.4969   -8.2631   20.8928 C   0  0  0  0  0  0  0  0  0  0  0  0
  -28.2574  -24.2147   17.3340 C   0  0  0  0  0  0  0  0  0  0  0  0
  -26.4916  -27.1637   20.5941 C   0  0  0  0  0  0  0  0  0  0  0  0
  -29.6799  -22.5017   15.6533 C   0  0  0  0  0  0  0  0  0  0  0  0
  -22.5720   -8.5906   22.3157 C   0  0  0  0  0  0  0  0  0  0  0  0
  -25.9014  -14.3814   20.3095 C   0  0  0  0  0  0  0  0  0  0  0  0
  -29.5112  -24.5920   16.8531 C   0  0  0  0  0  0  0  0  0  0  0  0
  -28.3128  -15.2037   20.1800 C   0  0  0  0  0  0  0  0  0  0  0  0
  -18.7635  -30.4780   24.6815 C   0  0  0  0  0  0  0  0  0  0  0  0
  -24.7348  -28.7117   19.9803 C   0  0  0  0  0  0  0  0  0  0  0  0
  -20.0203  -30.7481   24.1072 C   0  0  0  0  0  0  0  0  0  0  0  0
  -25.1251  -27.4658   20.4915 C   0  0  0  0  0  0  0  0  0  0  0  0
  -27.7149  -22.9809   16.9747 C   0  0  0  0  0  0  0  0  0  0  0  0
  -30.2224  -23.7355   16.0127 C   0  0  0  0  0  0  0  0  0  0  0  0
  -28.4261  -22.1244   16.1343 C   0  0  0  0  0  0  0  0  0  0  0  0
  -23.9044  -12.4396   20.1544 C   0  0  0  0  0  0  0  0  0  0  0  0
  -27.4561  -28.0829   20.1820 C   0  0  0  0  0  0  0  0  0  0  0  0
  -23.1703  -10.2718   20.6870 C   0  0  0  0  0  0  0  0  0  0  0  0
  -23.6558   -7.8119   21.9100 C   0  0  0  0  0  0  0  0  0  0  0  0
  -22.3292   -9.8206   21.7041 C   0  0  0  0  0  0  0  0  0  0  0  0
  -26.9325  -15.3848   20.3890 C   0  0  0  0  0  0  0  0  0  0  0  0
  -28.8554  -16.4510   20.3706 C   0  0  0  0  0  0  0  0  0  0  0  0
  -30.0662  -25.9027   17.2460 C   0  0  0  0  0  0  0  0  0  0  0  0
  -29.0395  -14.0145   19.8434 C   0  0  0  0  0  0  0  0  0  0  0  0
  -22.4584  -28.7316   22.1988 C   0  0  0  0  0  0  0  0  0  0  0  0
  -21.6553  -25.8959   20.8438 C   0  0  0  0  0  0  0  0  0  0  0  0
  -22.4437  -22.7076   19.3503 C   0  0  0  0  0  0  0  0  0  0  0  0
  -26.6217  -21.9858   19.8931 C   0  0  0  0  0  0  0  0  0  0  0  0
  -18.4621  -29.1580   25.3459 C   0  0  0  0  0  0  0  0  0  0  0  0
  -23.2770  -29.0531   19.8360 C   0  0  0  0  0  0  0  0  0  0  0  0
  -24.1163  -26.4425   20.9428 C   0  0  0  0  0  0  0  0  0  0  0  0
  -19.4325  -28.0453   24.9582 C   0  0  0  0  0  0  0  0  0  0  0  0
  -28.1256  -20.5250   22.7708 C   0  0  0  0  0  0  0  0  0  0  0  0
  -20.8726  -28.5429   25.0328 C   0  0  0  0  0  0  0  0  0  0  0  0
  -28.1149  -19.0256   22.4679 C   0  0  0  0  0  0  0  0  0  0  0  0
  -26.8749  -21.2180   22.2347 C   0  0  0  0  0  0  0  0  0  0  0  0
  -26.5953  -19.4902   20.4997 C   0  0  0  0  0  0  0  0  0  0  0  0
  -21.1086  -29.6980   24.0521 C   0  0  1  0  0  0  0  0  0  0  0  0
  -22.3802  -28.2537   20.7764 C   0  0  1  0  0  0  0  0  0  0  0  0
  -27.8628  -18.7576   20.9719 C   0  0  2  0  0  0  0  0  0  0  0  0
  -31.5662  -24.1179   15.4847 C   0  0  0  0  0  0  0  0  0  0  0  0
  -27.8651  -20.7991   15.7355 C   0  0  0  0  0  0  0  0  0  0  0  0
  -21.5884  -20.6318   18.2293 C   0  0  0  0  0  0  0  0  0  0  0  0
  -21.8184  -24.6613   23.6293 C   0  0  0  0  0  0  0  0  0  0  0  0
  -21.8908  -22.4041   22.5485 C   0  0  0  0  0  0  0  0  0  0  0  0
  -19.8921  -23.8659   22.2468 C   0  0  0  0  0  0  0  0  0  0  0  0
  -23.0819  -23.7587   16.6583 C   0  0  0  0  0  0  0  0  0  0  0  0
  -26.3708  -22.5982   17.5012 C   0  0  0  0  0  0  0  0  0  0  0  0
  -30.8066  -27.4059   19.0595 C   0  0  0  0  0  0  0  0  0  0  0  0
  -29.6570  -28.3570   19.3238 C   0  0  0  0  0  0  0  0  0  1  0  0
  -22.0485  -24.4554   21.0659 C   0  0  1  0  0  0  0  0  0  0  0  0
  -21.8435  -22.1239   18.0840 C   0  0  2  0  0  0  0  0  0  0  0  0
  -21.4317  -23.8665   22.3660 C   0  0  0  0  0  0  0  0  0  0  0  0
  -26.6177  -16.6475   20.6897 N   0  0  0  0  0  0  0  0  0  0  0  0
  -27.8080  -17.2713   20.6710 N   0  0  0  0  0  0  0  0  0  0  0  0
  -22.7033  -26.8255   20.7874 N   0  0  0  0  0  0  0  0  0  0  0  0
  -26.6942  -20.9249   20.8108 N   0  0  0  0  0  0  0  0  0  0  0  0
  -30.1216  -16.9152   20.3091 N   0  0  0  0  0  0  0  0  0  0  0  0
  -30.3436  -26.7816   16.2828 N   0  0  0  0  0  0  0  0  0  0  0  0
  -28.3266  -12.8184   19.6844 N   0  0  0  0  0  0  0  0  0  0  0  0
  -21.2581  -29.1937   22.7038 N   0  0  0  0  0  0  0  0  0  0  0  0
  -21.6772  -23.7388   19.8506 N   0  0  0  0  0  0  0  0  0  0  0  0
  -26.4562  -21.6202   18.5628 N   0  0  0  0  0  0  0  0  0  0  0  0
  -30.2660  -26.1444   18.5471 N   0  3  0  0  0  0  0  0  0  0  0  0
  -22.7634  -22.3334   16.9304 N   0  3  0  0  0  0  0  0  0  0  0  0
  -30.2862  -14.0093   19.7044 O   0  0  0  0  0  0  0  0  0  0  0  0
  -23.5283  -28.6832   22.7945 O   0  0  0  0  0  0  0  0  0  0  0  0
  -20.4626  -26.1846   20.7175 O   0  0  0  0  0  0  0  0  0  0  0  0
  -23.4861  -22.2880   19.8481 O   0  0  0  0  0  0  0  0  0  0  0  0
  -26.7041  -23.1709   20.2334 O   0  0  0  0  0  0  0  0  0  0  0  0
  -22.9302  -11.4922   20.0783 O   0  0  0  0  0  0  0  0  0  0  0  0
  -28.7777  -27.7758   20.2858 O   0  0  0  0  0  0  0  0  0  1  0  0
  -23.8881   -6.6301   22.4961 F   0  0  0  0  0  0  0  0  0  0  0  0
  -21.2857  -10.5638   22.0974 F   0  0  0  0  0  0  0  0  0  0  0  0
  1  2  1  0  0  0  0
  1  5  2  0  0  0  0
  2  6  2  0  0  0  0
  3  8  2  0  0  0  0
  3 17  1  0  0  0  0
  4  9  1  0  0  0  0
  4 17  2  0  0  0  0
  5 20  1  0  0  0  0
  6 22  1  0  0  0  0
  7 10  2  0  0  0  0
  7 21  1  0  0  0  0
  8 27  1  0  0  0  0
  9 27  2  0  0  0  0
 10 28  1  0  0  0  0
 11 12  2  0  0  0  0
 11 29  1  0  0  0  0
 12 30  1  0  0  0  0
 13 18  1  0  0  0  0
 13 24  2  0  0  0  0
 14 23  1  0  0  0  0
 14 28  2  0  0  0  0
 15 25  1  0  0  0  0
 15 26  2  0  0  0  0
 16 30  2  0  0  0  0
 16 31  1  0  0  0  0
 17 32  1  0  0  0  0
 18 25  2  0  0  0  0
 18 34  1  0  0  0  0
 19 32  1  0  0  0  0
 19 33  2  0  0  0  0
 19 35  1  0  0  0  0
 20 22  2  0  0  0  0
 20 40  1  0  0  0  0
 21 23  2  0  0  0  0
 21 41  1  0  0  0  0
 22 49  1  0  0  0  0
 23 42  1  0  0  0  0
 24 26  1  0  0  0  0
 24 59  1  0  0  0  0
 25 52  1  0  0  0  0
 26 53  1  0  0  0  0
 27 82  1  0  0  0  0
 28 83  1  0  0  0  0
 29 31  2  0  0  0  0
 29 82  1  0  0  0  0
 30 84  1  0  0  0  0
 31 85  1  0  0  0  0
 32 65  2  0  0  0  0
 33 66  1  0  0  0  0
 33 69  1  0  0  0  0
 34 70  1  0  0  0  0
 34 75  2  0  0  0  0
 35 71  1  0  0  0  0
 35 77  2  0  0  0  0
 36 50  1  0  0  0  0
 36 72  1  0  0  0  0
 36 78  2  0  0  0  0
 37 62  1  0  0  0  0
 37 67  1  0  0  0  0
 37 79  2  0  0  0  0
 38 63  1  0  0  0  0
 38 73  1  0  0  0  0
 38 80  2  0  0  0  0
 39 68  1  0  0  0  0
 39 74  1  0  0  0  0
 39 81  2  0  0  0  0
 40 43  1  0  0  0  0
 41 50  1  0  0  0  0
 42 67  1  0  0  0  0
 43 45  1  0  0  0  0
 44 46  1  0  0  0  0
 44 47  1  0  0  0  0
 45 49  1  0  0  0  0
 46 51  1  0  0  0  0
 47 68  1  0  0  0  0
 48 51  1  0  0  0  0
 48 68  1  0  0  0  0
 49 72  1  0  0  0  0
 50 67  1  0  0  0  0
 51 66  1  0  0  0  0
 54 63  1  0  0  0  0
 55 64  1  0  0  0  0
 56 64  1  0  0  0  0
 57 64  1  0  0  0  0
 58 76  1  0  0  0  0
 59 74  1  0  0  0  0
 60 61  1  0  0  0  0
 60 75  1  0  0  0  0
 61 83  1  0  0  0  0
 62 64  1  0  0  0  0
 62 73  1  0  0  0  0
 63 76  1  0  0  0  0
 65 66  1  0  0  0  0
M  CHG  2  75   1  76   1
M  ISO  4  39 100  61 101  74 100  83 101
M  END
> <Batch ID>
0034

> <Smiles>
CNC(C)C(=O)NC(C(=O)N1Cc2cc([101O:1][101CH2:1]CNC(=N)c3cc(C[100NH:0][100C:0](=O)N4CCCC(n5nc(-c6ccc(Oc7ccc(F)cc7F)cc6)c(C(N)=O)c5N)C4)c(C)cc3C)ccc2CC1C(=O)NC1CCCc2ccccc21)C(C)(C)C

> <Shape>
0.234

> <Color>
0.090

> <Negative vol penalty>
0.000

$$$$

  -OEChem-04042321483D

 88 97  0     1  0  0  0  0  0999 V2000
  -27.6314  -23.6715   14.2217 C   0  0  0  0  0  0  0  0  0  0  0  0
  -26.5797  -23.8976   15.1039 C   0  0  0  0  0  0  0  0  0  0  0  0
  -25.6907  -11.3575   21.9484 C   0  0  0  0  0  0  0  0  0  0  0  0
  -25.3258  -12.6496   23.9570 C   0  0  0  0  0  0  0  0  0  0  0  0
  -28.9480  -23.7470   14.6743 C   0  0  0  0  0  0  0  0  0  0  0  0
  -26.8441  -24.1982   16.4397 C   0  0  0  0  0  0  0  0  0  0  0  0
  -24.0218  -28.0334   18.1632 C   0  0  0  0  0  0  0  0  0  0  0  0
  -24.7198  -23.0496   21.7219 C   0  0  0  0  0  0  0  0  0  0  0  0
  -23.3665  -23.3010   21.9475 C   0  0  0  0  0  0  0  0  0  0  0  0
  -25.7016  -10.1853   22.7044 C   0  0  0  0  0  0  0  0  0  0  0  0
  -25.3366  -11.4774   24.7130 C   0  0  0  0  0  0  0  0  0  0  0  0
  -22.6980  -27.7502   18.4964 C   0  0  0  0  0  0  0  0  0  0  0  0
  -23.4369   -8.1336   24.1517 C   0  0  0  0  0  0  0  0  0  0  0  0
  -22.7089   -7.0454   23.6708 C   0  0  0  0  0  0  0  0  0  0  0  0
  -23.3138  -27.6428   20.8263 C   0  0  0  0  0  0  0  0  0  0  0  0
  -24.7340   -5.7309   23.5796 C   0  0  0  0  0  0  0  0  0  0  0  0
  -25.5029  -12.5896   22.5747 C   0  0  0  0  0  0  0  0  0  0  0  0
  -24.3766  -14.4166   21.1959 C   0  0  0  0  0  0  0  0  0  0  0  0
  -29.2288  -24.0581   16.0141 C   0  0  0  0  0  0  0  0  0  0  0  0
  -25.0052  -28.1128   19.1597 C   0  0  0  0  0  0  0  0  0  0  0  0
  -28.1656  -24.2765   16.9109 C   0  0  0  0  0  0  0  0  0  0  0  0
  -24.6489  -27.9297   20.5034 C   0  0  0  0  0  0  0  0  0  0  0  0
  -25.1047  -22.1099   20.7656 C   0  0  0  0  0  0  0  0  0  0  0  0
  -22.3980  -22.6127   21.2168 C   0  0  0  0  0  0  0  0  0  0  0  0
  -24.1362  -21.4215   20.0349 C   0  0  0  0  0  0  0  0  0  0  0  0
  -22.7828  -21.6729   20.2606 C   0  0  0  0  0  0  0  0  0  0  0  0
  -25.5245  -10.2453   24.0867 C   0  0  0  0  0  0  0  0  0  0  0  0
  -22.3443  -27.5520   19.8278 C   0  0  0  0  0  0  0  0  0  0  0  0
  -24.8135   -8.0206   24.3464 C   0  0  0  0  0  0  0  0  0  0  0  0
  -23.3574   -5.8440   23.3848 C   0  0  0  0  0  0  0  0  0  0  0  0
  -25.4620   -6.8192   24.0604 C   0  0  0  0  0  0  0  0  0  0  0  0
  -25.4921  -13.8009   21.7944 C   0  0  0  0  0  0  0  0  0  0  0  0
  -24.8904  -15.5288   20.5749 C   0  0  0  0  0  0  0  0  0  0  0  0
  -19.1335  -24.3993   20.8879 C   0  0  0  0  0  0  0  0  0  0  0  0
  -17.9905  -23.7253   21.0571 C   0  0  0  0  0  0  0  0  0  0  0  0
  -22.9991  -14.0190   21.2009 C   0  0  0  0  0  0  0  0  0  0  0  0
  -27.6714  -26.5100   19.8127 C   0  0  0  0  0  0  0  0  0  0  0  0
  -28.0187  -28.7880   22.0958 C   0  0  0  0  0  0  0  0  0  0  0  0
  -26.5475  -31.1042   24.1249 C   0  0  0  0  0  0  0  0  0  0  0  0
  -28.2153  -20.0110   20.5888 C   0  0  0  0  0  0  0  0  0  0  0  0
  -30.6669  -24.0819   16.4677 C   0  0  0  0  0  0  0  0  0  0  0  0
  -26.4238  -28.4455   18.7864 C   0  0  0  0  0  0  0  0  0  0  0  0
  -25.6631  -28.0242   21.6128 C   0  0  0  0  0  0  0  0  0  0  0  0
  -19.3124  -25.8736   21.0677 C   0  0  0  0  0  0  0  0  0  0  0  0
  -30.8699  -24.7746   17.8128 C   0  0  0  0  0  0  0  0  0  0  0  0
  -29.6822  -16.8914   19.6982 C   0  0  0  0  0  0  0  0  0  0  0  0
  -29.8349  -24.2912   18.8238 C   0  0  0  0  0  0  0  0  0  0  0  0
  -28.6339  -15.8605   20.1204 C   0  0  0  0  0  0  0  0  0  0  0  0
  -29.7451  -18.0644   20.6739 C   0  0  0  0  0  0  0  0  0  0  0  0
  -27.4043  -17.6965   21.3517 C   0  0  0  0  0  0  0  0  0  0  0  0
  -21.1831  -24.8703   19.9240 C   0  0  0  0  0  0  0  0  0  0  0  0
  -28.4125  -24.6296   18.3616 C   0  0  1  0  0  0  0  0  0  0  0  0
  -27.4385  -27.9943   19.8325 C   0  0  1  0  0  0  0  0  0  0  0  0
  -27.2648  -16.5220   20.3681 C   0  0  2  0  0  0  0  0  0  0  0  0
  -20.8048  -26.0458   20.8150 C   0  0  1  0  0  0  0  0  0  1  0  0
  -24.5518  -20.4153   19.0091 C   0  0  0  0  0  0  0  0  0  0  0  0
  -21.7427  -20.9344   19.4790 C   0  0  0  0  0  0  0  0  0  0  0  0
  -17.8551  -22.2522   20.8672 C   0  0  0  0  0  0  0  0  0  0  0  0
  -27.0849  -32.7846   25.9095 C   0  0  0  0  0  0  0  0  0  0  0  0
  -28.3340  -26.5299   24.1236 C   0  0  0  0  0  0  0  0  0  0  0  0
  -27.9136  -28.1984   25.9424 C   0  0  0  0  0  0  0  0  0  0  0  0
  -29.8981  -28.4534   24.4526 C   0  0  0  0  0  0  0  0  0  0  0  0
  -25.5352  -33.3470   22.4805 C   0  0  0  0  0  0  0  0  0  0  0  0
  -26.5606  -21.8600   20.5434 C   0  0  0  0  0  0  0  0  0  0  0  0
  -20.9493  -22.9006   21.4806 C   0  0  0  0  0  0  0  0  0  0  0  0
  -27.5907  -28.9318   23.5364 C   0  0  1  0  0  0  0  0  0  0  0  0
  -26.8957  -32.5523   24.4185 C   0  0  2  0  0  0  0  0  0  0  0  0
  -28.4151  -28.0246   24.4929 C   0  0  0  0  0  0  0  0  0  0  0  0
  -26.6288  -14.4665   21.5734 N   0  0  0  0  0  0  0  0  0  0  0  0
  -26.2303  -15.5120   20.8290 N   0  0  0  0  0  0  0  0  0  0  0  0
  -27.0382  -28.3455   21.1965 N   0  0  0  0  0  0  0  0  0  0  0  0
  -28.4149  -18.6480   20.8638 N   0  0  0  0  0  0  0  0  0  0  0  0
  -24.3223  -16.5095   19.8416 N   0  0  0  0  0  0  0  0  0  0  0  0
  -22.6437  -12.8499   21.8875 N   0  0  0  0  0  0  0  0  0  0  0  0
  -28.1230  -26.0275   18.5991 N   0  0  0  0  0  0  0  0  0  0  0  0
  -27.6710  -30.3552   23.8459 N   0  0  0  0  0  0  0  0  0  0  0  0
  -26.9235  -20.4821   20.7890 N   0  0  0  0  0  0  0  0  0  0  0  0
  -20.3091  -23.7312   20.4052 N   0  3  1  0  0  0  0  0  0  0  0  0
  -25.8115  -33.4539   23.9362 N   0  3  0  0  0  0  0  0  0  0  0  0
  -22.1123  -14.6718   20.6002 O   0  0  0  0  0  0  0  0  0  0  0  0
  -27.4587  -25.8515   20.8240 O   0  0  0  0  0  0  0  0  0  0  0  0
  -29.1782  -29.0650   21.7789 O   0  0  0  0  0  0  0  0  0  0  0  0
  -25.3944  -30.6792   24.1449 O   0  0  0  0  0  0  0  0  0  0  0  0
  -29.1199  -20.7518   20.1890 O   0  0  0  0  0  0  0  0  0  0  0  0
  -25.5348   -9.1016   24.8246 O   0  0  0  0  0  0  0  0  0  0  0  0
  -21.0530  -27.2748   20.1558 O   0  0  0  0  0  0  0  0  0  1  0  0
  -22.6578   -4.7985   22.9245 F   0  0  0  0  0  0  0  0  0  0  0  0
  -26.7841   -6.7042   24.2466 F   0  0  0  0  0  0  0  0  0  0  0  0
  1  2  1  0  0  0  0
  1  5  2  0  0  0  0
  2  6  2  0  0  0  0
  3 10  2  0  0  0  0
  3 17  1  0  0  0  0
  4 11  1  0  0  0  0
  4 17  2  0  0  0  0
  5 19  1  0  0  0  0
  6 21  1  0  0  0  0
  7 12  2  0  0  0  0
  7 20  1  0  0  0  0
  8  9  2  0  0  0  0
  8 23  1  0  0  0  0
  9 24  1  0  0  0  0
 10 27  1  0  0  0  0
 11 27  2  0  0  0  0
 12 28  1  0  0  0  0
 13 14  2  0  0  0  0
 13 29  1  0  0  0  0
 14 30  1  0  0  0  0
 15 22  1  0  0  0  0
 15 28  2  0  0  0  0
 16 30  2  0  0  0  0
 16 31  1  0  0  0  0
 17 32  1  0  0  0  0
 18 32  1  0  0  0  0
 18 33  2  0  0  0  0
 18 36  1  0  0  0  0
 19 21  2  0  0  0  0
 19 41  1  0  0  0  0
 20 22  2  0  0  0  0
 20 42  1  0  0  0  0
 21 52  1  0  0  0  0
 22 43  1  0  0  0  0
 23 25  2  0  0  0  0
 23 64  1  0  0  0  0
 24 26  2  0  0  0  0
 24 65  1  0  0  0  0
 25 26  1  0  0  0  0
 25 56  1  0  0  0  0
 26 57  1  0  0  0  0
 27 85  1  0  0  0  0
 28 86  1  0  0  0  0
 29 31  2  0  0  0  0
 29 85  1  0  0  0  0
 30 87  1  0  0  0  0
 31 88  1  0  0  0  0
 32 69  2  0  0  0  0
 33 70  1  0  0  0  0
 33 73  1  0  0  0  0
 34 35  2  0  0  0  0
 34 44  1  0  0  0  0
 34 78  1  0  0  0  0
 35 58  1  0  0  0  0
 36 74  1  0  0  0  0
 36 80  2  0  0  0  0
 37 53  1  0  0  0  0
 37 75  1  0  0  0  0
 37 81  2  0  0  0  0
 38 66  1  0  0  0  0
 38 71  1  0  0  0  0
 38 82  2  0  0  0  0
 39 67  1  0  0  0  0
 39 76  1  0  0  0  0
 39 83  2  0  0  0  0
 40 72  1  0  0  0  0
 40 77  1  0  0  0  0
 40 84  2  0  0  0  0
 41 45  1  0  0  0  0
 42 53  1  0  0  0  0
 43 71  1  0  0  0  0
 44 55  1  0  0  0  0
 45 47  1  0  0  0  0
 46 48  1  0  0  0  0
 46 49  1  0  0  0  0
 47 52  1  0  0  0  0
 48 54  1  0  0  0  0
 49 72  1  0  0  0  0
 50 54  1  0  0  0  0
 50 72  1  0  0  0  0
 51 55  1  0  0  0  0
 51 78  1  0  0  0  0
 52 75  1  0  0  0  0
 53 71  1  0  0  0  0
 54 70  1  0  0  0  0
 55 86  1  0  0  0  0
 59 67  1  0  0  0  0
 60 68  1  0  0  0  0
 61 68  1  0  0  0  0
 62 68  1  0  0  0  0
 63 79  1  0  0  0  0
 64 77  1  0  0  0  0
 65 78  1  0  0  0  0
 66 68  1  0  0  0  0
 66 76  1  0  0  0  0
 67 79  1  0  0  0  0
 69 70  1  0  0  0  0
M  CHG  2  78   1  79   1
M  ISO  4  40 100  55 101  77 100  86 101
M  END
> <Batch ID>
0034

> <Smiles>
CC=C1C[101CH:1]([101O:1]c2ccc3c(c2)CN(C(=O)C(NC(=O)C(C)NC)C(C)(C)C)C(C(=O)NC2CCCc4ccccc42)C3)CN1Cc1ccc(C[100NH:0][100C:0](=O)N2CCCC(n3nc(-c4ccc(Oc5ccc(F)cc5F)cc4)c(C(N)=O)c3N)C2)c(C)c1C

> <Shape>
0.221

> <Color>
0.081

> <Negative vol penalty>
0.000

$$$$

  -OEChem-04042321483D

 86 95  0     1  0  0  0  0  0999 V2000
  -17.0865  -26.3519   22.3060 C   0  0  0  0  0  0  0  0  0  0  0  0
  -18.3023  -25.7197   22.5460 C   0  0  0  0  0  0  0  0  0  0  0  0
  -22.8525  -10.3833   22.6702 C   0  0  0  0  0  0  0  0  0  0  0  0
  -23.4865  -10.1904   20.3469 C   0  0  0  0  0  0  0  0  0  0  0  0
  -17.0637  -27.6177   21.7221 C   0  0  0  0  0  0  0  0  0  0  0  0
  -19.4960  -26.3525   22.2012 C   0  0  0  0  0  0  0  0  0  0  0  0
  -24.8353  -26.0176   25.1821 C   0  0  0  0  0  0  0  0  0  0  0  0
  -22.2267   -9.1385   22.6028 C   0  0  0  0  0  0  0  0  0  0  0  0
  -22.8607   -8.9456   20.2795 C   0  0  0  0  0  0  0  0  0  0  0  0
  -25.9817  -25.2532   24.9698 C   0  0  0  0  0  0  0  0  0  0  0  0
  -23.1423   -5.8840   22.6570 C   0  0  0  0  0  0  0  0  0  0  0  0
  -23.3701   -4.9866   23.7002 C   0  0  0  0  0  0  0  0  0  0  0  0
  -26.9770  -27.0913   23.7657 C   0  0  0  0  0  0  0  0  0  0  0  0
  -28.2431  -20.7797   19.5651 C   0  0  0  0  0  0  0  0  0  0  0  0
  -29.2090  -20.0008   22.0637 C   0  0  0  0  0  0  0  0  0  0  0  0
  -21.0035   -4.9500   24.1854 C   0  0  0  0  0  0  0  0  0  0  0  0
  -23.4824  -10.9093   21.5422 C   0  0  0  0  0  0  0  0  0  0  0  0
  -25.1928  -12.5679   22.4538 C   0  0  0  0  0  0  0  0  0  0  0  0
  -18.2581  -28.2705   21.3787 C   0  0  0  0  0  0  0  0  0  0  0  0
  -24.7466  -27.3230   24.6775 C   0  0  0  0  0  0  0  0  0  0  0  0
  -19.4891  -27.6278   21.6108 C   0  0  0  0  0  0  0  0  0  0  0  0
  -25.8294  -27.8711   23.9752 C   0  0  0  0  0  0  0  0  0  0  0  0
  -28.3358  -21.7119   20.5985 C   0  0  0  0  0  0  0  0  0  0  0  0
  -28.6333  -19.4580   19.7809 C   0  0  0  0  0  0  0  0  0  0  0  0
  -28.8187  -21.3224   21.8478 C   0  0  0  0  0  0  0  0  0  0  0  0
  -22.2308   -8.4196   21.4075 C   0  0  0  0  0  0  0  0  0  0  0  0
  -27.0517  -25.7890   24.2590 C   0  0  0  0  0  0  0  0  0  0  0  0
  -21.8451   -6.3145   22.3780 C   0  0  0  0  0  0  0  0  0  0  0  0
  -22.3007   -4.5196   24.4644 C   0  0  0  0  0  0  0  0  0  0  0  0
  -20.7758   -5.8475   23.1422 C   0  0  0  0  0  0  0  0  0  0  0  0
  -29.1162  -19.0686   21.0302 C   0  0  0  0  0  0  0  0  0  0  0  0
  -24.1285  -12.1953   21.6111 C   0  0  0  0  0  0  0  0  0  0  0  0
  -25.4389  -13.8812   22.1359 C   0  0  0  0  0  0  0  0  0  0  0  0
  -30.0531  -22.6443   23.6034 C   0  0  0  0  0  0  0  0  0  0  0  0
  -31.3480  -22.6015   23.2582 C   0  0  0  0  0  0  0  0  0  0  0  0
  -25.8961  -11.7958   23.4361 C   0  0  0  0  0  0  0  0  0  0  0  0
  -22.8524  -28.7992   22.5952 C   0  0  0  0  0  0  0  0  0  0  0  0
  -24.4852  -31.4284   23.5664 C   0  0  0  0  0  0  0  0  0  0  0  0
  -27.3252  -32.7326   24.9378 C   0  0  0  0  0  0  0  0  0  0  0  0
  -26.1179  -17.9279   18.3532 C   0  0  0  0  0  0  0  0  0  0  0  0
  -18.1813  -29.6184   20.7063 C   0  0  0  0  0  0  0  0  0  0  0  0
  -23.5136  -28.1440   24.9382 C   0  0  0  0  0  0  0  0  0  0  0  0
  -25.7923  -29.2747   23.4302 C   0  0  0  0  0  0  0  0  0  0  0  0
  -29.6156  -23.2953   24.8976 C   0  0  0  0  0  0  0  0  0  0  0  0
  -19.5047  -30.3792   20.7141 C   0  0  0  0  0  0  0  0  0  0  0  0
  -22.7838  -17.1410   19.3233 C   0  0  0  0  0  0  0  0  0  0  0  0
  -20.6498  -29.4627   20.2951 C   0  0  0  0  0  0  0  0  0  0  0  0
  -22.9236  -15.8125   20.0686 C   0  0  0  0  0  0  0  0  0  0  0  0
  -23.7499  -17.2310   18.1442 C   0  0  0  0  0  0  0  0  0  0  0  0
  -25.3038  -15.6541   19.2271 C   0  0  0  0  0  0  0  0  0  0  0  0
  -27.6792  -22.7244   23.5384 C   0  0  0  0  0  0  0  0  0  0  0  0
  -20.8061  -28.2924   21.2735 C   0  0  1  0  0  0  0  0  0  0  0  0
  -23.3293  -29.2798   23.9365 C   0  0  1  0  0  0  0  0  0  0  0  0
  -24.3888  -15.5397   20.4584 C   0  0  2  0  0  0  0  0  0  0  0  0
  -28.1825  -23.7244   24.5858 C   0  0  2  0  0  0  0  0  0  1  0  0
  -27.9095  -23.1206   20.3406 C   0  0  0  0  0  0  0  0  0  0  0  0
  -28.3829  -34.9184   25.5708 C   0  0  0  0  0  0  0  0  0  0  0  0
  -25.0935  -31.9823   20.6282 C   0  0  0  0  0  0  0  0  0  0  0  0
  -26.8872  -33.5637   21.3697 C   0  0  0  0  0  0  0  0  0  0  0  0
  -24.5077  -34.0084   21.9722 C   0  0  0  0  0  0  0  0  0  0  0  0
  -27.4785  -31.9645   27.7918 C   0  0  0  0  0  0  0  0  0  0  0  0
  -28.5171  -18.4896   18.6483 C   0  0  0  0  0  0  0  0  0  0  0  0
  -25.7468  -32.1282   23.1218 C   0  0  1  0  0  0  0  0  0  0  0  0
  -27.5338  -33.7494   26.0454 C   0  0  2  0  0  0  0  0  0  0  0  0
  -25.5590  -32.8935   21.7814 C   0  0  0  0  0  0  0  0  0  0  0  0
  -23.7260  -13.1914   20.8175 N   0  0  0  0  0  0  0  0  0  0  0  0
  -24.5418  -14.2030   21.1603 N   0  0  0  0  0  0  0  0  0  0  0  0
  -28.9182  -22.2510   22.9032 N   0  0  0  0  0  0  0  0  0  0  0  0
  -24.5622  -30.0354   23.7057 N   0  0  0  0  0  0  0  0  0  0  0  0
  -25.1222  -16.9637   18.5815 N   0  0  0  0  0  0  0  0  0  0  0  0
  -26.3330  -14.7807   22.5985 N   0  0  0  0  0  0  0  0  0  0  0  0
  -27.0302  -11.0770   23.0343 N   0  0  0  0  0  0  0  0  0  0  0  0
  -21.4772  -28.7280   22.4795 N   0  0  0  0  0  0  0  0  0  0  0  0
  -26.1612  -32.9711   24.2381 N   0  0  0  0  0  0  0  0  0  0  0  0
  -27.3898  -17.5977   18.8047 N   0  0  0  0  0  0  0  0  0  0  0  0
  -28.2155  -33.1153   27.2091 N   0  3  0  0  0  0  0  0  0  0  0  0
  -25.5203  -11.7319   24.6312 O   0  0  0  0  0  0  0  0  0  0  0  0
  -23.6713  -28.5154   21.7289 O   0  0  0  0  0  0  0  0  0  0  0  0
  -23.4708  -32.0941   23.7891 O   0  0  0  0  0  0  0  0  0  0  0  0
  -28.1175  -31.8204   24.7131 O   0  0  0  0  0  0  0  0  0  0  0  0
  -25.8890  -19.0056   17.7935 O   0  0  0  0  0  0  0  0  0  0  0  0
  -21.6205   -7.2049   21.3414 O   0  0  0  0  0  0  0  0  0  0  0  0
  -28.1716  -25.0448   24.0498 O   0  0  0  0  0  0  0  0  0  1  0  0
  -22.5194   -3.6566   25.4652 F   0  0  0  0  0  0  0  0  0  0  0  0
  -19.5273   -6.2565   22.8781 F   0  0  0  0  0  0  0  0  0  0  0  0
  -29.6097  -17.4424   21.3333 Cl  0  0  0  0  0  0  0  0  0  0  0  0
  1  2  1  0  0  0  0
  1  5  2  0  0  0  0
  2  6  2  0  0  0  0
  3  8  2  0  0  0  0
  3 17  1  0  0  0  0
  4  9  1  0  0  0  0
  4 17  2  0  0  0  0
  5 19  1  0  0  0  0
  6 21  1  0  0  0  0
  7 10  2  0  0  0  0
  7 20  1  0  0  0  0
  8 26  1  0  0  0  0
  9 26  2  0  0  0  0
 10 27  1  0  0  0  0
 11 12  2  0  0  0  0
 11 28  1  0  0  0  0
 12 29  1  0  0  0  0
 13 22  1  0  0  0  0
 13 27  2  0  0  0  0
 14 23  1  0  0  0  0
 14 24  2  0  0  0  0
 15 25  1  0  0  0  0
 15 31  2  0  0  0  0
 16 29  2  0  0  0  0
 16 30  1  0  0  0  0
 17 32  1  0  0  0  0
 18 32  1  0  0  0  0
 18 33  2  0  0  0  0
 18 36  1  0  0  0  0
 19 21  2  0  0  0  0
 19 41  1  0  0  0  0
 20 22  2  0  0  0  0
 20 42  1  0  0  0  0
 21 52  1  0  0  0  0
 22 43  1  0  0  0  0
 23 25  2  0  0  0  0
 23 56  1  0  0  0  0
 24 31  1  0  0  0  0
 24 62  1  0  0  0  0
 25 68  1  0  0  0  0
 26 82  1  0  0  0  0
 27 83  1  0  0  0  0
 28 30  2  0  0  0  0
 28 82  1  0  0  0  0
 29 84  1  0  0  0  0
 30 85  1  0  0  0  0
 31 86  1  0  0  0  0
 32 66  2  0  0  0  0
 33 67  1  0  0  0  0
 33 71  1  0  0  0  0
 34 35  2  0  0  0  0
 34 44  1  0  0  0  0
 34 68  1  0  0  0  0
 36 72  1  0  0  0  0
 36 77  2  0  0  0  0
 37 53  1  0  0  0  0
 37 73  1  0  0  0  0
 37 78  2  0  0  0  0
 38 63  1  0  0  0  0
 38 69  1  0  0  0  0
 38 79  2  0  0  0  0
 39 64  1  0  0  0  0
 39 74  1  0  0  0  0
 39 80  2  0  0  0  0
 40 70  1  0  0  0  0
 40 75  1  0  0  0  0
 40 81  2  0  0  0  0
 41 45  1  0  0  0  0
 42 53  1  0  0  0  0
 43 69  1  0  0  0  0
 44 55  1  0  0  0  0
 45 47  1  0  0  0  0
 46 48  1  0  0  0  0
 46 49  1  0  0  0  0
 47 52  1  0  0  0  0
 48 54  1  0  0  0  0
 49 70  1  0  0  0  0
 50 54  1  0  0  0  0
 50 70  1  0  0  0  0
 51 55  1  0  0  0  0
 51 68  1  0  0  0  0
 52 73  1  0  0  0  0
 53 69  1  0  0  0  0
 54 67  1  0  0  0  0
 55 83  1  0  0  0  0
 57 64  1  0  0  0  0
 58 65  1  0  0  0  0
 59 65  1  0  0  0  0
 60 65  1  0  0  0  0
 61 76  1  0  0  0  0
 62 75  1  0  0  0  0
 63 65  1  0  0  0  0
 63 74  1  0  0  0  0
 64 76  1  0  0  0  0
 66 67  1  0  0  0  0
M  CHG  1  76   1
M  ISO  4  40 100  55 101  75 100  83 101
M  END
> <Batch ID>
0034

> <Smiles>
C=C1C[101CH:1]([101O:1]c2ccc3c(c2)CN(C(=O)C(NC(=O)C(C)NC)C(C)(C)C)C(C(=O)NC2CCCc4ccccc42)C3)CN1c1cc(Cl)c(C[100NH:0][100C:0](=O)N2CCCC(n3nc(-c4ccc(Oc5ccc(F)cc5F)cc4)c(C(N)=O)c3N)C2)cc1C

> <Shape>
0.265

> <Color>
0.095

> <Negative vol penalty>
0.000

$$$$

  -OEChem-04042321483D

 88 97  0     1  0  0  0  0  0999 V2000
  -27.7959  -24.4297   17.3460 C   0  0  0  0  0  0  0  0  0  0  0  0
  -26.6050  -24.7549   17.9873 C   0  0  0  0  0  0  0  0  0  0  0  0
  -27.7644  -14.6829   19.1553 C   0  0  0  0  0  0  0  0  0  0  0  0
  -25.8134  -15.8518   18.3402 C   0  0  0  0  0  0  0  0  0  0  0  0
  -29.0110  -24.8691   17.8698 C   0  0  0  0  0  0  0  0  0  0  0  0
  -26.6285  -25.5189   19.1536 C   0  0  0  0  0  0  0  0  0  0  0  0
  -23.1287  -29.1790   19.1492 C   0  0  0  0  0  0  0  0  0  0  0  0
  -27.2667  -13.4887   18.6340 C   0  0  0  0  0  0  0  0  0  0  0  0
  -25.3157  -14.6576   17.8188 C   0  0  0  0  0  0  0  0  0  0  0  0
  -21.8154  -28.8045   19.4297 C   0  0  0  0  0  0  0  0  0  0  0  0
  -25.8406  -12.7178   15.1018 C   0  0  0  0  0  0  0  0  0  0  0  0
  -25.3156  -12.7455   13.8098 C   0  0  0  0  0  0  0  0  0  0  0  0
  -22.0864  -29.5760   21.6991 C   0  0  0  0  0  0  0  0  0  0  0  0
  -21.1035  -22.6599   23.4631 C   0  0  0  0  0  0  0  0  0  0  0  0
  -23.1775  -12.0122   14.6631 C   0  0  0  0  0  0  0  0  0  0  0  0
  -27.0376  -15.8645   19.0085 C   0  0  0  0  0  0  0  0  0  0  0  0
  -28.3811  -18.0302   18.8961 C   0  0  0  0  0  0  0  0  0  0  0  0
  -29.0488  -25.6470   19.0378 C   0  0  0  0  0  0  0  0  0  0  0  0
  -23.9356  -29.7458   20.1463 C   0  0  0  0  0  0  0  0  0  0  0  0
  -27.8453  -25.9680   19.6943 C   0  0  0  0  0  0  0  0  0  0  0  0
  -23.4088  -29.9592   21.4281 C   0  0  0  0  0  0  0  0  0  0  0  0
  -21.3887  -24.0078   23.6808 C   0  0  0  0  0  0  0  0  0  0  0  0
  -22.1392  -21.7270   23.4134 C   0  0  0  0  0  0  0  0  0  0  0  0
  -22.7098  -24.4228   23.8487 C   0  0  0  0  0  0  0  0  0  0  0  0
  -23.7456  -23.4899   23.7990 C   0  0  0  0  0  0  0  0  0  0  0  0
  -23.4603  -22.1420   23.5814 C   0  0  0  0  0  0  0  0  0  0  0  0
  -26.0425  -13.4761   17.9657 C   0  0  0  0  0  0  0  0  0  0  0  0
  -21.2949  -29.0003   20.7055 C   0  0  0  0  0  0  0  0  0  0  0  0
  -25.0341  -12.3372   16.1744 C   0  0  0  0  0  0  0  0  0  0  0  0
  -23.9840  -12.3928   13.5905 C   0  0  0  0  0  0  0  0  0  0  0  0
  -23.7026  -11.9845   15.9550 C   0  0  0  0  0  0  0  0  0  0  0  0
  -27.5509  -17.0983   19.5474 C   0  0  0  0  0  0  0  0  0  0  0  0
  -28.5836  -19.0193   19.8273 C   0  0  0  0  0  0  0  0  0  0  0  0
  -18.3772  -25.8840   22.4797 C   0  0  0  0  0  0  0  0  0  0  0  0
  -17.3141  -25.1224   22.7610 C   0  0  0  0  0  0  0  0  0  0  0  0
  -28.9208  -18.0041   17.5681 C   0  0  0  0  0  0  0  0  0  0  0  0
  -26.6526  -28.9176   21.5731 C   0  0  0  0  0  0  0  0  0  0  0  0
  -26.3720  -31.8452   22.9417 C   0  0  0  0  0  0  0  0  0  0  0  0
  -24.3402  -34.4206   23.8830 C   0  0  0  0  0  0  0  0  0  0  0  0
  -25.4278  -20.8956   24.5417 C   0  0  0  0  0  0  0  0  0  0  0  0
  -30.3894  -26.0592   19.5924 C   0  0  0  0  0  0  0  0  0  0  0  0
  -25.3417  -30.1690   19.8205 C   0  0  0  0  0  0  0  0  0  0  0  0
  -24.2272  -30.5825   22.5282 C   0  0  0  0  0  0  0  0  0  0  0  0
  -18.3436  -27.3430   22.1511 C   0  0  0  0  0  0  0  0  0  0  0  0
  -30.3028  -27.1803   20.6248 C   0  0  0  0  0  0  0  0  0  0  0  0
  -28.7891  -19.7216   24.5601 C   0  0  0  0  0  0  0  0  0  0  0  0
  -29.1968  -26.8916   21.6350 C   0  0  0  0  0  0  0  0  0  0  0  0
  -28.9304  -19.0057   23.2148 C   0  0  0  0  0  0  0  0  0  0  0  0
  -27.4013  -19.5208   25.1663 C   0  0  0  0  0  0  0  0  0  0  0  0
  -26.4227  -19.1499   22.9360 C   0  0  0  0  0  0  0  0  0  0  0  0
  -20.4732  -26.3463   21.6166 C   0  0  0  0  0  0  0  0  0  0  0  0
  -27.8281  -26.8158   20.9478 C   0  0  1  0  0  0  0  0  0  0  0  0
  -26.2375  -30.2643   21.0517 C   0  0  1  0  0  0  0  0  0  0  0  0
  -27.7825  -19.3769   22.2556 C   0  0  2  0  0  0  0  0  0  0  0  0
  -19.8240  -27.6690   22.0008 C   0  0  1  0  0  0  0  0  0  1  0  0
  -21.8016  -20.2899   23.1799 C   0  0  0  0  0  0  0  0  0  0  0  0
  -23.0123  -25.8693   24.0819 C   0  0  0  0  0  0  0  0  0  0  0  0
  -25.1617  -23.9406   23.9797 C   0  0  0  0  0  0  0  0  0  0  0  0
  -17.3917  -23.6684   23.0841 C   0  0  0  0  0  0  0  0  0  0  0  0
  -24.3941  -36.6603   25.0135 C   0  0  0  0  0  0  0  0  0  0  0  0
  -26.6591  -30.4687   25.6496 C   0  0  0  0  0  0  0  0  0  0  0  0
  -25.7697  -32.5485   26.7229 C   0  0  0  0  0  0  0  0  0  0  0  0
  -27.9067  -32.6258   25.4384 C   0  0  0  0  0  0  0  0  0  0  0  0
  -23.3141  -35.7929   21.4699 C   0  0  0  0  0  0  0  0  0  0  0  0
  -20.2561  -24.9904   23.7312 C   0  0  0  0  0  0  0  0  0  0  0  0
  -25.7201  -32.3824   24.1929 C   0  0  1  0  0  0  0  0  0  0  0  0
  -24.4590  -35.9211   23.6861 C   0  0  2  0  0  0  0  0  0  0  0  0
  -26.4988  -31.9928   25.4810 C   0  0  0  0  0  0  0  0  0  0  0  0
  -27.2470  -17.4627   20.7959 N   0  0  0  0  0  0  0  0  0  0  0  0
  -27.8897  -18.6346   20.9367 N   0  0  0  0  0  0  0  0  0  0  0  0
  -25.5985  -30.9736   22.1620 N   0  0  0  0  0  0  0  0  0  0  0  0
  -26.3648  -19.8968   24.2024 N   0  0  0  0  0  0  0  0  0  0  0  0
  -29.2858  -20.1718   19.7972 N   0  0  0  0  0  0  0  0  0  0  0  0
  -28.6131  -16.9137   16.7431 N   0  0  0  0  0  0  0  0  0  0  0  0
  -24.5105  -21.1919   23.5340 N   0  0  0  0  0  0  0  0  0  0  0  0
  -27.3358  -28.1446   20.6539 N   0  0  0  0  0  0  0  0  0  0  0  0
  -25.5767  -33.8204   23.9933 N   0  0  0  0  0  0  0  0  0  0  0  0
  -19.6851  -25.3005   22.3770 N   0  3  1  0  0  0  0  0  0  0  0  0
  -23.3555  -36.4185   22.8167 N   0  3  0  0  0  0  0  0  0  0  0  0
  -29.6677  -18.9126   17.1317 O   0  0  0  0  0  0  0  0  0  0  0  0
  -26.3749  -28.6038   22.7247 O   0  0  0  0  0  0  0  0  0  0  0  0
  -27.5224  -32.1919   22.6626 O   0  0  0  0  0  0  0  0  0  0  0  0
  -23.2586  -33.8395   23.9375 O   0  0  0  0  0  0  0  0  0  0  0  0
  -25.4552  -21.4668   25.6348 O   0  0  0  0  0  0  0  0  0  0  0  0
  -25.5567  -12.3110   17.4565 O   0  0  0  0  0  0  0  0  0  0  0  0
  -20.0135  -28.6350   20.9821 O   0  0  0  0  0  0  0  0  0  1  0  0
  -23.4795  -12.4209   12.3500 F   0  0  0  0  0  0  0  0  0  0  0  0
  -22.9226  -11.6192   16.9816 F   0  0  0  0  0  0  0  0  0  0  0  0
  1  2  1  0  0  0  0
  1  5  2  0  0  0  0
  2  6  2  0  0  0  0
  3  8  2  0  0  0  0
  3 16  1  0  0  0  0
  4  9  1  0  0  0  0
  4 16  2  0  0  0  0
  5 18  1  0  0  0  0
  6 20  1  0  0  0  0
  7 10  2  0  0  0  0
  7 19  1  0  0  0  0
  8 27  1  0  0  0  0
  9 27  2  0  0  0  0
 10 28  1  0  0  0  0
 11 12  2  0  0  0  0
 11 29  1  0  0  0  0
 12 30  1  0  0  0  0
 13 21  1  0  0  0  0
 13 28  2  0  0  0  0
 14 22  1  0  0  0  0
 14 23  2  0  0  0  0
 15 30  2  0  0  0  0
 15 31  1  0  0  0  0
 16 32  1  0  0  0  0
 17 32  1  0  0  0  0
 17 33  2  0  0  0  0
 17 36  1  0  0  0  0
 18 20  2  0  0  0  0
 18 41  1  0  0  0  0
 19 21  2  0  0  0  0
 19 42  1  0  0  0  0
 20 52  1  0  0  0  0
 21 43  1  0  0  0  0
 22 24  2  0  0  0  0
 22 65  1  0  0  0  0
 23 26  1  0  0  0  0
 23 56  1  0  0  0  0
 24 25  1  0  0  0  0
 24 57  1  0  0  0  0
 25 26  2  0  0  0  0
 25 58  1  0  0  0  0
 26 75  1  0  0  0  0
 27 85  1  0  0  0  0
 28 86  1  0  0  0  0
 29 31  2  0  0  0  0
 29 85  1  0  0  0  0
 30 87  1  0  0  0  0
 31 88  1  0  0  0  0
 32 69  2  0  0  0  0
 33 70  1  0  0  0  0
 33 73  1  0  0  0  0
 34 35  2  0  0  0  0
 34 44  1  0  0  0  0
 34 78  1  0  0  0  0
 35 59  1  0  0  0  0
 36 74  1  0  0  0  0
 36 80  2  0  0  0  0
 37 53  1  0  0  0  0
 37 76  1  0  0  0  0
 37 81  2  0  0  0  0
 38 66  1  0  0  0  0
 38 71  1  0  0  0  0
 38 82  2  0  0  0  0
 39 67  1  0  0  0  0
 39 77  1  0  0  0  0
 39 83  2  0  0  0  0
 40 72  1  0  0  0  0
 40 75  1  0  0  0  0
 40 84  2  0  0  0  0
 41 45  1  0  0  0  0
 42 53  1  0  0  0  0
 43 71  1  0  0  0  0
 44 55  1  0  0  0  0
 45 47  1  0  0  0  0
 46 48  1  0  0  0  0
 46 49  1  0  0  0  0
 47 52  1  0  0  0  0
 48 54  1  0  0  0  0
 49 72  1  0  0  0  0
 50 54  1  0  0  0  0
 50 72  1  0  0  0  0
 51 55  1  0  0  0  0
 51 78  1  0  0  0  0
 52 76  1  0  0  0  0
 53 71  1  0  0  0  0
 54 70  1  0  0  0  0
 55 86  1  0  0  0  0
 60 67  1  0  0  0  0
 61 68  1  0  0  0  0
 62 68  1  0  0  0  0
 63 68  1  0  0  0  0
 64 79  1  0  0  0  0
 65 78  1  0  0  0  0
 66 68  1  0  0  0  0
 66 77  1  0  0  0  0
 67 79  1  0  0  0  0
 69 70  1  0  0  0  0
M  CHG  2  78   1  79   1
M  ISO  4  40 100  55 101  75 100  86 101
M  END
> <Batch ID>
0034

> <Smiles>
CC=C1C[101CH:1]([101O:1]c2ccc3c(c2)CN(C(=O)C(NC(=O)C(C)NC)C(C)(C)C)C(C(=O)NC2CCCc4ccccc42)C3)CN1Cc1cc(C)c([100NH:0][100C:0](=O)N2CCCC(n3nc(-c4ccc(Oc5ccc(F)cc5F)cc4)c(C(N)=O)c3N)C2)c(C)c1C

> <Shape>
0.259

> <Color>
0.069

> <Negative vol penalty>
0.000

$$$$

  -OEChem-04042321483D

 86 95  0     1  0  0  0  0  0999 V2000
  -29.2559  -10.2193   17.0119 C   0  0  0  0  0  0  0  0  0  0  0  0
  -27.9424  -10.6570   16.8756 C   0  0  0  0  0  0  0  0  0  0  0  0
  -26.3039  -31.7180   20.1019 C   0  0  0  0  0  0  0  0  0  0  0  0
  -25.9101  -30.9069   22.3434 C   0  0  0  0  0  0  0  0  0  0  0  0
  -30.0556  -10.7259   18.0355 C   0  0  0  0  0  0  0  0  0  0  0  0
  -27.4275  -11.6007   17.7636 C   0  0  0  0  0  0  0  0  0  0  0  0
  -22.8156  -17.0755   18.0374 C   0  0  0  0  0  0  0  0  0  0  0  0
  -26.6808  -32.9583   20.6169 C   0  0  0  0  0  0  0  0  0  0  0  0
  -26.2871  -32.1472   22.8584 C   0  0  0  0  0  0  0  0  0  0  0  0
  -21.7221  -17.5266   18.7751 C   0  0  0  0  0  0  0  0  0  0  0  0
  -29.4085  -34.3258   22.0738 C   0  0  0  0  0  0  0  0  0  0  0  0
  -30.5558  -34.9229   21.5517 C   0  0  0  0  0  0  0  0  0  0  0  0
  -23.2205  -18.3905   20.4567 C   0  0  0  0  0  0  0  0  0  0  0  0
  -19.0522  -23.9882   21.9913 C   0  0  0  0  0  0  0  0  0  0  0  0
  -20.2495  -25.0676   23.7909 C   0  0  0  0  0  0  0  0  0  0  0  0
  -29.2433  -36.8220   20.8392 C   0  0  0  0  0  0  0  0  0  0  0  0
  -25.9185  -30.6923   20.9652 C   0  0  0  0  0  0  0  0  0  0  0  0
  -26.3631  -28.3060   20.1807 C   0  0  0  0  0  0  0  0  0  0  0  0
  -29.5532  -11.6835   18.9306 C   0  0  0  0  0  0  0  0  0  0  0  0
  -24.1217  -17.2691   18.5099 C   0  0  0  0  0  0  0  0  0  0  0  0
  -28.2208  -12.1196   18.8010 C   0  0  0  0  0  0  0  0  0  0  0  0
  -24.3291  -17.9430   19.7218 C   0  0  0  0  0  0  0  0  0  0  0  0
  -18.7891  -22.8978   22.8203 C   0  0  0  0  0  0  0  0  0  0  0  0
  -19.2561  -22.8922   24.1347 C   0  0  0  0  0  0  0  0  0  0  0  0
  -19.7825  -25.0731   22.4766 C   0  0  0  0  0  0  0  0  0  0  0  0
  -26.6724  -33.1729   21.9951 C   0  0  0  0  0  0  0  0  0  0  0  0
  -21.9243  -18.1817   19.9864 C   0  0  0  0  0  0  0  0  0  0  0  0
  -28.1785  -34.9767   21.9785 C   0  0  0  0  0  0  0  0  0  0  0  0
  -30.4733  -36.1710   20.9345 C   0  0  0  0  0  0  0  0  0  0  0  0
  -28.0959  -36.2248   21.3613 C   0  0  0  0  0  0  0  0  0  0  0  0
  -19.9863  -23.9771   24.6200 C   0  0  0  0  0  0  0  0  0  0  0  0
  -25.5285  -29.4111   20.4338 C   0  0  0  0  0  0  0  0  0  0  0  0
  -25.5177  -27.3437   19.6849 C   0  0  0  0  0  0  0  0  0  0  0  0
  -18.0937  -19.4606   21.4062 C   0  0  0  0  0  0  0  0  0  0  0  0
  -17.1946  -18.7990   22.1444 C   0  0  0  0  0  0  0  0  0  0  0  0
  -27.7761  -28.1621   20.3764 C   0  0  0  0  0  0  0  0  0  0  0  0
  -26.5104  -15.3483   19.3515 C   0  0  0  0  0  0  0  0  0  0  0  0
  -28.1470  -18.1374   19.6054 C   0  0  0  0  0  0  0  0  0  0  0  0
  -28.0577  -21.5167   20.0737 C   0  0  0  0  0  0  0  0  0  0  0  0
  -19.6592  -26.3442   20.3051 C   0  0  0  0  0  0  0  0  0  0  0  0
  -30.4407  -12.1668   20.0501 C   0  0  0  0  0  0  0  0  0  0  0  0
  -25.2917  -16.8000   17.6892 C   0  0  0  0  0  0  0  0  0  0  0  0
  -25.7120  -18.1939   20.2632 C   0  0  0  0  0  0  0  0  0  0  0  0
  -18.5675  -19.0549   20.0455 C   0  0  0  0  0  0  0  0  0  0  0  0
  -29.9360  -13.4421   20.7202 C   0  0  0  0  0  0  0  0  0  0  0  0
  -21.4218  -26.8499   17.2530 C   0  0  0  0  0  0  0  0  0  0  0  0
  -28.4443  -13.3334   21.0196 C   0  0  0  0  0  0  0  0  0  0  0  0
  -22.7533  -27.4579   17.6998 C   0  0  0  0  0  0  0  0  0  0  0  0
  -20.2572  -27.3434   18.1098 C   0  0  0  0  0  0  0  0  0  0  0  0
  -21.7688  -27.7846   20.0044 C   0  0  0  0  0  0  0  0  0  0  0  0
  -19.9321  -20.8313   20.9305 C   0  0  0  0  0  0  0  0  0  0  0  0
  -27.6338  -13.1606   19.7294 C   0  0  1  0  0  0  0  0  0  0  0  0
  -26.5577  -16.5960   18.5156 C   0  0  1  0  0  0  0  0  0  0  0  0
  -22.9806  -27.2672   19.2122 C   0  0  2  0  0  0  0  0  0  0  0  0
  -19.9983  -19.5687   20.0830 C   0  0  1  0  0  0  0  0  0  1  0  0
  -18.9661  -21.7135   25.0111 C   0  0  0  0  0  0  0  0  0  0  0  0
  -28.9162  -23.8699   20.2256 C   0  0  0  0  0  0  0  0  0  0  0  0
  -28.8928  -17.2966   22.4421 C   0  0  0  0  0  0  0  0  0  0  0  0
  -29.5485  -19.6694   22.8983 C   0  0  0  0  0  0  0  0  0  0  0  0
  -30.7493  -18.3601   21.1471 C   0  0  0  0  0  0  0  0  0  0  0  0
  -27.6758  -21.9666   17.1736 C   0  0  0  0  0  0  0  0  0  0  0  0
  -18.0023  -21.7438   22.2724 C   0  0  0  0  0  0  0  0  0  0  0  0
  -28.3850  -19.1408   20.7079 C   0  0  1  0  0  0  0  0  0  0  0  0
  -28.7325  -22.6549   19.3296 C   0  0  2  0  0  0  0  0  0  0  0  0
  -29.3677  -18.6105   21.7899 C   0  0  0  0  0  0  0  0  0  0  0  0
  -24.2510  -29.1740   20.1241 N   0  0  0  0  0  0  0  0  0  0  0  0
  -24.2766  -27.9090   19.6713 N   0  0  0  0  0  0  0  0  0  0  0  0
  -26.8234  -17.7108   19.4272 N   0  0  0  0  0  0  0  0  0  0  0  0
  -20.5414  -27.1264   19.5300 N   0  0  0  0  0  0  0  0  0  0  0  0
  -25.7224  -26.0776   19.2635 N   0  0  0  0  0  0  0  0  0  0  0  0
  -28.4929  -29.2492   20.8949 N   0  0  0  0  0  0  0  0  0  0  0  0
  -20.0497  -26.1803   21.6337 N   0  0  0  0  0  0  0  0  0  0  0  0
  -27.4954  -14.4286   19.0457 N   0  0  0  0  0  0  0  0  0  0  0  0
  -28.8225  -20.3695   20.0542 N   0  0  0  0  0  0  0  0  0  0  0  0
  -18.8507  -20.5455   21.9693 N   0  3  1  0  0  0  0  0  0  0  0  0
  -27.9153  -23.0596   18.1508 N   0  3  0  0  0  0  0  0  0  0  0  0
  -28.3878  -27.1066   20.0843 O   0  0  0  0  0  0  0  0  0  0  0  0
  -25.6453  -15.2294   20.2112 O   0  0  0  0  0  0  0  0  0  0  0  0
  -29.0993  -17.7520   18.9226 O   0  0  0  0  0  0  0  0  0  0  0  0
  -26.9635  -21.6347   20.6208 O   0  0  0  0  0  0  0  0  0  0  0  0
  -18.6471  -25.8332   19.8188 O   0  0  0  0  0  0  0  0  0  0  0  0
  -27.0404  -34.3830   22.4980 O   0  0  0  0  0  0  0  0  0  0  0  0
  -20.8586  -18.6225   20.7088 O   0  0  0  0  0  0  0  0  0  1  0  0
  -31.5755  -36.7450   20.4345 F   0  0  0  0  0  0  0  0  0  0  0  0
  -26.9173  -36.8556   21.2678 F   0  0  0  0  0  0  0  0  0  0  0  0
  -20.5798  -24.0101   26.2411 Cl  0  0  0  0  0  0  0  0  0  0  0  0
  1  2  1  0  0  0  0
  1  5  2  0  0  0  0
  2  6  2  0  0  0  0
  3  8  2  0  0  0  0
  3 17  1  0  0  0  0
  4  9  1  0  0  0  0
  4 17  2  0  0  0  0
  5 19  1  0  0  0  0
  6 21  1  0  0  0  0
  7 10  2  0  0  0  0
  7 20  1  0  0  0  0
  8 26  1  0  0  0  0
  9 26  2  0  0  0  0
 10 27  1  0  0  0  0
 11 12  2  0  0  0  0
 11 28  1  0  0  0  0
 12 29  1  0  0  0  0
 13 22  1  0  0  0  0
 13 27  2  0  0  0  0
 14 23  1  0  0  0  0
 14 25  2  0  0  0  0
 15 25  1  0  0  0  0
 15 31  2  0  0  0  0
 16 29  2  0  0  0  0
 16 30  1  0  0  0  0
 17 32  1  0  0  0  0
 18 32  1  0  0  0  0
 18 33  2  0  0  0  0
 18 36  1  0  0  0  0
 19 21  2  0  0  0  0
 19 41  1  0  0  0  0
 20 22  2  0  0  0  0
 20 42  1  0  0  0  0
 21 52  1  0  0  0  0
 22 43  1  0  0  0  0
 23 24  2  0  0  0  0
 23 62  1  0  0  0  0
 24 31  1  0  0  0  0
 24 56  1  0  0  0  0
 25 72  1  0  0  0  0
 26 82  1  0  0  0  0
 27 83  1  0  0  0  0
 28 30  2  0  0  0  0
 28 82  1  0  0  0  0
 29 84  1  0  0  0  0
 30 85  1  0  0  0  0
 31 86  1  0  0  0  0
 32 66  2  0  0  0  0
 33 67  1  0  0  0  0
 33 70  1  0  0  0  0
 34 35  2  0  0  0  0
 34 44  1  0  0  0  0
 34 75  1  0  0  0  0
 36 71  1  0  0  0  0
 36 77  2  0  0  0  0
 37 53  1  0  0  0  0
 37 73  1  0  0  0  0
 37 78  2  0  0  0  0
 38 63  1  0  0  0  0
 38 68  1  0  0  0  0
 38 79  2  0  0  0  0
 39 64  1  0  0  0  0
 39 74  1  0  0  0  0
 39 80  2  0  0  0  0
 40 69  1  0  0  0  0
 40 72  1  0  0  0  0
 40 81  2  0  0  0  0
 41 45  1  0  0  0  0
 42 53  1  0  0  0  0
 43 68  1  0  0  0  0
 44 55  1  0  0  0  0
 45 47  1  0  0  0  0
 46 48  1  0  0  0  0
 46 49  1  0  0  0  0
 47 52  1  0  0  0  0
 48 54  1  0  0  0  0
 49 69  1  0  0  0  0
 50 54  1  0  0  0  0
 50 69  1  0  0  0  0
 51 55  1  0  0  0  0
 51 75  1  0  0  0  0
 52 73  1  0  0  0  0
 53 68  1  0  0  0  0
 54 67  1  0  0  0  0
 55 83  1  0  0  0  0
 57 64  1  0  0  0  0
 58 65  1  0  0  0  0
 59 65  1  0  0  0  0
 60 65  1  0  0  0  0
 61 76  1  0  0  0  0
 62 75  1  0  0  0  0
 63 65  1  0  0  0  0
 63 74  1  0  0  0  0
 64 76  1  0  0  0  0
 66 67  1  0  0  0  0
M  CHG  2  75   1  76   1
M  ISO  4  40 100  55 101  72 100  83 101
M  END
> <Batch ID>
0034

> <Smiles>
C=C1C[101CH:1]([101O:1]c2ccc3c(c2)CN(C(=O)C(NC(=O)C(C)NC)C(C)(C)C)C(C(=O)NC2CCCc4ccccc42)C3)CN1Cc1cc([100NH:0][100C:0](=O)N2CCCC(n3nc(-c4ccc(Oc5ccc(F)cc5F)cc4)c(C(N)=O)c3N)C2)cc(Cl)c1C

> <Shape>
0.222

> <Color>
0.073

> <Negative vol penalty>
0.000

$$$$

  -OEChem-04042321483D

 87 96  0     1  0  0  0  0  0999 V2000
  -29.6178  -25.7123   13.2625 C   0  0  0  0  0  0  0  0  0  0  0  0
  -28.4043  -26.3443   13.5145 C   0  0  0  0  0  0  0  0  0  0  0  0
  -24.0763  -13.6378   21.3291 C   0  0  0  0  0  0  0  0  0  0  0  0
  -25.3641  -13.6606   19.2850 C   0  0  0  0  0  0  0  0  0  0  0  0
  -30.2227  -24.9450   14.2571 C   0  0  0  0  0  0  0  0  0  0  0  0
  -27.7944  -26.2083   14.7611 C   0  0  0  0  0  0  0  0  0  0  0  0
  -23.7054  -29.8248   19.3998 C   0  0  0  0  0  0  0  0  0  0  0  0
  -22.6698  -25.1494   24.2875 C   0  0  0  0  0  0  0  0  0  0  0  0
  -24.4220  -12.3018   21.5319 C   0  0  0  0  0  0  0  0  0  0  0  0
  -25.7099  -12.3246   19.4879 C   0  0  0  0  0  0  0  0  0  0  0  0
  -22.5224  -29.6903   20.1252 C   0  0  0  0  0  0  0  0  0  0  0  0
  -23.4641   -9.2770   20.3668 C   0  0  0  0  0  0  0  0  0  0  0  0
  -22.4519   -8.3976   20.7510 C   0  0  0  0  0  0  0  0  0  0  0  0
  -24.0284  -24.8372   24.3353 C   0  0  0  0  0  0  0  0  0  0  0  0
  -23.6986  -28.4046   21.7934 C   0  0  0  0  0  0  0  0  0  0  0  0
  -23.6568   -7.8995   22.7851 C   0  0  0  0  0  0  0  0  0  0  0  0
  -24.5474  -14.3172   20.2056 C   0  0  0  0  0  0  0  0  0  0  0  0
  -22.8942  -16.2268   19.8470 C   0  0  0  0  0  0  0  0  0  0  0  0
  -29.6246  -24.8075   15.5197 C   0  0  0  0  0  0  0  0  0  0  0  0
  -24.8936  -29.2400   19.8610 C   0  0  0  0  0  0  0  0  0  0  0  0
  -28.3912  -25.4373   15.7731 C   0  0  0  0  0  0  0  0  0  0  0  0
  -24.8959  -28.5353   21.0733 C   0  0  0  0  0  0  0  0  0  0  0  0
  -21.8473  -24.5413   23.3391 C   0  0  0  0  0  0  0  0  0  0  0  0
  -23.7423  -23.3089   22.4861 C   0  0  0  0  0  0  0  0  0  0  0  0
  -25.2388  -11.6452   20.6114 C   0  0  0  0  0  0  0  0  0  0  0  0
  -22.5183  -28.9777   21.3207 C   0  0  0  0  0  0  0  0  0  0  0  0
  -24.5728   -9.4676   21.1917 C   0  0  0  0  0  0  0  0  0  0  0  0
  -22.5482   -7.7089   21.9602 C   0  0  0  0  0  0  0  0  0  0  0  0
  -24.6690   -8.7788   22.4008 C   0  0  0  0  0  0  0  0  0  0  0  0
  -24.5646  -23.9170   23.4346 C   0  0  0  0  0  0  0  0  0  0  0  0
  -22.3836  -23.6211   22.4384 C   0  0  0  0  0  0  0  0  0  0  0  0
  -24.1901  -15.6972   19.9951 C   0  0  0  0  0  0  0  0  0  0  0  0
  -23.0920  -17.5748   19.6734 C   0  0  0  0  0  0  0  0  0  0  0  0
  -21.6252  -15.5598   19.8649 C   0  0  0  0  0  0  0  0  0  0  0  0
  -26.8804  -27.0216   18.7498 C   0  0  0  0  0  0  0  0  0  0  0  0
  -28.6547  -27.8758   21.3275 C   0  0  0  0  0  0  0  0  0  0  0  0
  -28.0489  -28.6771   24.7928 C   0  0  0  0  0  0  0  0  0  0  0  0
  -25.5913  -22.3507   21.0687 C   0  0  0  0  0  0  0  0  0  0  0  0
  -30.2928  -23.9291   16.5476 C   0  0  0  0  0  0  0  0  0  0  0  0
  -26.1670  -29.4170   19.0804 C   0  0  0  0  0  0  0  0  0  0  0  0
  -26.1492  -27.9057   21.6221 C   0  0  0  0  0  0  0  0  0  0  0  0
  -29.7668  -24.1416   17.9648 C   0  0  0  0  0  0  0  0  0  0  0  0
  -27.3374  -20.1998   18.8322 C   0  0  0  0  0  0  0  0  0  0  0  0
  -28.2417  -24.1721   17.9692 C   0  0  0  0  0  0  0  0  0  0  0  0
  -26.5677  -18.8802   18.9232 C   0  0  0  0  0  0  0  0  0  0  0  0
  -18.9492  -28.7556   21.8850 C   0  0  0  0  0  0  0  0  0  0  0  0
  -18.7033  -28.3813   23.3421 C   0  0  0  0  0  0  0  0  0  0  0  0
  -27.4108  -20.9079   20.1838 C   0  0  0  0  0  0  0  0  0  0  0  0
  -25.3476  -19.7935   20.9392 C   0  0  0  0  0  0  0  0  0  0  0  0
  -20.3826  -26.6984   21.6157 C   0  0  0  0  0  0  0  0  0  0  0  0
  -27.7107  -25.3340   17.1209 C   0  0  1  0  0  0  0  0  0  0  0  0
  -27.2080  -28.3438   19.3839 C   0  0  1  0  0  0  0  0  0  0  0  0
  -25.1913  -19.0754   19.5889 C   0  0  2  0  0  0  0  0  0  0  0  0
  -20.2735  -28.1974   21.3795 C   0  0  2  0  0  0  0  0  0  1  0  0
  -18.7958  -26.8690   23.5774 C   0  0  2  0  0  0  0  0  0  0  0  0
  -18.6193  -26.5663   25.0642 C   0  0  0  0  0  0  0  0  0  0  0  0
  -29.3467  -30.1184   26.3851 C   0  0  0  0  0  0  0  0  0  0  0  0
  -30.0026  -25.2619   22.1401 C   0  0  0  0  0  0  0  0  0  0  0  0
  -29.9869  -26.0713   24.5093 C   0  0  0  0  0  0  0  0  0  0  0  0
  -31.2640  -27.3266   22.7726 C   0  0  0  0  0  0  0  0  0  0  0  0
  -25.6757  -30.3345   25.4090 C   0  0  0  0  0  0  0  0  0  0  0  0
  -20.3923  -24.9068   23.3280 C   0  0  0  0  0  0  0  0  0  0  0  0
  -28.7376  -27.4240   22.7655 C   0  0  1  0  0  0  0  0  0  0  0  0
  -28.1564  -30.0453   25.4414 C   0  0  2  0  0  0  0  0  0  0  0  0
  -29.9735  -26.5191   23.0321 C   0  0  0  0  0  0  0  0  0  0  0  0
  -25.1409  -16.6324   19.9218 N   0  0  0  0  0  0  0  0  0  0  0  0
  -24.4418  -17.7633   19.7256 N   0  0  0  0  0  0  0  0  0  0  0  0
  -27.3676  -28.1012   20.8192 N   0  0  0  0  0  0  0  0  0  0  0  0
  -26.0698  -21.0617   20.7521 N   0  0  0  0  0  0  0  0  0  0  0  0
  -22.2412  -18.6054   19.4825 N   0  0  0  0  0  0  0  0  0  0  0  0
  -21.6027  -14.1713   20.0544 N   0  0  0  0  0  0  0  0  0  0  0  0
  -24.2911  -22.3756   21.5721 N   0  0  0  0  0  0  0  0  0  0  0  0
  -27.8270  -26.5822   17.8441 N   0  0  0  0  0  0  0  0  0  0  0  0
  -28.6981  -28.6357   23.5771 N   0  0  0  0  0  0  0  0  0  0  0  0
  -20.1535  -26.3777   23.0836 N   0  3  1  0  0  0  0  0  0  0  0  0
  -26.9214  -30.3488   26.2183 N   0  3  0  0  0  0  0  0  0  0  0  0
  -20.5441  -16.1746   19.7009 O   0  0  0  0  0  0  0  0  0  0  0  0
  -25.8462  -26.4423   19.0604 O   0  0  0  0  0  0  0  0  0  0  0  0
  -29.6940  -28.0303   20.6813 O   0  0  0  0  0  0  0  0  0  0  0  0
  -27.4520  -27.7377   25.3143 O   0  0  0  0  0  0  0  0  0  0  0  0
  -26.2739  -23.3608   20.8797 O   0  0  0  0  0  0  0  0  0  0  0  0
  -25.5765  -10.3416   20.8092 O   0  0  0  0  0  0  0  0  0  0  0  0
  -21.3648  -28.8443   22.0303 O   0  0  0  0  0  0  0  0  0  1  0  0
  -21.5753   -6.8656   22.3297 F   0  0  0  0  0  0  0  0  0  0  0  0
  -25.7311   -8.9587   23.1980 F   0  0  0  0  0  0  0  0  0  0  0  0
  -26.2547  -23.5668   23.5322 Cl  0  0  0  0  0  0  0  0  0  0  0  0
  -21.3502  -22.8705   21.2647 Cl  0  0  0  0  0  0  0  0  0  0  0  0
  1  2  1  0  0  0  0
  1  5  2  0  0  0  0
  2  6  2  0  0  0  0
  3  9  2  0  0  0  0
  3 17  1  0  0  0  0
  4 10  1  0  0  0  0
  4 17  2  0  0  0  0
  5 19  1  0  0  0  0
  6 21  1  0  0  0  0
  7 11  2  0  0  0  0
  7 20  1  0  0  0  0
  8 14  2  0  0  0  0
  8 23  1  0  0  0  0
  9 25  1  0  0  0  0
 10 25  2  0  0  0  0
 11 26  1  0  0  0  0
 12 13  2  0  0  0  0
 12 27  1  0  0  0  0
 13 28  1  0  0  0  0
 14 30  1  0  0  0  0
 15 22  1  0  0  0  0
 15 26  2  0  0  0  0
 16 28  2  0  0  0  0
 16 29  1  0  0  0  0
 17 32  1  0  0  0  0
 18 32  1  0  0  0  0
 18 33  2  0  0  0  0
 18 34  1  0  0  0  0
 19 21  2  0  0  0  0
 19 39  1  0  0  0  0
 20 22  2  0  0  0  0
 20 40  1  0  0  0  0
 21 51  1  0  0  0  0
 22 41  1  0  0  0  0
 23 31  2  0  0  0  0
 23 62  1  0  0  0  0
 24 30  2  0  0  0  0
 24 31  1  0  0  0  0
 24 72  1  0  0  0  0
 25 82  1  0  0  0  0
 26 83  1  0  0  0  0
 27 29  2  0  0  0  0
 27 82  1  0  0  0  0
 28 84  1  0  0  0  0
 29 85  1  0  0  0  0
 30 86  1  0  0  0  0
 31 87  1  0  0  0  0
 32 66  2  0  0  0  0
 33 67  1  0  0  0  0
 33 70  1  0  0  0  0
 34 71  1  0  0  0  0
 34 77  2  0  0  0  0
 35 52  1  0  0  0  0
 35 73  1  0  0  0  0
 35 78  2  0  0  0  0
 36 63  1  0  0  0  0
 36 68  1  0  0  0  0
 36 79  2  0  0  0  0
 37 64  1  0  0  0  0
 37 74  1  0  0  0  0
 37 80  2  0  0  0  0
 38 69  1  0  0  0  0
 38 72  1  0  0  0  0
 38 81  2  0  0  0  0
 39 42  1  0  0  0  0
 40 52  1  0  0  0  0
 41 68  1  0  0  0  0
 42 44  1  0  0  0  0
 43 45  1  0  0  0  0
 43 48  1  0  0  0  0
 44 51  1  0  0  0  0
 45 53  1  0  0  0  0
 46 47  1  0  0  0  0
 46 54  1  0  0  0  0
 47 55  1  0  0  0  0
 48 69  1  0  0  0  0
 49 53  1  0  0  0  0
 49 69  1  0  0  0  0
 50 54  1  0  0  0  0
 50 75  1  0  0  0  0
 51 73  1  0  0  0  0
 52 68  1  0  0  0  0
 53 67  1  0  0  0  0
 54 83  1  0  0  0  0
 55 56  1  0  0  0  0
 55 75  1  0  0  0  0
 57 64  1  0  0  0  0
 58 65  1  0  0  0  0
 59 65  1  0  0  0  0
 60 65  1  0  0  0  0
 61 76  1  0  0  0  0
 62 75  1  0  0  0  0
 63 65  1  0  0  0  0
 63 74  1  0  0  0  0
 64 76  1  0  0  0  0
 66 67  1  0  0  0  0
M  CHG  2  75   1  76   1
M  ISO  4  38 100  54 101  72 100  83 101
M  END
> <Batch ID>
0034

> <Smiles>
CNC(C)C(=O)NC(C(=O)N1Cc2cc([101O:1][101CH:1]3CCC(C)N(Cc4ccc(Cl)c([100NH:0][100C:0](=O)N5CCCC(n6nc(-c7ccc(Oc8ccc(F)cc8F)cc7)c(C(N)=O)c6N)C5)c4Cl)C3)ccc2CC1C(=O)NC1CCCc2ccccc21)C(C)(C)C

> <Shape>
0.230

> <Color>
0.064

> <Negative vol penalty>
0.000

$$$$

  -OEChem-04042321483D

 89 98  0     1  0  0  0  0  0999 V2000
  -23.1480  -23.9103   22.3753 C   0  0  0  0  0  0  0  0  0  0  0  0
  -24.1701  -22.9706   22.4632 C   0  0  0  0  0  0  0  0  0  0  0  0
  -22.5125  -29.8974   21.5013 C   0  0  0  0  0  0  0  0  0  0  0  0
  -23.5956  -29.0342   23.4809 C   0  0  0  0  0  0  0  0  0  0  0  0
  -21.8615  -23.5812   22.8002 C   0  0  0  0  0  0  0  0  0  0  0  0
  -23.9064  -21.7014   22.9770 C   0  0  0  0  0  0  0  0  0  0  0  0
  -25.9920  -18.0116   20.2056 C   0  0  0  0  0  0  0  0  0  0  0  0
  -21.4033  -30.2591   22.2658 C   0  0  0  0  0  0  0  0  0  0  0  0
  -22.4864  -29.3959   24.2455 C   0  0  0  0  0  0  0  0  0  0  0  0
  -27.3581  -17.7864   20.3700 C   0  0  0  0  0  0  0  0  0  0  0  0
  -18.7081  -28.7342   23.6205 C   0  0  0  0  0  0  0  0  0  0  0  0
  -17.4451  -28.4294   23.1132 C   0  0  0  0  0  0  0  0  0  0  0  0
  -26.8700  -15.9185   21.8164 C   0  0  0  0  0  0  0  0  0  0  0  0
  -31.9626  -21.5540   21.9238 C   0  0  0  0  0  0  0  0  0  0  0  0
  -16.8728  -30.7766   23.1276 C   0  0  0  0  0  0  0  0  0  0  0  0
  -23.6086  -29.2849   22.1088 C   0  0  0  0  0  0  0  0  0  0  0  0
  -25.8889  -29.6965   21.0418 C   0  0  0  0  0  0  0  0  0  0  0  0
  -21.5798  -22.3042   23.3105 C   0  0  0  0  0  0  0  0  0  0  0  0
  -25.0532  -17.1973   20.8552 C   0  0  0  0  0  0  0  0  0  0  0  0
  -22.6152  -21.3553   23.4104 C   0  0  0  0  0  0  0  0  0  0  0  0
  -25.4926  -16.1339   21.6566 C   0  0  0  0  0  0  0  0  0  0  0  0
  -31.6391  -22.8138   21.4202 C   0  0  0  0  0  0  0  0  0  0  0  0
  -32.4016  -20.5497   21.0610 C   0  0  0  0  0  0  0  0  0  0  0  0
  -32.5170  -20.8053   19.6946 C   0  0  0  0  0  0  0  0  0  0  0  0
  -32.1934  -22.0651   19.1910 C   0  0  0  0  0  0  0  0  0  0  0  0
  -31.7544  -23.0694   20.0538 C   0  0  0  0  0  0  0  0  0  0  0  0
  -21.3903  -30.0083   23.6379 C   0  0  0  0  0  0  0  0  0  0  0  0
  -27.7973  -16.7416   21.1777 C   0  0  0  0  0  0  0  0  0  0  0  0
  -19.0535  -30.0602   23.8814 C   0  0  0  0  0  0  0  0  0  0  0  0
  -16.5274  -29.4505   22.8668 C   0  0  0  0  0  0  0  0  0  0  0  0
  -18.1359  -31.0814   23.6350 C   0  0  0  0  0  0  0  0  0  0  0  0
  -24.7545  -28.9106   21.3195 C   0  0  0  0  0  0  0  0  0  0  0  0
  -26.6806  -28.8922   20.2590 C   0  0  0  0  0  0  0  0  0  0  0  0
  -32.0203  -16.8888   21.9271 C   0  0  0  0  0  0  0  0  0  0  0  0
  -33.0511  -16.1669   21.4719 C   0  0  0  0  0  0  0  0  0  0  0  0
  -26.1994  -31.0340   21.4546 C   0  0  0  0  0  0  0  0  0  0  0  0
  -22.7804  -17.6843   23.0234 C   0  0  0  0  0  0  0  0  0  0  0  0
  -22.0873  -14.5721   22.4268 C   0  0  0  0  0  0  0  0  0  0  0  0
  -23.1584  -11.5254   21.3236 C   0  0  0  0  0  0  0  0  0  0  0  0
  -28.9997  -23.9373   19.1564 C   0  0  0  0  0  0  0  0  0  0  0  0
  -20.1843  -22.0102   23.8013 C   0  0  0  0  0  0  0  0  0  0  0  0
  -23.5830  -17.4368   20.6463 C   0  0  0  0  0  0  0  0  0  0  0  0
  -24.5252  -15.2183   22.3596 C   0  0  0  0  0  0  0  0  0  0  0  0
  -30.9854  -16.4094   22.8965 C   0  0  0  0  0  0  0  0  0  0  0  0
  -19.9045  -20.5208   23.9852 C   0  0  0  0  0  0  0  0  0  0  0  0
  -25.6758  -24.4789   18.0009 C   0  0  0  0  0  0  0  0  0  0  0  0
  -21.0541  -19.8497   24.7302 C   0  0  0  0  0  0  0  0  0  0  0  0
  -25.2317  -25.7407   18.7428 C   0  0  0  0  0  0  0  0  0  0  0  0
  -26.5628  -23.5937   18.8737 C   0  0  0  0  0  0  0  0  0  0  0  0
  -27.2861  -25.5377   20.2046 C   0  0  0  0  0  0  0  0  0  0  0  0
  -30.3365  -18.5166   21.9271 C   0  0  0  0  0  0  0  0  0  0  0  0
  -22.3631  -19.9599   23.9390 C   0  0  1  0  0  0  0  0  0  0  0  0
  -22.7194  -16.8641   21.7659 C   0  0  1  0  0  0  0  0  0  0  0  0
  -26.4353  -26.4893   19.3462 C   0  0  2  0  0  0  0  0  0  0  0  0
  -29.7717  -17.1917   22.4193 C   0  0  1  0  0  0  0  0  0  1  0  0
  -31.1709  -23.8715   22.3655 C   0  0  0  0  0  0  0  0  0  0  0  0
  -32.9873  -19.7260   18.7715 C   0  0  0  0  0  0  0  0  0  0  0  0
  -32.3177  -22.3395   17.7253 C   0  0  0  0  0  0  0  0  0  0  0  0
  -32.2735  -25.5369   20.1145 C   0  0  0  0  0  0  0  0  0  0  0  0
  -22.3757   -9.1646   20.9895 C   0  0  0  0  0  0  0  0  0  0  0  0
  -22.3019  -14.0785   25.4301 C   0  0  0  0  0  0  0  0  0  0  0  0
  -22.4614  -11.6274   24.9454 C   0  0  0  0  0  0  0  0  0  0  0  0
  -20.4066  -12.8914   24.3106 C   0  0  0  0  0  0  0  0  0  0  0  0
  -23.6454  -11.6538   18.4072 C   0  0  0  0  0  0  0  0  0  0  0  0
  -32.7441  -19.2036   21.6284 C   0  0  0  0  0  0  0  0  0  0  0  0
  -31.4069  -24.4217   19.5163 C   0  0  2  0  0  0  0  0  0  0  0  0
  -22.5369  -13.2484   22.9967 C   0  0  1  0  0  0  0  0  0  0  0  0
  -22.5460  -10.5341   20.3505 C   0  0  2  0  0  0  0  0  0  0  0  0
  -21.9452  -12.9797   24.4091 C   0  0  0  0  0  0  0  0  0  0  0  0
  -24.8160  -27.7000   20.7586 N   0  0  0  0  0  0  0  0  0  0  0  0
  -25.9986  -27.7192   20.1205 N   0  0  0  0  0  0  0  0  0  0  0  0
  -23.0981  -15.4970   22.1291 N   0  0  0  0  0  0  0  0  0  0  0  0
  -27.6862  -24.3635   19.4134 N   0  0  0  0  0  0  0  0  0  0  0  0
  -27.8866  -29.0810   19.6824 N   0  0  0  0  0  0  0  0  0  0  0  0
  -25.2753  -31.7170   22.2571 N   0  0  0  0  0  0  0  0  0  0  0  0
  -22.3831  -18.9975   22.8584 N   0  0  0  0  0  0  0  0  0  0  0  0
  -22.1926  -12.2379   22.0024 N   0  0  0  0  0  0  0  0  0  0  0  0
  -30.0056  -24.7273   19.6993 N   0  0  0  0  0  0  0  0  0  0  0  0
  -31.7023  -18.1638   21.3437 N   0  3  1  0  0  0  0  0  0  0  0  0
  -23.4127  -10.3867   19.1471 N   0  3  0  0  0  0  0  0  0  0  0  0
  -27.2572  -31.6124   21.1082 O   0  0  0  0  0  0  0  0  0  0  0  0
  -23.1585  -17.1640   24.0664 O   0  0  0  0  0  0  0  0  0  0  0  0
  -20.8842  -14.7751   22.2455 O   0  0  0  0  0  0  0  0  0  0  0  0
  -24.3721  -11.6521   21.4698 O   0  0  0  0  0  0  0  0  0  0  0  0
  -29.2570  -22.9305   18.4877 O   0  0  0  0  0  0  0  0  0  0  0  0
  -20.3082  -30.3613   24.3843 O   0  0  0  0  0  0  0  0  0  0  0  0
  -29.1301  -16.5200   21.3404 O   0  0  0  0  0  0  0  0  0  1  0  0
  -15.3151  -29.1578   22.3782 F   0  0  0  0  0  0  0  0  0  0  0  0
  -18.4624  -32.3573   23.8825 F   0  0  0  0  0  0  0  0  0  0  0  0
  1  2  1  0  0  0  0
  1  5  2  0  0  0  0
  2  6  2  0  0  0  0
  3  8  2  0  0  0  0
  3 16  1  0  0  0  0
  4  9  1  0  0  0  0
  4 16  2  0  0  0  0
  5 18  1  0  0  0  0
  6 20  1  0  0  0  0
  7 10  2  0  0  0  0
  7 19  1  0  0  0  0
  8 27  1  0  0  0  0
  9 27  2  0  0  0  0
 10 28  1  0  0  0  0
 11 12  2  0  0  0  0
 11 29  1  0  0  0  0
 12 30  1  0  0  0  0
 13 21  1  0  0  0  0
 13 28  2  0  0  0  0
 14 22  2  0  0  0  0
 14 23  1  0  0  0  0
 15 30  2  0  0  0  0
 15 31  1  0  0  0  0
 16 32  1  0  0  0  0
 17 32  1  0  0  0  0
 17 33  2  0  0  0  0
 17 36  1  0  0  0  0
 18 20  2  0  0  0  0
 18 41  1  0  0  0  0
 19 21  2  0  0  0  0
 19 42  1  0  0  0  0
 20 52  1  0  0  0  0
 21 43  1  0  0  0  0
 22 26  1  0  0  0  0
 22 56  1  0  0  0  0
 23 24  2  0  0  0  0
 23 65  1  0  0  0  0
 24 25  1  0  0  0  0
 24 57  1  0  0  0  0
 25 26  2  0  0  0  0
 25 58  1  0  0  0  0
 26 66  1  0  0  0  0
 27 86  1  0  0  0  0
 28 87  1  0  0  0  0
 29 31  2  0  0  0  0
 29 86  1  0  0  0  0
 30 88  1  0  0  0  0
 31 89  1  0  0  0  0
 32 70  2  0  0  0  0
 33 71  1  0  0  0  0
 33 74  1  0  0  0  0
 34 35  2  0  0  0  0
 34 44  1  0  0  0  0
 34 79  1  0  0  0  0
 36 75  1  0  0  0  0
 36 81  2  0  0  0  0
 37 53  1  0  0  0  0
 37 76  1  0  0  0  0
 37 82  2  0  0  0  0
 38 67  1  0  0  0  0
 38 72  1  0  0  0  0
 38 83  2  0  0  0  0
 39 68  1  0  0  0  0
 39 77  1  0  0  0  0
 39 84  2  0  0  0  0
 40 73  1  0  0  0  0
 40 78  1  0  0  0  0
 40 85  2  0  0  0  0
 41 45  1  0  0  0  0
 42 53  1  0  0  0  0
 43 72  1  0  0  0  0
 44 55  1  0  0  0  0
 45 47  1  0  0  0  0
 46 48  1  0  0  0  0
 46 49  1  0  0  0  0
 47 52  1  0  0  0  0
 48 54  1  0  0  0  0
 49 73  1  0  0  0  0
 50 54  1  0  0  0  0
 50 73  1  0  0  0  0
 51 55  1  0  0  0  0
 51 79  1  0  0  0  0
 52 76  1  0  0  0  0
 53 72  1  0  0  0  0
 54 71  1  0  0  0  0
 55 87  1  0  0  0  0
 59 66  1  0  0  0  0
 60 68  1  0  0  0  0
 61 69  1  0  0  0  0
 62 69  1  0  0  0  0
 63 69  1  0  0  0  0
 64 80  1  0  0  0  0
 65 79  1  0  0  0  0
 66 78  1  0  0  0  0
 67 69  1  0  0  0  0
 67 77  1  0  0  0  0
 68 80  1  0  0  0  0
 70 71  1  0  0  0  0
M  CHG  2  79   1  80   1
M  ISO  4  40 100  55 101  78 100  87 101
M  END
> <Batch ID>
0034

> <Smiles>
C=C1C[101CH:1]([101O:1]c2ccc3c(c2)CN(C(=O)C(NC(=O)C(C)NC)C(C)(C)C)C(C(=O)NC2CCCc4ccccc42)C3)CN1Cc1cc(C)c(C(C)[100NH:0][100C:0](=O)N2CCCC(n3nc(-c4ccc(Oc5ccc(F)cc5F)cc4)c(C(N)=O)c3N)C2)c(C)c1C

> <Shape>
0.223

> <Color>
0.056

> <Negative vol penalty>
0.000

$$$$

  -OEChem-04042321483D

 88 97  0     1  0  0  0  0  0999 V2000
  -24.0162  -15.1477   18.2266 C   0  0  0  0  0  0  0  0  0  0  0  0
  -23.5735  -16.1149   19.1233 C   0  0  0  0  0  0  0  0  0  0  0  0
  -29.8948  -17.8231   20.7802 C   0  0  0  0  0  0  0  0  0  0  0  0
  -27.6164  -18.6133   20.6341 C   0  0  0  0  0  0  0  0  0  0  0  0
  -24.8613  -15.5062   17.1773 C   0  0  0  0  0  0  0  0  0  0  0  0
  -23.9766  -17.4411   18.9717 C   0  0  0  0  0  0  0  0  0  0  0  0
  -20.6850  -22.4542   20.2128 C   0  0  0  0  0  0  0  0  0  0  0  0
  -29.4322  -16.5145   20.9183 C   0  0  0  0  0  0  0  0  0  0  0  0
  -27.1537  -17.3047   20.7722 C   0  0  0  0  0  0  0  0  0  0  0  0
  -20.6585  -23.3103   21.3128 C   0  0  0  0  0  0  0  0  0  0  0  0
  -28.2380  -14.0698   18.9109 C   0  0  0  0  0  0  0  0  0  0  0  0
  -28.8664  -13.0772   18.1589 C   0  0  0  0  0  0  0  0  0  0  0  0
  -22.1720  -24.8066   20.1772 C   0  0  0  0  0  0  0  0  0  0  0  0
  -25.8836  -29.5804   19.8950 C   0  0  0  0  0  0  0  0  0  0  0  0
  -23.5343  -29.9833   20.2889 C   0  0  0  0  0  0  0  0  0  0  0  0
  -29.4885  -11.9304   20.1923 C   0  0  0  0  0  0  0  0  0  0  0  0
  -28.9869  -18.8726   20.6381 C   0  0  0  0  0  0  0  0  0  0  0  0
  -30.2990  -20.7291   19.4808 C   0  0  0  0  0  0  0  0  0  0  0  0
  -25.2672  -16.8392   17.0070 C   0  0  0  0  0  0  0  0  0  0  0  0
  -21.4651  -22.7630   19.0892 C   0  0  0  0  0  0  0  0  0  0  0  0
  -24.8290  -17.8176   17.9198 C   0  0  0  0  0  0  0  0  0  0  0  0
  -22.2048  -23.9540   19.0632 C   0  0  0  0  0  0  0  0  0  0  0  0
  -24.6016  -29.8279   19.4044 C   0  0  0  0  0  0  0  0  0  0  0  0
  -26.0984  -29.4882   21.2702 C   0  0  0  0  0  0  0  0  0  0  0  0
  -23.7490  -29.8912   21.6641 C   0  0  0  0  0  0  0  0  0  0  0  0
  -25.0311  -29.6436   22.1547 C   0  0  0  0  0  0  0  0  0  0  0  0
  -28.0616  -16.2553   20.9143 C   0  0  0  0  0  0  0  0  0  0  0  0
  -21.4043  -24.4853   21.2964 C   0  0  0  0  0  0  0  0  0  0  0  0
  -28.2348  -13.9927   20.3036 C   0  0  0  0  0  0  0  0  0  0  0  0
  -29.4916  -12.0076   18.7996 C   0  0  0  0  0  0  0  0  0  0  0  0
  -28.8601  -12.9230   20.9443 C   0  0  0  0  0  0  0  0  0  0  0  0
  -29.4642  -20.2246   20.4959 C   0  0  0  0  0  0  0  0  0  0  0  0
  -30.4577  -22.0568   19.7950 C   0  0  0  0  0  0  0  0  0  0  0  0
  -30.8790  -20.0578   18.3545 C   0  0  0  0  0  0  0  0  0  0  0  0
  -23.9261  -21.3881   17.6205 C   0  0  0  0  0  0  0  0  0  0  0  0
  -23.4542  -23.7556   15.4538 C   0  0  0  0  0  0  0  0  0  0  0  0
  -22.2339  -26.8723   14.7876 C   0  0  0  0  0  0  0  0  0  0  0  0
  -28.0131  -26.8339   21.3485 C   0  0  0  0  0  0  0  0  0  0  0  0
  -26.2194  -17.1705   15.8854 C   0  0  0  0  0  0  0  0  0  0  0  0
  -21.4620  -21.8422   17.8998 C   0  0  0  0  0  0  0  0  0  0  0  0
  -23.0426  -24.3414   17.8730 C   0  0  0  0  0  0  0  0  0  0  0  0
  -26.2990  -18.6630   15.5748 C   0  0  0  0  0  0  0  0  0  0  0  0
  -28.1173  -23.8565   23.7782 C   0  0  0  0  0  0  0  0  0  0  0  0
  -19.1957  -28.3188   22.9200 C   0  0  0  0  0  0  0  0  0  0  0  0
  -26.4410  -19.4693   16.8619 C   0  0  0  0  0  0  0  0  0  0  0  0
  -29.4378  -23.3296   23.2243 C   0  0  0  0  0  0  0  0  0  0  0  0
  -19.6717  -26.8743   23.0004 C   0  0  0  0  0  0  0  0  0  0  0  0
  -27.8983  -25.3117   23.3759 C   0  0  0  0  0  0  0  0  0  0  0  0
  -28.4287  -24.3978   21.1162 C   0  0  0  0  0  0  0  0  0  0  0  0
  -20.3083  -29.2977   23.2670 C   0  0  0  0  0  0  0  0  0  0  0  0
  -22.0209  -27.6375   22.4920 C   0  0  0  0  0  0  0  0  0  0  0  0
  -25.2244  -19.2711   17.7741 C   0  0  1  0  0  0  0  0  0  0  0  0
  -22.6954  -22.0029   17.0165 C   0  0  1  0  0  0  0  0  0  0  0  0
  -29.5780  -23.5596   21.7037 C   0  0  2  0  0  0  0  0  0  0  0  0
  -20.9149  -26.6494   22.1455 C   0  0  1  0  0  0  0  0  0  1  0  0
  -24.3718  -29.9258   17.9342 C   0  0  0  0  0  0  0  0  0  0  0  0
  -25.2822  -30.9134   24.3021 C   0  0  0  0  0  0  0  0  0  0  0  0
  -22.0292  -28.5533   12.9357 C   0  0  0  0  0  0  0  0  0  0  0  0
  -26.4016  -24.4731   15.7826 C   0  0  0  0  0  0  0  0  0  0  0  0
  -25.9167  -26.6716   14.6873 C   0  0  0  0  0  0  0  0  0  0  0  0
  -25.5663  -24.5478   13.4265 C   0  0  0  0  0  0  0  0  0  0  0  0
  -19.2772  -26.8137   14.9046 C   0  0  0  0  0  0  0  0  0  0  0  0
  -25.2617  -29.5452   23.6291 C   0  0  0  0  0  0  0  0  0  0  0  0
  -27.4811  -29.2236   21.7699 C   0  0  0  0  0  0  0  0  0  0  0  0
  -22.5843  -30.0622   22.5943 C   0  0  0  0  0  0  0  0  0  0  0  0
  -23.9651  -25.1658   15.2829 C   0  0  1  0  0  0  0  0  0  0  0  0
  -21.3630  -27.3929   13.6585 C   0  0  2  0  0  0  0  0  0  0  0  0
  -25.4483  -25.2066   14.8182 C   0  0  0  0  0  0  0  0  0  0  0  0
  -29.1171  -21.1558   21.3883 N   0  0  0  0  0  0  0  0  0  0  0  0
  -29.7368  -22.2588   20.9350 N   0  0  0  0  0  0  0  0  0  0  0  0
  -23.0117  -23.4052   16.7372 N   0  0  0  0  0  0  0  0  0  0  0  0
  -28.1308  -25.5650   21.9482 N   0  0  0  0  0  0  0  0  0  0  0  0
  -31.1423  -23.0593   19.2047 N   0  0  0  0  0  0  0  0  0  0  0  0
  -30.6135  -18.6926   18.1810 N   0  0  0  0  0  0  0  0  0  0  0  0
  -24.1044  -20.0557   17.3004 N   0  0  0  0  0  0  0  0  0  0  0  0
  -23.0359  -25.8294   14.3748 N   0  0  0  0  0  0  0  0  0  0  0  0
  -27.6497  -27.8598   22.2173 N   0  0  0  0  0  0  0  0  0  0  0  0
  -21.4981  -29.0463   22.3714 N   0  3  2  0  0  0  0  0  0  0  0  0
  -20.0514  -27.8606   14.1894 N   0  3  0  0  0  0  0  0  0  0  0  0
  -31.6243  -20.6472   17.5356 O   0  0  0  0  0  0  0  0  0  0  0  0
  -24.6604  -22.0722   18.3237 O   0  0  0  0  0  0  0  0  0  0  0  0
  -23.4415  -22.9952   14.4826 O   0  0  0  0  0  0  0  0  0  0  0  0
  -22.2082  -27.3460   15.9214 O   0  0  0  0  0  0  0  0  0  0  0  0
  -28.2114  -27.0332   20.1463 O   0  0  0  0  0  0  0  0  0  0  0  0
  -27.6098  -14.9785   21.0488 O   0  0  0  0  0  0  0  0  0  0  0  0
  -21.3807  -25.3223   22.3690 O   0  0  0  0  0  0  0  0  0  1  0  0
  -30.0938  -11.0537   18.0772 F   0  0  0  0  0  0  0  0  0  0  0  0
  -28.8593  -12.8429   22.2820 F   0  0  0  0  0  0  0  0  0  0  0  0
  1  2  1  0  0  0  0
  1  5  2  0  0  0  0
  2  6  2  0  0  0  0
  3  8  2  0  0  0  0
  3 17  1  0  0  0  0
  4  9  1  0  0  0  0
  4 17  2  0  0  0  0
  5 19  1  0  0  0  0
  6 21  1  0  0  0  0
  7 10  2  0  0  0  0
  7 20  1  0  0  0  0
  8 27  1  0  0  0  0
  9 27  2  0  0  0  0
 10 28  1  0  0  0  0
 11 12  2  0  0  0  0
 11 29  1  0  0  0  0
 12 30  1  0  0  0  0
 13 22  1  0  0  0  0
 13 28  2  0  0  0  0
 14 23  1  0  0  0  0
 14 24  2  0  0  0  0
 15 23  2  0  0  0  0
 15 25  1  0  0  0  0
 16 30  2  0  0  0  0
 16 31  1  0  0  0  0
 17 32  1  0  0  0  0
 18 32  1  0  0  0  0
 18 33  2  0  0  0  0
 18 34  1  0  0  0  0
 19 21  2  0  0  0  0
 19 39  1  0  0  0  0
 20 22  2  0  0  0  0
 20 40  1  0  0  0  0
 21 52  1  0  0  0  0
 22 41  1  0  0  0  0
 23 56  1  0  0  0  0
 24 26  1  0  0  0  0
 24 64  1  0  0  0  0
 25 26  2  0  0  0  0
 25 65  1  0  0  0  0
 26 63  1  0  0  0  0
 27 85  1  0  0  0  0
 28 86  1  0  0  0  0
 29 31  2  0  0  0  0
 29 85  1  0  0  0  0
 30 87  1  0  0  0  0
 31 88  1  0  0  0  0
 32 69  2  0  0  0  0
 33 70  1  0  0  0  0
 33 73  1  0  0  0  0
 34 74  1  0  0  0  0
 34 80  2  0  0  0  0
 35 53  1  0  0  0  0
 35 75  1  0  0  0  0
 35 81  2  0  0  0  0
 36 66  1  0  0  0  0
 36 71  1  0  0  0  0
 36 82  2  0  0  0  0
 37 67  1  0  0  0  0
 37 76  1  0  0  0  0
 37 83  2  0  0  0  0
 38 72  1  0  0  0  0
 38 77  1  0  0  0  0
 38 84  2  0  0  0  0
 39 42  1  0  0  0  0
 40 53  1  0  0  0  0
 41 71  1  0  0  0  0
 42 45  1  0  0  0  0
 43 46  1  0  0  0  0
 43 48  1  0  0  0  0
 44 47  1  0  0  0  0
 44 50  1  0  0  0  0
 45 52  1  0  0  0  0
 46 54  1  0  0  0  0
 47 55  1  0  0  0  0
 48 72  1  0  0  0  0
 49 54  1  0  0  0  0
 49 72  1  0  0  0  0
 50 78  1  0  0  0  0
 51 55  1  0  0  0  0
 51 78  1  0  0  0  0
 52 75  1  0  0  0  0
 53 71  1  0  0  0  0
 54 70  1  0  0  0  0
 55 86  1  0  0  0  0
 57 63  1  0  0  0  0
 58 67  1  0  0  0  0
 59 68  1  0  0  0  0
 60 68  1  0  0  0  0
 61 68  1  0  0  0  0
 62 79  1  0  0  0  0
 64 77  1  0  0  0  0
 65 78  1  0  0  0  0
 66 68  1  0  0  0  0
 66 76  1  0  0  0  0
 67 79  1  0  0  0  0
 69 70  1  0  0  0  0
M  CHG  2  78   1  79   1
M  ISO  4  38 100  55 101  77 100  86 101
M  END
> <Batch ID>
0034

> <Smiles>
CCc1c(C[100NH:0][100C:0](=O)N2CCCC(n3nc(-c4ccc(Oc5ccc(F)cc5F)cc4)c(C(N)=O)c3N)C2)cc(C)cc1CN1CCC[101CH:1]([101O:1]c2ccc3c(c2)CN(C(=O)C(NC(=O)C(C)NC)C(C)(C)C)C(C(=O)NC2CCCc4ccccc42)C3)C1

> <Shape>
0.210

> <Color>
0.071

> <Negative vol penalty>
0.000

$$$$

  -OEChem-04042321483D

 86 95  0     1  0  0  0  0  0999 V2000
  -42.9109  -29.7207   17.6195 C   0  0  0  0  0  0  0  0  0  0  0  0
  -41.6616  -30.3021   17.8108 C   0  0  0  0  0  0  0  0  0  0  0  0
  -23.4403  -10.0048   22.2179 C   0  0  0  0  0  0  0  0  0  0  0  0
  -23.5381   -9.6532   19.8296 C   0  0  0  0  0  0  0  0  0  0  0  0
  -43.0672  -28.6992   16.6836 C   0  0  0  0  0  0  0  0  0  0  0  0
  -40.5680  -29.8630   17.0654 C   0  0  0  0  0  0  0  0  0  0  0  0
  -33.6505  -27.1380   19.4631 C   0  0  0  0  0  0  0  0  0  0  0  0
  -22.7039   -8.8289   22.3609 C   0  0  0  0  0  0  0  0  0  0  0  0
  -22.8017   -8.4773   19.9726 C   0  0  0  0  0  0  0  0  0  0  0  0
  -32.4509  -26.4931   19.7656 C   0  0  0  0  0  0  0  0  0  0  0  0
  -19.5059   -7.8248   21.9260 C   0  0  0  0  0  0  0  0  0  0  0  0
  -18.3871   -7.8589   22.7582 C   0  0  0  0  0  0  0  0  0  0  0  0
  -32.5149  -25.3516   17.6347 C   0  0  0  0  0  0  0  0  0  0  0  0
  -31.6558  -18.3557   20.5490 C   0  0  0  0  0  0  0  0  0  0  0  0
  -29.2423  -19.7302   20.8113 C   0  0  0  0  0  0  0  0  0  0  0  0
  -19.3679   -6.1424   24.1470 C   0  0  0  0  0  0  0  0  0  0  0  0
  -23.8574  -10.4170   20.9522 C   0  0  0  0  0  0  0  0  0  0  0  0
  -24.2190  -12.9335   21.1629 C   0  0  0  0  0  0  0  0  0  0  0  0
  -41.9729  -28.2407   15.9332 C   0  0  0  0  0  0  0  0  0  0  0  0
  -34.2955  -26.8800   18.2503 C   0  0  0  0  0  0  0  0  0  0  0  0
  -40.7101  -28.8353   16.1176 C   0  0  0  0  0  0  0  0  0  0  0  0
  -33.7231  -25.9850   17.3315 C   0  0  0  0  0  0  0  0  0  0  0  0
  -30.6827  -17.8935   21.4350 C   0  0  0  0  0  0  0  0  0  0  0  0
  -30.2155  -20.1924   19.9252 C   0  0  0  0  0  0  0  0  0  0  0  0
  -22.3846   -8.0651   21.2382 C   0  0  0  0  0  0  0  0  0  0  0  0
  -31.8845  -25.6024   18.8535 C   0  0  0  0  0  0  0  0  0  0  0  0
  -20.5557   -6.9495   22.2042 C   0  0  0  0  0  0  0  0  0  0  0  0
  -18.3181   -7.0177   23.8688 C   0  0  0  0  0  0  0  0  0  0  0  0
  -20.4867   -6.1083   23.3147 C   0  0  0  0  0  0  0  0  0  0  0  0
  -31.4222  -19.5052   19.7941 C   0  0  0  0  0  0  0  0  0  0  0  0
  -29.4760  -18.5807   21.5662 C   0  0  0  0  0  0  0  0  0  0  0  0
  -24.6177  -11.6320   20.8038 C   0  0  0  0  0  0  0  0  0  0  0  0
  -25.2875  -13.7262   20.8217 C   0  0  0  0  0  0  0  0  0  0  0  0
  -22.9926  -13.3854   21.7521 C   0  0  0  0  0  0  0  0  0  0  0  0
  -37.2391  -27.5715   16.0293 C   0  0  0  0  0  0  0  0  0  0  0  0
  -36.6670  -24.5636   15.8398 C   0  0  0  0  0  0  0  0  0  0  0  0
  -35.9728  -21.2471   16.2346 C   0  0  0  0  0  0  0  0  0  0  0  0
  -30.7806  -14.7049   20.7067 C   0  0  0  0  0  0  0  0  0  0  0  0
  -42.2006  -27.1664   14.8994 C   0  0  0  0  0  0  0  0  0  0  0  0
  -35.5575  -27.5983   17.8563 C   0  0  0  0  0  0  0  0  0  0  0  0
  -34.4345  -25.7646   16.0245 C   0  0  0  0  0  0  0  0  0  0  0  0
  -40.9134  -26.5023   14.4175 C   0  0  0  0  0  0  0  0  0  0  0  0
  -29.4264  -12.6837   18.1072 C   0  0  0  0  0  0  0  0  0  0  0  0
  -28.9581  -22.3476   17.1572 C   0  0  0  0  0  0  0  0  0  0  0  0
  -39.8568  -27.5550   14.0981 C   0  0  0  0  0  0  0  0  0  0  0  0
  -28.0249  -12.3324   18.6094 C   0  0  0  0  0  0  0  0  0  0  0  0
  -29.2815  -23.7316   17.6994 C   0  0  0  0  0  0  0  0  0  0  0  0
  -28.7909  -21.3289   18.2823 C   0  0  0  0  0  0  0  0  0  0  0  0
  -30.4396  -12.7314   19.2488 C   0  0  0  0  0  0  0  0  0  0  0  0
  -28.6642  -13.2596   20.8745 C   0  0  0  0  0  0  0  0  0  0  0  0
  -30.3489  -22.6547   19.7192 C   0  0  0  0  0  0  0  0  0  0  0  0
  -39.4945  -28.3694   15.3459 C   0  0  1  0  0  0  0  0  0  0  0  0
  -36.5196  -26.7215   17.0349 C   0  0  1  0  0  0  0  0  0  0  0  0
  -27.5966  -13.2544   19.7669 C   0  0  2  0  0  0  0  0  0  0  0  0
  -30.5122  -23.6796   18.5959 C   0  0  2  0  0  0  0  0  0  1  0  0
  -36.7017  -18.9757   15.4554 C   0  0  0  0  0  0  0  0  0  0  0  0
  -35.2446  -25.0234   13.1810 C   0  0  0  0  0  0  0  0  0  0  0  0
  -35.1668  -22.5399   12.8742 C   0  0  0  0  0  0  0  0  0  0  0  0
  -37.3658  -23.7091   13.0161 C   0  0  0  0  0  0  0  0  0  0  0  0
  -36.7007  -20.4114   18.9789 C   0  0  0  0  0  0  0  0  0  0  0  0
  -30.9715  -16.6583   22.2256 C   0  0  0  0  0  0  0  0  0  0  0  0
  -35.9605  -23.4544   15.1023 C   0  0  1  0  0  0  0  0  0  0  0  0
  -36.8717  -20.0557   16.5125 C   0  0  2  0  0  0  0  0  0  0  0  0
  -35.9231  -23.6938   13.5665 C   0  0  0  0  0  0  0  0  0  0  0  0
  -25.8436  -11.5956   20.2749 N   0  0  0  0  0  0  0  0  0  0  0  0
  -26.2245  -12.8842   20.2991 N   0  0  0  0  0  0  0  0  0  0  0  0
  -29.9528  -21.3498   19.1818 N   0  0  1  0  0  0  0  0  0  0  0  0
  -35.8829  -25.6470   16.2545 N   0  0  0  0  0  0  0  0  0  0  0  0
  -29.9743  -13.6243   20.3130 N   0  0  0  0  0  0  0  0  0  0  0  0
  -25.5075  -15.0545   20.9208 N   0  0  0  0  0  0  0  0  0  0  0  0
  -21.9415  -13.7590   20.9036 N   0  0  0  0  0  0  0  0  0  0  0  0
  -38.6092  -27.6120   16.2043 N   0  0  0  0  0  0  0  0  0  0  0  0
  -36.6216  -22.2155   15.4980 N   0  0  0  0  0  0  0  0  0  0  0  0
  -30.2622  -15.5053   21.7173 N   0  0  0  0  0  0  0  0  0  0  0  0
  -36.5526  -19.4653   17.8431 N   0  3  0  0  0  0  0  0  0  0  0  0
  -22.8392  -13.4715   22.9941 O   0  0  0  0  0  0  0  0  0  0  0  0
  -36.5995  -28.1475   15.1571 O   0  0  0  0  0  0  0  0  0  0  0  0
  -37.8819  -24.4772   16.0392 O   0  0  0  0  0  0  0  0  0  0  0  0
  -34.8103  -21.3105   16.6282 O   0  0  0  0  0  0  0  0  0  0  0  0
  -31.8786  -14.9423   20.1918 O   0  0  0  0  0  0  0  0  0  0  0  0
  -21.6662   -6.9175   21.3774 O   0  0  0  0  0  0  0  0  0  0  0  0
  -30.7156  -24.9729   19.1570 O   0  0  0  0  0  0  0  0  0  1  0  0
  -17.2443   -7.0516   24.6688 F   0  0  0  0  0  0  0  0  0  0  0  0
  -21.4927   -5.2662   23.5878 F   0  0  0  0  0  0  0  0  0  0  0  0
  -32.6539  -20.0435   18.7089 Cl  0  0  0  0  0  0  0  0  0  0  0  0
  -28.2485  -18.0378   22.6516 Cl  0  0  0  0  0  0  0  0  0  0  0  0
  1  2  1  0  0  0  0
  1  5  2  0  0  0  0
  2  6  2  0  0  0  0
  3  8  2  0  0  0  0
  3 17  1  0  0  0  0
  4  9  1  0  0  0  0
  4 17  2  0  0  0  0
  5 19  1  0  0  0  0
  6 21  1  0  0  0  0
  7 10  2  0  0  0  0
  7 20  1  0  0  0  0
  8 25  1  0  0  0  0
  9 25  2  0  0  0  0
 10 26  1  0  0  0  0
 11 12  2  0  0  0  0
 11 27  1  0  0  0  0
 12 28  1  0  0  0  0
 13 22  1  0  0  0  0
 13 26  2  0  0  0  0
 14 23  2  0  0  0  0
 14 30  1  0  0  0  0
 15 24  1  0  0  0  0
 15 31  2  0  0  0  0
 16 28  2  0  0  0  0
 16 29  1  0  0  0  0
 17 32  1  0  0  0  0
 18 32  1  0  0  0  0
 18 33  2  0  0  0  0
 18 34  1  0  0  0  0
 19 21  2  0  0  0  0
 19 39  1  0  0  0  0
 20 22  2  0  0  0  0
 20 40  1  0  0  0  0
 21 52  1  0  0  0  0
 22 41  1  0  0  0  0
 23 31  1  0  0  0  0
 23 61  1  0  0  0  0
 24 30  2  0  0  0  0
 24 67  1  0  0  0  0
 25 81  1  0  0  0  0
 26 82  1  0  0  0  0
 27 29  2  0  0  0  0
 27 81  1  0  0  0  0
 28 83  1  0  0  0  0
 29 84  1  0  0  0  0
 30 85  1  0  0  0  0
 31 86  1  0  0  0  0
 32 65  2  0  0  0  0
 33 66  1  0  0  0  0
 33 70  1  0  0  0  0
 34 71  1  0  0  0  0
 34 76  2  0  0  0  0
 35 53  1  0  0  0  0
 35 72  1  0  0  0  0
 35 77  2  0  0  0  0
 36 62  1  0  0  0  0
 36 68  1  0  0  0  0
 36 78  2  0  0  0  0
 37 63  1  0  0  0  0
 37 73  1  0  0  0  0
 37 79  2  0  0  0  0
 38 69  1  0  0  0  0
 38 74  1  0  0  0  0
 38 80  2  0  0  0  0
 39 42  1  0  0  0  0
 40 53  1  0  0  0  0
 41 68  1  0  0  0  0
 42 45  1  0  0  0  0
 43 46  1  0  0  0  0
 43 49  1  0  0  0  0
 44 47  1  0  0  0  0
 44 48  1  0  0  0  0
 45 52  1  0  0  0  0
 46 54  1  0  0  0  0
 47 55  1  0  0  0  0
 48 67  1  0  0  0  0
 49 69  1  0  0  0  0
 50 54  1  0  0  0  0
 50 69  1  0  0  0  0
 51 55  1  0  0  0  0
 51 67  1  0  0  0  0
 52 72  1  0  0  0  0
 53 68  1  0  0  0  0
 54 66  1  0  0  0  0
 55 82  1  0  0  0  0
 56 63  1  0  0  0  0
 57 64  1  0  0  0  0
 58 64  1  0  0  0  0
 59 64  1  0  0  0  0
 60 75  1  0  0  0  0
 61 74  1  0  0  0  0
 62 64  1  0  0  0  0
 62 73  1  0  0  0  0
 63 75  1  0  0  0  0
 65 66  1  0  0  0  0
M  CHG  1  75   1
M  ISO  4  38 100  55 101  74 100  82 101
M  END
> <Batch ID>
0034

> <Smiles>
CNC(C)C(=O)NC(C(=O)N1Cc2cc([101O:1][101CH:1]3CCCN(c4cc(Cl)c(C[100NH:0][100C:0](=O)N5CCCC(n6nc(-c7ccc(Oc8ccc(F)cc8F)cc7)c(C(N)=O)c6N)C5)cc4Cl)C3)ccc2CC1C(=O)NC1CCCc2ccccc21)C(C)(C)C

> <Shape>
0.211

> <Color>
0.174

> <Negative vol penalty>
0.000

$$$$

  -OEChem-04042321483D

 87 96  0     1  0  0  0  0  0999 V2000
  -24.6560  -21.8782   26.0486 C   0  0  0  0  0  0  0  0  0  0  0  0
  -25.5561  -22.1008   25.0115 C   0  0  0  0  0  0  0  0  0  0  0  0
  -23.9429   -9.3759   21.0248 C   0  0  0  0  0  0  0  0  0  0  0  0
  -25.4536   -9.8064   22.8605 C   0  0  0  0  0  0  0  0  0  0  0  0
  -23.3120  -22.2122   25.8875 C   0  0  0  0  0  0  0  0  0  0  0  0
  -25.1124  -22.6566   23.8120 C   0  0  0  0  0  0  0  0  0  0  0  0
  -28.1907  -26.2954   22.1010 C   0  0  0  0  0  0  0  0  0  0  0  0
  -23.6518   -8.1206   21.5588 C   0  0  0  0  0  0  0  0  0  0  0  0
  -25.1625   -8.5511   23.3945 C   0  0  0  0  0  0  0  0  0  0  0  0
  -29.3662  -25.8905   21.4701 C   0  0  0  0  0  0  0  0  0  0  0  0
  -21.7261   -6.8509   24.0311 C   0  0  0  0  0  0  0  0  0  0  0  0
  -20.3878   -6.4603   24.0766 C   0  0  0  0  0  0  0  0  0  0  0  0
  -28.3352  -26.2652   19.3217 C   0  0  0  0  0  0  0  0  0  0  0  0
  -28.9664  -19.4161   19.5445 C   0  0  0  0  0  0  0  0  0  0  0  0
  -26.8144  -20.7038   20.7666 C   0  0  0  0  0  0  0  0  0  0  0  0
  -20.8956   -4.5574   22.6773 C   0  0  0  0  0  0  0  0  0  0  0  0
  -24.8439  -10.2188   21.6757 C   0  0  0  0  0  0  0  0  0  0  0  0
  -24.2419  -12.5676   20.8829 C   0  0  0  0  0  0  0  0  0  0  0  0
  -22.8534  -22.7813   24.6889 C   0  0  0  0  0  0  0  0  0  0  0  0
  -27.0731  -26.6786   21.3456 C   0  0  0  0  0  0  0  0  0  0  0  0
  -23.7607  -22.9973   23.6342 C   0  0  0  0  0  0  0  0  0  0  0  0
  -27.1475  -26.6770   19.9454 C   0  0  0  0  0  0  0  0  0  0  0  0
  -28.6238  -20.7140   19.1655 C   0  0  0  0  0  0  0  0  0  0  0  0
  -27.1571  -19.4058   21.1455 C   0  0  0  0  0  0  0  0  0  0  0  0
  -28.2331  -18.7620   20.5344 C   0  0  0  0  0  0  0  0  0  0  0  0
  -24.2616   -7.7082   22.7436 C   0  0  0  0  0  0  0  0  0  0  0  0
  -29.4376  -25.8725   20.0803 C   0  0  0  0  0  0  0  0  0  0  0  0
  -22.6491   -6.0948   23.3086 C   0  0  0  0  0  0  0  0  0  0  0  0
  -19.9726   -5.3136   23.3997 C   0  0  0  0  0  0  0  0  0  0  0  0
  -22.2339   -4.9480   22.6318 C   0  0  0  0  0  0  0  0  0  0  0  0
  -27.5478  -21.3579   19.7766 C   0  0  0  0  0  0  0  0  0  0  0  0
  -25.1455  -11.5154   21.1243 C   0  0  0  0  0  0  0  0  0  0  0  0
  -25.0174  -13.5726   20.3585 C   0  0  0  0  0  0  0  0  0  0  0  0
  -31.6954  -22.0084   17.4762 C   0  0  0  0  0  0  0  0  0  0  0  0
  -32.6292  -21.0637   17.2882 C   0  0  0  0  0  0  0  0  0  0  0  0
  -22.8280  -12.6309   21.1124 C   0  0  0  0  0  0  0  0  0  0  0  0
  -24.1006  -25.5975   21.0311 C   0  0  0  0  0  0  0  0  0  0  0  0
  -23.7428  -28.2542   19.2045 C   0  0  0  0  0  0  0  0  0  0  0  0
  -25.6657  -30.0125   16.7088 C   0  0  0  0  0  0  0  0  0  0  0  0
  -29.6395  -16.6772   20.3859 C   0  0  0  0  0  0  0  0  0  0  0  0
  -21.3826  -23.0820   24.5442 C   0  0  0  0  0  0  0  0  0  0  0  0
  -25.8214  -27.1383   22.0413 C   0  0  0  0  0  0  0  0  0  0  0  0
  -25.9825  -27.0984   19.0888 C   0  0  0  0  0  0  0  0  0  0  0  0
  -31.5851  -23.2359   16.6132 C   0  0  0  0  0  0  0  0  0  0  0  0
  -21.0632  -24.0133   23.3777 C   0  0  0  0  0  0  0  0  0  0  0  0
  -31.5297  -24.4892   17.4785 C   0  0  0  0  0  0  0  0  0  0  0  0
  -29.8113  -13.5276   18.7343 C   0  0  0  0  0  0  0  0  0  0  0  0
  -21.8038  -23.5679   22.1207 C   0  0  0  0  0  0  0  0  0  0  0  0
  -28.5384  -12.8099   19.1890 C   0  0  0  0  0  0  0  0  0  0  0  0
  -30.4136  -14.3770   19.8522 C   0  0  0  0  0  0  0  0  0  0  0  0
  -28.2124  -14.6087   20.9340 C   0  0  0  0  0  0  0  0  0  0  0  0
  -30.7474  -23.0919   19.4279 C   0  0  0  0  0  0  0  0  0  0  0  0
  -23.3224  -23.6212   22.3270 C   0  0  1  0  0  0  0  0  0  0  0  0
  -24.5746  -27.0165   21.1706 C   0  0  1  0  0  0  0  0  0  0  0  0
  -27.5335  -13.7919   19.8225 C   0  0  2  0  0  0  0  0  0  0  0  0
  -30.4974  -24.3478   18.5970 C   0  0  1  0  0  0  0  0  0  1  0  0
  -26.3537  -18.7292   22.2085 C   0  0  0  0  0  0  0  0  0  0  0  0
  -25.6581  -32.4340   16.0504 C   0  0  0  0  0  0  0  0  0  0  0  0
  -21.7413  -27.3706   17.0777 C   0  0  0  0  0  0  0  0  0  0  0  0
  -22.8265  -28.9735   15.4900 C   0  0  0  0  0  0  0  0  0  0  0  0
  -21.7319  -29.8237   17.5640 C   0  0  0  0  0  0  0  0  0  0  0  0
  -28.5784  -30.2663   17.1679 C   0  0  0  0  0  0  0  0  0  0  0  0
  -29.4371  -21.3829   18.0968 C   0  0  0  0  0  0  0  0  0  0  0  0
  -23.9248  -28.5780   17.7412 C   0  0  1  0  0  0  0  0  0  0  0  0
  -26.3513  -31.3572   16.8707 C   0  0  2  0  0  0  0  0  0  0  0  0
  -22.5714  -28.6661   16.9810 C   0  0  0  0  0  0  0  0  0  0  0  0
  -26.3990  -11.8233   20.7811 N   0  0  0  0  0  0  0  0  0  0  0  0
  -26.2887  -13.0803   20.3188 N   0  0  0  0  0  0  0  0  0  0  0  0
  -24.7786  -27.5337   19.8159 N   0  0  0  0  0  0  0  0  0  0  0  0
  -29.4051  -15.2859   20.4014 N   0  0  0  0  0  0  0  0  0  0  0  0
  -24.7290  -14.8205   19.9319 N   0  0  0  0  0  0  0  0  0  0  0  0
  -22.3728  -13.0955   22.3539 N   0  0  0  0  0  0  0  0  0  0  0  0
  -28.5963  -17.4434   20.9049 N   0  0  0  0  0  0  0  0  0  0  0  0
  -23.7977  -24.9849   22.2321 N   0  0  0  0  0  0  0  0  0  0  0  0
  -24.7199  -29.8001   17.6894 N   0  0  0  0  0  0  0  0  0  0  0  0
  -30.7840  -21.8424   18.5823 N   0  3  1  0  0  0  0  0  0  0  0  0
  -27.7718  -31.2710   16.4284 N   0  3  0  0  0  0  0  0  0  0  0  0
  -21.9934  -12.2702   20.2482 O   0  0  0  0  0  0  0  0  0  0  0  0
  -24.0144  -25.0961   19.9162 O   0  0  0  0  0  0  0  0  0  0  0  0
  -22.7226  -28.6329   19.7853 O   0  0  0  0  0  0  0  0  0  0  0  0
  -25.9391  -29.2305   15.8010 O   0  0  0  0  0  0  0  0  0  0  0  0
  -30.6768  -17.1554   19.9199 O   0  0  0  0  0  0  0  0  0  0  0  0
  -23.9776   -6.4835   23.2650 O   0  0  0  0  0  0  0  0  0  0  0  0
  -30.5836  -25.4770   19.4620 O   0  0  0  0  0  0  0  0  0  1  0  0
  -18.6877   -4.9377   23.4448 F   0  0  0  0  0  0  0  0  0  0  0  0
  -23.1163   -4.2169   21.9370 F   0  0  0  0  0  0  0  0  0  0  0  0
  -27.0945  -22.9633   19.3331 Cl  0  0  0  0  0  0  0  0  0  0  0  0
  1  2  1  0  0  0  0
  1  5  2  0  0  0  0
  2  6  2  0  0  0  0
  3  8  2  0  0  0  0
  3 17  1  0  0  0  0
  4  9  1  0  0  0  0
  4 17  2  0  0  0  0
  5 19  1  0  0  0  0
  6 21  1  0  0  0  0
  7 10  2  0  0  0  0
  7 20  1  0  0  0  0
  8 26  1  0  0  0  0
  9 26  2  0  0  0  0
 10 27  1  0  0  0  0
 11 12  2  0  0  0  0
 11 28  1  0  0  0  0
 12 29  1  0  0  0  0
 13 22  1  0  0  0  0
 13 27  2  0  0  0  0
 14 23  1  0  0  0  0
 14 25  2  0  0  0  0
 15 24  2  0  0  0  0
 15 31  1  0  0  0  0
 16 29  2  0  0  0  0
 16 30  1  0  0  0  0
 17 32  1  0  0  0  0
 18 32  1  0  0  0  0
 18 33  2  0  0  0  0
 18 36  1  0  0  0  0
 19 21  2  0  0  0  0
 19 41  1  0  0  0  0
 20 22  2  0  0  0  0
 20 42  1  0  0  0  0
 21 53  1  0  0  0  0
 22 43  1  0  0  0  0
 23 31  2  0  0  0  0
 23 63  1  0  0  0  0
 24 25  1  0  0  0  0
 24 57  1  0  0  0  0
 25 73  1  0  0  0  0
 26 83  1  0  0  0  0
 27 84  1  0  0  0  0
 28 30  2  0  0  0  0
 28 83  1  0  0  0  0
 29 85  1  0  0  0  0
 30 86  1  0  0  0  0
 31 87  1  0  0  0  0
 32 67  2  0  0  0  0
 33 68  1  0  0  0  0
 33 71  1  0  0  0  0
 34 35  2  0  0  0  0
 34 44  1  0  0  0  0
 34 76  1  0  0  0  0
 36 72  1  0  0  0  0
 36 78  2  0  0  0  0
 37 54  1  0  0  0  0
 37 74  1  0  0  0  0
 37 79  2  0  0  0  0
 38 64  1  0  0  0  0
 38 69  1  0  0  0  0
 38 80  2  0  0  0  0
 39 65  1  0  0  0  0
 39 75  1  0  0  0  0
 39 81  2  0  0  0  0
 40 70  1  0  0  0  0
 40 73  1  0  0  0  0
 40 82  2  0  0  0  0
 41 45  1  0  0  0  0
 42 54  1  0  0  0  0
 43 69  1  0  0  0  0
 44 46  1  0  0  0  0
 45 48  1  0  0  0  0
 46 56  1  0  0  0  0
 47 49  1  0  0  0  0
 47 50  1  0  0  0  0
 48 53  1  0  0  0  0
 49 55  1  0  0  0  0
 50 70  1  0  0  0  0
 51 55  1  0  0  0  0
 51 70  1  0  0  0  0
 52 56  1  0  0  0  0
 52 76  1  0  0  0  0
 53 74  1  0  0  0  0
 54 69  1  0  0  0  0
 55 68  1  0  0  0  0
 56 84  1  0  0  0  0
 58 65  1  0  0  0  0
 59 66  1  0  0  0  0
 60 66  1  0  0  0  0
 61 66  1  0  0  0  0
 62 77  1  0  0  0  0
 63 76  1  0  0  0  0
 64 66  1  0  0  0  0
 64 75  1  0  0  0  0
 65 77  1  0  0  0  0
 67 68  1  0  0  0  0
M  CHG  2  76   1  77   1
M  ISO  4  40 100  56 101  73 100  84 101
M  END
> <Batch ID>
0034

> <Smiles>
C=C1CC[101CH:1]([101O:1]c2ccc3c(c2)CN(C(=O)C(NC(=O)C(C)NC)C(C)(C)C)C(C(=O)NC2CCCc4ccccc42)C3)CN1Cc1cc([100NH:0][100C:0](=O)N2CCCC(n3nc(-c4ccc(Oc5ccc(F)cc5F)cc4)c(C(N)=O)c3N)C2)c(C)cc1Cl

> <Shape>
0.248

> <Color>
0.117

> <Negative vol penalty>
0.000

$$$$

  -OEChem-04042321483D

 89 98  0     1  0  0  0  0  0999 V2000
  -29.7256  -22.5305   15.9317 C   0  0  0  0  0  0  0  0  0  0  0  0
  -28.4869  -23.1455   15.7814 C   0  0  0  0  0  0  0  0  0  0  0  0
  -24.7012  -12.3906   19.7416 C   0  0  0  0  0  0  0  0  0  0  0  0
  -25.4800  -13.1774   21.8891 C   0  0  0  0  0  0  0  0  0  0  0  0
  -30.3099  -22.4417   17.1945 C   0  0  0  0  0  0  0  0  0  0  0  0
  -27.8311  -23.6712   16.8941 C   0  0  0  0  0  0  0  0  0  0  0  0
  -23.4656  -29.0259   18.7879 C   0  0  0  0  0  0  0  0  0  0  0  0
  -25.4268  -11.2114   19.9106 C   0  0  0  0  0  0  0  0  0  0  0  0
  -26.2055  -11.9982   22.0580 C   0  0  0  0  0  0  0  0  0  0  0  0
  -22.2584  -29.2488   19.4486 C   0  0  0  0  0  0  0  0  0  0  0  0
  -25.5835   -8.7996   22.9541 C   0  0  0  0  0  0  0  0  0  0  0  0
  -25.5096   -8.1672   24.1951 C   0  0  0  0  0  0  0  0  0  0  0  0
  -23.3998  -29.1080   21.5691 C   0  0  0  0  0  0  0  0  0  0  0  0
  -22.1038  -24.5097   22.9355 C   0  0  0  0  0  0  0  0  0  0  0  0
  -27.8990   -8.4077   24.4600 C   0  0  0  0  0  0  0  0  0  0  0  0
  -24.7278  -13.3737   20.7309 C   0  0  0  0  0  0  0  0  0  0  0  0
  -22.6494  -14.8366   20.9496 C   0  0  0  0  0  0  0  0  0  0  0  0
  -29.6654  -22.9751   18.3218 C   0  0  0  0  0  0  0  0  0  0  0  0
  -24.6492  -28.8311   19.5143 C   0  0  0  0  0  0  0  0  0  0  0  0
  -28.4067  -23.5883   18.1733 C   0  0  0  0  0  0  0  0  0  0  0  0
  -24.6212  -28.8853   20.9152 C   0  0  0  0  0  0  0  0  0  0  0  0
  -20.7117  -24.4429   22.8789 C   0  0  0  0  0  0  0  0  0  0  0  0
  -20.0900  -23.3551   22.2658 C   0  0  0  0  0  0  0  0  0  0  0  0
  -20.8605  -22.3341   21.7092 C   0  0  0  0  0  0  0  0  0  0  0  0
  -22.2526  -22.4010   21.7658 C   0  0  0  0  0  0  0  0  0  0  0  0
  -26.1789  -11.0151   21.0687 C   0  0  0  0  0  0  0  0  0  0  0  0
  -22.2248  -29.2871   20.8395 C   0  0  0  0  0  0  0  0  0  0  0  0
  -26.8152   -9.2360   22.4660 C   0  0  0  0  0  0  0  0  0  0  0  0
  -26.6673   -7.9712   24.9481 C   0  0  0  0  0  0  0  0  0  0  0  0
  -27.9729   -9.0401   23.2189 C   0  0  0  0  0  0  0  0  0  0  0  0
  -22.8743  -23.4888   22.3788 C   0  0  0  0  0  0  0  0  0  0  0  0
  -23.9790  -14.5923   20.5567 C   0  0  0  0  0  0  0  0  0  0  0  0
  -22.4096  -16.1324   20.5627 C   0  0  0  0  0  0  0  0  0  0  0  0
  -18.5761  -27.5437   23.0799 C   0  0  0  0  0  0  0  0  0  0  0  0
  -21.7147  -13.9696   21.6057 C   0  0  0  0  0  0  0  0  0  0  0  0
  -17.3653  -27.3262   23.6053 C   0  0  0  0  0  0  0  0  0  0  0  0
  -26.7365  -26.4516   19.8057 C   0  0  0  0  0  0  0  0  0  0  0  0
  -28.3828  -28.6290   21.5582 C   0  0  0  0  0  0  0  0  0  0  0  0
  -28.3191  -31.4585   23.4652 C   0  0  0  0  0  0  0  0  0  0  0  0
  -23.9624  -21.4651   20.1698 C   0  0  0  0  0  0  0  0  0  0  0  0
  -30.3145  -22.8132   19.6735 C   0  0  0  0  0  0  0  0  0  0  0  0
  -25.9479  -28.6183   18.7860 C   0  0  0  0  0  0  0  0  0  0  0  0
  -25.8675  -28.7025   21.7409 C   0  0  0  0  0  0  0  0  0  0  0  0
  -19.2570  -28.8717   22.9764 C   0  0  0  0  0  0  0  0  0  0  0  0
  -29.7265  -23.7278   20.7450 C   0  0  0  0  0  0  0  0  0  0  0  0
  -25.1151  -19.2494   17.6323 C   0  0  0  0  0  0  0  0  0  0  0  0
  -28.2022  -23.6893   20.7019 C   0  0  0  0  0  0  0  0  0  0  0  0
  -24.8129  -17.8604   18.1992 C   0  0  0  0  0  0  0  0  0  0  0  0
  -25.5564  -20.2235   18.7232 C   0  0  0  0  0  0  0  0  0  0  0  0
  -24.3435  -18.9356   20.4377 C   0  0  0  0  0  0  0  0  0  0  0  0
  -20.3373  -27.1953   21.6210 C   0  0  0  0  0  0  0  0  0  0  0  0
  -27.6756  -24.1925   19.3525 C   0  0  1  0  0  0  0  0  0  0  0  0
  -27.0036  -27.9208   19.6383 C   0  0  1  0  0  0  0  0  0  0  0  0
  -23.8326  -17.9371   19.3861 C   0  0  2  0  0  0  0  0  0  0  0  0
  -20.6035  -28.4921   22.3733 C   0  0  1  0  0  0  0  0  0  1  0  0
  -18.5966  -23.2868   22.2061 C   0  0  0  0  0  0  0  0  0  0  0  0
  -20.1867  -21.1693   21.0527 C   0  0  0  0  0  0  0  0  0  0  0  0
  -16.7592  -25.9538   23.6672 C   0  0  0  0  0  0  0  0  0  0  0  0
  -16.5301  -28.4399   24.1682 C   0  0  0  0  0  0  0  0  0  0  0  0
  -29.8159  -32.9740   24.7918 C   0  0  0  0  0  0  0  0  0  0  0  0
  -28.4844  -26.5620   23.8002 C   0  0  0  0  0  0  0  0  0  0  0  0
  -29.1147  -28.4035   25.3750 C   0  0  0  0  0  0  0  0  0  0  0  0
  -30.6089  -27.8367   23.4595 C   0  0  0  0  0  0  0  0  0  0  0  0
  -27.6795  -33.7836   21.7494 C   0  0  0  0  0  0  0  0  0  0  0  0
  -19.9068  -25.5540   23.4859 C   0  0  0  0  0  0  0  0  0  0  0  0
  -28.4196  -29.0209   23.0156 C   0  0  1  0  0  0  0  0  0  0  0  0
  -29.1759  -32.7114   23.4376 C   0  0  2  0  0  0  0  0  0  0  0  0
  -29.1329  -27.9573   23.8974 C   0  0  0  0  0  0  0  0  0  0  0  0
  -24.5442  -15.6482   19.9654 N   0  0  0  0  0  0  0  0  0  0  0  0
  -23.5650  -16.5685   19.9838 N   0  0  0  0  0  0  0  0  0  0  0  0
  -27.1117  -28.4909   20.9827 N   0  0  0  0  0  0  0  0  0  0  0  0
  -24.5775  -20.2467   19.8123 N   0  0  0  0  0  0  0  0  0  0  0  0
  -21.3253  -16.9300   20.6645 N   0  0  0  0  0  0  0  0  0  0  0  0
  -22.1248  -12.6698   21.9324 N   0  0  0  0  0  0  0  0  0  0  0  0
  -23.0252  -21.3583   21.1968 N   0  0  0  0  0  0  0  0  0  0  0  0
  -27.7299  -25.6376   19.2958 N   0  0  0  0  0  0  0  0  0  0  0  0
  -29.0288  -30.3455   23.0669 N   0  0  0  0  0  0  0  0  0  0  0  0
  -19.3053  -26.4728   22.4611 N   0  3  1  0  0  0  0  0  0  0  0  0
  -28.3496  -33.8960   23.0705 N   0  3  0  0  0  0  0  0  0  0  0  0
  -20.5451  -14.3313   21.8789 O   0  0  0  0  0  0  0  0  0  0  0  0
  -25.7062  -26.0839   20.3579 O   0  0  0  0  0  0  0  0  0  0  0  0
  -29.4428  -28.4589   20.9507 O   0  0  0  0  0  0  0  0  0  0  0  0
  -27.1393  -31.4659   23.8095 O   0  0  0  0  0  0  0  0  0  0  0  0
  -24.2264  -22.5205   19.5881 O   0  0  0  0  0  0  0  0  0  0  0  0
  -26.8868   -9.8644   21.2340 O   0  0  0  0  0  0  0  0  0  0  0  0
  -21.0477  -29.5039   21.4869 O   0  0  0  0  0  0  0  0  0  1  0  0
  -26.5960   -7.3653   26.1405 F   0  0  0  0  0  0  0  0  0  0  0  0
  -29.1588   -9.4582   22.7557 F   0  0  0  0  0  0  0  0  0  0  0  0
  -24.5955  -23.6146   22.4727 Cl  0  0  0  0  0  0  0  0  0  0  0  0
  1  2  1  0  0  0  0
  1  5  2  0  0  0  0
  2  6  2  0  0  0  0
  3  8  2  0  0  0  0
  3 16  1  0  0  0  0
  4  9  1  0  0  0  0
  4 16  2  0  0  0  0
  5 18  1  0  0  0  0
  6 20  1  0  0  0  0
  7 10  2  0  0  0  0
  7 19  1  0  0  0  0
  8 26  1  0  0  0  0
  9 26  2  0  0  0  0
 10 27  1  0  0  0  0
 11 12  2  0  0  0  0
 11 28  1  0  0  0  0
 12 29  1  0  0  0  0
 13 21  1  0  0  0  0
 13 27  2  0  0  0  0
 14 22  1  0  0  0  0
 14 31  2  0  0  0  0
 15 29  2  0  0  0  0
 15 30  1  0  0  0  0
 16 32  1  0  0  0  0
 17 32  1  0  0  0  0
 17 33  2  0  0  0  0
 17 35  1  0  0  0  0
 18 20  2  0  0  0  0
 18 41  1  0  0  0  0
 19 21  2  0  0  0  0
 19 42  1  0  0  0  0
 20 52  1  0  0  0  0
 21 43  1  0  0  0  0
 22 23  2  0  0  0  0
 22 65  1  0  0  0  0
 23 24  1  0  0  0  0
 23 56  1  0  0  0  0
 24 25  2  0  0  0  0
 24 57  1  0  0  0  0
 25 31  1  0  0  0  0
 25 75  1  0  0  0  0
 26 85  1  0  0  0  0
 27 86  1  0  0  0  0
 28 30  2  0  0  0  0
 28 85  1  0  0  0  0
 29 87  1  0  0  0  0
 30 88  1  0  0  0  0
 31 89  1  0  0  0  0
 32 69  2  0  0  0  0
 33 70  1  0  0  0  0
 33 73  1  0  0  0  0
 34 36  2  0  0  0  0
 34 44  1  0  0  0  0
 34 78  1  0  0  0  0
 35 74  1  0  0  0  0
 35 80  2  0  0  0  0
 36 58  1  0  0  0  0
 36 59  1  0  0  0  0
 37 53  1  0  0  0  0
 37 76  1  0  0  0  0
 37 81  2  0  0  0  0
 38 66  1  0  0  0  0
 38 71  1  0  0  0  0
 38 82  2  0  0  0  0
 39 67  1  0  0  0  0
 39 77  1  0  0  0  0
 39 83  2  0  0  0  0
 40 72  1  0  0  0  0
 40 75  1  0  0  0  0
 40 84  2  0  0  0  0
 41 45  1  0  0  0  0
 42 53  1  0  0  0  0
 43 71  1  0  0  0  0
 44 55  1  0  0  0  0
 45 47  1  0  0  0  0
 46 48  1  0  0  0  0
 46 49  1  0  0  0  0
 47 52  1  0  0  0  0
 48 54  1  0  0  0  0
 49 72  1  0  0  0  0
 50 54  1  0  0  0  0
 50 72  1  0  0  0  0
 51 55  1  0  0  0  0
 51 78  1  0  0  0  0
 52 76  1  0  0  0  0
 53 71  1  0  0  0  0
 54 70  1  0  0  0  0
 55 86  1  0  0  0  0
 60 67  1  0  0  0  0
 61 68  1  0  0  0  0
 62 68  1  0  0  0  0
 63 68  1  0  0  0  0
 64 79  1  0  0  0  0
 65 78  1  0  0  0  0
 66 68  1  0  0  0  0
 66 77  1  0  0  0  0
 67 79  1  0  0  0  0
 69 70  1  0  0  0  0
M  CHG  2  78   1  79   1
M  ISO  4  40 100  55 101  75 100  86 101
M  END
> <Batch ID>
0034

> <Smiles>
CNC(C)C(=O)NC(C(=O)N1Cc2cc([101O:1][101CH:1]3CC(=C(C)C)N(Cc4cc(Cl)c([100NH:0][100C:0](=O)N5CCCC(n6nc(-c7ccc(Oc8ccc(F)cc8F)cc7)c(C(N)=O)c6N)C5)c(C)c4C)C3)ccc2CC1C(=O)NC1CCCc2ccccc21)C(C)(C)C

> <Shape>
0.209

> <Color>
0.072

> <Negative vol penalty>
0.000

$$$$

  -OEChem-04042321483D

 89 98  0     1  0  0  0  0  0999 V2000
  -33.8015  -15.7179   27.2310 C   0  0  0  0  0  0  0  0  0  0  0  0
  -33.7552  -16.2547   25.9484 C   0  0  0  0  0  0  0  0  0  0  0  0
  -22.6684  -10.1978   20.1639 C   0  0  0  0  0  0  0  0  0  0  0  0
  -24.3222   -9.4099   21.7390 C   0  0  0  0  0  0  0  0  0  0  0  0
  -33.8587  -16.5639   28.3378 C   0  0  0  0  0  0  0  0  0  0  0  0
  -33.7649  -17.6378   25.7718 C   0  0  0  0  0  0  0  0  0  0  0  0
  -36.9245  -19.1049   22.0962 C   0  0  0  0  0  0  0  0  0  0  0  0
  -21.9330   -9.0273   20.3504 C   0  0  0  0  0  0  0  0  0  0  0  0
  -23.5868   -8.2394   21.9256 C   0  0  0  0  0  0  0  0  0  0  0  0
  -36.4885  -18.9473   20.7813 C   0  0  0  0  0  0  0  0  0  0  0  0
  -20.8407   -7.2718   23.6412 C   0  0  0  0  0  0  0  0  0  0  0  0
  -20.6572   -6.8251   24.9497 C   0  0  0  0  0  0  0  0  0  0  0  0
  -35.9013  -21.2857   20.7023 C   0  0  0  0  0  0  0  0  0  0  0  0
  -30.3157  -19.0332   22.9865 C   0  0  0  0  0  0  0  0  0  0  0  0
  -21.7780   -4.7564   24.4007 C   0  0  0  0  0  0  0  0  0  0  0  0
  -23.8630  -10.3891   20.8581 C   0  0  0  0  0  0  0  0  0  0  0  0
  -24.1990  -12.9173   20.9110 C   0  0  0  0  0  0  0  0  0  0  0  0
  -33.8789  -17.9580   28.1743 C   0  0  0  0  0  0  0  0  0  0  0  0
  -36.8419  -20.3537   22.7287 C   0  0  0  0  0  0  0  0  0  0  0  0
  -33.8211  -18.5033   26.8775 C   0  0  0  0  0  0  0  0  0  0  0  0
  -36.3393  -21.4570   22.0244 C   0  0  0  0  0  0  0  0  0  0  0  0
  -30.6323  -19.7691   21.8447 C   0  0  0  0  0  0  0  0  0  0  0  0
  -30.1456  -17.6514   22.9008 C   0  0  0  0  0  0  0  0  0  0  0  0
  -30.7789  -19.1232   20.6171 C   0  0  0  0  0  0  0  0  0  0  0  0
  -30.2922  -17.0055   21.6732 C   0  0  0  0  0  0  0  0  0  0  0  0
  -22.3922   -8.0481   21.2313 C   0  0  0  0  0  0  0  0  0  0  0  0
  -35.9741  -20.0372   20.0851 C   0  0  0  0  0  0  0  0  0  0  0  0
  -21.4927   -6.4607   22.7123 C   0  0  0  0  0  0  0  0  0  0  0  0
  -21.1259   -5.5675   25.3295 C   0  0  0  0  0  0  0  0  0  0  0  0
  -21.9614   -5.2031   23.0921 C   0  0  0  0  0  0  0  0  0  0  0  0
  -30.6088  -17.7414   20.5314 C   0  0  0  0  0  0  0  0  0  0  0  0
  -24.6234  -11.5977   20.6654 C   0  0  0  0  0  0  0  0  0  0  0  0
  -25.2797  -13.6943   20.5722 C   0  0  0  0  0  0  0  0  0  0  0  0
  -31.7888  -19.6617   17.0599 C   0  0  0  0  0  0  0  0  0  0  0  0
  -30.9839  -19.0396   16.1853 C   0  0  0  0  0  0  0  0  0  0  0  0
  -22.9403  -13.3978   21.4015 C   0  0  0  0  0  0  0  0  0  0  0  0
  -35.3098  -21.4814   25.2752 C   0  0  0  0  0  0  0  0  0  0  0  0
  -37.0351  -24.1550   24.6445 C   0  0  0  0  0  0  0  0  0  0  0  0
  -38.0138  -26.0287   21.7207 C   0  0  0  0  0  0  0  0  0  0  0  0
  -30.7477  -14.7408   20.6682 C   0  0  0  0  0  0  0  0  0  0  0  0
  -33.8935  -18.8329   29.4028 C   0  0  0  0  0  0  0  0  0  0  0  0
  -37.3412  -20.5131   24.1386 C   0  0  0  0  0  0  0  0  0  0  0  0
  -36.2481  -22.8235   22.6513 C   0  0  0  0  0  0  0  0  0  0  0  0
  -32.5869  -20.8885   16.7109 C   0  0  0  0  0  0  0  0  0  0  0  0
  -34.2784  -20.2816   29.1143 C   0  0  0  0  0  0  0  0  0  0  0  0
  -34.0481  -20.6989   17.0998 C   0  0  0  0  0  0  0  0  0  0  0  0
  -29.5691  -12.5006   18.1642 C   0  0  0  0  0  0  0  0  0  0  0  0
  -33.5145  -20.8057   27.9024 C   0  0  0  0  0  0  0  0  0  0  0  0
  -28.1424  -12.1746   18.6119 C   0  0  0  0  0  0  0  0  0  0  0  0
  -30.5176  -12.6449   19.3531 C   0  0  0  0  0  0  0  0  0  0  0  0
  -28.6497  -13.2623   20.8360 C   0  0  0  0  0  0  0  0  0  0  0  0
  -33.3641  -18.9128   18.7450 C   0  0  0  0  0  0  0  0  0  0  0  0
  -33.8549  -19.9981   26.6441 C   0  0  1  0  0  0  0  0  0  0  0  0
  -36.7335  -21.7149   24.8553 C   0  0  1  0  0  0  0  0  0  0  0  0
  -27.6442  -13.1715   19.6766 C   0  0  2  0  0  0  0  0  0  0  0  0
  -34.1801  -20.1854   18.5335 C   0  0  1  0  0  0  0  0  0  1  0  0
  -30.8096  -21.2475   21.9613 C   0  0  0  0  0  0  0  0  0  0  0  0
  -29.8068  -16.8885   24.1403 C   0  0  0  0  0  0  0  0  0  0  0  0
  -30.1856  -17.8247   16.5100 C   0  0  0  0  0  0  0  0  0  0  0  0
  -39.9995  -27.5102   21.3215 C   0  0  0  0  0  0  0  0  0  0  0  0
  -35.1603  -26.4078   25.4932 C   0  0  0  0  0  0  0  0  0  0  0  0
  -36.2088  -27.8488   23.7346 C   0  0  0  0  0  0  0  0  0  0  0  0
  -37.5933  -26.9733   25.6159 C   0  0  0  0  0  0  0  0  0  0  0  0
  -38.8291  -24.4872   19.3295 C   0  0  0  0  0  0  0  0  0  0  0  0
  -31.1192  -19.8972   19.3777 C   0  0  0  0  0  0  0  0  0  0  0  0
  -36.8240  -25.3895   23.8016 C   0  0  1  0  0  0  0  0  0  0  0  0
  -39.4074  -26.1231   21.1263 C   0  0  2  0  0  0  0  0  0  0  0  0
  -36.4347  -26.6299   24.6544 C   0  0  0  0  0  0  0  0  0  0  0  0
  -25.8760  -11.5360   20.2060 N   0  0  0  0  0  0  0  0  0  0  0  0
  -26.2480  -12.8266   20.1600 N   0  0  0  0  0  0  0  0  0  0  0  0
  -36.7431  -22.9271   24.0339 N   0  0  0  0  0  0  0  0  0  0  0  0
  -29.9826  -13.6082   20.3179 N   0  0  0  0  0  0  0  0  0  0  0  0
  -25.4867  -15.0281   20.5895 N   0  0  0  0  0  0  0  0  0  0  0  0
  -22.7737  -13.5418   22.7857 N   0  0  0  0  0  0  0  0  0  0  0  0
  -30.1228  -15.6025   21.5690 N   0  0  0  0  0  0  0  0  0  0  0  0
  -35.1422  -20.3998   26.1187 N   0  0  0  0  0  0  0  0  0  0  0  0
  -38.0423  -25.5618   23.0178 N   0  0  0  0  0  0  0  0  0  0  0  0
  -31.9108  -19.0960   18.3815 N   0  3  1  0  0  0  0  0  0  0  0  0
  -39.3684  -25.8301   19.6656 N   0  3  0  0  0  0  0  0  0  0  0  0
  -21.9860  -13.6752   20.6361 O   0  0  0  0  0  0  0  0  0  0  0  0
  -34.4289  -22.2282   24.8655 O   0  0  0  0  0  0  0  0  0  0  0  0
  -37.4508  -24.2753   25.7997 O   0  0  0  0  0  0  0  0  0  0  0  0
  -37.0014  -26.3417   21.0981 O   0  0  0  0  0  0  0  0  0  0  0  0
  -31.8630  -14.9461   20.1824 O   0  0  0  0  0  0  0  0  0  0  0  0
  -21.6748   -6.9060   21.4137 O   0  0  0  0  0  0  0  0  0  0  0  0
  -35.5473  -19.8860   18.8018 O   0  0  0  0  0  0  0  0  0  1  0  0
  -20.9511   -5.1393   26.5866 F   0  0  0  0  0  0  0  0  0  0  0  0
  -22.5896   -4.4199   22.2045 F   0  0  0  0  0  0  0  0  0  0  0  0
  -30.7502  -17.1218   19.3496 F   0  0  0  0  0  0  0  0  0  0  0  0
  1  2  1  0  0  0  0
  1  5  2  0  0  0  0
  2  6  2  0  0  0  0
  3  8  2  0  0  0  0
  3 16  1  0  0  0  0
  4  9  1  0  0  0  0
  4 16  2  0  0  0  0
  5 18  1  0  0  0  0
  6 20  1  0  0  0  0
  7 10  2  0  0  0  0
  7 19  1  0  0  0  0
  8 26  1  0  0  0  0
  9 26  2  0  0  0  0
 10 27  1  0  0  0  0
 11 12  2  0  0  0  0
 11 28  1  0  0  0  0
 12 29  1  0  0  0  0
 13 21  1  0  0  0  0
 13 27  2  0  0  0  0
 14 22  2  0  0  0  0
 14 23  1  0  0  0  0
 15 29  2  0  0  0  0
 15 30  1  0  0  0  0
 16 32  1  0  0  0  0
 17 32  1  0  0  0  0
 17 33  2  0  0  0  0
 17 36  1  0  0  0  0
 18 20  2  0  0  0  0
 18 41  1  0  0  0  0
 19 21  2  0  0  0  0
 19 42  1  0  0  0  0
 20 53  1  0  0  0  0
 21 43  1  0  0  0  0
 22 24  1  0  0  0  0
 22 57  1  0  0  0  0
 23 25  2  0  0  0  0
 23 58  1  0  0  0  0
 24 31  2  0  0  0  0
 24 65  1  0  0  0  0
 25 31  1  0  0  0  0
 25 75  1  0  0  0  0
 26 85  1  0  0  0  0
 27 86  1  0  0  0  0
 28 30  2  0  0  0  0
 28 85  1  0  0  0  0
 29 87  1  0  0  0  0
 30 88  1  0  0  0  0
 31 89  1  0  0  0  0
 32 69  2  0  0  0  0
 33 70  1  0  0  0  0
 33 73  1  0  0  0  0
 34 35  2  0  0  0  0
 34 44  1  0  0  0  0
 34 78  1  0  0  0  0
 35 59  1  0  0  0  0
 36 74  1  0  0  0  0
 36 80  2  0  0  0  0
 37 54  1  0  0  0  0
 37 76  1  0  0  0  0
 37 81  2  0  0  0  0
 38 66  1  0  0  0  0
 38 71  1  0  0  0  0
 38 82  2  0  0  0  0
 39 67  1  0  0  0  0
 39 77  1  0  0  0  0
 39 83  2  0  0  0  0
 40 72  1  0  0  0  0
 40 75  1  0  0  0  0
 40 84  2  0  0  0  0
 41 45  1  0  0  0  0
 42 54  1  0  0  0  0
 43 71  1  0  0  0  0
 44 46  1  0  0  0  0
 45 48  1  0  0  0  0
 46 56  1  0  0  0  0
 47 49  1  0  0  0  0
 47 50  1  0  0  0  0
 48 53  1  0  0  0  0
 49 55  1  0  0  0  0
 50 72  1  0  0  0  0
 51 55  1  0  0  0  0
 51 72  1  0  0  0  0
 52 56  1  0  0  0  0
 52 78  1  0  0  0  0
 53 76  1  0  0  0  0
 54 71  1  0  0  0  0
 55 70  1  0  0  0  0
 56 86  1  0  0  0  0
 60 67  1  0  0  0  0
 61 68  1  0  0  0  0
 62 68  1  0  0  0  0
 63 68  1  0  0  0  0
 64 79  1  0  0  0  0
 65 78  1  0  0  0  0
 66 68  1  0  0  0  0
 66 77  1  0  0  0  0
 67 79  1  0  0  0  0
 69 70  1  0  0  0  0
M  CHG  2  78   1  79   1
M  ISO  4  40 100  56 101  75 100  86 101
M  END
> <Batch ID>
0034

> <Smiles>
CC=C1CC[101CH:1]([101O:1]c2ccc3c(c2)CN(C(=O)C(NC(=O)C(C)NC)C(C)(C)C)C(C(=O)NC2CCCc4ccccc42)C3)CN1Cc1c(C)cc(C)c([100NH:0][100C:0](=O)N2CCCC(n3nc(-c4ccc(Oc5ccc(F)cc5F)cc4)c(C(N)=O)c3N)C2)c1F

> <Shape>
0.198

> <Color>
0.172

> <Negative vol penalty>
0.000

$$$$

  -OEChem-04042321483D

 88 97  0     1  0  0  0  0  0999 V2000
  -17.5792  -32.8871   23.2993 C   0  0  0  0  0  0  0  0  0  0  0  0
  -18.7960  -33.1204   22.6666 C   0  0  0  0  0  0  0  0  0  0  0  0
  -27.8838  -12.1584   21.9981 C   0  0  0  0  0  0  0  0  0  0  0  0
  -27.1644  -12.5124   19.7190 C   0  0  0  0  0  0  0  0  0  0  0  0
  -17.4262  -31.7740   24.1248 C   0  0  0  0  0  0  0  0  0  0  0  0
  -19.8609  -32.2412   22.8599 C   0  0  0  0  0  0  0  0  0  0  0  0
  -25.5258  -29.4966   19.4405 C   0  0  0  0  0  0  0  0  0  0  0  0
  -30.7934  -23.9513   17.1355 C   0  0  0  0  0  0  0  0  0  0  0  0
  -30.0509  -23.0062   16.4276 C   0  0  0  0  0  0  0  0  0  0  0  0
  -27.2936  -10.8946   21.9881 C   0  0  0  0  0  0  0  0  0  0  0  0
  -26.5741  -11.2486   19.7090 C   0  0  0  0  0  0  0  0  0  0  0  0
  -26.9006  -29.3265   19.5982 C   0  0  0  0  0  0  0  0  0  0  0  0
  -28.0246   -7.8131   20.8037 C   0  0  0  0  0  0  0  0  0  0  0  0
  -28.7585   -6.7507   21.3312 C   0  0  0  0  0  0  0  0  0  0  0  0
  -26.4964  -27.3934   20.9834 C   0  0  0  0  0  0  0  0  0  0  0  0
  -27.0243   -6.3658   22.9688 C   0  0  0  0  0  0  0  0  0  0  0  0
  -27.8192  -12.9673   20.8635 C   0  0  0  0  0  0  0  0  0  0  0  0
  -29.7481  -14.5983   20.5070 C   0  0  0  0  0  0  0  0  0  0  0  0
  -18.4868  -30.8755   24.3207 C   0  0  0  0  0  0  0  0  0  0  0  0
  -24.6243  -28.6214   20.0630 C   0  0  0  0  0  0  0  0  0  0  0  0
  -19.7224  -31.1158   23.6899 C   0  0  0  0  0  0  0  0  0  0  0  0
  -25.1107  -27.5531   20.8299 C   0  0  0  0  0  0  0  0  0  0  0  0
  -30.8520  -23.8917   18.5279 C   0  0  0  0  0  0  0  0  0  0  0  0
  -29.3670  -22.0016   17.1121 C   0  0  0  0  0  0  0  0  0  0  0  0
  -30.1681  -22.8871   19.2124 C   0  0  0  0  0  0  0  0  0  0  0  0
  -29.4255  -21.9420   18.5045 C   0  0  0  0  0  0  0  0  0  0  0  0
  -26.6387  -10.4397   20.8436 C   0  0  0  0  0  0  0  0  0  0  0  0
  -27.3860  -28.2765   20.3721 C   0  0  0  0  0  0  0  0  0  0  0  0
  -26.7906   -8.1520   21.3588 C   0  0  0  0  0  0  0  0  0  0  0  0
  -28.2584   -6.0270   22.4137 C   0  0  0  0  0  0  0  0  0  0  0  0
  -26.2904   -7.4283   22.4413 C   0  0  0  0  0  0  0  0  0  0  0  0
  -28.4283  -14.2731   20.8733 C   0  0  0  0  0  0  0  0  0  0  0  0
  -29.8306  -15.9569   20.6911 C   0  0  0  0  0  0  0  0  0  0  0  0
  -31.5298  -27.1728   20.2049 C   0  0  0  0  0  0  0  0  0  0  0  0
  -30.8049  -13.7483   20.0418 C   0  0  0  0  0  0  0  0  0  0  0  0
  -32.5165  -27.2018   21.1085 C   0  0  0  0  0  0  0  0  0  0  0  0
  -22.3343  -28.9381   22.2446 C   0  0  0  0  0  0  0  0  0  0  0  0
  -21.7780  -25.8193   21.5478 C   0  0  0  0  0  0  0  0  0  0  0  0
  -22.9808  -22.8596   20.3477 C   0  0  0  0  0  0  0  0  0  0  0  0
  -27.7235  -21.0824   20.1509 C   0  0  0  0  0  0  0  0  0  0  0  0
  -18.2885  -29.7119   25.2596 C   0  0  0  0  0  0  0  0  0  0  0  0
  -23.1448  -28.8026   19.8612 C   0  0  0  0  0  0  0  0  0  0  0  0
  -24.1851  -26.5737   21.5027 C   0  0  0  0  0  0  0  0  0  0  0  0
  -30.9254  -28.3701   19.5403 C   0  0  0  0  0  0  0  0  0  0  0  0
  -19.3502  -28.6247   25.1149 C   0  0  0  0  0  0  0  0  0  0  0  0
  -26.6460  -19.1735   22.9567 C   0  0  0  0  0  0  0  0  0  0  0  0
  -20.7439  -29.2427   25.0660 C   0  0  0  0  0  0  0  0  0  0  0  0
  -27.1222  -17.7552   22.6346 C   0  0  0  0  0  0  0  0  0  0  0  0
  -26.1768  -19.9123   21.7045 C   0  0  0  0  0  0  0  0  0  0  0  0
  -27.6184  -18.5155   20.2761 C   0  0  0  0  0  0  0  0  0  0  0  0
  -29.6199  -26.3960   19.0941 C   0  0  0  0  0  0  0  0  0  0  0  0
  -20.8934  -30.1715   23.8550 C   0  0  1  0  0  0  0  0  0  0  0  0
  -22.3081  -28.1569   20.9614 C   0  0  1  0  0  0  0  0  0  0  0  0
  -28.1616  -17.7545   21.4965 C   0  0  2  0  0  0  0  0  0  0  0  0
  -29.4948  -27.8914   19.3488 C   0  0  1  0  0  0  0  0  0  1  0  0
  -28.5796  -21.0039   16.3256 C   0  0  0  0  0  0  0  0  0  0  0  0
  -30.2343  -22.8301   20.7067 C   0  0  0  0  0  0  0  0  0  0  0  0
  -33.0660  -25.9491   21.7277 C   0  0  0  0  0  0  0  0  0  0  0  0
  -33.1406  -28.4891   21.5646 C   0  0  0  0  0  0  0  0  0  0  0  0
  -22.3022  -20.4787   19.9374 C   0  0  0  0  0  0  0  0  0  0  0  0
  -22.0168  -25.2392   24.5338 C   0  0  0  0  0  0  0  0  0  0  0  0
  -22.2833  -22.8143   23.9705 C   0  0  0  0  0  0  0  0  0  0  0  0
  -20.1744  -24.0067   23.3757 C   0  0  0  0  0  0  0  0  0  0  0  0
  -23.4590  -23.1030   17.4372 C   0  0  0  0  0  0  0  0  0  0  0  0
  -31.6579  -24.9211   19.2641 C   0  0  0  0  0  0  0  0  0  0  0  0
  -22.2858  -24.4990   22.0750 C   0  0  1  0  0  0  0  0  0  0  0  0
  -22.4116  -21.8742   19.3429 C   0  0  2  0  0  0  0  0  0  0  0  0
  -21.7077  -24.1592   23.4778 C   0  0  0  0  0  0  0  0  0  0  0  0
  -27.7232  -15.3392   21.2610 N   0  0  0  0  0  0  0  0  0  0  0  0
  -28.6032  -16.3476   21.1394 N   0  0  0  0  0  0  0  0  0  0  0  0
  -22.7469  -26.7968   21.2805 N   0  0  0  0  0  0  0  0  0  0  0  0
  -27.2142  -19.8739   20.6714 N   0  0  0  0  0  0  0  0  0  0  0  0
  -30.8327  -16.8434   20.5117 N   0  0  0  0  0  0  0  0  0  0  0  0
  -30.5499  -12.3764   19.9100 N   0  0  0  0  0  0  0  0  0  0  0  0
  -28.7288  -20.9215   19.1980 N   0  0  0  0  0  0  0  0  0  0  0  0
  -21.0957  -29.3994   22.6478 N   0  0  0  0  0  0  0  0  0  0  0  0
  -21.9852  -23.5068   21.0486 N   0  0  0  0  0  0  0  0  0  0  0  0
  -30.8107  -25.9558   19.9417 N   0  3  1  0  0  0  0  0  0  0  0  0
  -23.2828  -21.8038   18.1358 N   0  3  0  0  0  0  0  0  0  0  0  0
  -31.9465  -14.1897   19.7673 O   0  0  0  0  0  0  0  0  0  0  0  0
  -23.3991  -29.1085   22.8267 O   0  0  0  0  0  0  0  0  0  0  0  0
  -20.5669  -25.9750   21.3726 O   0  0  0  0  0  0  0  0  0  0  0  0
  -24.1879  -23.0347   20.4985 O   0  0  0  0  0  0  0  0  0  0  0  0
  -27.3182  -22.1797   20.5429 O   0  0  0  0  0  0  0  0  0  0  0  0
  -26.0628   -9.2065   20.8335 O   0  0  0  0  0  0  0  0  0  0  0  0
  -28.7274  -28.1086   20.5282 O   0  0  0  0  0  0  0  0  0  1  0  0
  -28.9625   -5.0058   22.9191 F   0  0  0  0  0  0  0  0  0  0  0  0
  -25.1050   -7.7484   22.9780 F   0  0  0  0  0  0  0  0  0  0  0  0
  1  2  1  0  0  0  0
  1  5  2  0  0  0  0
  2  6  2  0  0  0  0
  3 10  2  0  0  0  0
  3 17  1  0  0  0  0
  4 11  1  0  0  0  0
  4 17  2  0  0  0  0
  5 19  1  0  0  0  0
  6 21  1  0  0  0  0
  7 12  2  0  0  0  0
  7 20  1  0  0  0  0
  8  9  2  0  0  0  0
  8 23  1  0  0  0  0
  9 24  1  0  0  0  0
 10 27  1  0  0  0  0
 11 27  2  0  0  0  0
 12 28  1  0  0  0  0
 13 14  2  0  0  0  0
 13 29  1  0  0  0  0
 14 30  1  0  0  0  0
 15 22  1  0  0  0  0
 15 28  2  0  0  0  0
 16 30  2  0  0  0  0
 16 31  1  0  0  0  0
 17 32  1  0  0  0  0
 18 32  1  0  0  0  0
 18 33  2  0  0  0  0
 18 35  1  0  0  0  0
 19 21  2  0  0  0  0
 19 41  1  0  0  0  0
 20 22  2  0  0  0  0
 20 42  1  0  0  0  0
 21 52  1  0  0  0  0
 22 43  1  0  0  0  0
 23 25  2  0  0  0  0
 23 65  1  0  0  0  0
 24 26  2  0  0  0  0
 24 56  1  0  0  0  0
 25 26  1  0  0  0  0
 25 57  1  0  0  0  0
 26 75  1  0  0  0  0
 27 85  1  0  0  0  0
 28 86  1  0  0  0  0
 29 31  2  0  0  0  0
 29 85  1  0  0  0  0
 30 87  1  0  0  0  0
 31 88  1  0  0  0  0
 32 69  2  0  0  0  0
 33 70  1  0  0  0  0
 33 73  1  0  0  0  0
 34 36  2  0  0  0  0
 34 44  1  0  0  0  0
 34 78  1  0  0  0  0
 35 74  1  0  0  0  0
 35 80  2  0  0  0  0
 36 58  1  0  0  0  0
 36 59  1  0  0  0  0
 37 53  1  0  0  0  0
 37 76  1  0  0  0  0
 37 81  2  0  0  0  0
 38 66  1  0  0  0  0
 38 71  1  0  0  0  0
 38 82  2  0  0  0  0
 39 67  1  0  0  0  0
 39 77  1  0  0  0  0
 39 83  2  0  0  0  0
 40 72  1  0  0  0  0
 40 75  1  0  0  0  0
 40 84  2  0  0  0  0
 41 45  1  0  0  0  0
 42 53  1  0  0  0  0
 43 71  1  0  0  0  0
 44 55  1  0  0  0  0
 45 47  1  0  0  0  0
 46 48  1  0  0  0  0
 46 49  1  0  0  0  0
 47 52  1  0  0  0  0
 48 54  1  0  0  0  0
 49 72  1  0  0  0  0
 50 54  1  0  0  0  0
 50 72  1  0  0  0  0
 51 55  1  0  0  0  0
 51 78  1  0  0  0  0
 52 76  1  0  0  0  0
 53 71  1  0  0  0  0
 54 70  1  0  0  0  0
 55 86  1  0  0  0  0
 60 67  1  0  0  0  0
 61 68  1  0  0  0  0
 62 68  1  0  0  0  0
 63 68  1  0  0  0  0
 64 79  1  0  0  0  0
 65 78  1  0  0  0  0
 66 68  1  0  0  0  0
 66 77  1  0  0  0  0
 67 79  1  0  0  0  0
 69 70  1  0  0  0  0
M  CHG  2  78   1  79   1
M  ISO  4  40 100  55 101  75 100  86 101
M  END
> <Batch ID>
0034

> <Smiles>
CNC(C)C(=O)NC(C(=O)N1Cc2cc([101O:1][101CH:1]3CC(=C(C)C)N(Cc4ccc(C)c([100NH:0][100C:0](=O)N5CCCC(n6nc(-c7ccc(Oc8ccc(F)cc8F)cc7)c(C(N)=O)c6N)C5)c4C)C3)ccc2CC1C(=O)NC1CCCc2ccccc21)C(C)(C)C

> <Shape>
0.242

> <Color>
0.067

> <Negative vol penalty>
0.000

$$$$

  -OEChem-04042321483D

 85 93  0     1  0  0  0  0  0999 V2000
  -23.7394  -18.2542   21.9915 C   0  0  0  0  0  0  0  0  0  0  0  0
  -24.4658  -19.3024   21.4356 C   0  0  0  0  0  0  0  0  0  0  0  0
  -25.2667  -12.9942   19.2528 C   0  0  0  0  0  0  0  0  0  0  0  0
  -25.1234  -14.3010   21.2799 C   0  0  0  0  0  0  0  0  0  0  0  0
  -22.3622  -18.3794   22.1695 C   0  0  0  0  0  0  0  0  0  0  0  0
  -23.8152  -20.4760   21.0563 C   0  0  0  0  0  0  0  0  0  0  0  0
  -26.3039  -24.6366   22.5194 C   0  0  0  0  0  0  0  0  0  0  0  0
  -33.5572  -23.8085   16.3565 C   0  0  0  0  0  0  0  0  0  0  0  0
  -25.1795  -11.8214   20.0027 C   0  0  0  0  0  0  0  0  0  0  0  0
  -25.0363  -13.1281   22.0298 C   0  0  0  0  0  0  0  0  0  0  0  0
  -27.4121  -25.0149   21.7626 C   0  0  0  0  0  0  0  0  0  0  0  0
  -24.6317   -8.4909   21.3528 C   0  0  0  0  0  0  0  0  0  0  0  0
  -23.7742   -7.4906   20.8950 C   0  0  0  0  0  0  0  0  0  0  0  0
  -34.8669  -23.5969   16.7873 C   0  0  0  0  0  0  0  0  0  0  0  0
  -26.0671  -26.6662   20.6297 C   0  0  0  0  0  0  0  0  0  0  0  0
  -34.0465  -22.2607   18.6254 C   0  0  0  0  0  0  0  0  0  0  0  0
  -21.9057   -9.0121   21.0706 C   0  0  0  0  0  0  0  0  0  0  0  0
  -25.2387  -14.2341   19.8914 C   0  0  0  0  0  0  0  0  0  0  0  0
  -24.2647  -16.1843   18.5664 C   0  0  0  0  0  0  0  0  0  0  0  0
  -21.6959  -19.5588   21.8011 C   0  0  0  0  0  0  0  0  0  0  0  0
  -25.0643  -25.2639   22.3290 C   0  0  0  0  0  0  0  0  0  0  0  0
  -22.4277  -20.6165   21.2283 C   0  0  0  0  0  0  0  0  0  0  0  0
  -24.9454  -26.2958   21.3872 C   0  0  0  0  0  0  0  0  0  0  0  0
  -32.4922  -23.2462   17.0603 C   0  0  0  0  0  0  0  0  0  0  0  0
  -32.7368  -22.4724   18.1947 C   0  0  0  0  0  0  0  0  0  0  0  0
  -25.0643  -11.8883   21.3912 C   0  0  0  0  0  0  0  0  0  0  0  0
  -27.2931  -26.0278   20.8156 C   0  0  0  0  0  0  0  0  0  0  0  0
  -24.1262   -9.7518   21.6696 C   0  0  0  0  0  0  0  0  0  0  0  0
  -22.4112   -7.7512   20.7538 C   0  0  0  0  0  0  0  0  0  0  0  0
  -22.7632  -10.0124   21.5285 C   0  0  0  0  0  0  0  0  0  0  0  0
  -35.1116  -22.8230   17.9217 C   0  0  0  0  0  0  0  0  0  0  0  0
  -25.3292  -15.4460   19.1173 C   0  0  0  0  0  0  0  0  0  0  0  0
  -24.8717  -17.2394   17.9301 C   0  0  0  0  0  0  0  0  0  0  0  0
  -22.8534  -15.9385   18.6246 C   0  0  0  0  0  0  0  0  0  0  0  0
  -22.1811  -24.2992   21.4016 C   0  0  0  0  0  0  0  0  0  0  0  0
  -21.3480  -27.3418   22.1572 C   0  0  0  0  0  0  0  0  0  0  0  0
  -29.5492  -25.0814   17.7164 C   0  0  0  0  0  0  0  0  0  0  0  0
  -22.3116  -30.5870   22.5899 C   0  0  0  0  0  0  0  0  0  0  0  0
  -30.0334  -19.9504   18.8592 C   0  0  0  0  0  0  0  0  0  0  0  0
  -20.1988  -19.6295   21.9692 C   0  0  0  0  0  0  0  0  0  0  0  0
  -23.8851  -24.8626   23.1722 C   0  0  0  0  0  0  0  0  0  0  0  0
  -23.6418  -27.0147   21.1587 C   0  0  0  0  0  0  0  0  0  0  0  0
  -19.6430  -21.0489   21.8868 C   0  0  0  0  0  0  0  0  0  0  0  0
  -28.9563  -18.4483   15.7478 C   0  0  0  0  0  0  0  0  0  0  0  0
  -20.2395  -21.7873   20.6928 C   0  0  0  0  0  0  0  0  0  0  0  0
  -27.7934  -17.5731   16.2190 C   0  0  0  0  0  0  0  0  0  0  0  0
  -30.0893  -18.4593   16.7696 C   0  0  0  0  0  0  0  0  0  0  0  0
  -28.5174  -18.0053   18.6126 C   0  0  0  0  0  0  0  0  0  0  0  0
  -21.7617  -21.9149   20.8272 C   0  0  1  0  0  0  0  0  0  0  0  0
  -22.5457  -25.2174   22.5337 C   0  0  1  0  0  0  0  0  0  0  0  0
  -27.3302  -17.9707   17.6331 C   0  0  2  0  0  0  0  0  0  0  0  0
  -21.4001  -32.8518   23.1704 C   0  0  0  0  0  0  0  0  0  0  0  0
  -20.1634  -27.5804   19.3555 C   0  0  0  0  0  0  0  0  0  0  0  0
  -20.1404  -30.0662   19.6525 C   0  0  0  0  0  0  0  0  0  0  0  0
  -18.7827  -28.6187   21.1638 C   0  0  0  0  0  0  0  0  0  0  0  0
  -24.0260  -30.7890   24.9939 C   0  0  0  0  0  0  0  0  0  0  0  0
  -31.0910  -23.4883   16.5784 C   0  0  0  0  0  0  0  0  0  0  0  0
  -31.6123  -21.8616   18.9650 C   0  0  0  0  0  0  0  0  0  0  0  0
  -29.3039  -26.5749   17.8632 C   0  0  0  0  0  0  0  0  0  0  0  0
  -28.1200  -26.8968   18.7621 C   0  0  0  0  0  0  0  0  0  1  0  0
  -21.2986  -28.6533   21.4113 C   0  0  1  0  0  0  0  0  0  0  0  0
  -22.0372  -31.5790   23.7058 C   0  0  2  0  0  0  0  0  0  0  0  0
  -20.1205  -28.7150   20.3985 C   0  0  0  0  0  0  0  0  0  0  0  0
  -26.5221  -15.9861   18.8540 N   0  0  0  0  0  0  0  0  0  0  0  0
  -26.2108  -17.0751   18.1305 N   0  0  0  0  0  0  0  0  0  0  0  0
  -22.5162  -26.5819   22.0033 N   0  0  0  0  0  0  0  0  0  0  0  0
  -29.5854  -18.8639   18.0897 N   0  0  0  0  0  0  0  0  0  0  0  0
  -24.3854  -18.2823   17.2243 N   0  0  0  0  0  0  0  0  0  0  0  0
  -22.4000  -14.8091   19.3198 N   0  0  0  0  0  0  0  0  0  0  0  0
  -22.1001  -22.9674   21.7611 N   0  0  0  0  0  0  0  0  0  0  0  0
  -30.6345  -24.8234   16.8913 N   0  0  0  0  0  0  0  0  0  0  0  0
  -21.2686  -29.6999   22.4272 N   0  0  0  0  0  0  0  0  0  0  0  0
  -31.0518  -20.7091   18.2954 N   0  0  0  0  0  0  0  0  0  0  0  0
  -23.3054  -31.9435   24.3983 N   0  3  0  0  0  0  0  0  0  0  0  0
  -22.0200  -16.6888   18.0625 O   0  0  0  0  0  0  0  0  0  0  0  0
  -21.9861  -24.7648   20.2850 O   0  0  0  0  0  0  0  0  0  0  0  0
  -20.3885  -27.0073   22.8566 O   0  0  0  0  0  0  0  0  0  0  0  0
  -28.8601  -24.2281   18.2686 O   0  0  0  0  0  0  0  0  0  0  0  0
  -23.3460  -30.6002   21.9264 O   0  0  0  0  0  0  0  0  0  0  0  0
  -29.5571  -20.2275   19.9653 O   0  0  0  0  0  0  0  0  0  0  0  0
  -24.9790  -10.7440   22.1233 O   0  0  0  0  0  0  0  0  0  0  0  0
  -28.3730  -26.3986   20.0751 O   0  0  0  0  0  0  0  0  0  1  0  0
  -21.5880   -6.7910   20.3127 F   0  0  0  0  0  0  0  0  0  0  0  0
  -22.2720  -11.2221   21.8301 F   0  0  0  0  0  0  0  0  0  0  0  0
  -36.7272  -22.5638   18.4537 Cl  0  0  0  0  0  0  0  0  0  0  0  0
  1  2  1  0  0  0  0
  1  5  2  0  0  0  0
  2  6  2  0  0  0  0
  3  9  2  0  0  0  0
  3 18  1  0  0  0  0
  4 10  1  0  0  0  0
  4 18  2  0  0  0  0
  5 20  1  0  0  0  0
  6 22  1  0  0  0  0
  7 11  2  0  0  0  0
  7 21  1  0  0  0  0
  8 14  2  0  0  0  0
  8 24  1  0  0  0  0
  9 26  1  0  0  0  0
 10 26  2  0  0  0  0
 11 27  1  0  0  0  0
 12 13  2  0  0  0  0
 12 28  1  0  0  0  0
 13 29  1  0  0  0  0
 14 31  1  0  0  0  0
 15 23  1  0  0  0  0
 15 27  2  0  0  0  0
 16 25  1  0  0  0  0
 16 31  2  0  0  0  0
 17 29  2  0  0  0  0
 17 30  1  0  0  0  0
 18 32  1  0  0  0  0
 19 32  1  0  0  0  0
 19 33  2  0  0  0  0
 19 34  1  0  0  0  0
 20 22  2  0  0  0  0
 20 40  1  0  0  0  0
 21 23  2  0  0  0  0
 21 41  1  0  0  0  0
 22 49  1  0  0  0  0
 23 42  1  0  0  0  0
 24 25  2  0  0  0  0
 24 57  1  0  0  0  0
 25 58  1  0  0  0  0
 26 81  1  0  0  0  0
 27 82  1  0  0  0  0
 28 30  2  0  0  0  0
 28 81  1  0  0  0  0
 29 83  1  0  0  0  0
 30 84  1  0  0  0  0
 31 85  1  0  0  0  0
 32 64  2  0  0  0  0
 33 65  1  0  0  0  0
 33 68  1  0  0  0  0
 34 69  1  0  0  0  0
 34 75  2  0  0  0  0
 35 50  1  0  0  0  0
 35 70  1  0  0  0  0
 35 76  2  0  0  0  0
 36 61  1  0  0  0  0
 36 66  1  0  0  0  0
 36 77  2  0  0  0  0
 37 59  1  0  0  0  0
 37 71  1  0  0  0  0
 37 78  2  0  0  0  0
 38 62  1  0  0  0  0
 38 72  1  0  0  0  0
 38 79  2  0  0  0  0
 39 67  1  0  0  0  0
 39 73  1  0  0  0  0
 39 80  2  0  0  0  0
 40 43  1  0  0  0  0
 41 50  1  0  0  0  0
 42 66  1  0  0  0  0
 43 45  1  0  0  0  0
 44 46  1  0  0  0  0
 44 47  1  0  0  0  0
 45 49  1  0  0  0  0
 46 51  1  0  0  0  0
 47 67  1  0  0  0  0
 48 51  1  0  0  0  0
 48 67  1  0  0  0  0
 49 70  1  0  0  0  0
 50 66  1  0  0  0  0
 51 65  1  0  0  0  0
 52 62  1  0  0  0  0
 53 63  1  0  0  0  0
 54 63  1  0  0  0  0
 55 63  1  0  0  0  0
 56 74  1  0  0  0  0
 57 71  1  0  0  0  0
 58 73  1  0  0  0  0
 59 60  1  0  0  0  0
 60 82  1  0  0  0  0
 61 63  1  0  0  0  0
 61 72  1  0  0  0  0
 62 74  1  0  0  0  0
 64 65  1  0  0  0  0
M  CHG  1  74   1
M  ISO  4  39 100  60 101  73 100  82 101
M  END
> <Batch ID>
0034

> <Smiles>
CNC(C)C(=O)NC(C(=O)N1Cc2cc([101O:1][101CH2:1]CC(=O)NCc3ccc(Cl)cc3C[100NH:0][100C:0](=O)N3CCCC(n4nc(-c5ccc(Oc6ccc(F)cc6F)cc5)c(C(N)=O)c4N)C3)ccc2CC1C(=O)NC1CCCc2ccccc21)C(C)(C)C

> <Shape>
0.176

> <Color>
0.087

> <Negative vol penalty>
0.000

$$$$

  -OEChem-04042321483D

 87 96  0     1  0  0  0  0  0999 V2000
  -25.4970  -32.6902   28.8746 C   0  0  0  0  0  0  0  0  0  0  0  0
  -24.4857  -31.7485   28.7137 C   0  0  0  0  0  0  0  0  0  0  0  0
  -26.4608  -12.5161   19.8065 C   0  0  0  0  0  0  0  0  0  0  0  0
  -26.2681  -13.7993   21.8445 C   0  0  0  0  0  0  0  0  0  0  0  0
  -26.1752  -33.1805   27.7594 C   0  0  0  0  0  0  0  0  0  0  0  0
  -24.1512  -31.2974   27.4374 C   0  0  0  0  0  0  0  0  0  0  0  0
  -21.8146  -25.4536   24.0159 C   0  0  0  0  0  0  0  0  0  0  0  0
  -25.2079  -11.9508   20.0439 C   0  0  0  0  0  0  0  0  0  0  0  0
  -25.0151  -13.2341   22.0819 C   0  0  0  0  0  0  0  0  0  0  0  0
  -20.8142  -25.0506   23.1324 C   0  0  0  0  0  0  0  0  0  0  0  0
  -22.2160   -9.8999   20.2994 C   0  0  0  0  0  0  0  0  0  0  0  0
  -22.0786   -8.5238   20.1175 C   0  0  0  0  0  0  0  0  0  0  0  0
  -22.1075  -25.9090   21.2859 C   0  0  0  0  0  0  0  0  0  0  0  0
  -23.0070  -20.8624   21.6708 C   0  0  0  0  0  0  0  0  0  0  0  0
  -24.1033  -19.1055   19.8016 C   0  0  0  0  0  0  0  0  0  0  0  0
  -23.7644   -8.1325   21.8033 C   0  0  0  0  0  0  0  0  0  0  0  0
  -26.9910  -13.4402   20.7069 C   0  0  0  0  0  0  0  0  0  0  0  0
  -29.5138  -13.3473   20.3404 C   0  0  0  0  0  0  0  0  0  0  0  0
  -25.8555  -32.7279   26.4696 C   0  0  0  0  0  0  0  0  0  0  0  0
  -22.9659  -26.0982   23.5414 C   0  0  0  0  0  0  0  0  0  0  0  0
  -24.8249  -31.7831   26.3038 C   0  0  0  0  0  0  0  0  0  0  0  0
  -23.1222  -26.3169   22.1652 C   0  0  0  0  0  0  0  0  0  0  0  0
  -24.3809  -20.6222   21.6615 C   0  0  0  0  0  0  0  0  0  0  0  0
  -22.1811  -20.2240   20.7455 C   0  0  0  0  0  0  0  0  0  0  0  0
  -24.9291  -19.7438   20.7269 C   0  0  0  0  0  0  0  0  0  0  0  0
  -24.4851  -12.3099   21.1815 C   0  0  0  0  0  0  0  0  0  0  0  0
  -20.9593  -25.2809   21.7674 C   0  0  0  0  0  0  0  0  0  0  0  0
  -23.1277  -10.3923   21.2333 C   0  0  0  0  0  0  0  0  0  0  0  0
  -22.8528   -7.6401   20.8694 C   0  0  0  0  0  0  0  0  0  0  0  0
  -22.7293  -19.3456   19.8109 C   0  0  0  0  0  0  0  0  0  0  0  0
  -23.9019   -9.5086   21.9852 C   0  0  0  0  0  0  0  0  0  0  0  0
  -28.2854  -14.0240   20.4625 C   0  0  0  0  0  0  0  0  0  0  0  0
  -30.4331  -14.3425   20.1149 C   0  0  0  0  0  0  0  0  0  0  0  0
  -18.8436  -21.2029   19.3792 C   0  0  0  0  0  0  0  0  0  0  0  0
  -18.4861  -20.4867   18.3026 C   0  0  0  0  0  0  0  0  0  0  0  0
  -29.7984  -11.9445   20.4232 C   0  0  0  0  0  0  0  0  0  0  0  0
  -24.2790  -28.9588   23.9846 C   0  0  0  0  0  0  0  0  0  0  0  0
  -26.6900  -27.6940   22.2212 C   0  0  0  0  0  0  0  0  0  0  0  0
  -26.9972  -25.6197   19.2852 C   0  0  0  0  0  0  0  0  0  0  0  0
  -27.0213  -18.6401   19.8358 C   0  0  0  0  0  0  0  0  0  0  0  0
  -26.5842  -33.3221   25.2904 C   0  0  0  0  0  0  0  0  0  0  0  0
  -24.0480  -26.5028   24.5046 C   0  0  0  0  0  0  0  0  0  0  0  0
  -24.3484  -26.9868   21.6029 C   0  0  0  0  0  0  0  0  0  0  0  0
  -17.8469  -21.8546   20.2987 C   0  0  0  0  0  0  0  0  0  0  0  0
  -26.4237  -32.5143   24.0051 C   0  0  0  0  0  0  0  0  0  0  0  0
  -18.1965  -23.3235   20.5042 C   0  0  0  0  0  0  0  0  0  0  0  0
  -30.5801  -19.0303   21.2671 C   0  0  0  0  0  0  0  0  0  0  0  0
  -24.9619  -32.1336   23.7930 C   0  0  0  0  0  0  0  0  0  0  0  0
  -30.7841  -17.5210   21.2308 C   0  0  0  0  0  0  0  0  0  0  0  0
  -29.0983  -19.3675   21.1258 C   0  0  0  0  0  0  0  0  0  0  0  0
  -29.2753  -17.8283   19.1683 C   0  0  0  0  0  0  0  0  0  0  0  0
  -20.5784  -22.8366   19.8301 C   0  0  0  0  0  0  0  0  0  0  0  0
  -24.4500  -31.2508   24.9377 C   0  0  1  0  0  0  0  0  0  0  0  0
  -24.9450  -27.6121   23.9641 C   0  0  1  0  0  0  0  0  0  0  0  0
  -30.2710  -16.9131   19.9101 C   0  0  2  0  0  0  0  0  0  0  0  0
  -19.6717  -23.4992   20.8641 C   0  0  1  0  0  0  0  0  0  1  0  0
  -25.2419  -21.3199   22.6643 C   0  0  0  0  0  0  0  0  0  0  0  0
  -28.8268  -24.0547   18.5774 C   0  0  0  0  0  0  0  0  0  0  0  0
  -27.7481  -30.0969   20.6666 C   0  0  0  0  0  0  0  0  0  0  0  0
  -28.3835  -28.5328   18.8178 C   0  0  0  0  0  0  0  0  0  0  0  0
  -29.4311  -28.2913   21.0688 C   0  0  0  0  0  0  0  0  0  0  0  0
  -25.1139  -23.3521   19.0208 C   0  0  0  0  0  0  0  0  0  0  0  0
  -20.7036  -20.4844   20.7578 C   0  0  0  0  0  0  0  0  0  0  0  0
  -27.0139  -27.6229   20.7484 C   0  0  1  0  0  0  0  0  0  0  0  0
  -27.4621  -24.1753   19.2375 C   0  0  2  0  0  0  0  0  0  0  0  0
  -28.1172  -28.6372   20.3347 C   0  0  0  0  0  0  0  0  0  0  0  0
  -28.4097  -15.3469   20.3262 N   0  0  0  0  0  0  0  0  0  0  0  0
  -29.7271  -15.5094   20.1160 N   0  0  0  0  0  0  0  0  0  0  0  0
  -25.3755  -27.3696   22.5857 N   0  0  0  0  0  0  0  0  0  0  0  0
  -28.4185  -18.6013   20.0710 N   0  0  0  0  0  0  0  0  0  0  0  0
  -31.7685  -14.3245   19.9179 N   0  0  0  0  0  0  0  0  0  0  0  0
  -30.1113  -11.3990   21.6757 N   0  0  0  0  0  0  0  0  0  0  0  0
  -26.3231  -19.4864   20.7015 N   0  0  0  0  0  0  0  0  0  0  0  0
  -24.9205  -29.8917   24.7770 N   0  0  0  0  0  0  0  0  0  0  0  0
  -27.3480  -26.2302   20.4707 N   0  0  0  0  0  0  0  0  0  0  0  0
  -20.2532  -21.3760   19.6338 N   0  3  1  0  0  0  0  0  0  0  0  0
  -26.4930  -23.3444   18.4685 N   0  3  0  0  0  0  0  0  0  0  0  0
  -29.7918  -11.2000   19.4137 O   0  0  0  0  0  0  0  0  0  0  0  0
  -23.2595  -29.1387   23.3289 O   0  0  0  0  0  0  0  0  0  0  0  0
  -27.5727  -28.0182   23.0195 O   0  0  0  0  0  0  0  0  0  0  0  0
  -26.3875  -26.1540   18.3615 O   0  0  0  0  0  0  0  0  0  0  0  0
  -26.4970  -17.9783   18.9376 O   0  0  0  0  0  0  0  0  0  0  0  0
  -23.2623  -11.7587   21.4134 O   0  0  0  0  0  0  0  0  0  0  0  0
  -19.9840  -24.8891   20.9029 O   0  0  0  0  0  0  0  0  0  1  0  0
  -22.7196   -6.3187   20.6956 F   0  0  0  0  0  0  0  0  0  0  0  0
  -21.9436  -18.7275   18.9180 F   0  0  0  0  0  0  0  0  0  0  0  0
  -24.7785   -9.9757   22.8847 F   0  0  0  0  0  0  0  0  0  0  0  0
  1  2  1  0  0  0  0
  1  5  2  0  0  0  0
  2  6  2  0  0  0  0
  3  8  2  0  0  0  0
  3 17  1  0  0  0  0
  4  9  1  0  0  0  0
  4 17  2  0  0  0  0
  5 19  1  0  0  0  0
  6 21  1  0  0  0  0
  7 10  2  0  0  0  0
  7 20  1  0  0  0  0
  8 26  1  0  0  0  0
  9 26  2  0  0  0  0
 10 27  1  0  0  0  0
 11 12  2  0  0  0  0
 11 28  1  0  0  0  0
 12 29  1  0  0  0  0
 13 22  1  0  0  0  0
 13 27  2  0  0  0  0
 14 23  2  0  0  0  0
 14 24  1  0  0  0  0
 15 25  2  0  0  0  0
 15 30  1  0  0  0  0
 16 29  2  0  0  0  0
 16 31  1  0  0  0  0
 17 32  1  0  0  0  0
 18 32  1  0  0  0  0
 18 33  2  0  0  0  0
 18 36  1  0  0  0  0
 19 21  2  0  0  0  0
 19 41  1  0  0  0  0
 20 22  2  0  0  0  0
 20 42  1  0  0  0  0
 21 53  1  0  0  0  0
 22 43  1  0  0  0  0
 23 25  1  0  0  0  0
 23 57  1  0  0  0  0
 24 30  2  0  0  0  0
 24 63  1  0  0  0  0
 25 73  1  0  0  0  0
 26 83  1  0  0  0  0
 27 84  1  0  0  0  0
 28 31  2  0  0  0  0
 28 83  1  0  0  0  0
 29 85  1  0  0  0  0
 30 86  1  0  0  0  0
 31 87  1  0  0  0  0
 32 67  2  0  0  0  0
 33 68  1  0  0  0  0
 33 71  1  0  0  0  0
 34 35  2  0  0  0  0
 34 44  1  0  0  0  0
 34 76  1  0  0  0  0
 36 72  1  0  0  0  0
 36 78  2  0  0  0  0
 37 54  1  0  0  0  0
 37 74  1  0  0  0  0
 37 79  2  0  0  0  0
 38 64  1  0  0  0  0
 38 69  1  0  0  0  0
 38 80  2  0  0  0  0
 39 65  1  0  0  0  0
 39 75  1  0  0  0  0
 39 81  2  0  0  0  0
 40 70  1  0  0  0  0
 40 73  1  0  0  0  0
 40 82  2  0  0  0  0
 41 45  1  0  0  0  0
 42 54  1  0  0  0  0
 43 69  1  0  0  0  0
 44 46  1  0  0  0  0
 45 48  1  0  0  0  0
 46 56  1  0  0  0  0
 47 49  1  0  0  0  0
 47 50  1  0  0  0  0
 48 53  1  0  0  0  0
 49 55  1  0  0  0  0
 50 70  1  0  0  0  0
 51 55  1  0  0  0  0
 51 70  1  0  0  0  0
 52 56  1  0  0  0  0
 52 76  1  0  0  0  0
 53 74  1  0  0  0  0
 54 69  1  0  0  0  0
 55 68  1  0  0  0  0
 56 84  1  0  0  0  0
 58 65  1  0  0  0  0
 59 66  1  0  0  0  0
 60 66  1  0  0  0  0
 61 66  1  0  0  0  0
 62 77  1  0  0  0  0
 63 76  1  0  0  0  0
 64 66  1  0  0  0  0
 64 75  1  0  0  0  0
 65 77  1  0  0  0  0
 67 68  1  0  0  0  0
M  CHG  2  76   1  77   1
M  ISO  4  40 100  56 101  73 100  84 101
M  END
> <Batch ID>
0034

> <Smiles>
C=C1CC[101CH:1]([101O:1]c2ccc3c(c2)CN(C(=O)C(NC(=O)C(C)NC)C(C)(C)C)C(C(=O)NC2CCCc4ccccc42)C3)CN1Cc1cc(C)c([100NH:0][100C:0](=O)N2CCCC(n3nc(-c4ccc(Oc5ccc(F)cc5F)cc4)c(C(N)=O)c3N)C2)cc1F

> <Shape>
0.248

> <Color>
0.063

> <Negative vol penalty>
0.000

$$$$

  -OEChem-04042321483D

 87 96  0     1  0  0  0  0  0999 V2000
  -22.9005  -37.5884   23.8900 C   0  0  0  0  0  0  0  0  0  0  0  0
  -22.5328  -36.4155   23.2385 C   0  0  0  0  0  0  0  0  0  0  0  0
  -24.7851   -8.6612   21.2085 C   0  0  0  0  0  0  0  0  0  0  0  0
  -23.3712  -10.4991   21.8868 C   0  0  0  0  0  0  0  0  0  0  0  0
  -24.2186  -37.7690   24.3071 C   0  0  0  0  0  0  0  0  0  0  0  0
  -23.4833  -35.4229   23.0026 C   0  0  0  0  0  0  0  0  0  0  0  0
  -22.5684  -29.3675   23.0336 C   0  0  0  0  0  0  0  0  0  0  0  0
  -23.6936   -7.7955   21.2787 C   0  0  0  0  0  0  0  0  0  0  0  0
  -22.2796   -9.6334   21.9569 C   0  0  0  0  0  0  0  0  0  0  0  0
  -22.3589  -28.4453   22.0092 C   0  0  0  0  0  0  0  0  0  0  0  0
  -21.3551   -5.0327   21.6277 C   0  0  0  0  0  0  0  0  0  0  0  0
  -21.5428   -3.7991   22.2509 C   0  0  0  0  0  0  0  0  0  0  0  0
  -24.7104  -27.9069   22.0213 C   0  0  0  0  0  0  0  0  0  0  0  0
  -28.2112  -20.7503   21.2315 C   0  0  0  0  0  0  0  0  0  0  0  0
  -26.4885  -20.6088   19.0418 C   0  0  0  0  0  0  0  0  0  0  0  0
  -22.1465   -4.9263   24.3007 C   0  0  0  0  0  0  0  0  0  0  0  0
  -24.6239  -10.0129   21.5126 C   0  0  0  0  0  0  0  0  0  0  0  0
  -26.9509  -10.8237   22.1726 C   0  0  0  0  0  0  0  0  0  0  0  0
  -25.1836  -36.7740   24.0847 C   0  0  0  0  0  0  0  0  0  0  0  0
  -23.8544  -29.5746   23.5529 C   0  0  0  0  0  0  0  0  0  0  0  0
  -24.8159  -35.5909   23.4158 C   0  0  0  0  0  0  0  0  0  0  0  0
  -24.9331  -28.8305   23.0540 C   0  0  0  0  0  0  0  0  0  0  0  0
  -27.5948  -21.9065   20.7533 C   0  0  0  0  0  0  0  0  0  0  0  0
  -27.9664  -19.5233   20.6149 C   0  0  0  0  0  0  0  0  0  0  0  0
  -26.7334  -21.8358   19.6585 C   0  0  0  0  0  0  0  0  0  0  0  0
  -27.1050  -19.4525   19.5201 C   0  0  0  0  0  0  0  0  0  0  0  0
  -22.4409   -8.2817   21.6529 C   0  0  0  0  0  0  0  0  0  0  0  0
  -23.4305  -27.7169   21.5009 C   0  0  0  0  0  0  0  0  0  0  0  0
  -21.5631   -6.2133   22.3410 C   0  0  0  0  0  0  0  0  0  0  0  0
  -21.9385   -3.7458   23.5874 C   0  0  0  0  0  0  0  0  0  0  0  0
  -21.9588   -6.1601   23.6775 C   0  0  0  0  0  0  0  0  0  0  0  0
  -25.7511  -10.9075   21.4409 C   0  0  0  0  0  0  0  0  0  0  0  0
  -27.6902  -11.8990   21.7442 C   0  0  0  0  0  0  0  0  0  0  0  0
  -27.3604   -9.8599   23.1519 C   0  0  0  0  0  0  0  0  0  0  0  0
  -25.8395  -32.0525   23.7063 C   0  0  0  0  0  0  0  0  0  0  0  0
  -27.6142  -30.0211   25.5080 C   0  0  0  0  0  0  0  0  0  0  0  0
  -28.5334  -26.5336   25.4116 C   0  0  0  0  0  0  0  0  0  0  0  0
  -26.2647  -17.1111   19.5717 C   0  0  0  0  0  0  0  0  0  0  0  0
  -26.6065  -37.0345   24.5117 C   0  0  0  0  0  0  0  0  0  0  0  0
  -24.0592  -30.5538   24.6762 C   0  0  0  0  0  0  0  0  0  0  0  0
  -26.3298  -29.0008   23.5911 C   0  0  0  0  0  0  0  0  0  0  0  0
  -27.4690  -35.7758   24.5568 C   0  0  0  0  0  0  0  0  0  0  0  0
  -28.3488  -14.7284   17.9523 C   0  0  0  0  0  0  0  0  0  0  0  0
  -22.6171  -23.1292   20.7928 C   0  0  0  0  0  0  0  0  0  0  0  0
  -27.2683  -34.9455   23.2930 C   0  0  0  0  0  0  0  0  0  0  0  0
  -28.0230  -13.4577   18.7364 C   0  0  0  0  0  0  0  0  0  0  0  0
  -22.3062  -24.6135   20.6532 C   0  0  0  0  0  0  0  0  0  0  0  0
  -27.1068  -15.5874   17.7127 C   0  0  0  0  0  0  0  0  0  0  0  0
  -26.0294  -14.6440   19.7309 C   0  0  0  0  0  0  0  0  0  0  0  0
  -23.6920  -22.6849   19.8110 C   0  0  0  0  0  0  0  0  0  0  0  0
  -24.6437  -25.0053   19.7916 C   0  0  0  0  0  0  0  0  0  0  0  0
  -25.8127  -34.4806   23.1637 C   0  0  1  0  0  0  0  0  0  0  0  0
  -25.4964  -31.0555   24.7768 C   0  0  1  0  0  0  0  0  0  0  0  0
  -27.2691  -13.7890   20.0364 C   0  0  1  0  0  0  0  0  0  0  0  0
  -23.5696  -25.4605   20.7707 C   0  0  1  0  0  0  0  0  0  1  0  0
  -27.8724  -23.2090   21.4293 C   0  0  0  0  0  0  0  0  0  0  0  0
  -28.6403  -18.3009   21.1484 C   0  0  0  0  0  0  0  0  0  0  0  0
  -29.1538  -24.9581   27.2637 C   0  0  0  0  0  0  0  0  0  0  0  0
  -30.4811  -30.8225   24.8382 C   0  0  0  0  0  0  0  0  0  0  0  0
  -31.1658  -28.4490   25.2456 C   0  0  0  0  0  0  0  0  0  0  0  0
  -30.1857  -29.7984   27.1006 C   0  0  0  0  0  0  0  0  0  0  0  0
  -26.9451  -18.1236   17.4067 C   0  0  0  0  0  0  0  0  0  0  0  0
  -26.4380  -24.5978   24.6235 C   0  0  0  0  0  0  0  0  0  0  0  0
  -26.0592  -23.0660   19.1264 C   0  0  0  0  0  0  0  0  0  0  0  0
  -28.6910  -29.0022   25.2233 C   0  0  1  0  0  0  0  0  0  0  0  0
  -28.0437  -25.4386   26.3421 C   0  0  2  0  0  0  0  0  0  0  0  0
  -30.1108  -29.5242   25.5827 C   0  0  0  0  0  0  0  0  0  0  0  0
  -25.7255  -11.9536   20.6107 N   0  0  0  0  0  0  0  0  0  0  0  0
  -26.9183  -12.5369   20.8183 N   0  0  0  0  0  0  0  0  0  0  0  0
  -26.4801  -29.9747   24.6848 N   0  0  0  0  0  0  0  0  0  0  0  0
  -26.3987  -15.8432   18.9749 N   0  0  0  0  0  0  0  0  0  0  0  0
  -28.9187  -12.3517   22.0731 N   0  0  0  0  0  0  0  0  0  0  0  0
  -27.0570  -10.1049   24.4981 N   0  0  0  0  0  0  0  0  0  0  0  0
  -25.5591  -33.3621   24.0464 N   0  0  0  0  0  0  0  0  0  0  0  0
  -28.3029  -27.7886   25.9340 N   0  0  0  0  0  0  0  0  0  0  0  0
  -26.8384  -18.1919   18.8681 N   0  0  0  0  0  0  0  0  0  0  0  0
  -24.9248  -23.5380   19.9936 N   0  3  2  0  0  0  0  0  0  0  0  0
  -27.5485  -24.2736   25.5556 N   0  3  0  0  0  0  0  0  0  0  0  0
  -27.9915   -8.8204   22.8442 O   0  0  0  0  0  0  0  0  0  0  0  0
  -26.3240  -31.6625   22.6504 O   0  0  0  0  0  0  0  0  0  0  0  0
  -27.7702  -30.8239   26.4315 O   0  0  0  0  0  0  0  0  0  0  0  0
  -29.0702  -26.2989   24.3312 O   0  0  0  0  0  0  0  0  0  0  0  0
  -25.6569  -17.2693   20.6372 O   0  0  0  0  0  0  0  0  0  0  0  0
  -21.3755   -7.4373   21.7212 O   0  0  0  0  0  0  0  0  0  0  0  0
  -23.2289  -26.8166   20.5006 O   0  0  0  0  0  0  0  0  0  1  0  0
  -22.1173   -2.5610   24.1861 F   0  0  0  0  0  0  0  0  0  0  0  0
  -22.1590   -7.2908   24.3683 F   0  0  0  0  0  0  0  0  0  0  0  0
  1  2  1  0  0  0  0
  1  5  2  0  0  0  0
  2  6  2  0  0  0  0
  3  8  2  0  0  0  0
  3 17  1  0  0  0  0
  4  9  1  0  0  0  0
  4 17  2  0  0  0  0
  5 19  1  0  0  0  0
  6 21  1  0  0  0  0
  7 10  2  0  0  0  0
  7 20  1  0  0  0  0
  8 27  1  0  0  0  0
  9 27  2  0  0  0  0
 10 28  1  0  0  0  0
 11 12  2  0  0  0  0
 11 29  1  0  0  0  0
 12 30  1  0  0  0  0
 13 22  1  0  0  0  0
 13 28  2  0  0  0  0
 14 23  1  0  0  0  0
 14 24  2  0  0  0  0
 15 25  1  0  0  0  0
 15 26  2  0  0  0  0
 16 30  2  0  0  0  0
 16 31  1  0  0  0  0
 17 32  1  0  0  0  0
 18 32  1  0  0  0  0
 18 33  2  0  0  0  0
 18 34  1  0  0  0  0
 19 21  2  0  0  0  0
 19 39  1  0  0  0  0
 20 22  2  0  0  0  0
 20 40  1  0  0  0  0
 21 52  1  0  0  0  0
 22 41  1  0  0  0  0
 23 25  2  0  0  0  0
 23 56  1  0  0  0  0
 24 26  1  0  0  0  0
 24 57  1  0  0  0  0
 25 64  1  0  0  0  0
 26 76  1  0  0  0  0
 27 84  1  0  0  0  0
 28 85  1  0  0  0  0
 29 31  2  0  0  0  0
 29 84  1  0  0  0  0
 30 86  1  0  0  0  0
 31 87  1  0  0  0  0
 32 68  2  0  0  0  0
 33 69  1  0  0  0  0
 33 72  1  0  0  0  0
 34 73  1  0  0  0  0
 34 79  2  0  0  0  0
 35 53  1  0  0  0  0
 35 74  1  0  0  0  0
 35 80  2  0  0  0  0
 36 65  1  0  0  0  0
 36 70  1  0  0  0  0
 36 81  2  0  0  0  0
 37 66  1  0  0  0  0
 37 75  1  0  0  0  0
 37 82  2  0  0  0  0
 38 71  1  0  0  0  0
 38 76  1  0  0  0  0
 38 83  2  0  0  0  0
 39 42  1  0  0  0  0
 40 53  1  0  0  0  0
 41 70  1  0  0  0  0
 42 45  1  0  0  0  0
 43 46  1  0  0  0  0
 43 48  1  0  0  0  0
 44 47  1  0  0  0  0
 44 50  1  0  0  0  0
 45 52  1  0  0  0  0
 46 54  1  0  0  0  0
 47 55  1  0  0  0  0
 48 71  1  0  0  0  0
 49 54  1  0  0  0  0
 49 71  1  0  0  0  0
 50 77  1  0  0  0  0
 51 55  1  0  0  0  0
 51 77  1  0  0  0  0
 52 74  1  0  0  0  0
 53 70  1  0  0  0  0
 54 69  1  0  0  0  0
 55 85  1  0  0  0  0
 58 66  1  0  0  0  0
 59 67  1  0  0  0  0
 60 67  1  0  0  0  0
 61 67  1  0  0  0  0
 62 76  1  0  0  0  0
 63 78  1  0  0  0  0
 64 77  1  0  0  0  0
 65 67  1  0  0  0  0
 65 75  1  0  0  0  0
 66 78  1  0  0  0  0
 68 69  1  0  0  0  0
M  CHG  2  77   1  78   1
M  ISO  4  38 100  55 101  76 100  85 101
M  END
> <Batch ID>
0034

> <Smiles>
CNC(C)C(=O)NC(C(=O)N1Cc2cc([101O:1][101CH:1]3CCCN(Cc4cc([100N:0](C)[100C:0](=O)N5CCCC(n6nc(-c7ccc(Oc8ccc(F)cc8F)cc7)c(C(N)=O)c6N)C5)c(C)cc4C)C3)ccc2CC1C(=O)NC1CCCc2ccccc21)C(C)(C)C

> <Shape>
0.268

> <Color>
0.070

> <Negative vol penalty>
0.000

$$$$

  -OEChem-04042321483D

 87 96  0     1  0  0  0  0  0999 V2000
  -37.5481  -29.8247   24.3953 C   0  0  0  0  0  0  0  0  0  0  0  0
  -37.0518  -28.6394   24.9283 C   0  0  0  0  0  0  0  0  0  0  0  0
  -23.2677   -9.7664   20.1164 C   0  0  0  0  0  0  0  0  0  0  0  0
  -23.9698  -10.0265   22.4134 C   0  0  0  0  0  0  0  0  0  0  0  0
  -36.7598  -30.5827   23.5304 C   0  0  0  0  0  0  0  0  0  0  0  0
  -35.7664  -28.2120   24.5977 C   0  0  0  0  0  0  0  0  0  0  0  0
  -35.5854  -23.2730   23.4938 C   0  0  0  0  0  0  0  0  0  0  0  0
  -22.6080   -8.5841   20.4518 C   0  0  0  0  0  0  0  0  0  0  0  0
  -23.3101   -8.8442   22.7489 C   0  0  0  0  0  0  0  0  0  0  0  0
  -35.5990  -22.3803   24.5646 C   0  0  0  0  0  0  0  0  0  0  0  0
  -20.1385   -7.8513   23.3620 C   0  0  0  0  0  0  0  0  0  0  0  0
  -19.3590   -7.8518   24.5186 C   0  0  0  0  0  0  0  0  0  0  0  0
  -33.2067  -22.1315   24.3797 C   0  0  0  0  0  0  0  0  0  0  0  0
  -32.5357  -15.1317   23.1051 C   0  0  0  0  0  0  0  0  0  0  0  0
  -20.7262   -6.0861   25.4407 C   0  0  0  0  0  0  0  0  0  0  0  0
  -23.9487  -10.4876   21.0971 C   0  0  0  0  0  0  0  0  0  0  0  0
  -24.1002  -13.0124   20.7659 C   0  0  0  0  0  0  0  0  0  0  0  0
  -35.4677  -30.1594   23.1814 C   0  0  0  0  0  0  0  0  0  0  0  0
  -34.3789  -23.6106   22.8638 C   0  0  0  0  0  0  0  0  0  0  0  0
  -34.9595  -28.9657   23.7284 C   0  0  0  0  0  0  0  0  0  0  0  0
  -33.1808  -23.0267   23.2995 C   0  0  0  0  0  0  0  0  0  0  0  0
  -33.2975  -15.5456   24.1977 C   0  0  0  0  0  0  0  0  0  0  0  0
  -31.2845  -16.2437   25.3368 C   0  0  0  0  0  0  0  0  0  0  0  0
  -32.6719  -16.1016   25.3136 C   0  0  0  0  0  0  0  0  0  0  0  0
  -30.5227  -15.8298   24.2441 C   0  0  0  0  0  0  0  0  0  0  0  0
  -31.1483  -15.2738   23.1282 C   0  0  0  0  0  0  0  0  0  0  0  0
  -22.6291   -8.1230   21.7681 C   0  0  0  0  0  0  0  0  0  0  0  0
  -34.4092  -21.8116   25.0096 C   0  0  0  0  0  0  0  0  0  0  0  0
  -21.2118   -6.9682   23.2446 C   0  0  0  0  0  0  0  0  0  0  0  0
  -19.6529   -6.9692   25.5580 C   0  0  0  0  0  0  0  0  0  0  0  0
  -21.5057   -6.0856   24.2839 C   0  0  0  0  0  0  0  0  0  0  0  0
  -24.6309  -11.7086   20.7511 C   0  0  0  0  0  0  0  0  0  0  0  0
  -25.1405  -13.8113   20.3584 C   0  0  0  0  0  0  0  0  0  0  0  0
  -34.4576  -18.4509   27.6779 C   0  0  0  0  0  0  0  0  0  0  0  0
  -34.0443  -18.2847   28.9399 C   0  0  0  0  0  0  0  0  0  0  0  0
  -22.7845  -13.4614   21.1167 C   0  0  0  0  0  0  0  0  0  0  0  0
  -32.7361  -26.3015   22.4589 C   0  0  0  0  0  0  0  0  0  0  0  0
  -30.8653  -24.4200   20.5929 C   0  0  0  0  0  0  0  0  0  0  0  0
  -29.5135  -21.0780   20.7402 C   0  0  0  0  0  0  0  0  0  0  0  0
  -30.8783  -14.2752   20.8313 C   0  0  0  0  0  0  0  0  0  0  0  0
  -34.6352  -31.0364   22.2799 C   0  0  0  0  0  0  0  0  0  0  0  0
  -34.3846  -24.5546   21.6928 C   0  0  0  0  0  0  0  0  0  0  0  0
  -31.8615  -23.3406   22.6442 C   0  0  0  0  0  0  0  0  0  0  0  0
  -35.6588  -19.2368   27.2540 C   0  0  0  0  0  0  0  0  0  0  0  0
  -33.4243  -30.3225   21.6847 C   0  0  0  0  0  0  0  0  0  0  0  0
  -29.3436  -13.0544   17.8594 C   0  0  0  0  0  0  0  0  0  0  0  0
  -32.6824  -29.5398   22.7635 C   0  0  0  0  0  0  0  0  0  0  0  0
  -27.9196  -12.7100   18.3019 C   0  0  0  0  0  0  0  0  0  0  0  0
  -30.3680  -12.7371   18.9474 C   0  0  0  0  0  0  0  0  0  0  0  0
  -28.6578  -12.9834   20.7034 C   0  0  0  0  0  0  0  0  0  0  0  0
  -34.3103  -18.6437   25.3485 C   0  0  0  0  0  0  0  0  0  0  0  0
  -33.5794  -28.4561   23.3740 C   0  0  1  0  0  0  0  0  0  0  0  0
  -33.0332  -25.2220   21.4568 C   0  0  1  0  0  0  0  0  0  0  0  0
  -27.5837  -13.3461   19.6650 C   0  0  2  0  0  0  0  0  0  0  0  0
  -35.1917  -19.7542   25.9024 C   0  0  1  0  0  0  0  0  0  1  0  0
  -34.7818  -15.3858   24.1462 C   0  0  0  0  0  0  0  0  0  0  0  0
  -30.6141  -16.8404   26.5341 C   0  0  0  0  0  0  0  0  0  0  0  0
  -29.0341  -15.9849   24.2707 C   0  0  0  0  0  0  0  0  0  0  0  0
  -28.8452  -19.5059   18.9019 C   0  0  0  0  0  0  0  0  0  0  0  0
  -28.0779  -25.5936   20.9965 C   0  0  0  0  0  0  0  0  0  0  0  0
  -27.1357  -23.3047   20.6208 C   0  0  0  0  0  0  0  0  0  0  0  0
  -28.4159  -24.4381   18.8045 C   0  0  0  0  0  0  0  0  0  0  0  0
  -31.2844  -18.9404   21.7666 C   0  0  0  0  0  0  0  0  0  0  0  0
  -33.4945  -16.5469   26.4866 C   0  0  0  0  0  0  0  0  0  0  0  0
  -29.6511  -23.5536   20.8253 C   0  0  1  0  0  0  0  0  0  0  0  0
  -29.9327  -19.8900   19.8932 C   0  0  2  0  0  0  0  0  0  0  0  0
  -28.3393  -24.2271   20.3323 C   0  0  0  0  0  0  0  0  0  0  0  0
  -25.9090  -11.6765   20.3646 N   0  0  0  0  0  0  0  0  0  0  0  0
  -26.1901  -12.9701   20.1327 N   0  0  0  0  0  0  0  0  0  0  0  0
  -31.9182  -24.2741   21.5072 N   0  0  0  0  0  0  0  0  0  0  0  0
  -29.9865  -13.3763   20.2087 N   0  0  0  0  0  0  0  0  0  0  0  0
  -25.2507  -15.1441   20.1745 N   0  0  0  0  0  0  0  0  0  0  0  0
  -21.8369  -12.5080   21.5135 N   0  0  0  0  0  0  0  0  0  0  0  0
  -30.3938  -14.8458   22.0078 N   0  0  0  0  0  0  0  0  0  0  0  0
  -33.6724  -27.3174   22.4856 N   0  0  0  0  0  0  0  0  0  0  0  0
  -29.9381  -22.2704   20.1932 N   0  0  0  0  0  0  0  0  0  0  0  0
  -33.6334  -18.0370   26.5749 N   0  3  1  0  0  0  0  0  0  0  0  0
  -30.2170  -18.7110   20.7592 N   0  3  0  0  0  0  0  0  0  0  0  0
  -22.4540  -14.6703   21.0637 O   0  0  0  0  0  0  0  0  0  0  0  0
  -31.7311  -26.2195   23.1552 O   0  0  0  0  0  0  0  0  0  0  0  0
  -30.8819  -25.1923   19.6312 O   0  0  0  0  0  0  0  0  0  0  0  0
  -28.8704  -20.9603   21.7808 O   0  0  0  0  0  0  0  0  0  0  0  0
  -31.9788  -14.5413   20.3414 O   0  0  0  0  0  0  0  0  0  0  0  0
  -21.9853   -6.9695   22.0959 O   0  0  0  0  0  0  0  0  0  0  0  0
  -34.4195  -20.9405   26.0551 O   0  0  0  0  0  0  0  0  0  1  0  0
  -18.9052   -6.9708   26.6694 F   0  0  0  0  0  0  0  0  0  0  0  0
  -22.5363   -5.2358   24.1774 F   0  0  0  0  0  0  0  0  0  0  0  0
  1  2  1  0  0  0  0
  1  5  2  0  0  0  0
  2  6  2  0  0  0  0
  3  8  2  0  0  0  0
  3 16  1  0  0  0  0
  4  9  1  0  0  0  0
  4 16  2  0  0  0  0
  5 18  1  0  0  0  0
  6 20  1  0  0  0  0
  7 10  2  0  0  0  0
  7 19  1  0  0  0  0
  8 27  1  0  0  0  0
  9 27  2  0  0  0  0
 10 28  1  0  0  0  0
 11 12  2  0  0  0  0
 11 29  1  0  0  0  0
 12 30  1  0  0  0  0
 13 21  1  0  0  0  0
 13 28  2  0  0  0  0
 14 22  2  0  0  0  0
 14 26  1  0  0  0  0
 15 30  2  0  0  0  0
 15 31  1  0  0  0  0
 16 32  1  0  0  0  0
 17 32  1  0  0  0  0
 17 33  2  0  0  0  0
 17 36  1  0  0  0  0
 18 20  2  0  0  0  0
 18 41  1  0  0  0  0
 19 21  2  0  0  0  0
 19 42  1  0  0  0  0
 20 52  1  0  0  0  0
 21 43  1  0  0  0  0
 22 24  1  0  0  0  0
 22 56  1  0  0  0  0
 23 24  2  0  0  0  0
 23 25  1  0  0  0  0
 23 57  1  0  0  0  0
 24 64  1  0  0  0  0
 25 26  2  0  0  0  0
 25 58  1  0  0  0  0
 26 74  1  0  0  0  0
 27 84  1  0  0  0  0
 28 85  1  0  0  0  0
 29 31  2  0  0  0  0
 29 84  1  0  0  0  0
 30 86  1  0  0  0  0
 31 87  1  0  0  0  0
 32 68  2  0  0  0  0
 33 69  1  0  0  0  0
 33 72  1  0  0  0  0
 34 35  2  0  0  0  0
 34 44  1  0  0  0  0
 34 77  1  0  0  0  0
 36 73  1  0  0  0  0
 36 79  2  0  0  0  0
 37 53  1  0  0  0  0
 37 75  1  0  0  0  0
 37 80  2  0  0  0  0
 38 65  1  0  0  0  0
 38 70  1  0  0  0  0
 38 81  2  0  0  0  0
 39 66  1  0  0  0  0
 39 76  1  0  0  0  0
 39 82  2  0  0  0  0
 40 71  1  0  0  0  0
 40 74  1  0  0  0  0
 40 83  2  0  0  0  0
 41 45  1  0  0  0  0
 42 53  1  0  0  0  0
 43 70  1  0  0  0  0
 44 55  1  0  0  0  0
 45 47  1  0  0  0  0
 46 48  1  0  0  0  0
 46 49  1  0  0  0  0
 47 52  1  0  0  0  0
 48 54  1  0  0  0  0
 49 71  1  0  0  0  0
 50 54  1  0  0  0  0
 50 71  1  0  0  0  0
 51 55  1  0  0  0  0
 51 77  1  0  0  0  0
 52 75  1  0  0  0  0
 53 70  1  0  0  0  0
 54 69  1  0  0  0  0
 55 85  1  0  0  0  0
 59 66  1  0  0  0  0
 60 67  1  0  0  0  0
 61 67  1  0  0  0  0
 62 67  1  0  0  0  0
 63 78  1  0  0  0  0
 64 77  1  0  0  0  0
 65 67  1  0  0  0  0
 65 76  1  0  0  0  0
 66 78  1  0  0  0  0
 68 69  1  0  0  0  0
M  CHG  2  77   1  78   1
M  ISO  4  40 100  55 101  74 100  85 101
M  END
> <Batch ID>
0034

> <Smiles>
C=C1C[101CH:1]([101O:1]c2ccc3c(c2)CN(C(=O)C(NC(=O)C(C)NC)C(C)(C)C)C(C(=O)NC2CCCc4ccccc42)C3)CN1Cc1c(C)cc([100NH:0][100C:0](=O)N2CCCC(n3nc(-c4ccc(Oc5ccc(F)cc5F)cc4)c(C(N)=O)c3N)C2)c(C)c1C

> <Shape>
0.216

> <Color>
0.199

> <Negative vol penalty>
0.000

$$$$

  -OEChem-04042321483D

 84 93  0     1  0  0  0  0  0999 V2000
  -25.8014  -29.6625   24.2091 C   0  0  0  0  0  0  0  0  0  0  0  0
  -26.0634  -28.4911   23.5059 C   0  0  0  0  0  0  0  0  0  0  0  0
  -22.8792  -10.3188   19.8638 C   0  0  0  0  0  0  0  0  0  0  0  0
  -23.8073   -9.7834   22.0293 C   0  0  0  0  0  0  0  0  0  0  0  0
  -24.9842  -30.6430   23.6482 C   0  0  0  0  0  0  0  0  0  0  0  0
  -25.5073  -28.2990   22.2416 C   0  0  0  0  0  0  0  0  0  0  0  0
  -28.8528  -26.4790   18.9040 C   0  0  0  0  0  0  0  0  0  0  0  0
  -22.0314   -9.2150   19.9542 C   0  0  0  0  0  0  0  0  0  0  0  0
  -22.9594   -8.6795   22.1197 C   0  0  0  0  0  0  0  0  0  0  0  0
  -29.1459  -25.1178   18.9739 C   0  0  0  0  0  0  0  0  0  0  0  0
  -19.7172   -8.0856   22.8652 C   0  0  0  0  0  0  0  0  0  0  0  0
  -19.0518   -7.8787   24.0735 C   0  0  0  0  0  0  0  0  0  0  0  0
  -27.6426  -24.7057   17.1328 C   0  0  0  0  0  0  0  0  0  0  0  0
  -32.3166  -17.7376   20.8129 C   0  0  0  0  0  0  0  0  0  0  0  0
  -30.0548  -19.3270   21.1883 C   0  0  0  0  0  0  0  0  0  0  0  0
  -20.1195   -5.7224   24.2921 C   0  0  0  0  0  0  0  0  0  0  0  0
  -23.7672  -10.6031   20.9013 C   0  0  0  0  0  0  0  0  0  0  0  0
  -24.3812  -13.0551   21.2454 C   0  0  0  0  0  0  0  0  0  0  0  0
  -24.4257  -30.4671   22.3724 C   0  0  0  0  0  0  0  0  0  0  0  0
  -27.9426  -26.9632   17.9534 C   0  0  0  0  0  0  0  0  0  0  0  0
  -24.6808  -29.2775   21.6637 C   0  0  0  0  0  0  0  0  0  0  0  0
  -27.3417  -26.0739   17.0512 C   0  0  0  0  0  0  0  0  0  0  0  0
  -32.1908  -18.9449   20.1259 C   0  0  0  0  0  0  0  0  0  0  0  0
  -31.3114  -17.3249   21.6877 C   0  0  0  0  0  0  0  0  0  0  0  0
  -31.0599  -19.7396   20.3135 C   0  0  0  0  0  0  0  0  0  0  0  0
  -22.0715   -8.3953   21.0822 C   0  0  0  0  0  0  0  0  0  0  0  0
  -28.5386  -24.2305   18.0902 C   0  0  0  0  0  0  0  0  0  0  0  0
  -20.5837   -7.1109   22.3702 C   0  0  0  0  0  0  0  0  0  0  0  0
  -19.2530   -6.6971   24.7870 C   0  0  0  0  0  0  0  0  0  0  0  0
  -20.7849   -5.9294   23.0837 C   0  0  0  0  0  0  0  0  0  0  0  0
  -30.1806  -18.1196   21.8753 C   0  0  0  0  0  0  0  0  0  0  0  0
  -24.6437  -11.7429   20.8083 C   0  0  0  0  0  0  0  0  0  0  0  0
  -25.5200  -13.7559   20.9316 C   0  0  0  0  0  0  0  0  0  0  0  0
  -23.2125  -13.5924   21.8787 C   0  0  0  0  0  0  0  0  0  0  0  0
  -25.1459  -28.4677   18.0886 C   0  0  0  0  0  0  0  0  0  0  0  0
  -25.5222  -28.6361   14.8711 C   0  0  0  0  0  0  0  0  0  0  0  0
  -26.9519  -27.3533   12.0503 C   0  0  0  0  0  0  0  0  0  0  0  0
  -31.0819  -14.1889   20.7820 C   0  0  0  0  0  0  0  0  0  0  0  0
  -23.5103  -31.5345   21.8272 C   0  0  0  0  0  0  0  0  0  0  0  0
  -27.6576  -28.4379   17.8735 C   0  0  0  0  0  0  0  0  0  0  0  0
  -26.3729  -26.5457   15.9989 C   0  0  0  0  0  0  0  0  0  0  0  0
  -23.2635  -31.4165   20.3254 C   0  0  0  0  0  0  0  0  0  0  0  0
  -29.5048  -12.4633   18.0966 C   0  0  0  0  0  0  0  0  0  0  0  0
  -22.9427  -29.9735   19.9489 C   0  0  0  0  0  0  0  0  0  0  0  0
  -28.0805  -12.2250   18.6012 C   0  0  0  0  0  0  0  0  0  0  0  0
  -30.5296  -12.3452   19.2225 C   0  0  0  0  0  0  0  0  0  0  0  0
  -28.8333  -12.9539   20.9035 C   0  0  0  0  0  0  0  0  0  0  0  0
  -30.2225  -22.1012   20.0850 C   0  0  0  0  0  0  0  0  0  0  0  0
  -30.6000  -21.1212   18.2616 C   0  0  0  0  0  0  0  0  0  0  0  0
  -24.1161  -29.0432   20.2793 C   0  0  1  0  0  0  0  0  0  0  0  0
  -26.3246  -28.7533   17.2017 C   0  0  1  0  0  0  0  0  0  0  0  0
  -27.7590  -13.1177   19.8149 C   0  0  2  0  0  0  0  0  0  0  0  0
  -30.1232  -22.5370   18.6164 C   0  0  0  0  0  0  0  0  0  1  0  0
  -33.2815  -19.3623   19.1938 C   0  0  0  0  0  0  0  0  0  0  0  0
  -27.0416  -27.6802    9.5638 C   0  0  0  0  0  0  0  0  0  0  0  0
  -22.7594  -27.3682   14.6073 C   0  0  0  0  0  0  0  0  0  0  0  0
  -23.2999  -26.8548   12.2172 C   0  0  0  0  0  0  0  0  0  0  0  0
  -23.2140  -29.2239   12.9936 C   0  0  0  0  0  0  0  0  0  0  0  0
  -29.8658  -27.8681   12.1064 C   0  0  0  0  0  0  0  0  0  0  0  0
  -31.4835  -16.0242   22.4036 C   0  0  0  0  0  0  0  0  0  0  0  0
  -25.1465  -27.7563   13.7033 C   0  0  1  0  0  0  0  0  0  0  0  0
  -27.6842  -28.0199   10.8997 C   0  0  2  0  0  0  0  0  0  0  0  0
  -23.6217  -27.7913   13.4013 C   0  0  0  0  0  0  0  0  0  0  0  0
  -25.8542  -11.6151   20.2584 N   0  0  0  0  0  0  0  0  0  0  0  0
  -26.3624  -12.8560   20.3479 N   0  0  0  0  0  0  0  0  0  0  0  0
  -30.9182  -20.9456   19.6360 N   0  0  0  0  0  0  0  0  0  0  0  0
  -26.1218  -27.9960   15.9650 N   0  0  0  0  0  0  0  0  0  0  0  0
  -30.1674  -13.2178   20.3420 N   0  0  0  0  0  0  0  0  0  0  0  0
  -25.8728  -15.0479   21.1006 N   0  0  0  0  0  0  0  0  0  0  0  0
  -22.1332  -12.7338   22.1281 N   0  0  0  0  0  0  0  0  0  0  0  0
  -25.1560  -29.1669   19.2804 N   0  0  0  0  0  0  0  0  0  0  0  0
  -25.9864  -28.1782   12.5876 N   0  0  0  0  0  0  0  0  0  0  0  0
  -30.6570  -14.9781   21.8437 N   0  0  0  0  0  0  0  0  0  0  0  0
  -29.1061  -27.5754   10.8637 N   0  3  0  0  0  0  0  0  0  0  0  0
  -23.1214  -14.8019   22.1986 O   0  0  0  0  0  0  0  0  0  0  0  0
  -24.2897  -27.6729   17.7184 O   0  0  0  0  0  0  0  0  0  0  0  0
  -25.2985  -29.8477   14.8120 O   0  0  0  0  0  0  0  0  0  0  0  0
  -27.2081  -26.2134   12.4317 O   0  0  0  0  0  0  0  0  0  0  0  0
  -32.1926  -14.3449   20.2633 O   0  0  0  0  0  0  0  0  0  0  0  0
  -21.2441   -7.3182   21.1708 O   0  0  0  0  0  0  0  0  0  0  0  0
  -28.8223  -22.9012   18.1567 O   0  0  0  0  0  0  0  0  0  1  0  0
  -18.6152   -6.4992   25.9481 F   0  0  0  0  0  0  0  0  0  0  0  0
  -21.6170   -4.9899   22.6139 F   0  0  0  0  0  0  0  0  0  0  0  0
  -28.9177  -17.6417   22.9507 Cl  0  0  0  0  0  0  0  0  0  0  0  0
  1  2  1  0  0  0  0
  1  5  2  0  0  0  0
  2  6  2  0  0  0  0
  3  8  2  0  0  0  0
  3 17  1  0  0  0  0
  4  9  1  0  0  0  0
  4 17  2  0  0  0  0
  5 19  1  0  0  0  0
  6 21  1  0  0  0  0
  7 10  2  0  0  0  0
  7 20  1  0  0  0  0
  8 26  1  0  0  0  0
  9 26  2  0  0  0  0
 10 27  1  0  0  0  0
 11 12  2  0  0  0  0
 11 28  1  0  0  0  0
 12 29  1  0  0  0  0
 13 22  1  0  0  0  0
 13 27  2  0  0  0  0
 14 23  1  0  0  0  0
 14 24  2  0  0  0  0
 15 25  1  0  0  0  0
 15 31  2  0  0  0  0
 16 29  2  0  0  0  0
 16 30  1  0  0  0  0
 17 32  1  0  0  0  0
 18 32  1  0  0  0  0
 18 33  2  0  0  0  0
 18 34  1  0  0  0  0
 19 21  2  0  0  0  0
 19 39  1  0  0  0  0
 20 22  2  0  0  0  0
 20 40  1  0  0  0  0
 21 50  1  0  0  0  0
 22 41  1  0  0  0  0
 23 25  2  0  0  0  0
 23 54  1  0  0  0  0
 24 31  1  0  0  0  0
 24 60  1  0  0  0  0
 25 66  1  0  0  0  0
 26 80  1  0  0  0  0
 27 81  1  0  0  0  0
 28 30  2  0  0  0  0
 28 80  1  0  0  0  0
 29 82  1  0  0  0  0
 30 83  1  0  0  0  0
 31 84  1  0  0  0  0
 32 64  2  0  0  0  0
 33 65  1  0  0  0  0
 33 69  1  0  0  0  0
 34 70  1  0  0  0  0
 34 75  2  0  0  0  0
 35 51  1  0  0  0  0
 35 71  1  0  0  0  0
 35 76  2  0  0  0  0
 36 61  1  0  0  0  0
 36 67  1  0  0  0  0
 36 77  2  0  0  0  0
 37 62  1  0  0  0  0
 37 72  1  0  0  0  0
 37 78  2  0  0  0  0
 38 68  1  0  0  0  0
 38 73  1  0  0  0  0
 38 79  2  0  0  0  0
 39 42  1  0  0  0  0
 40 51  1  0  0  0  0
 41 67  1  0  0  0  0
 42 44  1  0  0  0  0
 43 45  1  0  0  0  0
 43 46  1  0  0  0  0
 44 50  1  0  0  0  0
 45 52  1  0  0  0  0
 46 68  1  0  0  0  0
 47 52  1  0  0  0  0
 47 68  1  0  0  0  0
 48 53  1  0  0  0  0
 48 66  1  0  0  0  0
 49 53  1  0  0  0  0
 49 66  1  0  0  0  0
 50 71  1  0  0  0  0
 51 67  1  0  0  0  0
 52 65  1  0  0  0  0
 53 81  1  0  0  0  0
 55 62  1  0  0  0  0
 56 63  1  0  0  0  0
 57 63  1  0  0  0  0
 58 63  1  0  0  0  0
 59 74  1  0  0  0  0
 60 73  1  0  0  0  0
 61 63  1  0  0  0  0
 61 72  1  0  0  0  0
 62 74  1  0  0  0  0
 64 65  1  0  0  0  0
M  CHG  1  74   1
M  ISO  4  38 100  53 101  73 100  81 101
M  END
> <Batch ID>
0034

> <Smiles>
CNC(C)C(=O)NC(C(=O)N1Cc2cc([101O:1][101CH:1]3CN(c4cc(Cl)c(C[100NH:0][100C:0](=O)N5CCCC(n6nc(-c7ccc(Oc8ccc(F)cc8F)cc7)c(C(N)=O)c6N)C5)cc4C)C3)ccc2CC1C(=O)NC1CCCc2ccccc21)C(C)(C)C

> <Shape>
0.272

> <Color>
0.173

> <Negative vol penalty>
0.000

$$$$

  -OEChem-04042321483D

 85 93  0     1  0  0  0  0  0999 V2000
  -16.6644  -28.9940   24.0884 C   0  0  0  0  0  0  0  0  0  0  0  0
  -17.2719  -29.8633   23.1895 C   0  0  0  0  0  0  0  0  0  0  0  0
  -24.2930  -13.9475   21.9061 C   0  0  0  0  0  0  0  0  0  0  0  0
  -26.4703  -13.8283   20.8659 C   0  0  0  0  0  0  0  0  0  0  0  0
  -17.4325  -28.0501   24.7667 C   0  0  0  0  0  0  0  0  0  0  0  0
  -18.6457  -29.7811   22.9596 C   0  0  0  0  0  0  0  0  0  0  0  0
  -26.3666  -29.8274   19.8312 C   0  0  0  0  0  0  0  0  0  0  0  0
  -30.2336  -23.2876   15.5211 C   0  0  0  0  0  0  0  0  0  0  0  0
  -24.2670  -12.5569   22.0112 C   0  0  0  0  0  0  0  0  0  0  0  0
  -26.4444  -12.4376   20.9711 C   0  0  0  0  0  0  0  0  0  0  0  0
  -27.4917  -29.0184   19.9844 C   0  0  0  0  0  0  0  0  0  0  0  0
  -23.6527   -9.9178   19.9908 C   0  0  0  0  0  0  0  0  0  0  0  0
  -22.4754   -9.2631   19.6289 C   0  0  0  0  0  0  0  0  0  0  0  0
  -29.5509  -22.4910   14.6018 C   0  0  0  0  0  0  0  0  0  0  0  0
  -26.0786  -27.0633   19.9832 C   0  0  0  0  0  0  0  0  0  0  0  0
  -22.2908   -8.3606   21.8624 C   0  0  0  0  0  0  0  0  0  0  0  0
  -25.3946  -14.5832   21.3334 C   0  0  0  0  0  0  0  0  0  0  0  0
  -25.9235  -16.9348   22.1688 C   0  0  0  0  0  0  0  0  0  0  0  0
  -18.8183  -27.9652   24.5538 C   0  0  0  0  0  0  0  0  0  0  0  0
  -25.0860  -29.2602   19.7637 C   0  0  0  0  0  0  0  0  0  0  0  0
  -19.4343  -28.8193   23.6166 C   0  0  0  0  0  0  0  0  0  0  0  0
  -24.9391  -27.8671   19.8266 C   0  0  0  0  0  0  0  0  0  0  0  0
  -29.8919  -23.2420   16.8727 C   0  0  0  0  0  0  0  0  0  0  0  0
  -28.8674  -22.3999   17.3050 C   0  0  0  0  0  0  0  0  0  0  0  0
  -28.1846  -21.6033   16.3858 C   0  0  0  0  0  0  0  0  0  0  0  0
  -25.3427  -11.8019   21.5437 C   0  0  0  0  0  0  0  0  0  0  0  0
  -27.3476  -27.6363   20.0633 C   0  0  0  0  0  0  0  0  0  0  0  0
  -24.1492   -9.7938   21.2884 C   0  0  0  0  0  0  0  0  0  0  0  0
  -21.7944   -8.4846   20.5647 C   0  0  0  0  0  0  0  0  0  0  0  0
  -23.4682   -9.0152   22.2242 C   0  0  0  0  0  0  0  0  0  0  0  0
  -28.5264  -21.6489   15.0342 C   0  0  0  0  0  0  0  0  0  0  0  0
  -25.4218  -16.0197   21.2240 C   0  0  0  0  0  0  0  0  0  0  0  0
  -25.7184  -18.1664   21.5964 C   0  0  0  0  0  0  0  0  0  0  0  0
  -26.5215  -16.6933   23.4493 C   0  0  0  0  0  0  0  0  0  0  0  0
  -22.4487  -29.4592   21.5269 C   0  0  0  0  0  0  0  0  0  0  0  0
  -21.1826  -27.6708   19.1351 C   0  0  0  0  0  0  0  0  0  0  0  0
  -22.2129  -24.8619   17.1186 C   0  0  0  0  0  0  0  0  0  0  0  0
  -25.8052  -20.7778   16.4453 C   0  0  0  0  0  0  0  0  0  0  0  0
  -19.6003  -26.9195   25.3089 C   0  0  0  0  0  0  0  0  0  0  0  0
  -23.8848  -30.1448   19.5715 C   0  0  0  0  0  0  0  0  0  0  0  0
  -23.5880  -27.2074   19.7388 C   0  0  0  0  0  0  0  0  0  0  0  0
  -21.0992  -27.2009   25.3338 C   0  0  0  0  0  0  0  0  0  0  0  0
  -22.7456  -19.9069   18.0444 C   0  0  0  0  0  0  0  0  0  0  0  0
  -21.5950  -27.5012   23.9272 C   0  0  0  0  0  0  0  0  0  0  0  0
  -23.1711  -18.9051   19.1203 C   0  0  0  0  0  0  0  0  0  0  0  0
  -23.5662  -19.7487   16.7657 C   0  0  0  0  0  0  0  0  0  0  0  0
  -25.4477  -18.7834   18.0297 C   0  0  0  0  0  0  0  0  0  0  0  0
  -20.9318  -28.7686   23.3733 C   0  0  1  0  0  0  0  0  0  0  0  0
  -22.5837  -29.4939   20.0309 C   0  0  1  0  0  0  0  0  0  0  0  0
  -24.6932  -18.9473   19.3592 C   0  0  2  0  0  0  0  0  0  0  0  0
  -28.7362  -20.9643   19.3727 C   0  0  0  0  0  0  0  0  0  0  0  0
  -27.0636  -22.8163   19.0159 C   0  0  0  0  0  0  0  0  0  0  0  0
  -21.5210  -24.1719   14.8072 C   0  0  0  0  0  0  0  0  0  0  0  0
  -19.1454  -25.9191   20.5813 C   0  0  0  0  0  0  0  0  0  0  0  0
  -19.5522  -24.1464   18.8607 C   0  0  0  0  0  0  0  0  0  0  0  0
  -18.6228  -26.3575   18.1752 C   0  0  0  0  0  0  0  0  0  0  0  0
  -25.0141  -24.8298   16.1642 C   0  0  0  0  0  0  0  0  0  0  0  0
  -30.6419  -24.1098   17.8397 C   0  0  0  0  0  0  0  0  0  0  0  0
  -30.5513  -26.1369   19.2963 C   0  0  0  0  0  0  0  0  0  0  0  0
  -29.6680  -27.3165   19.6520 C   0  0  0  0  0  0  0  0  0  1  0  0
  -28.5085  -22.3558   18.7577 C   0  0  0  0  0  0  0  0  0  0  0  0
  -21.0508  -26.1922   18.8606 C   0  0  1  0  0  0  0  0  0  0  0  0
  -22.5718  -24.8851   15.6438 C   0  0  2  0  0  0  0  0  0  0  0  0
  -19.6143  -25.6642   19.1349 C   0  0  0  0  0  0  0  0  0  0  0  0
  -24.9346  -16.6187   20.1342 N   0  0  0  0  0  0  0  0  0  0  0  0
  -25.1290  -17.9235   20.3906 N   0  0  0  0  0  0  0  0  0  0  0  0
  -22.4434  -28.1154   19.5574 N   0  0  0  0  0  0  0  0  0  0  0  0
  -24.9980  -19.8030   17.0689 N   0  0  0  0  0  0  0  0  0  0  0  0
  -25.9865  -19.4225   22.0118 N   0  0  0  0  0  0  0  0  0  0  0  0
  -26.6560  -15.3678   23.8846 N   0  0  0  0  0  0  0  0  0  0  0  0
  -27.1437  -20.7539   16.8359 N   0  0  0  0  0  0  0  0  0  0  0  0
  -21.2652  -28.9021   21.9722 N   0  0  0  0  0  0  0  0  0  0  0  0
  -21.5108  -25.9887   17.4911 N   0  0  0  0  0  0  0  0  0  0  0  0
  -23.8845  -24.2161   15.4196 N   0  3  0  0  0  0  0  0  0  0  0  0
  -29.8581  -25.2907   18.2925 N   0  3  0  0  0  0  0  0  0  0  0  0
  -26.9096  -17.6260   24.1929 O   0  0  0  0  0  0  0  0  0  0  0  0
  -23.3521  -29.9036   22.2256 O   0  0  0  0  0  0  0  0  0  0  0  0
  -20.2048  -28.4053   18.9738 O   0  0  0  0  0  0  0  0  0  0  0  0
  -22.5210  -23.9352   17.8647 O   0  0  0  0  0  0  0  0  0  0  0  0
  -25.3378  -21.5927   15.6457 O   0  0  0  0  0  0  0  0  0  0  0  0
  -25.3177  -10.4449   21.6463 O   0  0  0  0  0  0  0  0  0  0  0  0
  -28.4440  -26.8444   20.2135 O   0  0  0  0  0  0  0  0  0  1  0  0
  -20.6630   -7.8572   20.2175 F   0  0  0  0  0  0  0  0  0  0  0  0
  -23.9396   -8.8933   23.4727 F   0  0  0  0  0  0  0  0  0  0  0  0
  -27.7125  -20.6775   13.8591 Cl  0  0  0  0  0  0  0  0  0  0  0  0
  1  2  1  0  0  0  0
  1  5  2  0  0  0  0
  2  6  2  0  0  0  0
  3  9  2  0  0  0  0
  3 17  1  0  0  0  0
  4 10  1  0  0  0  0
  4 17  2  0  0  0  0
  5 19  1  0  0  0  0
  6 21  1  0  0  0  0
  7 11  2  0  0  0  0
  7 20  1  0  0  0  0
  8 14  2  0  0  0  0
  8 23  1  0  0  0  0
  9 26  1  0  0  0  0
 10 26  2  0  0  0  0
 11 27  1  0  0  0  0
 12 13  2  0  0  0  0
 12 28  1  0  0  0  0
 13 29  1  0  0  0  0
 14 31  1  0  0  0  0
 15 22  1  0  0  0  0
 15 27  2  0  0  0  0
 16 29  2  0  0  0  0
 16 30  1  0  0  0  0
 17 32  1  0  0  0  0
 18 32  1  0  0  0  0
 18 33  2  0  0  0  0
 18 34  1  0  0  0  0
 19 21  2  0  0  0  0
 19 39  1  0  0  0  0
 20 22  2  0  0  0  0
 20 40  1  0  0  0  0
 21 48  1  0  0  0  0
 22 41  1  0  0  0  0
 23 24  2  0  0  0  0
 23 58  1  0  0  0  0
 24 25  1  0  0  0  0
 24 61  1  0  0  0  0
 25 31  2  0  0  0  0
 25 71  1  0  0  0  0
 26 81  1  0  0  0  0
 27 82  1  0  0  0  0
 28 30  2  0  0  0  0
 28 81  1  0  0  0  0
 29 83  1  0  0  0  0
 30 84  1  0  0  0  0
 31 85  1  0  0  0  0
 32 65  2  0  0  0  0
 33 66  1  0  0  0  0
 33 69  1  0  0  0  0
 34 70  1  0  0  0  0
 34 76  2  0  0  0  0
 35 49  1  0  0  0  0
 35 72  1  0  0  0  0
 35 77  2  0  0  0  0
 36 62  1  0  0  0  0
 36 67  1  0  0  0  0
 36 78  2  0  0  0  0
 37 63  1  0  0  0  0
 37 73  1  0  0  0  0
 37 79  2  0  0  0  0
 38 68  1  0  0  0  0
 38 71  1  0  0  0  0
 38 80  2  0  0  0  0
 39 42  1  0  0  0  0
 40 49  1  0  0  0  0
 41 67  1  0  0  0  0
 42 44  1  0  0  0  0
 43 45  1  0  0  0  0
 43 46  1  0  0  0  0
 44 48  1  0  0  0  0
 45 50  1  0  0  0  0
 46 68  1  0  0  0  0
 47 50  1  0  0  0  0
 47 68  1  0  0  0  0
 48 72  1  0  0  0  0
 49 67  1  0  0  0  0
 50 66  1  0  0  0  0
 51 61  1  0  0  0  0
 52 61  1  0  0  0  0
 53 63  1  0  0  0  0
 54 64  1  0  0  0  0
 55 64  1  0  0  0  0
 56 64  1  0  0  0  0
 57 74  1  0  0  0  0
 58 75  1  0  0  0  0
 59 60  1  0  0  0  0
 59 75  1  0  0  0  0
 60 82  1  0  0  0  0
 62 64  1  0  0  0  0
 62 73  1  0  0  0  0
 63 74  1  0  0  0  0
 65 66  1  0  0  0  0
M  CHG  2  74   1  75   1
M  ISO  4  38 100  60 101  71 100  82 101
M  END
> <Batch ID>
0034

> <Smiles>
CNC(C)C(=O)NC(C(=O)N1Cc2cc([101O:1][101CH2:1]CNCc3ccc(Cl)c([100NH:0][100C:0](=O)N4CCCC(n5nc(-c6ccc(Oc7ccc(F)cc7F)cc6)c(C(N)=O)c5N)C4)c3C(C)C)ccc2CC1C(=O)NC1CCCc2ccccc21)C(C)(C)C

> <Shape>
0.232

> <Color>
0.090

> <Negative vol penalty>
0.000

$$$$

  -OEChem-04042321483D

 90 99  0     1  0  0  0  0  0999 V2000
  -24.4706  -33.9322   27.0844 C   0  0  0  0  0  0  0  0  0  0  0  0
  -25.0329  -32.8800   27.8000 C   0  0  0  0  0  0  0  0  0  0  0  0
  -23.0773   -9.8650   19.9432 C   0  0  0  0  0  0  0  0  0  0  0  0
  -23.8339   -9.8776   22.2376 C   0  0  0  0  0  0  0  0  0  0  0  0
  -24.4713  -33.9048   25.6904 C   0  0  0  0  0  0  0  0  0  0  0  0
  -25.5952  -31.7990   27.1219 C   0  0  0  0  0  0  0  0  0  0  0  0
  -30.8894  -27.0050   27.6739 C   0  0  0  0  0  0  0  0  0  0  0  0
  -22.3332   -8.7124   20.1949 C   0  0  0  0  0  0  0  0  0  0  0  0
  -23.0898   -8.7250   22.4894 C   0  0  0  0  0  0  0  0  0  0  0  0
  -31.1058  -25.6286   27.6228 C   0  0  0  0  0  0  0  0  0  0  0  0
  -19.8609   -7.9282   23.0893 C   0  0  0  0  0  0  0  0  0  0  0  0
  -19.1023   -7.8910   24.2592 C   0  0  0  0  0  0  0  0  0  0  0  0
  -31.1208  -25.7266   25.2125 C   0  0  0  0  0  0  0  0  0  0  0  0
  -31.8868  -18.3530   24.1839 C   0  0  0  0  0  0  0  0  0  0  0  0
  -32.0618  -16.5977   22.5330 C   0  0  0  0  0  0  0  0  0  0  0  0
  -20.3429   -5.9555   25.0020 C   0  0  0  0  0  0  0  0  0  0  0  0
  -23.8277  -10.4476   20.9646 C   0  0  0  0  0  0  0  0  0  0  0  0
  -24.1694  -12.9725   20.8389 C   0  0  0  0  0  0  0  0  0  0  0  0
  -25.0425  -32.8275   24.9948 C   0  0  0  0  0  0  0  0  0  0  0  0
  -30.7761  -27.7520   26.4926 C   0  0  0  0  0  0  0  0  0  0  0  0
  -25.6023  -31.7565   25.7173 C   0  0  0  0  0  0  0  0  0  0  0  0
  -30.9055  -27.1127   25.2514 C   0  0  0  0  0  0  0  0  0  0  0  0
  -30.4995  -18.3508   24.0393 C   0  0  0  0  0  0  0  0  0  0  0  0
  -29.8933  -17.4720   23.1416 C   0  0  0  0  0  0  0  0  0  0  0  0
  -30.6744  -16.5954   22.3884 C   0  0  0  0  0  0  0  0  0  0  0  0
  -22.3394   -8.1424   21.4680 C   0  0  0  0  0  0  0  0  0  0  0  0
  -31.2186  -24.9888   26.3919 C   0  0  0  0  0  0  0  0  0  0  0  0
  -20.8605   -6.9790   22.8757 C   0  0  0  0  0  0  0  0  0  0  0  0
  -19.3433   -6.9047   25.2156 C   0  0  0  0  0  0  0  0  0  0  0  0
  -21.1015   -5.9927   23.8321 C   0  0  0  0  0  0  0  0  0  0  0  0
  -32.6680  -17.4764   23.4307 C   0  0  0  0  0  0  0  0  0  0  0  0
  -24.5970  -11.6379   20.7051 C   0  0  0  0  0  0  0  0  0  0  0  0
  -25.2620  -13.7212   20.4754 C   0  0  0  0  0  0  0  0  0  0  0  0
  -22.8983  -13.4892   21.2548 C   0  0  0  0  0  0  0  0  0  0  0  0
  -28.4904  -29.5185   25.1664 C   0  0  0  0  0  0  0  0  0  0  0  0
  -30.8162  -30.2141   23.0149 C   0  0  0  0  0  0  0  0  0  0  0  0
  -30.5601  -21.5290   25.5999 C   0  0  0  0  0  0  0  0  0  0  0  0
  -33.7415  -29.2999   21.5136 C   0  0  0  0  0  0  0  0  0  0  0  0
  -30.7278  -14.7679   20.6553 C   0  0  0  0  0  0  0  0  0  0  0  0
  -24.9773  -32.8199   23.4881 C   0  0  0  0  0  0  0  0  0  0  0  0
  -30.5693  -29.2401   26.5650 C   0  0  0  0  0  0  0  0  0  0  0  0
  -30.8116  -27.8725   23.9543 C   0  0  0  0  0  0  0  0  0  0  0  0
  -25.9279  -31.8151   22.8423 C   0  0  0  0  0  0  0  0  0  0  0  0
  -29.6170  -12.3482   18.2913 C   0  0  0  0  0  0  0  0  0  0  0  0
  -26.8679  -14.7546   24.9610 C   0  0  0  0  0  0  0  0  0  0  0  0
  -25.7551  -15.3951   24.1559 C   0  0  0  0  0  0  0  0  0  0  0  0
  -25.8339  -30.4641   23.5443 C   0  0  0  0  0  0  0  0  0  0  0  0
  -28.1768  -12.0575   18.7195 C   0  0  0  0  0  0  0  0  0  0  0  0
  -30.5304  -12.5800   19.4937 C   0  0  0  0  0  0  0  0  0  0  0  0
  -28.6214  -13.3076   20.8705 C   0  0  0  0  0  0  0  0  0  0  0  0
  -28.1094  -15.3837   24.3663 C   0  0  0  0  0  0  0  0  0  0  0  0
  -26.1816  -16.8470   24.0276 C   0  0  0  0  0  0  0  0  0  0  0  0
  -26.2441  -30.5781   25.0175 C   0  0  1  0  0  0  0  0  0  0  0  0
  -29.9566  -29.8208   25.2943 C   0  0  1  0  0  0  0  0  0  0  0  0
  -27.6503  -13.1314   19.6917 C   0  0  2  0  0  0  0  0  0  0  0  0
  -35.3785  -30.0527   19.7668 C   0  0  0  0  0  0  0  0  0  0  0  0
  -28.8793  -29.3386   20.8259 C   0  0  0  0  0  0  0  0  0  0  0  0
  -30.8248  -29.2013   19.2560 C   0  0  0  0  0  0  0  0  0  0  0  0
  -30.2070  -31.3879   20.2855 C   0  0  0  0  0  0  0  0  0  0  0  0
  -29.8286  -21.1516   23.2388 C   0  0  0  0  0  0  0  0  0  0  0  0
  -35.9459  -29.4593   23.4819 C   0  0  0  0  0  0  0  0  0  0  0  0
  -29.6820  -19.3043   24.8618 C   0  0  0  0  0  0  0  0  0  0  0  0
  -28.4044  -17.4730   22.9899 C   0  0  0  0  0  0  0  0  0  0  0  0
  -30.9066  -22.9499   25.2080 C   0  0  0  0  0  0  0  0  0  1  0  0
  -31.2880  -29.6056   21.7163 C   0  0  1  0  0  0  0  0  0  0  0  0
  -35.0201  -30.0728   21.2447 C   0  0  2  0  0  0  0  0  0  0  0  0
  -30.2997  -29.8684   20.5452 C   0  0  0  0  0  0  0  0  0  0  0  0
  -25.8625  -11.5413   20.2888 N   0  0  0  0  0  0  0  0  0  0  0  0
  -26.2394  -12.8246   20.1579 N   0  0  0  0  0  0  0  0  0  0  0  0
  -30.6027  -29.3247   24.0775 N   0  0  0  0  0  0  0  0  0  0  0  0
  -29.9701  -13.6129   20.3678 N   0  0  0  0  0  0  0  0  0  0  0  0
  -25.4724  -15.0525   20.3995 N   0  0  0  0  0  0  0  0  0  0  0  0
  -21.8860  -12.5807   21.5929 N   0  0  0  0  0  0  0  0  0  0  0  0
  -30.0792  -15.6948   21.4706 N   0  0  0  0  0  0  0  0  0  0  0  0
  -27.6849  -30.6410   25.1375 N   0  0  0  0  0  0  0  0  0  0  0  0
  -32.6339  -30.1208   21.4894 N   0  0  0  0  0  0  0  0  0  0  0  0
  -30.0445  -20.6960   24.6065 N   0  0  0  0  0  0  0  0  0  0  0  0
  -27.6955  -16.8201   24.1326 N   0  3  0  0  0  0  0  0  0  0  0  0
  -36.1535  -29.4819   22.0111 N   0  3  0  0  0  0  0  0  0  0  0  0
  -22.6618  -14.7199   21.3089 O   0  0  0  0  0  0  0  0  0  0  0  0
  -28.1175  -28.3532   25.0973 O   0  0  0  0  0  0  0  0  0  0  0  0
  -30.6504  -31.4343   23.0859 O   0  0  0  0  0  0  0  0  0  0  0  0
  -30.7537  -21.1714   26.7659 O   0  0  0  0  0  0  0  0  0  0  0  0
  -33.7264  -28.0885   21.7205 O   0  0  0  0  0  0  0  0  0  0  0  0
  -31.8576  -14.9356   20.1889 O   0  0  0  0  0  0  0  0  0  0  0  0
  -21.6133   -7.0178   21.7140 O   0  0  0  0  0  0  0  0  0  0  0  0
  -31.4292  -23.6453   26.3392 O   0  0  0  0  0  0  0  0  0  1  0  0
  -18.6158   -6.8701   26.3397 F   0  0  0  0  0  0  0  0  0  0  0  0
  -22.0612   -5.0788   23.6330 F   0  0  0  0  0  0  0  0  0  0  0  0
  -34.3797  -17.4803   23.6084 Cl  0  0  0  0  0  0  0  0  0  0  0  0
  1  2  1  0  0  0  0
  1  5  2  0  0  0  0
  2  6  2  0  0  0  0
  3  8  2  0  0  0  0
  3 17  1  0  0  0  0
  4  9  1  0  0  0  0
  4 17  2  0  0  0  0
  5 19  1  0  0  0  0
  6 21  1  0  0  0  0
  7 10  2  0  0  0  0
  7 20  1  0  0  0  0
  8 26  1  0  0  0  0
  9 26  2  0  0  0  0
 10 27  1  0  0  0  0
 11 12  2  0  0  0  0
 11 28  1  0  0  0  0
 12 29  1  0  0  0  0
 13 22  1  0  0  0  0
 13 27  2  0  0  0  0
 14 23  1  0  0  0  0
 14 31  2  0  0  0  0
 15 25  2  0  0  0  0
 15 31  1  0  0  0  0
 16 29  2  0  0  0  0
 16 30  1  0  0  0  0
 17 32  1  0  0  0  0
 18 32  1  0  0  0  0
 18 33  2  0  0  0  0
 18 34  1  0  0  0  0
 19 21  2  0  0  0  0
 19 40  1  0  0  0  0
 20 22  2  0  0  0  0
 20 41  1  0  0  0  0
 21 53  1  0  0  0  0
 22 42  1  0  0  0  0
 23 24  2  0  0  0  0
 23 62  1  0  0  0  0
 24 25  1  0  0  0  0
 24 63  1  0  0  0  0
 25 74  1  0  0  0  0
 26 86  1  0  0  0  0
 27 87  1  0  0  0  0
 28 30  2  0  0  0  0
 28 86  1  0  0  0  0
 29 88  1  0  0  0  0
 30 89  1  0  0  0  0
 31 90  1  0  0  0  0
 32 68  2  0  0  0  0
 33 69  1  0  0  0  0
 33 72  1  0  0  0  0
 34 73  1  0  0  0  0
 34 80  2  0  0  0  0
 35 54  1  0  0  0  0
 35 75  1  0  0  0  0
 35 81  2  0  0  0  0
 36 65  1  0  0  0  0
 36 70  1  0  0  0  0
 36 82  2  0  0  0  0
 37 64  1  0  0  0  0
 37 77  1  0  0  0  0
 37 83  2  0  0  0  0
 38 66  1  0  0  0  0
 38 76  1  0  0  0  0
 38 84  2  0  0  0  0
 39 71  1  0  0  0  0
 39 74  1  0  0  0  0
 39 85  2  0  0  0  0
 40 43  1  0  0  0  0
 41 54  1  0  0  0  0
 42 70  1  0  0  0  0
 43 47  1  0  0  0  0
 44 48  1  0  0  0  0
 44 49  1  0  0  0  0
 45 46  1  0  0  0  0
 45 51  1  0  0  0  0
 46 52  1  0  0  0  0
 47 53  1  0  0  0  0
 48 55  1  0  0  0  0
 49 71  1  0  0  0  0
 50 55  1  0  0  0  0
 50 71  1  0  0  0  0
 51 78  1  0  0  0  0
 52 78  1  0  0  0  0
 53 75  1  0  0  0  0
 54 70  1  0  0  0  0
 55 69  1  0  0  0  0
 56 66  1  0  0  0  0
 57 67  1  0  0  0  0
 58 67  1  0  0  0  0
 59 67  1  0  0  0  0
 60 77  1  0  0  0  0
 61 79  1  0  0  0  0
 62 77  1  0  0  0  0
 63 78  1  0  0  0  0
 64 87  1  0  0  0  0
 65 67  1  0  0  0  0
 65 76  1  0  0  0  0
 66 79  1  0  0  0  0
 68 69  1  0  0  0  0
M  CHG  2  78   1  79   1
M  ISO  4  39 100  64 101  74 100  87 101
M  END
> <Batch ID>
0034

> <Smiles>
CNC(C)C(=O)NC(C(=O)N1Cc2cc([101O:1][101CH2:1]C(=O)N(C)Cc3cc(Cl)cc([100NH:0][100C:0](=O)N4CCCC(n5nc(-c6ccc(Oc7ccc(F)cc7F)cc6)c(C(N)=O)c5N)C4)c3CN3CCCC3)ccc2CC1C(=O)NC1CCCc2ccccc21)C(C)(C)C

> <Shape>
0.237

> <Color>
0.184

> <Negative vol penalty>
0.000

$$$$

  -OEChem-04042321483D

 86 95  0     1  0  0  0  0  0999 V2000
  -25.1507  -35.7344   21.9901 C   0  0  0  0  0  0  0  0  0  0  0  0
  -25.8732  -34.5460   21.9542 C   0  0  0  0  0  0  0  0  0  0  0  0
  -23.9597  -10.7867   23.5444 C   0  0  0  0  0  0  0  0  0  0  0  0
  -24.5858   -9.2508   21.7877 C   0  0  0  0  0  0  0  0  0  0  0  0
  -23.8502  -35.7433   22.4928 C   0  0  0  0  0  0  0  0  0  0  0  0
  -25.2959  -33.3661   22.4221 C   0  0  0  0  0  0  0  0  0  0  0  0
  -26.1052  -29.4448   19.3215 C   0  0  0  0  0  0  0  0  0  0  0  0
  -30.6403  -20.1763   20.5539 C   0  0  0  0  0  0  0  0  0  0  0  0
  -30.3785  -18.8524   20.2014 C   0  0  0  0  0  0  0  0  0  0  0  0
  -23.5781   -9.7123   24.3479 C   0  0  0  0  0  0  0  0  0  0  0  0
  -24.2043   -8.1763   22.5913 C   0  0  0  0  0  0  0  0  0  0  0  0
  -27.3613  -28.8419   19.3720 C   0  0  0  0  0  0  0  0  0  0  0  0
  -21.3307   -6.6527   23.5143 C   0  0  0  0  0  0  0  0  0  0  0  0
  -20.5693   -5.6424   22.9268 C   0  0  0  0  0  0  0  0  0  0  0  0
  -26.4558  -27.0853   20.7554 C   0  0  0  0  0  0  0  0  0  0  0  0
  -22.2946   -4.0355   23.4542 C   0  0  0  0  0  0  0  0  0  0  0  0
  -24.4634  -10.5560   22.2643 C   0  0  0  0  0  0  0  0  0  0  0  0
  -24.0439  -12.7247   20.9883 C   0  0  0  0  0  0  0  0  0  0  0  0
  -23.2533  -34.5611   22.9581 C   0  0  0  0  0  0  0  0  0  0  0  0
  -25.0156  -28.8774   19.9978 C   0  0  0  0  0  0  0  0  0  0  0  0
  -23.9868  -33.3595   22.9328 C   0  0  0  0  0  0  0  0  0  0  0  0
  -25.1864  -27.6816   20.7098 C   0  0  0  0  0  0  0  0  0  0  0  0
  -29.5897  -21.0278   20.8958 C   0  0  0  0  0  0  0  0  0  0  0  0
  -28.2773  -20.5554   20.8849 C   0  0  0  0  0  0  0  0  0  0  0  0
  -28.0155  -19.2315   20.5324 C   0  0  0  0  0  0  0  0  0  0  0  0
  -29.0662  -18.3799   20.1906 C   0  0  0  0  0  0  0  0  0  0  0  0
  -23.7004   -8.4071   23.8714 C   0  0  0  0  0  0  0  0  0  0  0  0
  -27.5374  -27.6635   20.0913 C   0  0  0  0  0  0  0  0  0  0  0  0
  -22.5741   -6.3544   24.0717 C   0  0  0  0  0  0  0  0  0  0  0  0
  -21.0512   -4.3338   22.8968 C   0  0  0  0  0  0  0  0  0  0  0  0
  -23.0560   -5.0458   24.0416 C   0  0  0  0  0  0  0  0  0  0  0  0
  -24.8572  -11.6655   21.4336 C   0  0  0  0  0  0  0  0  0  0  0  0
  -24.8836  -13.5098   20.2366 C   0  0  0  0  0  0  0  0  0  0  0  0
  -22.6537  -12.9766   21.2325 C   0  0  0  0  0  0  0  0  0  0  0  0
  -23.0984  -29.8203   22.3512 C   0  0  0  0  0  0  0  0  0  0  0  0
  -21.5310  -27.0675   21.6529 C   0  0  0  0  0  0  0  0  0  0  0  0
  -22.4177  -23.6673   20.8347 C   0  0  0  0  0  0  0  0  0  0  0  0
  -29.7673  -16.0710   19.4669 C   0  0  0  0  0  0  0  0  0  0  0  0
  -21.8620  -34.6291   23.5363 C   0  0  0  0  0  0  0  0  0  0  0  0
  -23.6612  -29.5258   19.9114 C   0  0  0  0  0  0  0  0  0  0  0  0
  -24.0443  -27.0213   21.4364 C   0  0  0  0  0  0  0  0  0  0  0  0
  -21.1888  -33.2652   23.6659 C   0  0  0  0  0  0  0  0  0  0  0  0
  -29.5743  -12.6370   18.5463 C   0  0  0  0  0  0  0  0  0  0  0  0
  -30.1106  -24.3426   17.9558 C   0  0  0  0  0  0  0  0  0  0  0  0
  -22.1465  -32.2542   24.2883 C   0  0  0  0  0  0  0  0  0  0  0  0
  -28.2630  -12.1653   19.1788 C   0  0  0  0  0  0  0  0  0  0  0  0
  -29.8431  -25.7531   18.4642 C   0  0  0  0  0  0  0  0  0  0  0  0
  -30.3021  -13.6445   19.4345 C   0  0  0  0  0  0  0  0  0  0  0  0
  -28.1830  -14.3232   20.4919 C   0  0  0  0  0  0  0  0  0  0  0  0
  -30.5699  -23.4190   19.0750 C   0  0  0  0  0  0  0  0  0  0  0  0
  -29.3261  -24.8145   20.7470 C   0  0  0  0  0  0  0  0  0  0  0  0
  -23.3863  -32.0543   23.4082 C   0  0  1  0  0  0  0  0  0  0  0  0
  -22.7382  -29.1371   21.0623 C   0  0  1  0  0  0  0  0  0  0  0  0
  -27.3821  -13.3563   19.6045 C   0  0  2  0  0  0  0  0  0  0  0  0
  -28.8647  -25.7468   19.6346 C   0  0  1  0  0  0  0  0  0  1  0  0
  -27.1526  -21.4711   21.2521 C   0  0  0  0  0  0  0  0  0  0  0  0
  -26.6064  -18.7266   20.5215 C   0  0  0  0  0  0  0  0  0  0  0  0
  -21.1814  -21.9331   19.5075 C   0  0  0  0  0  0  0  0  0  0  0  0
  -20.4688  -26.1653   24.3672 C   0  0  0  0  0  0  0  0  0  0  0  0
  -20.6601  -23.7973   23.5769 C   0  0  0  0  0  0  0  0  0  0  0  0
  -19.1267  -25.3803   22.4083 C   0  0  0  0  0  0  0  0  0  0  0  0
  -24.7107  -23.2634   19.0076 C   0  0  0  0  0  0  0  0  0  0  0  0
  -29.8990  -22.4471   21.2710 C   0  0  0  0  0  0  0  0  0  0  0  0
  -21.6255  -25.6353   22.1206 C   0  0  1  0  0  0  0  0  0  0  0  0
  -22.2739  -22.9907   19.4834 C   0  0  2  0  0  0  0  0  0  0  0  0
  -20.4929  -25.2617   23.1182 C   0  0  0  0  0  0  0  0  0  0  0  0
  -26.1168  -11.7654   21.0007 N   0  0  0  0  0  0  0  0  0  0  0  0
  -26.1013  -12.8967   20.2755 N   0  0  0  0  0  0  0  0  0  0  0  0
  -22.7408  -27.6970   21.3272 N   0  0  0  0  0  0  0  0  0  0  0  0
  -29.4073  -14.7467   19.7943 N   0  0  0  0  0  0  0  0  0  0  0  0
  -24.6917  -14.6578   19.5527 N   0  0  0  0  0  0  0  0  0  0  0  0
  -21.9397  -12.0690   22.0267 N   0  0  0  0  0  0  0  0  0  0  0  0
  -28.8235  -17.0315   19.8294 N   0  0  0  0  0  0  0  0  0  0  0  0
  -23.0744  -31.2003   22.2823 N   0  0  0  0  0  0  0  0  0  0  0  0
  -21.6555  -24.8135   20.9156 N   0  0  0  0  0  0  0  0  0  0  0  0
  -29.5506  -23.4320   20.1893 N   0  3  2  0  0  0  0  0  0  0  0  0
  -23.5542  -22.3350   19.0935 N   0  3  0  0  0  0  0  0  0  0  0  0
  -22.0582  -13.9681   20.7469 O   0  0  0  0  0  0  0  0  0  0  0  0
  -23.3759  -29.1455   23.3357 O   0  0  0  0  0  0  0  0  0  0  0  0
  -20.4239  -27.6056   21.5723 O   0  0  0  0  0  0  0  0  0  0  0  0
  -23.1317  -23.2214   21.7302 O   0  0  0  0  0  0  0  0  0  0  0  0
  -30.8218  -16.3311   18.8819 O   0  0  0  0  0  0  0  0  0  0  0  0
  -23.3285   -7.3584   24.6552 O   0  0  0  0  0  0  0  0  0  0  0  0
  -28.7625  -27.0733   20.1427 O   0  0  0  0  0  0  0  0  0  1  0  0
  -20.3193   -3.3634   22.3340 F   0  0  0  0  0  0  0  0  0  0  0  0
  -24.2493   -4.7529   24.5765 F   0  0  0  0  0  0  0  0  0  0  0  0
  1  2  1  0  0  0  0
  1  5  2  0  0  0  0
  2  6  2  0  0  0  0
  3 10  2  0  0  0  0
  3 17  1  0  0  0  0
  4 11  1  0  0  0  0
  4 17  2  0  0  0  0
  5 19  1  0  0  0  0
  6 21  1  0  0  0  0
  7 12  2  0  0  0  0
  7 20  1  0  0  0  0
  8  9  2  0  0  0  0
  8 23  1  0  0  0  0
  9 26  1  0  0  0  0
 10 27  1  0  0  0  0
 11 27  2  0  0  0  0
 12 28  1  0  0  0  0
 13 14  2  0  0  0  0
 13 29  1  0  0  0  0
 14 30  1  0  0  0  0
 15 22  1  0  0  0  0
 15 28  2  0  0  0  0
 16 30  2  0  0  0  0
 16 31  1  0  0  0  0
 17 32  1  0  0  0  0
 18 32  1  0  0  0  0
 18 33  2  0  0  0  0
 18 34  1  0  0  0  0
 19 21  2  0  0  0  0
 19 39  1  0  0  0  0
 20 22  2  0  0  0  0
 20 40  1  0  0  0  0
 21 52  1  0  0  0  0
 22 41  1  0  0  0  0
 23 24  2  0  0  0  0
 23 63  1  0  0  0  0
 24 25  1  0  0  0  0
 24 56  1  0  0  0  0
 25 26  2  0  0  0  0
 25 57  1  0  0  0  0
 26 73  1  0  0  0  0
 27 83  1  0  0  0  0
 28 84  1  0  0  0  0
 29 31  2  0  0  0  0
 29 83  1  0  0  0  0
 30 85  1  0  0  0  0
 31 86  1  0  0  0  0
 32 67  2  0  0  0  0
 33 68  1  0  0  0  0
 33 71  1  0  0  0  0
 34 72  1  0  0  0  0
 34 78  2  0  0  0  0
 35 53  1  0  0  0  0
 35 74  1  0  0  0  0
 35 79  2  0  0  0  0
 36 64  1  0  0  0  0
 36 69  1  0  0  0  0
 36 80  2  0  0  0  0
 37 65  1  0  0  0  0
 37 75  1  0  0  0  0
 37 81  2  0  0  0  0
 38 70  1  0  0  0  0
 38 73  1  0  0  0  0
 38 82  2  0  0  0  0
 39 42  1  0  0  0  0
 40 53  1  0  0  0  0
 41 69  1  0  0  0  0
 42 45  1  0  0  0  0
 43 46  1  0  0  0  0
 43 48  1  0  0  0  0
 44 47  1  0  0  0  0
 44 50  1  0  0  0  0
 45 52  1  0  0  0  0
 46 54  1  0  0  0  0
 47 55  1  0  0  0  0
 48 70  1  0  0  0  0
 49 54  1  0  0  0  0
 49 70  1  0  0  0  0
 50 76  1  0  0  0  0
 51 55  1  0  0  0  0
 51 76  1  0  0  0  0
 52 74  1  0  0  0  0
 53 69  1  0  0  0  0
 54 68  1  0  0  0  0
 55 84  1  0  0  0  0
 58 65  1  0  0  0  0
 59 66  1  0  0  0  0
 60 66  1  0  0  0  0
 61 66  1  0  0  0  0
 62 77  1  0  0  0  0
 63 76  1  0  0  0  0
 64 66  1  0  0  0  0
 64 75  1  0  0  0  0
 65 77  1  0  0  0  0
 67 68  1  0  0  0  0
M  CHG  2  76   1  77   1
M  ISO  4  38 100  55 101  73 100  84 101
M  END
> <Batch ID>
0034

> <Smiles>
CNC(C)C(=O)NC(C(=O)N1Cc2cc([101O:1][101CH:1]3CCCN(Cc4ccc([100NH:0][100C:0](=O)N5CCCC(n6nc(-c7ccc(Oc8ccc(F)cc8F)cc7)c(C(N)=O)c6N)C5)c(C)c4C)C3)ccc2CC1C(=O)NC1CCCc2ccccc21)C(C)(C)C

> <Shape>
0.338

> <Color>
0.154

> <Negative vol penalty>
0.000

$$$$

  -OEChem-04042321483D

 89 98  0     1  0  0  0  0  0999 V2000
  -25.2376  -18.4240   23.1426 C   0  0  0  0  0  0  0  0  0  0  0  0
  -25.5946  -19.5164   23.9250 C   0  0  0  0  0  0  0  0  0  0  0  0
  -26.5554  -12.5899   21.6483 C   0  0  0  0  0  0  0  0  0  0  0  0
  -25.6894  -14.0218   19.9056 C   0  0  0  0  0  0  0  0  0  0  0  0
  -24.8052  -18.6211   21.8329 C   0  0  0  0  0  0  0  0  0  0  0  0
  -25.5079  -20.8070   23.4020 C   0  0  0  0  0  0  0  0  0  0  0  0
  -27.1090  -26.1716   25.8073 C   0  0  0  0  0  0  0  0  0  0  0  0
  -25.3262  -11.9346   21.7207 C   0  0  0  0  0  0  0  0  0  0  0  0
  -24.4602  -13.3664   19.9780 C   0  0  0  0  0  0  0  0  0  0  0  0
  -28.2315  -26.9982   25.8233 C   0  0  0  0  0  0  0  0  0  0  0  0
  -23.6613   -9.5629   19.9783 C   0  0  0  0  0  0  0  0  0  0  0  0
  -23.6721   -8.1694   20.0366 C   0  0  0  0  0  0  0  0  0  0  0  0
  -27.2969  -28.2924   24.0148 C   0  0  0  0  0  0  0  0  0  0  0  0
  -29.5435  -25.2348   19.6736 C   0  0  0  0  0  0  0  0  0  0  0  0
  -32.2157  -25.5993   20.3872 C   0  0  0  0  0  0  0  0  0  0  0  0
  -22.5396   -8.2498   22.1692 C   0  0  0  0  0  0  0  0  0  0  0  0
  -26.7370  -13.6336   20.7408 C   0  0  0  0  0  0  0  0  0  0  0  0
  -29.2564  -13.7430   20.3554 C   0  0  0  0  0  0  0  0  0  0  0  0
  -24.7253  -19.9142   21.2903 C   0  0  0  0  0  0  0  0  0  0  0  0
  -26.0751  -26.3929   24.8861 C   0  0  0  0  0  0  0  0  0  0  0  0
  -25.0509  -21.0284   22.0902 C   0  0  0  0  0  0  0  0  0  0  0  0
  -26.1611  -27.4687   23.9908 C   0  0  0  0  0  0  0  0  0  0  0  0
  -29.9639  -26.4551   20.2024 C   0  0  0  0  0  0  0  0  0  0  0  0
  -31.7952  -24.3789   19.8584 C   0  0  0  0  0  0  0  0  0  0  0  0
  -30.4591  -24.1967   19.5016 C   0  0  0  0  0  0  0  0  0  0  0  0
  -31.3000  -26.6374   20.5592 C   0  0  0  0  0  0  0  0  0  0  0  0
  -24.2786  -12.3228   20.8856 C   0  0  0  0  0  0  0  0  0  0  0  0
  -28.3270  -28.0571   24.9250 C   0  0  0  0  0  0  0  0  0  0  0  0
  -23.0898  -10.3000   21.0155 C   0  0  0  0  0  0  0  0  0  0  0  0
  -23.1112   -7.5128   21.1320 C   0  0  0  0  0  0  0  0  0  0  0  0
  -22.5289   -9.6434   22.1110 C   0  0  0  0  0  0  0  0  0  0  0  0
  -28.0064  -14.3112   20.6659 C   0  0  0  0  0  0  0  0  0  0  0  0
  -30.1364  -14.7959   20.4150 C   0  0  0  0  0  0  0  0  0  0  0  0
  -32.4410  -29.1544   23.1242 C   0  0  0  0  0  0  0  0  0  0  0  0
  -35.9046  -29.3305   21.9188 C   0  0  0  0  0  0  0  0  0  0  0  0
  -33.6887  -29.5934   22.9247 C   0  0  0  0  0  0  0  0  0  0  0  0
  -34.6570  -28.8910   22.1179 C   0  0  0  0  0  0  0  0  0  0  0  0
  -29.5920  -12.3850   20.0411 C   0  0  0  0  0  0  0  0  0  0  0  0
  -24.7953  -24.7196   22.5058 C   0  0  0  0  0  0  0  0  0  0  0  0
  -22.6798  -27.1776   22.4338 C   0  0  0  0  0  0  0  0  0  0  0  0
  -22.0139  -30.4487   23.1433 C   0  0  0  0  0  0  0  0  0  0  0  0
  -29.3819  -20.6012   19.6512 C   0  0  0  0  0  0  0  0  0  0  0  0
  -24.2432  -20.0707   19.8696 C   0  0  0  0  0  0  0  0  0  0  0  0
  -24.8586  -25.5084   24.8995 C   0  0  0  0  0  0  0  0  0  0  0  0
  -25.0692  -27.7612   22.9955 C   0  0  0  0  0  0  0  0  0  0  0  0
  -31.3963  -29.8380   23.9484 C   0  0  0  0  0  0  0  0  0  0  0  0
  -24.6062  -21.4228   19.2642 C   0  0  0  0  0  0  0  0  0  0  0  0
  -30.7893  -19.0128   22.5827 C   0  0  0  0  0  0  0  0  0  0  0  0
  -24.2120  -22.5415   20.2168 C   0  0  0  0  0  0  0  0  0  0  0  0
  -30.3463  -17.5620   22.3847 C   0  0  0  0  0  0  0  0  0  0  0  0
  -29.7096  -19.9881   22.1229 C   0  0  0  0  0  0  0  0  0  0  0  0
  -28.8218  -18.3462   20.5136 C   0  0  0  0  0  0  0  0  0  0  0  0
  -30.7836  -27.5672   23.4170 C   0  0  0  0  0  0  0  0  0  0  0  0
  -24.9938  -22.4392   21.5326 C   0  0  1  0  0  0  0  0  0  0  0  0
  -24.1009  -25.5143   23.5754 C   0  0  1  0  0  0  0  0  0  0  0  0
  -29.8792  -17.3111   20.9387 C   0  0  2  0  0  0  0  0  0  0  0  0
  -30.1898  -28.9294   23.7495 C   0  0  1  0  0  0  0  0  0  1  0  0
  -28.9657  -27.5523   20.3768 C   0  0  0  0  0  0  0  0  0  0  0  0
  -32.7934  -23.2817   19.6841 C   0  0  0  0  0  0  0  0  0  0  0  0
  -20.6689  -32.5552   23.3692 C   0  0  0  0  0  0  0  0  0  0  0  0
  -23.3086  -27.4673   19.4622 C   0  0  0  0  0  0  0  0  0  0  0  0
  -22.2518  -29.7359   19.5309 C   0  0  0  0  0  0  0  0  0  0  0  0
  -20.8888  -27.7109   20.0450 C   0  0  0  0  0  0  0  0  0  0  0  0
  -21.1452  -29.7380   25.8817 C   0  0  0  0  0  0  0  0  0  0  0  0
  -29.9857  -22.8987   18.9343 C   0  0  0  0  0  0  0  0  0  0  0  0
  -31.7754  -27.9412   21.1293 C   0  0  0  0  0  0  0  0  0  0  0  0
  -22.6080  -28.5058   21.7197 C   0  0  1  0  0  0  0  0  0  0  0  0
  -20.8274  -31.1114   23.8198 C   0  0  2  0  0  0  0  0  0  0  0  0
  -22.2859  -28.3485   20.2068 C   0  0  0  0  0  0  0  0  0  0  0  0
  -28.0814  -15.6232   20.9052 N   0  0  0  0  0  0  0  0  0  0  0  0
  -29.3892  -15.8881   20.7451 N   0  0  0  0  0  0  0  0  0  0  0  0
  -23.9028  -26.8642   23.0436 N   0  0  0  0  0  0  0  0  0  0  0  0
  -29.3231  -19.7071   20.7330 N   0  0  0  0  0  0  0  0  0  0  0  0
  -31.4688  -14.8846   20.2169 N   0  0  0  0  0  0  0  0  0  0  0  0
  -29.5556  -11.9811   18.6995 N   0  0  0  0  0  0  0  0  0  0  0  0
  -24.4459  -23.3829   22.4819 N   0  0  0  0  0  0  0  0  0  0  0  0
  -21.6411  -29.3131   22.4557 N   0  0  0  0  0  0  0  0  0  0  0  0
  -29.8616  -21.8718   19.9448 N   0  0  0  0  0  0  0  0  0  0  0  0
  -32.0255  -27.8802   22.6091 N   0  3  1  0  0  0  0  0  0  0  0  0
  -21.0008  -31.0972   25.2999 N   0  3  0  0  0  0  0  0  0  0  0  0
  -29.8987  -11.5500   20.9256 O   0  0  0  0  0  0  0  0  0  0  0  0
  -25.5881  -25.2781   21.7567 O   0  0  0  0  0  0  0  0  0  0  0  0
  -21.6851  -26.4484   22.4560 O   0  0  0  0  0  0  0  0  0  0  0  0
  -23.1565  -30.8959   23.2143 O   0  0  0  0  0  0  0  0  0  0  0  0
  -29.0372  -20.2887   18.5063 O   0  0  0  0  0  0  0  0  0  0  0  0
  -23.0791  -11.6835   20.9558 O   0  0  0  0  0  0  0  0  0  0  0  0
  -29.4219  -28.8651   24.9381 O   0  0  0  0  0  0  0  0  0  1  0  0
  -23.1203   -6.1745   21.1872 F   0  0  0  0  0  0  0  0  0  0  0  0
  -21.9773  -10.3461   23.1099 F   0  0  0  0  0  0  0  0  0  0  0  0
  1  2  1  0  0  0  0
  1  5  2  0  0  0  0
  2  6  2  0  0  0  0
  3  8  2  0  0  0  0
  3 17  1  0  0  0  0
  4  9  1  0  0  0  0
  4 17  2  0  0  0  0
  5 19  1  0  0  0  0
  6 21  1  0  0  0  0
  7 10  2  0  0  0  0
  7 20  1  0  0  0  0
  8 27  1  0  0  0  0
  9 27  2  0  0  0  0
 10 28  1  0  0  0  0
 11 12  2  0  0  0  0
 11 29  1  0  0  0  0
 12 30  1  0  0  0  0
 13 22  1  0  0  0  0
 13 28  2  0  0  0  0
 14 23  1  0  0  0  0
 14 25  2  0  0  0  0
 15 24  2  0  0  0  0
 15 26  1  0  0  0  0
 16 30  2  0  0  0  0
 16 31  1  0  0  0  0
 17 32  1  0  0  0  0
 18 32  1  0  0  0  0
 18 33  2  0  0  0  0
 18 38  1  0  0  0  0
 19 21  2  0  0  0  0
 19 43  1  0  0  0  0
 20 22  2  0  0  0  0
 20 44  1  0  0  0  0
 21 54  1  0  0  0  0
 22 45  1  0  0  0  0
 23 26  2  0  0  0  0
 23 58  1  0  0  0  0
 24 25  1  0  0  0  0
 24 59  1  0  0  0  0
 25 65  1  0  0  0  0
 26 66  1  0  0  0  0
 27 86  1  0  0  0  0
 28 87  1  0  0  0  0
 29 31  2  0  0  0  0
 29 86  1  0  0  0  0
 30 88  1  0  0  0  0
 31 89  1  0  0  0  0
 32 70  2  0  0  0  0
 33 71  1  0  0  0  0
 33 74  1  0  0  0  0
 34 36  2  0  0  0  0
 34 46  1  0  0  0  0
 34 79  1  0  0  0  0
 35 37  2  0  0  0  0
 36 37  1  0  0  0  0
 38 75  1  0  0  0  0
 38 81  2  0  0  0  0
 39 55  1  0  0  0  0
 39 76  1  0  0  0  0
 39 82  2  0  0  0  0
 40 67  1  0  0  0  0
 40 72  1  0  0  0  0
 40 83  2  0  0  0  0
 41 68  1  0  0  0  0
 41 77  1  0  0  0  0
 41 84  2  0  0  0  0
 42 73  1  0  0  0  0
 42 78  1  0  0  0  0
 42 85  2  0  0  0  0
 43 47  1  0  0  0  0
 44 55  1  0  0  0  0
 45 72  1  0  0  0  0
 46 57  1  0  0  0  0
 47 49  1  0  0  0  0
 48 50  1  0  0  0  0
 48 51  1  0  0  0  0
 49 54  1  0  0  0  0
 50 56  1  0  0  0  0
 51 73  1  0  0  0  0
 52 56  1  0  0  0  0
 52 73  1  0  0  0  0
 53 57  1  0  0  0  0
 53 79  1  0  0  0  0
 54 76  1  0  0  0  0
 55 72  1  0  0  0  0
 56 71  1  0  0  0  0
 57 87  1  0  0  0  0
 60 68  1  0  0  0  0
 61 69  1  0  0  0  0
 62 69  1  0  0  0  0
 63 69  1  0  0  0  0
 64 80  1  0  0  0  0
 65 78  1  0  0  0  0
 66 79  1  0  0  0  0
 67 69  1  0  0  0  0
 67 77  1  0  0  0  0
 68 80  1  0  0  0  0
 70 71  1  0  0  0  0
M  CHG  2  79   1  80   1
M  ISO  4  42 100  57 101  78 100  87 101
M  END
> <Batch ID>
0034

> <Smiles>
C=CC=C1C[101CH:1]([101O:1]c2ccc3c(c2)CN(C(=O)C(NC(=O)C(C)NC)C(C)(C)C)C(C(=O)NC2CCCc4ccccc42)C3)CN1Cc1cc(C)c(C[100NH:0][100C:0](=O)N2CCCC(n3nc(-c4ccc(Oc5ccc(F)cc5F)cc4)c(C(N)=O)c3N)C2)cc1C

> <Shape>
0.232

> <Color>
0.069

> <Negative vol penalty>
0.000

$$$$

  -OEChem-04042321483D

 89 98  0     1  0  0  0  0  0999 V2000
  -30.4570  -24.3249   26.6819 C   0  0  0  0  0  0  0  0  0  0  0  0
  -29.6358  -23.5280   25.8908 C   0  0  0  0  0  0  0  0  0  0  0  0
  -30.3872  -20.4804   20.6876 C   0  0  0  0  0  0  0  0  0  0  0  0
  -28.0144  -20.2134   20.3194 C   0  0  0  0  0  0  0  0  0  0  0  0
  -29.9140  -25.3956   27.3908 C   0  0  0  0  0  0  0  0  0  0  0  0
  -28.2707  -23.8007   25.8090 C   0  0  0  0  0  0  0  0  0  0  0  0
  -24.6571  -23.0703   20.9188 C   0  0  0  0  0  0  0  0  0  0  0  0
  -30.3705  -21.6588   19.9415 C   0  0  0  0  0  0  0  0  0  0  0  0
  -27.9976  -21.3919   19.5733 C   0  0  0  0  0  0  0  0  0  0  0  0
  -23.7750  -22.0565   20.5474 C   0  0  0  0  0  0  0  0  0  0  0  0
  -29.4793  -24.8875   20.4042 C   0  0  0  0  0  0  0  0  0  0  0  0
  -30.1633  -25.9894   20.9174 C   0  0  0  0  0  0  0  0  0  0  0  0
  -21.9433  -23.3146   21.4862 C   0  0  0  0  0  0  0  0  0  0  0  0
  -21.2264  -15.5331   19.9292 C   0  0  0  0  0  0  0  0  0  0  0  0
  -21.0101  -15.7043   22.3293 C   0  0  0  0  0  0  0  0  0  0  0  0
  -31.5679  -26.0327   18.9521 C   0  0  0  0  0  0  0  0  0  0  0  0
  -29.2092  -19.7576   20.8765 C   0  0  0  0  0  0  0  0  0  0  0  0
  -29.6045  -18.3917   22.9944 C   0  0  0  0  0  0  0  0  0  0  0  0
  -28.5433  -25.6875   27.3100 C   0  0  0  0  0  0  0  0  0  0  0  0
  -24.1897  -24.2108   21.5875 C   0  0  0  0  0  0  0  0  0  0  0  0
  -27.7086  -24.8756   26.5185 C   0  0  0  0  0  0  0  0  0  0  0  0
  -22.8211  -24.3426   21.8627 C   0  0  0  0  0  0  0  0  0  0  0  0
  -20.6268  -16.1072   21.0501 C   0  0  0  0  0  0  0  0  0  0  0  0
  -22.2092  -14.5560   20.0874 C   0  0  0  0  0  0  0  0  0  0  0  0
  -22.5925  -14.1531   21.3667 C   0  0  0  0  0  0  0  0  0  0  0  0
  -29.1757  -22.1146   19.3844 C   0  0  0  0  0  0  0  0  0  0  0  0
  -22.4183  -22.1772   20.8336 C   0  0  0  0  0  0  0  0  0  0  0  0
  -29.8396  -24.3581   19.1650 C   0  0  0  0  0  0  0  0  0  0  0  0
  -31.2076  -26.5620   20.1913 C   0  0  0  0  0  0  0  0  0  0  0  0
  -30.8839  -24.9307   18.4389 C   0  0  0  0  0  0  0  0  0  0  0  0
  -21.9929  -14.7272   22.4876 C   0  0  0  0  0  0  0  0  0  0  0  0
  -29.2259  -18.5400   21.6466 C   0  0  0  0  0  0  0  0  0  0  0  0
  -29.4452  -17.0517   23.2504 C   0  0  0  0  0  0  0  0  0  0  0  0
  -19.1117  -19.5010   20.3543 C   0  0  0  0  0  0  0  0  0  0  0  0
  -30.0594  -19.3771   23.9313 C   0  0  0  0  0  0  0  0  0  0  0  0
  -18.2001  -19.4402   19.3765 C   0  0  0  0  0  0  0  0  0  0  0  0
  -24.7267  -25.5199   24.4338 C   0  0  0  0  0  0  0  0  0  0  0  0
  -22.8726  -27.9053   23.2529 C   0  0  0  0  0  0  0  0  0  0  0  0
  -20.4568  -28.8748   21.0459 C   0  0  0  0  0  0  0  0  0  0  0  0
  -26.0039  -12.8123   20.7936 C   0  0  0  0  0  0  0  0  0  0  0  0
  -27.9940  -26.8267   28.1318 C   0  0  0  0  0  0  0  0  0  0  0  0
  -25.1501  -25.3076   21.9576 C   0  0  0  0  0  0  0  0  0  0  0  0
  -22.2658  -25.5563   22.5606 C   0  0  0  0  0  0  0  0  0  0  0  0
  -19.3267  -20.6654   21.2700 C   0  0  0  0  0  0  0  0  0  0  0  0
  -26.6019  -27.2764   27.6957 C   0  0  0  0  0  0  0  0  0  0  0  0
  -29.5524  -12.7871   21.0840 C   0  0  0  0  0  0  0  0  0  0  0  0
  -25.6908  -26.0702   27.4916 C   0  0  0  0  0  0  0  0  0  0  0  0
  -29.9052  -14.2453   21.3828 C   0  0  0  0  0  0  0  0  0  0  0  0
  -28.3812  -12.6780   20.1102 C   0  0  0  0  0  0  0  0  0  0  0  0
  -27.5254  -14.8814   20.8079 C   0  0  0  0  0  0  0  0  0  0  0  0
  -21.1072  -19.0595   21.4982 C   0  0  0  0  0  0  0  0  0  0  0  0
  -26.2273  -25.1546   26.3846 C   0  0  1  0  0  0  0  0  0  0  0  0
  -24.6401  -26.1908   23.0922 C   0  0  1  0  0  0  0  0  0  0  0  0
  -28.6647  -15.0424   21.8289 C   0  0  2  0  0  0  0  0  0  0  0  0
  -20.8233  -20.5548   21.5164 C   0  0  1  0  0  0  0  0  0  1  0  0
  -22.8332  -13.9574   18.8691 C   0  0  0  0  0  0  0  0  0  0  0  0
  -18.0510  -18.2293   18.5012 C   0  0  0  0  0  0  0  0  0  0  0  0
  -17.2650  -20.5792   19.0882 C   0  0  0  0  0  0  0  0  0  0  0  0
  -19.1210  -30.8793   20.3425 C   0  0  0  0  0  0  0  0  0  0  0  0
  -21.1350  -27.6187   25.7447 C   0  0  0  0  0  0  0  0  0  0  0  0
  -19.3515  -28.9217   24.5658 C   0  0  0  0  0  0  0  0  0  0  0  0
  -21.5614  -29.9788   25.0361 C   0  0  0  0  0  0  0  0  0  0  0  0
  -21.5457  -28.7800   18.2956 C   0  0  0  0  0  0  0  0  0  0  0  0
  -23.6484  -13.1028   21.5190 C   0  0  0  0  0  0  0  0  0  0  0  0
  -19.5705  -17.1588   20.8790 C   0  0  0  0  0  0  0  0  0  0  0  0
  -21.3928  -28.2042   23.2433 C   0  0  1  0  0  0  0  0  0  0  0  0
  -20.3757  -30.0561   20.0960 C   0  0  2  0  0  0  0  0  0  0  0  0
  -20.8706  -28.6570   24.6360 C   0  0  0  0  0  0  0  0  0  0  0  0
  -28.8543  -17.3863   21.0855 N   0  0  0  0  0  0  0  0  0  0  0  0
  -28.9986  -16.5002   22.0856 N   0  0  0  0  0  0  0  0  0  0  0  0
  -23.2458  -26.5986   22.9079 N   0  0  0  0  0  0  0  0  0  0  0  0
  -27.2366  -13.4548   20.5924 N   0  0  0  0  0  0  0  0  0  0  0  0
  -29.6450  -16.3031   24.3558 N   0  0  0  0  0  0  0  0  0  0  0  0
  -31.4349  -19.6313   24.0185 N   0  0  0  0  0  0  0  0  0  0  0  0
  -25.9323  -25.7108   25.0815 N   0  0  0  0  0  0  0  0  0  0  0  0
  -21.1803  -29.1796   22.1794 N   0  0  0  0  0  0  0  0  0  0  0  0
  -24.9731  -13.6201   21.2580 N   0  0  0  0  0  0  0  0  0  0  0  0
  -20.1276  -18.4907   20.4749 N   0  3  1  0  0  0  0  0  0  0  0  0
  -20.3579  -29.5840   18.6826 N   0  3  0  0  0  0  0  0  0  0  0  0
  -29.2709  -20.0016   24.6808 O   0  0  0  0  0  0  0  0  0  0  0  0
  -23.7700  -24.8779   24.8512 O   0  0  0  0  0  0  0  0  0  0  0  0
  -23.6684  -28.8002   23.5486 O   0  0  0  0  0  0  0  0  0  0  0  0
  -19.9278  -27.7912   20.8080 O   0  0  0  0  0  0  0  0  0  0  0  0
  -25.8358  -11.6067   20.5806 O   0  0  0  0  0  0  0  0  0  0  0  0
  -29.1589  -23.2645   18.6565 O   0  0  0  0  0  0  0  0  0  0  0  0
  -21.5552  -21.1889   20.4728 O   0  0  0  0  0  0  0  0  0  1  0  0
  -31.8635  -27.6212   20.6836 F   0  0  0  0  0  0  0  0  0  0  0  0
  -31.2337  -24.4273   17.2473 F   0  0  0  0  0  0  0  0  0  0  0  0
  -22.4408  -14.2570   24.0875 Cl  0  0  0  0  0  0  0  0  0  0  0  0
  1  2  1  0  0  0  0
  1  5  2  0  0  0  0
  2  6  2  0  0  0  0
  3  8  2  0  0  0  0
  3 17  1  0  0  0  0
  4  9  1  0  0  0  0
  4 17  2  0  0  0  0
  5 19  1  0  0  0  0
  6 21  1  0  0  0  0
  7 10  2  0  0  0  0
  7 20  1  0  0  0  0
  8 26  1  0  0  0  0
  9 26  2  0  0  0  0
 10 27  1  0  0  0  0
 11 12  2  0  0  0  0
 11 28  1  0  0  0  0
 12 29  1  0  0  0  0
 13 22  1  0  0  0  0
 13 27  2  0  0  0  0
 14 23  1  0  0  0  0
 14 24  2  0  0  0  0
 15 23  2  0  0  0  0
 15 31  1  0  0  0  0
 16 29  2  0  0  0  0
 16 30  1  0  0  0  0
 17 32  1  0  0  0  0
 18 32  1  0  0  0  0
 18 33  2  0  0  0  0
 18 35  1  0  0  0  0
 19 21  2  0  0  0  0
 19 41  1  0  0  0  0
 20 22  2  0  0  0  0
 20 42  1  0  0  0  0
 21 52  1  0  0  0  0
 22 43  1  0  0  0  0
 23 65  1  0  0  0  0
 24 25  1  0  0  0  0
 24 56  1  0  0  0  0
 25 31  2  0  0  0  0
 25 64  1  0  0  0  0
 26 85  1  0  0  0  0
 27 86  1  0  0  0  0
 28 30  2  0  0  0  0
 28 85  1  0  0  0  0
 29 87  1  0  0  0  0
 30 88  1  0  0  0  0
 31 89  1  0  0  0  0
 32 69  2  0  0  0  0
 33 70  1  0  0  0  0
 33 73  1  0  0  0  0
 34 36  2  0  0  0  0
 34 44  1  0  0  0  0
 34 78  1  0  0  0  0
 35 74  1  0  0  0  0
 35 80  2  0  0  0  0
 36 57  1  0  0  0  0
 36 58  1  0  0  0  0
 37 53  1  0  0  0  0
 37 75  1  0  0  0  0
 37 81  2  0  0  0  0
 38 66  1  0  0  0  0
 38 71  1  0  0  0  0
 38 82  2  0  0  0  0
 39 67  1  0  0  0  0
 39 76  1  0  0  0  0
 39 83  2  0  0  0  0
 40 72  1  0  0  0  0
 40 77  1  0  0  0  0
 40 84  2  0  0  0  0
 41 45  1  0  0  0  0
 42 53  1  0  0  0  0
 43 71  1  0  0  0  0
 44 55  1  0  0  0  0
 45 47  1  0  0  0  0
 46 48  1  0  0  0  0
 46 49  1  0  0  0  0
 47 52  1  0  0  0  0
 48 54  1  0  0  0  0
 49 72  1  0  0  0  0
 50 54  1  0  0  0  0
 50 72  1  0  0  0  0
 51 55  1  0  0  0  0
 51 78  1  0  0  0  0
 52 75  1  0  0  0  0
 53 71  1  0  0  0  0
 54 70  1  0  0  0  0
 55 86  1  0  0  0  0
 59 67  1  0  0  0  0
 60 68  1  0  0  0  0
 61 68  1  0  0  0  0
 62 68  1  0  0  0  0
 63 79  1  0  0  0  0
 64 77  1  0  0  0  0
 65 78  1  0  0  0  0
 66 68  1  0  0  0  0
 66 76  1  0  0  0  0
 67 79  1  0  0  0  0
 69 70  1  0  0  0  0
M  CHG  2  78   1  79   1
M  ISO  4  40 100  55 101  77 100  86 101
M  END
> <Batch ID>
0034

> <Smiles>
CNC(C)C(=O)NC(C(=O)N1Cc2cc([101O:1][101CH:1]3CC(=C(C)C)N(Cc4cc(C)c(C[100NH:0][100C:0](=O)N5CCCC(n6nc(-c7ccc(Oc8ccc(F)cc8F)cc7)c(C(N)=O)c6N)C5)c(Cl)c4)C3)ccc2CC1C(=O)NC1CCCc2ccccc21)C(C)(C)C

> <Shape>
0.184

> <Color>
0.069

> <Negative vol penalty>
0.000

$$$$

  -OEChem-04042321483D

 88 97  0     1  0  0  0  0  0999 V2000
  -23.8090  -17.6376   22.7143 C   0  0  0  0  0  0  0  0  0  0  0  0
  -24.5509  -18.7572   23.0736 C   0  0  0  0  0  0  0  0  0  0  0  0
  -26.9984  -11.7885   20.4165 C   0  0  0  0  0  0  0  0  0  0  0  0
  -25.8926  -13.8363   19.7679 C   0  0  0  0  0  0  0  0  0  0  0  0
  -22.8049  -17.7500   21.7549 C   0  0  0  0  0  0  0  0  0  0  0  0
  -24.2810  -19.9919   22.4824 C   0  0  0  0  0  0  0  0  0  0  0  0
  -27.0943  -25.3647   23.0707 C   0  0  0  0  0  0  0  0  0  0  0  0
  -25.8061  -11.0875   20.2361 C   0  0  0  0  0  0  0  0  0  0  0  0
  -24.7002  -13.1353   19.5874 C   0  0  0  0  0  0  0  0  0  0  0  0
  -28.1204  -26.0639   22.4366 C   0  0  0  0  0  0  0  0  0  0  0  0
  -22.9249  -10.5960   21.9335 C   0  0  0  0  0  0  0  0  0  0  0  0
  -22.5573   -9.6797   22.9188 C   0  0  0  0  0  0  0  0  0  0  0  0
  -26.4864  -27.2664   21.1315 C   0  0  0  0  0  0  0  0  0  0  0  0
  -31.0018  -22.4745   19.4291 C   0  0  0  0  0  0  0  0  0  0  0  0
  -28.7242  -23.2796   19.4572 C   0  0  0  0  0  0  0  0  0  0  0  0
  -22.5957   -7.9036   21.2813 C   0  0  0  0  0  0  0  0  0  0  0  0
  -27.0417  -13.1630   20.1824 C   0  0  0  0  0  0  0  0  0  0  0  0
  -29.4943  -13.6746   19.7026 C   0  0  0  0  0  0  0  0  0  0  0  0
  -22.5316  -18.9845   21.1431 C   0  0  0  0  0  0  0  0  0  0  0  0
  -25.7547  -25.6037   22.7315 C   0  0  0  0  0  0  0  0  0  0  0  0
  -23.2556  -20.1307   21.5295 C   0  0  0  0  0  0  0  0  0  0  0  0
  -25.4450  -26.5707   21.7645 C   0  0  0  0  0  0  0  0  0  0  0  0
  -30.0447  -23.4057   19.0261 C   0  0  0  0  0  0  0  0  0  0  0  0
  -30.6384  -21.4172   20.2633 C   0  0  0  0  0  0  0  0  0  0  0  0
  -28.3607  -22.2223   20.2914 C   0  0  0  0  0  0  0  0  0  0  0  0
  -29.3178  -21.2912   20.6944 C   0  0  0  0  0  0  0  0  0  0  0  0
  -24.6571  -11.7608   19.8216 C   0  0  0  0  0  0  0  0  0  0  0  0
  -27.8167  -27.0128   21.4648 C   0  0  0  0  0  0  0  0  0  0  0  0
  -23.1278  -10.1662   20.6221 C   0  0  0  0  0  0  0  0  0  0  0  0
  -22.3927   -8.3335   22.5927 C   0  0  0  0  0  0  0  0  0  0  0  0
  -22.9632   -8.8200   20.2960 C   0  0  0  0  0  0  0  0  0  0  0  0
  -28.2729  -13.8878   20.3692 C   0  0  0  0  0  0  0  0  0  0  0  0
  -30.3437  -14.6146   20.2332 C   0  0  0  0  0  0  0  0  0  0  0  0
  -31.5822  -26.6689   17.9275 C   0  0  0  0  0  0  0  0  0  0  0  0
  -32.8582  -26.7106   17.5155 C   0  0  0  0  0  0  0  0  0  0  0  0
  -29.8311  -12.7130   18.6939 C   0  0  0  0  0  0  0  0  0  0  0  0
  -23.4048  -23.8510   21.5031 C   0  0  0  0  0  0  0  0  0  0  0  0
  -21.6364  -26.5023   22.1076 C   0  0  0  0  0  0  0  0  0  0  0  0
  -22.0486  -30.0722   21.7866 C   0  0  0  0  0  0  0  0  0  0  0  0
  -29.4511  -19.9311   22.8107 C   0  0  0  0  0  0  0  0  0  0  0  0
  -21.4285  -19.0511   20.1166 C   0  0  0  0  0  0  0  0  0  0  0  0
  -24.6582  -24.8602   23.4437 C   0  0  0  0  0  0  0  0  0  0  0  0
  -24.0222  -26.8791   21.3787 C   0  0  0  0  0  0  0  0  0  0  0  0
  -30.5512  -27.6811   17.5076 C   0  0  0  0  0  0  0  0  0  0  0  0
  -21.5140  -20.2903   19.2315 C   0  0  0  0  0  0  0  0  0  0  0  0
  -29.8312  -28.2421   18.7279 C   0  0  0  0  0  0  0  0  0  0  0  0
  -31.1186  -17.1266   24.2361 C   0  0  0  0  0  0  0  0  0  0  0  0
  -21.6839  -21.5332   20.0923 C   0  0  0  0  0  0  0  0  0  0  0  0
  -30.6940  -15.9594   23.3419 C   0  0  0  0  0  0  0  0  0  0  0  0
  -29.9835  -18.1292   24.4370 C   0  0  0  0  0  0  0  0  0  0  0  0
  -28.9447  -17.4604   22.3056 C   0  0  0  0  0  0  0  0  0  0  0  0
  -30.4979  -26.1961   20.0447 C   0  0  0  0  0  0  0  0  0  0  0  0
  -23.0004  -21.4777   20.8777 C   0  0  1  0  0  0  0  0  0  0  0  0
  -23.3543  -24.8169   22.6529 C   0  0  1  0  0  0  0  0  0  0  0  0
  -30.0748  -16.4575   22.0213 C   0  0  2  0  0  0  0  0  0  0  0  0
  -29.3509  -27.1242   19.6533 C   0  0  1  0  0  0  0  0  0  1  0  0
  -31.6862  -20.4352   20.6777 C   0  0  0  0  0  0  0  0  0  0  0  0
  -26.9381  -22.1141   20.7371 C   0  0  0  0  0  0  0  0  0  0  0  0
  -33.8942  -25.7193   17.9189 C   0  0  0  0  0  0  0  0  0  0  0  0
  -20.9920  -31.9578   23.0616 C   0  0  0  0  0  0  0  0  0  0  0  0
  -19.5949  -26.5076   19.8399 C   0  0  0  0  0  0  0  0  0  0  0  0
  -19.5593  -29.0075   19.9712 C   0  0  0  0  0  0  0  0  0  0  0  0
  -18.8333  -27.6469   21.9319 C   0  0  0  0  0  0  0  0  0  0  0  0
  -24.6822  -31.2068   22.5187 C   0  0  0  0  0  0  0  0  0  0  0  0
  -30.4356  -24.5427   18.1286 C   0  0  0  0  0  0  0  0  0  0  0  0
  -21.2885  -27.7537   21.3382 C   0  0  1  0  0  0  0  0  0  0  0  0
  -22.2199  -31.0724   22.9157 C   0  0  2  0  0  0  0  0  0  0  0  0
  -19.8434  -27.7150   20.7658 C   0  0  0  0  0  0  0  0  0  0  0  0
  -28.3364  -14.8848   21.2557 N   0  0  0  0  0  0  0  0  0  0  0  0
  -29.6081  -15.3065   21.1499 N   0  0  0  0  0  0  0  0  0  0  0  0
  -22.9856  -26.1213   22.0990 N   0  0  0  0  0  0  0  0  0  0  0  0
  -29.4490  -18.5599   23.1433 N   0  0  0  0  0  0  0  0  0  0  0  0
  -31.6405  -14.9085   20.0004 N   0  0  0  0  0  0  0  0  0  0  0  0
  -29.6501  -13.0640   17.3491 N   0  0  0  0  0  0  0  0  0  0  0  0
  -28.9484  -20.2173   21.5418 N   0  0  0  0  0  0  0  0  0  0  0  0
  -23.0263  -22.5635   21.8328 N   0  0  0  0  0  0  0  0  0  0  0  0
  -21.5443  -28.8717   22.2400 N   0  0  0  0  0  0  0  0  0  0  0  0
  -31.2051  -25.6192   18.8427 N   0  3  1  0  0  0  0  0  0  0  0  0
  -23.4007  -31.9449   22.6601 N   0  3  0  0  0  0  0  0  0  0  0  0
  -30.2637  -11.5701   18.9771 O   0  0  0  0  0  0  0  0  0  0  0  0
  -23.7592  -24.2449   20.3982 O   0  0  0  0  0  0  0  0  0  0  0  0
  -20.7450  -25.8895   22.7005 O   0  0  0  0  0  0  0  0  0  0  0  0
  -22.3304  -30.3314   20.6187 O   0  0  0  0  0  0  0  0  0  0  0  0
  -29.8932  -20.7855   23.5830 O   0  0  0  0  0  0  0  0  0  0  0  0
  -23.4935  -11.0770   19.6452 O   0  0  0  0  0  0  0  0  0  0  0  0
  -28.8164  -27.6962   20.8440 O   0  0  0  0  0  0  0  0  0  1  0  0
  -22.0412   -7.4534   23.5393 F   0  0  0  0  0  0  0  0  0  0  0  0
  -23.1580   -8.4009   19.0381 F   0  0  0  0  0  0  0  0  0  0  0  0
  1  2  1  0  0  0  0
  1  5  2  0  0  0  0
  2  6  2  0  0  0  0
  3  8  2  0  0  0  0
  3 17  1  0  0  0  0
  4  9  1  0  0  0  0
  4 17  2  0  0  0  0
  5 19  1  0  0  0  0
  6 21  1  0  0  0  0
  7 10  2  0  0  0  0
  7 20  1  0  0  0  0
  8 27  1  0  0  0  0
  9 27  2  0  0  0  0
 10 28  1  0  0  0  0
 11 12  2  0  0  0  0
 11 29  1  0  0  0  0
 12 30  1  0  0  0  0
 13 22  1  0  0  0  0
 13 28  2  0  0  0  0
 14 23  1  0  0  0  0
 14 24  2  0  0  0  0
 15 23  2  0  0  0  0
 15 25  1  0  0  0  0
 16 30  2  0  0  0  0
 16 31  1  0  0  0  0
 17 32  1  0  0  0  0
 18 32  1  0  0  0  0
 18 33  2  0  0  0  0
 18 36  1  0  0  0  0
 19 21  2  0  0  0  0
 19 41  1  0  0  0  0
 20 22  2  0  0  0  0
 20 42  1  0  0  0  0
 21 53  1  0  0  0  0
 22 43  1  0  0  0  0
 23 65  1  0  0  0  0
 24 26  1  0  0  0  0
 24 57  1  0  0  0  0
 25 26  2  0  0  0  0
 25 58  1  0  0  0  0
 26 75  1  0  0  0  0
 27 85  1  0  0  0  0
 28 86  1  0  0  0  0
 29 31  2  0  0  0  0
 29 85  1  0  0  0  0
 30 87  1  0  0  0  0
 31 88  1  0  0  0  0
 32 69  2  0  0  0  0
 33 70  1  0  0  0  0
 33 73  1  0  0  0  0
 34 35  2  0  0  0  0
 34 44  1  0  0  0  0
 34 78  1  0  0  0  0
 35 59  1  0  0  0  0
 36 74  1  0  0  0  0
 36 80  2  0  0  0  0
 37 54  1  0  0  0  0
 37 76  1  0  0  0  0
 37 81  2  0  0  0  0
 38 66  1  0  0  0  0
 38 71  1  0  0  0  0
 38 82  2  0  0  0  0
 39 67  1  0  0  0  0
 39 77  1  0  0  0  0
 39 83  2  0  0  0  0
 40 72  1  0  0  0  0
 40 75  1  0  0  0  0
 40 84  2  0  0  0  0
 41 45  1  0  0  0  0
 42 54  1  0  0  0  0
 43 71  1  0  0  0  0
 44 46  1  0  0  0  0
 45 48  1  0  0  0  0
 46 56  1  0  0  0  0
 47 49  1  0  0  0  0
 47 50  1  0  0  0  0
 48 53  1  0  0  0  0
 49 55  1  0  0  0  0
 50 72  1  0  0  0  0
 51 55  1  0  0  0  0
 51 72  1  0  0  0  0
 52 56  1  0  0  0  0
 52 78  1  0  0  0  0
 53 76  1  0  0  0  0
 54 71  1  0  0  0  0
 55 70  1  0  0  0  0
 56 86  1  0  0  0  0
 60 67  1  0  0  0  0
 61 68  1  0  0  0  0
 62 68  1  0  0  0  0
 63 68  1  0  0  0  0
 64 79  1  0  0  0  0
 65 78  1  0  0  0  0
 66 68  1  0  0  0  0
 66 77  1  0  0  0  0
 67 79  1  0  0  0  0
 69 70  1  0  0  0  0
M  CHG  2  78   1  79   1
M  ISO  4  40 100  56 101  75 100  86 101
M  END
> <Batch ID>
0034

> <Smiles>
CC=C1CC[101CH:1]([101O:1]c2ccc3c(c2)CN(C(=O)C(NC(=O)C(C)NC)C(C)(C)C)C(C(=O)NC2CCCc4ccccc42)C3)CN1Cc1cc(C)c([100NH:0][100C:0](=O)N2CCCC(n3nc(-c4ccc(Oc5ccc(F)cc5F)cc4)c(C(N)=O)c3N)C2)c(C)c1

> <Shape>
0.279

> <Color>
0.055

> <Negative vol penalty>
0.000

$$$$

  -OEChem-04042321483D

 86 95  0     1  0  0  0  0  0999 V2000
  -17.7579  -26.4487   22.4135 C   0  0  0  0  0  0  0  0  0  0  0  0
  -18.8922  -25.7959   21.9417 C   0  0  0  0  0  0  0  0  0  0  0  0
  -22.8087  -11.7594   22.1851 C   0  0  0  0  0  0  0  0  0  0  0  0
  -22.5262  -13.6675   20.7303 C   0  0  0  0  0  0  0  0  0  0  0  0
  -17.8620  -27.7395   22.9301 C   0  0  0  0  0  0  0  0  0  0  0  0
  -20.1313  -26.4341   21.9852 C   0  0  0  0  0  0  0  0  0  0  0  0
  -25.5830  -23.8261   22.9769 C   0  0  0  0  0  0  0  0  0  0  0  0
  -21.6710  -12.1353   22.8991 C   0  0  0  0  0  0  0  0  0  0  0  0
  -21.3884  -14.0434   21.4443 C   0  0  0  0  0  0  0  0  0  0  0  0
  -26.5976  -23.4161   22.1131 C   0  0  0  0  0  0  0  0  0  0  0  0
  -18.1400  -13.1268   21.6131 C   0  0  0  0  0  0  0  0  0  0  0  0
  -17.0150  -13.5088   20.8823 C   0  0  0  0  0  0  0  0  0  0  0  0
  -27.7388  -25.5115   22.4687 C   0  0  0  0  0  0  0  0  0  0  0  0
  -29.1445  -19.1992   17.5868 C   0  0  0  0  0  0  0  0  0  0  0  0
  -30.9103  -17.8163   19.2458 C   0  0  0  0  0  0  0  0  0  0  0  0
  -17.0761  -15.6866   21.9267 C   0  0  0  0  0  0  0  0  0  0  0  0
  -23.2364  -12.5256   21.1007 C   0  0  0  0  0  0  0  0  0  0  0  0
  -24.4702  -11.2909   19.2404 C   0  0  0  0  0  0  0  0  0  0  0  0
  -19.1045  -28.3902   22.9888 C   0  0  0  0  0  0  0  0  0  0  0  0
  -25.6332  -25.0884   23.5856 C   0  0  0  0  0  0  0  0  0  0  0  0
  -20.2519  -27.7354   22.5018 C   0  0  0  0  0  0  0  0  0  0  0  0
  -26.7248  -25.9341   23.3418 C   0  0  0  0  0  0  0  0  0  0  0  0
  -30.2581  -19.8505   18.1172 C   0  0  0  0  0  0  0  0  0  0  0  0
  -28.9138  -17.8565   17.8859 C   0  0  0  0  0  0  0  0  0  0  0  0
  -31.1409  -19.1591   18.9467 C   0  0  0  0  0  0  0  0  0  0  0  0
  -29.7967  -17.1650   18.7154 C   0  0  0  0  0  0  0  0  0  0  0  0
  -20.9608  -13.2773   22.5287 C   0  0  0  0  0  0  0  0  0  0  0  0
  -27.6743  -24.2599   21.8566 C   0  0  0  0  0  0  0  0  0  0  0  0
  -18.7330  -14.0247   22.5008 C   0  0  0  0  0  0  0  0  0  0  0  0
  -16.4831  -14.7887   21.0391 C   0  0  0  0  0  0  0  0  0  0  0  0
  -18.2011  -15.3046   22.6575 C   0  0  0  0  0  0  0  0  0  0  0  0
  -24.4120  -12.1381   20.3631 C   0  0  0  0  0  0  0  0  0  0  0  0
  -25.8039  -11.2421   18.9159 C   0  0  0  0  0  0  0  0  0  0  0  0
  -30.3352  -23.6040   18.5681 C   0  0  0  0  0  0  0  0  0  0  0  0
  -31.5595  -24.0992   18.3513 C   0  0  0  0  0  0  0  0  0  0  0  0
  -23.4132  -10.6091   18.5521 C   0  0  0  0  0  0  0  0  0  0  0  0
  -23.8054  -27.6880   23.5133 C   0  0  0  0  0  0  0  0  0  0  0  0
  -25.8436  -28.7104   25.8204 C   0  0  0  0  0  0  0  0  0  0  0  0
  -28.9264  -28.4909   27.2678 C   0  0  0  0  0  0  0  0  0  0  0  0
  -30.3696  -14.9846   19.8397 C   0  0  0  0  0  0  0  0  0  0  0  0
  -19.1598  -29.8035   23.5123 C   0  0  0  0  0  0  0  0  0  0  0  0
  -24.5441  -25.5051   24.5357 C   0  0  0  0  0  0  0  0  0  0  0  0
  -26.8362  -27.2910   23.9860 C   0  0  0  0  0  0  0  0  0  0  0  0
  -29.0807  -24.4116   18.6892 C   0  0  0  0  0  0  0  0  0  0  0  0
  -20.5702  -30.2666   23.8680 C   0  0  0  0  0  0  0  0  0  0  0  0
  -30.1533  -11.5895   20.8900 C   0  0  0  0  0  0  0  0  0  0  0  0
  -21.5479  -29.9039   22.7547 C   0  0  0  0  0  0  0  0  0  0  0  0
  -28.6626  -11.2659   20.7661 C   0  0  0  0  0  0  0  0  0  0  0  0
  -30.3850  -13.0228   21.3648 C   0  0  0  0  0  0  0  0  0  0  0  0
  -28.2086  -13.7324   20.4542 C   0  0  0  0  0  0  0  0  0  0  0  0
  -28.6928  -22.1275   19.3475 C   0  0  0  0  0  0  0  0  0  0  0  0
  -21.6176  -28.3851   22.5549 C   0  0  1  0  0  0  0  0  0  0  0  0
  -24.4404  -27.0183   24.6991 C   0  0  1  0  0  0  0  0  0  0  0  0
  -27.9258  -12.3201   19.9167 C   0  0  2  0  0  0  0  0  0  0  0  0
  -28.2937  -23.5598   19.6729 C   0  0  1  0  0  0  0  0  0  1  0  0
  -27.7130  -17.1840   17.3037 C   0  0  0  0  0  0  0  0  0  0  0  0
  -32.3396  -19.8357   19.5263 C   0  0  0  0  0  0  0  0  0  0  0  0
  -30.3117  -29.4797   29.1119 C   0  0  0  0  0  0  0  0  0  0  0  0
  -26.3017  -31.2106   24.1324 C   0  0  0  0  0  0  0  0  0  0  0  0
  -28.3413  -31.6799   25.5066 C   0  0  0  0  0  0  0  0  0  0  0  0
  -26.0941  -31.6337   26.5885 C   0  0  0  0  0  0  0  0  0  0  0  0
  -29.1859  -25.8772   28.6316 C   0  0  0  0  0  0  0  0  0  0  0  0
  -30.4854  -21.2951   17.7818 C   0  0  0  0  0  0  0  0  0  0  0  0
  -27.1513  -29.4646   25.8341 C   0  0  1  0  0  0  0  0  0  0  0  0
  -29.3509  -28.3679   28.7201 C   0  0  2  0  0  0  0  0  0  0  0  0
  -26.9693  -30.9725   25.5016 C   0  0  0  0  0  0  0  0  0  0  0  0
  -25.6132  -12.5945   20.7276 N   0  0  0  0  0  0  0  0  0  0  0  0
  -26.4388  -12.0319   19.8287 N   0  0  0  0  0  0  0  0  0  0  0  0
  -25.7431  -27.6555   24.9024 N   0  0  0  0  0  0  0  0  0  0  0  0
  -29.6601  -13.9662   20.5107 N   0  0  0  0  0  0  0  0  0  0  0  0
  -26.4839  -10.6009   17.9417 N   0  0  0  0  0  0  0  0  0  0  0  0
  -22.1009  -10.7688   19.0176 N   0  0  0  0  0  0  0  0  0  0  0  0
  -29.5796  -15.8008   19.0307 N   0  0  0  0  0  0  0  0  0  0  0  0
  -22.4284  -27.7762   23.5876 N   0  0  0  0  0  0  0  0  0  0  0  0
  -27.7564  -29.2087   27.1367 N   0  0  0  0  0  0  0  0  0  0  0  0
  -30.1535  -22.2203   18.9139 N   0  3  1  0  0  0  0  0  0  0  0  0
  -30.0255  -27.0597   28.9535 N   0  3  0  0  0  0  0  0  0  0  0  0
  -23.6281   -9.8669   17.5640 O   0  0  0  0  0  0  0  0  0  0  0  0
  -24.5126  -28.0958   22.5993 O   0  0  0  0  0  0  0  0  0  0  0  0
  -24.9469  -29.0405   26.6007 O   0  0  0  0  0  0  0  0  0  0  0  0
  -29.5704  -28.0025   26.3419 O   0  0  0  0  0  0  0  0  0  0  0  0
  -31.5922  -15.1057   19.9515 O   0  0  0  0  0  0  0  0  0  0  0  0
  -19.8503  -13.6442   23.2250 O   0  0  0  0  0  0  0  0  0  0  0  0
  -28.6657  -23.8625   21.0134 O   0  0  0  0  0  0  0  0  0  1  0  0
  -15.4037  -15.1559   20.3361 F   0  0  0  0  0  0  0  0  0  0  0  0
  -18.7671  -16.1719   23.5079 F   0  0  0  0  0  0  0  0  0  0  0  0
  1  2  1  0  0  0  0
  1  5  2  0  0  0  0
  2  6  2  0  0  0  0
  3  8  2  0  0  0  0
  3 17  1  0  0  0  0
  4  9  1  0  0  0  0
  4 17  2  0  0  0  0
  5 19  1  0  0  0  0
  6 21  1  0  0  0  0
  7 10  2  0  0  0  0
  7 20  1  0  0  0  0
  8 27  1  0  0  0  0
  9 27  2  0  0  0  0
 10 28  1  0  0  0  0
 11 12  2  0  0  0  0
 11 29  1  0  0  0  0
 12 30  1  0  0  0  0
 13 22  1  0  0  0  0
 13 28  2  0  0  0  0
 14 23  1  0  0  0  0
 14 24  2  0  0  0  0
 15 25  1  0  0  0  0
 15 26  2  0  0  0  0
 16 30  2  0  0  0  0
 16 31  1  0  0  0  0
 17 32  1  0  0  0  0
 18 32  1  0  0  0  0
 18 33  2  0  0  0  0
 18 36  1  0  0  0  0
 19 21  2  0  0  0  0
 19 41  1  0  0  0  0
 20 22  2  0  0  0  0
 20 42  1  0  0  0  0
 21 52  1  0  0  0  0
 22 43  1  0  0  0  0
 23 25  2  0  0  0  0
 23 63  1  0  0  0  0
 24 26  1  0  0  0  0
 24 56  1  0  0  0  0
 25 57  1  0  0  0  0
 26 73  1  0  0  0  0
 27 83  1  0  0  0  0
 28 84  1  0  0  0  0
 29 31  2  0  0  0  0
 29 83  1  0  0  0  0
 30 85  1  0  0  0  0
 31 86  1  0  0  0  0
 32 67  2  0  0  0  0
 33 68  1  0  0  0  0
 33 71  1  0  0  0  0
 34 35  2  0  0  0  0
 34 44  1  0  0  0  0
 34 76  1  0  0  0  0
 36 72  1  0  0  0  0
 36 78  2  0  0  0  0
 37 53  1  0  0  0  0
 37 74  1  0  0  0  0
 37 79  2  0  0  0  0
 38 64  1  0  0  0  0
 38 69  1  0  0  0  0
 38 80  2  0  0  0  0
 39 65  1  0  0  0  0
 39 75  1  0  0  0  0
 39 81  2  0  0  0  0
 40 70  1  0  0  0  0
 40 73  1  0  0  0  0
 40 82  2  0  0  0  0
 41 45  1  0  0  0  0
 42 53  1  0  0  0  0
 43 69  1  0  0  0  0
 44 55  1  0  0  0  0
 45 47  1  0  0  0  0
 46 48  1  0  0  0  0
 46 49  1  0  0  0  0
 47 52  1  0  0  0  0
 48 54  1  0  0  0  0
 49 70  1  0  0  0  0
 50 54  1  0  0  0  0
 50 70  1  0  0  0  0
 51 55  1  0  0  0  0
 51 76  1  0  0  0  0
 52 74  1  0  0  0  0
 53 69  1  0  0  0  0
 54 68  1  0  0  0  0
 55 84  1  0  0  0  0
 58 65  1  0  0  0  0
 59 66  1  0  0  0  0
 60 66  1  0  0  0  0
 61 66  1  0  0  0  0
 62 77  1  0  0  0  0
 63 76  1  0  0  0  0
 64 66  1  0  0  0  0
 64 75  1  0  0  0  0
 65 77  1  0  0  0  0
 67 68  1  0  0  0  0
M  CHG  2  76   1  77   1
M  ISO  4  40 100  55 101  73 100  84 101
M  END
> <Batch ID>
0034

> <Smiles>
C=C1C[101CH:1]([101O:1]c2ccc3c(c2)CN(C(=O)C(NC(=O)C(C)NC)C(C)(C)C)C(C(=O)NC2CCCc4ccccc42)C3)CN1Cc1cc(C)c([100NH:0][100C:0](=O)N2CCCC(n3nc(-c4ccc(Oc5ccc(F)cc5F)cc4)c(C(N)=O)c3N)C2)cc1C

> <Shape>
0.245

> <Color>
0.065

> <Negative vol penalty>
0.000

$$$$

  -OEChem-04042321483D

 87 96  0     1  0  0  0  0  0999 V2000
  -25.5196  -31.7553   26.9135 C   0  0  0  0  0  0  0  0  0  0  0  0
  -25.8593  -30.6297   26.1697 C   0  0  0  0  0  0  0  0  0  0  0  0
  -23.1424   -9.7807   19.9822 C   0  0  0  0  0  0  0  0  0  0  0  0
  -23.8677   -9.8915   22.2841 C   0  0  0  0  0  0  0  0  0  0  0  0
  -25.8970  -33.0222   26.4704 C   0  0  0  0  0  0  0  0  0  0  0  0
  -26.5758  -30.7706   24.9817 C   0  0  0  0  0  0  0  0  0  0  0  0
  -30.7881  -26.9288   22.7453 C   0  0  0  0  0  0  0  0  0  0  0  0
  -22.4346   -8.6117   20.2615 C   0  0  0  0  0  0  0  0  0  0  0  0
  -23.1599   -8.7225   22.5634 C   0  0  0  0  0  0  0  0  0  0  0  0
  -30.7234  -25.9241   21.7807 C   0  0  0  0  0  0  0  0  0  0  0  0
  -23.1153   -5.3267   20.6739 C   0  0  0  0  0  0  0  0  0  0  0  0
  -23.2310   -4.2689   19.7721 C   0  0  0  0  0  0  0  0  0  0  0  0
  -31.5211  -27.4783   20.1171 C   0  0  0  0  0  0  0  0  0  0  0  0
  -31.3918  -18.5565   19.9254 C   0  0  0  0  0  0  0  0  0  0  0  0
  -28.9103  -19.8172   19.7377 C   0  0  0  0  0  0  0  0  0  0  0  0
  -20.8476   -4.3402   19.3826 C   0  0  0  0  0  0  0  0  0  0  0  0
  -23.8590  -10.4206   20.9935 C   0  0  0  0  0  0  0  0  0  0  0  0
  -24.1164  -12.9506   20.7915 C   0  0  0  0  0  0  0  0  0  0  0  0
  -26.6268  -33.1779   25.2814 C   0  0  0  0  0  0  0  0  0  0  0  0
  -31.2101  -28.2208   22.4001 C   0  0  0  0  0  0  0  0  0  0  0  0
  -26.9621  -32.0410   24.5216 C   0  0  0  0  0  0  0  0  0  0  0  0
  -31.5926  -28.4969   21.0797 C   0  0  0  0  0  0  0  0  0  0  0  0
  -31.1840  -19.5480   18.9666 C   0  0  0  0  0  0  0  0  0  0  0  0
  -29.1181  -18.8256   20.6965 C   0  0  0  0  0  0  0  0  0  0  0  0
  -30.3588  -18.1952   20.7903 C   0  0  0  0  0  0  0  0  0  0  0  0
  -29.9433  -20.1784   18.8727 C   0  0  0  0  0  0  0  0  0  0  0  0
  -22.4433   -8.0826   21.5521 C   0  0  0  0  0  0  0  0  0  0  0  0
  -31.0872  -26.1996   20.4658 C   0  0  0  0  0  0  0  0  0  0  0  0
  -21.8657   -5.8913   20.9301 C   0  0  0  0  0  0  0  0  0  0  0  0
  -22.0972   -3.7756   19.1265 C   0  0  0  0  0  0  0  0  0  0  0  0
  -20.7319   -5.3981   20.2844 C   0  0  0  0  0  0  0  0  0  0  0  0
  -24.5908  -11.6280   20.7055 C   0  0  0  0  0  0  0  0  0  0  0  0
  -25.1876  -13.7246   20.4176 C   0  0  0  0  0  0  0  0  0  0  0  0
  -30.0626  -23.5845   17.2353 C   0  0  0  0  0  0  0  0  0  0  0  0
  -30.5721  -23.5173   15.9996 C   0  0  0  0  0  0  0  0  0  0  0  0
  -22.8230  -13.4361   21.1752 C   0  0  0  0  0  0  0  0  0  0  0  0
  -29.8743  -31.1047   22.4490 C   0  0  0  0  0  0  0  0  0  0  0  0
  -32.8523  -32.0705   21.6001 C   0  0  0  0  0  0  0  0  0  0  0  0
  -35.8506  -31.2956   20.1661 C   0  0  0  0  0  0  0  0  0  0  0  0
  -30.6301  -14.9382   20.6452 C   0  0  0  0  0  0  0  0  0  0  0  0
  -26.9715  -34.5713   24.8184 C   0  0  0  0  0  0  0  0  0  0  0  0
  -31.2997  -29.2864   23.4579 C   0  0  0  0  0  0  0  0  0  0  0  0
  -32.0719  -29.8623   20.6620 C   0  0  0  0  0  0  0  0  0  0  0  0
  -29.3582  -24.7683   17.8209 C   0  0  0  0  0  0  0  0  0  0  0  0
  -28.0536  -34.6053   23.7421 C   0  0  0  0  0  0  0  0  0  0  0  0
  -29.6096  -12.4364   18.3265 C   0  0  0  0  0  0  0  0  0  0  0  0
  -27.7628  -33.5703   22.6600 C   0  0  0  0  0  0  0  0  0  0  0  0
  -28.1768  -12.1081   18.7497 C   0  0  0  0  0  0  0  0  0  0  0  0
  -30.5009  -12.7293   19.5314 C   0  0  0  0  0  0  0  0  0  0  0  0
  -28.5551  -13.4408   20.8662 C   0  0  0  0  0  0  0  0  0  0  0  0
  -29.8344  -23.1305   19.5215 C   0  0  0  0  0  0  0  0  0  0  0  0
  -27.7602  -32.1510   23.2406 C   0  0  1  0  0  0  0  0  0  0  0  0
  -31.2536  -30.7003   22.8870 C   0  0  1  0  0  0  0  0  0  0  0  0
  -27.6049  -13.1929   19.6821 C   0  0  2  0  0  0  0  0  0  0  0  0
  -29.7505  -24.6316   19.2838 C   0  0  1  0  0  0  0  0  0  1  0  0
  -32.3050  -19.9185   18.0519 C   0  0  0  0  0  0  0  0  0  0  0  0
  -27.9971  -18.4550   21.6111 C   0  0  0  0  0  0  0  0  0  0  0  0
  -38.0741  -32.3023   19.5828 C   0  0  0  0  0  0  0  0  0  0  0  0
  -31.5731  -33.5235   19.2417 C   0  0  0  0  0  0  0  0  0  0  0  0
  -33.8444  -33.6891   18.2015 C   0  0  0  0  0  0  0  0  0  0  0  0
  -33.3928  -34.7984   20.3897 C   0  0  0  0  0  0  0  0  0  0  0  0
  -37.3012  -29.3834   21.8977 C   0  0  0  0  0  0  0  0  0  0  0  0
  -30.6044  -17.1304   21.8083 C   0  0  0  0  0  0  0  0  0  0  0  0
  -29.6966  -21.2479   17.8499 C   0  0  0  0  0  0  0  0  0  0  0  0
  -33.5764  -32.2787   20.2919 C   0  0  1  0  0  0  0  0  0  0  0  0
  -37.2780  -31.5326   20.6252 C   0  0  2  0  0  0  0  0  0  0  0  0
  -33.0858  -33.5471   19.5383 C   0  0  0  0  0  0  0  0  0  0  0  0
  -25.8642  -11.5618   20.3079 N   0  0  0  0  0  0  0  0  0  0  0  0
  -26.1990  -12.8525   20.1407 N   0  0  0  0  0  0  0  0  0  0  0  0
  -32.1361  -30.8723   21.7312 N   0  0  0  0  0  0  0  0  0  0  0  0
  -29.9026  -13.7676   20.3740 N   0  0  0  0  0  0  0  0  0  0  0  0
  -25.3536  -15.0593   20.3018 N   0  0  0  0  0  0  0  0  0  0  0  0
  -21.8378  -12.5044   21.5297 N   0  0  0  0  0  0  0  0  0  0  0  0
  -29.1153  -31.6866   23.4464 N   0  0  0  0  0  0  0  0  0  0  0  0
  -35.0002  -32.2860   20.6101 N   0  0  0  0  0  0  0  0  0  0  0  0
  -29.9873  -15.8738   21.4466 N   0  0  0  0  0  0  0  0  0  0  0  0
  -30.3398  -22.5558   18.2007 N   0  3  1  0  0  0  0  0  0  0  0  0
  -37.9641  -30.2335   20.8755 N   0  3  0  0  0  0  0  0  0  0  0  0
  -22.5442  -14.6590   21.1871 O   0  0  0  0  0  0  0  0  0  0  0  0
  -29.5251  -30.9049   21.2915 O   0  0  0  0  0  0  0  0  0  0  0  0
  -32.9256  -32.9358   22.4762 O   0  0  0  0  0  0  0  0  0  0  0  0
  -35.5235  -30.3305   19.4789 O   0  0  0  0  0  0  0  0  0  0  0  0
  -31.7659  -15.1374   20.2013 O   0  0  0  0  0  0  0  0  0  0  0  0
  -21.7526   -6.9420   21.8250 O   0  0  0  0  0  0  0  0  0  0  0  0
  -31.0244  -25.2210   19.5223 O   0  0  0  0  0  0  0  0  0  1  0  0
  -22.2086   -2.7608   18.2594 F   0  0  0  0  0  0  0  0  0  0  0  0
  -19.5290   -5.9371   20.5256 F   0  0  0  0  0  0  0  0  0  0  0  0
  1  2  1  0  0  0  0
  1  5  2  0  0  0  0
  2  6  2  0  0  0  0
  3  8  2  0  0  0  0
  3 17  1  0  0  0  0
  4  9  1  0  0  0  0
  4 17  2  0  0  0  0
  5 19  1  0  0  0  0
  6 21  1  0  0  0  0
  7 10  2  0  0  0  0
  7 20  1  0  0  0  0
  8 27  1  0  0  0  0
  9 27  2  0  0  0  0
 10 28  1  0  0  0  0
 11 12  2  0  0  0  0
 11 29  1  0  0  0  0
 12 30  1  0  0  0  0
 13 22  1  0  0  0  0
 13 28  2  0  0  0  0
 14 23  1  0  0  0  0
 14 25  2  0  0  0  0
 15 24  2  0  0  0  0
 15 26  1  0  0  0  0
 16 30  2  0  0  0  0
 16 31  1  0  0  0  0
 17 32  1  0  0  0  0
 18 32  1  0  0  0  0
 18 33  2  0  0  0  0
 18 36  1  0  0  0  0
 19 21  2  0  0  0  0
 19 41  1  0  0  0  0
 20 22  2  0  0  0  0
 20 42  1  0  0  0  0
 21 52  1  0  0  0  0
 22 43  1  0  0  0  0
 23 26  2  0  0  0  0
 23 56  1  0  0  0  0
 24 25  1  0  0  0  0
 24 57  1  0  0  0  0
 25 63  1  0  0  0  0
 26 64  1  0  0  0  0
 27 84  1  0  0  0  0
 28 85  1  0  0  0  0
 29 31  2  0  0  0  0
 29 84  1  0  0  0  0
 30 86  1  0  0  0  0
 31 87  1  0  0  0  0
 32 68  2  0  0  0  0
 33 69  1  0  0  0  0
 33 72  1  0  0  0  0
 34 35  2  0  0  0  0
 34 44  1  0  0  0  0
 34 77  1  0  0  0  0
 36 73  1  0  0  0  0
 36 79  2  0  0  0  0
 37 53  1  0  0  0  0
 37 74  1  0  0  0  0
 37 80  2  0  0  0  0
 38 65  1  0  0  0  0
 38 70  1  0  0  0  0
 38 81  2  0  0  0  0
 39 66  1  0  0  0  0
 39 75  1  0  0  0  0
 39 82  2  0  0  0  0
 40 71  1  0  0  0  0
 40 76  1  0  0  0  0
 40 83  2  0  0  0  0
 41 45  1  0  0  0  0
 42 53  1  0  0  0  0
 43 70  1  0  0  0  0
 44 55  1  0  0  0  0
 45 47  1  0  0  0  0
 46 48  1  0  0  0  0
 46 49  1  0  0  0  0
 47 52  1  0  0  0  0
 48 54  1  0  0  0  0
 49 71  1  0  0  0  0
 50 54  1  0  0  0  0
 50 71  1  0  0  0  0
 51 55  1  0  0  0  0
 51 77  1  0  0  0  0
 52 74  1  0  0  0  0
 53 70  1  0  0  0  0
 54 69  1  0  0  0  0
 55 85  1  0  0  0  0
 58 66  1  0  0  0  0
 59 67  1  0  0  0  0
 60 67  1  0  0  0  0
 61 67  1  0  0  0  0
 62 78  1  0  0  0  0
 63 76  1  0  0  0  0
 64 77  1  0  0  0  0
 65 67  1  0  0  0  0
 65 75  1  0  0  0  0
 66 78  1  0  0  0  0
 68 69  1  0  0  0  0
M  CHG  2  77   1  78   1
M  ISO  4  40 100  55 101  76 100  85 101
M  END
> <Batch ID>
0034

> <Smiles>
C=C1C[101CH:1]([101O:1]c2ccc3c(c2)CN(C(=O)C(NC(=O)C(C)NC)C(C)(C)C)C(C(=O)NC2CCCc4ccccc42)C3)CN1Cc1cc(C)c(C[100NH:0][100C:0](=O)N2CCCC(n3nc(-c4ccc(Oc5ccc(F)cc5F)cc4)c(C(N)=O)c3N)C2)cc1C

> <Shape>
0.292

> <Color>
0.207

> <Negative vol penalty>
0.000

$$$$

  -OEChem-04042321483D

 86 95  0     1  0  0  0  0  0999 V2000
  -22.0554   -8.4144   21.2642 C   0  0  0  0  0  0  0  0  0  0  0  0
  -22.5637   -9.0347   22.3999 C   0  0  0  0  0  0  0  0  0  0  0  0
  -19.8931  -28.4088   23.4575 C   0  0  0  0  0  0  0  0  0  0  0  0
  -21.1910  -26.5131   22.7101 C   0  0  0  0  0  0  0  0  0  0  0  0
  -22.6253   -8.6730   20.0194 C   0  0  0  0  0  0  0  0  0  0  0  0
  -23.6343   -9.9227   22.2897 C   0  0  0  0  0  0  0  0  0  0  0  0
  -29.1682  -16.0993   23.0815 C   0  0  0  0  0  0  0  0  0  0  0  0
  -30.7722  -25.1586   19.9704 C   0  0  0  0  0  0  0  0  0  0  0  0
  -30.0414  -26.2667   20.3988 C   0  0  0  0  0  0  0  0  0  0  0  0
  -18.7310  -27.8000   22.9837 C   0  0  0  0  0  0  0  0  0  0  0  0
  -20.0289  -25.9043   22.2363 C   0  0  0  0  0  0  0  0  0  0  0  0
  -29.9038  -16.8775   22.1887 C   0  0  0  0  0  0  0  0  0  0  0  0
  -17.4209  -24.1806   23.5199 C   0  0  0  0  0  0  0  0  0  0  0  0
  -17.2363  -22.8282   23.8070 C   0  0  0  0  0  0  0  0  0  0  0  0
  -27.9884  -17.0005   20.7274 C   0  0  0  0  0  0  0  0  0  0  0  0
  -29.6773  -23.7927   21.6355 C   0  0  0  0  0  0  0  0  0  0  0  0
  -17.1723  -22.3351   21.4427 C   0  0  0  0  0  0  0  0  0  0  0  0
  -21.1231  -27.7654   23.3207 C   0  0  0  0  0  0  0  0  0  0  0  0
  -22.6037  -28.7778   25.1346 C   0  0  0  0  0  0  0  0  0  0  0  0
  -23.7114   -9.5552   19.8964 C   0  0  0  0  0  0  0  0  0  0  0  0
  -27.8384  -15.7561   22.7983 C   0  0  0  0  0  0  0  0  0  0  0  0
  -24.2077  -10.2151   21.0389 C   0  0  0  0  0  0  0  0  0  0  0  0
  -27.2374  -16.2199   21.6195 C   0  0  0  0  0  0  0  0  0  0  0  0
  -30.5902  -23.9215   20.5887 C   0  0  0  0  0  0  0  0  0  0  0  0
  -28.9465  -24.9008   22.0639 C   0  0  0  0  0  0  0  0  0  0  0  0
  -29.1285  -26.1378   21.4456 C   0  0  0  0  0  0  0  0  0  0  0  0
  -18.7989  -26.5478   22.3731 C   0  0  0  0  0  0  0  0  0  0  0  0
  -29.3148  -17.3258   21.0100 C   0  0  0  0  0  0  0  0  0  0  0  0
  -17.4811  -24.6103   22.1942 C   0  0  0  0  0  0  0  0  0  0  0  0
  -17.1121  -21.9054   22.7684 C   0  0  0  0  0  0  0  0  0  0  0  0
  -17.3568  -23.6876   21.1556 C   0  0  0  0  0  0  0  0  0  0  0  0
  -22.3240  -28.3940   23.8094 C   0  0  0  0  0  0  0  0  0  0  0  0
  -23.8623  -29.3245   25.0754 C   0  0  0  0  0  0  0  0  0  0  0  0
  -30.5402  -20.4210   20.3297 C   0  0  0  0  0  0  0  0  0  0  0  0
  -21.7980  -28.6514   26.3138 C   0  0  0  0  0  0  0  0  0  0  0  0
  -26.2762  -13.0271   22.3338 C   0  0  0  0  0  0  0  0  0  0  0  0
  -23.6820  -14.9738   22.2788 C   0  0  0  0  0  0  0  0  0  0  0  0
  -22.8370  -18.1966   20.8944 C   0  0  0  0  0  0  0  0  0  0  0  0
  -28.4704  -28.5676   21.3474 C   0  0  0  0  0  0  0  0  0  0  0  0
  -24.2848   -9.8047   18.5237 C   0  0  0  0  0  0  0  0  0  0  0  0
  -27.0502  -14.9383   23.7844 C   0  0  0  0  0  0  0  0  0  0  0  0
  -25.8065  -15.8963   21.2784 C   0  0  0  0  0  0  0  0  0  0  0  0
  -25.6850  -10.4080   18.5650 C   0  0  0  0  0  0  0  0  0  0  0  0
  -28.7709  -20.8708   18.0375 C   0  0  0  0  0  0  0  0  0  0  0  0
  -26.8072  -31.6285   22.0831 C   0  0  0  0  0  0  0  0  0  0  0  0
  -25.7104  -11.5984   19.5121 C   0  0  0  0  0  0  0  0  0  0  0  0
  -29.2326  -19.4669   18.3679 C   0  0  0  0  0  0  0  0  0  0  0  0
  -25.4969  -31.1815   22.7354 C   0  0  0  0  0  0  0  0  0  0  0  0
  -29.8716  -21.8620   18.3705 C   0  0  0  0  0  0  0  0  0  0  0  0
  -27.2311  -30.6860   20.9581 C   0  0  0  0  0  0  0  0  0  0  0  0
  -25.9908  -28.8201   21.9825 C   0  0  0  0  0  0  0  0  0  0  0  0
  -25.3913  -11.1612   20.9474 C   0  0  1  0  0  0  0  0  0  0  0  0
  -29.5338  -19.3822   19.8513 C   0  0  1  0  0  0  0  0  0  1  0  0
  -25.8636  -14.2188   23.1507 C   0  0  1  0  0  0  0  0  0  0  0  0
  -25.5569  -29.7024   23.1645 C   0  0  2  0  0  0  0  0  0  0  0  0
  -27.9777  -24.7343   23.1896 C   0  0  0  0  0  0  0  0  0  0  0  0
  -21.1585  -19.9050   21.6438 C   0  0  0  0  0  0  0  0  0  0  0  0
  -21.8254  -13.6007   20.2844 C   0  0  0  0  0  0  0  0  0  0  0  0
  -20.9204  -15.8557   19.6806 C   0  0  0  0  0  0  0  0  0  0  0  0
  -20.6614  -14.9915   22.0064 C   0  0  0  0  0  0  0  0  0  0  0  0
  -24.8926  -20.3205   21.0437 C   0  0  0  0  0  0  0  0  0  0  0  0
  -31.3787  -22.7294   20.1290 C   0  0  0  0  0  0  0  0  0  0  0  0
  -22.9413  -15.7379   21.2081 C   0  0  1  0  0  0  0  0  0  0  0  0
  -22.6208  -19.4876   21.6632 C   0  0  2  0  0  0  0  0  0  0  0  0
  -21.6150  -15.0410   20.7927 C   0  0  0  0  0  0  0  0  0  0  0  0
  -23.3243  -28.6734   22.9696 N   0  0  0  0  0  0  0  0  0  0  0  0
  -24.2449  -29.2386   23.7690 N   0  0  0  0  0  0  0  0  0  0  0  0
  -30.5159  -21.6500   19.6678 N   0  0  0  0  0  0  0  0  0  0  0  0
  -25.0794  -15.0884   22.2714 N   0  0  0  0  0  0  0  0  0  0  0  0
  -27.2699  -29.3032   21.4391 N   0  0  0  0  0  0  0  0  0  0  0  0
  -24.6680  -29.8656   26.0137 N   0  0  0  0  0  0  0  0  0  0  0  0
  -20.5300  -28.0658   26.1969 N   0  0  0  0  0  0  0  0  0  0  0  0
  -28.3958  -27.2753   21.8662 N   0  0  0  0  0  0  0  0  0  0  0  0
  -25.2191  -12.3371   21.7717 N   0  0  0  0  0  0  0  0  0  0  0  0
  -22.7694  -17.0936   21.7190 N   0  0  0  0  0  0  0  0  0  0  0  0
  -23.4313  -20.5872   21.0675 N   0  3  0  0  0  0  0  0  0  0  0  0
  -31.2694  -20.1720   21.2932 O   0  0  0  0  0  0  0  0  0  0  0  0
  -22.1842  -29.0608   27.4348 O   0  0  0  0  0  0  0  0  0  0  0  0
  -27.4656  -12.7548   22.2206 O   0  0  0  0  0  0  0  0  0  0  0  0
  -23.0438  -14.3057   23.0962 O   0  0  0  0  0  0  0  0  0  0  0  0
  -23.0414  -18.1691   19.6827 O   0  0  0  0  0  0  0  0  0  0  0  0
  -29.4971  -29.0578   20.8703 O   0  0  0  0  0  0  0  0  0  0  0  0
  -17.6651  -25.9533   21.9109 O   0  0  0  0  0  0  0  0  0  0  0  0
  -30.0307  -18.0850   20.1365 O   0  0  0  0  0  0  0  0  0  1  0  0
  -16.9364  -20.6064   23.0442 F   0  0  0  0  0  0  0  0  0  0  0  0
  -17.4150  -24.0943   19.8801 F   0  0  0  0  0  0  0  0  0  0  0  0
  1  2  1  0  0  0  0
  1  5  2  0  0  0  0
  2  6  2  0  0  0  0
  3 10  2  0  0  0  0
  3 18  1  0  0  0  0
  4 11  1  0  0  0  0
  4 18  2  0  0  0  0
  5 20  1  0  0  0  0
  6 22  1  0  0  0  0
  7 12  2  0  0  0  0
  7 21  1  0  0  0  0
  8  9  2  0  0  0  0
  8 24  1  0  0  0  0
  9 26  1  0  0  0  0
 10 27  1  0  0  0  0
 11 27  2  0  0  0  0
 12 28  1  0  0  0  0
 13 14  2  0  0  0  0
 13 29  1  0  0  0  0
 14 30  1  0  0  0  0
 15 23  1  0  0  0  0
 15 28  2  0  0  0  0
 16 24  2  0  0  0  0
 16 25  1  0  0  0  0
 17 30  2  0  0  0  0
 17 31  1  0  0  0  0
 18 32  1  0  0  0  0
 19 32  1  0  0  0  0
 19 33  2  0  0  0  0
 19 35  1  0  0  0  0
 20 22  2  0  0  0  0
 20 40  1  0  0  0  0
 21 23  2  0  0  0  0
 21 41  1  0  0  0  0
 22 52  1  0  0  0  0
 23 42  1  0  0  0  0
 24 62  1  0  0  0  0
 25 26  2  0  0  0  0
 25 56  1  0  0  0  0
 26 73  1  0  0  0  0
 27 83  1  0  0  0  0
 28 84  1  0  0  0  0
 29 31  2  0  0  0  0
 29 83  1  0  0  0  0
 30 85  1  0  0  0  0
 31 86  1  0  0  0  0
 32 66  2  0  0  0  0
 33 67  1  0  0  0  0
 33 71  1  0  0  0  0
 34 53  1  0  0  0  0
 34 68  1  0  0  0  0
 34 77  2  0  0  0  0
 35 72  1  0  0  0  0
 35 78  2  0  0  0  0
 36 54  1  0  0  0  0
 36 74  1  0  0  0  0
 36 79  2  0  0  0  0
 37 63  1  0  0  0  0
 37 69  1  0  0  0  0
 37 80  2  0  0  0  0
 38 64  1  0  0  0  0
 38 75  1  0  0  0  0
 38 81  2  0  0  0  0
 39 70  1  0  0  0  0
 39 73  1  0  0  0  0
 39 82  2  0  0  0  0
 40 43  1  0  0  0  0
 41 54  1  0  0  0  0
 42 69  1  0  0  0  0
 43 46  1  0  0  0  0
 44 47  1  0  0  0  0
 44 49  1  0  0  0  0
 45 48  1  0  0  0  0
 45 50  1  0  0  0  0
 46 52  1  0  0  0  0
 47 53  1  0  0  0  0
 48 55  1  0  0  0  0
 49 68  1  0  0  0  0
 50 70  1  0  0  0  0
 51 55  1  0  0  0  0
 51 70  1  0  0  0  0
 52 74  1  0  0  0  0
 53 84  1  0  0  0  0
 54 69  1  0  0  0  0
 55 67  1  0  0  0  0
 57 64  1  0  0  0  0
 58 65  1  0  0  0  0
 59 65  1  0  0  0  0
 60 65  1  0  0  0  0
 61 76  1  0  0  0  0
 62 68  1  0  0  0  0
 63 65  1  0  0  0  0
 63 75  1  0  0  0  0
 64 76  1  0  0  0  0
 66 67  1  0  0  0  0
M  CHG  1  76   1
M  ISO  4  39 100  53 101  73 100  84 101
M  END
> <Batch ID>
0034

> <Smiles>
CNC(C)C(=O)NC(C(=O)N1Cc2cc([101O:1][101CH:1]3CCCN(Cc4ccc([100NH:0][100C:0](=O)N5CCCC(n6nc(-c7ccc(Oc8ccc(F)cc8F)cc7)c(C(N)=O)c6N)C5)c(C)c4)C3=O)ccc2CC1C(=O)NC1CCCc2ccccc21)C(C)(C)C

> <Shape>
0.231

> <Color>
0.060

> <Negative vol penalty>
0.000

$$$$

  -OEChem-04042321483D

 87 96  0     1  0  0  0  0  0999 V2000
  -18.0361  -26.6480   22.7052 C   0  0  0  0  0  0  0  0  0  0  0  0
  -19.2628  -26.0020   22.5901 C   0  0  0  0  0  0  0  0  0  0  0  0
  -23.0869  -10.1277   22.3137 C   0  0  0  0  0  0  0  0  0  0  0  0
  -23.5887   -9.6910   19.9911 C   0  0  0  0  0  0  0  0  0  0  0  0
  -17.9588  -28.0300   22.5376 C   0  0  0  0  0  0  0  0  0  0  0  0
  -20.4129  -26.7376   22.3062 C   0  0  0  0  0  0  0  0  0  0  0  0
  -24.3430  -25.3939   25.2035 C   0  0  0  0  0  0  0  0  0  0  0  0
  -30.0002  -19.7692   18.0057 C   0  0  0  0  0  0  0  0  0  0  0  0
  -22.3847   -8.9248   22.3882 C   0  0  0  0  0  0  0  0  0  0  0  0
  -22.8866   -8.4881   20.0656 C   0  0  0  0  0  0  0  0  0  0  0  0
  -25.0162  -24.2224   24.8599 C   0  0  0  0  0  0  0  0  0  0  0  0
  -23.1044   -5.6353   22.6960 C   0  0  0  0  0  0  0  0  0  0  0  0
  -23.3307   -4.8202   23.8050 C   0  0  0  0  0  0  0  0  0  0  0  0
  -30.0810  -18.4123   17.6931 C   0  0  0  0  0  0  0  0  0  0  0  0
  -26.7324  -25.5315   23.7830 C   0  0  0  0  0  0  0  0  0  0  0  0
  -27.6002  -19.5796   18.2082 C   0  0  0  0  0  0  0  0  0  0  0  0
  -20.9941   -4.9790   24.3986 C   0  0  0  0  0  0  0  0  0  0  0  0
  -23.6889  -10.5108   21.1152 C   0  0  0  0  0  0  0  0  0  0  0  0
  -25.7829  -11.9566   21.2949 C   0  0  0  0  0  0  0  0  0  0  0  0
  -19.1101  -28.7841   22.2611 C   0  0  0  0  0  0  0  0  0  0  0  0
  -24.8547  -26.6447   24.8293 C   0  0  0  0  0  0  0  0  0  0  0  0
  -20.3508  -28.1308   22.1334 C   0  0  0  0  0  0  0  0  0  0  0  0
  -26.0651  -26.7176   24.1253 C   0  0  0  0  0  0  0  0  0  0  0  0
  -28.7597  -20.3529   18.2633 C   0  0  0  0  0  0  0  0  0  0  0  0
  -27.6810  -18.2226   17.8955 C   0  0  0  0  0  0  0  0  0  0  0  0
  -22.2846   -8.1049   21.2641 C   0  0  0  0  0  0  0  0  0  0  0  0
  -26.2096  -24.2909   24.1471 C   0  0  0  0  0  0  0  0  0  0  0  0
  -21.8229   -6.1224   22.4383 C   0  0  0  0  0  0  0  0  0  0  0  0
  -22.2756   -4.4920   24.6563 C   0  0  0  0  0  0  0  0  0  0  0  0
  -20.7678   -5.7942   23.2896 C   0  0  0  0  0  0  0  0  0  0  0  0
  -28.9215  -17.6390   17.6380 C   0  0  0  0  0  0  0  0  0  0  0  0
  -24.4139  -11.7536   21.0375 C   0  0  0  0  0  0  0  0  0  0  0  0
  -25.9766  -13.2998   21.0834 C   0  0  0  0  0  0  0  0  0  0  0  0
  -26.7896  -11.0152   21.6899 C   0  0  0  0  0  0  0  0  0  0  0  0
  -23.8284  -29.0316   22.9981 C   0  0  0  0  0  0  0  0  0  0  0  0
  -26.4816  -30.5195   24.1245 C   0  0  0  0  0  0  0  0  0  0  0  0
  -29.6102  -30.2458   25.4603 C   0  0  0  0  0  0  0  0  0  0  0  0
  -25.1867  -17.9213   18.0799 C   0  0  0  0  0  0  0  0  0  0  0  0
  -18.9694  -30.2696   22.0412 C   0  0  0  0  0  0  0  0  0  0  0  0
  -24.1303  -27.9003   25.2309 C   0  0  0  0  0  0  0  0  0  0  0  0
  -26.6672  -28.0365   23.7175 C   0  0  0  0  0  0  0  0  0  0  0  0
  -20.2945  -31.0241   22.1131 C   0  0  0  0  0  0  0  0  0  0  0  0
  -22.6370  -17.0426   20.4045 C   0  0  0  0  0  0  0  0  0  0  0  0
  -21.3639  -30.3037   21.2981 C   0  0  0  0  0  0  0  0  0  0  0  0
  -22.9846  -15.6049   20.7976 C   0  0  0  0  0  0  0  0  0  0  0  0
  -28.3114  -21.8208   22.4081 C   0  0  0  0  0  0  0  0  0  0  0  0
  -26.7125  -23.5085   21.4455 C   0  0  0  0  0  0  0  0  0  0  0  0
  -22.9321  -17.3146   18.9305 C   0  0  0  0  0  0  0  0  0  0  0  0
  -24.6425  -15.5420   18.8911 C   0  0  0  0  0  0  0  0  0  0  0  0
  -29.0306  -21.7310   21.0718 C   0  0  0  0  0  0  0  0  0  0  0  0
  -21.6247  -28.8973   21.8508 C   0  0  1  0  0  0  0  0  0  0  0  0
  -24.4776  -29.0976   24.3516 C   0  0  1  0  0  0  0  0  0  0  0  0
  -24.4232  -15.2394   20.3824 C   0  0  2  0  0  0  0  0  0  0  0  0
  -27.6388  -23.1745   22.6123 C   0  0  1  0  0  0  0  0  0  1  0  0
  -27.4113  -23.4375   20.0845 C   0  0  1  0  0  0  0  0  0  0  0  0
  -27.7390  -25.9105   19.9266 C   0  0  0  0  0  0  0  0  0  0  0  0
  -31.5481  -31.6369   26.2392 C   0  0  0  0  0  0  0  0  0  0  0  0
  -27.2620  -31.0525   21.2234 C   0  0  0  0  0  0  0  0  0  0  0  0
  -29.5816  -31.5644   22.0143 C   0  0  0  0  0  0  0  0  0  0  0  0
  -27.6664  -32.9668   22.7809 C   0  0  0  0  0  0  0  0  0  0  0  0
  -29.4106  -29.1886   28.2173 C   0  0  0  0  0  0  0  0  0  0  0  0
  -28.6732  -21.8124   18.5999 C   0  0  0  0  0  0  0  0  0  0  0  0
  -28.4071  -24.5761   19.8714 C   0  0  0  0  0  0  0  0  0  0  0  0
  -27.9214  -30.6182   23.6815 C   0  0  1  0  0  0  0  0  0  0  0  0
  -30.2628  -30.9332   26.6460 C   0  0  2  0  0  0  0  0  0  0  0  0
  -28.0958  -31.5254   22.4309 C   0  0  0  0  0  0  0  0  0  0  0  0
  -23.7824  -12.8779   20.6892 N   0  0  0  0  0  0  0  0  0  0  0  0
  -24.7591  -13.8003   20.7263 N   0  0  0  0  0  0  0  0  0  0  0  0
  -25.9181  -29.2357   24.1279 N   0  0  0  0  0  0  0  0  0  0  0  0
  -24.3137  -16.9486   18.6113 N   0  0  0  0  0  0  0  0  0  0  0  0
  -27.0678  -14.0899   21.1699 N   0  0  0  0  0  0  0  0  0  0  0  0
  -26.4196   -9.6745   21.8627 N   0  0  0  0  0  0  0  0  0  0  0  0
  -26.4840  -17.4660   17.8467 N   0  0  0  0  0  0  0  0  0  0  0  0
  -22.4487  -28.9658   23.0385 N   0  0  0  0  0  0  0  0  0  0  0  0
  -28.6784  -31.0577   24.8487 N   0  0  0  0  0  0  0  0  0  0  0  0
  -28.0702  -22.0706   19.9550 N   0  3  1  0  0  0  0  0  0  0  0  0
  -30.5873  -29.9384   27.7072 N   0  3  0  0  0  0  0  0  0  0  0  0
  -27.9785  -11.3559   21.8997 O   0  0  0  0  0  0  0  0  0  0  0  0
  -24.5274  -29.0412   21.9917 O   0  0  0  0  0  0  0  0  0  0  0  0
  -25.8813  -31.5429   24.4622 O   0  0  0  0  0  0  0  0  0  0  0  0
  -29.9007  -29.1044   25.1092 O   0  0  0  0  0  0  0  0  0  0  0  0
  -24.8185  -19.0807   17.8742 O   0  0  0  0  0  0  0  0  0  0  0  0
  -21.5997   -6.9310   21.3365 O   0  0  0  0  0  0  0  0  0  0  0  0
  -26.8684  -23.1489   23.8099 O   0  0  0  0  0  0  0  0  0  1  0  0
  -22.4928   -3.7080   25.7204 F   0  0  0  0  0  0  0  0  0  0  0  0
  -19.5343   -6.2582   23.0466 F   0  0  0  0  0  0  0  0  0  0  0  0
  -29.0675  -15.9626   17.2467 Cl  0  0  0  0  0  0  0  0  0  0  0  0
  1  2  1  0  0  0  0
  1  5  2  0  0  0  0
  2  6  2  0  0  0  0
  3  9  2  0  0  0  0
  3 18  1  0  0  0  0
  4 10  1  0  0  0  0
  4 18  2  0  0  0  0
  5 20  1  0  0  0  0
  6 22  1  0  0  0  0
  7 11  2  0  0  0  0
  7 21  1  0  0  0  0
  8 14  2  0  0  0  0
  8 24  1  0  0  0  0
  9 26  1  0  0  0  0
 10 26  2  0  0  0  0
 11 27  1  0  0  0  0
 12 13  2  0  0  0  0
 12 28  1  0  0  0  0
 13 29  1  0  0  0  0
 14 31  1  0  0  0  0
 15 23  1  0  0  0  0
 15 27  2  0  0  0  0
 16 24  2  0  0  0  0
 16 25  1  0  0  0  0
 17 29  2  0  0  0  0
 17 30  1  0  0  0  0
 18 32  1  0  0  0  0
 19 32  1  0  0  0  0
 19 33  2  0  0  0  0
 19 34  1  0  0  0  0
 20 22  2  0  0  0  0
 20 39  1  0  0  0  0
 21 23  2  0  0  0  0
 21 40  1  0  0  0  0
 22 51  1  0  0  0  0
 23 41  1  0  0  0  0
 24 62  1  0  0  0  0
 25 31  2  0  0  0  0
 25 73  1  0  0  0  0
 26 83  1  0  0  0  0
 27 84  1  0  0  0  0
 28 30  2  0  0  0  0
 28 83  1  0  0  0  0
 29 85  1  0  0  0  0
 30 86  1  0  0  0  0
 31 87  1  0  0  0  0
 32 67  2  0  0  0  0
 33 68  1  0  0  0  0
 33 71  1  0  0  0  0
 34 72  1  0  0  0  0
 34 78  2  0  0  0  0
 35 52  1  0  0  0  0
 35 74  1  0  0  0  0
 35 79  2  0  0  0  0
 36 64  1  0  0  0  0
 36 69  1  0  0  0  0
 36 80  2  0  0  0  0
 37 65  1  0  0  0  0
 37 75  1  0  0  0  0
 37 81  2  0  0  0  0
 38 70  1  0  0  0  0
 38 73  1  0  0  0  0
 38 82  2  0  0  0  0
 39 42  1  0  0  0  0
 40 52  1  0  0  0  0
 41 69  1  0  0  0  0
 42 44  1  0  0  0  0
 43 45  1  0  0  0  0
 43 48  1  0  0  0  0
 44 51  1  0  0  0  0
 45 53  1  0  0  0  0
 46 50  1  0  0  0  0
 46 54  1  0  0  0  0
 47 54  1  0  0  0  0
 47 55  1  0  0  0  0
 48 70  1  0  0  0  0
 49 53  1  0  0  0  0
 49 70  1  0  0  0  0
 50 76  1  0  0  0  0
 51 74  1  0  0  0  0
 52 69  1  0  0  0  0
 53 68  1  0  0  0  0
 54 84  1  0  0  0  0
 55 63  1  0  0  0  0
 55 76  1  0  0  0  0
 56 63  1  0  0  0  0
 57 65  1  0  0  0  0
 58 66  1  0  0  0  0
 59 66  1  0  0  0  0
 60 66  1  0  0  0  0
 61 77  1  0  0  0  0
 62 76  1  0  0  0  0
 64 66  1  0  0  0  0
 64 75  1  0  0  0  0
 65 77  1  0  0  0  0
 67 68  1  0  0  0  0
M  CHG  2  76   1  77   1
M  ISO  4  38 100  54 101  73 100  84 101
M  END
> <Batch ID>
0034

> <Smiles>
CCC1C[101CH:1]([101O:1]c2ccc3c(c2)CN(C(=O)C(NC(=O)C(C)NC)C(C)(C)C)C(C(=O)NC2CCCc4ccccc42)C3)CCN1Cc1ccc(Cl)c([100NH:0][100C:0](=O)N2CCCC(n3nc(-c4ccc(Oc5ccc(F)cc5F)cc4)c(C(N)=O)c3N)C2)c1

> <Shape>
0.255

> <Color>
0.090

> <Negative vol penalty>
0.000

$$$$

  -OEChem-04042321483D

 86 95  0     1  0  0  0  0  0999 V2000
  -16.6957  -30.3375   23.0505 C   0  0  0  0  0  0  0  0  0  0  0  0
  -17.7219  -30.8497   23.8380 C   0  0  0  0  0  0  0  0  0  0  0  0
  -24.7235  -14.9830   20.7790 C   0  0  0  0  0  0  0  0  0  0  0  0
  -26.2475  -14.7230   18.9224 C   0  0  0  0  0  0  0  0  0  0  0  0
  -16.8894  -29.1551   22.3376 C   0  0  0  0  0  0  0  0  0  0  0  0
  -18.9421  -30.1789   23.9139 C   0  0  0  0  0  0  0  0  0  0  0  0
  -25.9586  -31.4202   24.6511 C   0  0  0  0  0  0  0  0  0  0  0  0
  -24.8832  -13.6348   21.0989 C   0  0  0  0  0  0  0  0  0  0  0  0
  -26.4072  -13.3747   19.2424 C   0  0  0  0  0  0  0  0  0  0  0  0
  -27.0444  -31.0329   25.4353 C   0  0  0  0  0  0  0  0  0  0  0  0
  -23.7300  -10.6581   19.9881 C   0  0  0  0  0  0  0  0  0  0  0  0
  -22.5824   -9.9229   20.2851 C   0  0  0  0  0  0  0  0  0  0  0  0
  -27.2921  -29.0407   24.0978 C   0  0  0  0  0  0  0  0  0  0  0  0
  -30.3243  -23.5156   23.1751 C   0  0  0  0  0  0  0  0  0  0  0  0
  -31.8598  -25.7381   22.4786 C   0  0  0  0  0  0  0  0  0  0  0  0
  -23.4606   -9.4400   22.4834 C   0  0  0  0  0  0  0  0  0  0  0  0
  -25.4056  -15.5271   19.6906 C   0  0  0  0  0  0  0  0  0  0  0  0
  -24.0436  -17.5753   19.0142 C   0  0  0  0  0  0  0  0  0  0  0  0
  -18.1158  -28.4747   22.3972 C   0  0  0  0  0  0  0  0  0  0  0  0
  -25.5239  -30.6139   23.5894 C   0  0  0  0  0  0  0  0  0  0  0  0
  -19.1519  -28.9855   23.2022 C   0  0  0  0  0  0  0  0  0  0  0  0
  -26.2022  -29.4213   23.3000 C   0  0  0  0  0  0  0  0  0  0  0  0
  -30.9125  -24.2964   24.1700 C   0  0  0  0  0  0  0  0  0  0  0  0
  -31.6803  -25.4076   23.8218 C   0  0  0  0  0  0  0  0  0  0  0  0
  -30.5038  -23.8460   21.8318 C   0  0  0  0  0  0  0  0  0  0  0  0
  -25.7251  -12.8307   20.3307 C   0  0  0  0  0  0  0  0  0  0  0  0
  -27.7095  -29.8416   25.1605 C   0  0  0  0  0  0  0  0  0  0  0  0
  -24.7430  -10.7842   20.9388 C   0  0  0  0  0  0  0  0  0  0  0  0
  -22.4477   -9.3139   21.5327 C   0  0  0  0  0  0  0  0  0  0  0  0
  -24.6083  -10.1752   22.1864 C   0  0  0  0  0  0  0  0  0  0  0  0
  -31.2716  -24.9573   21.4836 C   0  0  0  0  0  0  0  0  0  0  0  0
  -25.2406  -16.9196   19.3593 C   0  0  0  0  0  0  0  0  0  0  0  0
  -24.4172  -18.8784   18.7934 C   0  0  0  0  0  0  0  0  0  0  0  0
  -22.7129  -17.0531   18.9033 C   0  0  0  0  0  0  0  0  0  0  0  0
  -22.8340  -29.0652   22.9042 C   0  0  0  0  0  0  0  0  0  0  0  0
  -24.3423  -28.4867   20.0913 C   0  0  0  0  0  0  0  0  0  0  0  0
  -27.6701  -27.5906   19.0233 C   0  0  0  0  0  0  0  0  0  0  0  0
  -29.1080  -21.8924   21.0447 C   0  0  0  0  0  0  0  0  0  0  0  0
  -18.2621  -27.1749   21.6463 C   0  0  0  0  0  0  0  0  0  0  0  0
  -24.3678  -31.0590   22.7363 C   0  0  0  0  0  0  0  0  0  0  0  0
  -25.7877  -28.5301   22.1588 C   0  0  0  0  0  0  0  0  0  0  0  0
  -19.7118  -26.7246   21.4848 C   0  0  0  0  0  0  0  0  0  0  0  0
  -28.6291  -20.8073   17.3954 C   0  0  0  0  0  0  0  0  0  0  0  0
  -32.4152  -30.0628   25.2920 C   0  0  0  0  0  0  0  0  0  0  0  0
  -20.4587  -26.8446   22.8094 C   0  0  0  0  0  0  0  0  0  0  0  0
  -27.1773  -20.3385   17.4588 C   0  0  0  0  0  0  0  0  0  0  0  0
  -31.0169  -30.2799   25.8551 C   0  0  0  0  0  0  0  0  0  0  0  0
  -28.9640  -21.8007   18.5008 C   0  0  0  0  0  0  0  0  0  0  0  0
  -27.8220  -20.0856   19.9187 C   0  0  0  0  0  0  0  0  0  0  0  0
  -32.8732  -28.6215   25.4639 C   0  0  0  0  0  0  0  0  0  0  0  0
  -30.4866  -27.8513   25.4303 C   0  0  0  0  0  0  0  0  0  0  0  0
  -20.4981  -28.3001   23.2906 C   0  0  1  0  0  0  0  0  0  0  0  0
  -23.6898  -29.9072   22.0007 C   0  0  1  0  0  0  0  0  0  0  0  0
  -26.6720  -20.1328   18.9006 C   0  0  2  0  0  0  0  0  0  0  0  0
  -30.0182  -29.2908   25.2623 C   0  0  1  0  0  0  0  0  0  1  0  0
  -30.7091  -23.9207   25.6012 C   0  0  0  0  0  0  0  0  0  0  0  0
  -28.8603  -28.0236   16.8570 C   0  0  0  0  0  0  0  0  0  0  0  0
  -23.3182  -25.7207   19.3100 C   0  0  0  0  0  0  0  0  0  0  0  0
  -25.5038  -25.3131   18.1589 C   0  0  0  0  0  0  0  0  0  0  0  0
  -24.0135  -27.1578   17.3850 C   0  0  0  0  0  0  0  0  0  0  0  0
  -29.9379  -28.9043   20.3981 C   0  0  0  0  0  0  0  0  0  0  0  0
  -32.3230  -26.2620   24.8744 C   0  0  0  0  0  0  0  0  0  0  0  0
  -25.2578  -27.4045   19.5720 C   0  0  1  0  0  0  0  0  0  0  0  0
  -28.6607  -28.4799   18.2939 C   0  0  2  0  0  0  0  0  0  0  0  0
  -24.5226  -26.4059   18.6341 C   0  0  0  0  0  0  0  0  0  0  0  0
  -26.2957  -17.7386   19.3589 N   0  0  0  0  0  0  0  0  0  0  0  0
  -25.7630  -18.9223   19.0109 N   0  0  0  0  0  0  0  0  0  0  0  0
  -24.6476  -29.0054   21.3576 N   0  0  0  0  0  0  0  0  0  0  0  0
  -28.6463  -21.2975   19.8451 N   0  0  0  0  0  0  0  0  0  0  0  0
  -23.7227  -19.9795   18.4364 N   0  0  0  0  0  0  0  0  0  0  0  0
  -22.2934  -16.5509   17.6638 N   0  0  0  0  0  0  0  0  0  0  0  0
  -29.8954  -23.0296   20.8459 N   0  0  0  0  0  0  0  0  0  0  0  0
  -21.4966  -29.0480   22.5570 N   0  0  0  0  0  0  0  0  0  0  0  0
  -26.3863  -28.0884   18.9497 N   0  0  0  0  0  0  0  0  0  0  0  0
  -31.8622  -27.6930   24.8341 N   0  3  2  0  0  0  0  0  0  0  0  0
  -29.9823  -28.4565   18.9823 N   0  3  0  0  0  0  0  0  0  0  0  0
  -21.9139  -17.0475   19.8702 O   0  0  0  0  0  0  0  0  0  0  0  0
  -23.3491  -28.4737   23.8458 O   0  0  0  0  0  0  0  0  0  0  0  0
  -23.3955  -28.8630   19.3959 O   0  0  0  0  0  0  0  0  0  0  0  0
  -28.0012  -26.5556   19.5976 O   0  0  0  0  0  0  0  0  0  0  0  0
  -28.8144  -21.4331   22.1505 O   0  0  0  0  0  0  0  0  0  0  0  0
  -25.8813  -11.5151   20.6428 O   0  0  0  0  0  0  0  0  0  0  0  0
  -28.7691  -29.4609   25.9248 O   0  0  0  0  0  0  0  0  0  1  0  0
  -21.3450   -8.6093   21.8183 F   0  0  0  0  0  0  0  0  0  0  0  0
  -25.5775  -10.2938   23.1042 F   0  0  0  0  0  0  0  0  0  0  0  0
  -31.5190  -25.4026   19.8325 Cl  0  0  0  0  0  0  0  0  0  0  0  0
  1  2  1  0  0  0  0
  1  5  2  0  0  0  0
  2  6  2  0  0  0  0
  3  8  2  0  0  0  0
  3 17  1  0  0  0  0
  4  9  1  0  0  0  0
  4 17  2  0  0  0  0
  5 19  1  0  0  0  0
  6 21  1  0  0  0  0
  7 10  2  0  0  0  0
  7 20  1  0  0  0  0
  8 26  1  0  0  0  0
  9 26  2  0  0  0  0
 10 27  1  0  0  0  0
 11 12  2  0  0  0  0
 11 28  1  0  0  0  0
 12 29  1  0  0  0  0
 13 22  1  0  0  0  0
 13 27  2  0  0  0  0
 14 23  1  0  0  0  0
 14 25  2  0  0  0  0
 15 24  1  0  0  0  0
 15 31  2  0  0  0  0
 16 29  2  0  0  0  0
 16 30  1  0  0  0  0
 17 32  1  0  0  0  0
 18 32  1  0  0  0  0
 18 33  2  0  0  0  0
 18 34  1  0  0  0  0
 19 21  2  0  0  0  0
 19 39  1  0  0  0  0
 20 22  2  0  0  0  0
 20 40  1  0  0  0  0
 21 52  1  0  0  0  0
 22 41  1  0  0  0  0
 23 24  2  0  0  0  0
 23 56  1  0  0  0  0
 24 62  1  0  0  0  0
 25 31  1  0  0  0  0
 25 72  1  0  0  0  0
 26 82  1  0  0  0  0
 27 83  1  0  0  0  0
 28 30  2  0  0  0  0
 28 82  1  0  0  0  0
 29 84  1  0  0  0  0
 30 85  1  0  0  0  0
 31 86  1  0  0  0  0
 32 66  2  0  0  0  0
 33 67  1  0  0  0  0
 33 70  1  0  0  0  0
 34 71  1  0  0  0  0
 34 77  2  0  0  0  0
 35 53  1  0  0  0  0
 35 73  1  0  0  0  0
 35 78  2  0  0  0  0
 36 63  1  0  0  0  0
 36 68  1  0  0  0  0
 36 79  2  0  0  0  0
 37 64  1  0  0  0  0
 37 74  1  0  0  0  0
 37 80  2  0  0  0  0
 38 69  1  0  0  0  0
 38 72  1  0  0  0  0
 38 81  2  0  0  0  0
 39 42  1  0  0  0  0
 40 53  1  0  0  0  0
 41 68  1  0  0  0  0
 42 45  1  0  0  0  0
 43 46  1  0  0  0  0
 43 48  1  0  0  0  0
 44 47  1  0  0  0  0
 44 50  1  0  0  0  0
 45 52  1  0  0  0  0
 46 54  1  0  0  0  0
 47 55  1  0  0  0  0
 48 69  1  0  0  0  0
 49 54  1  0  0  0  0
 49 69  1  0  0  0  0
 50 75  1  0  0  0  0
 51 55  1  0  0  0  0
 51 75  1  0  0  0  0
 52 73  1  0  0  0  0
 53 68  1  0  0  0  0
 54 67  1  0  0  0  0
 55 83  1  0  0  0  0
 57 64  1  0  0  0  0
 58 65  1  0  0  0  0
 59 65  1  0  0  0  0
 60 65  1  0  0  0  0
 61 76  1  0  0  0  0
 62 75  1  0  0  0  0
 63 65  1  0  0  0  0
 63 74  1  0  0  0  0
 64 76  1  0  0  0  0
 66 67  1  0  0  0  0
M  CHG  2  75   1  76   1
M  ISO  4  38 100  55 101  72 100  83 101
M  END
> <Batch ID>
0034

> <Smiles>
CNC(C)C(=O)NC(C(=O)N1Cc2cc([101O:1][101CH:1]3CCCN(Cc4cc(Cl)c([100NH:0][100C:0](=O)N5CCCC(n6nc(-c7ccc(Oc8ccc(F)cc8F)cc7)c(C(N)=O)c6N)C5)cc4C)C3)ccc2CC1C(=O)NC1CCCc2ccccc21)C(C)(C)C

> <Shape>
0.286

> <Color>
0.108

> <Negative vol penalty>
0.000

$$$$

  -OEChem-04042321483D

 89 98  0     1  0  0  0  0  0999 V2000
  -25.0213  -36.4983   23.2918 C   0  0  0  0  0  0  0  0  0  0  0  0
  -26.1586  -35.7795   22.9377 C   0  0  0  0  0  0  0  0  0  0  0  0
  -22.8590   -9.6269   19.9633 C   0  0  0  0  0  0  0  0  0  0  0  0
  -24.5764   -8.7725   21.4322 C   0  0  0  0  0  0  0  0  0  0  0  0
  -23.8718  -35.8243   23.7020 C   0  0  0  0  0  0  0  0  0  0  0  0
  -26.1473  -34.3863   22.9946 C   0  0  0  0  0  0  0  0  0  0  0  0
  -28.8958  -28.6423   19.7129 C   0  0  0  0  0  0  0  0  0  0  0  0
  -21.8782   -9.1011   20.8042 C   0  0  0  0  0  0  0  0  0  0  0  0
  -23.5956   -8.2468   22.2732 C   0  0  0  0  0  0  0  0  0  0  0  0
  -29.5912  -27.4683   19.9991 C   0  0  0  0  0  0  0  0  0  0  0  0
  -21.5617   -5.5470   22.3453 C   0  0  0  0  0  0  0  0  0  0  0  0
  -21.7399   -4.2456   22.8145 C   0  0  0  0  0  0  0  0  0  0  0  0
  -27.5232  -26.4084   20.6467 C   0  0  0  0  0  0  0  0  0  0  0  0
  -27.6176  -18.3409   20.2063 C   0  0  0  0  0  0  0  0  0  0  0  0
  -25.6280  -17.6528   19.0209 C   0  0  0  0  0  0  0  0  0  0  0  0
  -21.7292   -5.0636   25.0877 C   0  0  0  0  0  0  0  0  0  0  0  0
  -24.2081   -9.4625   20.2772 C   0  0  0  0  0  0  0  0  0  0  0  0
  -25.4366   -9.6912   18.0532 C   0  0  0  0  0  0  0  0  0  0  0  0
  -23.8433  -34.4218   23.7547 C   0  0  0  0  0  0  0  0  0  0  0  0
  -27.5080  -28.7118   19.9021 C   0  0  0  0  0  0  0  0  0  0  0  0
  -24.9967  -33.6930   23.4071 C   0  0  0  0  0  0  0  0  0  0  0  0
  -26.8122  -27.5837   20.3597 C   0  0  0  0  0  0  0  0  0  0  0  0
  -27.0647  -19.6068   20.3996 C   0  0  0  0  0  0  0  0  0  0  0  0
  -25.0751  -18.9187   19.2142 C   0  0  0  0  0  0  0  0  0  0  0  0
  -25.7934  -19.8957   19.9035 C   0  0  0  0  0  0  0  0  0  0  0  0
  -26.8993  -17.3639   19.5170 C   0  0  0  0  0  0  0  0  0  0  0  0
  -22.2464   -8.4111   21.9591 C   0  0  0  0  0  0  0  0  0  0  0  0
  -28.9053  -26.3521   20.4688 C   0  0  0  0  0  0  0  0  0  0  0  0
  -21.4673   -6.6068   23.2474 C   0  0  0  0  0  0  0  0  0  0  0  0
  -21.8236   -4.0038   24.1857 C   0  0  0  0  0  0  0  0  0  0  0  0
  -21.5511   -6.3650   24.6186 C   0  0  0  0  0  0  0  0  0  0  0  0
  -25.2218  -10.0049   19.4087 C   0  0  0  0  0  0  0  0  0  0  0  0
  -26.5089  -10.4674   17.6869 C   0  0  0  0  0  0  0  0  0  0  0  0
  -24.7299   -8.7798   17.2014 C   0  0  0  0  0  0  0  0  0  0  0  0
  -25.5782  -30.4498   21.7348 C   0  0  0  0  0  0  0  0  0  0  0  0
  -23.2558  -28.9530   20.0353 C   0  0  0  0  0  0  0  0  0  0  0  0
  -22.6260  -25.6203   18.8050 C   0  0  0  0  0  0  0  0  0  0  0  0
  -28.7083  -15.6261   19.7497 C   0  0  0  0  0  0  0  0  0  0  0  0
  -22.5927  -33.7392   24.2496 C   0  0  0  0  0  0  0  0  0  0  0  0
  -26.7689  -29.9772   19.5634 C   0  0  0  0  0  0  0  0  0  0  0  0
  -25.3196  -27.6002   20.5605 C   0  0  0  0  0  0  0  0  0  0  0  0
  -22.5426  -32.2488   23.9236 C   0  0  0  0  0  0  0  0  0  0  0  0
  -30.4363  -12.5232   19.4989 C   0  0  0  0  0  0  0  0  0  0  0  0
  -30.1375  -22.2407   18.5224 C   0  0  0  0  0  0  0  0  0  0  0  0
  -23.8727  -31.5832   24.2624 C   0  0  0  0  0  0  0  0  0  0  0  0
  -29.3151  -11.4974   19.3179 C   0  0  0  0  0  0  0  0  0  0  0  0
  -30.4177  -23.5653   19.2197 C   0  0  0  0  0  0  0  0  0  0  0  0
  -30.0308  -13.6439   20.4546 C   0  0  0  0  0  0  0  0  0  0  0  0
  -27.6473  -13.2909   19.9413 C   0  0  0  0  0  0  0  0  0  0  0  0
  -29.6556  -21.1803   19.5022 C   0  0  0  0  0  0  0  0  0  0  0  0
  -28.7278  -22.9699   20.9943 C   0  0  0  0  0  0  0  0  0  0  0  0
  -25.0155  -32.1800   23.4321 C   0  0  1  0  0  0  0  0  0  0  0  0
  -25.4285  -30.0968   20.2820 C   0  0  1  0  0  0  0  0  0  0  0  0
  -27.9854  -12.1773   18.9367 C   0  0  2  0  0  0  0  0  0  0  0  0
  -29.2097  -24.0387   20.0221 C   0  0  1  0  0  0  0  0  0  1  0  0
  -25.2004  -21.2530   20.1113 C   0  0  0  0  0  0  0  0  0  0  0  0
  -21.2850  -24.8349   16.8346 C   0  0  0  0  0  0  0  0  0  0  0  0
  -20.9916  -28.6620   22.0599 C   0  0  0  0  0  0  0  0  0  0  0  0
  -20.2923  -26.5716   20.8727 C   0  0  0  0  0  0  0  0  0  0  0  0
  -20.2509  -28.7584   19.6732 C   0  0  0  0  0  0  0  0  0  0  0  0
  -24.9246  -24.1275   17.6884 C   0  0  0  0  0  0  0  0  0  0  0  0
  -27.8582  -20.6400   21.1438 C   0  0  0  0  0  0  0  0  0  0  0  0
  -22.4737  -27.6713   20.1923 C   0  0  1  0  0  0  0  0  0  0  0  0
  -22.6748  -25.1611   17.3589 C   0  0  2  0  0  0  0  0  0  0  0  0
  -23.7120  -19.2024   18.6731 C   0  0  0  0  0  0  0  0  0  0  0  0
  -21.0286  -27.9185   20.7098 C   0  0  0  0  0  0  0  0  0  0  0  0
  -26.0882  -10.9097   19.8721 N   0  0  0  0  0  0  0  0  0  0  0  0
  -26.8579  -11.1711   18.8019 N   0  0  0  0  0  0  0  0  0  0  0  0
  -24.6425  -28.8627   20.2213 N   0  0  0  0  0  0  0  0  0  0  0  0
  -28.7648  -14.2441   20.0282 N   0  0  0  0  0  0  0  0  0  0  0  0
  -27.1780  -10.6096   16.5231 N   0  0  0  0  0  0  0  0  0  0  0  0
  -23.6526   -8.0620   17.7385 N   0  0  0  0  0  0  0  0  0  0  0  0
  -27.4603  -16.0775   19.3214 N   0  0  0  0  0  0  0  0  0  0  0  0
  -24.9915  -31.6508   22.0853 N   0  0  0  0  0  0  0  0  0  0  0  0
  -22.5387  -26.9930   18.9023 N   0  0  0  0  0  0  0  0  0  0  0  0
  -28.4445  -21.6932   20.2444 N   0  3  2  0  0  0  0  0  0  0  0  0
  -23.5234  -23.9428   17.2306 N   0  3  0  0  0  0  0  0  0  0  0  0
  -25.0548   -8.5948   16.0040 O   0  0  0  0  0  0  0  0  0  0  0  0
  -26.1802  -29.6883   22.4827 O   0  0  0  0  0  0  0  0  0  0  0  0
  -22.6591  -29.9945   19.7509 O   0  0  0  0  0  0  0  0  0  0  0  0
  -22.6581  -24.8392   19.7533 O   0  0  0  0  0  0  0  0  0  0  0  0
  -29.7014  -16.3505   19.8552 O   0  0  0  0  0  0  0  0  0  0  0  0
  -21.2896   -7.8982   22.7801 O   0  0  0  0  0  0  0  0  0  0  0  0
  -29.5817  -25.2051   20.7495 O   0  0  0  0  0  0  0  0  0  1  0  0
  -21.9932   -2.7538   24.6361 F   0  0  0  0  0  0  0  0  0  0  0  0
  -21.4599   -7.3790   25.4901 F   0  0  0  0  0  0  0  0  0  0  0  0
  -23.1499  -18.1395   18.0267 F   0  0  0  0  0  0  0  0  0  0  0  0
  -22.8082  -19.5566   19.6326 F   0  0  0  0  0  0  0  0  0  0  0  0
  -23.7103  -20.2249   17.7703 F   0  0  0  0  0  0  0  0  0  0  0  0
  1  2  1  0  0  0  0
  1  5  2  0  0  0  0
  2  6  2  0  0  0  0
  3  8  2  0  0  0  0
  3 17  1  0  0  0  0
  4  9  1  0  0  0  0
  4 17  2  0  0  0  0
  5 19  1  0  0  0  0
  6 21  1  0  0  0  0
  7 10  2  0  0  0  0
  7 20  1  0  0  0  0
  8 27  1  0  0  0  0
  9 27  2  0  0  0  0
 10 28  1  0  0  0  0
 11 12  2  0  0  0  0
 11 29  1  0  0  0  0
 12 30  1  0  0  0  0
 13 22  1  0  0  0  0
 13 28  2  0  0  0  0
 14 23  1  0  0  0  0
 14 26  2  0  0  0  0
 15 24  2  0  0  0  0
 15 26  1  0  0  0  0
 16 30  2  0  0  0  0
 16 31  1  0  0  0  0
 17 32  1  0  0  0  0
 18 32  1  0  0  0  0
 18 33  2  0  0  0  0
 18 34  1  0  0  0  0
 19 21  2  0  0  0  0
 19 39  1  0  0  0  0
 20 22  2  0  0  0  0
 20 40  1  0  0  0  0
 21 52  1  0  0  0  0
 22 41  1  0  0  0  0
 23 25  2  0  0  0  0
 23 62  1  0  0  0  0
 24 25  1  0  0  0  0
 24 65  1  0  0  0  0
 25 56  1  0  0  0  0
 26 73  1  0  0  0  0
 27 83  1  0  0  0  0
 28 84  1  0  0  0  0
 29 31  2  0  0  0  0
 29 83  1  0  0  0  0
 30 85  1  0  0  0  0
 31 86  1  0  0  0  0
 32 67  2  0  0  0  0
 33 68  1  0  0  0  0
 33 71  1  0  0  0  0
 34 72  1  0  0  0  0
 34 78  2  0  0  0  0
 35 53  1  0  0  0  0
 35 74  1  0  0  0  0
 35 79  2  0  0  0  0
 36 63  1  0  0  0  0
 36 69  1  0  0  0  0
 36 80  2  0  0  0  0
 37 64  1  0  0  0  0
 37 75  1  0  0  0  0
 37 81  2  0  0  0  0
 38 70  1  0  0  0  0
 38 73  1  0  0  0  0
 38 82  2  0  0  0  0
 39 42  1  0  0  0  0
 40 53  1  0  0  0  0
 41 69  1  0  0  0  0
 42 45  1  0  0  0  0
 43 46  1  0  0  0  0
 43 48  1  0  0  0  0
 44 47  1  0  0  0  0
 44 50  1  0  0  0  0
 45 52  1  0  0  0  0
 46 54  1  0  0  0  0
 47 55  1  0  0  0  0
 48 70  1  0  0  0  0
 49 54  1  0  0  0  0
 49 70  1  0  0  0  0
 50 76  1  0  0  0  0
 51 55  1  0  0  0  0
 51 76  1  0  0  0  0
 52 74  1  0  0  0  0
 53 69  1  0  0  0  0
 54 68  1  0  0  0  0
 55 84  1  0  0  0  0
 57 64  1  0  0  0  0
 58 66  1  0  0  0  0
 59 66  1  0  0  0  0
 60 66  1  0  0  0  0
 61 77  1  0  0  0  0
 62 76  1  0  0  0  0
 63 66  1  0  0  0  0
 63 75  1  0  0  0  0
 64 77  1  0  0  0  0
 65 87  1  0  0  0  0
 65 88  1  0  0  0  0
 65 89  1  0  0  0  0
 67 68  1  0  0  0  0
M  CHG  2  76   1  77   1
M  ISO  4  38 100  55 101  73 100  84 101
M  END
> <Batch ID>
0034

> <Smiles>
CNC(C)C(=O)NC(C(=O)N1Cc2cc([101O:1][101CH:1]3CCCN(Cc4cc([100NH:0][100C:0](=O)N5CCCC(n6nc(-c7ccc(Oc8ccc(F)cc8F)cc7)c(C(N)=O)c6N)C5)cc(C(F)(F)F)c4C)C3)ccc2CC1C(=O)NC1CCCc2ccccc21)C(C)(C)C

> <Shape>
0.328

> <Color>
0.079

> <Negative vol penalty>
0.000

$$$$

  -OEChem-04042321483D

 83 91  0     1  0  0  0  0  0999 V2000
  -28.4918  -13.7090   18.1216 C   0  0  0  0  0  0  0  0  0  0  0  0
  -27.7788  -14.8856   17.9144 C   0  0  0  0  0  0  0  0  0  0  0  0
  -28.7129  -24.6243   19.1696 C   0  0  0  0  0  0  0  0  0  0  0  0
  -27.1938  -23.5883   20.7368 C   0  0  0  0  0  0  0  0  0  0  0  0
  -27.9784  -12.7233   18.9634 C   0  0  0  0  0  0  0  0  0  0  0  0
  -26.5515  -15.0765   18.5482 C   0  0  0  0  0  0  0  0  0  0  0  0
  -24.2658  -20.3634   20.6292 C   0  0  0  0  0  0  0  0  0  0  0  0
  -29.6977  -23.6977   19.5117 C   0  0  0  0  0  0  0  0  0  0  0  0
  -28.1786  -22.6616   21.0788 C   0  0  0  0  0  0  0  0  0  0  0  0
  -23.3480  -21.2647   20.0917 C   0  0  0  0  0  0  0  0  0  0  0  0
  -30.1739  -19.7999   22.1025 C   0  0  0  0  0  0  0  0  0  0  0  0
  -29.7988  -18.4600   22.2002 C   0  0  0  0  0  0  0  0  0  0  0  0
  -21.5837  -20.2136   21.3573 C   0  0  0  0  0  0  0  0  0  0  0  0
  -18.9308  -27.7055   23.8200 C   0  0  0  0  0  0  0  0  0  0  0  0
  -29.1114  -18.4836   19.8841 C   0  0  0  0  0  0  0  0  0  0  0  0
  -27.4609  -24.5696   19.7822 C   0  0  0  0  0  0  0  0  0  0  0  0
  -25.4773  -25.4052   18.4130 C   0  0  0  0  0  0  0  0  0  0  0  0
  -26.7487  -12.9063   19.6153 C   0  0  0  0  0  0  0  0  0  0  0  0
  -23.8469  -19.3718   21.5280 C   0  0  0  0  0  0  0  0  0  0  0  0
  -26.0205  -14.0917   19.3984 C   0  0  0  0  0  0  0  0  0  0  0  0
  -22.4987  -19.3025   21.9068 C   0  0  0  0  0  0  0  0  0  0  0  0
  -18.1951  -26.5893   23.3269 C   0  0  0  0  0  0  0  0  0  0  0  0
  -29.4306  -22.7163   20.4663 C   0  0  0  0  0  0  0  0  0  0  0  0
  -22.0062  -21.1881   20.4535 C   0  0  0  0  0  0  0  0  0  0  0  0
  -30.0177  -20.4817   20.8957 C   0  0  0  0  0  0  0  0  0  0  0  0
  -29.2676  -17.8019   21.0910 C   0  0  0  0  0  0  0  0  0  0  0  0
  -29.4865  -19.8236   19.7865 C   0  0  0  0  0  0  0  0  0  0  0  0
  -26.4433  -25.5269   19.4297 C   0  0  0  0  0  0  0  0  0  0  0  0
  -19.5905  -28.3758   22.8135 C   0  0  0  0  0  0  0  0  0  0  0  0
  -18.3203  -26.4493   21.9621 C   0  0  0  0  0  0  0  0  0  0  0  0
  -24.7547  -26.5710   18.4846 C   0  0  0  0  0  0  0  0  0  0  0  0
  -25.2530  -24.3339   17.4868 C   0  0  0  0  0  0  0  0  0  0  0  0
  -23.8442  -16.1932   21.5197 C   0  0  0  0  0  0  0  0  0  0  0  0
  -22.8073  -16.5744   24.5696 C   0  0  0  0  0  0  0  0  0  0  0  0
  -19.4878  -23.7966   20.4141 C   0  0  0  0  0  0  0  0  0  0  0  0
  -21.2572  -18.5549   26.8765 C   0  0  0  0  0  0  0  0  0  0  0  0
  -22.7464  -30.3525   22.3810 C   0  0  0  0  0  0  0  0  0  0  0  0
  -26.2120  -11.7923   20.4788 C   0  0  0  0  0  0  0  0  0  0  0  0
  -24.8540  -18.4240   22.1195 C   0  0  0  0  0  0  0  0  0  0  0  0
  -22.0015  -18.2694   22.8835 C   0  0  0  0  0  0  0  0  0  0  0  0
  -25.0821  -12.2313   21.4067 C   0  0  0  0  0  0  0  0  0  0  0  0
  -25.5815  -31.0736   20.3515 C   0  0  0  0  0  0  0  0  0  0  0  0
  -24.0595  -13.0677   20.6440 C   0  0  0  0  0  0  0  0  0  0  0  0
  -26.0030  -29.7055   19.8124 C   0  0  0  0  0  0  0  0  0  0  0  0
  -25.0677  -30.9809   21.7865 C   0  0  0  0  0  0  0  0  0  0  0  0
  -24.4108  -28.6285   21.4567 C   0  0  0  0  0  0  0  0  0  0  0  0
  -24.6974  -14.3462   20.0874 C   0  0  1  0  0  0  0  0  0  0  0  0
  -24.2284  -17.1297   22.6301 C   0  0  1  0  0  0  0  0  0  0  0  0
  -24.8838  -28.6625   19.9934 C   0  0  2  0  0  0  0  0  0  0  0  0
  -17.3930  -25.6914   24.1918 C   0  0  0  0  0  0  0  0  0  0  0  0
  -20.5217  -18.5793   29.2756 C   0  0  0  0  0  0  0  0  0  0  0  0
  -20.4585  -14.7587   23.8655 C   0  0  0  0  0  0  0  0  0  0  0  0
  -19.2992  -15.5746   25.9291 C   0  0  0  0  0  0  0  0  0  0  0  0
  -21.4599  -14.3424   26.1190 C   0  0  0  0  0  0  0  0  0  0  0  0
  -22.9908  -20.8697   27.5054 C   0  0  0  0  0  0  0  0  0  0  0  0
  -20.4518  -29.5739   22.9171 C   0  0  0  0  0  0  0  0  0  0  0  0
  -17.7123  -25.4135   21.0612 C   0  0  0  0  0  0  0  0  0  0  0  0
  -19.9816  -22.4028   20.7384 C   0  0  0  0  0  0  0  0  0  1  0  0
  -21.4568  -16.7094   25.2307 C   0  0  1  0  0  0  0  0  0  0  0  0
  -21.6337  -18.9287   28.2988 C   0  0  2  0  0  0  0  0  0  0  0  0
  -20.6773  -15.3646   25.2662 C   0  0  0  0  0  0  0  0  0  0  0  0
  -26.3461  -26.6793   20.0980 N   0  0  0  0  0  0  0  0  0  0  0  0
  -25.3104  -27.2923   19.5000 N   0  0  0  0  0  0  0  0  0  0  0  0
  -23.0236  -17.3613   23.4295 N   0  0  0  0  0  0  0  0  0  0  0  0
  -24.0072  -29.9756   21.8896 N   0  0  0  0  0  0  0  0  0  0  0  0
  -23.7045  -27.0393   17.7773 N   0  0  0  0  0  0  0  0  0  0  0  0
  -26.0873  -23.2095   17.5510 N   0  0  0  0  0  0  0  0  0  0  0  0
  -24.8537  -15.3310   21.1363 N   0  0  0  0  0  0  0  0  0  0  0  0
  -18.3810  -24.1380   21.1754 N   0  0  0  0  0  0  0  0  0  0  0  0
  -21.7023  -17.2926   26.5452 N   0  0  0  0  0  0  0  0  0  0  0  0
  -21.7966  -29.3400   22.4401 N   0  0  0  0  0  0  0  0  0  0  0  0
  -21.9024  -20.3913   28.3962 N   0  3  0  0  0  0  0  0  0  0  0  0
  -24.3504  -24.3798   16.6170 O   0  0  0  0  0  0  0  0  0  0  0  0
  -22.7150  -16.2477   21.0469 O   0  0  0  0  0  0  0  0  0  0  0  0
  -23.6422  -15.8047   25.0514 O   0  0  0  0  0  0  0  0  0  0  0  0
  -20.0238  -24.5122   19.5723 O   0  0  0  0  0  0  0  0  0  0  0  0
  -20.6277  -19.3061   26.1348 O   0  0  0  0  0  0  0  0  0  0  0  0
  -22.4849  -31.5070   22.7353 O   0  0  0  0  0  0  0  0  0  0  0  0
  -30.3913  -21.8118   20.8001 O   0  0  0  0  0  0  0  0  0  0  0  0
  -21.1081  -22.0662   19.9298 O   0  0  0  0  0  0  0  0  0  1  0  0
  -28.9088  -16.5147   21.1845 F   0  0  0  0  0  0  0  0  0  0  0  0
  -29.3352  -20.4730   18.6241 F   0  0  0  0  0  0  0  0  0  0  0  0
  -19.3219  -27.6599   21.2813 S   0  0  0  0  0  0  0  0  0  0  0  0
  1  2  1  0  0  0  0
  1  5  2  0  0  0  0
  2  6  2  0  0  0  0
  3  8  2  0  0  0  0
  3 16  1  0  0  0  0
  4  9  1  0  0  0  0
  4 16  2  0  0  0  0
  5 18  1  0  0  0  0
  6 20  1  0  0  0  0
  7 10  2  0  0  0  0
  7 19  1  0  0  0  0
  8 23  1  0  0  0  0
  9 23  2  0  0  0  0
 10 24  1  0  0  0  0
 11 12  2  0  0  0  0
 11 25  1  0  0  0  0
 12 26  1  0  0  0  0
 13 21  1  0  0  0  0
 13 24  2  0  0  0  0
 14 22  1  0  0  0  0
 14 29  2  0  0  0  0
 15 26  2  0  0  0  0
 15 27  1  0  0  0  0
 16 28  1  0  0  0  0
 17 28  1  0  0  0  0
 17 31  2  0  0  0  0
 17 32  1  0  0  0  0
 18 20  2  0  0  0  0
 18 38  1  0  0  0  0
 19 21  2  0  0  0  0
 19 39  1  0  0  0  0
 20 47  1  0  0  0  0
 21 40  1  0  0  0  0
 22 30  2  0  0  0  0
 22 50  1  0  0  0  0
 23 79  1  0  0  0  0
 24 80  1  0  0  0  0
 25 27  2  0  0  0  0
 25 79  1  0  0  0  0
 26 81  1  0  0  0  0
 27 82  1  0  0  0  0
 28 62  2  0  0  0  0
 29 56  1  0  0  0  0
 29 83  1  0  0  0  0
 30 57  1  0  0  0  0
 30 83  1  0  0  0  0
 31 63  1  0  0  0  0
 31 66  1  0  0  0  0
 32 67  1  0  0  0  0
 32 73  2  0  0  0  0
 33 48  1  0  0  0  0
 33 68  1  0  0  0  0
 33 74  2  0  0  0  0
 34 59  1  0  0  0  0
 34 64  1  0  0  0  0
 34 75  2  0  0  0  0
 35 58  1  0  0  0  0
 35 69  1  0  0  0  0
 35 76  2  0  0  0  0
 36 60  1  0  0  0  0
 36 70  1  0  0  0  0
 36 77  2  0  0  0  0
 37 65  1  0  0  0  0
 37 71  1  0  0  0  0
 37 78  2  0  0  0  0
 38 41  1  0  0  0  0
 39 48  1  0  0  0  0
 40 64  1  0  0  0  0
 41 43  1  0  0  0  0
 42 44  1  0  0  0  0
 42 45  1  0  0  0  0
 43 47  1  0  0  0  0
 44 49  1  0  0  0  0
 45 65  1  0  0  0  0
 46 49  1  0  0  0  0
 46 65  1  0  0  0  0
 47 68  1  0  0  0  0
 48 64  1  0  0  0  0
 49 63  1  0  0  0  0
 51 60  1  0  0  0  0
 52 61  1  0  0  0  0
 53 61  1  0  0  0  0
 54 61  1  0  0  0  0
 55 72  1  0  0  0  0
 56 71  1  0  0  0  0
 57 69  1  0  0  0  0
 58 80  1  0  0  0  0
 59 61  1  0  0  0  0
 59 70  1  0  0  0  0
 60 72  1  0  0  0  0
 62 63  1  0  0  0  0
M  CHG  1  72   1
M  ISO  4  37 100  58 101  71 100  80 101
M  END
> <Batch ID>
0034

> <Smiles>
CNC(C)C(=O)NC(C(=O)N1Cc2cc([101O:1][101CH2:1]C(=O)NCc3sc(C[100NH:0][100C:0](=O)N4CCCC(n5nc(-c6ccc(Oc7ccc(F)cc7F)cc6)c(C(N)=O)c5N)C4)cc3C)ccc2CC1C(=O)NC1CCCc2ccccc21)C(C)(C)C

> <Shape>
0.220

> <Color>
0.071

> <Negative vol penalty>
0.000

$$$$

  -OEChem-04042321483D

 82 90  0     1  0  0  0  0  0999 V2000
  -32.2863  -21.7237   22.3400 C   0  0  0  0  0  0  0  0  0  0  0  0
  -31.1143  -22.1578   22.9510 C   0  0  0  0  0  0  0  0  0  0  0  0
  -29.8275  -27.6994   20.2072 C   0  0  0  0  0  0  0  0  0  0  0  0
  -28.7228  -26.3480   21.8777 C   0  0  0  0  0  0  0  0  0  0  0  0
  -32.2250  -21.0183   21.1389 C   0  0  0  0  0  0  0  0  0  0  0  0
  -29.8802  -21.8876   22.3606 C   0  0  0  0  0  0  0  0  0  0  0  0
  -23.0656  -20.4807   24.0631 C   0  0  0  0  0  0  0  0  0  0  0  0
  -19.1345  -27.2321   23.5484 C   0  0  0  0  0  0  0  0  0  0  0  0
  -19.4897  -28.0188   21.2918 C   0  0  0  0  0  0  0  0  0  0  0  0
  -18.6299  -26.0309   23.0502 C   0  0  0  0  0  0  0  0  0  0  0  0
  -18.9851  -26.8176   20.7936 C   0  0  0  0  0  0  0  0  0  0  0  0
  -31.0674  -27.2649   20.6757 C   0  0  0  0  0  0  0  0  0  0  0  0
  -29.9627  -25.9135   22.3461 C   0  0  0  0  0  0  0  0  0  0  0  0
  -21.7725  -20.9188   23.7809 C   0  0  0  0  0  0  0  0  0  0  0  0
  -33.0152  -24.5161   20.3879 C   0  0  0  0  0  0  0  0  0  0  0  0
  -33.9660  -24.1298   19.4433 C   0  0  0  0  0  0  0  0  0  0  0  0
  -21.7841  -19.6232   21.7460 C   0  0  0  0  0  0  0  0  0  0  0  0
  -35.4654  -25.8429   20.2520 C   0  0  0  0  0  0  0  0  0  0  0  0
  -28.6552  -27.2409   20.8082 C   0  0  0  0  0  0  0  0  0  0  0  0
  -26.5871  -27.0929   19.3221 C   0  0  0  0  0  0  0  0  0  0  0  0
  -30.9890  -20.7310   20.5385 C   0  0  0  0  0  0  0  0  0  0  0  0
  -23.7330  -19.6178   23.1819 C   0  0  0  0  0  0  0  0  0  0  0  0
  -29.8024  -21.1789   21.1497 C   0  0  0  0  0  0  0  0  0  0  0  0
  -23.0847  -19.1736   22.0206 C   0  0  0  0  0  0  0  0  0  0  0  0
  -19.5644  -28.2260   22.6692 C   0  0  0  0  0  0  0  0  0  0  0  0
  -18.5552  -25.8237   21.6729 C   0  0  0  0  0  0  0  0  0  0  0  0
  -31.1350  -26.3720   21.7451 C   0  0  0  0  0  0  0  0  0  0  0  0
  -21.1326  -20.4924   22.6208 C   0  0  0  0  0  0  0  0  0  0  0  0
  -33.2894  -25.5658   21.2646 C   0  0  0  0  0  0  0  0  0  0  0  0
  -35.1911  -24.7932   19.3753 C   0  0  0  0  0  0  0  0  0  0  0  0
  -34.5146  -26.2292   21.1966 C   0  0  0  0  0  0  0  0  0  0  0  0
  -27.3741  -27.6898   20.3251 C   0  0  0  0  0  0  0  0  0  0  0  0
  -25.4748  -27.8942   19.2360 C   0  0  0  0  0  0  0  0  0  0  0  0
  -26.8388  -25.9190   18.5383 C   0  0  0  0  0  0  0  0  0  0  0  0
  -26.3857  -19.8024   21.4404 C   0  0  0  0  0  0  0  0  0  0  0  0
  -25.7311  -16.6862   20.8217 C   0  0  0  0  0  0  0  0  0  0  0  0
  -23.4055  -14.1952   20.6386 C   0  0  0  0  0  0  0  0  0  0  0  0
  -21.9620  -31.0400   22.5943 C   0  0  0  0  0  0  0  0  0  0  0  0
  -30.9755  -20.0065   19.2158 C   0  0  0  0  0  0  0  0  0  0  0  0
  -25.1176  -19.1332   23.5141 C   0  0  0  0  0  0  0  0  0  0  0  0
  -23.7500  -18.2312   21.0522 C   0  0  0  0  0  0  0  0  0  0  0  0
  -29.6084  -19.4357   18.8478 C   0  0  0  0  0  0  0  0  0  0  0  0
  -24.4288  -32.5525   20.5197 C   0  0  0  0  0  0  0  0  0  0  0  0
  -28.5165  -20.4760   19.0765 C   0  0  0  0  0  0  0  0  0  0  0  0
  -25.3666  -31.3973   20.1648 C   0  0  0  0  0  0  0  0  0  0  0  0
  -23.9047  -32.4351   21.9492 C   0  0  0  0  0  0  0  0  0  0  0  0
  -24.2054  -29.9893   21.9163 C   0  0  0  0  0  0  0  0  0  0  0  0
  -28.4434  -20.8837   20.5530 C   0  0  1  0  0  0  0  0  0  0  0  0
  -25.8961  -18.6633   22.2891 C   0  0  1  0  0  0  0  0  0  0  0  0
  -24.7156  -30.0339   20.4658 C   0  0  2  0  0  0  0  0  0  0  0  0
  -23.1645  -11.7633   20.0682 C   0  0  0  0  0  0  0  0  0  0  0  0
  -25.9152  -17.3667   17.8530 C   0  0  0  0  0  0  0  0  0  0  0  0
  -24.7570  -15.2033   17.3566 C   0  0  0  0  0  0  0  0  0  0  0  0
  -26.9775  -15.1950   18.4933 C   0  0  0  0  0  0  0  0  0  0  0  0
  -22.4639  -13.5300   23.3643 C   0  0  0  0  0  0  0  0  0  0  0  0
  -20.1040  -29.5105   23.2009 C   0  0  0  0  0  0  0  0  0  0  0  0
  -18.0139  -24.5307   21.1379 C   0  0  0  0  0  0  0  0  0  0  0  0
  -18.4401  -22.0920   20.8064 C   0  0  0  0  0  0  0  0  0  0  0  0
  -19.5119  -21.0319   20.9661 C   0  0  0  0  0  0  0  0  0  1  0  0
  -24.9322  -15.9491   19.7741 C   0  0  1  0  0  0  0  0  0  0  0  0
  -23.4052  -12.7759   21.1771 C   0  0  2  0  0  0  0  0  0  0  0  0
  -25.6334  -15.9478   18.3863 C   0  0  0  0  0  0  0  0  0  0  0  0
  -26.8098  -28.7858   20.8393 N   0  0  0  0  0  0  0  0  0  0  0  0
  -25.6564  -28.8839   20.1566 N   0  0  0  0  0  0  0  0  0  0  0  0
  -25.1062  -17.7906   21.4181 N   0  0  0  0  0  0  0  0  0  0  0  0
  -23.2983  -31.1198   22.1688 N   0  0  0  0  0  0  0  0  0  0  0  0
  -24.3691  -27.8416   18.4633 N   0  0  0  0  0  0  0  0  0  0  0  0
  -28.0306  -25.2139   18.7549 N   0  0  0  0  0  0  0  0  0  0  0  0
  -27.7611  -19.8672   21.3248 N   0  0  0  0  0  0  0  0  0  0  0  0
  -24.6775  -14.6188   20.3161 N   0  0  0  0  0  0  0  0  0  0  0  0
  -21.4631  -29.7554   22.7723 N   0  0  0  0  0  0  0  0  0  0  0  0
  -22.3373  -12.6116   22.2035 N   0  3  0  0  0  0  0  0  0  0  0  0
  -18.9696  -23.3983   21.2726 N   0  3  0  0  0  0  0  0  0  0  0  0
  -26.0385  -25.5168   17.6601 O   0  0  0  0  0  0  0  0  0  0  0  0
  -25.5755  -20.5652   20.9272 O   0  0  0  0  0  0  0  0  0  0  0  0
  -26.8650  -16.2921   21.1057 O   0  0  0  0  0  0  0  0  0  0  0  0
  -22.3796  -14.8602   20.5128 O   0  0  0  0  0  0  0  0  0  0  0  0
  -21.2635  -32.0393   22.7950 O   0  0  0  0  0  0  0  0  0  0  0  0
  -32.3448  -25.9477   22.2024 O   0  0  0  0  0  0  0  0  0  0  0  0
  -19.8706  -20.9189   22.3426 O   0  0  0  0  0  0  0  0  0  1  0  0
  -36.1046  -24.4211   18.4692 F   0  0  0  0  0  0  0  0  0  0  0  0
  -34.7843  -27.2377   22.0369 F   0  0  0  0  0  0  0  0  0  0  0  0
  1  2  1  0  0  0  0
  1  5  2  0  0  0  0
  2  6  2  0  0  0  0
  3 12  2  0  0  0  0
  3 19  1  0  0  0  0
  4 13  1  0  0  0  0
  4 19  2  0  0  0  0
  5 21  1  0  0  0  0
  6 23  1  0  0  0  0
  7 14  2  0  0  0  0
  7 22  1  0  0  0  0
  8 10  2  0  0  0  0
  8 25  1  0  0  0  0
  9 11  1  0  0  0  0
  9 25  2  0  0  0  0
 10 26  1  0  0  0  0
 11 26  2  0  0  0  0
 12 27  1  0  0  0  0
 13 27  2  0  0  0  0
 14 28  1  0  0  0  0
 15 16  2  0  0  0  0
 15 29  1  0  0  0  0
 16 30  1  0  0  0  0
 17 24  1  0  0  0  0
 17 28  2  0  0  0  0
 18 30  2  0  0  0  0
 18 31  1  0  0  0  0
 19 32  1  0  0  0  0
 20 32  1  0  0  0  0
 20 33  2  0  0  0  0
 20 34  1  0  0  0  0
 21 23  2  0  0  0  0
 21 39  1  0  0  0  0
 22 24  2  0  0  0  0
 22 40  1  0  0  0  0
 23 48  1  0  0  0  0
 24 41  1  0  0  0  0
 25 56  1  0  0  0  0
 26 57  1  0  0  0  0
 27 79  1  0  0  0  0
 28 80  1  0  0  0  0
 29 31  2  0  0  0  0
 29 79  1  0  0  0  0
 30 81  1  0  0  0  0
 31 82  1  0  0  0  0
 32 63  2  0  0  0  0
 33 64  1  0  0  0  0
 33 67  1  0  0  0  0
 34 68  1  0  0  0  0
 34 74  2  0  0  0  0
 35 49  1  0  0  0  0
 35 69  1  0  0  0  0
 35 75  2  0  0  0  0
 36 60  1  0  0  0  0
 36 65  1  0  0  0  0
 36 76  2  0  0  0  0
 37 61  1  0  0  0  0
 37 70  1  0  0  0  0
 37 77  2  0  0  0  0
 38 66  1  0  0  0  0
 38 71  1  0  0  0  0
 38 78  2  0  0  0  0
 39 42  1  0  0  0  0
 40 49  1  0  0  0  0
 41 65  1  0  0  0  0
 42 44  1  0  0  0  0
 43 45  1  0  0  0  0
 43 46  1  0  0  0  0
 44 48  1  0  0  0  0
 45 50  1  0  0  0  0
 46 66  1  0  0  0  0
 47 50  1  0  0  0  0
 47 66  1  0  0  0  0
 48 69  1  0  0  0  0
 49 65  1  0  0  0  0
 50 64  1  0  0  0  0
 51 61  1  0  0  0  0
 52 62  1  0  0  0  0
 53 62  1  0  0  0  0
 54 62  1  0  0  0  0
 55 72  1  0  0  0  0
 56 71  1  0  0  0  0
 57 73  1  0  0  0  0
 58 59  1  0  0  0  0
 58 73  1  0  0  0  0
 59 80  1  0  0  0  0
 60 62  1  0  0  0  0
 60 70  1  0  0  0  0
 61 72  1  0  0  0  0
 63 64  1  0  0  0  0
M  CHG  2  72   1  73   1
M  ISO  4  38 100  59 101  71 100  80 101
M  END
> <Batch ID>
0034

> <Smiles>
CNC(C)C(=O)NC(C(=O)N1Cc2cc([101O:1][101CH2:1]CNCc3ccc(C[100NH:0][100C:0](=O)N4CCCC(n5nc(-c6ccc(Oc7ccc(F)cc7F)cc6)c(C(N)=O)c5N)C4)cc3)ccc2CC1C(=O)NC1CCCc2ccccc21)C(C)(C)C

> <Shape>
0.208

> <Color>
0.088

> <Negative vol penalty>
0.000

$$$$

  -OEChem-04042321483D

 87 96  0     1  0  0  0  0  0999 V2000
  -36.5775  -29.3132   18.1265 C   0  0  0  0  0  0  0  0  0  0  0  0
  -36.2819  -28.3109   19.0450 C   0  0  0  0  0  0  0  0  0  0  0  0
  -23.3633  -10.0958   22.1541 C   0  0  0  0  0  0  0  0  0  0  0  0
  -23.5477   -9.6742   19.7823 C   0  0  0  0  0  0  0  0  0  0  0  0
  -35.5865  -29.7819   17.2650 C   0  0  0  0  0  0  0  0  0  0  0  0
  -34.9949  -27.7776   19.1032 C   0  0  0  0  0  0  0  0  0  0  0  0
  -34.9990  -22.7234   19.4202 C   0  0  0  0  0  0  0  0  0  0  0  0
  -22.6073   -8.9329   22.3021 C   0  0  0  0  0  0  0  0  0  0  0  0
  -22.7918   -8.5113   19.9303 C   0  0  0  0  0  0  0  0  0  0  0  0
  -35.2794  -22.1638   20.6660 C   0  0  0  0  0  0  0  0  0  0  0  0
  -19.4160   -7.9531   21.7732 C   0  0  0  0  0  0  0  0  0  0  0  0
  -18.2668   -8.0239   22.5605 C   0  0  0  0  0  0  0  0  0  0  0  0
  -32.9209  -21.8158   21.0339 C   0  0  0  0  0  0  0  0  0  0  0  0
  -30.7763  -17.8624   24.5656 C   0  0  0  0  0  0  0  0  0  0  0  0
  -32.2431  -16.2753   22.8015 C   0  0  0  0  0  0  0  0  0  0  0  0
  -19.1725   -6.3373   24.0343 C   0  0  0  0  0  0  0  0  0  0  0  0
  -23.8335  -10.4664   20.8942 C   0  0  0  0  0  0  0  0  0  0  0  0
  -24.2181  -12.9837   21.0469 C   0  0  0  0  0  0  0  0  0  0  0  0
  -34.2892  -29.2473   17.3061 C   0  0  0  0  0  0  0  0  0  0  0  0
  -33.6744  -22.8436   18.9758 C   0  0  0  0  0  0  0  0  0  0  0  0
  -33.9853  -28.2405   18.2423 C   0  0  0  0  0  0  0  0  0  0  0  0
  -32.6264  -22.3750   19.7810 C   0  0  0  0  0  0  0  0  0  0  0  0
  -30.1178  -17.1019   23.5994 C   0  0  0  0  0  0  0  0  0  0  0  0
  -32.1683  -17.8295   24.6497 C   0  0  0  0  0  0  0  0  0  0  0  0
  -30.8512  -16.3083   22.7173 C   0  0  0  0  0  0  0  0  0  0  0  0
  -22.3216   -8.1407   21.1902 C   0  0  0  0  0  0  0  0  0  0  0  0
  -34.2401  -21.7126   21.4743 C   0  0  0  0  0  0  0  0  0  0  0  0
  -20.4435   -7.0743   22.1164 C   0  0  0  0  0  0  0  0  0  0  0  0
  -18.1450   -7.2161   23.6911 C   0  0  0  0  0  0  0  0  0  0  0  0
  -20.3217   -6.2665   23.2470 C   0  0  0  0  0  0  0  0  0  0  0  0
  -32.9017  -17.0359   23.7677 C   0  0  0  0  0  0  0  0  0  0  0  0
  -24.6139  -11.6679   20.7407 C   0  0  0  0  0  0  0  0  0  0  0  0
  -25.3086  -13.7540   20.7247 C   0  0  0  0  0  0  0  0  0  0  0  0
  -22.9758  -13.4664   21.5755 C   0  0  0  0  0  0  0  0  0  0  0  0
  -31.7804  -25.2758   18.2005 C   0  0  0  0  0  0  0  0  0  0  0  0
  -29.7500  -22.9054   17.3167 C   0  0  0  0  0  0  0  0  0  0  0  0
  -28.7133  -19.7043   18.6186 C   0  0  0  0  0  0  0  0  0  0  0  0
  -30.7963  -14.6947   20.7836 C   0  0  0  0  0  0  0  0  0  0  0  0
  -33.2389  -29.8191   16.3870 C   0  0  0  0  0  0  0  0  0  0  0  0
  -33.3904  -23.4251   17.6180 C   0  0  0  0  0  0  0  0  0  0  0  0
  -31.1885  -22.4625   19.3414 C   0  0  0  0  0  0  0  0  0  0  0  0
  -31.9983  -28.9390   16.2576 C   0  0  0  0  0  0  0  0  0  0  0  0
  -29.5406  -12.5831   18.2065 C   0  0  0  0  0  0  0  0  0  0  0  0
  -31.5316  -28.4690   17.6317 C   0  0  0  0  0  0  0  0  0  0  0  0
  -28.1143  -12.2650   18.6612 C   0  0  0  0  0  0  0  0  0  0  0  0
  -35.0496  -22.2970   24.7637 C   0  0  0  0  0  0  0  0  0  0  0  0
  -35.7946  -21.1323   25.4057 C   0  0  0  0  0  0  0  0  0  0  0  0
  -30.5081  -12.6602   19.3862 C   0  0  0  0  0  0  0  0  0  0  0  0
  -28.6732  -13.2494   20.9208 C   0  0  0  0  0  0  0  0  0  0  0  0
  -33.0066  -20.8379   24.5267 C   0  0  0  0  0  0  0  0  0  0  0  0
  -32.6074  -27.6194   18.3190 C   0  0  1  0  0  0  0  0  0  0  0  0
  -31.9708  -23.9679   17.4856 C   0  0  1  0  0  0  0  0  0  0  0  0
  -27.6500  -13.2256   19.7735 C   0  0  2  0  0  0  0  0  0  0  0  0
  -33.9473  -21.8106   23.8313 C   0  0  2  0  0  0  0  0  0  1  0  0
  -34.8486  -20.1610   26.1217 C   0  0  2  0  0  0  0  0  0  0  0  0
  -28.6259  -17.1582   23.5307 C   0  0  0  0  0  0  0  0  0  0  0  0
  -35.6435  -18.9793   26.6739 C   0  0  0  0  0  0  0  0  0  0  0  0
  -27.8697  -17.3943   18.1188 C   0  0  0  0  0  0  0  0  0  0  0  0
  -27.0020  -24.0774   17.9372 C   0  0  0  0  0  0  0  0  0  0  0  0
  -26.1880  -21.7521   18.3829 C   0  0  0  0  0  0  0  0  0  0  0  0
  -27.0189  -22.3671   16.1126 C   0  0  0  0  0  0  0  0  0  0  0  0
  -31.4276  -18.5429   18.8246 C   0  0  0  0  0  0  0  0  0  0  0  0
  -32.8387  -18.6625   25.7021 C   0  0  0  0  0  0  0  0  0  0  0  0
  -28.6708  -22.1086   18.0091 C   0  0  1  0  0  0  0  0  0  0  0  0
  -29.0604  -18.3383   18.0547 C   0  0  2  0  0  0  0  0  0  0  0  0
  -27.2421  -22.5869   17.6248 C   0  0  0  0  0  0  0  0  0  0  0  0
  -25.8586  -11.6023   20.2606 N   0  0  0  0  0  0  0  0  0  0  0  0
  -26.2544  -12.8867   20.2627 N   0  0  0  0  0  0  0  0  0  0  0  0
  -30.9616  -23.0447   18.0084 N   0  0  0  0  0  0  0  0  0  0  0  0
  -30.0051  -13.5920   20.3979 N   0  0  0  0  0  0  0  0  0  0  0  0
  -25.5412  -15.0820   20.7943 N   0  0  0  0  0  0  0  0  0  0  0  0
  -21.9614  -12.5392   21.8503 N   0  0  0  0  0  0  0  0  0  0  0  0
  -30.2006  -15.5294   21.7285 N   0  0  0  0  0  0  0  0  0  0  0  0
  -32.6235  -26.2814   17.7677 N   0  0  0  0  0  0  0  0  0  0  0  0
  -28.9354  -20.7078   17.6994 N   0  0  0  0  0  0  0  0  0  0  0  0
  -33.7916  -19.6845   25.1295 N   0  3  1  0  0  0  0  0  0  0  0  0
  -30.1836  -17.7308   18.8230 N   0  3  0  0  0  0  0  0  0  0  0  0
  -22.7656  -14.6857   21.7820 O   0  0  0  0  0  0  0  0  0  0  0  0
  -30.9306  -25.3661   19.0787 O   0  0  0  0  0  0  0  0  0  0  0  0
  -29.5287  -23.3805   16.2000 O   0  0  0  0  0  0  0  0  0  0  0  0
  -28.2843  -19.8647   19.7591 O   0  0  0  0  0  0  0  0  0  0  0  0
  -31.9084  -14.8995   20.2904 O   0  0  0  0  0  0  0  0  0  0  0  0
  -21.5841   -7.0058   21.3342 O   0  0  0  0  0  0  0  0  0  0  0  0
  -34.5110  -21.1666   22.6910 O   0  0  0  0  0  0  0  0  0  1  0  0
  -17.0420   -7.2853   24.4479 F   0  0  0  0  0  0  0  0  0  0  0  0
  -21.3060   -5.4211   23.5824 F   0  0  0  0  0  0  0  0  0  0  0  0
  -34.6250  -16.9701   23.8417 Cl  0  0  0  0  0  0  0  0  0  0  0  0
  1  2  1  0  0  0  0
  1  5  2  0  0  0  0
  2  6  2  0  0  0  0
  3  8  2  0  0  0  0
  3 17  1  0  0  0  0
  4  9  1  0  0  0  0
  4 17  2  0  0  0  0
  5 19  1  0  0  0  0
  6 21  1  0  0  0  0
  7 10  2  0  0  0  0
  7 20  1  0  0  0  0
  8 26  1  0  0  0  0
  9 26  2  0  0  0  0
 10 27  1  0  0  0  0
 11 12  2  0  0  0  0
 11 28  1  0  0  0  0
 12 29  1  0  0  0  0
 13 22  1  0  0  0  0
 13 27  2  0  0  0  0
 14 23  2  0  0  0  0
 14 24  1  0  0  0  0
 15 25  2  0  0  0  0
 15 31  1  0  0  0  0
 16 29  2  0  0  0  0
 16 30  1  0  0  0  0
 17 32  1  0  0  0  0
 18 32  1  0  0  0  0
 18 33  2  0  0  0  0
 18 34  1  0  0  0  0
 19 21  2  0  0  0  0
 19 39  1  0  0  0  0
 20 22  2  0  0  0  0
 20 40  1  0  0  0  0
 21 51  1  0  0  0  0
 22 41  1  0  0  0  0
 23 25  1  0  0  0  0
 23 56  1  0  0  0  0
 24 31  2  0  0  0  0
 24 63  1  0  0  0  0
 25 73  1  0  0  0  0
 26 83  1  0  0  0  0
 27 84  1  0  0  0  0
 28 30  2  0  0  0  0
 28 83  1  0  0  0  0
 29 85  1  0  0  0  0
 30 86  1  0  0  0  0
 31 87  1  0  0  0  0
 32 67  2  0  0  0  0
 33 68  1  0  0  0  0
 33 71  1  0  0  0  0
 34 72  1  0  0  0  0
 34 78  2  0  0  0  0
 35 52  1  0  0  0  0
 35 74  1  0  0  0  0
 35 79  2  0  0  0  0
 36 64  1  0  0  0  0
 36 69  1  0  0  0  0
 36 80  2  0  0  0  0
 37 65  1  0  0  0  0
 37 75  1  0  0  0  0
 37 81  2  0  0  0  0
 38 70  1  0  0  0  0
 38 73  1  0  0  0  0
 38 82  2  0  0  0  0
 39 42  1  0  0  0  0
 40 52  1  0  0  0  0
 41 69  1  0  0  0  0
 42 44  1  0  0  0  0
 43 45  1  0  0  0  0
 43 48  1  0  0  0  0
 44 51  1  0  0  0  0
 45 53  1  0  0  0  0
 46 47  1  0  0  0  0
 46 54  1  0  0  0  0
 47 55  1  0  0  0  0
 48 70  1  0  0  0  0
 49 53  1  0  0  0  0
 49 70  1  0  0  0  0
 50 54  1  0  0  0  0
 50 76  1  0  0  0  0
 51 74  1  0  0  0  0
 52 69  1  0  0  0  0
 53 68  1  0  0  0  0
 54 84  1  0  0  0  0
 55 57  1  0  0  0  0
 55 76  1  0  0  0  0
 58 65  1  0  0  0  0
 59 66  1  0  0  0  0
 60 66  1  0  0  0  0
 61 66  1  0  0  0  0
 62 77  1  0  0  0  0
 63 76  1  0  0  0  0
 64 66  1  0  0  0  0
 64 75  1  0  0  0  0
 65 77  1  0  0  0  0
 67 68  1  0  0  0  0
M  CHG  2  76   1  77   1
M  ISO  4  38 100  54 101  73 100  84 101
M  END
> <Batch ID>
0034

> <Smiles>
CNC(C)C(=O)NC(C(=O)N1Cc2cc([101O:1][101CH:1]3CCC(C)N(Cc4cc(C)c([100NH:0][100C:0](=O)N5CCCC(n6nc(-c7ccc(Oc8ccc(F)cc8F)cc7)c(C(N)=O)c6N)C5)cc4Cl)C3)ccc2CC1C(=O)NC1CCCc2ccccc21)C(C)(C)C

> <Shape>
0.215

> <Color>
0.202

> <Negative vol penalty>
0.000

$$$$

  -OEChem-04042321483D

 88 97  0     1  0  0  0  0  0999 V2000
  -29.0360  -24.2005   18.0267 C   0  0  0  0  0  0  0  0  0  0  0  0
  -27.7537  -24.4979   18.4769 C   0  0  0  0  0  0  0  0  0  0  0  0
  -27.5568  -14.8551   20.4021 C   0  0  0  0  0  0  0  0  0  0  0  0
  -25.4466  -15.0720   19.2458 C   0  0  0  0  0  0  0  0  0  0  0  0
  -30.1453  -24.7194   18.6931 C   0  0  0  0  0  0  0  0  0  0  0  0
  -27.5800  -25.3136   19.5944 C   0  0  0  0  0  0  0  0  0  0  0  0
  -23.9729  -28.8019   18.9119 C   0  0  0  0  0  0  0  0  0  0  0  0
  -19.0527  -22.9205   20.7840 C   0  0  0  0  0  0  0  0  0  0  0  0
  -19.6000  -22.1311   19.7727 C   0  0  0  0  0  0  0  0  0  0  0  0
  -27.2768  -13.5135   20.6615 C   0  0  0  0  0  0  0  0  0  0  0  0
  -25.1665  -13.7303   19.5052 C   0  0  0  0  0  0  0  0  0  0  0  0
  -22.6490  -28.3792   19.0237 C   0  0  0  0  0  0  0  0  0  0  0  0
  -27.3800  -10.5782   18.9864 C   0  0  0  0  0  0  0  0  0  0  0  0
  -28.3995   -9.6503   18.7735 C   0  0  0  0  0  0  0  0  0  0  0  0
  -22.5624  -29.2632   21.2665 C   0  0  0  0  0  0  0  0  0  0  0  0
  -21.2433  -23.1755   21.7705 C   0  0  0  0  0  0  0  0  0  0  0  0
  -28.3003   -9.0075   21.1004 C   0  0  0  0  0  0  0  0  0  0  0  0
  -26.6416  -15.6343   19.6942 C   0  0  0  0  0  0  0  0  0  0  0  0
  -27.5983  -17.5485   18.3055 C   0  0  0  0  0  0  0  0  0  0  0  0
  -29.9849  -25.5497   19.8136 C   0  0  0  0  0  0  0  0  0  0  0  0
  -24.6059  -29.4498   19.9824 C   0  0  0  0  0  0  0  0  0  0  0  0
  -28.6882  -25.8430   20.2773 C   0  0  0  0  0  0  0  0  0  0  0  0
  -23.8935  -29.6955   21.1649 C   0  0  0  0  0  0  0  0  0  0  0  0
  -19.8744  -23.4428   21.7830 C   0  0  0  0  0  0  0  0  0  0  0  0
  -20.9689  -21.8638   19.7602 C   0  0  0  0  0  0  0  0  0  0  0  0
  -21.7906  -22.3860   20.7592 C   0  0  0  0  0  0  0  0  0  0  0  0
  -26.0817  -12.9511   20.2131 C   0  0  0  0  0  0  0  0  0  0  0  0
  -21.9445  -28.6072   20.2021 C   0  0  0  0  0  0  0  0  0  0  0  0
  -26.8208  -10.7208   20.2563 C   0  0  0  0  0  0  0  0  0  0  0  0
  -28.8596   -8.8649   19.8305 C   0  0  0  0  0  0  0  0  0  0  0  0
  -27.2809   -9.9355   21.3132 C   0  0  0  0  0  0  0  0  0  0  0  0
  -26.9301  -17.0204   19.4264 C   0  0  0  0  0  0  0  0  0  0  0  0
  -27.6169  -18.9043   18.5241 C   0  0  0  0  0  0  0  0  0  0  0  0
  -19.2927  -26.4191   24.0163 C   0  0  0  0  0  0  0  0  0  0  0  0
  -19.8735  -26.2643   25.2188 C   0  0  0  0  0  0  0  0  0  0  0  0
  -28.1526  -16.8737   17.1683 C   0  0  0  0  0  0  0  0  0  0  0  0
  -27.1225  -28.8145   21.8172 C   0  0  0  0  0  0  0  0  0  0  0  0
  -26.5326  -31.7840   22.9820 C   0  0  0  0  0  0  0  0  0  0  0  0
  -24.2858  -34.3008   23.4960 C   0  0  0  0  0  0  0  0  0  0  0  0
  -24.1242  -22.5772   21.6889 C   0  0  0  0  0  0  0  0  0  0  0  0
  -31.2151  -26.0486   20.5295 C   0  0  0  0  0  0  0  0  0  0  0  0
  -26.0261  -29.9234   19.8363 C   0  0  0  0  0  0  0  0  0  0  0  0
  -24.5210  -30.4050   22.3359 C   0  0  0  0  0  0  0  0  0  0  0  0
  -18.1020  -27.3192   23.8302 C   0  0  0  0  0  0  0  0  0  0  0  0
  -30.9373  -27.2094   21.4811 C   0  0  0  0  0  0  0  0  0  0  0  0
  -18.5229  -28.7201   23.3901 C   0  0  0  0  0  0  0  0  0  0  0  0
  -27.6357  -22.1263   22.0671 C   0  0  0  0  0  0  0  0  0  0  0  0
  -29.7110  -26.9146   22.3391 C   0  0  0  0  0  0  0  0  0  0  0  0
  -27.9150  -20.8170   21.3257 C   0  0  0  0  0  0  0  0  0  0  0  0
  -19.0532  -28.8032   21.9616 C   0  0  0  0  0  0  0  0  0  0  0  0
  -26.2942  -22.0896   22.7971 C   0  0  0  0  0  0  0  0  0  0  0  0
  -25.4234  -20.4069   21.2225 C   0  0  0  0  0  0  0  0  0  0  0  0
  -19.7421  -26.3775   21.5805 C   0  0  0  0  0  0  0  0  0  0  0  0
  -28.4584  -26.7441   21.4711 C   0  0  1  0  0  0  0  0  0  0  0  0
  -26.7325  -30.1156   21.1748 C   0  0  1  0  0  0  0  0  0  0  0  0
  -26.7338  -20.4199   20.4186 C   0  0  2  0  0  0  0  0  0  0  0  0
  -20.1929  -27.8387   21.6230 C   0  0  1  0  0  0  0  0  0  1  0  0
  -21.5275  -21.0144   18.6650 C   0  0  0  0  0  0  0  0  0  0  0  0
  -21.0517  -25.3889   25.4627 C   0  0  0  0  0  0  0  0  0  0  0  0
  -24.0882  -36.5889   24.5075 C   0  0  0  0  0  0  0  0  0  0  0  0
  -26.4853  -30.5449   25.7699 C   0  0  0  0  0  0  0  0  0  0  0  0
  -25.3694  -32.6266   26.6003 C   0  0  0  0  0  0  0  0  0  0  0  0
  -27.6630  -32.7465   25.6266 C   0  0  0  0  0  0  0  0  0  0  0  0
  -23.5603  -35.5143   20.8960 C   0  0  0  0  0  0  0  0  0  0  0  0
  -19.2849  -24.2919   22.8703 C   0  0  0  0  0  0  0  0  0  0  0  0
  -25.6879  -32.3454   24.1001 C   0  0  1  0  0  0  0  0  0  0  0  0
  -24.3714  -35.7950   23.2417 C   0  0  2  0  0  0  0  0  0  0  0  0
  -26.2899  -32.0507   25.5031 C   0  0  0  0  0  0  0  0  0  0  0  0
  -26.5517  -17.9638   20.2929 N   0  0  0  0  0  0  0  0  0  0  0  0
  -26.9837  -19.0984   19.7164 N   0  0  0  0  0  0  0  0  0  0  0  0
  -25.9138  -30.8431   22.1467 N   0  0  0  0  0  0  0  0  0  0  0  0
  -25.2220  -21.7105   21.8743 N   0  0  0  0  0  0  0  0  0  0  0  0
  -28.1131  -19.9376   17.8109 N   0  0  0  0  0  0  0  0  0  0  0  0
  -28.0462  -15.4778   17.1023 N   0  0  0  0  0  0  0  0  0  0  0  0
  -23.1836  -22.1264   20.7633 N   0  0  0  0  0  0  0  0  0  0  0  0
  -27.9603  -28.0340   21.0437 N   0  0  0  0  0  0  0  0  0  0  0  0
  -25.5170  -33.7648   23.8094 N   0  0  0  0  0  0  0  0  0  0  0  0
  -19.8676  -25.6834   22.9156 N   0  3  2  0  0  0  0  0  0  0  0  0
  -23.3841  -36.2007   22.2017 N   0  3  0  0  0  0  0  0  0  0  0  0
  -28.7398  -17.4889   16.2462 O   0  0  0  0  0  0  0  0  0  0  0  0
  -26.6962  -28.5398   22.9328 O   0  0  0  0  0  0  0  0  0  0  0  0
  -27.6963  -32.1713   22.8501 O   0  0  0  0  0  0  0  0  0  0  0  0
  -23.2316  -33.6728   23.4275 O   0  0  0  0  0  0  0  0  0  0  0  0
  -24.0392  -23.6537   22.2854 O   0  0  0  0  0  0  0  0  0  0  0  0
  -25.8082  -11.6420   20.4659 O   0  0  0  0  0  0  0  0  0  0  0  0
  -20.6524  -28.1951   20.3140 O   0  0  0  0  0  0  0  0  0  1  0  0
  -29.8375   -7.9728   19.6256 F   0  0  0  0  0  0  0  0  0  0  0  0
  -26.7466  -10.0672   22.5352 F   0  0  0  0  0  0  0  0  0  0  0  0
  1  2  1  0  0  0  0
  1  5  2  0  0  0  0
  2  6  2  0  0  0  0
  3 10  2  0  0  0  0
  3 18  1  0  0  0  0
  4 11  1  0  0  0  0
  4 18  2  0  0  0  0
  5 20  1  0  0  0  0
  6 22  1  0  0  0  0
  7 12  2  0  0  0  0
  7 21  1  0  0  0  0
  8  9  2  0  0  0  0
  8 24  1  0  0  0  0
  9 25  1  0  0  0  0
 10 27  1  0  0  0  0
 11 27  2  0  0  0  0
 12 28  1  0  0  0  0
 13 14  2  0  0  0  0
 13 29  1  0  0  0  0
 14 30  1  0  0  0  0
 15 23  1  0  0  0  0
 15 28  2  0  0  0  0
 16 24  2  0  0  0  0
 16 26  1  0  0  0  0
 17 30  2  0  0  0  0
 17 31  1  0  0  0  0
 18 32  1  0  0  0  0
 19 32  1  0  0  0  0
 19 33  2  0  0  0  0
 19 36  1  0  0  0  0
 20 22  2  0  0  0  0
 20 41  1  0  0  0  0
 21 23  2  0  0  0  0
 21 42  1  0  0  0  0
 22 54  1  0  0  0  0
 23 43  1  0  0  0  0
 24 65  1  0  0  0  0
 25 26  2  0  0  0  0
 25 58  1  0  0  0  0
 26 75  1  0  0  0  0
 27 85  1  0  0  0  0
 28 86  1  0  0  0  0
 29 31  2  0  0  0  0
 29 85  1  0  0  0  0
 30 87  1  0  0  0  0
 31 88  1  0  0  0  0
 32 69  2  0  0  0  0
 33 70  1  0  0  0  0
 33 73  1  0  0  0  0
 34 35  2  0  0  0  0
 34 44  1  0  0  0  0
 34 78  1  0  0  0  0
 35 59  1  0  0  0  0
 36 74  1  0  0  0  0
 36 80  2  0  0  0  0
 37 55  1  0  0  0  0
 37 76  1  0  0  0  0
 37 81  2  0  0  0  0
 38 66  1  0  0  0  0
 38 71  1  0  0  0  0
 38 82  2  0  0  0  0
 39 67  1  0  0  0  0
 39 77  1  0  0  0  0
 39 83  2  0  0  0  0
 40 72  1  0  0  0  0
 40 75  1  0  0  0  0
 40 84  2  0  0  0  0
 41 45  1  0  0  0  0
 42 55  1  0  0  0  0
 43 71  1  0  0  0  0
 44 46  1  0  0  0  0
 45 48  1  0  0  0  0
 46 50  1  0  0  0  0
 47 49  1  0  0  0  0
 47 51  1  0  0  0  0
 48 54  1  0  0  0  0
 49 56  1  0  0  0  0
 50 57  1  0  0  0  0
 51 72  1  0  0  0  0
 52 56  1  0  0  0  0
 52 72  1  0  0  0  0
 53 57  1  0  0  0  0
 53 78  1  0  0  0  0
 54 76  1  0  0  0  0
 55 71  1  0  0  0  0
 56 70  1  0  0  0  0
 57 86  1  0  0  0  0
 60 67  1  0  0  0  0
 61 68  1  0  0  0  0
 62 68  1  0  0  0  0
 63 68  1  0  0  0  0
 64 79  1  0  0  0  0
 65 78  1  0  0  0  0
 66 68  1  0  0  0  0
 66 77  1  0  0  0  0
 67 79  1  0  0  0  0
 69 70  1  0  0  0  0
M  CHG  2  78   1  79   1
M  ISO  4  40 100  57 101  75 100  86 101
M  END
> <Batch ID>
0034

> <Smiles>
CC=C1CCC[101CH:1]([101O:1]c2ccc3c(c2)CN(C(=O)C(NC(=O)C(C)NC)C(C)(C)C)C(C(=O)NC2CCCc4ccccc42)C3)CN1Cc1ccc(C)c([100NH:0][100C:0](=O)N2CCCC(n3nc(-c4ccc(Oc5ccc(F)cc5F)cc4)c(C(N)=O)c3N)C2)c1

> <Shape>
0.275

> <Color>
0.075

> <Negative vol penalty>
0.000

$$$$

  -OEChem-04042321483D

 88 97  0     1  0  0  0  0  0999 V2000
  -23.5448  -27.8792   19.0837 C   0  0  0  0  0  0  0  0  0  0  0  0
  -24.2807  -27.0492   18.2442 C   0  0  0  0  0  0  0  0  0  0  0  0
  -21.9803  -23.5046   22.4225 C   0  0  0  0  0  0  0  0  0  0  0  0
  -20.3657  -22.1944   23.6527 C   0  0  0  0  0  0  0  0  0  0  0  0
  -24.1462  -28.4400   20.2096 C   0  0  0  0  0  0  0  0  0  0  0  0
  -25.6189  -26.7804   18.5294 C   0  0  0  0  0  0  0  0  0  0  0  0
  -27.9122  -20.0259   19.5340 C   0  0  0  0  0  0  0  0  0  0  0  0
  -21.4137  -24.6756   22.9258 C   0  0  0  0  0  0  0  0  0  0  0  0
  -19.7991  -23.3654   24.1561 C   0  0  0  0  0  0  0  0  0  0  0  0
  -28.4689  -18.7467   19.5308 C   0  0  0  0  0  0  0  0  0  0  0  0
  -18.7069  -26.6010   22.3009 C   0  0  0  0  0  0  0  0  0  0  0  0
  -18.4825  -27.6478   21.4068 C   0  0  0  0  0  0  0  0  0  0  0  0
  -30.6461  -19.6814   20.0145 C   0  0  0  0  0  0  0  0  0  0  0  0
  -24.6741  -12.3797   19.9141 C   0  0  0  0  0  0  0  0  0  0  0  0
  -26.5796  -13.4307   21.6597 C   0  0  0  0  0  0  0  0  0  0  0  0
  -19.9396  -29.0705   22.7068 C   0  0  0  0  0  0  0  0  0  0  0  0
  -21.4563  -22.2640   22.7858 C   0  0  0  0  0  0  0  0  0  0  0  0
  -23.3666  -20.6107   22.4321 C   0  0  0  0  0  0  0  0  0  0  0  0
  -25.4898  -28.1702   20.5141 C   0  0  0  0  0  0  0  0  0  0  0  0
  -28.7185  -21.1377   19.7930 C   0  0  0  0  0  0  0  0  0  0  0  0
  -26.2393  -27.3392   19.6597 C   0  0  0  0  0  0  0  0  0  0  0  0
  -30.0917  -20.9641   20.0313 C   0  0  0  0  0  0  0  0  0  0  0  0
  -26.0234  -12.3715   19.5607 C   0  0  0  0  0  0  0  0  0  0  0  0
  -24.2775  -12.9135   21.1403 C   0  0  0  0  0  0  0  0  0  0  0  0
  -26.9762  -12.8969   20.4335 C   0  0  0  0  0  0  0  0  0  0  0  0
  -20.3231  -24.6060   23.7927 C   0  0  0  0  0  0  0  0  0  0  0  0
  -29.8325  -18.5750   19.7702 C   0  0  0  0  0  0  0  0  0  0  0  0
  -19.5477  -26.7889   23.3980 C   0  0  0  0  0  0  0  0  0  0  0  0
  -19.0988  -28.8826   21.6097 C   0  0  0  0  0  0  0  0  0  0  0  0
  -20.1640  -28.0237   23.6009 C   0  0  0  0  0  0  0  0  0  0  0  0
  -25.2303  -13.4390   22.0131 C   0  0  0  0  0  0  0  0  0  0  0  0
  -22.0408  -21.0541   22.2657 C   0  0  0  0  0  0  0  0  0  0  0  0
  -23.4179  -19.4188   21.7515 C   0  0  0  0  0  0  0  0  0  0  0  0
  -29.1895  -15.2449   19.9817 C   0  0  0  0  0  0  0  0  0  0  0  0
  -24.4543  -21.2216   23.1387 C   0  0  0  0  0  0  0  0  0  0  0  0
  -28.9279  -24.8619   20.1959 C   0  0  0  0  0  0  0  0  0  0  0  0
  -30.7225  -23.6296   22.3572 C   0  0  0  0  0  0  0  0  0  0  0  0
  -32.5066  -22.9551   25.1855 C   0  0  0  0  0  0  0  0  0  0  0  0
  -21.2052  -14.4678   20.4337 C   0  0  0  0  0  0  0  0  0  0  0  0
  -26.1097  -28.8373   21.7164 C   0  0  0  0  0  0  0  0  0  0  0  0
  -28.1733  -22.5393   19.7456 C   0  0  0  0  0  0  0  0  0  0  0  0
  -30.9270  -22.1920   20.2710 C   0  0  0  0  0  0  0  0  0  0  0  0
  -27.4273  -28.2023   22.1534 C   0  0  0  0  0  0  0  0  0  0  0  0
  -30.4635  -14.9302   22.6018 C   0  0  0  0  0  0  0  0  0  0  0  0
  -20.1036  -17.2967   18.5737 C   0  0  0  0  0  0  0  0  0  0  0  0
  -28.3336  -27.9704   20.9485 C   0  0  0  0  0  0  0  0  0  0  0  0
  -30.9837  -15.9704   21.6319 C   0  0  0  0  0  0  0  0  0  0  0  0
  -20.6132  -18.4891   19.3852 C   0  0  0  0  0  0  0  0  0  0  0  0
  -29.9668  -13.7187   21.8333 C   0  0  0  0  0  0  0  0  0  0  0  0
  -19.6577  -16.1487   19.4766 C   0  0  0  0  0  0  0  0  0  0  0  0
  -21.1758  -16.8966   21.2683 C   0  0  0  0  0  0  0  0  0  0  0  0
  -27.6863  -27.0040   19.9492 C   0  0  1  0  0  0  0  0  0  0  0  0
  -29.8542  -16.4016   20.7172 C   0  0  1  0  0  0  0  0  0  1  0  0
  -28.8343  -23.4788   20.7701 C   0  0  1  0  0  0  0  0  0  0  0  0
  -21.6891  -18.0580   20.4000 C   0  0  2  0  0  0  0  0  0  0  0  0
  -26.4254  -11.7970   18.2420 C   0  0  0  0  0  0  0  0  0  0  0  0
  -34.2577  -23.9373   26.6909 C   0  0  0  0  0  0  0  0  0  0  0  0
  -32.8648  -22.9724   20.2878 C   0  0  0  0  0  0  0  0  0  0  0  0
  -34.5642  -23.0567   22.1245 C   0  0  0  0  0  0  0  0  0  0  0  0
  -33.2495  -25.0972   21.5495 C   0  0  0  0  0  0  0  0  0  0  0  0
  -30.6819  -22.9324   27.5154 C   0  0  0  0  0  0  0  0  0  0  0  0
  -28.4337  -12.9013   20.0734 C   0  0  0  0  0  0  0  0  0  0  0  0
  -22.8224  -12.9036   21.4813 C   0  0  0  0  0  0  0  0  0  0  0  0
  -32.1093  -23.1849   22.7475 C   0  0  1  0  0  0  0  0  0  0  0  0
  -32.7672  -23.7799   26.4329 C   0  0  2  0  0  0  0  0  0  0  0  0
  -33.1746  -23.5602   21.6790 C   0  0  0  0  0  0  0  0  0  0  0  0
  -21.3033  -20.2125   21.5365 N   0  0  0  0  0  0  0  0  0  0  0  0
  -22.1686  -19.2283   21.2385 N   0  0  0  0  0  0  0  0  0  0  0  0
  -29.1386  -14.0296   20.6670 N   0  0  0  0  0  0  0  0  0  0  0  0
  -30.2099  -23.1223   21.1570 N   0  0  0  0  0  0  0  0  0  0  0  0
  -20.7238  -15.7872   20.4140 N   0  0  0  0  0  0  0  0  0  0  0  0
  -24.4094  -18.5256   21.5476 N   0  0  0  0  0  0  0  0  0  0  0  0
  -24.6321  -20.9068   24.4928 N   0  0  0  0  0  0  0  0  0  0  0  0
  -27.8067  -25.6393   20.4155 N   0  0  0  0  0  0  0  0  0  0  0  0
  -32.3627  -23.7503   24.0683 N   0  0  0  0  0  0  0  0  0  0  0  0
  -22.2202  -14.2114   21.3474 N   0  0  0  0  0  0  0  0  0  0  0  0
  -32.1506  -23.1283   27.6229 N   0  3  0  0  0  0  0  0  0  0  0  0
  -28.6797  -15.4328   18.8740 O   0  0  0  0  0  0  0  0  0  0  0  0
  -25.2353  -22.0355   22.5899 O   0  0  0  0  0  0  0  0  0  0  0  0
  -29.9428  -25.2008   19.5986 O   0  0  0  0  0  0  0  0  0  0  0  0
  -30.1102  -24.4098   23.0917 O   0  0  0  0  0  0  0  0  0  0  0  0
  -32.4412  -21.7279   25.1999 O   0  0  0  0  0  0  0  0  0  0  0  0
  -20.7669  -13.5850   19.6884 O   0  0  0  0  0  0  0  0  0  0  0  0
  -19.7701  -25.7484   24.2842 O   0  0  0  0  0  0  0  0  0  0  0  0
  -30.3686  -17.3231   19.7700 O   0  0  0  0  0  0  0  0  0  1  0  0
  -18.8844  -29.8873   20.7502 F   0  0  0  0  0  0  0  0  0  0  0  0
  -20.9736  -28.2098   24.6524 F   0  0  0  0  0  0  0  0  0  0  0  0
  -24.7771  -14.1080   23.5383 Cl  0  0  0  0  0  0  0  0  0  0  0  0
  1  2  1  0  0  0  0
  1  5  2  0  0  0  0
  2  6  2  0  0  0  0
  3  8  2  0  0  0  0
  3 17  1  0  0  0  0
  4  9  1  0  0  0  0
  4 17  2  0  0  0  0
  5 19  1  0  0  0  0
  6 21  1  0  0  0  0
  7 10  2  0  0  0  0
  7 20  1  0  0  0  0
  8 26  1  0  0  0  0
  9 26  2  0  0  0  0
 10 27  1  0  0  0  0
 11 12  2  0  0  0  0
 11 28  1  0  0  0  0
 12 29  1  0  0  0  0
 13 22  1  0  0  0  0
 13 27  2  0  0  0  0
 14 23  1  0  0  0  0
 14 24  2  0  0  0  0
 15 25  1  0  0  0  0
 15 31  2  0  0  0  0
 16 29  2  0  0  0  0
 16 30  1  0  0  0  0
 17 32  1  0  0  0  0
 18 32  1  0  0  0  0
 18 33  2  0  0  0  0
 18 35  1  0  0  0  0
 19 21  2  0  0  0  0
 19 40  1  0  0  0  0
 20 22  2  0  0  0  0
 20 41  1  0  0  0  0
 21 52  1  0  0  0  0
 22 42  1  0  0  0  0
 23 25  2  0  0  0  0
 23 56  1  0  0  0  0
 24 31  1  0  0  0  0
 24 63  1  0  0  0  0
 25 62  1  0  0  0  0
 26 84  1  0  0  0  0
 27 85  1  0  0  0  0
 28 30  2  0  0  0  0
 28 84  1  0  0  0  0
 29 86  1  0  0  0  0
 30 87  1  0  0  0  0
 31 88  1  0  0  0  0
 32 67  2  0  0  0  0
 33 68  1  0  0  0  0
 33 72  1  0  0  0  0
 34 53  1  0  0  0  0
 34 69  1  0  0  0  0
 34 78  2  0  0  0  0
 35 73  1  0  0  0  0
 35 79  2  0  0  0  0
 36 54  1  0  0  0  0
 36 74  1  0  0  0  0
 36 80  2  0  0  0  0
 37 64  1  0  0  0  0
 37 70  1  0  0  0  0
 37 81  2  0  0  0  0
 38 65  1  0  0  0  0
 38 75  1  0  0  0  0
 38 82  2  0  0  0  0
 39 71  1  0  0  0  0
 39 76  1  0  0  0  0
 39 83  2  0  0  0  0
 40 43  1  0  0  0  0
 41 54  1  0  0  0  0
 42 70  1  0  0  0  0
 43 46  1  0  0  0  0
 44 47  1  0  0  0  0
 44 49  1  0  0  0  0
 45 48  1  0  0  0  0
 45 50  1  0  0  0  0
 46 52  1  0  0  0  0
 47 53  1  0  0  0  0
 48 55  1  0  0  0  0
 49 69  1  0  0  0  0
 50 71  1  0  0  0  0
 51 55  1  0  0  0  0
 51 71  1  0  0  0  0
 52 74  1  0  0  0  0
 53 85  1  0  0  0  0
 54 70  1  0  0  0  0
 55 68  1  0  0  0  0
 57 65  1  0  0  0  0
 58 66  1  0  0  0  0
 59 66  1  0  0  0  0
 60 66  1  0  0  0  0
 61 77  1  0  0  0  0
 62 69  1  0  0  0  0
 63 76  1  0  0  0  0
 64 66  1  0  0  0  0
 64 75  1  0  0  0  0
 65 77  1  0  0  0  0
 67 68  1  0  0  0  0
M  CHG  1  77   1
M  ISO  4  39 100  53 101  76 100  85 101
M  END
> <Batch ID>
0034

> <Smiles>
CNC(C)C(=O)NC(C(=O)N1Cc2cc([101O:1][101CH:1]3CCCN(Cc4cc(Cl)c(C[100NH:0][100C:0](=O)N5CCCC(n6nc(-c7ccc(Oc8ccc(F)cc8F)cc7)c(C(N)=O)c6N)C5)cc4C)C3=O)ccc2CC1C(=O)NC1CCCc2ccccc21)C(C)(C)C

> <Shape>
0.224

> <Color>
0.068

> <Negative vol penalty>
0.000

$$$$

  -OEChem-04042321483D

 87 96  0     1  0  0  0  0  0999 V2000
  -25.7401  -30.2559   26.3374 C   0  0  0  0  0  0  0  0  0  0  0  0
  -24.8068  -29.6529   25.5002 C   0  0  0  0  0  0  0  0  0  0  0  0
  -23.2802   -9.7583   19.8904 C   0  0  0  0  0  0  0  0  0  0  0  0
  -23.6793   -9.8904   22.2696 C   0  0  0  0  0  0  0  0  0  0  0  0
  -26.7090  -16.6947   15.6457 C   0  0  0  0  0  0  0  0  0  0  0  0
  -27.0896  -30.2588   25.9873 C   0  0  0  0  0  0  0  0  0  0  0  0
  -25.2225  -29.0535   24.3118 C   0  0  0  0  0  0  0  0  0  0  0  0
  -23.6368  -23.5849   19.9647 C   0  0  0  0  0  0  0  0  0  0  0  0
  -25.7182  -17.4945   15.0765 C   0  0  0  0  0  0  0  0  0  0  0  0
  -22.5508   -8.5842   20.0780 C   0  0  0  0  0  0  0  0  0  0  0  0
  -22.9499   -8.7163   22.4571 C   0  0  0  0  0  0  0  0  0  0  0  0
  -23.3702  -23.3183   18.6225 C   0  0  0  0  0  0  0  0  0  0  0  0
  -19.4473   -7.7165   21.1017 C   0  0  0  0  0  0  0  0  0  0  0  0
  -18.2328   -7.5931   20.4270 C   0  0  0  0  0  0  0  0  0  0  0  0
  -25.7375  -23.3149   18.1591 C   0  0  0  0  0  0  0  0  0  0  0  0
  -19.0611   -5.6255   19.2958 C   0  0  0  0  0  0  0  0  0  0  0  0
  -23.8445  -10.4114   20.9863 C   0  0  0  0  0  0  0  0  0  0  0  0
  -28.0547  -16.9851   15.4207 C   0  0  0  0  0  0  0  0  0  0  0  0
  -24.1053  -12.9424   20.8028 C   0  0  0  0  0  0  0  0  0  0  0  0
  -27.5233  -29.6507   24.7987 C   0  0  0  0  0  0  0  0  0  0  0  0
  -24.9577  -23.7296   20.4129 C   0  0  0  0  0  0  0  0  0  0  0  0
  -26.5790  -29.0495   23.9448 C   0  0  0  0  0  0  0  0  0  0  0  0
  -26.0184  -23.5808   19.5080 C   0  0  0  0  0  0  0  0  0  0  0  0
  -26.0730  -18.5848   14.2821 C   0  0  0  0  0  0  0  0  0  0  0  0
  -28.4095  -18.0754   14.6263 C   0  0  0  0  0  0  0  0  0  0  0  0
  -27.4186  -18.8753   14.0570 C   0  0  0  0  0  0  0  0  0  0  0  0
  -22.3856   -8.0633   21.3613 C   0  0  0  0  0  0  0  0  0  0  0  0
  -24.4205  -23.1861   17.7189 C   0  0  0  0  0  0  0  0  0  0  0  0
  -20.4688   -6.7944   20.8734 C   0  0  0  0  0  0  0  0  0  0  0  0
  -18.0396   -6.5476   19.5241 C   0  0  0  0  0  0  0  0  0  0  0  0
  -20.2756   -5.7489   19.9705 C   0  0  0  0  0  0  0  0  0  0  0  0
  -24.5986  -11.6239   20.7931 C   0  0  0  0  0  0  0  0  0  0  0  0
  -25.2112  -13.7243   20.5748 C   0  0  0  0  0  0  0  0  0  0  0  0
  -23.7501  -21.5318   13.8162 C   0  0  0  0  0  0  0  0  0  0  0  0
  -23.8459  -22.0419   12.5827 C   0  0  0  0  0  0  0  0  0  0  0  0
  -29.0782  -16.1219   16.0365 C   0  0  0  0  0  0  0  0  0  0  0  0
  -22.7672  -13.4177   21.0005 C   0  0  0  0  0  0  0  0  0  0  0  0
  -26.6302  -26.0830   21.7425 C   0  0  0  0  0  0  0  0  0  0  0  0
  -28.9115  -23.7915   22.0008 C   0  0  0  0  0  0  0  0  0  0  0  0
  -30.1943  -20.8395   20.8662 C   0  0  0  0  0  0  0  0  0  0  0  0
  -29.8771  -14.7240   17.6793 C   0  0  0  0  0  0  0  0  0  0  0  0
  -28.9865  -29.7206   24.4395 C   0  0  0  0  0  0  0  0  0  0  0  0
  -25.2296  -23.9906   21.8690 C   0  0  0  0  0  0  0  0  0  0  0  0
  -27.4550  -23.7069   19.9424 C   0  0  0  0  0  0  0  0  0  0  0  0
  -22.6820  -21.8615   14.8118 C   0  0  0  0  0  0  0  0  0  0  0  0
  -29.3929  -28.7359   23.3461 C   0  0  0  0  0  0  0  0  0  0  0  0
  -30.1290  -12.5712   20.5615 C   0  0  0  0  0  0  0  0  0  0  0  0
  -28.3959  -28.7779   22.1924 C   0  0  0  0  0  0  0  0  0  0  0  0
  -28.6722  -12.2141   20.8563 C   0  0  0  0  0  0  0  0  0  0  0  0
  -30.3794  -12.7098   19.0629 C   0  0  0  0  0  0  0  0  0  0  0  0
  -28.0090  -13.3289   18.6798 C   0  0  0  0  0  0  0  0  0  0  0  0
  -24.4569  -20.6058   15.8480 C   0  0  0  0  0  0  0  0  0  0  0  0
  -26.9942  -28.3672   22.6594 C   0  0  1  0  0  0  0  0  0  0  0  0
  -26.5930  -24.6285   22.1173 C   0  0  1  0  0  0  0  0  0  0  0  0
  -27.7116  -13.2114   20.1845 C   0  0  1  0  0  0  0  0  0  0  0  0
  -23.4594  -21.7249   16.1116 C   0  0  1  0  0  0  0  0  0  1  0  0
  -29.8527  -18.3878   14.3841 C   0  0  0  0  0  0  0  0  0  0  0  0
  -27.7957  -20.0449   13.2040 C   0  0  0  0  0  0  0  0  0  0  0  0
  -32.0871  -19.2372   21.2499 C   0  0  0  0  0  0  0  0  0  0  0  0
  -30.8151  -25.7022   20.5741 C   0  0  0  0  0  0  0  0  0  0  0  0
  -32.3332  -23.7581   20.1445 C   0  0  0  0  0  0  0  0  0  0  0  0
  -31.8312  -24.4525   22.4873 C   0  0  0  0  0  0  0  0  0  0  0  0
  -28.3425  -18.6360   21.5548 C   0  0  0  0  0  0  0  0  0  0  0  0
  -24.9871  -19.4286   13.6822 C   0  0  0  0  0  0  0  0  0  0  0  0
  -30.0392  -23.3020   21.1246 C   0  0  1  0  0  0  0  0  0  0  0  0
  -30.6500  -19.5911   21.5998 C   0  0  2  0  0  0  0  0  0  0  0  0
  -31.2276  -24.3032   21.0738 C   0  0  0  0  0  0  0  0  0  0  0  0
  -25.9153  -11.5675   20.5759 N   0  0  0  0  0  0  0  0  0  0  0  0
  -28.8715  -15.5169   17.1601 N   0  0  0  0  0  0  0  0  0  0  0  0
  -26.2588  -12.8603   20.4469 N   0  0  0  0  0  0  0  0  0  0  0  0
  -27.6693  -23.9687   21.3753 N   0  0  0  0  0  0  0  0  0  0  0  0
  -29.4268  -13.6394   18.4542 N   0  0  0  0  0  0  0  0  0  0  0  0
  -25.3800  -15.0598   20.4730 N   0  0  0  0  0  0  0  0  0  0  0  0
  -21.7506  -12.4789   21.2224 N   0  0  0  0  0  0  0  0  0  0  0  0
  -26.9089  -26.9293   22.7987 N   0  0  0  0  0  0  0  0  0  0  0  0
  -30.3951  -21.9766   21.6198 N   0  0  0  0  0  0  0  0  0  0  0  0
  -24.8203  -20.7490   14.3723 N   0  3  1  0  0  0  0  0  0  0  0  0
  -29.7809  -18.4343   21.2428 N   0  3  0  0  0  0  0  0  0  0  0  0
  -22.4788  -14.6380   20.9645 O   0  0  0  0  0  0  0  0  0  0  0  0
  -26.4229  -26.4131   20.5806 O   0  0  0  0  0  0  0  0  0  0  0  0
  -29.1232  -24.0018   23.1977 O   0  0  0  0  0  0  0  0  0  0  0  0
  -29.7122  -20.8095   19.7361 O   0  0  0  0  0  0  0  0  0  0  0  0
  -31.0788  -14.9255   17.4891 O   0  0  0  0  0  0  0  0  0  0  0  0
  -21.6737   -6.9178   21.5447 O   0  0  0  0  0  0  0  0  0  0  0  0
  -24.1630  -22.9266   16.4081 O   0  0  0  0  0  0  0  0  0  1  0  0
  -16.8727   -6.4284   18.8774 F   0  0  0  0  0  0  0  0  0  0  0  0
  -21.2528   -4.8593   19.7480 F   0  0  0  0  0  0  0  0  0  0  0  0
  1  2  1  0  0  0  0
  1  6  2  0  0  0  0
  2  7  2  0  0  0  0
  3 10  2  0  0  0  0
  3 17  1  0  0  0  0
  4 11  1  0  0  0  0
  4 17  2  0  0  0  0
  5  9  2  0  0  0  0
  5 18  1  0  0  0  0
  6 20  1  0  0  0  0
  7 22  1  0  0  0  0
  8 12  2  0  0  0  0
  8 21  1  0  0  0  0
  9 24  1  0  0  0  0
 10 27  1  0  0  0  0
 11 27  2  0  0  0  0
 12 28  1  0  0  0  0
 13 14  2  0  0  0  0
 13 29  1  0  0  0  0
 14 30  1  0  0  0  0
 15 23  1  0  0  0  0
 15 28  2  0  0  0  0
 16 30  2  0  0  0  0
 16 31  1  0  0  0  0
 17 32  1  0  0  0  0
 18 25  2  0  0  0  0
 18 36  1  0  0  0  0
 19 32  1  0  0  0  0
 19 33  2  0  0  0  0
 19 37  1  0  0  0  0
 20 22  2  0  0  0  0
 20 42  1  0  0  0  0
 21 23  2  0  0  0  0
 21 43  1  0  0  0  0
 22 53  1  0  0  0  0
 23 44  1  0  0  0  0
 24 26  2  0  0  0  0
 24 64  1  0  0  0  0
 25 26  1  0  0  0  0
 25 57  1  0  0  0  0
 26 58  1  0  0  0  0
 27 84  1  0  0  0  0
 28 85  1  0  0  0  0
 29 31  2  0  0  0  0
 29 84  1  0  0  0  0
 30 86  1  0  0  0  0
 31 87  1  0  0  0  0
 32 68  2  0  0  0  0
 33 70  1  0  0  0  0
 33 73  1  0  0  0  0
 34 35  2  0  0  0  0
 34 45  1  0  0  0  0
 34 77  1  0  0  0  0
 36 69  2  0  0  0  0
 37 74  1  0  0  0  0
 37 79  2  0  0  0  0
 38 54  1  0  0  0  0
 38 75  1  0  0  0  0
 38 80  2  0  0  0  0
 39 65  1  0  0  0  0
 39 71  1  0  0  0  0
 39 81  2  0  0  0  0
 40 66  1  0  0  0  0
 40 76  1  0  0  0  0
 40 82  2  0  0  0  0
 41 69  1  0  0  0  0
 41 72  1  0  0  0  0
 41 83  2  0  0  0  0
 42 46  1  0  0  0  0
 43 54  1  0  0  0  0
 44 71  1  0  0  0  0
 45 56  1  0  0  0  0
 46 48  1  0  0  0  0
 47 49  1  0  0  0  0
 47 50  1  0  0  0  0
 48 53  1  0  0  0  0
 49 55  1  0  0  0  0
 50 72  1  0  0  0  0
 51 55  1  0  0  0  0
 51 72  1  0  0  0  0
 52 56  1  0  0  0  0
 52 77  1  0  0  0  0
 53 75  1  0  0  0  0
 54 71  1  0  0  0  0
 55 70  1  0  0  0  0
 56 85  1  0  0  0  0
 59 66  1  0  0  0  0
 60 67  1  0  0  0  0
 61 67  1  0  0  0  0
 62 67  1  0  0  0  0
 63 78  1  0  0  0  0
 64 77  1  0  0  0  0
 65 67  1  0  0  0  0
 65 76  1  0  0  0  0
 66 78  1  0  0  0  0
 68 70  1  0  0  0  0
M  CHG  2  77   1  78   1
M  ISO  4  41 100  56 101  69 100  85 101
M  END
> <Batch ID>
0034

> <Smiles>
C=C1C[101CH:1]([101O:1]c2ccc3c(c2)CN(C(=O)C(NC(=O)C(C)NC)C(C)(C)C)C(C(=O)NC2CCCc4ccccc42)C3)CN1Cc1ccc(C=[100N:0][100C:0](=O)N2CCCC(n3nc(-c4ccc(Oc5ccc(F)cc5F)cc4)c(C(N)=O)c3N)C2)c(C)c1C

> <Shape>
0.193

> <Color>
0.183

> <Negative vol penalty>
0.000

$$$$

  -OEChem-04042321483D

 87 96  0     1  0  0  0  0  0999 V2000
  -25.9513  -37.5465   27.2928 C   0  0  0  0  0  0  0  0  0  0  0  0
  -24.9319  -36.6198   27.4865 C   0  0  0  0  0  0  0  0  0  0  0  0
  -29.0932  -20.7302   26.0939 C   0  0  0  0  0  0  0  0  0  0  0  0
  -24.2062  -12.9358   19.9731 C   0  0  0  0  0  0  0  0  0  0  0  0
  -25.9413  -13.4660   21.5685 C   0  0  0  0  0  0  0  0  0  0  0  0
  -26.6498  -37.5707   26.0864 C   0  0  0  0  0  0  0  0  0  0  0  0
  -24.6096  -35.7176   26.4733 C   0  0  0  0  0  0  0  0  0  0  0  0
  -24.9550  -28.6094   27.5895 C   0  0  0  0  0  0  0  0  0  0  0  0
  -29.7102  -20.6424   24.8460 C   0  0  0  0  0  0  0  0  0  0  0  0
  -27.7990  -21.2401   26.1977 C   0  0  0  0  0  0  0  0  0  0  0  0
  -24.4237  -11.5750   20.1888 C   0  0  0  0  0  0  0  0  0  0  0  0
  -26.1588  -12.1052   21.7842 C   0  0  0  0  0  0  0  0  0  0  0  0
  -24.7932  -27.2381   27.7884 C   0  0  0  0  0  0  0  0  0  0  0  0
  -23.6134   -9.2612   22.5175 C   0  0  0  0  0  0  0  0  0  0  0  0
  -22.4952   -8.4445   22.6849 C   0  0  0  0  0  0  0  0  0  0  0  0
  -24.1909  -26.9611   25.4627 C   0  0  0  0  0  0  0  0  0  0  0  0
  -23.1544   -7.1466   20.7567 C   0  0  0  0  0  0  0  0  0  0  0  0
  -24.9650  -13.8813   20.6630 C   0  0  0  0  0  0  0  0  0  0  0  0
  -23.5470  -16.0019   20.6521 C   0  0  0  0  0  0  0  0  0  0  0  0
  -26.3424  -36.6620   25.0615 C   0  0  0  0  0  0  0  0  0  0  0  0
  -24.7500  -29.1601   26.3214 C   0  0  0  0  0  0  0  0  0  0  0  0
  -25.3037  -35.7306   25.2515 C   0  0  0  0  0  0  0  0  0  0  0  0
  -24.3636  -28.3321   25.2547 C   0  0  0  0  0  0  0  0  0  0  0  0
  -29.0330  -21.0645   23.7019 C   0  0  0  0  0  0  0  0  0  0  0  0
  -27.7388  -21.5744   23.8057 C   0  0  0  0  0  0  0  0  0  0  0  0
  -27.1218  -21.6622   25.0537 C   0  0  0  0  0  0  0  0  0  0  0  0
  -25.4000  -11.1597   21.0943 C   0  0  0  0  0  0  0  0  0  0  0  0
  -24.4118  -26.4161   26.7276 C   0  0  0  0  0  0  0  0  0  0  0  0
  -24.5022   -9.0207   21.4696 C   0  0  0  0  0  0  0  0  0  0  0  0
  -22.2657   -7.3872   21.8045 C   0  0  0  0  0  0  0  0  0  0  0  0
  -24.2727   -7.9634   20.5893 C   0  0  0  0  0  0  0  0  0  0  0  0
  -24.7412  -15.2872   20.4402 C   0  0  0  0  0  0  0  0  0  0  0  0
  -23.8512  -17.2926   20.2943 C   0  0  0  0  0  0  0  0  0  0  0  0
  -24.6836  -21.6078   24.5478 C   0  0  0  0  0  0  0  0  0  0  0  0
  -24.5653  -20.3227   24.1606 C   0  0  0  0  0  0  0  0  0  0  0  0
  -22.2763  -15.5403   21.1297 C   0  0  0  0  0  0  0  0  0  0  0  0
  -24.7577  -32.2380   24.1761 C   0  0  0  0  0  0  0  0  0  0  0  0
  -25.9741  -29.9779   22.4960 C   0  0  0  0  0  0  0  0  0  0  0  0
  -27.6383  -27.3301   21.1333 C   0  0  0  0  0  0  0  0  0  0  0  0
  -28.9878  -20.3620   20.0823 C   0  0  0  0  0  0  0  0  0  0  0  0
  -27.0933  -36.7577   23.7571 C   0  0  0  0  0  0  0  0  0  0  0  0
  -24.8530  -30.6409   26.0752 C   0  0  0  0  0  0  0  0  0  0  0  0
  -24.1204  -28.9736   23.9159 C   0  0  0  0  0  0  0  0  0  0  0  0
  -23.4977  -22.5233   24.3131 C   0  0  0  0  0  0  0  0  0  0  0  0
  -26.9411  -35.5214   22.8746 C   0  0  0  0  0  0  0  0  0  0  0  0
  -23.2481  -23.4624   25.4840 C   0  0  0  0  0  0  0  0  0  0  0  0
  -26.7182  -19.7984   17.3975 C   0  0  0  0  0  0  0  0  0  0  0  0
  -25.4782  -35.0960   22.7995 C   0  0  0  0  0  0  0  0  0  0  0  0
  -25.8464  -18.6428   17.8920 C   0  0  0  0  0  0  0  0  0  0  0  0
  -28.1670  -19.6489   17.8565 C   0  0  0  0  0  0  0  0  0  0  0  0
  -27.4687  -18.3099   19.8041 C   0  0  0  0  0  0  0  0  0  0  0  0
  -25.6554  -23.2623   26.1707 C   0  0  0  0  0  0  0  0  0  0  0  0
  -24.9413  -34.7194   24.1856 C   0  0  1  0  0  0  0  0  0  0  0  0
  -25.4081  -30.9837   24.6811 C   0  0  1  0  0  0  0  0  0  0  0  0
  -25.9871  -18.4455   19.4133 C   0  0  2  0  0  0  0  0  0  0  0  0
  -24.5218  -24.2237   25.8186 C   0  0  2  0  0  0  0  0  0  1  0  0
  -27.0159  -22.0263   22.5757 C   0  0  0  0  0  0  0  0  0  0  0  0
  -25.6401  -19.3089   24.3246 C   0  0  0  0  0  0  0  0  0  0  0  0
  -28.8534  -26.6265   19.0535 C   0  0  0  0  0  0  0  0  0  0  0  0
  -23.3065  -29.6421   21.0555 C   0  0  0  0  0  0  0  0  0  0  0  0
  -24.4509  -28.1052   19.4441 C   0  0  0  0  0  0  0  0  0  0  0  0
  -25.1698  -30.4876   19.6176 C   0  0  0  0  0  0  0  0  0  0  0  0
  -30.1601  -26.8862   22.6174 C   0  0  0  0  0  0  0  0  0  0  0  0
  -29.7168  -20.9595   22.3781 C   0  0  0  0  0  0  0  0  0  0  0  0
  -25.7361  -28.8828   21.4873 C   0  0  1  0  0  0  0  0  0  0  0  0
  -28.9858  -27.2354   20.4407 C   0  0  2  0  0  0  0  0  0  0  0  0
  -24.6663  -29.2741   20.4291 C   0  0  0  0  0  0  0  0  0  0  0  0
  -25.7302  -16.0597   19.9831 N   0  0  0  0  0  0  0  0  0  0  0  0
  -25.1581  -17.2732   19.9047 N   0  0  0  0  0  0  0  0  0  0  0  0
  -25.8007  -22.1793   25.1810 N   0  0  0  0  0  0  0  0  0  0  0  0
  -25.1660  -29.9711   23.6395 N   0  0  0  0  0  0  0  0  0  0  0  0
  -28.2308  -19.4668   19.3086 N   0  0  0  0  0  0  0  0  0  0  0  0
  -23.1256  -18.4308   20.2780 N   0  0  0  0  0  0  0  0  0  0  0  0
  -22.0325  -15.5641   22.5097 N   0  0  0  0  0  0  0  0  0  0  0  0
  -25.3988  -33.3993   24.5633 N   0  0  0  0  0  0  0  0  0  0  0  0
  -27.0416  -28.5555   20.9244 N   0  0  0  0  0  0  0  0  0  0  0  0
  -28.9896  -20.1216   21.4508 N   0  0  0  0  0  0  0  0  0  0  0  0
  -29.9196  -26.3906   21.2377 N   0  3  0  0  0  0  0  0  0  0  0  0
  -21.3897  -15.1040   20.3571 O   0  0  0  0  0  0  0  0  0  0  0  0
  -23.7492  -32.1594   23.4845 O   0  0  0  0  0  0  0  0  0  0  0  0
  -26.8481  -30.8210   22.2760 O   0  0  0  0  0  0  0  0  0  0  0  0
  -27.1609  -26.4078   21.7906 O   0  0  0  0  0  0  0  0  0  0  0  0
  -29.6111  -21.3089   19.5905 O   0  0  0  0  0  0  0  0  0  0  0  0
  -25.6124   -9.8319   21.3052 O   0  0  0  0  0  0  0  0  0  0  0  0
  -24.2601  -25.0776   26.9277 O   0  0  0  0  0  0  0  0  0  1  0  0
  -21.1926   -6.6021   21.9663 F   0  0  0  0  0  0  0  0  0  0  0  0
  -25.1236   -7.7266   19.5814 F   0  0  0  0  0  0  0  0  0  0  0  0
  1  2  1  0  0  0  0
  1  6  2  0  0  0  0
  2  7  2  0  0  0  0
  3  9  1  0  0  0  0
  3 10  2  0  0  0  0
  4 11  2  0  0  0  0
  4 18  1  0  0  0  0
  5 12  1  0  0  0  0
  5 18  2  0  0  0  0
  6 20  1  0  0  0  0
  7 22  1  0  0  0  0
  8 13  2  0  0  0  0
  8 21  1  0  0  0  0
  9 24  2  0  0  0  0
 10 26  1  0  0  0  0
 11 27  1  0  0  0  0
 12 27  2  0  0  0  0
 13 28  1  0  0  0  0
 14 15  2  0  0  0  0
 14 29  1  0  0  0  0
 15 30  1  0  0  0  0
 16 23  1  0  0  0  0
 16 28  2  0  0  0  0
 17 30  2  0  0  0  0
 17 31  1  0  0  0  0
 18 32  1  0  0  0  0
 19 32  1  0  0  0  0
 19 33  2  0  0  0  0
 19 36  1  0  0  0  0
 20 22  2  0  0  0  0
 20 41  1  0  0  0  0
 21 23  2  0  0  0  0
 21 42  1  0  0  0  0
 22 53  1  0  0  0  0
 23 43  1  0  0  0  0
 24 25  1  0  0  0  0
 24 64  1  0  0  0  0
 25 26  2  0  0  0  0
 25 57  1  0  0  0  0
 26 70  1  0  0  0  0
 27 84  1  0  0  0  0
 28 85  1  0  0  0  0
 29 31  2  0  0  0  0
 29 84  1  0  0  0  0
 30 86  1  0  0  0  0
 31 87  1  0  0  0  0
 32 68  2  0  0  0  0
 33 69  1  0  0  0  0
 33 73  1  0  0  0  0
 34 35  2  0  0  0  0
 34 44  1  0  0  0  0
 34 70  1  0  0  0  0
 35 58  1  0  0  0  0
 36 74  1  0  0  0  0
 36 79  2  0  0  0  0
 37 54  1  0  0  0  0
 37 75  1  0  0  0  0
 37 80  2  0  0  0  0
 38 65  1  0  0  0  0
 38 71  1  0  0  0  0
 38 81  2  0  0  0  0
 39 66  1  0  0  0  0
 39 76  1  0  0  0  0
 39 82  2  0  0  0  0
 40 72  1  0  0  0  0
 40 77  1  0  0  0  0
 40 83  2  0  0  0  0
 41 45  1  0  0  0  0
 42 54  1  0  0  0  0
 43 71  1  0  0  0  0
 44 46  1  0  0  0  0
 45 48  1  0  0  0  0
 46 56  1  0  0  0  0
 47 49  1  0  0  0  0
 47 50  1  0  0  0  0
 48 53  1  0  0  0  0
 49 55  1  0  0  0  0
 50 72  1  0  0  0  0
 51 55  1  0  0  0  0
 51 72  1  0  0  0  0
 52 56  1  0  0  0  0
 52 70  1  0  0  0  0
 53 75  1  0  0  0  0
 54 71  1  0  0  0  0
 55 69  1  0  0  0  0
 56 85  1  0  0  0  0
 59 66  1  0  0  0  0
 60 67  1  0  0  0  0
 61 67  1  0  0  0  0
 62 67  1  0  0  0  0
 63 78  1  0  0  0  0
 64 77  1  0  0  0  0
 65 67  1  0  0  0  0
 65 76  1  0  0  0  0
 66 78  1  0  0  0  0
 68 69  1  0  0  0  0
M  CHG  1  78   1
M  ISO  4  40 100  56 101  77 100  85 101
M  END
> <Batch ID>
0034

> <Smiles>
CC=C1CC[101CH:1]([101O:1]c2ccc3c(c2)CN(C(=O)C(NC(=O)C(C)NC)C(C)(C)C)C(C(=O)NC2CCCc4ccccc42)C3)CN1c1cccc(C[100NH:0][100C:0](=O)N2CCCC(n3nc(-c4ccc(Oc5ccc(F)cc5F)cc4)c(C(N)=O)c3N)C2)c1C

> <Shape>
0.246

> <Color>
0.073

> <Negative vol penalty>
0.000

$$$$

  -OEChem-04042321483D

 84 92  0     1  0  0  0  0  0999 V2000
  -26.9133  -32.0667   23.2835 C   0  0  0  0  0  0  0  0  0  0  0  0
  -27.3133  -30.8015   23.7012 C   0  0  0  0  0  0  0  0  0  0  0  0
  -23.0975   -9.8315   20.0945 C   0  0  0  0  0  0  0  0  0  0  0  0
  -23.7667  -10.0613   22.4046 C   0  0  0  0  0  0  0  0  0  0  0  0
  -25.9076  -32.1981   22.3268 C   0  0  0  0  0  0  0  0  0  0  0  0
  -26.7070  -29.6668   23.1633 C   0  0  0  0  0  0  0  0  0  0  0  0
  -30.0578  -26.0810   21.9144 C   0  0  0  0  0  0  0  0  0  0  0  0
  -22.3403   -8.7079   20.4256 C   0  0  0  0  0  0  0  0  0  0  0  0
  -23.0094   -8.9376   22.7357 C   0  0  0  0  0  0  0  0  0  0  0  0
  -30.5753  -25.3046   22.9503 C   0  0  0  0  0  0  0  0  0  0  0  0
  -20.9638   -6.3426   24.2521 C   0  0  0  0  0  0  0  0  0  0  0  0
  -20.1619   -6.4127   25.3912 C   0  0  0  0  0  0  0  0  0  0  0  0
  -29.0319  -23.5376   22.3888 C   0  0  0  0  0  0  0  0  0  0  0  0
  -29.7967  -17.6979   22.8069 C   0  0  0  0  0  0  0  0  0  0  0  0
  -31.9992  -16.7970   22.3892 C   0  0  0  0  0  0  0  0  0  0  0  0
  -18.9540   -8.2695   24.4267 C   0  0  0  0  0  0  0  0  0  0  0  0
  -23.8108  -10.5082   21.0840 C   0  0  0  0  0  0  0  0  0  0  0  0
  -24.1660  -13.0099   20.7332 C   0  0  0  0  0  0  0  0  0  0  0  0
  -25.2953  -31.0643   21.7698 C   0  0  0  0  0  0  0  0  0  0  0  0
  -29.0143  -25.5951   21.1135 C   0  0  0  0  0  0  0  0  0  0  0  0
  -25.6912  -29.7831   22.1993 C   0  0  0  0  0  0  0  0  0  0  0  0
  -28.5047  -24.3089   21.3417 C   0  0  0  0  0  0  0  0  0  0  0  0
  -30.3514  -18.6660   23.6440 C   0  0  0  0  0  0  0  0  0  0  0  0
  -31.7300  -18.6996   23.8536 C   0  0  0  0  0  0  0  0  0  0  0  0
  -30.6205  -16.7633   22.1796 C   0  0  0  0  0  0  0  0  0  0  0  0
  -22.2962   -8.2609   21.7462 C   0  0  0  0  0  0  0  0  0  0  0  0
  -30.0604  -24.0338   23.1894 C   0  0  0  0  0  0  0  0  0  0  0  0
  -20.7608   -7.2360   23.2002 C   0  0  0  0  0  0  0  0  0  0  0  0
  -19.1570   -7.3761   25.4786 C   0  0  0  0  0  0  0  0  0  0  0  0
  -32.5539  -17.7651   23.2262 C   0  0  0  0  0  0  0  0  0  0  0  0
  -19.7559   -8.1994   23.2876 C   0  0  0  0  0  0  0  0  0  0  0  0
  -24.5936  -11.6687   20.7425 C   0  0  0  0  0  0  0  0  0  0  0  0
  -25.2743  -13.7209   20.3424 C   0  0  0  0  0  0  0  0  0  0  0  0
  -22.8819  -13.5636   21.0497 C   0  0  0  0  0  0  0  0  0  0  0  0
  -26.0250  -26.5041   20.5292 C   0  0  0  0  0  0  0  0  0  0  0  0
  -26.1360  -24.1079   18.3455 C   0  0  0  0  0  0  0  0  0  0  0  0
  -27.5509  -21.1707   17.3367 C   0  0  0  0  0  0  0  0  0  0  0  0
  -30.7331  -14.7800   20.6304 C   0  0  0  0  0  0  0  0  0  0  0  0
  -24.1798  -31.2573   20.7734 C   0  0  0  0  0  0  0  0  0  0  0  0
  -28.4852  -26.4345   19.9830 C   0  0  0  0  0  0  0  0  0  0  0  0
  -27.3983  -23.7329   20.4976 C   0  0  0  0  0  0  0  0  0  0  0  0
  -23.8485  -29.9971   19.9782 C   0  0  0  0  0  0  0  0  0  0  0  0
  -29.7040  -12.1474   18.4652 C   0  0  0  0  0  0  0  0  0  0  0  0
  -23.7435  -28.7919   20.9073 C   0  0  0  0  0  0  0  0  0  0  0  0
  -28.2476  -11.8985   18.8639 C   0  0  0  0  0  0  0  0  0  0  0  0
  -30.5720  -12.4920   19.6742 C   0  0  0  0  0  0  0  0  0  0  0  0
  -28.6148  -13.3466   20.9024 C   0  0  0  0  0  0  0  0  0  0  0  0
  -25.0748  -28.5279   21.6211 C   0  0  1  0  0  0  0  0  0  0  0  0
  -27.0737  -26.0423   19.5573 C   0  0  1  0  0  0  0  0  0  0  0  0
  -27.6884  -13.0596   19.7094 C   0  0  2  0  0  0  0  0  0  0  0  0
  -29.4496  -19.6565   24.3044 C   0  0  0  0  0  0  0  0  0  0  0  0
  -27.4064  -19.4317   15.5333 C   0  0  0  0  0  0  0  0  0  0  0  0
  -23.6081  -22.9855   19.6338 C   0  0  0  0  0  0  0  0  0  0  0  0
  -24.0524  -20.8214   18.4559 C   0  0  0  0  0  0  0  0  0  0  0  0
  -23.6336  -22.8955   17.1346 C   0  0  0  0  0  0  0  0  0  0  0  0
  -30.3366  -21.6702   16.4710 C   0  0  0  0  0  0  0  0  0  0  0  0
  -33.4905  -21.1804   23.0763 C   0  0  0  0  0  0  0  0  0  0  0  0
  -32.3465  -19.7335   24.7491 C   0  0  0  0  0  0  0  0  0  0  0  0
  -32.5000  -22.1902   25.1259 C   0  0  0  0  0  0  0  0  0  0  0  0
  -31.9361  -23.4686   24.5379 C   0  0  0  0  0  0  0  0  0  1  0  0
  -25.8274  -22.6303   18.3631 C   0  0  1  0  0  0  0  0  0  0  0  0
  -28.0786  -20.7180   15.9873 C   0  0  2  0  0  0  0  0  0  0  0  0
  -24.2999  -22.3445   18.4142 C   0  0  0  0  0  0  0  0  0  0  0  0
  -25.8736  -11.5330   20.3857 N   0  0  0  0  0  0  0  0  0  0  0  0
  -26.2598  -12.7982   20.1485 N   0  0  0  0  0  0  0  0  0  0  0  0
  -26.9100  -24.5948   19.4084 N   0  0  0  0  0  0  0  0  0  0  0  0
  -29.9826  -13.6030   20.4247 N   0  0  0  0  0  0  0  0  0  0  0  0
  -25.4921  -15.0390   20.1489 N   0  0  0  0  0  0  0  0  0  0  0  0
  -21.8543  -12.6912   21.4334 N   0  0  0  0  0  0  0  0  0  0  0  0
  -30.0573  -15.7799   21.3290 N   0  0  0  0  0  0  0  0  0  0  0  0
  -26.0055  -27.8714   20.7282 N   0  0  0  0  0  0  0  0  0  0  0  0
  -26.5039  -22.0581   17.2041 N   0  0  0  0  0  0  0  0  0  0  0  0
  -29.5481  -20.4804   16.0590 N   0  3  0  0  0  0  0  0  0  0  0  0
  -32.4031  -21.1033   24.1192 N   0  3  1  0  0  0  0  0  0  0  0  0
  -22.6480  -14.7939   20.9780 O   0  0  0  0  0  0  0  0  0  0  0  0
  -25.2871  -25.6811   21.0581 O   0  0  0  0  0  0  0  0  0  0  0  0
  -25.7122  -24.8032   17.4189 O   0  0  0  0  0  0  0  0  0  0  0  0
  -28.0180  -20.7737   18.4019 O   0  0  0  0  0  0  0  0  0  0  0  0
  -31.8803  -14.9028   20.1935 O   0  0  0  0  0  0  0  0  0  0  0  0
  -21.5572   -7.1647   22.0696 O   0  0  0  0  0  0  0  0  0  0  0  0
  -30.5633  -23.2741   24.2003 O   0  0  0  0  0  0  0  0  0  1  0  0
  -18.3860   -7.4423   26.5719 F   0  0  0  0  0  0  0  0  0  0  0  0
  -33.8802  -17.7905   23.4189 F   0  0  0  0  0  0  0  0  0  0  0  0
  -19.5554   -9.0597   22.2798 F   0  0  0  0  0  0  0  0  0  0  0  0
  1  2  1  0  0  0  0
  1  5  2  0  0  0  0
  2  6  2  0  0  0  0
  3  8  2  0  0  0  0
  3 17  1  0  0  0  0
  4  9  1  0  0  0  0
  4 17  2  0  0  0  0
  5 19  1  0  0  0  0
  6 21  1  0  0  0  0
  7 10  2  0  0  0  0
  7 20  1  0  0  0  0
  8 26  1  0  0  0  0
  9 26  2  0  0  0  0
 10 27  1  0  0  0  0
 11 12  2  0  0  0  0
 11 28  1  0  0  0  0
 12 29  1  0  0  0  0
 13 22  1  0  0  0  0
 13 27  2  0  0  0  0
 14 23  2  0  0  0  0
 14 25  1  0  0  0  0
 15 25  2  0  0  0  0
 15 30  1  0  0  0  0
 16 29  2  0  0  0  0
 16 31  1  0  0  0  0
 17 32  1  0  0  0  0
 18 32  1  0  0  0  0
 18 33  2  0  0  0  0
 18 34  1  0  0  0  0
 19 21  2  0  0  0  0
 19 39  1  0  0  0  0
 20 22  2  0  0  0  0
 20 40  1  0  0  0  0
 21 48  1  0  0  0  0
 22 41  1  0  0  0  0
 23 24  1  0  0  0  0
 23 51  1  0  0  0  0
 24 30  2  0  0  0  0
 24 58  1  0  0  0  0
 25 70  1  0  0  0  0
 26 80  1  0  0  0  0
 27 81  1  0  0  0  0
 28 31  2  0  0  0  0
 28 80  1  0  0  0  0
 29 82  1  0  0  0  0
 30 83  1  0  0  0  0
 31 84  1  0  0  0  0
 32 64  2  0  0  0  0
 33 65  1  0  0  0  0
 33 68  1  0  0  0  0
 34 69  1  0  0  0  0
 34 75  2  0  0  0  0
 35 49  1  0  0  0  0
 35 71  1  0  0  0  0
 35 76  2  0  0  0  0
 36 61  1  0  0  0  0
 36 66  1  0  0  0  0
 36 77  2  0  0  0  0
 37 62  1  0  0  0  0
 37 72  1  0  0  0  0
 37 78  2  0  0  0  0
 38 67  1  0  0  0  0
 38 70  1  0  0  0  0
 38 79  2  0  0  0  0
 39 42  1  0  0  0  0
 40 49  1  0  0  0  0
 41 66  1  0  0  0  0
 42 44  1  0  0  0  0
 43 45  1  0  0  0  0
 43 46  1  0  0  0  0
 44 48  1  0  0  0  0
 45 50  1  0  0  0  0
 46 67  1  0  0  0  0
 47 50  1  0  0  0  0
 47 67  1  0  0  0  0
 48 71  1  0  0  0  0
 49 66  1  0  0  0  0
 50 65  1  0  0  0  0
 52 62  1  0  0  0  0
 53 63  1  0  0  0  0
 54 63  1  0  0  0  0
 55 63  1  0  0  0  0
 56 73  1  0  0  0  0
 57 74  1  0  0  0  0
 58 74  1  0  0  0  0
 59 60  1  0  0  0  0
 59 74  1  0  0  0  0
 60 81  1  0  0  0  0
 61 63  1  0  0  0  0
 61 72  1  0  0  0  0
 62 73  1  0  0  0  0
 64 65  1  0  0  0  0
M  CHG  2  73   1  74   1
M  ISO  4  38 100  60 101  70 100  81 101
M  END
> <Batch ID>
0034

> <Smiles>
CNC(C)C(=O)NC(C(=O)N1Cc2cc([101O:1][101CH2:1]CN(C)Cc3c(C)cc([100NH:0][100C:0](=O)N4CCCC(n5nc(-c6ccc(Oc7ccc(F)cc7F)cc6)c(C(N)=O)c5N)C4)cc3F)ccc2CC1C(=O)NC1CCCc2ccccc21)C(C)(C)C

> <Shape>
0.262

> <Color>
0.206

> <Negative vol penalty>
0.000

$$$$

  -OEChem-04042321483D

 89 98  0     1  0  0  0  0  0999 V2000
  -18.0409  -26.5014   19.5955 C   0  0  0  0  0  0  0  0  0  0  0  0
  -19.4089  -26.5329   19.3446 C   0  0  0  0  0  0  0  0  0  0  0  0
  -26.6930  -12.1044   21.7446 C   0  0  0  0  0  0  0  0  0  0  0  0
  -25.8207  -13.6755   20.1297 C   0  0  0  0  0  0  0  0  0  0  0  0
  -17.5241  -27.1475   20.7177 C   0  0  0  0  0  0  0  0  0  0  0  0
  -20.2609  -27.2115   20.2153 C   0  0  0  0  0  0  0  0  0  0  0  0
  -25.9937  -25.6606   21.7105 C   0  0  0  0  0  0  0  0  0  0  0  0
  -25.4561  -11.4611   21.7868 C   0  0  0  0  0  0  0  0  0  0  0  0
  -24.5838  -13.0321   20.1719 C   0  0  0  0  0  0  0  0  0  0  0  0
  -27.2345  -26.1019   21.2528 C   0  0  0  0  0  0  0  0  0  0  0  0
  -23.7327   -9.2500   19.8964 C   0  0  0  0  0  0  0  0  0  0  0  0
  -23.7252   -7.8560   19.8485 C   0  0  0  0  0  0  0  0  0  0  0  0
  -27.3623  -27.6436   23.1037 C   0  0  0  0  0  0  0  0  0  0  0  0
  -28.8351  -22.8272   19.1873 C   0  0  0  0  0  0  0  0  0  0  0  0
  -30.8934  -21.6640   20.6680 C   0  0  0  0  0  0  0  0  0  0  0  0
  -22.6261   -7.7881   21.9990 C   0  0  0  0  0  0  0  0  0  0  0  0
  -26.8753  -13.2117   20.9161 C   0  0  0  0  0  0  0  0  0  0  0  0
  -29.2305  -13.5924   20.0130 C   0  0  0  0  0  0  0  0  0  0  0  0
  -18.3713  -27.8262   21.6078 C   0  0  0  0  0  0  0  0  0  0  0  0
  -25.4219  -26.2162   22.8641 C   0  0  0  0  0  0  0  0  0  0  0  0
  -19.7548  -27.8684   21.3497 C   0  0  0  0  0  0  0  0  0  0  0  0
  -26.1153  -27.2059   23.5754 C   0  0  0  0  0  0  0  0  0  0  0  0
  -28.5511  -21.8050   20.0928 C   0  0  0  0  0  0  0  0  0  0  0  0
  -30.1482  -23.2678   19.0220 C   0  0  0  0  0  0  0  0  0  0  0  0
  -29.5802  -21.2234   20.8332 C   0  0  0  0  0  0  0  0  0  0  0  0
  -24.4016  -11.9248   21.0005 C   0  0  0  0  0  0  0  0  0  0  0  0
  -27.9176  -27.0956   21.9477 C   0  0  0  0  0  0  0  0  0  0  0  0
  -23.1870   -9.9131   20.9956 C   0  0  0  0  0  0  0  0  0  0  0  0
  -23.1719   -7.1251   20.8998 C   0  0  0  0  0  0  0  0  0  0  0  0
  -22.6337   -9.1822   22.0468 C   0  0  0  0  0  0  0  0  0  0  0  0
  -31.1773  -22.6862   19.7624 C   0  0  0  0  0  0  0  0  0  0  0  0
  -28.1526  -13.8771   20.8725 C   0  0  0  0  0  0  0  0  0  0  0  0
  -30.2009  -14.4973   20.3679 C   0  0  0  0  0  0  0  0  0  0  0  0
  -29.9354  -26.6349   17.3483 C   0  0  0  0  0  0  0  0  0  0  0  0
  -29.1530  -26.6028   16.2555 C   0  0  0  0  0  0  0  0  0  0  0  0
  -29.3444  -12.5989   18.9855 C   0  0  0  0  0  0  0  0  0  0  0  0
  -22.7678  -27.8501   23.4885 C   0  0  0  0  0  0  0  0  0  0  0  0
  -23.7459  -27.5089   26.5625 C   0  0  0  0  0  0  0  0  0  0  0  0
  -26.3196  -26.9941   28.7437 C   0  0  0  0  0  0  0  0  0  0  0  0
  -30.0109  -19.8929   22.9286 C   0  0  0  0  0  0  0  0  0  0  0  0
  -17.7609  -28.5497   22.7819 C   0  0  0  0  0  0  0  0  0  0  0  0
  -24.0949  -25.7104   23.3598 C   0  0  0  0  0  0  0  0  0  0  0  0
  -25.5541  -27.8203   24.8308 C   0  0  0  0  0  0  0  0  0  0  0  0
  -31.0275  -27.6579   17.5012 C   0  0  0  0  0  0  0  0  0  0  0  0
  -18.7753  -28.9297   23.8575 C   0  0  0  0  0  0  0  0  0  0  0  0
  -30.5418  -28.8840   18.2719 C   0  0  0  0  0  0  0  0  0  0  0  0
  -31.7660  -17.0322   24.1174 C   0  0  0  0  0  0  0  0  0  0  0  0
  -20.0127  -29.5595   23.2257 C   0  0  0  0  0  0  0  0  0  0  0  0
  -31.1409  -15.8733   23.3376 C   0  0  0  0  0  0  0  0  0  0  0  0
  -30.2945  -28.6415   19.7582 C   0  0  0  0  0  0  0  0  0  0  0  0
  -30.7300  -18.0933   24.4841 C   0  0  0  0  0  0  0  0  0  0  0  0
  -29.3114  -17.4427   22.5779 C   0  0  0  0  0  0  0  0  0  0  0  0
  -29.9778  -26.1110   19.7690 C   0  0  0  0  0  0  0  0  0  0  0  0
  -20.7141  -28.5731   22.2842 C   0  0  1  0  0  0  0  0  0  0  0  0
  -23.3722  -26.7097   24.2578 C   0  0  1  0  0  0  0  0  0  0  0  0
  -30.3282  -16.3801   22.1299 C   0  0  2  0  0  0  0  0  0  0  0  0
  -29.3619  -27.4738   20.0906 C   0  0  1  0  0  0  0  0  0  1  0  0
  -27.1356  -21.3515   20.2478 C   0  0  0  0  0  0  0  0  0  0  0  0
  -28.0589  -25.6156   16.0494 C   0  0  0  0  0  0  0  0  0  0  0  0
  -26.8148  -26.8030   31.1964 C   0  0  0  0  0  0  0  0  0  0  0  0
  -23.4974  -30.5367   26.8461 C   0  0  0  0  0  0  0  0  0  0  0  0
  -24.8764  -30.3847   28.9302 C   0  0  0  0  0  0  0  0  0  0  0  0
  -22.6668  -29.2331   28.8121 C   0  0  0  0  0  0  0  0  0  0  0  0
  -27.3204  -24.2251   28.4442 C   0  0  0  0  0  0  0  0  0  0  0  0
  -30.4122  -24.3687   18.0375 C   0  0  0  0  0  0  0  0  0  0  0  0
  -24.6195  -28.3056   27.5011 C   0  0  1  0  0  0  0  0  0  0  0  0
  -26.4673  -26.0489   29.9223 C   0  0  2  0  0  0  0  0  0  0  0  0
  -23.9250  -29.6050   27.9977 C   0  0  0  0  0  0  0  0  0  0  0  0
  -28.4133  -14.8840   21.7105 N   0  0  0  0  0  0  0  0  0  0  0  0
  -29.6662  -15.2399   21.3793 N   0  0  0  0  0  0  0  0  0  0  0  0
  -24.2507  -27.2968   25.2717 N   0  0  0  0  0  0  0  0  0  0  0  0
  -30.0022  -18.5291   23.2902 N   0  0  0  0  0  0  0  0  0  0  0  0
  -31.4509  -14.7223   19.9105 N   0  0  0  0  0  0  0  0  0  0  0  0
  -28.2529  -11.7514   18.7517 N   0  0  0  0  0  0  0  0  0  0  0  0
  -29.3121  -20.1832   21.7573 N   0  0  0  0  0  0  0  0  0  0  0  0
  -21.4821  -27.6093   23.0429 N   0  0  0  0  0  0  0  0  0  0  0  0
  -25.0110  -27.3918   28.5689 N   0  0  0  0  0  0  0  0  0  0  0  0
  -29.6751  -25.6444   18.3652 N   0  3  2  0  0  0  0  0  0  0  0  0
  -27.5446  -25.0539   29.6565 N   0  3  0  0  0  0  0  0  0  0  0  0
  -30.3893  -12.4559   18.3064 O   0  0  0  0  0  0  0  0  0  0  0  0
  -23.4191  -28.8732   23.3134 O   0  0  0  0  0  0  0  0  0  0  0  0
  -22.6589  -27.0841   26.9621 O   0  0  0  0  0  0  0  0  0  0  0  0
  -27.2706  -27.3475   28.0500 O   0  0  0  0  0  0  0  0  0  0  0  0
  -30.6180  -20.7366   23.5931 O   0  0  0  0  0  0  0  0  0  0  0  0
  -23.1945  -11.2971   21.0412 O   0  0  0  0  0  0  0  0  0  0  0  0
  -29.1286  -27.5285   21.5027 O   0  0  0  0  0  0  0  0  0  1  0  0
  -23.1633   -5.7864   20.8530 F   0  0  0  0  0  0  0  0  0  0  0  0
  -22.1069   -9.8137   23.1049 F   0  0  0  0  0  0  0  0  0  0  0  0
  -32.8140  -23.2052   19.5845 Cl  0  0  0  0  0  0  0  0  0  0  0  0
  1  2  1  0  0  0  0
  1  5  2  0  0  0  0
  2  6  2  0  0  0  0
  3  8  2  0  0  0  0
  3 17  1  0  0  0  0
  4  9  1  0  0  0  0
  4 17  2  0  0  0  0
  5 19  1  0  0  0  0
  6 21  1  0  0  0  0
  7 10  2  0  0  0  0
  7 20  1  0  0  0  0
  8 26  1  0  0  0  0
  9 26  2  0  0  0  0
 10 27  1  0  0  0  0
 11 12  2  0  0  0  0
 11 28  1  0  0  0  0
 12 29  1  0  0  0  0
 13 22  1  0  0  0  0
 13 27  2  0  0  0  0
 14 23  2  0  0  0  0
 14 24  1  0  0  0  0
 15 25  2  0  0  0  0
 15 31  1  0  0  0  0
 16 29  2  0  0  0  0
 16 30  1  0  0  0  0
 17 32  1  0  0  0  0
 18 32  1  0  0  0  0
 18 33  2  0  0  0  0
 18 36  1  0  0  0  0
 19 21  2  0  0  0  0
 19 41  1  0  0  0  0
 20 22  2  0  0  0  0
 20 42  1  0  0  0  0
 21 54  1  0  0  0  0
 22 43  1  0  0  0  0
 23 25  1  0  0  0  0
 23 58  1  0  0  0  0
 24 31  2  0  0  0  0
 24 65  1  0  0  0  0
 25 75  1  0  0  0  0
 26 85  1  0  0  0  0
 27 86  1  0  0  0  0
 28 30  2  0  0  0  0
 28 85  1  0  0  0  0
 29 87  1  0  0  0  0
 30 88  1  0  0  0  0
 31 89  1  0  0  0  0
 32 69  2  0  0  0  0
 33 70  1  0  0  0  0
 33 73  1  0  0  0  0
 34 35  2  0  0  0  0
 34 44  1  0  0  0  0
 34 78  1  0  0  0  0
 35 59  1  0  0  0  0
 36 74  1  0  0  0  0
 36 80  2  0  0  0  0
 37 55  1  0  0  0  0
 37 76  1  0  0  0  0
 37 81  2  0  0  0  0
 38 66  1  0  0  0  0
 38 71  1  0  0  0  0
 38 82  2  0  0  0  0
 39 67  1  0  0  0  0
 39 77  1  0  0  0  0
 39 83  2  0  0  0  0
 40 72  1  0  0  0  0
 40 75  1  0  0  0  0
 40 84  2  0  0  0  0
 41 45  1  0  0  0  0
 42 55  1  0  0  0  0
 43 71  1  0  0  0  0
 44 46  1  0  0  0  0
 45 48  1  0  0  0  0
 46 50  1  0  0  0  0
 47 49  1  0  0  0  0
 47 51  1  0  0  0  0
 48 54  1  0  0  0  0
 49 56  1  0  0  0  0
 50 57  1  0  0  0  0
 51 72  1  0  0  0  0
 52 56  1  0  0  0  0
 52 72  1  0  0  0  0
 53 57  1  0  0  0  0
 53 78  1  0  0  0  0
 54 76  1  0  0  0  0
 55 71  1  0  0  0  0
 56 70  1  0  0  0  0
 57 86  1  0  0  0  0
 60 67  1  0  0  0  0
 61 68  1  0  0  0  0
 62 68  1  0  0  0  0
 63 68  1  0  0  0  0
 64 79  1  0  0  0  0
 65 78  1  0  0  0  0
 66 68  1  0  0  0  0
 66 77  1  0  0  0  0
 67 79  1  0  0  0  0
 69 70  1  0  0  0  0
M  CHG  2  78   1  79   1
M  ISO  4  40 100  57 101  75 100  86 101
M  END
> <Batch ID>
0034

> <Smiles>
CC=C1CCC[101CH:1]([101O:1]c2ccc3c(c2)CN(C(=O)C(NC(=O)C(C)NC)C(C)(C)C)C(C(=O)NC2CCCc4ccccc42)C3)CN1Cc1cc(C)c([100NH:0][100C:0](=O)N2CCCC(n3nc(-c4ccc(Oc5ccc(F)cc5F)cc4)c(C(N)=O)c3N)C2)cc1Cl

> <Shape>
0.270

> <Color>
0.069

> <Negative vol penalty>
0.000

$$$$

  -OEChem-04042321483D

 83 92  0     1  0  0  0  0  0999 V2000
  -22.7146  -28.6040   24.2255 C   0  0  0  0  0  0  0  0  0  0  0  0
  -23.3698  -27.4177   23.9116 C   0  0  0  0  0  0  0  0  0  0  0  0
  -23.1895   -9.8954   19.9048 C   0  0  0  0  0  0  0  0  0  0  0  0
  -23.5503  -10.0486   22.2888 C   0  0  0  0  0  0  0  0  0  0  0  0
  -22.9107  -29.7371   23.4370 C   0  0  0  0  0  0  0  0  0  0  0  0
  -24.2209  -27.3633   22.8083 C   0  0  0  0  0  0  0  0  0  0  0  0
  -29.3727  -24.0929   22.2902 C   0  0  0  0  0  0  0  0  0  0  0  0
  -22.3772   -8.7783   20.0994 C   0  0  0  0  0  0  0  0  0  0  0  0
  -22.7379   -8.9315   22.4835 C   0  0  0  0  0  0  0  0  0  0  0  0
  -29.6469  -22.8628   21.6940 C   0  0  0  0  0  0  0  0  0  0  0  0
  -19.2018   -8.1470   21.0745 C   0  0  0  0  0  0  0  0  0  0  0  0
  -17.9950   -8.0936   20.3771 C   0  0  0  0  0  0  0  0  0  0  0  0
  -28.9182  -16.5056   17.9537 C   0  0  0  0  0  0  0  0  0  0  0  0
  -30.3841  -24.0010   19.6989 C   0  0  0  0  0  0  0  0  0  0  0  0
  -27.9012  -16.1649   15.3785 C   0  0  0  0  0  0  0  0  0  0  0  0
  -18.7073   -6.0509   19.3013 C   0  0  0  0  0  0  0  0  0  0  0  0
  -23.7761  -10.5305   20.9994 C   0  0  0  0  0  0  0  0  0  0  0  0
  -29.2686  -15.3796   17.2088 C   0  0  0  0  0  0  0  0  0  0  0  0
  -24.2147  -13.0333   20.7731 C   0  0  0  0  0  0  0  0  0  0  0  0
  -23.7721  -29.6993   22.3292 C   0  0  0  0  0  0  0  0  0  0  0  0
  -29.5923  -25.2879   21.5901 C   0  0  0  0  0  0  0  0  0  0  0  0
  -24.4277  -28.4966   22.0035 C   0  0  0  0  0  0  0  0  0  0  0  0
  -30.1143  -25.2450   20.2895 C   0  0  0  0  0  0  0  0  0  0  0  0
  -28.0594  -17.4614   17.4110 C   0  0  0  0  0  0  0  0  0  0  0  0
  -28.7600  -15.2092   15.9211 C   0  0  0  0  0  0  0  0  0  0  0  0
  -27.5508  -17.2910   16.1234 C   0  0  0  0  0  0  0  0  0  0  0  0
  -22.1514   -8.2964   21.3888 C   0  0  0  0  0  0  0  0  0  0  0  0
  -30.1499  -22.8166   20.3971 C   0  0  0  0  0  0  0  0  0  0  0  0
  -20.1614   -7.1525   20.8854 C   0  0  0  0  0  0  0  0  0  0  0  0
  -17.7478   -7.0455   19.4905 C   0  0  0  0  0  0  0  0  0  0  0  0
  -19.9141   -6.1044   19.9988 C   0  0  0  0  0  0  0  0  0  0  0  0
  -24.6158  -11.6841   20.7989 C   0  0  0  0  0  0  0  0  0  0  0  0
  -25.3763  -13.7326   20.5532 C   0  0  0  0  0  0  0  0  0  0  0  0
  -30.1745  -14.3890   17.8044 C   0  0  0  0  0  0  0  0  0  0  0  0
  -22.9090  -13.6035   20.9336 C   0  0  0  0  0  0  0  0  0  0  0  0
  -27.7470  -27.6796   20.6009 C   0  0  0  0  0  0  0  0  0  0  0  0
  -30.5850  -29.0026   19.7535 C   0  0  0  0  0  0  0  0  0  0  0  0
  -33.8595  -28.5417   18.9098 C   0  0  0  0  0  0  0  0  0  0  0  0
  -23.9157  -30.9366   21.4788 C   0  0  0  0  0  0  0  0  0  0  0  0
  -29.3166  -26.6075   22.2571 C   0  0  0  0  0  0  0  0  0  0  0  0
  -30.3868  -26.5000   19.5026 C   0  0  0  0  0  0  0  0  0  0  0  0
  -25.1243  -30.8983   20.5471 C   0  0  0  0  0  0  0  0  0  0  0  0
  -30.2059  -12.2354   20.6509 C   0  0  0  0  0  0  0  0  0  0  0  0
  -25.2030  -29.5545   19.8297 C   0  0  0  0  0  0  0  0  0  0  0  0
  -28.7219  -11.9929   20.9318 C   0  0  0  0  0  0  0  0  0  0  0  0
  -30.4861  -12.3417   19.1540 C   0  0  0  0  0  0  0  0  0  0  0  0
  -28.1752  -13.1039   18.7256 C   0  0  0  0  0  0  0  0  0  0  0  0
  -28.2069  -21.0005   18.7501 C   0  0  0  0  0  0  0  0  0  0  0  0
  -29.8294  -19.8574   18.0996 C   0  0  0  0  0  0  0  0  0  0  0  0
  -25.3779  -28.4048   20.8293 C   0  0  1  0  0  0  0  0  0  0  0  0
  -29.0938  -27.7440   21.2640 C   0  0  1  0  0  0  0  0  0  0  0  0
  -27.8419  -13.0412   20.2253 C   0  0  1  0  0  0  0  0  0  0  0  0
  -29.7080  -21.3064   18.6028 C   0  0  0  0  0  0  0  0  0  1  0  0
  -29.1189  -14.0124   15.1020 C   0  0  0  0  0  0  0  0  0  0  0  0
  -26.6296  -18.3008   15.5216 C   0  0  0  0  0  0  0  0  0  0  0  0
  -35.9169  -29.8096   18.2339 C   0  0  0  0  0  0  0  0  0  0  0  0
  -29.4332  -29.3736   16.9525 C   0  0  0  0  0  0  0  0  0  0  0  0
  -31.7652  -29.7373   16.1173 C   0  0  0  0  0  0  0  0  0  0  0  0
  -30.7826  -31.3055   17.7899 C   0  0  0  0  0  0  0  0  0  0  0  0
  -35.3600  -27.5994   21.2804 C   0  0  0  0  0  0  0  0  0  0  0  0
  -27.6969  -18.6644   18.2309 C   0  0  0  0  0  0  0  0  0  0  0  0
  -31.4492  -28.9774   18.5160 C   0  0  1  0  0  0  0  0  0  0  0  0
  -35.1292  -29.2191   19.3930 C   0  0  2  0  0  0  0  0  0  0  0  0
  -30.8507  -29.8246   17.3578 C   0  0  0  0  0  0  0  0  0  0  0  0
  -25.9294  -11.5330   20.6104 N   0  0  0  0  0  0  0  0  0  0  0  0
  -26.3639  -12.7963   20.4639 N   0  0  0  0  0  0  0  0  0  0  0  0
  -29.6135  -13.3379   18.5338 N   0  0  0  0  0  0  0  0  0  0  0  0
  -30.0951  -27.7656   20.1958 N   0  0  0  0  0  0  0  0  0  0  0  0
  -25.6389  -15.0510   20.4295 N   0  0  0  0  0  0  0  0  0  0  0  0
  -21.8258  -12.7414   21.1521 N   0  0  0  0  0  0  0  0  0  0  0  0
  -26.7482  -28.3401   21.2904 N   0  0  0  0  0  0  0  0  0  0  0  0
  -32.7802  -29.3993   18.9389 N   0  0  0  0  0  0  0  0  0  0  0  0
  -28.3881  -19.8958   17.7904 N   0  3  0  0  0  0  0  0  0  0  0  0
  -36.0004  -28.2405   20.1031 N   0  3  0  0  0  0  0  0  0  0  0  0
  -31.3769  -14.5727   17.6210 O   0  0  0  0  0  0  0  0  0  0  0  0
  -22.7064  -14.8397   20.8682 O   0  0  0  0  0  0  0  0  0  0  0  0
  -27.6236  -27.0765   19.5413 O   0  0  0  0  0  0  0  0  0  0  0  0
  -30.3589  -30.0793   20.3114 O   0  0  0  0  0  0  0  0  0  0  0  0
  -33.8290  -27.3701   18.5397 O   0  0  0  0  0  0  0  0  0  0  0  0
  -21.3586   -7.2065   21.5791 O   0  0  0  0  0  0  0  0  0  0  0  0
  -30.4178  -21.6172   19.8126 O   0  0  0  0  0  0  0  0  0  1  0  0
  -16.5882   -6.9935   18.8219 F   0  0  0  0  0  0  0  0  0  0  0  0
  -20.8316   -5.1454   19.8137 F   0  0  0  0  0  0  0  0  0  0  0  0
  1  2  1  0  0  0  0
  1  5  2  0  0  0  0
  2  6  2  0  0  0  0
  3  8  2  0  0  0  0
  3 17  1  0  0  0  0
  4  9  1  0  0  0  0
  4 17  2  0  0  0  0
  5 20  1  0  0  0  0
  6 22  1  0  0  0  0
  7 10  2  0  0  0  0
  7 21  1  0  0  0  0
  8 27  1  0  0  0  0
  9 27  2  0  0  0  0
 10 28  1  0  0  0  0
 11 12  2  0  0  0  0
 11 29  1  0  0  0  0
 12 30  1  0  0  0  0
 13 18  2  0  0  0  0
 13 24  1  0  0  0  0
 14 23  1  0  0  0  0
 14 28  2  0  0  0  0
 15 25  2  0  0  0  0
 15 26  1  0  0  0  0
 16 30  2  0  0  0  0
 16 31  1  0  0  0  0
 17 32  1  0  0  0  0
 18 25  1  0  0  0  0
 18 34  1  0  0  0  0
 19 32  1  0  0  0  0
 19 33  2  0  0  0  0
 19 35  1  0  0  0  0
 20 22  2  0  0  0  0
 20 39  1  0  0  0  0
 21 23  2  0  0  0  0
 21 40  1  0  0  0  0
 22 50  1  0  0  0  0
 23 41  1  0  0  0  0
 24 26  2  0  0  0  0
 24 61  1  0  0  0  0
 25 54  1  0  0  0  0
 26 55  1  0  0  0  0
 27 80  1  0  0  0  0
 28 81  1  0  0  0  0
 29 31  2  0  0  0  0
 29 80  1  0  0  0  0
 30 82  1  0  0  0  0
 31 83  1  0  0  0  0
 32 65  2  0  0  0  0
 33 66  1  0  0  0  0
 33 69  1  0  0  0  0
 34 67  1  0  0  0  0
 34 75  2  0  0  0  0
 35 70  1  0  0  0  0
 35 76  2  0  0  0  0
 36 51  1  0  0  0  0
 36 71  1  0  0  0  0
 36 77  2  0  0  0  0
 37 62  1  0  0  0  0
 37 68  1  0  0  0  0
 37 78  2  0  0  0  0
 38 63  1  0  0  0  0
 38 72  1  0  0  0  0
 38 79  2  0  0  0  0
 39 42  1  0  0  0  0
 40 51  1  0  0  0  0
 41 68  1  0  0  0  0
 42 44  1  0  0  0  0
 43 45  1  0  0  0  0
 43 46  1  0  0  0  0
 44 50  1  0  0  0  0
 45 52  1  0  0  0  0
 46 67  1  0  0  0  0
 47 52  1  0  0  0  0
 47 67  1  0  0  0  0
 48 53  1  0  0  0  0
 48 73  1  0  0  0  0
 49 53  1  0  0  0  0
 49 73  1  0  0  0  0
 50 71  1  0  0  0  0
 51 68  1  0  0  0  0
 52 66  1  0  0  0  0
 53 81  1  0  0  0  0
 56 63  1  0  0  0  0
 57 64  1  0  0  0  0
 58 64  1  0  0  0  0
 59 64  1  0  0  0  0
 60 74  1  0  0  0  0
 61 73  1  0  0  0  0
 62 64  1  0  0  0  0
 62 72  1  0  0  0  0
 63 74  1  0  0  0  0
 65 66  1  0  0  0  0
M  CHG  2  73   1  74   1
M  ISO  4  18 100  34 100  53 101  81 101
M  END
> <Batch ID>
0034

> <Smiles>
CNC(C)C(=O)NC(C(=O)N1Cc2cc([101O:1][101CH:1]3CN(Cc4c[100c:0]([100C:0](=O)N5CCCC(n6nc(-c7ccc(Oc8ccc(F)cc8F)cc7)c(C(N)=O)c6N)C5)c(C)cc4C)C3)ccc2CC1C(=O)NC1CCCc2ccccc21)C(C)(C)C

> <Shape>
0.251

> <Color>
0.193

> <Negative vol penalty>
0.000

$$$$

  -OEChem-04042321483D

 89 98  0     1  0  0  0  0  0999 V2000
  -33.3778  -24.0400   19.8595 C   0  0  0  0  0  0  0  0  0  0  0  0
  -33.8707  -22.7683   19.5897 C   0  0  0  0  0  0  0  0  0  0  0  0
  -25.4621  -28.1798   21.4720 C   0  0  0  0  0  0  0  0  0  0  0  0
  -24.0538  -28.9880   19.6829 C   0  0  0  0  0  0  0  0  0  0  0  0
  -32.0244  -24.2135   20.1411 C   0  0  0  0  0  0  0  0  0  0  0  0
  -33.0082  -21.6715   19.5897 C   0  0  0  0  0  0  0  0  0  0  0  0
  -30.7824  -14.0644   18.9567 C   0  0  0  0  0  0  0  0  0  0  0  0
  -25.0908  -29.2712   22.2573 C   0  0  0  0  0  0  0  0  0  0  0  0
  -23.6824  -30.0793   20.4682 C   0  0  0  0  0  0  0  0  0  0  0  0
  -29.7695  -13.1694   19.2984 C   0  0  0  0  0  0  0  0  0  0  0  0
  -25.8880  -32.5464   22.5061 C   0  0  0  0  0  0  0  0  0  0  0  0
  -26.8957  -33.2202   23.1960 C   0  0  0  0  0  0  0  0  0  0  0  0
  -28.1523  -14.5969   18.2185 C   0  0  0  0  0  0  0  0  0  0  0  0
  -21.3537  -15.6807   17.5566 C   0  0  0  0  0  0  0  0  0  0  0  0
  -25.8026  -32.7113   25.2896 C   0  0  0  0  0  0  0  0  0  0  0  0
  -24.9436  -28.0383   20.1847 C   0  0  0  0  0  0  0  0  0  0  0  0
  -26.6266  -26.5697   18.9525 C   0  0  0  0  0  0  0  0  0  0  0  0
  -31.1479  -23.1160   20.1567 C   0  0  0  0  0  0  0  0  0  0  0  0
  -30.4859  -15.2397   18.2517 C   0  0  0  0  0  0  0  0  0  0  0  0
  -31.6346  -21.8294   19.8481 C   0  0  0  0  0  0  0  0  0  0  0  0
  -29.1636  -15.5039   17.8669 C   0  0  0  0  0  0  0  0  0  0  0  0
  -22.0685  -16.6858   16.9050 C   0  0  0  0  0  0  0  0  0  0  0  0
  -21.8958  -15.0552   18.6794 C   0  0  0  0  0  0  0  0  0  0  0  0
  -23.3253  -17.0653   17.3761 C   0  0  0  0  0  0  0  0  0  0  0  0
  -23.1527  -15.4347   19.1505 C   0  0  0  0  0  0  0  0  0  0  0  0
  -24.2009  -30.2209   21.7554 C   0  0  0  0  0  0  0  0  0  0  0  0
  -28.4538  -13.4370   18.9318 C   0  0  0  0  0  0  0  0  0  0  0  0
  -24.8375  -31.9551   23.2079 C   0  0  0  0  0  0  0  0  0  0  0  0
  -26.8531  -33.3026   24.5878 C   0  0  0  0  0  0  0  0  0  0  0  0
  -24.7948  -32.0375   24.5997 C   0  0  0  0  0  0  0  0  0  0  0  0
  -23.8674  -16.4398   18.4989 C   0  0  0  0  0  0  0  0  0  0  0  0
  -25.3273  -26.9115   19.3728 C   0  0  0  0  0  0  0  0  0  0  0  0
  -26.4579  -25.4261   18.2108 C   0  0  0  0  0  0  0  0  0  0  0  0
  -25.0682  -12.9758   19.3969 C   0  0  0  0  0  0  0  0  0  0  0  0
  -24.8824  -12.6249   18.1136 C   0  0  0  0  0  0  0  0  0  0  0  0
  -27.8746  -27.2271   19.2096 C   0  0  0  0  0  0  0  0  0  0  0  0
  -30.7645  -18.3481   18.8550 C   0  0  0  0  0  0  0  0  0  0  0  0
  -29.8090  -18.6357   15.7684 C   0  0  0  0  0  0  0  0  0  0  0  0
  -27.3767  -17.0751   13.6084 C   0  0  0  0  0  0  0  0  0  0  0  0
  -24.2920  -20.4399   17.5832 C   0  0  0  0  0  0  0  0  0  0  0  0
  -29.6910  -23.3619   20.4601 C   0  0  0  0  0  0  0  0  0  0  0  0
  -31.5937  -16.1817   17.8675 C   0  0  0  0  0  0  0  0  0  0  0  0
  -28.7956  -16.7416   17.0916 C   0  0  0  0  0  0  0  0  0  0  0  0
  -28.9476  -22.0955   20.8723 C   0  0  0  0  0  0  0  0  0  0  0  0
  -22.2517  -23.2158   16.4747 C   0  0  0  0  0  0  0  0  0  0  0  0
  -25.1736  -12.6304   22.2410 C   0  0  0  0  0  0  0  0  0  0  0  0
  -29.2305  -20.9796   19.8775 C   0  0  0  0  0  0  0  0  0  0  0  0
  -26.3873  -12.2693   21.3918 C   0  0  0  0  0  0  0  0  0  0  0  0
  -22.9860  -24.4024   17.1016 C   0  0  0  0  0  0  0  0  0  0  0  0
  -22.2644  -22.0049   17.4029 C   0  0  0  0  0  0  0  0  0  0  0  0
  -24.3598  -22.7570   18.4600 C   0  0  0  0  0  0  0  0  0  0  0  0
  -23.8762  -12.4679   21.4559 C   0  0  0  0  0  0  0  0  0  0  0  0
  -30.7210  -20.6173   19.8726 C   0  0  1  0  0  0  0  0  0  0  0  0
  -26.4114  -13.0625   20.0861 C   0  0  1  0  0  0  0  0  0  1  0  0
  -31.1041  -17.6010   17.5964 C   0  0  1  0  0  0  0  0  0  0  0  0
  -24.4016  -24.0060   17.5610 C   0  0  2  0  0  0  0  0  0  0  0  0
  -21.4634  -17.3383   15.7051 C   0  0  0  0  0  0  0  0  0  0  0  0
  -21.1079  -13.9821   19.3573 C   0  0  0  0  0  0  0  0  0  0  0  0
  -27.3519  -16.7929   11.1150 C   0  0  0  0  0  0  0  0  0  0  0  0
  -28.1797  -21.2155   15.7831 C   0  0  0  0  0  0  0  0  0  0  0  0
  -26.7878  -20.2649   13.9319 C   0  0  0  0  0  0  0  0  0  0  0  0
  -29.2267  -20.6554   13.5821 C   0  0  0  0  0  0  0  0  0  0  0  0
  -27.0494  -14.1418   13.8273 C   0  0  0  0  0  0  0  0  0  0  0  0
  -24.0749  -18.1466   16.6609 C   0  0  0  0  0  0  0  0  0  0  0  0
  -23.7162  -14.7484   20.3598 C   0  0  0  0  0  0  0  0  0  0  0  0
  -28.4767  -18.7524   15.0681 C   0  0  1  0  0  0  0  0  0  0  0  0
  -27.6600  -16.1347   12.4509 C   0  0  2  0  0  0  0  0  0  0  0  0
  -28.1704  -20.2082   14.6160 C   0  0  0  0  0  0  0  0  0  0  0  0
  -24.4014  -26.0544   18.9344 N   0  0  0  0  0  0  0  0  0  0  0  0
  -25.1198  -25.1628   18.2308 N   0  0  0  0  0  0  0  0  0  0  0  0
  -29.9133  -17.6351   16.7450 N   0  0  0  0  0  0  0  0  0  0  0  0
  -23.6424  -21.6685   17.7880 N   0  0  0  0  0  0  0  0  0  0  0  0
  -27.3250  -24.6301   17.5498 N   0  0  0  0  0  0  0  0  0  0  0  0
  -28.3066  -28.2145   18.3136 N   0  0  0  0  0  0  0  0  0  0  0  0
  -30.9828  -19.7104   18.7769 N   0  0  0  0  0  0  0  0  0  0  0  0
  -28.5013  -17.7813   13.9797 N   0  0  0  0  0  0  0  0  0  0  0  0
  -23.5408  -19.4597   16.9463 N   0  0  0  0  0  0  0  0  0  0  0  0
  -23.8816  -13.2653   20.1721 N   0  3  1  0  0  0  0  0  0  0  0  0
  -26.8307  -14.9022   12.5699 N   0  3  0  0  0  0  0  0  0  0  0  0
  -28.5934  -26.9358   20.1955 O   0  0  0  0  0  0  0  0  0  0  0  0
  -30.3347  -17.7343   19.8246 O   0  0  0  0  0  0  0  0  0  0  0  0
  -30.7257  -19.3994   15.4553 O   0  0  0  0  0  0  0  0  0  0  0  0
  -26.2678  -17.1759   14.1286 O   0  0  0  0  0  0  0  0  0  0  0  0
  -25.4578  -20.2332   17.9371 O   0  0  0  0  0  0  0  0  0  0  0  0
  -23.8382  -31.2858   22.5215 O   0  0  0  0  0  0  0  0  0  0  0  0
  -27.4630  -12.5655   19.2646 O   0  0  0  0  0  0  0  0  0  1  0  0
  -27.8217  -33.9483   25.2503 F   0  0  0  0  0  0  0  0  0  0  0  0
  -23.7888  -31.4704   25.2795 F   0  0  0  0  0  0  0  0  0  0  0  0
  -25.4290  -16.9113   19.0841 Cl  0  0  0  0  0  0  0  0  0  0  0  0
  1  2  1  0  0  0  0
  1  5  2  0  0  0  0
  2  6  2  0  0  0  0
  3  8  2  0  0  0  0
  3 16  1  0  0  0  0
  4  9  1  0  0  0  0
  4 16  2  0  0  0  0
  5 18  1  0  0  0  0
  6 20  1  0  0  0  0
  7 10  2  0  0  0  0
  7 19  1  0  0  0  0
  8 26  1  0  0  0  0
  9 26  2  0  0  0  0
 10 27  1  0  0  0  0
 11 12  2  0  0  0  0
 11 28  1  0  0  0  0
 12 29  1  0  0  0  0
 13 21  1  0  0  0  0
 13 27  2  0  0  0  0
 14 22  1  0  0  0  0
 14 23  2  0  0  0  0
 15 29  2  0  0  0  0
 15 30  1  0  0  0  0
 16 32  1  0  0  0  0
 17 32  1  0  0  0  0
 17 33  2  0  0  0  0
 17 36  1  0  0  0  0
 18 20  2  0  0  0  0
 18 41  1  0  0  0  0
 19 21  2  0  0  0  0
 19 42  1  0  0  0  0
 20 53  1  0  0  0  0
 21 43  1  0  0  0  0
 22 24  2  0  0  0  0
 22 57  1  0  0  0  0
 23 25  1  0  0  0  0
 23 58  1  0  0  0  0
 24 31  1  0  0  0  0
 24 64  1  0  0  0  0
 25 31  2  0  0  0  0
 25 65  1  0  0  0  0
 26 85  1  0  0  0  0
 27 86  1  0  0  0  0
 28 30  2  0  0  0  0
 28 85  1  0  0  0  0
 29 87  1  0  0  0  0
 30 88  1  0  0  0  0
 31 89  1  0  0  0  0
 32 69  2  0  0  0  0
 33 70  1  0  0  0  0
 33 73  1  0  0  0  0
 34 35  2  0  0  0  0
 34 54  1  0  0  0  0
 34 78  1  0  0  0  0
 36 74  1  0  0  0  0
 36 80  2  0  0  0  0
 37 55  1  0  0  0  0
 37 75  1  0  0  0  0
 37 81  2  0  0  0  0
 38 66  1  0  0  0  0
 38 71  1  0  0  0  0
 38 82  2  0  0  0  0
 39 67  1  0  0  0  0
 39 76  1  0  0  0  0
 39 83  2  0  0  0  0
 40 72  1  0  0  0  0
 40 77  1  0  0  0  0
 40 84  2  0  0  0  0
 41 44  1  0  0  0  0
 42 55  1  0  0  0  0
 43 71  1  0  0  0  0
 44 47  1  0  0  0  0
 45 49  1  0  0  0  0
 45 50  1  0  0  0  0
 46 48  1  0  0  0  0
 46 52  1  0  0  0  0
 47 53  1  0  0  0  0
 48 54  1  0  0  0  0
 49 56  1  0  0  0  0
 50 72  1  0  0  0  0
 51 56  1  0  0  0  0
 51 72  1  0  0  0  0
 52 78  1  0  0  0  0
 53 75  1  0  0  0  0
 54 86  1  0  0  0  0
 55 71  1  0  0  0  0
 56 70  1  0  0  0  0
 59 67  1  0  0  0  0
 60 68  1  0  0  0  0
 61 68  1  0  0  0  0
 62 68  1  0  0  0  0
 63 79  1  0  0  0  0
 64 77  1  0  0  0  0
 65 78  1  0  0  0  0
 66 68  1  0  0  0  0
 66 76  1  0  0  0  0
 67 79  1  0  0  0  0
 69 70  1  0  0  0  0
M  CHG  2  78   1  79   1
M  ISO  4  40 100  54 101  77 100  86 101
M  END
> <Batch ID>
0034

> <Smiles>
C=C1N(Cc2c(C)cc(C)c(C[100NH:0][100C:0](=O)N3CCCC(n4nc(-c5ccc(Oc6ccc(F)cc6F)cc5)c(C(N)=O)c4N)C3)c2Cl)CCC[101CH:1]1[101O:1]c1ccc2c(c1)CN(C(=O)C(NC(=O)C(C)NC)C(C)(C)C)C(C(=O)NC1CCCc3ccccc31)C2

> <Shape>
0.197

> <Color>
0.062

> <Negative vol penalty>
0.000

$$$$

  -OEChem-04042321483D

 86 95  0     1  0  0  0  0  0999 V2000
  -25.4868  -32.7033   28.8736 C   0  0  0  0  0  0  0  0  0  0  0  0
  -24.4771  -31.7599   28.7133 C   0  0  0  0  0  0  0  0  0  0  0  0
  -26.4622  -12.5149   19.8064 C   0  0  0  0  0  0  0  0  0  0  0  0
  -26.2721  -13.7973   21.8451 C   0  0  0  0  0  0  0  0  0  0  0  0
  -26.1642  -33.1941   27.7582 C   0  0  0  0  0  0  0  0  0  0  0  0
  -24.1433  -31.3075   27.4372 C   0  0  0  0  0  0  0  0  0  0  0  0
  -21.8162  -25.4580   24.0190 C   0  0  0  0  0  0  0  0  0  0  0  0
  -22.7381  -19.3484   19.8163 C   0  0  0  0  0  0  0  0  0  0  0  0
  -24.1118  -19.1068   19.8063 C   0  0  0  0  0  0  0  0  0  0  0  0
  -25.2089  -11.9509   20.0442 C   0  0  0  0  0  0  0  0  0  0  0  0
  -25.0187  -13.2333   22.0830 C   0  0  0  0  0  0  0  0  0  0  0  0
  -20.8164  -25.0528   23.1358 C   0  0  0  0  0  0  0  0  0  0  0  0
  -22.2149   -9.9030   20.3006 C   0  0  0  0  0  0  0  0  0  0  0  0
  -22.0759   -8.5272   20.1180 C   0  0  0  0  0  0  0  0  0  0  0  0
  -22.1082  -25.9124   21.2888 C   0  0  0  0  0  0  0  0  0  0  0  0
  -23.0183  -20.8643   21.6766 C   0  0  0  0  0  0  0  0  0  0  0  0
  -23.7624   -8.1332   21.8025 C   0  0  0  0  0  0  0  0  0  0  0  0
  -26.9939  -13.4381   20.7068 C   0  0  0  0  0  0  0  0  0  0  0  0
  -29.5164  -13.3426   20.3387 C   0  0  0  0  0  0  0  0  0  0  0  0
  -25.8451  -32.7404   26.4686 C   0  0  0  0  0  0  0  0  0  0  0  0
  -22.9665  -26.1043   23.5441 C   0  0  0  0  0  0  0  0  0  0  0  0
  -24.8161  -31.7937   26.3034 C   0  0  0  0  0  0  0  0  0  0  0  0
  -23.1223  -26.3225   22.1678 C   0  0  0  0  0  0  0  0  0  0  0  0
  -22.1913  -20.2272   20.7515 C   0  0  0  0  0  0  0  0  0  0  0  0
  -24.3920  -20.6226   21.6666 C   0  0  0  0  0  0  0  0  0  0  0  0
  -24.9387  -19.7438   20.7314 C   0  0  0  0  0  0  0  0  0  0  0  0
  -24.4871  -12.3101   21.1825 C   0  0  0  0  0  0  0  0  0  0  0  0
  -20.9610  -25.2826   21.7707 C   0  0  0  0  0  0  0  0  0  0  0  0
  -23.1277  -10.3940   21.2341 C   0  0  0  0  0  0  0  0  0  0  0  0
  -22.8496   -7.6423   20.8689 C   0  0  0  0  0  0  0  0  0  0  0  0
  -23.9014   -9.5091   21.9851 C   0  0  0  0  0  0  0  0  0  0  0  0
  -28.2888  -14.0206   20.4620 C   0  0  0  0  0  0  0  0  0  0  0  0
  -30.4366  -14.3370   20.1132 C   0  0  0  0  0  0  0  0  0  0  0  0
  -18.8521  -21.1998   19.3848 C   0  0  0  0  0  0  0  0  0  0  0  0
  -18.4957  -20.4824   18.3086 C   0  0  0  0  0  0  0  0  0  0  0  0
  -29.7995  -11.9395   20.4206 C   0  0  0  0  0  0  0  0  0  0  0  0
  -24.2748  -28.9673   23.9857 C   0  0  0  0  0  0  0  0  0  0  0  0
  -26.6877  -27.7056   22.2228 C   0  0  0  0  0  0  0  0  0  0  0  0
  -26.9983  -25.6302   19.2879 C   0  0  0  0  0  0  0  0  0  0  0  0
  -27.0292  -18.6383   19.8385 C   0  0  0  0  0  0  0  0  0  0  0  0
  -26.5727  -33.3352   25.2890 C   0  0  0  0  0  0  0  0  0  0  0  0
  -24.0479  -26.5112   24.5071 C   0  0  0  0  0  0  0  0  0  0  0  0
  -24.3473  -26.9941   21.6050 C   0  0  0  0  0  0  0  0  0  0  0  0
  -17.8543  -21.8503   20.3041 C   0  0  0  0  0  0  0  0  0  0  0  0
  -26.4135  -32.5264   24.0042 C   0  0  0  0  0  0  0  0  0  0  0  0
  -18.2015  -23.3199   20.5087 C   0  0  0  0  0  0  0  0  0  0  0  0
  -30.5893  -19.0241   21.2678 C   0  0  0  0  0  0  0  0  0  0  0  0
  -24.9523  -32.1431   23.7924 C   0  0  0  0  0  0  0  0  0  0  0  0
  -30.7917  -17.5145   21.2305 C   0  0  0  0  0  0  0  0  0  0  0  0
  -29.1078  -19.3629   21.1275 C   0  0  0  0  0  0  0  0  0  0  0  0
  -29.2819  -17.8245   19.1691 C   0  0  0  0  0  0  0  0  0  0  0  0
  -20.5841  -22.8367   19.8347 C   0  0  0  0  0  0  0  0  0  0  0  0
  -24.4420  -31.2601   24.9375 C   0  0  1  0  0  0  0  0  0  0  0  0
  -24.9430  -27.6217   23.9659 C   0  0  1  0  0  0  0  0  0  0  0  0
  -30.2771  -16.9078   19.9098 C   0  0  2  0  0  0  0  0  0  0  0  0
  -19.6764  -23.4983   20.8685 C   0  0  1  0  0  0  0  0  0  1  0  0
  -25.2536  -21.3166   22.6714 C   0  0  0  0  0  0  0  0  0  0  0  0
  -28.8304  -24.0679   18.5809 C   0  0  0  0  0  0  0  0  0  0  0  0
  -27.7417  -30.1094   20.6669 C   0  0  0  0  0  0  0  0  0  0  0  0
  -28.3796  -28.5454   18.8189 C   0  0  0  0  0  0  0  0  0  0  0  0
  -29.4277  -28.3068   21.0699 C   0  0  0  0  0  0  0  0  0  0  0  0
  -25.1187  -23.3593   19.0249 C   0  0  0  0  0  0  0  0  0  0  0  0
  -20.7134  -20.4852   20.7637 C   0  0  0  0  0  0  0  0  0  0  0  0
  -27.0117  -27.6343   20.7501 C   0  0  1  0  0  0  0  0  0  0  0  0
  -27.4655  -24.1866   19.2410 C   0  0  2  0  0  0  0  0  0  0  0  0
  -28.1133  -28.6502   20.3357 C   0  0  0  0  0  0  0  0  0  0  0  0
  -28.4144  -15.3434   20.3262 N   0  0  0  0  0  0  0  0  0  0  0  0
  -29.7318  -15.5046   20.1154 N   0  0  0  0  0  0  0  0  0  0  0  0
  -25.3739  -27.3792   22.5876 N   0  0  0  0  0  0  0  0  0  0  0  0
  -28.4265  -18.5979   20.0728 N   0  0  0  0  0  0  0  0  0  0  0  0
  -31.7719  -14.3177   19.9153 N   0  0  0  0  0  0  0  0  0  0  0  0
  -30.1127  -11.3930   21.6727 N   0  0  0  0  0  0  0  0  0  0  0  0
  -26.3324  -19.4849   20.7050 N   0  0  0  0  0  0  0  0  0  0  0  0
  -24.9147  -29.9017   24.7775 N   0  0  0  0  0  0  0  0  0  0  0  0
  -27.3481  -26.2420   20.4731 N   0  0  0  0  0  0  0  0  0  0  0  0
  -20.2614  -21.3754   19.6393 N   0  3  1  0  0  0  0  0  0  0  0  0
  -26.4978  -23.3537   18.4725 N   0  3  0  0  0  0  0  0  0  0  0  0
  -29.7915  -11.1955   19.4107 O   0  0  0  0  0  0  0  0  0  0  0  0
  -23.2549  -29.1452   23.3300 O   0  0  0  0  0  0  0  0  0  0  0  0
  -27.5699  -28.0317   23.0209 O   0  0  0  0  0  0  0  0  0  0  0  0
  -26.3876  -26.1630   18.3640 O   0  0  0  0  0  0  0  0  0  0  0  0
  -26.5036  -17.9776   18.9402 O   0  0  0  0  0  0  0  0  0  0  0  0
  -23.2639  -11.7601   21.4148 O   0  0  0  0  0  0  0  0  0  0  0  0
  -19.9864  -24.8887   20.9065 O   0  0  0  0  0  0  0  0  0  1  0  0
  -22.7149   -6.3210   20.6946 F   0  0  0  0  0  0  0  0  0  0  0  0
  -24.7791   -9.9748   22.8843 F   0  0  0  0  0  0  0  0  0  0  0  0
  1  2  1  0  0  0  0
  1  5  2  0  0  0  0
  2  6  2  0  0  0  0
  3 10  2  0  0  0  0
  3 18  1  0  0  0  0
  4 11  1  0  0  0  0
  4 18  2  0  0  0  0
  5 20  1  0  0  0  0
  6 22  1  0  0  0  0
  7 12  2  0  0  0  0
  7 21  1  0  0  0  0
  8  9  2  0  0  0  0
  8 24  1  0  0  0  0
  9 26  1  0  0  0  0
 10 27  1  0  0  0  0
 11 27  2  0  0  0  0
 12 28  1  0  0  0  0
 13 14  2  0  0  0  0
 13 29  1  0  0  0  0
 14 30  1  0  0  0  0
 15 23  1  0  0  0  0
 15 28  2  0  0  0  0
 16 24  2  0  0  0  0
 16 25  1  0  0  0  0
 17 30  2  0  0  0  0
 17 31  1  0  0  0  0
 18 32  1  0  0  0  0
 19 32  1  0  0  0  0
 19 33  2  0  0  0  0
 19 36  1  0  0  0  0
 20 22  2  0  0  0  0
 20 41  1  0  0  0  0
 21 23  2  0  0  0  0
 21 42  1  0  0  0  0
 22 53  1  0  0  0  0
 23 43  1  0  0  0  0
 24 63  1  0  0  0  0
 25 26  2  0  0  0  0
 25 57  1  0  0  0  0
 26 73  1  0  0  0  0
 27 83  1  0  0  0  0
 28 84  1  0  0  0  0
 29 31  2  0  0  0  0
 29 83  1  0  0  0  0
 30 85  1  0  0  0  0
 31 86  1  0  0  0  0
 32 67  2  0  0  0  0
 33 68  1  0  0  0  0
 33 71  1  0  0  0  0
 34 35  2  0  0  0  0
 34 44  1  0  0  0  0
 34 76  1  0  0  0  0
 36 72  1  0  0  0  0
 36 78  2  0  0  0  0
 37 54  1  0  0  0  0
 37 74  1  0  0  0  0
 37 79  2  0  0  0  0
 38 64  1  0  0  0  0
 38 69  1  0  0  0  0
 38 80  2  0  0  0  0
 39 65  1  0  0  0  0
 39 75  1  0  0  0  0
 39 81  2  0  0  0  0
 40 70  1  0  0  0  0
 40 73  1  0  0  0  0
 40 82  2  0  0  0  0
 41 45  1  0  0  0  0
 42 54  1  0  0  0  0
 43 69  1  0  0  0  0
 44 46  1  0  0  0  0
 45 48  1  0  0  0  0
 46 56  1  0  0  0  0
 47 49  1  0  0  0  0
 47 50  1  0  0  0  0
 48 53  1  0  0  0  0
 49 55  1  0  0  0  0
 50 70  1  0  0  0  0
 51 55  1  0  0  0  0
 51 70  1  0  0  0  0
 52 56  1  0  0  0  0
 52 76  1  0  0  0  0
 53 74  1  0  0  0  0
 54 69  1  0  0  0  0
 55 68  1  0  0  0  0
 56 84  1  0  0  0  0
 58 65  1  0  0  0  0
 59 66  1  0  0  0  0
 60 66  1  0  0  0  0
 61 66  1  0  0  0  0
 62 77  1  0  0  0  0
 63 76  1  0  0  0  0
 64 66  1  0  0  0  0
 64 75  1  0  0  0  0
 65 77  1  0  0  0  0
 67 68  1  0  0  0  0
M  CHG  2  76   1  77   1
M  ISO  4  40 100  56 101  73 100  84 101
M  END
> <Batch ID>
0034

> <Smiles>
C=C1CC[101CH:1]([101O:1]c2ccc3c(c2)CN(C(=O)C(NC(=O)C(C)NC)C(C)(C)C)C(C(=O)NC2CCCc4ccccc42)C3)CN1Cc1ccc([100NH:0][100C:0](=O)N2CCCC(n3nc(-c4ccc(Oc5ccc(F)cc5F)cc4)c(C(N)=O)c3N)C2)c(C)c1

> <Shape>
0.249

> <Color>
0.063

> <Negative vol penalty>
0.000

$$$$

  -OEChem-04042321483D

 88 97  0     1  0  0  0  0  0999 V2000
  -24.2660  -35.3368   21.5225 C   0  0  0  0  0  0  0  0  0  0  0  0
  -25.1068  -34.2287   21.4988 C   0  0  0  0  0  0  0  0  0  0  0  0
  -23.0973  -10.0181   22.5832 C   0  0  0  0  0  0  0  0  0  0  0  0
  -23.5084   -9.8560   20.2080 C   0  0  0  0  0  0  0  0  0  0  0  0
  -23.0132  -35.2471   22.1279 C   0  0  0  0  0  0  0  0  0  0  0  0
  -24.6957  -33.0305   22.0815 C   0  0  0  0  0  0  0  0  0  0  0  0
  -25.6862  -29.0112   19.1644 C   0  0  0  0  0  0  0  0  0  0  0  0
  -22.3971   -8.8124   22.5443 C   0  0  0  0  0  0  0  0  0  0  0  0
  -22.8083   -8.6503   20.1691 C   0  0  0  0  0  0  0  0  0  0  0  0
  -26.9998  -28.5444   19.1482 C   0  0  0  0  0  0  0  0  0  0  0  0
  -20.8105   -5.5957   23.1364 C   0  0  0  0  0  0  0  0  0  0  0  0
  -21.0757   -4.6592   24.1355 C   0  0  0  0  0  0  0  0  0  0  0  0
  -26.3934  -26.8024   20.7029 C   0  0  0  0  0  0  0  0  0  0  0  0
  -28.7798  -20.1831   19.2409 C   0  0  0  0  0  0  0  0  0  0  0  0
  -29.9211  -19.2823   21.6218 C   0  0  0  0  0  0  0  0  0  0  0  0
  -23.3885   -4.5743   23.4421 C   0  0  0  0  0  0  0  0  0  0  0  0
  -23.6529  -10.5400   21.4150 C   0  0  0  0  0  0  0  0  0  0  0  0
  -25.5311  -12.0748   22.2052 C   0  0  0  0  0  0  0  0  0  0  0  0
  -22.5827  -34.0444   22.7098 C   0  0  0  0  0  0  0  0  0  0  0  0
  -24.7171  -28.3828   19.9596 C   0  0  0  0  0  0  0  0  0  0  0  0
  -23.4366  -32.9249   22.6965 C   0  0  0  0  0  0  0  0  0  0  0  0
  -25.0676  -27.2616   20.7253 C   0  0  0  0  0  0  0  0  0  0  0  0
  -29.0195  -21.0795   20.2824 C   0  0  0  0  0  0  0  0  0  0  0  0
  -29.1108  -18.8362   19.3899 C   0  0  0  0  0  0  0  0  0  0  0  0
  -29.5901  -20.6291   21.4728 C   0  0  0  0  0  0  0  0  0  0  0  0
  -22.2526   -8.1284   21.3373 C   0  0  0  0  0  0  0  0  0  0  0  0
  -27.3542  -27.4416   19.9198 C   0  0  0  0  0  0  0  0  0  0  0  0
  -21.8343   -6.0214   22.2900 C   0  0  0  0  0  0  0  0  0  0  0  0
  -22.3647   -4.1485   24.2884 C   0  0  0  0  0  0  0  0  0  0  0  0
  -23.1233   -5.5107   22.4428 C   0  0  0  0  0  0  0  0  0  0  0  0
  -29.6815  -18.3858   20.5804 C   0  0  0  0  0  0  0  0  0  0  0  0
  -24.3758  -11.7858   21.4544 C   0  0  0  0  0  0  0  0  0  0  0  0
  -25.8232  -13.3809   21.8965 C   0  0  0  0  0  0  0  0  0  0  0  0
  -30.6120  -23.4478   19.0124 C   0  0  0  0  0  0  0  0  0  0  0  0
  -31.7686  -22.7680   19.0141 C   0  0  0  0  0  0  0  0  0  0  0  0
  -26.2738  -11.2376   23.1013 C   0  0  0  0  0  0  0  0  0  0  0  0
  -22.8911  -29.2824   22.4009 C   0  0  0  0  0  0  0  0  0  0  0  0
  -21.5796  -26.3431   21.9976 C   0  0  0  0  0  0  0  0  0  0  0  0
  -22.7615  -23.0035   21.3138 C   0  0  0  0  0  0  0  0  0  0  0  0
  -26.3934  -17.4889   18.1622 C   0  0  0  0  0  0  0  0  0  0  0  0
  -21.2392  -34.0092   23.3942 C   0  0  0  0  0  0  0  0  0  0  0  0
  -23.2984  -28.8822   19.9453 C   0  0  0  0  0  0  0  0  0  0  0  0
  -24.0601  -26.5389   21.5804 C   0  0  0  0  0  0  0  0  0  0  0  0
  -30.1210  -24.2281   17.8234 C   0  0  0  0  0  0  0  0  0  0  0  0
  -20.7274  -32.5956   23.6591 C   0  0  0  0  0  0  0  0  0  0  0  0
  -29.7445  -25.6454   18.2380 C   0  0  0  0  0  0  0  0  0  0  0  0
  -23.1197  -16.8610   19.4134 C   0  0  0  0  0  0  0  0  0  0  0  0
  -21.8316  -31.7320   24.2607 C   0  0  0  0  0  0  0  0  0  0  0  0
  -23.2487  -15.5063   20.1120 C   0  0  0  0  0  0  0  0  0  0  0  0
  -23.9800  -16.9305   18.1535 C   0  0  0  0  0  0  0  0  0  0  0  0
  -25.5308  -15.2400   19.0539 C   0  0  0  0  0  0  0  0  0  0  0  0
  -29.4730  -24.8615   20.6205 C   0  0  0  0  0  0  0  0  0  0  0  0
  -23.0164  -31.6005   23.2961 C   0  0  1  0  0  0  0  0  0  0  0  0
  -22.5109  -28.4803   21.1886 C   0  0  1  0  0  0  0  0  0  0  0  0
  -24.7247  -15.1418   20.3603 C   0  0  2  0  0  0  0  0  0  0  0  0
  -28.8414  -25.6430   19.4713 C   0  0  1  0  0  0  0  0  0  1  0  0
  -29.8533  -21.5701   22.6024 C   0  0  0  0  0  0  0  0  0  0  0  0
  -21.6222  -21.0663   20.1973 C   0  0  0  0  0  0  0  0  0  0  0  0
  -20.8257  -25.5231   24.8382 C   0  0  0  0  0  0  0  0  0  0  0  0
  -21.2097  -23.1390   24.1774 C   0  0  0  0  0  0  0  0  0  0  0  0
  -19.4328  -24.4744   23.0453 C   0  0  0  0  0  0  0  0  0  0  0  0
  -24.9417  -22.7129   19.3336 C   0  0  0  0  0  0  0  0  0  0  0  0
  -28.8379  -17.9081   18.2506 C   0  0  0  0  0  0  0  0  0  0  0  0
  -28.6535  -22.5232   20.1012 C   0  0  0  0  0  0  0  0  0  0  0  0
  -21.8615  -24.9630   22.5405 C   0  0  1  0  0  0  0  0  0  0  0  0
  -22.5904  -22.2257   20.0214 C   0  0  2  0  0  0  0  0  0  0  0  0
  -20.8531  -24.5442   23.6474 C   0  0  0  0  0  0  0  0  0  0  0  0
  -23.9622  -12.8247   20.7240 N   0  0  0  0  0  0  0  0  0  0  0  0
  -24.8624  -13.7794   21.0144 N   0  0  0  0  0  0  0  0  0  0  0  0
  -22.6873  -27.0692   21.5377 N   0  0  0  0  0  0  0  0  0  0  0  0
  -25.3682  -16.5753   18.4579 N   0  0  0  0  0  0  0  0  0  0  0  0
  -26.8057  -14.2160   22.2965 N   0  0  0  0  0  0  0  0  0  0  0  0
  -25.8357   -9.9218   23.3040 N   0  0  0  0  0  0  0  0  0  0  0  0
  -22.7145  -30.6448   22.2521 N   0  0  0  0  0  0  0  0  0  0  0  0
  -21.8892  -24.0687   21.3881 N   0  0  0  0  0  0  0  0  0  0  0  0
  -27.6795  -17.0760   18.4883 N   0  0  0  0  0  0  0  0  0  0  0  0
  -29.8313  -23.4496   20.2257 N   0  3  1  0  0  0  0  0  0  0  0  0
  -23.9008  -21.6792   19.5684 N   0  3  0  0  0  0  0  0  0  0  0  0
  -27.2862  -11.6493   23.7170 O   0  0  0  0  0  0  0  0  0  0  0  0
  -23.3120  -28.7077   23.3980 O   0  0  0  0  0  0  0  0  0  0  0  0
  -20.4184  -26.7587   21.9755 O   0  0  0  0  0  0  0  0  0  0  0  0
  -23.5839  -22.6945   22.1733 O   0  0  0  0  0  0  0  0  0  0  0  0
  -26.1780  -18.5929   17.6507 O   0  0  0  0  0  0  0  0  0  0  0  0
  -21.5696   -6.9517   21.2990 O   0  0  0  0  0  0  0  0  0  0  0  0
  -28.6358  -26.9843   19.9064 O   0  0  0  0  0  0  0  0  0  1  0  0
  -22.6196   -3.2504   25.2489 F   0  0  0  0  0  0  0  0  0  0  0  0
  -24.1112   -5.9168   21.6335 F   0  0  0  0  0  0  0  0  0  0  0  0
  -30.1039  -16.7269   20.8011 Cl  0  0  0  0  0  0  0  0  0  0  0  0
  1  2  1  0  0  0  0
  1  5  2  0  0  0  0
  2  6  2  0  0  0  0
  3  8  2  0  0  0  0
  3 17  1  0  0  0  0
  4  9  1  0  0  0  0
  4 17  2  0  0  0  0
  5 19  1  0  0  0  0
  6 21  1  0  0  0  0
  7 10  2  0  0  0  0
  7 20  1  0  0  0  0
  8 26  1  0  0  0  0
  9 26  2  0  0  0  0
 10 27  1  0  0  0  0
 11 12  2  0  0  0  0
 11 28  1  0  0  0  0
 12 29  1  0  0  0  0
 13 22  1  0  0  0  0
 13 27  2  0  0  0  0
 14 23  1  0  0  0  0
 14 24  2  0  0  0  0
 15 25  1  0  0  0  0
 15 31  2  0  0  0  0
 16 29  2  0  0  0  0
 16 30  1  0  0  0  0
 17 32  1  0  0  0  0
 18 32  1  0  0  0  0
 18 33  2  0  0  0  0
 18 36  1  0  0  0  0
 19 21  2  0  0  0  0
 19 41  1  0  0  0  0
 20 22  2  0  0  0  0
 20 42  1  0  0  0  0
 21 53  1  0  0  0  0
 22 43  1  0  0  0  0
 23 25  2  0  0  0  0
 23 64  1  0  0  0  0
 24 31  1  0  0  0  0
 24 63  1  0  0  0  0
 25 57  1  0  0  0  0
 26 84  1  0  0  0  0
 27 85  1  0  0  0  0
 28 30  2  0  0  0  0
 28 84  1  0  0  0  0
 29 86  1  0  0  0  0
 30 87  1  0  0  0  0
 31 88  1  0  0  0  0
 32 68  2  0  0  0  0
 33 69  1  0  0  0  0
 33 72  1  0  0  0  0
 34 35  2  0  0  0  0
 34 44  1  0  0  0  0
 34 77  1  0  0  0  0
 36 73  1  0  0  0  0
 36 79  2  0  0  0  0
 37 54  1  0  0  0  0
 37 74  1  0  0  0  0
 37 80  2  0  0  0  0
 38 65  1  0  0  0  0
 38 70  1  0  0  0  0
 38 81  2  0  0  0  0
 39 66  1  0  0  0  0
 39 75  1  0  0  0  0
 39 82  2  0  0  0  0
 40 71  1  0  0  0  0
 40 76  1  0  0  0  0
 40 83  2  0  0  0  0
 41 45  1  0  0  0  0
 42 54  1  0  0  0  0
 43 70  1  0  0  0  0
 44 46  1  0  0  0  0
 45 48  1  0  0  0  0
 46 56  1  0  0  0  0
 47 49  1  0  0  0  0
 47 50  1  0  0  0  0
 48 53  1  0  0  0  0
 49 55  1  0  0  0  0
 50 71  1  0  0  0  0
 51 55  1  0  0  0  0
 51 71  1  0  0  0  0
 52 56  1  0  0  0  0
 52 77  1  0  0  0  0
 53 74  1  0  0  0  0
 54 70  1  0  0  0  0
 55 69  1  0  0  0  0
 56 85  1  0  0  0  0
 58 66  1  0  0  0  0
 59 67  1  0  0  0  0
 60 67  1  0  0  0  0
 61 67  1  0  0  0  0
 62 78  1  0  0  0  0
 63 76  1  0  0  0  0
 64 77  1  0  0  0  0
 65 67  1  0  0  0  0
 65 75  1  0  0  0  0
 66 78  1  0  0  0  0
 68 69  1  0  0  0  0
M  CHG  2  77   1  78   1
M  ISO  4  40 100  56 101  76 100  85 101
M  END
> <Batch ID>
0034

> <Smiles>
C=C1CC[101CH:1]([101O:1]c2ccc3c(c2)CN(C(=O)C(NC(=O)C(C)NC)C(C)(C)C)C(C(=O)NC2CCCc4ccccc42)C3)CN1Cc1cc(C[100NH:0][100C:0](=O)N2CCCC(n3nc(-c4ccc(Oc5ccc(F)cc5F)cc4)c(C(N)=O)c3N)C2)c(Cl)cc1C

> <Shape>
0.280

> <Color>
0.114

> <Negative vol penalty>
0.000

$$$$

  -OEChem-04042321483D

 85 93  0     1  0  0  0  0  0999 V2000
  -18.1322  -32.8361   24.1905 C   0  0  0  0  0  0  0  0  0  0  0  0
  -19.3785  -33.0783   23.6217 C   0  0  0  0  0  0  0  0  0  0  0  0
  -25.5380  -13.5960   21.4387 C   0  0  0  0  0  0  0  0  0  0  0  0
  -25.2756  -14.0520   19.0807 C   0  0  0  0  0  0  0  0  0  0  0  0
  -17.8447  -31.5825   24.7288 C   0  0  0  0  0  0  0  0  0  0  0  0
  -20.3384  -32.0673   23.5918 C   0  0  0  0  0  0  0  0  0  0  0  0
  -25.7348  -29.6097   19.5725 C   0  0  0  0  0  0  0  0  0  0  0  0
  -24.5406  -12.6239   21.3618 C   0  0  0  0  0  0  0  0  0  0  0  0
  -24.2782  -13.0799   19.0037 C   0  0  0  0  0  0  0  0  0  0  0  0
  -27.0800  -29.2576   19.6742 C   0  0  0  0  0  0  0  0  0  0  0  0
  -24.2591   -9.4212   20.3147 C   0  0  0  0  0  0  0  0  0  0  0  0
  -24.4944   -8.1997   20.9455 C   0  0  0  0  0  0  0  0  0  0  0  0
  -28.2969  -24.1035   17.2215 C   0  0  0  0  0  0  0  0  0  0  0  0
  -26.4438  -27.1072   20.5631 C   0  0  0  0  0  0  0  0  0  0  0  0
  -29.7412  -22.3685   15.5824 C   0  0  0  0  0  0  0  0  0  0  0  0
  -22.5520   -8.5456   22.3400 C   0  0  0  0  0  0  0  0  0  0  0  0
  -25.9055  -14.3100   20.2982 C   0  0  0  0  0  0  0  0  0  0  0  0
  -29.5567  -24.4746   16.7518 C   0  0  0  0  0  0  0  0  0  0  0  0
  -28.3182  -15.1312   20.1875 C   0  0  0  0  0  0  0  0  0  0  0  0
  -18.7981  -30.5527   24.6968 C   0  0  0  0  0  0  0  0  0  0  0  0
  -24.7327  -28.7157   19.9762 C   0  0  0  0  0  0  0  0  0  0  0  0
  -20.0638  -30.7992   24.1314 C   0  0  0  0  0  0  0  0  0  0  0  0
  -25.0866  -27.4493   20.4631 C   0  0  0  0  0  0  0  0  0  0  0  0
  -27.7592  -22.8648   16.8717 C   0  0  0  0  0  0  0  0  0  0  0  0
  -30.2789  -23.6072   15.9322 C   0  0  0  0  0  0  0  0  0  0  0  0
  -28.4814  -21.9973   16.0522 C   0  0  0  0  0  0  0  0  0  0  0  0
  -23.9107  -12.3659   20.1443 C   0  0  0  0  0  0  0  0  0  0  0  0
  -27.4348  -28.0074   20.1722 C   0  0  0  0  0  0  0  0  0  0  0  0
  -23.1703  -10.2051   20.6966 C   0  0  0  0  0  0  0  0  0  0  0  0
  -23.6409   -7.7618   21.9582 C   0  0  0  0  0  0  0  0  0  0  0  0
  -22.3168   -9.7673   21.7092 C   0  0  0  0  0  0  0  0  0  0  0  0
  -26.9353  -15.3147   20.3771 C   0  0  0  0  0  0  0  0  0  0  0  0
  -28.8583  -16.3811   20.3682 C   0  0  0  0  0  0  0  0  0  0  0  0
  -30.1054  -25.7996   17.1397 C   0  0  0  0  0  0  0  0  0  0  0  0
  -29.0491  -13.9378   19.8758 C   0  0  0  0  0  0  0  0  0  0  0  0
  -22.4509  -28.7544   22.1888 C   0  0  0  0  0  0  0  0  0  0  0  0
  -21.5734  -25.9700   20.7747 C   0  0  0  0  0  0  0  0  0  0  0  0
  -22.2775  -22.7917   19.2191 C   0  0  0  0  0  0  0  0  0  0  0  0
  -26.6301  -21.9084   19.7895 C   0  0  0  0  0  0  0  0  0  0  0  0
  -18.4580  -29.2285   25.3337 C   0  0  0  0  0  0  0  0  0  0  0  0
  -23.2854  -29.1004   19.8351 C   0  0  0  0  0  0  0  0  0  0  0  0
  -24.0484  -26.4456   20.8910 C   0  0  0  0  0  0  0  0  0  0  0  0
  -19.3984  -28.0972   24.9260 C   0  0  0  0  0  0  0  0  0  0  0  0
  -28.0984  -20.4865   22.7048 C   0  0  0  0  0  0  0  0  0  0  0  0
  -20.8515  -28.5529   25.0143 C   0  0  0  0  0  0  0  0  0  0  0  0
  -28.0916  -18.9832   22.4217 C   0  0  0  0  0  0  0  0  0  0  0  0
  -26.8544  -21.1720   22.1440 C   0  0  0  0  0  0  0  0  0  0  0  0
  -26.5964  -19.4211   20.4288 C   0  0  0  0  0  0  0  0  0  0  0  0
  -21.1226  -29.7204   24.0578 C   0  0  1  0  0  0  0  0  0  0  0  0
  -22.3639  -28.3076   20.7569 C   0  0  1  0  0  0  0  0  0  0  0  0
  -27.8581  -18.6952   20.9264 C   0  0  2  0  0  0  0  0  0  0  0  0
  -31.6305  -23.9795   15.4160 C   0  0  0  0  0  0  0  0  0  0  0  0
  -27.9260  -20.6663   15.6643 C   0  0  0  0  0  0  0  0  0  0  0  0
  -21.3683  -20.7635   18.0541 C   0  0  0  0  0  0  0  0  0  0  0  0
  -21.6934  -24.6755   23.5351 C   0  0  0  0  0  0  0  0  0  0  0  0
  -21.7063  -22.4393   22.4091 C   0  0  0  0  0  0  0  0  0  0  0  0
  -19.7500  -23.9621   22.1319 C   0  0  0  0  0  0  0  0  0  0  0  0
  -22.9531  -23.8786   16.5506 C   0  0  0  0  0  0  0  0  0  0  0  0
  -26.4087  -22.4888   17.3867 C   0  0  0  0  0  0  0  0  0  0  0  0
  -30.7680  -27.2573   19.0350 C   0  0  0  0  0  0  0  0  0  0  0  0
  -29.6452  -28.2372   19.3254 C   0  0  0  0  0  0  0  0  0  1  0  0
  -21.9257  -24.5149   20.9687 C   0  0  1  0  0  0  0  0  0  0  0  0
  -21.6652  -22.2506   17.9397 C   0  0  2  0  0  0  0  0  0  0  0  0
  -21.2887  -23.9174   22.2550 C   0  0  0  0  0  0  0  0  0  0  0  0
  -26.6168  -16.5812   20.6570 N   0  0  0  0  0  0  0  0  0  0  0  0
  -27.8071  -17.2050   20.6447 N   0  0  0  0  0  0  0  0  0  0  0  0
  -22.6470  -26.8710   20.7398 N   0  0  0  0  0  0  0  0  0  0  0  0
  -26.6914  -20.8598   20.7221 N   0  0  0  0  0  0  0  0  0  0  0  0
  -30.1251  -16.8447   20.3161 N   0  0  0  0  0  0  0  0  0  0  0  0
  -28.3383  -12.7395   19.7240 N   0  0  0  0  0  0  0  0  0  0  0  0
  -30.2707  -26.0168   18.5019 N   0  0  0  0  0  0  0  0  0  0  0  0
  -21.2623  -29.2395   22.7000 N   0  0  0  0  0  0  0  0  0  0  0  0
  -21.5384  -23.8336   19.7382 N   0  0  0  0  0  0  0  0  0  0  0  0
  -26.4811  -21.5251   18.4622 N   0  0  0  0  0  0  0  0  0  0  0  0
  -22.5943  -22.4575   16.7930 N   0  3  0  0  0  0  0  0  0  0  0  0
  -30.3597  -26.6232   16.2648 O   0  0  0  0  0  0  0  0  0  0  0  0
  -30.2974  -13.9311   19.7523 O   0  0  0  0  0  0  0  0  0  0  0  0
  -23.5171  -28.6642   22.7861 O   0  0  0  0  0  0  0  0  0  0  0  0
  -20.3896  -26.2944   20.6513 O   0  0  0  0  0  0  0  0  0  0  0  0
  -23.3063  -22.3333   19.7110 O   0  0  0  0  0  0  0  0  0  0  0  0
  -26.7082  -23.0979   20.1150 O   0  0  0  0  0  0  0  0  0  0  0  0
  -22.9376  -11.4173   20.0688 O   0  0  0  0  0  0  0  0  0  0  0  0
  -28.7471  -27.6615   20.2732 O   0  0  0  0  0  0  0  0  0  1  0  0
  -23.8661   -6.5880   22.5628 F   0  0  0  0  0  0  0  0  0  0  0  0
  -21.2684  -10.5154   22.0796 F   0  0  0  0  0  0  0  0  0  0  0  0
  1  2  1  0  0  0  0
  1  5  2  0  0  0  0
  2  6  2  0  0  0  0
  3  8  2  0  0  0  0
  3 17  1  0  0  0  0
  4  9  1  0  0  0  0
  4 17  2  0  0  0  0
  5 20  1  0  0  0  0
  6 22  1  0  0  0  0
  7 10  2  0  0  0  0
  7 21  1  0  0  0  0
  8 27  1  0  0  0  0
  9 27  2  0  0  0  0
 10 28  1  0  0  0  0
 11 12  2  0  0  0  0
 11 29  1  0  0  0  0
 12 30  1  0  0  0  0
 13 18  1  0  0  0  0
 13 24  2  0  0  0  0
 14 23  1  0  0  0  0
 14 28  2  0  0  0  0
 15 25  1  0  0  0  0
 15 26  2  0  0  0  0
 16 30  2  0  0  0  0
 16 31  1  0  0  0  0
 17 32  1  0  0  0  0
 18 25  2  0  0  0  0
 18 34  1  0  0  0  0
 19 32  1  0  0  0  0
 19 33  2  0  0  0  0
 19 35  1  0  0  0  0
 20 22  2  0  0  0  0
 20 40  1  0  0  0  0
 21 23  2  0  0  0  0
 21 41  1  0  0  0  0
 22 49  1  0  0  0  0
 23 42  1  0  0  0  0
 24 26  1  0  0  0  0
 24 59  1  0  0  0  0
 25 52  1  0  0  0  0
 26 53  1  0  0  0  0
 27 82  1  0  0  0  0
 28 83  1  0  0  0  0
 29 31  2  0  0  0  0
 29 82  1  0  0  0  0
 30 84  1  0  0  0  0
 31 85  1  0  0  0  0
 32 65  2  0  0  0  0
 33 66  1  0  0  0  0
 33 69  1  0  0  0  0
 34 71  1  0  0  0  0
 34 76  2  0  0  0  0
 35 70  1  0  0  0  0
 35 77  2  0  0  0  0
 36 50  1  0  0  0  0
 36 72  1  0  0  0  0
 36 78  2  0  0  0  0
 37 62  1  0  0  0  0
 37 67  1  0  0  0  0
 37 79  2  0  0  0  0
 38 63  1  0  0  0  0
 38 73  1  0  0  0  0
 38 80  2  0  0  0  0
 39 68  1  0  0  0  0
 39 74  1  0  0  0  0
 39 81  2  0  0  0  0
 40 43  1  0  0  0  0
 41 50  1  0  0  0  0
 42 67  1  0  0  0  0
 43 45  1  0  0  0  0
 44 46  1  0  0  0  0
 44 47  1  0  0  0  0
 45 49  1  0  0  0  0
 46 51  1  0  0  0  0
 47 68  1  0  0  0  0
 48 51  1  0  0  0  0
 48 68  1  0  0  0  0
 49 72  1  0  0  0  0
 50 67  1  0  0  0  0
 51 66  1  0  0  0  0
 54 63  1  0  0  0  0
 55 64  1  0  0  0  0
 56 64  1  0  0  0  0
 57 64  1  0  0  0  0
 58 75  1  0  0  0  0
 59 74  1  0  0  0  0
 60 61  1  0  0  0  0
 60 71  1  0  0  0  0
 61 83  1  0  0  0  0
 62 64  1  0  0  0  0
 62 73  1  0  0  0  0
 63 75  1  0  0  0  0
 65 66  1  0  0  0  0
M  CHG  1  75   1
M  ISO  4  39 100  61 101  74 100  83 101
M  END
> <Batch ID>
0034

> <Smiles>
CNC(C)C(=O)NC(C(=O)N1Cc2cc([101O:1][101CH2:1]CNC(=O)c3cc(C[100NH:0][100C:0](=O)N4CCCC(n5nc(-c6ccc(Oc7ccc(F)cc7F)cc6)c(C(N)=O)c5N)C4)c(C)cc3C)ccc2CC1C(=O)NC1CCCc2ccccc21)C(C)(C)C

> <Shape>
0.235

> <Color>
0.094

> <Negative vol penalty>
0.000

$$$$

  -OEChem-04042321483D

 87 96  0     1  0  0  0  0  0999 V2000
  -19.0545  -26.8997   17.5259 C   0  0  0  0  0  0  0  0  0  0  0  0
  -19.6132  -25.8493   18.2471 C   0  0  0  0  0  0  0  0  0  0  0  0
  -23.0667   -9.8712   19.8974 C   0  0  0  0  0  0  0  0  0  0  0  0
  -23.8798   -9.7771   22.1706 C   0  0  0  0  0  0  0  0  0  0  0  0
  -19.8095  -28.0417   17.2619 C   0  0  0  0  0  0  0  0  0  0  0  0
  -20.9275  -25.9400   18.7038 C   0  0  0  0  0  0  0  0  0  0  0  0
  -25.0978  -23.8878   24.1548 C   0  0  0  0  0  0  0  0  0  0  0  0
  -22.3325   -8.7047   20.1117 C   0  0  0  0  0  0  0  0  0  0  0  0
  -23.1455   -8.6107   22.3849 C   0  0  0  0  0  0  0  0  0  0  0  0
  -26.3078  -23.2404   24.4008 C   0  0  0  0  0  0  0  0  0  0  0  0
  -19.9348   -7.7728   23.0249 C   0  0  0  0  0  0  0  0  0  0  0  0
  -19.2054   -7.6765   24.2099 C   0  0  0  0  0  0  0  0  0  0  0  0
  -27.4909  -25.2945   23.9534 C   0  0  0  0  0  0  0  0  0  0  0  0
  -31.4421  -19.1027   21.6407 C   0  0  0  0  0  0  0  0  0  0  0  0
  -20.4697   -5.7128   24.8285 C   0  0  0  0  0  0  0  0  0  0  0  0
  -23.8404  -10.4074   20.9268 C   0  0  0  0  0  0  0  0  0  0  0  0
  -24.1714  -12.9368   20.9140 C   0  0  0  0  0  0  0  0  0  0  0  0
  -21.1306  -28.1505   17.7239 C   0  0  0  0  0  0  0  0  0  0  0  0
  -25.0759  -25.2429   23.7950 C   0  0  0  0  0  0  0  0  0  0  0  0
  -21.7013  -27.0840   18.4446 C   0  0  0  0  0  0  0  0  0  0  0  0
  -26.2791  -25.9574   23.7058 C   0  0  0  0  0  0  0  0  0  0  0  0
  -31.5983  -19.2847   23.0147 C   0  0  0  0  0  0  0  0  0  0  0  0
  -30.9419  -17.8969   21.1492 C   0  0  0  0  0  0  0  0  0  0  0  0
  -31.2544  -18.2608   23.8974 C   0  0  0  0  0  0  0  0  0  0  0  0
  -30.7542  -17.0549   23.4059 C   0  0  0  0  0  0  0  0  0  0  0  0
  -30.5980  -16.8730   22.0318 C   0  0  0  0  0  0  0  0  0  0  0  0
  -22.3719   -8.0745   21.3555 C   0  0  0  0  0  0  0  0  0  0  0  0
  -27.5048  -23.9430   24.2973 C   0  0  0  0  0  0  0  0  0  0  0  0
  -20.9316   -6.8390   22.7416 C   0  0  0  0  0  0  0  0  0  0  0  0
  -19.4728   -6.6465   25.1118 C   0  0  0  0  0  0  0  0  0  0  0  0
  -21.1990   -5.8091   23.6434 C   0  0  0  0  0  0  0  0  0  0  0  0
  -24.5995  -11.6119   20.7059 C   0  0  0  0  0  0  0  0  0  0  0  0
  -25.2524  -13.7066   20.5601 C   0  0  0  0  0  0  0  0  0  0  0  0
  -31.6019  -22.7324   24.5673 C   0  0  0  0  0  0  0  0  0  0  0  0
  -32.4440  -22.8023   25.6051 C   0  0  0  0  0  0  0  0  0  0  0  0
  -22.9094  -13.4277   21.3852 C   0  0  0  0  0  0  0  0  0  0  0  0
  -24.1036  -26.8710   21.2440 C   0  0  0  0  0  0  0  0  0  0  0  0
  -24.8165  -29.4381   23.0944 C   0  0  0  0  0  0  0  0  0  0  0  0
  -26.5978  -30.7207   25.7076 C   0  0  0  0  0  0  0  0  0  0  0  0
  -30.7179  -14.7661   20.6559 C   0  0  0  0  0  0  0  0  0  0  0  0
  -21.9230  -29.3849   17.3732 C   0  0  0  0  0  0  0  0  0  0  0  0
  -23.7606  -25.9335   23.5590 C   0  0  0  0  0  0  0  0  0  0  0  0
  -26.3085  -27.4188   23.3427 C   0  0  0  0  0  0  0  0  0  0  0  0
  -30.9503  -23.9017   23.8974 C   0  0  0  0  0  0  0  0  0  0  0  0
  -23.1849  -29.5581   18.2146 C   0  0  0  0  0  0  0  0  0  0  0  0
  -29.5563  -12.4577   18.2066 C   0  0  0  0  0  0  0  0  0  0  0  0
  -23.9549  -28.2441   18.2987 C   0  0  0  0  0  0  0  0  0  0  0  0
  -28.1280  -12.1409   18.6556 C   0  0  0  0  0  0  0  0  0  0  0  0
  -30.4984  -12.6356   19.3960 C   0  0  0  0  0  0  0  0  0  0  0  0
  -28.6218  -13.2885   20.8525 C   0  0  0  0  0  0  0  0  0  0  0  0
  -29.9741  -21.8329   23.1439 C   0  0  0  0  0  0  0  0  0  0  0  0
  -23.1157  -27.1553   18.9781 C   0  0  1  0  0  0  0  0  0  0  0  0
  -23.8895  -27.1859   22.6975 C   0  0  1  0  0  0  0  0  0  0  0  0
  -27.6224  -13.1648   19.6907 C   0  0  2  0  0  0  0  0  0  0  0  0
  -29.6303  -23.2793   23.4701 C   0  0  1  0  0  0  0  0  0  1  0  0
  -30.7848  -17.7326   19.6720 C   0  0  0  0  0  0  0  0  0  0  0  0
  -31.4232  -18.4592   25.3705 C   0  0  0  0  0  0  0  0  0  0  0  0
  -30.3868  -15.9592   24.3575 C   0  0  0  0  0  0  0  0  0  0  0  0
  -26.9984  -32.8597   26.9573 C   0  0  0  0  0  0  0  0  0  0  0  0
  -26.5633  -30.4460   20.8046 C   0  0  0  0  0  0  0  0  0  0  0  0
  -27.6487  -32.0221   22.4189 C   0  0  0  0  0  0  0  0  0  0  0  0
  -25.2082  -32.2151   21.9398 C   0  0  0  0  0  0  0  0  0  0  0  0
  -25.5941  -29.5645   28.2403 C   0  0  0  0  0  0  0  0  0  0  0  0
  -32.1369  -20.5917   23.5171 C   0  0  0  0  0  0  0  0  0  0  0  0
  -26.0491  -30.2775   23.3292 C   0  0  1  0  0  0  0  0  0  0  0  0
  -26.1790  -31.5804   26.8866 C   0  0  2  0  0  0  0  0  0  0  0  0
  -26.3672  -31.2122   22.1281 C   0  0  0  0  0  0  0  0  0  0  0  0
  -25.8546  -11.5405   20.2546 N   0  0  0  0  0  0  0  0  0  0  0  0
  -26.2244  -12.8302   20.1761 N   0  0  0  0  0  0  0  0  0  0  0  0
  -24.9970  -28.0479   23.1153 N   0  0  0  0  0  0  0  0  0  0  0  0
  -29.9567  -13.6231   20.3320 N   0  0  0  0  0  0  0  0  0  0  0  0
  -25.4569  -15.0408   20.5429 N   0  0  0  0  0  0  0  0  0  0  0  0
  -21.9085  -12.4999   21.7040 N   0  0  0  0  0  0  0  0  0  0  0  0
  -30.0868  -15.6503   21.5303 N   0  0  0  0  0  0  0  0  0  0  0  0
  -23.1069  -27.3455   20.4128 N   0  0  0  0  0  0  0  0  0  0  0  0
  -25.8318  -30.9780   24.5903 N   0  0  0  0  0  0  0  0  0  0  0  0
  -31.0828  -21.4660   24.1270 N   0  3  1  0  0  0  0  0  0  0  0  0
  -26.3623  -30.8337   28.1632 N   0  3  0  0  0  0  0  0  0  0  0  0
  -22.6707  -14.6534   21.5039 O   0  0  0  0  0  0  0  0  0  0  0  0
  -25.1001  -26.2452   20.9018 O   0  0  0  0  0  0  0  0  0  0  0  0
  -23.7322  -29.9954   22.9067 O   0  0  0  0  0  0  0  0  0  0  0  0
  -27.5152  -29.9053   25.7704 O   0  0  0  0  0  0  0  0  0  0  0  0
  -31.8353  -14.9607   20.1705 O   0  0  0  0  0  0  0  0  0  0  0  0
  -21.6554   -6.9364   21.5650 O   0  0  0  0  0  0  0  0  0  0  0  0
  -28.6873  -23.3133   24.5362 O   0  0  0  0  0  0  0  0  0  1  0  0
  -18.7734   -6.5551   26.2504 F   0  0  0  0  0  0  0  0  0  0  0  0
  -22.1563   -4.9098   23.3773 F   0  0  0  0  0  0  0  0  0  0  0  0
  1  2  1  0  0  0  0
  1  5  2  0  0  0  0
  2  6  2  0  0  0  0
  3  8  2  0  0  0  0
  3 16  1  0  0  0  0
  4  9  1  0  0  0  0
  4 16  2  0  0  0  0
  5 18  1  0  0  0  0
  6 20  1  0  0  0  0
  7 10  2  0  0  0  0
  7 19  1  0  0  0  0
  8 27  1  0  0  0  0
  9 27  2  0  0  0  0
 10 28  1  0  0  0  0
 11 12  2  0  0  0  0
 11 29  1  0  0  0  0
 12 30  1  0  0  0  0
 13 21  1  0  0  0  0
 13 28  2  0  0  0  0
 14 22  1  0  0  0  0
 14 23  2  0  0  0  0
 15 30  2  0  0  0  0
 15 31  1  0  0  0  0
 16 32  1  0  0  0  0
 17 32  1  0  0  0  0
 17 33  2  0  0  0  0
 17 36  1  0  0  0  0
 18 20  2  0  0  0  0
 18 41  1  0  0  0  0
 19 21  2  0  0  0  0
 19 42  1  0  0  0  0
 20 52  1  0  0  0  0
 21 43  1  0  0  0  0
 22 24  2  0  0  0  0
 22 64  1  0  0  0  0
 23 26  1  0  0  0  0
 23 56  1  0  0  0  0
 24 25  1  0  0  0  0
 24 57  1  0  0  0  0
 25 26  2  0  0  0  0
 25 58  1  0  0  0  0
 26 74  1  0  0  0  0
 27 84  1  0  0  0  0
 28 85  1  0  0  0  0
 29 31  2  0  0  0  0
 29 84  1  0  0  0  0
 30 86  1  0  0  0  0
 31 87  1  0  0  0  0
 32 68  2  0  0  0  0
 33 69  1  0  0  0  0
 33 72  1  0  0  0  0
 34 35  2  0  0  0  0
 34 44  1  0  0  0  0
 34 77  1  0  0  0  0
 36 73  1  0  0  0  0
 36 79  2  0  0  0  0
 37 53  1  0  0  0  0
 37 75  1  0  0  0  0
 37 80  2  0  0  0  0
 38 65  1  0  0  0  0
 38 70  1  0  0  0  0
 38 81  2  0  0  0  0
 39 66  1  0  0  0  0
 39 76  1  0  0  0  0
 39 82  2  0  0  0  0
 40 71  1  0  0  0  0
 40 74  1  0  0  0  0
 40 83  2  0  0  0  0
 41 45  1  0  0  0  0
 42 53  1  0  0  0  0
 43 70  1  0  0  0  0
 44 55  1  0  0  0  0
 45 47  1  0  0  0  0
 46 48  1  0  0  0  0
 46 49  1  0  0  0  0
 47 52  1  0  0  0  0
 48 54  1  0  0  0  0
 49 71  1  0  0  0  0
 50 54  1  0  0  0  0
 50 71  1  0  0  0  0
 51 55  1  0  0  0  0
 51 77  1  0  0  0  0
 52 75  1  0  0  0  0
 53 70  1  0  0  0  0
 54 69  1  0  0  0  0
 55 85  1  0  0  0  0
 59 66  1  0  0  0  0
 60 67  1  0  0  0  0
 61 67  1  0  0  0  0
 62 67  1  0  0  0  0
 63 78  1  0  0  0  0
 64 77  1  0  0  0  0
 65 67  1  0  0  0  0
 65 76  1  0  0  0  0
 66 78  1  0  0  0  0
 68 69  1  0  0  0  0
M  CHG  2  77   1  78   1
M  ISO  4  40 100  55 101  74 100  85 101
M  END
> <Batch ID>
0034

> <Smiles>
C=C1C[101CH:1]([101O:1]c2ccc3c(c2)CN(C(=O)C(NC(=O)C(C)NC)C(C)(C)C)C(C(=O)NC2CCCc4ccccc42)C3)CN1Cc1cc(C)c([100NH:0][100C:0](=O)N2CCCC(n3nc(-c4ccc(Oc5ccc(F)cc5F)cc4)c(C(N)=O)c3N)C2)c(C)c1C

> <Shape>
0.268

> <Color>
0.190

> <Negative vol penalty>
0.000

$$$$

  -OEChem-04042321483D

 84 92  0     1  0  0  0  0  0999 V2000
  -20.1582  -22.2724   12.2843 C   0  0  0  0  0  0  0  0  0  0  0  0
  -20.4388  -21.0913   12.9636 C   0  0  0  0  0  0  0  0  0  0  0  0
  -28.5740  -26.3354   17.7052 C   0  0  0  0  0  0  0  0  0  0  0  0
  -28.5814  -26.0676   20.1063 C   0  0  0  0  0  0  0  0  0  0  0  0
  -20.7535  -23.4664   12.6891 C   0  0  0  0  0  0  0  0  0  0  0  0
  -21.3158  -21.1033   14.0477 C   0  0  0  0  0  0  0  0  0  0  0  0
  -20.9836  -17.6441   19.0904 C   0  0  0  0  0  0  0  0  0  0  0  0
  -29.9170  -12.9845   18.9861 C   0  0  0  0  0  0  0  0  0  0  0  0
  -29.2573  -11.7979   18.6663 C   0  0  0  0  0  0  0  0  0  0  0  0
  -27.9133  -27.5561   17.8434 C   0  0  0  0  0  0  0  0  0  0  0  0
  -27.9207  -27.2882   20.2445 C   0  0  0  0  0  0  0  0  0  0  0  0
  -21.6297  -16.4666   19.4644 C   0  0  0  0  0  0  0  0  0  0  0  0
  -24.7652  -28.4621   19.9353 C   0  0  0  0  0  0  0  0  0  0  0  0
  -23.6907  -28.5206   20.8227 C   0  0  0  0  0  0  0  0  0  0  0  0
  -28.0217  -13.6809   20.3126 C   0  0  0  0  0  0  0  0  0  0  0  0
  -23.2669  -17.7576   20.6778 C   0  0  0  0  0  0  0  0  0  0  0  0
  -24.8385  -30.2195   22.1007 C   0  0  0  0  0  0  0  0  0  0  0  0
  -28.9080  -25.5911   18.8366 C   0  0  0  0  0  0  0  0  0  0  0  0
  -27.3619  -12.4943   19.9929 C   0  0  0  0  0  0  0  0  0  0  0  0
  -30.9809  -24.1140   18.6663 C   0  0  0  0  0  0  0  0  0  0  0  0
  -21.6308  -23.4948   13.7846 C   0  0  0  0  0  0  0  0  0  0  0  0
  -21.4814  -18.8898   19.4989 C   0  0  0  0  0  0  0  0  0  0  0  0
  -21.9245  -22.2986   14.4667 C   0  0  0  0  0  0  0  0  0  0  0  0
  -22.6238  -18.9492   20.3098 C   0  0  0  0  0  0  0  0  0  0  0  0
  -29.2993  -13.9260   19.8092 C   0  0  0  0  0  0  0  0  0  0  0  0
  -27.9797  -11.5528   19.1697 C   0  0  0  0  0  0  0  0  0  0  0  0
  -27.5867  -28.0325   19.1130 C   0  0  0  0  0  0  0  0  0  0  0  0
  -22.7732  -16.5234   20.2558 C   0  0  0  0  0  0  0  0  0  0  0  0
  -25.8765  -29.2823   20.1306 C   0  0  0  0  0  0  0  0  0  0  0  0
  -23.7273  -29.3993   21.9054 C   0  0  0  0  0  0  0  0  0  0  0  0
  -25.9131  -30.1610   21.2133 C   0  0  0  0  0  0  0  0  0  0  0  0
  -29.5900  -24.3299   18.6945 C   0  0  0  0  0  0  0  0  0  0  0  0
  -31.1144  -22.7554   18.5152 C   0  0  0  0  0  0  0  0  0  0  0  0
  -26.0095  -12.2551   20.5353 C   0  0  0  0  0  0  0  0  0  0  0  0
  -32.0559  -25.0571   18.7678 C   0  0  0  0  0  0  0  0  0  0  0  0
  -22.6051  -21.4575   17.9997 C   0  0  0  0  0  0  0  0  0  0  0  0
  -22.6289  -22.7128   20.9907 C   0  0  0  0  0  0  0  0  0  0  0  0
  -22.7409  -22.1728   24.3586 C   0  0  0  0  0  0  0  0  0  0  0  0
  -29.7427  -17.6531   19.9408 C   0  0  0  0  0  0  0  0  0  0  0  0
  -22.2868  -24.8012   14.1557 C   0  0  0  0  0  0  0  0  0  0  0  0
  -20.7575  -20.1494   19.1092 C   0  0  0  0  0  0  0  0  0  0  0  0
  -23.1869  -20.2604   20.7916 C   0  0  0  0  0  0  0  0  0  0  0  0
  -22.9139  -24.7941   15.5475 C   0  0  0  0  0  0  0  0  0  0  0  0
  -27.6798  -19.2102   17.4076 C   0  0  0  0  0  0  0  0  0  0  0  0
  -23.7345  -23.5254   15.7569 C   0  0  0  0  0  0  0  0  0  0  0  0
  -28.1141  -20.6729   17.5184 C   0  0  0  0  0  0  0  0  0  0  0  0
  -27.6328  -18.5421   18.7786 C   0  0  0  0  0  0  0  0  0  0  0  0
  -29.3431  -20.0828   19.6588 C   0  0  0  0  0  0  0  0  0  0  0  0
  -22.8513  -22.2754   15.6628 C   0  0  1  0  0  0  0  0  0  0  0  0
  -21.6468  -21.3881   19.1549 C   0  0  1  0  0  0  0  0  0  0  0  0
  -29.4321  -20.8080   18.3038 C   0  0  2  0  0  0  0  0  0  0  0  0
  -27.2934  -10.2751   18.8125 C   0  0  0  0  0  0  0  0  0  0  0  0
  -22.7844  -23.3958   26.5494 C   0  0  0  0  0  0  0  0  0  0  0  0
  -25.5630  -23.4163   20.5370 C   0  0  0  0  0  0  0  0  0  0  0  0
  -25.7948  -23.7425   23.0084 C   0  0  0  0  0  0  0  0  0  0  0  0
  -24.2343  -25.1855   21.7027 C   0  0  0  0  0  0  0  0  0  0  0  0
  -20.2043  -20.9265   25.2371 C   0  0  0  0  0  0  0  0  0  0  0  0
  -30.0048  -15.1946   20.1509 C   0  0  0  0  0  0  0  0  0  0  0  0
  -23.6584  -12.9909   20.7013 C   0  0  0  0  0  0  0  0  0  0  0  0
  -22.8442  -14.1482   20.1594 C   0  0  0  0  0  0  0  0  0  1  0  0
  -23.6296  -22.7663   22.1198 C   0  0  1  0  0  0  0  0  0  0  0  0
  -21.9083  -22.7342   25.4970 C   0  0  2  0  0  0  0  0  0  0  0  0
  -24.7962  -23.7529   21.8314 C   0  0  0  0  0  0  0  0  0  0  0  0
  -28.8901  -23.1990   18.5710 N   0  0  0  0  0  0  0  0  0  0  0  0
  -29.8449  -22.2595   18.4637 N   0  0  0  0  0  0  0  0  0  0  0  0
  -22.4471  -21.4645   20.3788 N   0  0  0  0  0  0  0  0  0  0  0  0
  -28.9235  -18.6907   19.4658 N   0  0  0  0  0  0  0  0  0  0  0  0
  -32.1927  -21.9485   18.4225 N   0  0  0  0  0  0  0  0  0  0  0  0
  -25.8235  -11.1866   21.3103 N   0  0  0  0  0  0  0  0  0  0  0  0
  -31.7418  -26.4146   18.9194 N   0  0  0  0  0  0  0  0  0  0  0  0
  -22.0969  -22.0964   16.8848 N   0  0  0  0  0  0  0  0  0  0  0  0
  -22.8687  -23.0767   23.3252 N   0  0  0  0  0  0  0  0  0  0  0  0
  -29.2699  -16.3646   19.7243 N   0  0  0  0  0  0  0  0  0  0  0  0
  -25.0367  -13.1193   20.2219 N   0  3  0  0  0  0  0  0  0  0  0  0
  -21.1264  -21.6476   26.1519 N   0  3  0  0  0  0  0  0  0  0  0  0
  -33.2594  -24.7084   18.7087 O   0  0  0  0  0  0  0  0  0  0  0  0
  -23.7233  -20.9691   18.1121 O   0  0  0  0  0  0  0  0  0  0  0  0
  -22.0253  -23.7392   20.6684 O   0  0  0  0  0  0  0  0  0  0  0  0
  -23.2321  -21.0465   24.3851 O   0  0  0  0  0  0  0  0  0  0  0  0
  -30.8193  -17.8595   20.5113 O   0  0  0  0  0  0  0  0  0  0  0  0
  -26.9422  -29.2237   19.2483 O   0  0  0  0  0  0  0  0  0  0  0  0
  -23.4062  -15.3756   20.6217 O   0  0  0  0  0  0  0  0  0  1  0  0
  -22.6947  -29.4564   22.7566 F   0  0  0  0  0  0  0  0  0  0  0  0
  -26.9774  -30.9523   21.4054 F   0  0  0  0  0  0  0  0  0  0  0  0
  1  2  1  0  0  0  0
  1  5  2  0  0  0  0
  2  6  2  0  0  0  0
  3 10  2  0  0  0  0
  3 18  1  0  0  0  0
  4 11  1  0  0  0  0
  4 18  2  0  0  0  0
  5 21  1  0  0  0  0
  6 23  1  0  0  0  0
  7 12  2  0  0  0  0
  7 22  1  0  0  0  0
  8  9  2  0  0  0  0
  8 25  1  0  0  0  0
  9 26  1  0  0  0  0
 10 27  1  0  0  0  0
 11 27  2  0  0  0  0
 12 28  1  0  0  0  0
 13 14  2  0  0  0  0
 13 29  1  0  0  0  0
 14 30  1  0  0  0  0
 15 19  1  0  0  0  0
 15 25  2  0  0  0  0
 16 24  1  0  0  0  0
 16 28  2  0  0  0  0
 17 30  2  0  0  0  0
 17 31  1  0  0  0  0
 18 32  1  0  0  0  0
 19 26  2  0  0  0  0
 19 34  1  0  0  0  0
 20 32  1  0  0  0  0
 20 33  2  0  0  0  0
 20 35  1  0  0  0  0
 21 23  2  0  0  0  0
 21 40  1  0  0  0  0
 22 24  2  0  0  0  0
 22 41  1  0  0  0  0
 23 49  1  0  0  0  0
 24 42  1  0  0  0  0
 25 58  1  0  0  0  0
 26 52  1  0  0  0  0
 27 81  1  0  0  0  0
 28 82  1  0  0  0  0
 29 31  2  0  0  0  0
 29 81  1  0  0  0  0
 30 83  1  0  0  0  0
 31 84  1  0  0  0  0
 32 64  2  0  0  0  0
 33 65  1  0  0  0  0
 33 68  1  0  0  0  0
 34 69  1  0  0  0  0
 34 74  2  0  0  0  0
 35 70  1  0  0  0  0
 35 76  2  0  0  0  0
 36 50  1  0  0  0  0
 36 71  1  0  0  0  0
 36 77  2  0  0  0  0
 37 61  1  0  0  0  0
 37 66  1  0  0  0  0
 37 78  2  0  0  0  0
 38 62  1  0  0  0  0
 38 72  1  0  0  0  0
 38 79  2  0  0  0  0
 39 67  1  0  0  0  0
 39 73  1  0  0  0  0
 39 80  2  0  0  0  0
 40 43  1  0  0  0  0
 41 50  1  0  0  0  0
 42 66  1  0  0  0  0
 43 45  1  0  0  0  0
 44 46  1  0  0  0  0
 44 47  1  0  0  0  0
 45 49  1  0  0  0  0
 46 51  1  0  0  0  0
 47 67  1  0  0  0  0
 48 51  1  0  0  0  0
 48 67  1  0  0  0  0
 49 71  1  0  0  0  0
 50 66  1  0  0  0  0
 51 65  1  0  0  0  0
 53 62  1  0  0  0  0
 54 63  1  0  0  0  0
 55 63  1  0  0  0  0
 56 63  1  0  0  0  0
 57 75  1  0  0  0  0
 58 73  1  0  0  0  0
 59 60  1  0  0  0  0
 59 74  1  0  0  0  0
 60 82  1  0  0  0  0
 61 63  1  0  0  0  0
 61 72  1  0  0  0  0
 62 75  1  0  0  0  0
 64 65  1  0  0  0  0
M  CHG  2  74   1  75   1
M  ISO  4  39 100  60 101  73 100  82 101
M  END
> <Batch ID>
0034

> <Smiles>
CNC(C)C(=O)NC(C(=O)N1Cc2cc([101O:1][101CH2:1]CNC(=N)c3cc(C[100NH:0][100C:0](=O)N4CCCC(n5nc(-c6ccc(Oc7ccc(F)cc7F)cc6)c(C(N)=O)c5N)C4)ccc3C)ccc2CC1C(=O)NC1CCCc2ccccc21)C(C)(C)C

> <Shape>
0.203

> <Color>
0.057

> <Negative vol penalty>
0.000

$$$$

  -OEChem-04042321483D

 89 98  0     1  0  0  0  0  0999 V2000
  -28.3523  -22.7890   21.6248 C   0  0  0  0  0  0  0  0  0  0  0  0
  -27.1282  -23.4476   21.6808 C   0  0  0  0  0  0  0  0  0  0  0  0
  -27.4716  -12.7681   18.7663 C   0  0  0  0  0  0  0  0  0  0  0  0
  -28.2765  -13.5715   20.8979 C   0  0  0  0  0  0  0  0  0  0  0  0
  -29.4051  -23.2066   22.4379 C   0  0  0  0  0  0  0  0  0  0  0  0
  -26.9558  -24.5235   22.5508 C   0  0  0  0  0  0  0  0  0  0  0  0
  -24.5808  -28.4267   20.3670 C   0  0  0  0  0  0  0  0  0  0  0  0
  -28.6965  -12.1403   18.5403 C   0  0  0  0  0  0  0  0  0  0  0  0
  -29.5014  -12.9436   20.6719 C   0  0  0  0  0  0  0  0  0  0  0  0
  -23.1973  -28.3306   20.2232 C   0  0  0  0  0  0  0  0  0  0  0  0
  -31.7377  -10.6269   17.2424 C   0  0  0  0  0  0  0  0  0  0  0  0
  -32.3168  -10.7665   15.9812 C   0  0  0  0  0  0  0  0  0  0  0  0
  -22.9043  -29.7210   22.1726 C   0  0  0  0  0  0  0  0  0  0  0  0
  -23.3873  -24.2021   24.3257 C   0  0  0  0  0  0  0  0  0  0  0  0
  -20.6683  -23.5778   24.3220 C   0  0  0  0  0  0  0  0  0  0  0  0
  -32.3826  -13.1635   16.2767 C   0  0  0  0  0  0  0  0  0  0  0  0
  -27.2616  -13.4837   19.9450 C   0  0  0  0  0  0  0  0  0  0  0  0
  -24.7293  -13.5243   20.2511 C   0  0  0  0  0  0  0  0  0  0  0  0
  -29.2485  -24.2943   23.3114 C   0  0  0  0  0  0  0  0  0  0  0  0
  -25.1372  -29.1629   21.4228 C   0  0  0  0  0  0  0  0  0  0  0  0
  -28.0070  -24.9552   23.3774 C   0  0  0  0  0  0  0  0  0  0  0  0
  -24.2951  -29.8270   22.3260 C   0  0  0  0  0  0  0  0  0  0  0  0
  -22.9778  -22.8694   24.3663 C   0  0  0  0  0  0  0  0  0  0  0  0
  -21.0779  -24.9106   24.2815 C   0  0  0  0  0  0  0  0  0  0  0  0
  -29.7114  -12.2280   19.4931 C   0  0  0  0  0  0  0  0  0  0  0  0
  -22.3588  -28.9754   21.1278 C   0  0  0  0  0  0  0  0  0  0  0  0
  -31.4809  -11.7556   18.0208 C   0  0  0  0  0  0  0  0  0  0  0  0
  -32.6393  -12.0347   15.4983 C   0  0  0  0  0  0  0  0  0  0  0  0
  -31.8035  -13.0239   17.5379 C   0  0  0  0  0  0  0  0  0  0  0  0
  -21.6183  -22.5572   24.3644 C   0  0  0  0  0  0  0  0  0  0  0  0
  -22.4374  -25.2228   24.2834 C   0  0  0  0  0  0  0  0  0  0  0  0
  -25.9967  -14.1329   20.1788 C   0  0  0  0  0  0  0  0  0  0  0  0
  -23.8626  -14.5632   20.4878 C   0  0  0  0  0  0  0  0  0  0  0  0
  -18.0814  -26.7449   23.0088 C   0  0  0  0  0  0  0  0  0  0  0  0
  -16.9878  -25.9720   22.9272 C   0  0  0  0  0  0  0  0  0  0  0  0
  -24.3679  -12.1434   20.1164 C   0  0  0  0  0  0  0  0  0  0  0  0
  -26.9932  -28.4685   23.9081 C   0  0  0  0  0  0  0  0  0  0  0  0
  -26.9752  -31.6855   24.3238 C   0  0  0  0  0  0  0  0  0  0  0  0
  -24.5530  -34.3524   24.1289 C   0  0  0  0  0  0  0  0  0  0  0  0
  -24.6390  -19.8299   23.0402 C   0  0  0  0  0  0  0  0  0  0  0  0
  -30.4007  -24.6793   24.2052 C   0  0  0  0  0  0  0  0  0  0  0  0
  -26.6316  -29.2789   21.5483 C   0  0  0  0  0  0  0  0  0  0  0  0
  -24.8425  -30.6467   23.4648 C   0  0  0  0  0  0  0  0  0  0  0  0
  -18.0194  -28.2384   23.1795 C   0  0  0  0  0  0  0  0  0  0  0  0
  -30.2518  -26.0650   24.8281 C   0  0  0  0  0  0  0  0  0  0  0  0
  -18.8885  -28.9281   22.1349 C   0  0  0  0  0  0  0  0  0  0  0  0
  -23.3419  -19.2570   19.7105 C   0  0  0  0  0  0  0  0  0  0  0  0
  -28.8474  -26.2473   25.3948 C   0  0  0  0  0  0  0  0  0  0  0  0
  -23.7624  -17.8067   19.4656 C   0  0  0  0  0  0  0  0  0  0  0  0
  -24.4103  -20.0183   20.4897 C   0  0  0  0  0  0  0  0  0  0  0  0
  -25.2136  -17.9402   21.5431 C   0  0  0  0  0  0  0  0  0  0  0  0
  -20.2108  -26.7986   21.8492 C   0  0  0  0  0  0  0  0  0  0  0  0
  -27.7888  -26.1422   24.2904 C   0  0  1  0  0  0  0  0  0  0  0  0
  -27.0870  -29.6313   22.9611 C   0  0  1  0  0  0  0  0  0  0  0  0
  -24.1655  -17.1108   20.7791 C   0  0  2  0  0  0  0  0  0  0  0  0
  -20.2838  -28.3068   22.0739 C   0  0  1  0  0  0  0  0  0  1  0  0
  -17.0269  -24.4926   22.7582 C   0  0  0  0  0  0  0  0  0  0  0  0
  -24.8505  -36.7933   23.6278 C   0  0  0  0  0  0  0  0  0  0  0  0
  -27.1109  -31.9948   27.3563 C   0  0  0  0  0  0  0  0  0  0  0  0
  -25.8100  -34.1217   27.1278 C   0  0  0  0  0  0  0  0  0  0  0  0
  -28.0590  -33.9173   26.0682 C   0  0  0  0  0  0  0  0  0  0  0  0
  -22.5993  -34.2535   21.9081 C   0  0  0  0  0  0  0  0  0  0  0  0
  -24.0270  -21.8059   24.4105 C   0  0  0  0  0  0  0  0  0  0  0  0
  -20.0257  -25.9791   24.2374 C   0  0  0  0  0  0  0  0  0  0  0  0
  -26.1023  -32.6616   25.0751 C   0  0  1  0  0  0  0  0  0  0  0  0
  -24.4735  -35.4319   23.0646 C   0  0  2  0  0  0  0  0  0  0  0  0
  -26.7602  -33.1494   26.3967 C   0  0  0  0  0  0  0  0  0  0  0  0
  -25.9442  -15.4559   20.3551 N   0  0  0  0  0  0  0  0  0  0  0  0
  -24.6334  -15.6871   20.5404 N   0  0  0  0  0  0  0  0  0  0  0  0
  -26.3103  -30.7246   23.5491 N   0  0  0  0  0  0  0  0  0  0  0  0
  -24.7350  -19.3129   21.7375 N   0  0  0  0  0  0  0  0  0  0  0  0
  -22.5239  -14.6157   20.6538 N   0  0  0  0  0  0  0  0  0  0  0  0
  -24.3437  -11.3438   21.2672 N   0  0  0  0  0  0  0  0  0  0  0  0
  -27.7353  -27.3682   23.5233 N   0  0  0  0  0  0  0  0  0  0  0  0
  -25.7841  -33.7314   24.1356 N   0  0  0  0  0  0  0  0  0  0  0  0
  -24.1841  -21.1392   23.1370 N   0  0  0  0  0  0  0  0  0  0  0  0
  -19.3684  -26.1035   22.8907 N   0  3  1  0  0  0  0  0  0  0  0  0
  -23.0907  -35.5171   22.5155 N   0  3  0  0  0  0  0  0  0  0  0  0
  -24.0910  -11.6297   19.0060 O   0  0  0  0  0  0  0  0  0  0  0  0
  -26.3001  -28.5631   24.9143 O   0  0  0  0  0  0  0  0  0  0  0  0
  -28.2019  -31.7770   24.4152 O   0  0  0  0  0  0  0  0  0  0  0  0
  -23.6179  -34.0891   24.8818 O   0  0  0  0  0  0  0  0  0  0  0  0
  -24.9319  -19.1712   24.0439 O   0  0  0  0  0  0  0  0  0  0  0  0
  -30.9067  -11.6154   19.2731 O   0  0  0  0  0  0  0  0  0  0  0  0
  -21.0082  -28.8827   20.9902 O   0  0  0  0  0  0  0  0  0  1  0  0
  -33.1968  -12.1685   14.2877 F   0  0  0  0  0  0  0  0  0  0  0  0
  -31.5603  -14.1118   18.2816 F   0  0  0  0  0  0  0  0  0  0  0  0
  -21.0749  -20.9197   24.4124 Cl  0  0  0  0  0  0  0  0  0  0  0  0
  -22.9812  -26.8602   24.2340 Cl  0  0  0  0  0  0  0  0  0  0  0  0
  1  2  1  0  0  0  0
  1  5  2  0  0  0  0
  2  6  2  0  0  0  0
  3  8  2  0  0  0  0
  3 17  1  0  0  0  0
  4  9  1  0  0  0  0
  4 17  2  0  0  0  0
  5 19  1  0  0  0  0
  6 21  1  0  0  0  0
  7 10  2  0  0  0  0
  7 20  1  0  0  0  0
  8 25  1  0  0  0  0
  9 25  2  0  0  0  0
 10 26  1  0  0  0  0
 11 12  2  0  0  0  0
 11 27  1  0  0  0  0
 12 28  1  0  0  0  0
 13 22  1  0  0  0  0
 13 26  2  0  0  0  0
 14 23  2  0  0  0  0
 14 31  1  0  0  0  0
 15 24  1  0  0  0  0
 15 30  2  0  0  0  0
 16 28  2  0  0  0  0
 16 29  1  0  0  0  0
 17 32  1  0  0  0  0
 18 32  1  0  0  0  0
 18 33  2  0  0  0  0
 18 36  1  0  0  0  0
 19 21  2  0  0  0  0
 19 41  1  0  0  0  0
 20 22  2  0  0  0  0
 20 42  1  0  0  0  0
 21 53  1  0  0  0  0
 22 43  1  0  0  0  0
 23 30  1  0  0  0  0
 23 63  1  0  0  0  0
 24 31  2  0  0  0  0
 24 64  1  0  0  0  0
 25 84  1  0  0  0  0
 26 85  1  0  0  0  0
 27 29  2  0  0  0  0
 27 84  1  0  0  0  0
 28 86  1  0  0  0  0
 29 87  1  0  0  0  0
 30 88  1  0  0  0  0
 31 89  1  0  0  0  0
 32 68  2  0  0  0  0
 33 69  1  0  0  0  0
 33 72  1  0  0  0  0
 34 35  2  0  0  0  0
 34 44  1  0  0  0  0
 34 77  1  0  0  0  0
 35 57  1  0  0  0  0
 36 73  1  0  0  0  0
 36 79  2  0  0  0  0
 37 54  1  0  0  0  0
 37 74  1  0  0  0  0
 37 80  2  0  0  0  0
 38 65  1  0  0  0  0
 38 70  1  0  0  0  0
 38 81  2  0  0  0  0
 39 66  1  0  0  0  0
 39 75  1  0  0  0  0
 39 82  2  0  0  0  0
 40 71  1  0  0  0  0
 40 76  1  0  0  0  0
 40 83  2  0  0  0  0
 41 45  1  0  0  0  0
 42 54  1  0  0  0  0
 43 70  1  0  0  0  0
 44 46  1  0  0  0  0
 45 48  1  0  0  0  0
 46 56  1  0  0  0  0
 47 49  1  0  0  0  0
 47 50  1  0  0  0  0
 48 53  1  0  0  0  0
 49 55  1  0  0  0  0
 50 71  1  0  0  0  0
 51 55  1  0  0  0  0
 51 71  1  0  0  0  0
 52 56  1  0  0  0  0
 52 77  1  0  0  0  0
 53 74  1  0  0  0  0
 54 70  1  0  0  0  0
 55 69  1  0  0  0  0
 56 85  1  0  0  0  0
 58 66  1  0  0  0  0
 59 67  1  0  0  0  0
 60 67  1  0  0  0  0
 61 67  1  0  0  0  0
 62 78  1  0  0  0  0
 63 76  1  0  0  0  0
 64 77  1  0  0  0  0
 65 67  1  0  0  0  0
 65 75  1  0  0  0  0
 66 78  1  0  0  0  0
 68 69  1  0  0  0  0
M  CHG  2  77   1  78   1
M  ISO  4  40 100  56 101  76 100  85 101
M  END
> <Batch ID>
0034

> <Smiles>
CC=C1CC[101CH:1]([101O:1]c2ccc3c(c2)CN(C(=O)C(NC(=O)C(C)NC)C(C)(C)C)C(C(=O)NC2CCCc4ccccc42)C3)CN1Cc1cc(Cl)c(C[100NH:0][100C:0](=O)N2CCCC(n3nc(-c4ccc(Oc5ccc(F)cc5F)cc4)c(C(N)=O)c3N)C2)cc1Cl

> <Shape>
0.260

> <Color>
0.083

> <Negative vol penalty>
0.000

$$$$

  -OEChem-04042321483D

 87 96  0     1  0  0  0  0  0999 V2000
  -16.6909  -30.6405   25.0111 C   0  0  0  0  0  0  0  0  0  0  0  0
  -17.5689  -30.2315   24.0125 C   0  0  0  0  0  0  0  0  0  0  0  0
  -24.1953   -9.2394   21.3708 C   0  0  0  0  0  0  0  0  0  0  0  0
  -25.2363  -10.2324   23.3117 C   0  0  0  0  0  0  0  0  0  0  0  0
  -17.1067  -31.5663   25.9671 C   0  0  0  0  0  0  0  0  0  0  0  0
  -18.8630  -30.7491   23.9686 C   0  0  0  0  0  0  0  0  0  0  0  0
  -22.3564  -27.1778   23.1395 C   0  0  0  0  0  0  0  0  0  0  0  0
  -23.9230   -8.0862   22.1068 C   0  0  0  0  0  0  0  0  0  0  0  0
  -24.9640   -9.0792   24.0478 C   0  0  0  0  0  0  0  0  0  0  0  0
  -22.5022  -26.7216   21.8302 C   0  0  0  0  0  0  0  0  0  0  0  0
  -21.6544   -7.0723   24.3999 C   0  0  0  0  0  0  0  0  0  0  0  0
  -20.3815   -6.5142   24.2830 C   0  0  0  0  0  0  0  0  0  0  0  0
  -24.4284  -28.1474   21.5543 C   0  0  0  0  0  0  0  0  0  0  0  0
  -27.7816  -21.0019   18.6480 C   0  0  0  0  0  0  0  0  0  0  0  0
  -21.3566   -4.4629   23.4593 C   0  0  0  0  0  0  0  0  0  0  0  0
  -24.8520  -10.3124   21.9733 C   0  0  0  0  0  0  0  0  0  0  0  0
  -24.2026  -12.3497   20.5820 C   0  0  0  0  0  0  0  0  0  0  0  0
  -18.4096  -32.0881   25.9406 C   0  0  0  0  0  0  0  0  0  0  0  0
  -23.2404  -28.1320   23.6634 C   0  0  0  0  0  0  0  0  0  0  0  0
  -19.2962  -31.6837   24.9243 C   0  0  0  0  0  0  0  0  0  0  0  0
  -24.2932  -28.6122   22.8714 C   0  0  0  0  0  0  0  0  0  0  0  0
  -27.3121  -21.8047   19.6875 C   0  0  0  0  0  0  0  0  0  0  0  0
  -27.9955  -19.6400   18.8606 C   0  0  0  0  0  0  0  0  0  0  0  0
  -27.0566  -21.2458   20.9396 C   0  0  0  0  0  0  0  0  0  0  0  0
  -27.2706  -19.8839   21.1523 C   0  0  0  0  0  0  0  0  0  0  0  0
  -27.7400  -19.0810   20.1128 C   0  0  0  0  0  0  0  0  0  0  0  0
  -24.3074   -8.0061   23.4452 C   0  0  0  0  0  0  0  0  0  0  0  0
  -23.5366  -27.2085   21.0364 C   0  0  0  0  0  0  0  0  0  0  0  0
  -22.7785   -6.3258   24.0464 C   0  0  0  0  0  0  0  0  0  0  0  0
  -20.2326   -5.2095   23.8128 C   0  0  0  0  0  0  0  0  0  0  0  0
  -22.6295   -5.0211   23.5762 C   0  0  0  0  0  0  0  0  0  0  0  0
  -25.1340  -11.5037   21.2134 C   0  0  0  0  0  0  0  0  0  0  0  0
  -24.9686  -13.3301   20.0001 C   0  0  0  0  0  0  0  0  0  0  0  0
  -22.7729  -12.2576   20.5266 C   0  0  0  0  0  0  0  0  0  0  0  0
  -22.9408  -31.0925   24.7812 C   0  0  0  0  0  0  0  0  0  0  0  0
  -26.0749  -30.7117   25.5258 C   0  0  0  0  0  0  0  0  0  0  0  0
  -28.9993  -29.2906   23.9618 C   0  0  0  0  0  0  0  0  0  0  0  0
  -29.1539  -16.9974   20.1911 C   0  0  0  0  0  0  0  0  0  0  0  0
  -18.7984  -33.1221   26.9674 C   0  0  0  0  0  0  0  0  0  0  0  0
  -23.0856  -28.5941   25.0864 C   0  0  0  0  0  0  0  0  0  0  0  0
  -25.2812  -29.6222   23.3931 C   0  0  0  0  0  0  0  0  0  0  0  0
  -20.3058  -33.3397   27.0722 C   0  0  0  0  0  0  0  0  0  0  0  0
  -29.9776  -13.6396   19.3403 C   0  0  0  0  0  0  0  0  0  0  0  0
  -23.5847  -23.5005   17.9172 C   0  0  0  0  0  0  0  0  0  0  0  0
  -20.9228  -33.4789   25.6842 C   0  0  0  0  0  0  0  0  0  0  0  0
  -28.7143  -12.8542   19.6998 C   0  0  0  0  0  0  0  0  0  0  0  0
  -23.2736  -24.9544   18.2470 C   0  0  0  0  0  0  0  0  0  0  0  0
  -30.2449  -14.7693   20.3333 C   0  0  0  0  0  0  0  0  0  0  0  0
  -27.8536  -14.8984   20.9113 C   0  0  0  0  0  0  0  0  0  0  0  0
  -25.0808  -23.2231   17.9544 C   0  0  0  0  0  0  0  0  0  0  0  0
  -25.3918  -25.0814   19.6096 C   0  0  0  0  0  0  0  0  0  0  0  0
  -20.7158  -32.2037   24.8580 C   0  0  1  0  0  0  0  0  0  0  0  0
  -23.7345  -29.9497   25.3483 C   0  0  1  0  0  0  0  0  0  0  0  0
  -27.5071  -13.7908   19.9029 C   0  0  2  0  0  0  0  0  0  0  0  0
  -23.8966  -25.3695   19.5762 C   0  0  1  0  0  0  0  0  0  1  0  0
  -28.4978  -18.8056   17.7268 C   0  0  0  0  0  0  0  0  0  0  0  0
  -26.5533  -22.1098   22.0524 C   0  0  0  0  0  0  0  0  0  0  0  0
  -26.9950  -19.2891   22.4981 C   0  0  0  0  0  0  0  0  0  0  0  0
  -31.0775  -28.3126   24.9726 C   0  0  0  0  0  0  0  0  0  0  0  0
  -27.2184  -33.5186   25.1740 C   0  0  0  0  0  0  0  0  0  0  0  0
  -29.4028  -32.4736   24.5380 C   0  0  0  0  0  0  0  0  0  0  0  0
  -28.4525  -32.0871   26.8118 C   0  0  0  0  0  0  0  0  0  0  0  0
  -28.6531  -26.7431   22.4957 C   0  0  0  0  0  0  0  0  0  0  0  0
  -27.0890  -23.2662   19.4318 C   0  0  0  0  0  0  0  0  0  0  0  0
  -27.3815  -30.9672   24.8141 C   0  0  1  0  0  0  0  0  0  0  0  0
  -29.7158  -28.0144   24.3647 C   0  0  2  0  0  0  0  0  0  0  0  0
  -28.0900  -32.2554   25.3201 C   0  0  0  0  0  0  0  0  0  0  0  0
  -26.3953  -11.9109   21.0480 N   0  0  0  0  0  0  0  0  0  0  0  0
  -26.2618  -13.0235   20.3061 N   0  0  0  0  0  0  0  0  0  0  0  0
  -25.0841  -30.0479   24.7886 N   0  0  0  0  0  0  0  0  0  0  0  0
  -29.0592  -15.6178   20.4713 N   0  0  0  0  0  0  0  0  0  0  0  0
  -24.6553  -14.4158   19.2616 N   0  0  0  0  0  0  0  0  0  0  0  0
  -22.0233  -12.8897   21.5281 N   0  0  0  0  0  0  0  0  0  0  0  0
  -27.9549  -17.6967   20.3253 N   0  0  0  0  0  0  0  0  0  0  0  0
  -21.6506  -31.1780   25.2688 N   0  0  0  0  0  0  0  0  0  0  0  0
  -28.1732  -29.7512   24.9652 N   0  0  0  0  0  0  0  0  0  0  0  0
  -25.6347  -23.6261   19.3003 N   0  3  2  0  0  0  0  0  0  0  0  0
  -29.9133  -27.1345   23.1782 N   0  3  0  0  0  0  0  0  0  0  0  0
  -22.1782  -11.6195   19.6251 O   0  0  0  0  0  0  0  0  0  0  0  0
  -23.4608  -31.8421   23.9630 O   0  0  0  0  0  0  0  0  0  0  0  0
  -25.9410  -31.0810   26.6951 O   0  0  0  0  0  0  0  0  0  0  0  0
  -29.1594  -29.8274   22.8679 O   0  0  0  0  0  0  0  0  0  0  0  0
  -30.2140  -17.5151   19.8303 O   0  0  0  0  0  0  0  0  0  0  0  0
  -24.0416   -6.8811   24.1638 O   0  0  0  0  0  0  0  0  0  0  0  0
  -23.6808  -26.7653   19.7579 O   0  0  0  0  0  0  0  0  0  1  0  0
  -19.0102   -4.6730   23.7020 F   0  0  0  0  0  0  0  0  0  0  0  0
  -23.7057   -4.2986   23.2361 F   0  0  0  0  0  0  0  0  0  0  0  0
  1  2  1  0  0  0  0
  1  5  2  0  0  0  0
  2  6  2  0  0  0  0
  3  8  2  0  0  0  0
  3 16  1  0  0  0  0
  4  9  1  0  0  0  0
  4 16  2  0  0  0  0
  5 18  1  0  0  0  0
  6 20  1  0  0  0  0
  7 10  2  0  0  0  0
  7 19  1  0  0  0  0
  8 27  1  0  0  0  0
  9 27  2  0  0  0  0
 10 28  1  0  0  0  0
 11 12  2  0  0  0  0
 11 29  1  0  0  0  0
 12 30  1  0  0  0  0
 13 21  1  0  0  0  0
 13 28  2  0  0  0  0
 14 22  1  0  0  0  0
 14 23  2  0  0  0  0
 15 30  2  0  0  0  0
 15 31  1  0  0  0  0
 16 32  1  0  0  0  0
 17 32  1  0  0  0  0
 17 33  2  0  0  0  0
 17 34  1  0  0  0  0
 18 20  2  0  0  0  0
 18 39  1  0  0  0  0
 19 21  2  0  0  0  0
 19 40  1  0  0  0  0
 20 52  1  0  0  0  0
 21 41  1  0  0  0  0
 22 24  2  0  0  0  0
 22 64  1  0  0  0  0
 23 26  1  0  0  0  0
 23 56  1  0  0  0  0
 24 25  1  0  0  0  0
 24 57  1  0  0  0  0
 25 26  2  0  0  0  0
 25 58  1  0  0  0  0
 26 74  1  0  0  0  0
 27 84  1  0  0  0  0
 28 85  1  0  0  0  0
 29 31  2  0  0  0  0
 29 84  1  0  0  0  0
 30 86  1  0  0  0  0
 31 87  1  0  0  0  0
 32 68  2  0  0  0  0
 33 69  1  0  0  0  0
 33 72  1  0  0  0  0
 34 73  1  0  0  0  0
 34 79  2  0  0  0  0
 35 53  1  0  0  0  0
 35 75  1  0  0  0  0
 35 80  2  0  0  0  0
 36 65  1  0  0  0  0
 36 70  1  0  0  0  0
 36 81  2  0  0  0  0
 37 66  1  0  0  0  0
 37 76  1  0  0  0  0
 37 82  2  0  0  0  0
 38 71  1  0  0  0  0
 38 74  1  0  0  0  0
 38 83  2  0  0  0  0
 39 42  1  0  0  0  0
 40 53  1  0  0  0  0
 41 70  1  0  0  0  0
 42 45  1  0  0  0  0
 43 46  1  0  0  0  0
 43 48  1  0  0  0  0
 44 47  1  0  0  0  0
 44 50  1  0  0  0  0
 45 52  1  0  0  0  0
 46 54  1  0  0  0  0
 47 55  1  0  0  0  0
 48 71  1  0  0  0  0
 49 54  1  0  0  0  0
 49 71  1  0  0  0  0
 50 77  1  0  0  0  0
 51 55  1  0  0  0  0
 51 77  1  0  0  0  0
 52 75  1  0  0  0  0
 53 70  1  0  0  0  0
 54 69  1  0  0  0  0
 55 85  1  0  0  0  0
 59 66  1  0  0  0  0
 60 67  1  0  0  0  0
 61 67  1  0  0  0  0
 62 67  1  0  0  0  0
 63 78  1  0  0  0  0
 64 77  1  0  0  0  0
 65 67  1  0  0  0  0
 65 76  1  0  0  0  0
 66 78  1  0  0  0  0
 68 69  1  0  0  0  0
M  CHG  2  77   1  78   1
M  ISO  4  38 100  55 101  74 100  85 101
M  END
> <Batch ID>
0034

> <Smiles>
CNC(C)C(=O)NC(C(=O)N1Cc2cc([101O:1][101CH:1]3CCCN(Cc4cc(C)c([100NH:0][100C:0](=O)N5CCCC(n6nc(-c7ccc(Oc8ccc(F)cc8F)cc7)c(C(N)=O)c6N)C5)c(C)c4C)C3)ccc2CC1C(=O)NC1CCCc2ccccc21)C(C)(C)C

> <Shape>
0.268

> <Color>
0.098

> <Negative vol penalty>
0.000

$$$$

  -OEChem-04042321483D

 86 95  0     1  0  0  0  0  0999 V2000
  -30.6055  -34.3706   23.0279 C   0  0  0  0  0  0  0  0  0  0  0  0
  -30.7667  -32.9891   23.0551 C   0  0  0  0  0  0  0  0  0  0  0  0
  -23.2292   -9.7195   20.0164 C   0  0  0  0  0  0  0  0  0  0  0  0
  -23.8716   -9.9429   22.3347 C   0  0  0  0  0  0  0  0  0  0  0  0
  -29.3249  -34.9220   23.0312 C   0  0  0  0  0  0  0  0  0  0  0  0
  -29.6474  -32.1581   23.0867 C   0  0  0  0  0  0  0  0  0  0  0  0
  -29.0622  -26.6679   20.4369 C   0  0  0  0  0  0  0  0  0  0  0  0
  -22.5445   -8.5428   20.3194 C   0  0  0  0  0  0  0  0  0  0  0  0
  -23.1868   -8.7661   22.6378 C   0  0  0  0  0  0  0  0  0  0  0  0
  -29.1839  -25.3700   20.9313 C   0  0  0  0  0  0  0  0  0  0  0  0
  -19.5805   -7.6684   21.6918 C   0  0  0  0  0  0  0  0  0  0  0  0
  -18.3047   -7.5036   21.1526 C   0  0  0  0  0  0  0  0  0  0  0  0
  -26.7940  -25.2716   21.2443 C   0  0  0  0  0  0  0  0  0  0  0  0
  -31.2966  -19.0300   24.0015 C   0  0  0  0  0  0  0  0  0  0  0  0
  -31.6565  -17.1757   22.4953 C   0  0  0  0  0  0  0  0  0  0  0  0
  -19.0457   -5.5085   20.0091 C   0  0  0  0  0  0  0  0  0  0  0  0
  -23.8929  -10.4196   21.0240 C   0  0  0  0  0  0  0  0  0  0  0  0
  -24.0878  -12.9458   20.7275 C   0  0  0  0  0  0  0  0  0  0  0  0
  -28.1892  -34.0972   23.0532 C   0  0  0  0  0  0  0  0  0  0  0  0
  -27.8046  -27.2824   20.3526 C   0  0  0  0  0  0  0  0  0  0  0  0
  -28.3504  -32.6990   23.0917 C   0  0  0  0  0  0  0  0  0  0  0  0
  -26.6588  -26.5765   20.7461 C   0  0  0  0  0  0  0  0  0  0  0  0
  -32.1646  -18.1531   23.3509 C   0  0  0  0  0  0  0  0  0  0  0  0
  -29.9205  -18.9295   23.7965 C   0  0  0  0  0  0  0  0  0  0  0  0
  -29.4124  -17.9520   22.9409 C   0  0  0  0  0  0  0  0  0  0  0  0
  -30.2804  -17.0751   22.2903 C   0  0  0  0  0  0  0  0  0  0  0  0
  -22.5232   -8.0660   21.6301 C   0  0  0  0  0  0  0  0  0  0  0  0
  -28.0500  -24.6727   21.3378 C   0  0  0  0  0  0  0  0  0  0  0  0
  -20.5890   -6.7533   21.3896 C   0  0  0  0  0  0  0  0  0  0  0  0
  -18.0373   -6.4237   20.3113 C   0  0  0  0  0  0  0  0  0  0  0  0
  -20.3216   -5.6734   20.5483 C   0  0  0  0  0  0  0  0  0  0  0  0
  -24.6009  -11.6349   20.7115 C   0  0  0  0  0  0  0  0  0  0  0  0
  -25.1498  -13.7347   20.3582 C   0  0  0  0  0  0  0  0  0  0  0  0
  -27.6208  -21.8856   24.3162 C   0  0  0  0  0  0  0  0  0  0  0  0
  -26.4347  -21.5045   24.8052 C   0  0  0  0  0  0  0  0  0  0  0  0
  -22.7693  -13.4089   21.0478 C   0  0  0  0  0  0  0  0  0  0  0  0
  -26.4739  -29.8571   21.6581 C   0  0  0  0  0  0  0  0  0  0  0  0
  -24.0285  -29.1298   19.6548 C   0  0  0  0  0  0  0  0  0  0  0  0
  -22.3911  -26.7619   17.8221 C   0  0  0  0  0  0  0  0  0  0  0  0
  -30.5276  -15.1363   20.7008 C   0  0  0  0  0  0  0  0  0  0  0  0
  -26.8259  -34.7402   23.1035 C   0  0  0  0  0  0  0  0  0  0  0  0
  -27.6872  -28.6733   19.7920 C   0  0  0  0  0  0  0  0  0  0  0  0
  -25.2834  -27.1838   20.6567 C   0  0  0  0  0  0  0  0  0  0  0  0
  -28.1171  -23.2958   24.2424 C   0  0  0  0  0  0  0  0  0  0  0  0
  -25.6878  -33.7828   22.7593 C   0  0  0  0  0  0  0  0  0  0  0  0
  -29.6803  -12.4895   18.4752 C   0  0  0  0  0  0  0  0  0  0  0  0
  -25.8566  -32.4628   23.5050 C   0  0  0  0  0  0  0  0  0  0  0  0
  -28.2411  -12.1390   18.8599 C   0  0  0  0  0  0  0  0  0  0  0  0
  -30.5187  -12.8635   19.6963 C   0  0  0  0  0  0  0  0  0  0  0  0
  -28.5049  -13.5642   20.9302 C   0  0  0  0  0  0  0  0  0  0  0  0
  -29.5483  -21.8200   22.9876 C   0  0  0  0  0  0  0  0  0  0  0  0
  -27.1606  -31.7640   23.1014 C   0  0  1  0  0  0  0  0  0  0  0  0
  -26.4138  -29.3892   20.2315 C   0  0  1  0  0  0  0  0  0  0  0  0
  -27.6044  -13.2436   19.7261 C   0  0  2  0  0  0  0  0  0  0  0  0
  -28.9681  -23.2272   22.9840 C   0  0  1  0  0  0  0  0  0  1  0  0
  -33.6357  -18.2597   23.5711 C   0  0  0  0  0  0  0  0  0  0  0  0
  -27.9351  -17.8478   22.7252 C   0  0  0  0  0  0  0  0  0  0  0  0
  -20.4039  -26.4599   16.3196 C   0  0  0  0  0  0  0  0  0  0  0  0
  -22.1847  -29.1909   22.0851 C   0  0  0  0  0  0  0  0  0  0  0  0
  -20.4666  -27.9800   20.7249 C   0  0  0  0  0  0  0  0  0  0  0  0
  -21.2344  -30.2487   20.0278 C   0  0  0  0  0  0  0  0  0  0  0  0
  -24.0919  -25.9335   15.5461 C   0  0  0  0  0  0  0  0  0  0  0  0
  -29.0090  -19.8839   24.5101 C   0  0  0  0  0  0  0  0  0  0  0  0
  -22.7884  -28.2741   19.7482 C   0  0  1  0  0  0  0  0  0  0  0  0
  -21.8922  -26.7648   16.3883 C   0  0  2  0  0  0  0  0  0  0  0  0
  -21.6945  -28.9124   20.6501 C   0  0  0  0  0  0  0  0  0  0  0  0
  -25.8886  -11.5895   20.3596 N   0  0  0  0  0  0  0  0  0  0  0  0
  -26.1936  -12.8816   20.1510 N   0  0  0  0  0  0  0  0  0  0  0  0
  -25.2213  -28.5485   20.1078 N   0  0  0  0  0  0  0  0  0  0  0  0
  -29.8555  -13.9181   20.4662 N   0  0  0  0  0  0  0  0  0  0  0  0
  -25.2831  -15.0679   20.1935 N   0  0  0  0  0  0  0  0  0  0  0  0
  -21.7982  -12.4643   21.4070 N   0  0  0  0  0  0  0  0  0  0  0  0
  -29.7856  -16.0757   21.4161 N   0  0  0  0  0  0  0  0  0  0  0  0
  -27.0114  -31.1205   21.8137 N   0  0  0  0  0  0  0  0  0  0  0  0
  -22.3605  -28.0243   18.3760 N   0  0  0  0  0  0  0  0  0  0  0  0
  -28.4594  -20.9525   23.6138 N   0  3  1  0  0  0  0  0  0  0  0  0
  -22.6192  -25.7416   15.5849 N   0  3  0  0  0  0  0  0  0  0  0  0
  -22.4569  -14.6229   21.0004 O   0  0  0  0  0  0  0  0  0  0  0  0
  -26.0617  -29.1265   22.5514 O   0  0  0  0  0  0  0  0  0  0  0  0
  -23.9434  -30.2693   19.1901 O   0  0  0  0  0  0  0  0  0  0  0  0
  -22.7665  -25.7413   18.3946 O   0  0  0  0  0  0  0  0  0  0  0  0
  -31.6665  -15.3419   20.2735 O   0  0  0  0  0  0  0  0  0  0  0  0
  -21.8549   -6.9179   21.9263 O   0  0  0  0  0  0  0  0  0  0  0  0
  -28.1661  -23.4060   21.8214 O   0  0  0  0  0  0  0  0  0  1  0  0
  -16.8117   -6.2647   19.7948 F   0  0  0  0  0  0  0  0  0  0  0  0
  -21.2860   -4.7903   20.2552 F   0  0  0  0  0  0  0  0  0  0  0  0
  1  2  1  0  0  0  0
  1  5  2  0  0  0  0
  2  6  2  0  0  0  0
  3  8  2  0  0  0  0
  3 17  1  0  0  0  0
  4  9  1  0  0  0  0
  4 17  2  0  0  0  0
  5 19  1  0  0  0  0
  6 21  1  0  0  0  0
  7 10  2  0  0  0  0
  7 20  1  0  0  0  0
  8 27  1  0  0  0  0
  9 27  2  0  0  0  0
 10 28  1  0  0  0  0
 11 12  2  0  0  0  0
 11 29  1  0  0  0  0
 12 30  1  0  0  0  0
 13 22  1  0  0  0  0
 13 28  2  0  0  0  0
 14 23  2  0  0  0  0
 14 24  1  0  0  0  0
 15 23  1  0  0  0  0
 15 26  2  0  0  0  0
 16 30  2  0  0  0  0
 16 31  1  0  0  0  0
 17 32  1  0  0  0  0
 18 32  1  0  0  0  0
 18 33  2  0  0  0  0
 18 36  1  0  0  0  0
 19 21  2  0  0  0  0
 19 41  1  0  0  0  0
 20 22  2  0  0  0  0
 20 42  1  0  0  0  0
 21 52  1  0  0  0  0
 22 43  1  0  0  0  0
 23 56  1  0  0  0  0
 24 25  2  0  0  0  0
 24 63  1  0  0  0  0
 25 26  1  0  0  0  0
 25 57  1  0  0  0  0
 26 73  1  0  0  0  0
 27 83  1  0  0  0  0
 28 84  1  0  0  0  0
 29 31  2  0  0  0  0
 29 83  1  0  0  0  0
 30 85  1  0  0  0  0
 31 86  1  0  0  0  0
 32 67  2  0  0  0  0
 33 68  1  0  0  0  0
 33 71  1  0  0  0  0
 34 35  2  0  0  0  0
 34 44  1  0  0  0  0
 34 76  1  0  0  0  0
 36 72  1  0  0  0  0
 36 78  2  0  0  0  0
 37 53  1  0  0  0  0
 37 74  1  0  0  0  0
 37 79  2  0  0  0  0
 38 64  1  0  0  0  0
 38 69  1  0  0  0  0
 38 80  2  0  0  0  0
 39 65  1  0  0  0  0
 39 75  1  0  0  0  0
 39 81  2  0  0  0  0
 40 70  1  0  0  0  0
 40 73  1  0  0  0  0
 40 82  2  0  0  0  0
 41 45  1  0  0  0  0
 42 53  1  0  0  0  0
 43 69  1  0  0  0  0
 44 55  1  0  0  0  0
 45 47  1  0  0  0  0
 46 48  1  0  0  0  0
 46 49  1  0  0  0  0
 47 52  1  0  0  0  0
 48 54  1  0  0  0  0
 49 70  1  0  0  0  0
 50 54  1  0  0  0  0
 50 70  1  0  0  0  0
 51 55  1  0  0  0  0
 51 76  1  0  0  0  0
 52 74  1  0  0  0  0
 53 69  1  0  0  0  0
 54 68  1  0  0  0  0
 55 84  1  0  0  0  0
 58 65  1  0  0  0  0
 59 66  1  0  0  0  0
 60 66  1  0  0  0  0
 61 66  1  0  0  0  0
 62 77  1  0  0  0  0
 63 76  1  0  0  0  0
 64 66  1  0  0  0  0
 64 75  1  0  0  0  0
 65 77  1  0  0  0  0
 67 68  1  0  0  0  0
M  CHG  2  76   1  77   1
M  ISO  4  40 100  55 101  73 100  84 101
M  END
> <Batch ID>
0034

> <Smiles>
C=C1C[101CH:1]([101O:1]c2ccc3c(c2)CN(C(=O)C(NC(=O)C(C)NC)C(C)(C)C)C(C(=O)NC2CCCc4ccccc42)C3)CN1Cc1cc(C)cc([100NH:0][100C:0](=O)N2CCCC(n3nc(-c4ccc(Oc5ccc(F)cc5F)cc4)c(C(N)=O)c3N)C2)c1C

> <Shape>
0.279

> <Color>
0.192

> <Negative vol penalty>
0.000

$$$$

  -OEChem-04042321483D

 89 98  0     1  0  0  0  0  0999 V2000
  -26.1983  -35.4983   15.8785 C   0  0  0  0  0  0  0  0  0  0  0  0
  -26.1766  -34.1380   15.5877 C   0  0  0  0  0  0  0  0  0  0  0  0
  -23.9518   -9.0709   21.0151 C   0  0  0  0  0  0  0  0  0  0  0  0
  -25.4385   -9.7472   22.7954 C   0  0  0  0  0  0  0  0  0  0  0  0
  -26.8565  -35.9556   17.0194 C   0  0  0  0  0  0  0  0  0  0  0  0
  -26.8140  -33.2343   16.4370 C   0  0  0  0  0  0  0  0  0  0  0  0
  -25.0230  -27.5277   17.7535 C   0  0  0  0  0  0  0  0  0  0  0  0
  -23.8048   -7.8194   21.6133 C   0  0  0  0  0  0  0  0  0  0  0  0
  -25.2914   -8.4957   23.3936 C   0  0  0  0  0  0  0  0  0  0  0  0
  -25.4173  -26.2840   17.2621 C   0  0  0  0  0  0  0  0  0  0  0  0
  -22.0664   -6.4758   24.1834 C   0  0  0  0  0  0  0  0  0  0  0  0
  -20.7782   -5.9490   24.2761 C   0  0  0  0  0  0  0  0  0  0  0  0
  -26.9392  -26.0401   19.1179 C   0  0  0  0  0  0  0  0  0  0  0  0
  -28.5732  -19.5347   23.4267 C   0  0  0  0  0  0  0  0  0  0  0  0
  -21.4622   -4.0442   22.9565 C   0  0  0  0  0  0  0  0  0  0  0  0
  -24.7687  -10.0348   21.6061 C   0  0  0  0  0  0  0  0  0  0  0  0
  -23.9072  -12.2656   20.7179 C   0  0  0  0  0  0  0  0  0  0  0  0
  -27.4941  -35.0561   17.8883 C   0  0  0  0  0  0  0  0  0  0  0  0
  -25.5927  -28.0427   18.9268 C   0  0  0  0  0  0  0  0  0  0  0  0
  -27.4825  -33.6802   17.5899 C   0  0  0  0  0  0  0  0  0  0  0  0
  -26.5485  -27.2895   19.6234 C   0  0  0  0  0  0  0  0  0  0  0  0
  -28.5979  -18.1471   23.2876 C   0  0  0  0  0  0  0  0  0  0  0  0
  -28.6982  -20.3508   22.3023 C   0  0  0  0  0  0  0  0  0  0  0  0
  -28.8728  -18.3914   20.8997 C   0  0  0  0  0  0  0  0  0  0  0  0
  -28.7478  -17.5754   22.0241 C   0  0  0  0  0  0  0  0  0  0  0  0
  -28.8481  -19.7791   21.0389 C   0  0  0  0  0  0  0  0  0  0  0  0
  -24.4746   -7.5319   22.8025 C   0  0  0  0  0  0  0  0  0  0  0  0
  -26.3776  -25.5413   17.9427 C   0  0  0  0  0  0  0  0  0  0  0  0
  -23.0525   -5.7869   23.4771 C   0  0  0  0  0  0  0  0  0  0  0  0
  -20.4761   -4.7332   23.6628 C   0  0  0  0  0  0  0  0  0  0  0  0
  -22.7504   -4.5711   22.8637 C   0  0  0  0  0  0  0  0  0  0  0  0
  -24.9214  -11.3275   20.9884 C   0  0  0  0  0  0  0  0  0  0  0  0
  -24.5626  -13.3200   20.1304 C   0  0  0  0  0  0  0  0  0  0  0  0
  -22.4986  -12.1906   20.9749 C   0  0  0  0  0  0  0  0  0  0  0  0
  -27.3274  -30.6093   19.6389 C   0  0  0  0  0  0  0  0  0  0  0  0
  -26.9248  -29.5566   22.6806 C   0  0  0  0  0  0  0  0  0  0  0  0
  -26.9760  -26.3838   24.3976 C   0  0  0  0  0  0  0  0  0  0  0  0
  -30.4915  -14.8138   20.5238 C   0  0  0  0  0  0  0  0  0  0  0  0
  -28.2330  -35.6023   19.0842 C   0  0  0  0  0  0  0  0  0  0  0  0
  -25.1371  -29.3740   19.4582 C   0  0  0  0  0  0  0  0  0  0  0  0
  -27.1759  -27.7885   20.8985 C   0  0  0  0  0  0  0  0  0  0  0  0
  -28.5641  -34.5424   20.1318 C   0  0  0  0  0  0  0  0  0  0  0  0
  -28.4134  -14.3514   17.4957 C   0  0  0  0  0  0  0  0  0  0  0  0
  -25.4461  -20.9440   18.3983 C   0  0  0  0  0  0  0  0  0  0  0  0
  -29.1482  -33.2996   19.4677 C   0  0  0  0  0  0  0  0  0  0  0  0
  -27.2320  -13.5391   18.0233 C   0  0  0  0  0  0  0  0  0  0  0  0
  -25.6057  -22.2385   17.6120 C   0  0  0  0  0  0  0  0  0  0  0  0
  -29.6820  -14.0986   18.3046 C   0  0  0  0  0  0  0  0  0  0  0  0
  -28.3373  -13.5100   20.2944 C   0  0  0  0  0  0  0  0  0  0  0  0
  -26.7913  -20.2964   18.6945 C   0  0  0  0  0  0  0  0  0  0  0  0
  -27.8999  -22.5447   18.6134 C   0  0  0  0  0  0  0  0  0  0  0  0
  -28.1412  -32.6663   18.5000 C   0  0  1  0  0  0  0  0  0  0  0  0
  -26.1581  -30.0293   20.3832 C   0  0  1  0  0  0  0  0  0  0  0  0
  -27.0319  -13.7771   19.5301 C   0  0  2  0  0  0  0  0  0  0  0  0
  -26.5591  -23.2015   18.3126 C   0  0  1  0  0  0  0  0  0  1  0  0
  -28.4624  -17.2957   24.5074 C   0  0  0  0  0  0  0  0  0  0  0  0
  -28.6680  -21.8340   22.4789 C   0  0  0  0  0  0  0  0  0  0  0  0
  -29.0335  -17.7780   19.5443 C   0  0  0  0  0  0  0  0  0  0  0  0
  -25.8231  -25.6487   26.5019 C   0  0  0  0  0  0  0  0  0  0  0  0
  -29.5296  -30.3679   24.0470 C   0  0  0  0  0  0  0  0  0  0  0  0
  -29.2765  -28.3837   25.5527 C   0  0  0  0  0  0  0  0  0  0  0  0
  -27.5594  -30.1930   25.5773 C   0  0  0  0  0  0  0  0  0  0  0  0
  -31.1657  -16.1543   22.4804 C   0  0  0  0  0  0  0  0  0  0  0  0
  -25.7078  -24.0821   23.0366 C   0  0  0  0  0  0  0  0  0  0  0  0
  -28.7744  -16.0869   21.8779 C   0  0  0  0  0  0  0  0  0  0  0  0
  -28.9810  -20.6589   19.8309 C   0  0  0  0  0  0  0  0  0  0  0  0
  -27.6789  -28.6245   23.5980 C   0  0  1  0  0  0  0  0  0  0  0  0
  -25.7840  -25.6472   24.9816 C   0  0  2  0  0  0  0  0  0  0  0  0
  -28.5117  -29.3890   24.6655 C   0  0  0  0  0  0  0  0  0  0  0  0
  -26.1293  -11.7488   20.6041 N   0  0  0  0  0  0  0  0  0  0  0  0
  -25.8782  -12.9632   20.0861 N   0  0  0  0  0  0  0  0  0  0  0  0
  -26.7020  -29.0986   21.3743 N   0  0  0  0  0  0  0  0  0  0  0  0
  -29.4526  -14.2899   19.7371 N   0  0  0  0  0  0  0  0  0  0  0  0
  -24.1360  -14.5083   19.6524 N   0  0  0  0  0  0  0  0  0  0  0  0
  -22.0173  -12.6645   22.2029 N   0  0  0  0  0  0  0  0  0  0  0  0
  -27.1418  -31.9161   19.2299 N   0  0  0  0  0  0  0  0  0  0  0  0
  -26.6880  -27.7103   24.1554 N   0  0  0  0  0  0  0  0  0  0  0  0
  -30.1242  -15.5800   21.6404 N   0  0  0  0  0  0  0  0  0  0  0  0
  -27.6794  -21.2851   19.4119 N   0  3  2  0  0  0  0  0  0  0  0  0
  -25.7691  -24.2325   24.5132 N   0  3  0  0  0  0  0  0  0  0  0  0
  -21.6928  -11.7023   20.1468 O   0  0  0  0  0  0  0  0  0  0  0  0
  -28.3248  -29.9226   19.4510 O   0  0  0  0  0  0  0  0  0  0  0  0
  -26.5412  -30.6478   23.1095 O   0  0  0  0  0  0  0  0  0  0  0  0
  -28.0558  -25.8380   24.1817 O   0  0  0  0  0  0  0  0  0  0  0  0
  -31.6796  -14.6163   20.2387 O   0  0  0  0  0  0  0  0  0  0  0  0
  -24.3311   -6.3109   23.3866 O   0  0  0  0  0  0  0  0  0  0  0  0
  -26.7648  -24.3273   17.4650 O   0  0  0  0  0  0  0  0  0  1  0  0
  -19.2394   -4.2266   23.7532 F   0  0  0  0  0  0  0  0  0  0  0  0
  -23.6938   -3.9041   22.1849 F   0  0  0  0  0  0  0  0  0  0  0  0
  1  2  1  0  0  0  0
  1  5  2  0  0  0  0
  2  6  2  0  0  0  0
  3  8  2  0  0  0  0
  3 16  1  0  0  0  0
  4  9  1  0  0  0  0
  4 16  2  0  0  0  0
  5 18  1  0  0  0  0
  6 20  1  0  0  0  0
  7 10  2  0  0  0  0
  7 19  1  0  0  0  0
  8 27  1  0  0  0  0
  9 27  2  0  0  0  0
 10 28  1  0  0  0  0
 11 12  2  0  0  0  0
 11 29  1  0  0  0  0
 12 30  1  0  0  0  0
 13 21  1  0  0  0  0
 13 28  2  0  0  0  0
 14 22  1  0  0  0  0
 14 23  2  0  0  0  0
 15 30  2  0  0  0  0
 15 31  1  0  0  0  0
 16 32  1  0  0  0  0
 17 32  1  0  0  0  0
 17 33  2  0  0  0  0
 17 34  1  0  0  0  0
 18 20  2  0  0  0  0
 18 39  1  0  0  0  0
 19 21  2  0  0  0  0
 19 40  1  0  0  0  0
 20 52  1  0  0  0  0
 21 41  1  0  0  0  0
 22 25  2  0  0  0  0
 22 56  1  0  0  0  0
 23 26  1  0  0  0  0
 23 57  1  0  0  0  0
 24 25  1  0  0  0  0
 24 26  2  0  0  0  0
 24 58  1  0  0  0  0
 25 65  1  0  0  0  0
 26 66  1  0  0  0  0
 27 86  1  0  0  0  0
 28 87  1  0  0  0  0
 29 31  2  0  0  0  0
 29 86  1  0  0  0  0
 30 88  1  0  0  0  0
 31 89  1  0  0  0  0
 32 70  2  0  0  0  0
 33 71  1  0  0  0  0
 33 74  1  0  0  0  0
 34 75  1  0  0  0  0
 34 81  2  0  0  0  0
 35 53  1  0  0  0  0
 35 76  1  0  0  0  0
 35 82  2  0  0  0  0
 36 67  1  0  0  0  0
 36 72  1  0  0  0  0
 36 83  2  0  0  0  0
 37 68  1  0  0  0  0
 37 77  1  0  0  0  0
 37 84  2  0  0  0  0
 38 73  1  0  0  0  0
 38 78  1  0  0  0  0
 38 85  2  0  0  0  0
 39 42  1  0  0  0  0
 40 53  1  0  0  0  0
 41 72  1  0  0  0  0
 42 45  1  0  0  0  0
 43 46  1  0  0  0  0
 43 48  1  0  0  0  0
 44 47  1  0  0  0  0
 44 50  1  0  0  0  0
 45 52  1  0  0  0  0
 46 54  1  0  0  0  0
 47 55  1  0  0  0  0
 48 73  1  0  0  0  0
 49 54  1  0  0  0  0
 49 73  1  0  0  0  0
 50 79  1  0  0  0  0
 51 55  1  0  0  0  0
 51 79  1  0  0  0  0
 52 76  1  0  0  0  0
 53 72  1  0  0  0  0
 54 71  1  0  0  0  0
 55 87  1  0  0  0  0
 59 68  1  0  0  0  0
 60 69  1  0  0  0  0
 61 69  1  0  0  0  0
 62 69  1  0  0  0  0
 63 78  1  0  0  0  0
 64 80  1  0  0  0  0
 65 78  1  0  0  0  0
 66 79  1  0  0  0  0
 67 69  1  0  0  0  0
 67 77  1  0  0  0  0
 68 80  1  0  0  0  0
 70 71  1  0  0  0  0
M  CHG  2  79   1  80   1
M  ISO  4  38 100  55 101  78 100  87 101
M  END
> <Batch ID>
0034

> <Smiles>
CNC(C)C(=O)NC(C(=O)N1Cc2cc([101O:1][101CH:1]3CCCN(Cc4c(C)cc(C)c(C[100N:0](C)[100C:0](=O)N5CCCC(n6nc(-c7ccc(Oc8ccc(F)cc8F)cc7)c(C(N)=O)c6N)C5)c4C)C3)ccc2CC1C(=O)NC1CCCc2ccccc21)C(C)(C)C

> <Shape>
0.249

> <Color>
0.116

> <Negative vol penalty>
0.000

$$$$

  -OEChem-04042321483D

 85 94  0     1  0  0  0  0  0999 V2000
  -31.4435  -27.4190   14.6056 C   0  0  0  0  0  0  0  0  0  0  0  0
  -30.8336  -26.6294   15.5752 C   0  0  0  0  0  0  0  0  0  0  0  0
  -23.0694   -9.9082   21.4200 C   0  0  0  0  0  0  0  0  0  0  0  0
  -23.8245  -10.7670   23.5483 C   0  0  0  0  0  0  0  0  0  0  0  0
  -31.7169  -28.7602   14.8712 C   0  0  0  0  0  0  0  0  0  0  0  0
  -30.4978  -27.1803   16.8114 C   0  0  0  0  0  0  0  0  0  0  0  0
  -25.8537  -25.8527   18.3327 C   0  0  0  0  0  0  0  0  0  0  0  0
  -29.3726  -19.1147   20.1677 C   0  0  0  0  0  0  0  0  0  0  0  0
  -28.5576  -20.1701   20.5770 C   0  0  0  0  0  0  0  0  0  0  0  0
  -22.3222   -8.9320   22.0790 C   0  0  0  0  0  0  0  0  0  0  0  0
  -23.0773   -9.7908   24.2073 C   0  0  0  0  0  0  0  0  0  0  0  0
  -25.7003  -24.5748   18.8686 C   0  0  0  0  0  0  0  0  0  0  0  0
  -22.8860   -5.9593   23.5856 C   0  0  0  0  0  0  0  0  0  0  0  0
  -22.9523   -4.6543   23.0977 C   0  0  0  0  0  0  0  0  0  0  0  0
  -25.7606  -25.5068   21.0928 C   0  0  0  0  0  0  0  0  0  0  0  0
  -20.5690   -4.6807   22.7027 C   0  0  0  0  0  0  0  0  0  0  0  0
  -23.8206  -10.8257   22.1547 C   0  0  0  0  0  0  0  0  0  0  0  0
  -24.1687  -13.1244   21.1046 C   0  0  0  0  0  0  0  0  0  0  0  0
  -31.3754  -29.3303   16.1077 C   0  0  0  0  0  0  0  0  0  0  0  0
  -25.9729  -26.9679   19.1744 C   0  0  0  0  0  0  0  0  0  0  0  0
  -30.7681  -28.5300   17.0942 C   0  0  0  0  0  0  0  0  0  0  0  0
  -25.9129  -26.7981   20.5650 C   0  0  0  0  0  0  0  0  0  0  0  0
  -29.9496  -18.2706   21.1165 C   0  0  0  0  0  0  0  0  0  0  0  0
  -29.7118  -18.4820   22.4746 C   0  0  0  0  0  0  0  0  0  0  0  0
  -28.8968  -19.5374   22.8839 C   0  0  0  0  0  0  0  0  0  0  0  0
  -28.3197  -20.3815   21.9351 C   0  0  0  0  0  0  0  0  0  0  0  0
  -22.3261   -8.8733   23.4727 C   0  0  0  0  0  0  0  0  0  0  0  0
  -25.6566  -24.4013   20.2489 C   0  0  0  0  0  0  0  0  0  0  0  0
  -21.6611   -6.6251   23.6321 C   0  0  0  0  0  0  0  0  0  0  0  0
  -21.7938   -4.0150   22.6562 C   0  0  0  0  0  0  0  0  0  0  0  0
  -20.5026   -5.9858   23.1907 C   0  0  0  0  0  0  0  0  0  0  0  0
  -24.5931  -11.8341   21.4745 C   0  0  0  0  0  0  0  0  0  0  0  0
  -25.2634  -13.6833   20.4916 C   0  0  0  0  0  0  0  0  0  0  0  0
  -22.8986  -13.7609   21.2978 C   0  0  0  0  0  0  0  0  0  0  0  0
  -28.2207  -29.1537   19.6970 C   0  0  0  0  0  0  0  0  0  0  0  0
  -25.9387  -30.4860   21.5785 C   0  0  0  0  0  0  0  0  0  0  0  0
  -23.1079  -30.0657   23.4378 C   0  0  0  0  0  0  0  0  0  0  0  0
  -30.7492  -14.6913   20.3028 C   0  0  0  0  0  0  0  0  0  0  0  0
  -31.7337  -30.7724   16.3659 C   0  0  0  0  0  0  0  0  0  0  0  0
  -26.1110  -28.3427   18.5802 C   0  0  0  0  0  0  0  0  0  0  0  0
  -26.0159  -27.9651   21.5116 C   0  0  0  0  0  0  0  0  0  0  0  0
  -31.0061  -31.3755   17.5647 C   0  0  0  0  0  0  0  0  0  0  0  0
  -29.6109  -11.5915   18.9716 C   0  0  0  0  0  0  0  0  0  0  0  0
  -31.0633  -30.4257   18.7570 C   0  0  0  0  0  0  0  0  0  0  0  0
  -28.1718  -11.4821   19.4786 C   0  0  0  0  0  0  0  0  0  0  0  0
  -30.5260  -12.2420   20.0067 C   0  0  0  0  0  0  0  0  0  0  0  0
  -28.6231  -13.4393   21.0162 C   0  0  0  0  0  0  0  0  0  0  0  0
  -26.0980  -21.4531   22.5190 C   0  0  0  0  0  0  0  0  0  0  0  0
  -30.3662  -29.0976   18.4382 C   0  0  1  0  0  0  0  0  0  0  0  0
  -26.7390  -29.3483   19.5402 C   0  0  1  0  0  0  0  0  0  0  0  0
  -27.6510  -12.8405   19.9853 C   0  0  2  0  0  0  0  0  0  0  0  0
  -26.0976  -22.9139   22.0514 C   0  0  1  0  0  0  0  0  0  1  0  0
  -27.6382  -22.8378   22.0803 C   0  0  1  0  0  0  0  0  0  0  0  0
  -30.3319  -17.5750   23.4902 C   0  0  0  0  0  0  0  0  0  0  0  0
  -28.6428  -19.7629   24.3416 C   0  0  0  0  0  0  0  0  0  0  0  0
  -28.3163  -23.5862   23.2144 C   0  0  0  0  0  0  0  0  0  0  0  0
  -21.4979  -31.3310   24.8883 C   0  0  0  0  0  0  0  0  0  0  0  0
  -27.9838  -30.4876   23.8429 C   0  0  0  0  0  0  0  0  0  0  0  0
  -26.0992  -30.8483   25.4512 C   0  0  0  0  0  0  0  0  0  0  0  0
  -26.5852  -32.5558   23.6989 C   0  0  0  0  0  0  0  0  0  0  0  0
  -20.8348  -29.4622   21.6412 C   0  0  0  0  0  0  0  0  0  0  0  0
  -30.8176  -17.1476   20.6508 C   0  0  0  0  0  0  0  0  0  0  0  0
  -25.5375  -30.3549   23.0279 C   0  0  1  0  0  0  0  0  0  0  0  0
  -21.8059  -30.8450   23.4806 C   0  0  2  0  0  0  0  0  0  0  0  0
  -26.5514  -31.0392   23.9877 C   0  0  0  0  0  0  0  0  0  0  0  0
  -25.8586  -11.5876   21.1255 N   0  0  0  0  0  0  0  0  0  0  0  0
  -26.2388  -12.7307   20.5298 N   0  0  0  0  0  0  0  0  0  0  0  0
  -27.5067  -21.4372   22.3220 N   0  0  2  0  0  0  0  0  0  0  0  0
  -26.1562  -29.2886   20.8822 N   0  0  0  0  0  0  0  0  0  0  0  0
  -29.9761  -13.5272   20.4447 N   0  0  0  0  0  0  0  0  0  0  0  0
  -25.4772  -14.8916   19.9290 N   0  0  0  0  0  0  0  0  0  0  0  0
  -21.8838  -13.0440   21.9463 N   0  0  0  0  0  0  0  0  0  0  0  0
  -28.9290  -29.2501   18.5145 N   0  0  0  0  0  0  0  0  0  0  0  0
  -24.1783  -30.8763   23.1240 N   0  0  0  0  0  0  0  0  0  0  0  0
  -30.1505  -15.8676   20.7371 N   0  0  0  0  0  0  0  0  0  0  0  0
  -20.6752  -29.9902   23.0206 N   0  3  0  0  0  0  0  0  0  0  0  0
  -22.6652  -14.9248   20.8924 O   0  0  0  0  0  0  0  0  0  0  0  0
  -28.6869  -28.9340   20.8088 O   0  0  0  0  0  0  0  0  0  0  0  0
  -26.0479  -31.6092   21.0805 O   0  0  0  0  0  0  0  0  0  0  0  0
  -23.1698  -28.8592   23.6640 O   0  0  0  0  0  0  0  0  0  0  0  0
  -31.8865  -14.6837   19.8197 O   0  0  0  0  0  0  0  0  0  0  0  0
  -21.5970   -7.9210   24.1160 O   0  0  0  0  0  0  0  0  0  0  0  0
  -25.5076  -23.1550   20.7746 O   0  0  0  0  0  0  0  0  0  1  0  0
  -21.8580   -2.7623   22.1863 F   0  0  0  0  0  0  0  0  0  0  0  0
  -19.3232   -6.6207   23.2319 F   0  0  0  0  0  0  0  0  0  0  0  0
  1  2  1  0  0  0  0
  1  5  2  0  0  0  0
  2  6  2  0  0  0  0
  3 10  2  0  0  0  0
  3 17  1  0  0  0  0
  4 11  1  0  0  0  0
  4 17  2  0  0  0  0
  5 19  1  0  0  0  0
  6 21  1  0  0  0  0
  7 12  2  0  0  0  0
  7 20  1  0  0  0  0
  8  9  2  0  0  0  0
  8 23  1  0  0  0  0
  9 26  1  0  0  0  0
 10 27  1  0  0  0  0
 11 27  2  0  0  0  0
 12 28  1  0  0  0  0
 13 14  2  0  0  0  0
 13 29  1  0  0  0  0
 14 30  1  0  0  0  0
 15 22  1  0  0  0  0
 15 28  2  0  0  0  0
 16 30  2  0  0  0  0
 16 31  1  0  0  0  0
 17 32  1  0  0  0  0
 18 32  1  0  0  0  0
 18 33  2  0  0  0  0
 18 34  1  0  0  0  0
 19 21  2  0  0  0  0
 19 39  1  0  0  0  0
 20 22  2  0  0  0  0
 20 40  1  0  0  0  0
 21 49  1  0  0  0  0
 22 41  1  0  0  0  0
 23 24  2  0  0  0  0
 23 62  1  0  0  0  0
 24 25  1  0  0  0  0
 24 54  1  0  0  0  0
 25 26  2  0  0  0  0
 25 55  1  0  0  0  0
 26 68  1  0  0  0  0
 27 82  1  0  0  0  0
 28 83  1  0  0  0  0
 29 31  2  0  0  0  0
 29 82  1  0  0  0  0
 30 84  1  0  0  0  0
 31 85  1  0  0  0  0
 32 66  2  0  0  0  0
 33 67  1  0  0  0  0
 33 71  1  0  0  0  0
 34 72  1  0  0  0  0
 34 77  2  0  0  0  0
 35 50  1  0  0  0  0
 35 73  1  0  0  0  0
 35 78  2  0  0  0  0
 36 63  1  0  0  0  0
 36 69  1  0  0  0  0
 36 79  2  0  0  0  0
 37 64  1  0  0  0  0
 37 74  1  0  0  0  0
 37 80  2  0  0  0  0
 38 70  1  0  0  0  0
 38 75  1  0  0  0  0
 38 81  2  0  0  0  0
 39 42  1  0  0  0  0
 40 50  1  0  0  0  0
 41 69  1  0  0  0  0
 42 44  1  0  0  0  0
 43 45  1  0  0  0  0
 43 46  1  0  0  0  0
 44 49  1  0  0  0  0
 45 51  1  0  0  0  0
 46 70  1  0  0  0  0
 47 51  1  0  0  0  0
 47 70  1  0  0  0  0
 48 52  1  0  0  0  0
 48 68  1  0  0  0  0
 49 73  1  0  0  0  0
 50 69  1  0  0  0  0
 51 67  1  0  0  0  0
 52 53  1  0  0  0  0
 52 83  1  0  0  0  0
 53 56  1  0  0  0  0
 53 68  1  0  0  0  0
 57 64  1  0  0  0  0
 58 65  1  0  0  0  0
 59 65  1  0  0  0  0
 60 65  1  0  0  0  0
 61 76  1  0  0  0  0
 62 75  1  0  0  0  0
 63 65  1  0  0  0  0
 63 74  1  0  0  0  0
 64 76  1  0  0  0  0
 66 67  1  0  0  0  0
M  CHG  1  76   1
M  ISO  4  38 100  52 101  75 100  83 101
M  END
> <Batch ID>
0034

> <Smiles>
CNC(C)C(=O)NC(C(=O)N1Cc2cc([101O:1][101CH:1]3CN(c4ccc(C[100NH:0][100C:0](=O)N5CCCC(n6nc(-c7ccc(Oc8ccc(F)cc8F)cc7)c(C(N)=O)c6N)C5)c(C)c4C)C3C)ccc2CC1C(=O)NC1CCCc2ccccc21)C(C)(C)C

> <Shape>
0.304

> <Color>
0.213

> <Negative vol penalty>
0.000

$$$$

  -OEChem-04042321483D

 86 95  0     1  0  0  0  0  0999 V2000
  -30.9447  -23.3061   16.4762 C   0  0  0  0  0  0  0  0  0  0  0  0
  -29.8763  -24.1684   16.2519 C   0  0  0  0  0  0  0  0  0  0  0  0
  -25.0546  -14.5066   19.8415 C   0  0  0  0  0  0  0  0  0  0  0  0
  -27.2623  -14.2599   20.7913 C   0  0  0  0  0  0  0  0  0  0  0  0
  -31.2155  -22.8548   17.7673 C   0  0  0  0  0  0  0  0  0  0  0  0
  -29.0773  -24.5790   17.3185 C   0  0  0  0  0  0  0  0  0  0  0  0
  -25.2546  -30.1945   19.5921 C   0  0  0  0  0  0  0  0  0  0  0  0
  -22.7224  -25.7834   22.8656 C   0  0  0  0  0  0  0  0  0  0  0  0
  -23.6727  -24.7774   23.0402 C   0  0  0  0  0  0  0  0  0  0  0  0
  -24.8800  -13.1235   19.8880 C   0  0  0  0  0  0  0  0  0  0  0  0
  -27.0877  -12.8768   20.8378 C   0  0  0  0  0  0  0  0  0  0  0  0
  -23.9787  -30.5123   20.0555 C   0  0  0  0  0  0  0  0  0  0  0  0
  -24.1112  -10.7864   22.2073 C   0  0  0  0  0  0  0  0  0  0  0  0
  -22.8954  -10.3023   22.6901 C   0  0  0  0  0  0  0  0  0  0  0  0
  -24.5892  -29.7311   22.2546 C   0  0  0  0  0  0  0  0  0  0  0  0
  -23.4397  -24.1543   20.7176 C   0  0  0  0  0  0  0  0  0  0  0  0
  -22.4945   -9.2019   20.5769 C   0  0  0  0  0  0  0  0  0  0  0  0
  -26.2458  -15.0748   20.2932 C   0  0  0  0  0  0  0  0  0  0  0  0
  -26.3969  -17.3261   19.1029 C   0  0  0  0  0  0  0  0  0  0  0  0
  -30.4254  -23.2677   18.8517 C   0  0  0  0  0  0  0  0  0  0  0  0
  -26.2056  -29.6316   20.4553 C   0  0  0  0  0  0  0  0  0  0  0  0
  -29.3370  -24.1317   18.6250 C   0  0  0  0  0  0  0  0  0  0  0  0
  -25.8774  -29.4094   21.8003 C   0  0  0  0  0  0  0  0  0  0  0  0
  -22.1307  -25.9748   21.6170 C   0  0  0  0  0  0  0  0  0  0  0  0
  -22.4894  -25.1603   20.5430 C   0  0  0  0  0  0  0  0  0  0  0  0
  -24.0314  -23.9628   21.9662 C   0  0  0  0  0  0  0  0  0  0  0  0
  -25.8966  -12.3086   20.3861 C   0  0  0  0  0  0  0  0  0  0  0  0
  -23.6448  -30.2779   21.3861 C   0  0  0  0  0  0  0  0  0  0  0  0
  -24.5187  -10.4783   20.9093 C   0  0  0  0  0  0  0  0  0  0  0  0
  -22.0871   -9.5101   21.8748 C   0  0  0  0  0  0  0  0  0  0  0  0
  -23.7104   -9.6860   20.0941 C   0  0  0  0  0  0  0  0  0  0  0  0
  -26.4270  -16.5034   20.2449 C   0  0  0  0  0  0  0  0  0  0  0  0
  -26.6207  -18.5922   19.5858 C   0  0  0  0  0  0  0  0  0  0  0  0
  -19.6884  -28.6202   22.6644 C   0  0  0  0  0  0  0  0  0  0  0  0
  -20.3947  -29.7486   22.7961 C   0  0  0  0  0  0  0  0  0  0  0  0
  -26.1854  -16.9769   17.7285 C   0  0  0  0  0  0  0  0  0  0  0  0
  -27.7962  -26.8813   20.5534 C   0  0  0  0  0  0  0  0  0  0  0  0
  -29.3220  -28.3010   23.0390 C   0  0  0  0  0  0  0  0  0  0  0  0
  -29.2635  -30.6498   25.5143 C   0  0  0  0  0  0  0  0  0  0  0  0
  -25.6824  -22.6199   23.3141 C   0  0  0  0  0  0  0  0  0  0  0  0
  -30.7281  -22.7157   20.2222 C   0  0  0  0  0  0  0  0  0  0  0  0
  -27.5862  -29.3192   19.9466 C   0  0  0  0  0  0  0  0  0  0  0  0
  -26.8686  -28.8258   22.7726 C   0  0  0  0  0  0  0  0  0  0  0  0
  -18.1986  -28.5303   22.5494 C   0  0  0  0  0  0  0  0  0  0  0  0
  -30.0619  -23.4948   21.3534 C   0  0  0  0  0  0  0  0  0  0  0  0
  -18.0002  -27.0492   22.2666 C   0  0  0  0  0  0  0  0  0  0  0  0
  -28.1081  -20.1562   24.1644 C   0  0  0  0  0  0  0  0  0  0  0  0
  -28.5966  -23.7638   21.0255 C   0  0  0  0  0  0  0  0  0  0  0  0
  -27.8845  -19.0539   23.1265 C   0  0  0  0  0  0  0  0  0  0  0  0
  -26.7937  -20.8040   24.5958 C   0  0  0  0  0  0  0  0  0  0  0  0
  -25.7307  -20.1948   22.4585 C   0  0  0  0  0  0  0  0  0  0  0  0
  -19.1868  -26.3745   22.9367 C   0  0  0  0  0  0  0  0  0  0  0  0
  -28.4626  -24.6192   19.7599 C   0  0  1  0  0  0  0  0  0  0  0  0
  -28.3107  -28.2733   20.7883 C   0  0  1  0  0  0  0  0  0  0  0  0
  -27.0318  -19.5568   21.9452 C   0  0  2  0  0  0  0  0  0  0  0  0
  -21.8707  -25.3482   19.1967 C   0  0  0  0  0  0  0  0  0  0  0  0
  -30.6402  -31.5481   27.4103 C   0  0  0  0  0  0  0  0  0  0  0  0
  -28.6149  -25.8487   24.7112 C   0  0  0  0  0  0  0  0  0  0  0  0
  -29.1505  -27.1797   26.7630 C   0  0  0  0  0  0  0  0  0  0  0  0
  -30.9286  -26.7263   25.0731 C   0  0  0  0  0  0  0  0  0  0  0  0
  -29.3746  -33.3498   24.3074 C   0  0  0  0  0  0  0  0  0  0  0  0
  -21.1105  -27.0627   21.4539 C   0  0  0  0  0  0  0  0  0  0  0  0
  -21.8826  -29.7923   22.9076 C   0  0  0  0  0  0  0  0  0  1  0  0
  -29.0943  -28.3792   24.5294 C   0  0  1  0  0  0  0  0  0  0  0  0
  -30.2831  -31.6911   25.9390 C   0  0  2  0  0  0  0  0  0  0  0  0
  -29.4276  -27.0427   25.2506 C   0  0  0  0  0  0  0  0  0  0  0  0
  -26.6524  -17.1893   21.3687 N   0  0  0  0  0  0  0  0  0  0  0  0
  -26.7660  -18.4563   20.9351 N   0  0  0  0  0  0  0  0  0  0  0  0
  -28.2034  -28.5313   22.2257 N   0  0  0  0  0  0  0  0  0  0  0  0
  -26.0416  -21.2599   23.4247 N   0  0  0  0  0  0  0  0  0  0  0  0
  -26.7056  -19.7975   18.9836 N   0  0  0  0  0  0  0  0  0  0  0  0
  -27.2999  -16.6555   16.9417 N   0  0  0  0  0  0  0  0  0  0  0  0
  -24.9981  -22.9421   22.1426 N   0  0  0  0  0  0  0  0  0  0  0  0
  -28.7441  -26.0075   20.0560 N   0  0  0  0  0  0  0  0  0  0  0  0
  -29.8687  -29.5220   25.0012 N   0  0  0  0  0  0  0  0  0  0  0  0
  -20.3382  -27.3390   22.7125 N   0  3  1  0  0  0  0  0  0  0  0  0
  -29.7454  -33.0632   25.7171 N   0  3  0  0  0  0  0  0  0  0  0  0
  -25.0437  -16.9667   17.2090 O   0  0  0  0  0  0  0  0  0  0  0  0
  -26.6262  -26.6189   20.8063 O   0  0  0  0  0  0  0  0  0  0  0  0
  -30.4523  -28.0521   22.6122 O   0  0  0  0  0  0  0  0  0  0  0  0
  -28.0516  -30.8183   25.6298 O   0  0  0  0  0  0  0  0  0  0  0  0
  -25.9850  -23.4436   24.1812 O   0  0  0  0  0  0  0  0  0  0  0  0
  -25.7264  -10.9590   20.4318 O   0  0  0  0  0  0  0  0  0  0  0  0
  -22.3999  -30.5865   21.8408 O   0  0  0  0  0  0  0  0  0  1  0  0
  -20.9202   -9.0440   22.3391 F   0  0  0  0  0  0  0  0  0  0  0  0
  -24.0971   -9.3857   18.8467 F   0  0  0  0  0  0  0  0  0  0  0  0
  1  2  1  0  0  0  0
  1  5  2  0  0  0  0
  2  6  2  0  0  0  0
  3 10  2  0  0  0  0
  3 18  1  0  0  0  0
  4 11  1  0  0  0  0
  4 18  2  0  0  0  0
  5 20  1  0  0  0  0
  6 22  1  0  0  0  0
  7 12  2  0  0  0  0
  7 21  1  0  0  0  0
  8  9  2  0  0  0  0
  8 24  1  0  0  0  0
  9 26  1  0  0  0  0
 10 27  1  0  0  0  0
 11 27  2  0  0  0  0
 12 28  1  0  0  0  0
 13 14  2  0  0  0  0
 13 29  1  0  0  0  0
 14 30  1  0  0  0  0
 15 23  1  0  0  0  0
 15 28  2  0  0  0  0
 16 25  1  0  0  0  0
 16 26  2  0  0  0  0
 17 30  2  0  0  0  0
 17 31  1  0  0  0  0
 18 32  1  0  0  0  0
 19 32  1  0  0  0  0
 19 33  2  0  0  0  0
 19 36  1  0  0  0  0
 20 22  2  0  0  0  0
 20 41  1  0  0  0  0
 21 23  2  0  0  0  0
 21 42  1  0  0  0  0
 22 53  1  0  0  0  0
 23 43  1  0  0  0  0
 24 25  2  0  0  0  0
 24 62  1  0  0  0  0
 25 56  1  0  0  0  0
 26 73  1  0  0  0  0
 27 83  1  0  0  0  0
 28 84  1  0  0  0  0
 29 31  2  0  0  0  0
 29 83  1  0  0  0  0
 30 85  1  0  0  0  0
 31 86  1  0  0  0  0
 32 67  2  0  0  0  0
 33 68  1  0  0  0  0
 33 71  1  0  0  0  0
 34 35  2  0  0  0  0
 34 44  1  0  0  0  0
 34 76  1  0  0  0  0
 35 63  1  0  0  0  0
 36 72  1  0  0  0  0
 36 78  2  0  0  0  0
 37 54  1  0  0  0  0
 37 74  1  0  0  0  0
 37 79  2  0  0  0  0
 38 64  1  0  0  0  0
 38 69  1  0  0  0  0
 38 80  2  0  0  0  0
 39 65  1  0  0  0  0
 39 75  1  0  0  0  0
 39 81  2  0  0  0  0
 40 70  1  0  0  0  0
 40 73  1  0  0  0  0
 40 82  2  0  0  0  0
 41 45  1  0  0  0  0
 42 54  1  0  0  0  0
 43 69  1  0  0  0  0
 44 46  1  0  0  0  0
 45 48  1  0  0  0  0
 46 52  1  0  0  0  0
 47 49  1  0  0  0  0
 47 50  1  0  0  0  0
 48 53  1  0  0  0  0
 49 55  1  0  0  0  0
 50 70  1  0  0  0  0
 51 55  1  0  0  0  0
 51 70  1  0  0  0  0
 52 76  1  0  0  0  0
 53 74  1  0  0  0  0
 54 69  1  0  0  0  0
 55 68  1  0  0  0  0
 57 65  1  0  0  0  0
 58 66  1  0  0  0  0
 59 66  1  0  0  0  0
 60 66  1  0  0  0  0
 61 77  1  0  0  0  0
 62 76  1  0  0  0  0
 63 84  1  0  0  0  0
 64 66  1  0  0  0  0
 64 75  1  0  0  0  0
 65 77  1  0  0  0  0
 67 68  1  0  0  0  0
M  CHG  2  76   1  77   1
M  ISO  4  40 100  63 101  73 100  84 101
M  END
> <Batch ID>
0034

> <Smiles>
CNC(C)C(=O)NC(C(=O)N1Cc2cc([101O:1][101CH2:1]C=C3CCCN3Cc3ccc([100NH:0][100C:0](=O)N4CCCC(n5nc(-c6ccc(Oc7ccc(F)cc7F)cc6)c(C(N)=O)c5N)C4)cc3C)ccc2CC1C(=O)NC1CCCc2ccccc21)C(C)(C)C

> <Shape>
0.241

> <Color>
0.059

> <Negative vol penalty>
0.000

$$$$

  -OEChem-04042321483D

 86 95  0     1  0  0  0  0  0999 V2000
  -25.0587  -35.7276   22.0459 C   0  0  0  0  0  0  0  0  0  0  0  0
  -25.7938  -34.5472   22.0043 C   0  0  0  0  0  0  0  0  0  0  0  0
  -23.5134   -9.7521   21.7911 C   0  0  0  0  0  0  0  0  0  0  0  0
  -25.1486  -10.4037   23.4460 C   0  0  0  0  0  0  0  0  0  0  0  0
  -23.7580  -35.7201   22.5479 C   0  0  0  0  0  0  0  0  0  0  0  0
  -25.2289  -33.3587   22.4657 C   0  0  0  0  0  0  0  0  0  0  0  0
  -26.0814  -29.4624   19.3453 C   0  0  0  0  0  0  0  0  0  0  0  0
  -30.7125  -20.2345   20.5318 C   0  0  0  0  0  0  0  0  0  0  0  0
  -30.4626  -18.9102   20.1724 C   0  0  0  0  0  0  0  0  0  0  0  0
  -23.1310   -8.6764   22.5925 C   0  0  0  0  0  0  0  0  0  0  0  0
  -24.7662   -9.3280   24.2475 C   0  0  0  0  0  0  0  0  0  0  0  0
  -27.3437  -28.8726   19.3933 C   0  0  0  0  0  0  0  0  0  0  0  0
  -21.2195   -8.1692   25.3351 C   0  0  0  0  0  0  0  0  0  0  0  0
  -19.8540   -7.9387   25.5023 C   0  0  0  0  0  0  0  0  0  0  0  0
  -26.4563  -27.0994   20.7671 C   0  0  0  0  0  0  0  0  0  0  0  0
  -20.1069   -5.7393   24.5348 C   0  0  0  0  0  0  0  0  0  0  0  0
  -24.5223  -10.6157   22.2179 C   0  0  0  0  0  0  0  0  0  0  0  0
  -24.1083  -12.7917   20.9525 C   0  0  0  0  0  0  0  0  0  0  0  0
  -23.1734  -34.5291   23.0068 C   0  0  0  0  0  0  0  0  0  0  0  0
  -24.9975  -28.8800   20.0180 C   0  0  0  0  0  0  0  0  0  0  0  0
  -23.9196  -33.3356   22.9756 C   0  0  0  0  0  0  0  0  0  0  0  0
  -25.1807  -27.6824   20.7239 C   0  0  0  0  0  0  0  0  0  0  0  0
  -29.6543  -21.0749   20.8779 C   0  0  0  0  0  0  0  0  0  0  0  0
  -28.3462  -20.5909   20.8643 C   0  0  0  0  0  0  0  0  0  0  0  0
  -29.1544  -18.4262   20.1588 C   0  0  0  0  0  0  0  0  0  0  0  0
  -23.7573   -8.4643   23.8207 C   0  0  0  0  0  0  0  0  0  0  0  0
  -27.5320  -27.6925   20.1067 C   0  0  0  0  0  0  0  0  0  0  0  0
  -22.0287   -7.1848   24.7676 C   0  0  0  0  0  0  0  0  0  0  0  0
  -19.2977   -6.7237   25.1022 C   0  0  0  0  0  0  0  0  0  0  0  0
  -21.4724   -5.9699   24.3675 C   0  0  0  0  0  0  0  0  0  0  0  0
  -28.0962  -19.2666   20.5048 C   0  0  0  0  0  0  0  0  0  0  0  0
  -24.9182  -11.7267   21.3902 C   0  0  0  0  0  0  0  0  0  0  0  0
  -24.9488  -13.5759   20.2008 C   0  0  0  0  0  0  0  0  0  0  0  0
  -22.7202  -13.0492   21.2030 C   0  0  0  0  0  0  0  0  0  0  0  0
  -23.0691  -29.7903   22.3752 C   0  0  0  0  0  0  0  0  0  0  0  0
  -21.5315  -27.0246   21.6617 C   0  0  0  0  0  0  0  0  0  0  0  0
  -22.4547  -23.6383   20.8264 C   0  0  0  0  0  0  0  0  0  0  0  0
  -29.8418  -16.1170   19.4230 C   0  0  0  0  0  0  0  0  0  0  0  0
  -21.7812  -34.5794   23.5845 C   0  0  0  0  0  0  0  0  0  0  0  0
  -23.6363  -29.5144   19.9342 C   0  0  0  0  0  0  0  0  0  0  0  0
  -24.0452  -27.0062   21.4464 C   0  0  0  0  0  0  0  0  0  0  0  0
  -21.1224  -33.2078   23.7066 C   0  0  0  0  0  0  0  0  0  0  0  0
  -29.6289  -12.6878   18.4890 C   0  0  0  0  0  0  0  0  0  0  0  0
  -30.1415  -24.4103   17.9554 C   0  0  0  0  0  0  0  0  0  0  0  0
  -22.0905  -32.2038   24.3244 C   0  0  0  0  0  0  0  0  0  0  0  0
  -28.3177  -12.2197   19.1245 C   0  0  0  0  0  0  0  0  0  0  0  0
  -29.8587  -25.8152   18.4710 C   0  0  0  0  0  0  0  0  0  0  0  0
  -30.3649  -13.6881   19.3786 C   0  0  0  0  0  0  0  0  0  0  0  0
  -28.2531  -14.3724   20.4468 C   0  0  0  0  0  0  0  0  0  0  0  0
  -30.6100  -23.4858   19.0701 C   0  0  0  0  0  0  0  0  0  0  0  0
  -29.3506  -24.8592   20.7486 C   0  0  0  0  0  0  0  0  0  0  0  0
  -23.3327  -32.0217   23.4439 C   0  0  1  0  0  0  0  0  0  0  0  0
  -22.7170  -29.1100   21.0826 C   0  0  1  0  0  0  0  0  0  0  0  0
  -27.4442  -13.4131   19.5585 C   0  0  2  0  0  0  0  0  0  0  0  0
  -28.8799  -25.7924   19.6408 C   0  0  1  0  0  0  0  0  0  1  0  0
  -27.2000  -21.4753   21.2321 C   0  0  0  0  0  0  0  0  0  0  0  0
  -21.2376  -21.8979   19.4895 C   0  0  0  0  0  0  0  0  0  0  0  0
  -20.4775  -26.0970   24.3707 C   0  0  0  0  0  0  0  0  0  0  0  0
  -20.6944  -23.7354   23.5683 C   0  0  0  0  0  0  0  0  0  0  0  0
  -19.1449  -25.3080   22.4071 C   0  0  0  0  0  0  0  0  0  0  0  0
  -24.7528  -23.2683   18.9986 C   0  0  0  0  0  0  0  0  0  0  0  0
  -29.9484  -22.4954   21.2607 C   0  0  0  0  0  0  0  0  0  0  0  0
  -21.6410  -25.5910   22.1221 C   0  0  1  0  0  0  0  0  0  0  0  0
  -22.3188  -22.9672   19.4715 C   0  0  2  0  0  0  0  0  0  0  0  0
  -20.5120  -25.2003   23.1171 C   0  0  0  0  0  0  0  0  0  0  0  0
  -26.1766  -11.8224   20.9529 N   0  0  0  0  0  0  0  0  0  0  0  0
  -26.1637  -12.9568   20.2325 N   0  0  0  0  0  0  0  0  0  0  0  0
  -22.7347  -27.6686   21.3400 N   0  0  0  0  0  0  0  0  0  0  0  0
  -29.4767  -14.7930   19.7463 N   0  0  0  0  0  0  0  0  0  0  0  0
  -24.7598  -14.7276   19.5223 N   0  0  0  0  0  0  0  0  0  0  0  0
  -22.0049  -12.1417   21.9961 N   0  0  0  0  0  0  0  0  0  0  0  0
  -28.9039  -17.0804   19.7930 N   0  0  0  0  0  0  0  0  0  0  0  0
  -23.0306  -31.1702   22.3134 N   0  0  0  0  0  0  0  0  0  0  0  0
  -21.6803  -24.7758   20.9128 N   0  0  0  0  0  0  0  0  0  0  0  0
  -29.5900  -23.4822   20.1838 N   0  3  2  0  0  0  0  0  0  0  0  0
  -23.6062  -22.3272   19.0790 N   0  3  0  0  0  0  0  0  0  0  0  0
  -22.1277  -14.0455   20.7237 O   0  0  0  0  0  0  0  0  0  0  0  0
  -23.3533  -29.1133   23.3563 O   0  0  0  0  0  0  0  0  0  0  0  0
  -20.4188  -27.5513   21.5833 O   0  0  0  0  0  0  0  0  0  0  0  0
  -23.1729  -23.1954   21.7200 O   0  0  0  0  0  0  0  0  0  0  0  0
  -30.8953  -16.3745   18.8350 O   0  0  0  0  0  0  0  0  0  0  0  0
  -23.3842   -7.4149   24.6030 O   0  0  0  0  0  0  0  0  0  0  0  0
  -28.7633  -27.1150   20.1557 O   0  0  0  0  0  0  0  0  0  1  0  0
  -17.9867   -6.5019   25.2642 F   0  0  0  0  0  0  0  0  0  0  0  0
  -22.2449   -5.0200   23.8229 F   0  0  0  0  0  0  0  0  0  0  0  0
  -26.8375  -18.8021   20.4919 F   0  0  0  0  0  0  0  0  0  0  0  0
  1  2  1  0  0  0  0
  1  5  2  0  0  0  0
  2  6  2  0  0  0  0
  3 10  2  0  0  0  0
  3 17  1  0  0  0  0
  4 11  1  0  0  0  0
  4 17  2  0  0  0  0
  5 19  1  0  0  0  0
  6 21  1  0  0  0  0
  7 12  2  0  0  0  0
  7 20  1  0  0  0  0
  8  9  2  0  0  0  0
  8 23  1  0  0  0  0
  9 25  1  0  0  0  0
 10 26  1  0  0  0  0
 11 26  2  0  0  0  0
 12 27  1  0  0  0  0
 13 14  2  0  0  0  0
 13 28  1  0  0  0  0
 14 29  1  0  0  0  0
 15 22  1  0  0  0  0
 15 27  2  0  0  0  0
 16 29  2  0  0  0  0
 16 30  1  0  0  0  0
 17 32  1  0  0  0  0
 18 32  1  0  0  0  0
 18 33  2  0  0  0  0
 18 34  1  0  0  0  0
 19 21  2  0  0  0  0
 19 39  1  0  0  0  0
 20 22  2  0  0  0  0
 20 40  1  0  0  0  0
 21 52  1  0  0  0  0
 22 41  1  0  0  0  0
 23 24  2  0  0  0  0
 23 62  1  0  0  0  0
 24 31  1  0  0  0  0
 24 56  1  0  0  0  0
 25 31  2  0  0  0  0
 25 72  1  0  0  0  0
 26 82  1  0  0  0  0
 27 83  1  0  0  0  0
 28 30  2  0  0  0  0
 28 82  1  0  0  0  0
 29 84  1  0  0  0  0
 30 85  1  0  0  0  0
 31 86  1  0  0  0  0
 32 66  2  0  0  0  0
 33 67  1  0  0  0  0
 33 70  1  0  0  0  0
 34 71  1  0  0  0  0
 34 77  2  0  0  0  0
 35 53  1  0  0  0  0
 35 73  1  0  0  0  0
 35 78  2  0  0  0  0
 36 63  1  0  0  0  0
 36 68  1  0  0  0  0
 36 79  2  0  0  0  0
 37 64  1  0  0  0  0
 37 74  1  0  0  0  0
 37 80  2  0  0  0  0
 38 69  1  0  0  0  0
 38 72  1  0  0  0  0
 38 81  2  0  0  0  0
 39 42  1  0  0  0  0
 40 53  1  0  0  0  0
 41 68  1  0  0  0  0
 42 45  1  0  0  0  0
 43 46  1  0  0  0  0
 43 48  1  0  0  0  0
 44 47  1  0  0  0  0
 44 50  1  0  0  0  0
 45 52  1  0  0  0  0
 46 54  1  0  0  0  0
 47 55  1  0  0  0  0
 48 69  1  0  0  0  0
 49 54  1  0  0  0  0
 49 69  1  0  0  0  0
 50 75  1  0  0  0  0
 51 55  1  0  0  0  0
 51 75  1  0  0  0  0
 52 73  1  0  0  0  0
 53 68  1  0  0  0  0
 54 67  1  0  0  0  0
 55 83  1  0  0  0  0
 57 64  1  0  0  0  0
 58 65  1  0  0  0  0
 59 65  1  0  0  0  0
 60 65  1  0  0  0  0
 61 76  1  0  0  0  0
 62 75  1  0  0  0  0
 63 65  1  0  0  0  0
 63 74  1  0  0  0  0
 64 76  1  0  0  0  0
 66 67  1  0  0  0  0
M  CHG  2  75   1  76   1
M  ISO  4  38 100  55 101  72 100  83 101
M  END
> <Batch ID>
0034

> <Smiles>
CNC(C)C(=O)NC(C(=O)N1Cc2cc([101O:1][101CH:1]3CCCN(Cc4ccc([100NH:0][100C:0](=O)N5CCCC(n6nc(-c7ccc(Oc8ccc(F)cc8F)cc7)c(C(N)=O)c6N)C5)c(F)c4C)C3)ccc2CC1C(=O)NC1CCCc2ccccc21)C(C)(C)C

> <Shape>
0.329

> <Color>
0.137

> <Negative vol penalty>
0.000

$$$$

  -OEChem-04042321483D

 85 94  0     1  0  0  0  0  0999 V2000
  -27.1238  -29.4061   27.9524 C   0  0  0  0  0  0  0  0  0  0  0  0
  -27.6058  -28.4794   27.0335 C   0  0  0  0  0  0  0  0  0  0  0  0
  -23.0648   -9.9070   19.8805 C   0  0  0  0  0  0  0  0  0  0  0  0
  -23.8945   -9.7592   22.1448 C   0  0  0  0  0  0  0  0  0  0  0  0
  -25.8687  -29.9837   27.7651 C   0  0  0  0  0  0  0  0  0  0  0  0
  -26.8325  -28.1289   25.9274 C   0  0  0  0  0  0  0  0  0  0  0  0
  -28.8517  -26.7384   20.3154 C   0  0  0  0  0  0  0  0  0  0  0  0
  -31.5658  -18.4215   20.3461 C   0  0  0  0  0  0  0  0  0  0  0  0
  -31.3640  -19.5105   19.4982 C   0  0  0  0  0  0  0  0  0  0  0  0
  -22.3363   -8.7329   20.0707 C   0  0  0  0  0  0  0  0  0  0  0  0
  -23.1659   -8.5850   22.3351 C   0  0  0  0  0  0  0  0  0  0  0  0
  -29.0799  -25.5209   19.6756 C   0  0  0  0  0  0  0  0  0  0  0  0
  -19.9628   -7.7194   22.9766 C   0  0  0  0  0  0  0  0  0  0  0  0
  -19.2423   -7.5908   24.1639 C   0  0  0  0  0  0  0  0  0  0  0  0
  -26.8959  -25.6524   18.6595 C   0  0  0  0  0  0  0  0  0  0  0  0
  -20.5179   -5.6170   24.7242 C   0  0  0  0  0  0  0  0  0  0  0  0
  -23.8440  -10.4202   20.9175 C   0  0  0  0  0  0  0  0  0  0  0  0
  -24.1660  -12.9503   20.9657 C   0  0  0  0  0  0  0  0  0  0  0  0
  -25.0837  -29.6474   26.6510 C   0  0  0  0  0  0  0  0  0  0  0  0
  -27.6376  -27.4179   20.1404 C   0  0  0  0  0  0  0  0  0  0  0  0
  -25.5652  -28.7016   25.7258 C   0  0  0  0  0  0  0  0  0  0  0  0
  -26.6559  -26.8796   19.2962 C   0  0  0  0  0  0  0  0  0  0  0  0
  -30.5502  -18.0130   21.2106 C   0  0  0  0  0  0  0  0  0  0  0  0
  -29.1309  -19.7827   20.3795 C   0  0  0  0  0  0  0  0  0  0  0  0
  -30.1466  -20.1911   19.5149 C   0  0  0  0  0  0  0  0  0  0  0  0
  -22.3868   -8.0719   21.2980 C   0  0  0  0  0  0  0  0  0  0  0  0
  -28.1008  -24.9763   18.8498 C   0  0  0  0  0  0  0  0  0  0  0  0
  -20.9608   -6.7968   22.6629 C   0  0  0  0  0  0  0  0  0  0  0  0
  -19.5199   -6.5397   25.0378 C   0  0  0  0  0  0  0  0  0  0  0  0
  -21.2384   -5.7456   23.5368 C   0  0  0  0  0  0  0  0  0  0  0  0
  -29.3328  -18.6936   21.2273 C   0  0  0  0  0  0  0  0  0  0  0  0
  -24.5973  -11.6327   20.7214 C   0  0  0  0  0  0  0  0  0  0  0  0
  -25.2417  -13.7327   20.6235 C   0  0  0  0  0  0  0  0  0  0  0  0
  -22.9056  -13.4246   21.4580 C   0  0  0  0  0  0  0  0  0  0  0  0
  -25.2695  -28.3109   22.0634 C   0  0  0  0  0  0  0  0  0  0  0  0
  -24.1801  -29.7934   19.3917 C   0  0  0  0  0  0  0  0  0  0  0  0
  -24.1400  -29.9607   15.9833 C   0  0  0  0  0  0  0  0  0  0  0  0
  -30.7221  -14.7825   20.7184 C   0  0  0  0  0  0  0  0  0  0  0  0
  -23.7134  -30.2627   26.5161 C   0  0  0  0  0  0  0  0  0  0  0  0
  -27.4175  -28.7433   20.8165 C   0  0  0  0  0  0  0  0  0  0  0  0
  -25.3434  -27.5795   19.0591 C   0  0  0  0  0  0  0  0  0  0  0  0
  -23.1154  -30.1177   25.1191 C   0  0  0  0  0  0  0  0  0  0  0  0
  -29.5272  -12.5621   18.2046 C   0  0  0  0  0  0  0  0  0  0  0  0
  -23.2836  -28.6889   24.6121 C   0  0  0  0  0  0  0  0  0  0  0  0
  -28.1055  -12.2265   18.6588 C   0  0  0  0  0  0  0  0  0  0  0  0
  -29.7055  -22.5287   16.6969 C   0  0  0  0  0  0  0  0  0  0  0  0
  -30.4792  -12.7057   19.3900 C   0  0  0  0  0  0  0  0  0  0  0  0
  -29.4345  -21.1565   17.3135 C   0  0  0  0  0  0  0  0  0  0  0  0
  -28.6161  -13.3213   20.8812 C   0  0  0  0  0  0  0  0  0  0  0  0
  -30.2851  -22.6489   19.0223 C   0  0  0  0  0  0  0  0  0  0  0  0
  -24.7664  -28.3143   24.5002 C   0  0  1  0  0  0  0  0  0  0  0  0
  -25.9416  -29.0964   20.9731 C   0  0  1  0  0  0  0  0  0  0  0  0
  -27.6075  -13.2217   19.7240 C   0  0  2  0  0  0  0  0  0  0  0  0
  -29.6673  -23.4704   17.8916 C   0  0  2  0  0  0  0  0  0  1  0  0
  -27.8299  -20.5258   20.3844 C   0  0  0  0  0  0  0  0  0  0  0  0
  -23.1277  -31.2546   14.0864 C   0  0  0  0  0  0  0  0  0  0  0  0
  -21.5322  -28.3374   19.8148 C   0  0  0  0  0  0  0  0  0  0  0  0
  -20.9258  -28.8989   17.4515 C   0  0  0  0  0  0  0  0  0  0  0  0
  -21.3081  -30.7255   19.1068 C   0  0  0  0  0  0  0  0  0  0  0  0
  -26.7944  -30.8391   15.0130 C   0  0  0  0  0  0  0  0  0  0  0  0
  -30.8121  -16.8412   22.1013 C   0  0  0  0  0  0  0  0  0  0  0  0
  -23.2819  -29.4025   18.2431 C   0  0  1  0  0  0  0  0  0  0  0  0
  -24.3136  -31.1293   15.0301 C   0  0  2  0  0  0  0  0  0  0  0  0
  -21.7859  -29.3267   18.6599 C   0  0  0  0  0  0  0  0  0  0  0  0
  -25.8493  -11.5772   20.2596 N   0  0  0  0  0  0  0  0  0  0  0  0
  -26.2140  -12.8698   20.2109 N   0  0  0  0  0  0  0  0  0  0  0  0
  -29.9680  -21.2648   18.6681 N   0  0  3  0  0  0  0  0  0  0  0  0
  -25.1731  -28.8697   19.7475 N   0  0  0  0  0  0  0  0  0  0  0  0
  -29.9495  -13.6647   20.3624 N   0  0  0  0  0  0  0  0  0  0  0  0
  -25.4413  -15.0677   20.6383 N   0  0  0  0  0  0  0  0  0  0  0  0
  -21.9103  -12.4854   21.7605 N   0  0  0  0  0  0  0  0  0  0  0  0
  -25.3473  -28.8999   23.3110 N   0  0  0  0  0  0  0  0  0  0  0  0
  -23.5557  -30.3517   17.1695 N   0  0  0  0  0  0  0  0  0  0  0  0
  -30.1431  -15.6447   21.6415 N   0  0  0  0  0  0  0  0  0  0  0  0
  -25.5475  -30.9526   14.2133 N   0  3  0  0  0  0  0  0  0  0  0  0
  -22.6635  -14.6461   21.6091 O   0  0  0  0  0  0  0  0  0  0  0  0
  -24.7195  -27.2498   21.7926 O   0  0  0  0  0  0  0  0  0  0  0  0
  -24.0116  -30.8814   19.9480 O   0  0  0  0  0  0  0  0  0  0  0  0
  -24.4845  -28.8150   15.7022 O   0  0  0  0  0  0  0  0  0  0  0  0
  -31.8425  -14.9990   20.2443 O   0  0  0  0  0  0  0  0  0  0  0  0
  -21.6758   -6.9263   21.4841 O   0  0  0  0  0  0  0  0  0  0  0  0
  -28.3207  -23.7877   18.2246 O   0  0  0  0  0  0  0  0  0  1  0  0
  -18.8289   -6.4172   26.1788 F   0  0  0  0  0  0  0  0  0  0  0  0
  -22.1969   -4.8568   23.2415 F   0  0  0  0  0  0  0  0  0  0  0  0
  -28.0754  -18.1845   22.3050 Cl  0  0  0  0  0  0  0  0  0  0  0  0
  1  2  1  0  0  0  0
  1  5  2  0  0  0  0
  2  6  2  0  0  0  0
  3 10  2  0  0  0  0
  3 17  1  0  0  0  0
  4 11  1  0  0  0  0
  4 17  2  0  0  0  0
  5 19  1  0  0  0  0
  6 21  1  0  0  0  0
  7 12  2  0  0  0  0
  7 20  1  0  0  0  0
  8  9  2  0  0  0  0
  8 23  1  0  0  0  0
  9 25  1  0  0  0  0
 10 26  1  0  0  0  0
 11 26  2  0  0  0  0
 12 27  1  0  0  0  0
 13 14  2  0  0  0  0
 13 28  1  0  0  0  0
 14 29  1  0  0  0  0
 15 22  1  0  0  0  0
 15 27  2  0  0  0  0
 16 29  2  0  0  0  0
 16 30  1  0  0  0  0
 17 32  1  0  0  0  0
 18 32  1  0  0  0  0
 18 33  2  0  0  0  0
 18 34  1  0  0  0  0
 19 21  2  0  0  0  0
 19 39  1  0  0  0  0
 20 22  2  0  0  0  0
 20 40  1  0  0  0  0
 21 51  1  0  0  0  0
 22 41  1  0  0  0  0
 23 31  2  0  0  0  0
 23 61  1  0  0  0  0
 24 25  2  0  0  0  0
 24 31  1  0  0  0  0
 24 55  1  0  0  0  0
 25 67  1  0  0  0  0
 26 81  1  0  0  0  0
 27 82  1  0  0  0  0
 28 30  2  0  0  0  0
 28 81  1  0  0  0  0
 29 83  1  0  0  0  0
 30 84  1  0  0  0  0
 31 85  1  0  0  0  0
 32 65  2  0  0  0  0
 33 66  1  0  0  0  0
 33 70  1  0  0  0  0
 34 71  1  0  0  0  0
 34 76  2  0  0  0  0
 35 52  1  0  0  0  0
 35 72  1  0  0  0  0
 35 77  2  0  0  0  0
 36 62  1  0  0  0  0
 36 68  1  0  0  0  0
 36 78  2  0  0  0  0
 37 63  1  0  0  0  0
 37 73  1  0  0  0  0
 37 79  2  0  0  0  0
 38 69  1  0  0  0  0
 38 74  1  0  0  0  0
 38 80  2  0  0  0  0
 39 42  1  0  0  0  0
 40 52  1  0  0  0  0
 41 68  1  0  0  0  0
 42 44  1  0  0  0  0
 43 45  1  0  0  0  0
 43 47  1  0  0  0  0
 44 51  1  0  0  0  0
 45 53  1  0  0  0  0
 46 48  1  0  0  0  0
 46 54  1  0  0  0  0
 47 69  1  0  0  0  0
 48 67  1  0  0  0  0
 49 53  1  0  0  0  0
 49 69  1  0  0  0  0
 50 54  1  0  0  0  0
 50 67  1  0  0  0  0
 51 72  1  0  0  0  0
 52 68  1  0  0  0  0
 53 66  1  0  0  0  0
 54 82  1  0  0  0  0
 56 63  1  0  0  0  0
 57 64  1  0  0  0  0
 58 64  1  0  0  0  0
 59 64  1  0  0  0  0
 60 75  1  0  0  0  0
 61 74  1  0  0  0  0
 62 64  1  0  0  0  0
 62 73  1  0  0  0  0
 63 75  1  0  0  0  0
 65 66  1  0  0  0  0
M  CHG  1  75   1
M  ISO  4  38 100  54 101  74 100  82 101
M  END
> <Batch ID>
0034

> <Smiles>
CNC(C)C(=O)NC(C(=O)N1Cc2cc([101O:1][101CH:1]3CCN(c4ccc(C[100NH:0][100C:0](=O)N5CCCC(n6nc(-c7ccc(Oc8ccc(F)cc8F)cc7)c(C(N)=O)c6N)C5)c(Cl)c4C)C3)ccc2CC1C(=O)NC1CCCc2ccccc21)C(C)(C)C

> <Shape>
0.326

> <Color>
0.219

> <Negative vol penalty>
0.000

$$$$

  -OEChem-04042321483D

 87 96  0     1  0  0  0  0  0999 V2000
  -39.6585  -26.1768   14.0371 C   0  0  0  0  0  0  0  0  0  0  0  0
  -39.3392  -25.4905   15.2043 C   0  0  0  0  0  0  0  0  0  0  0  0
  -23.0734   -9.8686   19.9426 C   0  0  0  0  0  0  0  0  0  0  0  0
  -23.8313   -9.8783   22.2367 C   0  0  0  0  0  0  0  0  0  0  0  0
  -38.8239  -27.1947   13.5777 C   0  0  0  0  0  0  0  0  0  0  0  0
  -38.1854  -25.8226   15.9135 C   0  0  0  0  0  0  0  0  0  0  0  0
  -35.5704  -21.7445   17.3886 C   0  0  0  0  0  0  0  0  0  0  0  0
  -22.3284   -8.7164   20.1936 C   0  0  0  0  0  0  0  0  0  0  0  0
  -23.0862   -8.7261   22.4877 C   0  0  0  0  0  0  0  0  0  0  0  0
  -36.0458  -21.0513   18.5009 C   0  0  0  0  0  0  0  0  0  0  0  0
  -19.3783   -7.9242   21.6433 C   0  0  0  0  0  0  0  0  0  0  0  0
  -18.0718   -7.8783   21.1569 C   0  0  0  0  0  0  0  0  0  0  0  0
  -34.3996  -22.1487   19.8810 C   0  0  0  0  0  0  0  0  0  0  0  0
  -32.0653  -16.5904   22.5340 C   0  0  0  0  0  0  0  0  0  0  0  0
  -18.6312   -5.9328   19.8380 C   0  0  0  0  0  0  0  0  0  0  0  0
  -23.8249  -10.4495   20.9641 C   0  0  0  0  0  0  0  0  0  0  0  0
  -24.1688  -12.9742   20.8407 C   0  0  0  0  0  0  0  0  0  0  0  0
  -37.6542  -27.5329   14.2764 C   0  0  0  0  0  0  0  0  0  0  0  0
  -34.5113  -22.6547   17.5165 C   0  0  0  0  0  0  0  0  0  0  0  0
  -37.3350  -26.8469   15.4638 C   0  0  0  0  0  0  0  0  0  0  0  0
  -33.9108  -22.8503   18.7684 C   0  0  0  0  0  0  0  0  0  0  0  0
  -32.6730  -17.4667   23.4330 C   0  0  0  0  0  0  0  0  0  0  0  0
  -31.8934  -18.3425   24.1885 C   0  0  0  0  0  0  0  0  0  0  0  0
  -30.5059  -18.3419   24.0450 C   0  0  0  0  0  0  0  0  0  0  0  0
  -29.8981  -17.4655   23.1459 C   0  0  0  0  0  0  0  0  0  0  0  0
  -30.6778  -16.5898   22.3904 C   0  0  0  0  0  0  0  0  0  0  0  0
  -22.3348   -8.1451   21.4661 C   0  0  0  0  0  0  0  0  0  0  0  0
  -35.4623  -21.2554   19.7479 C   0  0  0  0  0  0  0  0  0  0  0  0
  -20.3113   -6.9745   21.2270 C   0  0  0  0  0  0  0  0  0  0  0  0
  -17.6982   -6.8826   20.2543 C   0  0  0  0  0  0  0  0  0  0  0  0
  -19.9377   -5.9788   20.3244 C   0  0  0  0  0  0  0  0  0  0  0  0
  -24.5951  -11.6394   20.7054 C   0  0  0  0  0  0  0  0  0  0  0  0
  -25.2619  -13.7223   20.4774 C   0  0  0  0  0  0  0  0  0  0  0  0
  -36.2629  -18.5727   23.0004 C   0  0  0  0  0  0  0  0  0  0  0  0
  -36.8735  -18.7301   24.1808 C   0  0  0  0  0  0  0  0  0  0  0  0
  -22.8983  -13.4916   21.2577 C   0  0  0  0  0  0  0  0  0  0  0  0
  -34.1686  -25.7788   17.0405 C   0  0  0  0  0  0  0  0  0  0  0  0
  -31.0507  -25.1367   17.6638 C   0  0  0  0  0  0  0  0  0  0  0  0
  -29.1963  -23.1017   19.9956 C   0  0  0  0  0  0  0  0  0  0  0  0
  -30.7287  -14.7639   20.6555 C   0  0  0  0  0  0  0  0  0  0  0  0
  -36.8079  -28.6724   13.7665 C   0  0  0  0  0  0  0  0  0  0  0  0
  -33.9925  -23.3747   16.3020 C   0  0  0  0  0  0  0  0  0  0  0  0
  -32.7579  -23.8012   18.9551 C   0  0  0  0  0  0  0  0  0  0  0  0
  -36.9436  -18.5446   21.6676 C   0  0  0  0  0  0  0  0  0  0  0  0
  -35.4078  -28.7104   14.3738 C   0  0  0  0  0  0  0  0  0  0  0  0
  -29.6146  -12.3475   18.2898 C   0  0  0  0  0  0  0  0  0  0  0  0
  -35.4767  -28.5244   15.8862 C   0  0  0  0  0  0  0  0  0  0  0  0
  -28.1743  -12.0577   18.7185 C   0  0  0  0  0  0  0  0  0  0  0  0
  -30.5288  -12.5774   19.4919 C   0  0  0  0  0  0  0  0  0  0  0  0
  -28.6211  -13.3053   20.8704 C   0  0  0  0  0  0  0  0  0  0  0  0
  -34.5539  -18.6874   21.4032 C   0  0  0  0  0  0  0  0  0  0  0  0
  -36.0792  -27.1614   16.2476 C   0  0  1  0  0  0  0  0  0  0  0  0
  -33.2465  -24.6610   16.6432 C   0  0  1  0  0  0  0  0  0  0  0  0
  -27.6492  -13.1311   19.6919 C   0  0  2  0  0  0  0  0  0  0  0  0
  -35.8646  -19.1589   20.7895 C   0  0  1  0  0  0  0  0  0  1  0  0
  -32.5486  -19.2820   25.1510 C   0  0  0  0  0  0  0  0  0  0  0  0
  -29.6701  -19.2817   24.8557 C   0  0  0  0  0  0  0  0  0  0  0  0
  -28.4091  -17.4680   22.9924 C   0  0  0  0  0  0  0  0  0  0  0  0
  -26.9224  -22.0582   19.8010 C   0  0  0  0  0  0  0  0  0  0  0  0
  -30.0870  -27.6691   19.0667 C   0  0  0  0  0  0  0  0  0  0  0  0
  -28.4618  -26.2583   20.3460 C   0  0  0  0  0  0  0  0  0  0  0  0
  -28.3007  -26.4006   17.8608 C   0  0  0  0  0  0  0  0  0  0  0  0
  -30.2570  -20.4025   20.5854 C   0  0  0  0  0  0  0  0  0  0  0  0
  -34.1674  -17.4498   23.5657 C   0  0  0  0  0  0  0  0  0  0  0  0
  -30.1957  -25.0945   18.9073 C   0  0  1  0  0  0  0  0  0  0  0  0
  -28.4218  -21.8348   19.6802 C   0  0  2  0  0  0  0  0  0  0  0  0
  -29.2892  -26.3500   19.0461 C   0  0  0  0  0  0  0  0  0  0  0  0
  -25.8603  -11.5420   20.2884 N   0  0  0  0  0  0  0  0  0  0  0  0
  -26.2383  -12.8251   20.1585 N   0  0  0  0  0  0  0  0  0  0  0  0
  -32.2905  -24.4863   17.7386 N   0  0  0  0  0  0  0  0  0  0  0  0
  -29.9698  -13.6099   20.3673 N   0  0  0  0  0  0  0  0  0  0  0  0
  -25.4734  -15.0535   20.4026 N   0  0  0  0  0  0  0  0  0  0  0  0
  -21.8854  -12.5838   21.5954 N   0  0  0  0  0  0  0  0  0  0  0  0
  -30.0813  -15.6907   21.4720 N   0  0  0  0  0  0  0  0  0  0  0  0
  -35.0974  -26.1126   16.0733 N   0  0  0  0  0  0  0  0  0  0  0  0
  -29.4653  -23.8326   18.8578 N   0  0  0  0  0  0  0  0  0  0  0  0
  -34.8292  -18.6205   22.9031 N   0  3  1  0  0  0  0  0  0  0  0  0
  -28.8112  -20.7429   20.6167 N   0  3  0  0  0  0  0  0  0  0  0  0
  -22.6630  -14.7225   21.3131 O   0  0  0  0  0  0  0  0  0  0  0  0
  -34.0456  -26.3008   18.1423 O   0  0  0  0  0  0  0  0  0  0  0  0
  -30.6307  -25.7190   16.6607 O   0  0  0  0  0  0  0  0  0  0  0  0
  -29.5262  -23.4139   21.1377 O   0  0  0  0  0  0  0  0  0  0  0  0
  -31.8584  -14.9311   20.1887 O   0  0  0  0  0  0  0  0  0  0  0  0
  -21.6077   -7.0210   21.7114 O   0  0  0  0  0  0  0  0  0  0  0  0
  -35.9249  -20.5806   20.8353 O   0  0  0  0  0  0  0  0  0  1  0  0
  -16.4432   -6.8377   19.7885 F   0  0  0  0  0  0  0  0  0  0  0  0
  -20.8293   -5.0630   19.9217 F   0  0  0  0  0  0  0  0  0  0  0  0
  1  2  1  0  0  0  0
  1  5  2  0  0  0  0
  2  6  2  0  0  0  0
  3  8  2  0  0  0  0
  3 16  1  0  0  0  0
  4  9  1  0  0  0  0
  4 16  2  0  0  0  0
  5 18  1  0  0  0  0
  6 20  1  0  0  0  0
  7 10  2  0  0  0  0
  7 19  1  0  0  0  0
  8 27  1  0  0  0  0
  9 27  2  0  0  0  0
 10 28  1  0  0  0  0
 11 12  2  0  0  0  0
 11 29  1  0  0  0  0
 12 30  1  0  0  0  0
 13 21  1  0  0  0  0
 13 28  2  0  0  0  0
 14 22  1  0  0  0  0
 14 26  2  0  0  0  0
 15 30  2  0  0  0  0
 15 31  1  0  0  0  0
 16 32  1  0  0  0  0
 17 32  1  0  0  0  0
 17 33  2  0  0  0  0
 17 36  1  0  0  0  0
 18 20  2  0  0  0  0
 18 41  1  0  0  0  0
 19 21  2  0  0  0  0
 19 42  1  0  0  0  0
 20 52  1  0  0  0  0
 21 43  1  0  0  0  0
 22 23  2  0  0  0  0
 22 64  1  0  0  0  0
 23 24  1  0  0  0  0
 23 56  1  0  0  0  0
 24 25  2  0  0  0  0
 24 57  1  0  0  0  0
 25 26  1  0  0  0  0
 25 58  1  0  0  0  0
 26 74  1  0  0  0  0
 27 84  1  0  0  0  0
 28 85  1  0  0  0  0
 29 31  2  0  0  0  0
 29 84  1  0  0  0  0
 30 86  1  0  0  0  0
 31 87  1  0  0  0  0
 32 68  2  0  0  0  0
 33 69  1  0  0  0  0
 33 72  1  0  0  0  0
 34 35  2  0  0  0  0
 34 44  1  0  0  0  0
 34 77  1  0  0  0  0
 36 73  1  0  0  0  0
 36 79  2  0  0  0  0
 37 53  1  0  0  0  0
 37 75  1  0  0  0  0
 37 80  2  0  0  0  0
 38 65  1  0  0  0  0
 38 70  1  0  0  0  0
 38 81  2  0  0  0  0
 39 66  1  0  0  0  0
 39 76  1  0  0  0  0
 39 82  2  0  0  0  0
 40 71  1  0  0  0  0
 40 74  1  0  0  0  0
 40 83  2  0  0  0  0
 41 45  1  0  0  0  0
 42 53  1  0  0  0  0
 43 70  1  0  0  0  0
 44 55  1  0  0  0  0
 45 47  1  0  0  0  0
 46 48  1  0  0  0  0
 46 49  1  0  0  0  0
 47 52  1  0  0  0  0
 48 54  1  0  0  0  0
 49 71  1  0  0  0  0
 50 54  1  0  0  0  0
 50 71  1  0  0  0  0
 51 55  1  0  0  0  0
 51 77  1  0  0  0  0
 52 75  1  0  0  0  0
 53 70  1  0  0  0  0
 54 69  1  0  0  0  0
 55 85  1  0  0  0  0
 59 66  1  0  0  0  0
 60 67  1  0  0  0  0
 61 67  1  0  0  0  0
 62 67  1  0  0  0  0
 63 78  1  0  0  0  0
 64 77  1  0  0  0  0
 65 67  1  0  0  0  0
 65 76  1  0  0  0  0
 66 78  1  0  0  0  0
 68 69  1  0  0  0  0
M  CHG  2  77   1  78   1
M  ISO  4  40 100  55 101  74 100  85 101
M  END
> <Batch ID>
0034

> <Smiles>
C=C1C[101CH:1]([101O:1]c2ccc3c(c2)CN(C(=O)C(NC(=O)C(C)NC)C(C)(C)C)C(C(=O)NC2CCCc4ccccc42)C3)CN1Cc1cc([100NH:0][100C:0](=O)N2CCCC(n3nc(-c4ccc(Oc5ccc(F)cc5F)cc4)c(C(N)=O)c3N)C2)c(C)c(C)c1C

> <Shape>
0.221

> <Color>
0.188

> <Negative vol penalty>
0.000

$$$$

  -OEChem-04042321483D

 90 99  0     1  0  0  0  0  0999 V2000
  -14.9484  -27.7131   24.9037 C   0  0  0  0  0  0  0  0  0  0  0  0
  -15.8886  -26.7215   24.6423 C   0  0  0  0  0  0  0  0  0  0  0  0
  -26.7123  -11.3402   21.0854 C   0  0  0  0  0  0  0  0  0  0  0  0
  -25.7888  -13.1254   19.7448 C   0  0  0  0  0  0  0  0  0  0  0  0
  -15.2426  -29.0448   24.6140 C   0  0  0  0  0  0  0  0  0  0  0  0
  -17.1232  -27.0611   24.0899 C   0  0  0  0  0  0  0  0  0  0  0  0
  -22.5206  -24.3984   25.2228 C   0  0  0  0  0  0  0  0  0  0  0  0
  -30.3038  -20.4787   17.4348 C   0  0  0  0  0  0  0  0  0  0  0  0
  -29.3422  -20.7667   16.4664 C   0  0  0  0  0  0  0  0  0  0  0  0
  -25.4267  -10.9750   21.4847 C   0  0  0  0  0  0  0  0  0  0  0  0
  -24.5031  -12.7602   20.1441 C   0  0  0  0  0  0  0  0  0  0  0  0
  -23.2535  -23.4334   24.5334 C   0  0  0  0  0  0  0  0  0  0  0  0
  -22.8111   -9.2618   20.1979 C   0  0  0  0  0  0  0  0  0  0  0  0
  -22.4889   -7.9047   20.1838 C   0  0  0  0  0  0  0  0  0  0  0  0
  -24.5414  -25.1767   23.4744 C   0  0  0  0  0  0  0  0  0  0  0  0
  -22.0407   -7.9866   22.5565 C   0  0  0  0  0  0  0  0  0  0  0  0
  -26.8933  -12.4155   20.2155 C   0  0  0  0  0  0  0  0  0  0  0  0
  -28.9307  -12.3200   18.6832 C   0  0  0  0  0  0  0  0  0  0  0  0
  -16.4850  -29.4019   24.0668 C   0  0  0  0  0  0  0  0  0  0  0  0
  -22.7857  -25.7625   25.0347 C   0  0  0  0  0  0  0  0  0  0  0  0
  -17.4337  -28.3987   23.7914 C   0  0  0  0  0  0  0  0  0  0  0  0
  -23.8121  -26.1570   24.1646 C   0  0  0  0  0  0  0  0  0  0  0  0
  -29.9362  -20.3871   18.7773 C   0  0  0  0  0  0  0  0  0  0  0  0
  -28.6069  -20.5838   19.1513 C   0  0  0  0  0  0  0  0  0  0  0  0
  -27.6452  -20.8718   18.1829 C   0  0  0  0  0  0  0  0  0  0  0  0
  -28.0129  -20.9633   16.8405 C   0  0  0  0  0  0  0  0  0  0  0  0
  -24.3222  -11.6849   21.0141 C   0  0  0  0  0  0  0  0  0  0  0  0
  -24.2621  -23.8225   23.6569 C   0  0  0  0  0  0  0  0  0  0  0  0
  -22.7481   -9.9813   21.3912 C   0  0  0  0  0  0  0  0  0  0  0  0
  -22.1037   -7.2671   21.3631 C   0  0  0  0  0  0  0  0  0  0  0  0
  -22.3629   -9.3437   22.5705 C   0  0  0  0  0  0  0  0  0  0  0  0
  -28.2211  -12.7936   19.8030 C   0  0  0  0  0  0  0  0  0  0  0  0
  -30.1334  -12.9814   18.7339 C   0  0  0  0  0  0  0  0  0  0  0  0
  -28.5377  -11.3674   17.6863 C   0  0  0  0  0  0  0  0  0  0  0  0
  -21.1222  -28.2410   23.9424 C   0  0  0  0  0  0  0  0  0  0  0  0
  -23.7382  -29.9130   24.8822 C   0  0  0  0  0  0  0  0  0  0  0  0
  -25.5790  -22.0211   20.8193 C   0  0  0  0  0  0  0  0  0  0  0  0
  -27.0796  -29.9157   25.5764 C   0  0  0  0  0  0  0  0  0  0  0  0
  -31.8256  -18.1855   21.1638 C   0  0  0  0  0  0  0  0  0  0  0  0
  -16.7394  -30.8491   23.7266 C   0  0  0  0  0  0  0  0  0  0  0  0
  -22.0040  -26.7902   25.8061 C   0  0  0  0  0  0  0  0  0  0  0  0
  -24.1497  -27.6079   23.9427 C   0  0  0  0  0  0  0  0  0  0  0  0
  -18.2131  -31.1693   23.4904 C   0  0  0  0  0  0  0  0  0  0  0  0
  -25.6357  -21.0283   13.9669 C   0  0  0  0  0  0  0  0  0  0  0  0
  -25.4330  -22.4056   14.5652 C   0  0  0  0  0  0  0  0  0  0  0  0
  -33.1878  -14.9654   21.8363 C   0  0  0  0  0  0  0  0  0  0  0  0
  -18.8471  -30.1239   22.5783 C   0  0  0  0  0  0  0  0  0  0  0  0
  -32.1334  -14.0009   21.2904 C   0  0  0  0  0  0  0  0  0  0  0  0
  -26.2724  -20.2530   15.1147 C   0  0  0  0  0  0  0  0  0  0  0  0
  -26.6981  -22.6024   15.3926 C   0  0  0  0  0  0  0  0  0  0  0  0
  -32.5498  -16.2038   22.4619 C   0  0  0  0  0  0  0  0  0  0  0  0
  -30.5514  -15.9589   21.0406 C   0  0  0  0  0  0  0  0  0  0  0  0
  -18.7934  -28.7302   23.2157 C   0  0  1  0  0  0  0  0  0  0  0  0
  -22.0152  -28.1667   25.1486 C   0  0  1  0  0  0  0  0  0  0  0  0
  -31.1483  -14.7208   20.3498 C   0  0  2  0  0  0  0  0  0  0  0  0
  -28.2153  -20.4850   20.5919 C   0  0  0  0  0  0  0  0  0  0  0  0
  -28.9434  -31.4399   26.2838 C   0  0  0  0  0  0  0  0  0  0  0  0
  -23.8498  -31.0800   22.0652 C   0  0  0  0  0  0  0  0  0  0  0  0
  -26.1975  -31.8113   22.5363 C   0  0  0  0  0  0  0  0  0  0  0  0
  -24.3131  -32.7221   23.8937 C   0  0  0  0  0  0  0  0  0  0  0  0
  -26.4771  -23.4959   19.0109 C   0  0  0  0  0  0  0  0  0  0  0  0
  -27.5696  -28.3606   28.0463 C   0  0  0  0  0  0  0  0  0  0  0  0
  -30.9859  -20.0767   19.7936 C   0  0  0  0  0  0  0  0  0  0  0  0
  -26.2148  -21.0834   18.5873 C   0  0  0  0  0  0  0  0  0  0  0  0
  -25.4857  -23.2495   21.6997 C   0  0  0  0  0  0  0  0  0  1  0  0
  -25.0364  -30.3229   24.2296 C   0  0  1  0  0  0  0  0  0  0  0  0
  -27.8643  -30.4748   26.7495 C   0  0  2  0  0  0  0  0  0  0  0  0
  -24.8418  -31.4567   23.1837 C   0  0  0  0  0  0  0  0  0  0  0  0
  -28.9153  -13.6867   20.5133 N   0  0  0  0  0  0  0  0  0  0  0  0
  -30.0736  -13.7796   19.8382 N   0  0  0  0  0  0  0  0  0  0  0  0
  -27.0574  -21.2538   15.8480 N   0  0  0  0  0  0  0  0  0  0  0  0
  -23.3529  -28.5753   24.7153 N   0  0  0  0  0  0  0  0  0  0  0  0
  -31.6281  -16.8406   21.5180 N   0  0  0  0  0  0  0  0  0  0  0  0
  -31.2257  -12.9521   17.9411 N   0  0  0  0  0  0  0  0  0  0  0  0
  -27.2676  -10.7830   17.7844 N   0  0  0  0  0  0  0  0  0  0  0  0
  -19.8184  -28.5980   24.2288 N   0  0  0  0  0  0  0  0  0  0  0  0
  -25.9499  -30.6619   25.3155 N   0  0  0  0  0  0  0  0  0  0  0  0
  -30.9107  -18.7097   20.2589 N   0  0  0  0  0  0  0  0  0  0  0  0
  -26.0705  -22.1940   19.5250 N   0  0  0  0  0  0  0  0  0  0  0  0
  -28.5168  -29.3713   27.5093 N   0  3  0  0  0  0  0  0  0  0  0  0
  -29.2969  -11.0318   16.7458 O   0  0  0  0  0  0  0  0  0  0  0  0
  -21.5825  -27.9943   22.8338 O   0  0  0  0  0  0  0  0  0  0  0  0
  -23.0936  -30.7472   25.5227 O   0  0  0  0  0  0  0  0  0  0  0  0
  -25.2271  -20.9316   21.2820 O   0  0  0  0  0  0  0  0  0  0  0  0
  -27.4354  -28.9190   24.9515 O   0  0  0  0  0  0  0  0  0  0  0  0
  -32.7519  -18.8668   21.6161 O   0  0  0  0  0  0  0  0  0  0  0  0
  -23.0675  -11.3287   21.4034 O   0  0  0  0  0  0  0  0  0  0  0  0
  -24.9786  -22.8827   22.9822 O   0  0  0  0  0  0  0  0  0  1  0  0
  -21.7929   -5.9643   21.3492 F   0  0  0  0  0  0  0  0  0  0  0  0
  -22.2994  -10.0299   23.7198 F   0  0  0  0  0  0  0  0  0  0  0  0
  1  2  1  0  0  0  0
  1  5  2  0  0  0  0
  2  6  2  0  0  0  0
  3 10  2  0  0  0  0
  3 17  1  0  0  0  0
  4 11  1  0  0  0  0
  4 17  2  0  0  0  0
  5 19  1  0  0  0  0
  6 21  1  0  0  0  0
  7 12  2  0  0  0  0
  7 20  1  0  0  0  0
  8  9  1  0  0  0  0
  8 23  2  0  0  0  0
  9 26  2  0  0  0  0
 10 27  1  0  0  0  0
 11 27  2  0  0  0  0
 12 28  1  0  0  0  0
 13 14  2  0  0  0  0
 13 29  1  0  0  0  0
 14 30  1  0  0  0  0
 15 22  1  0  0  0  0
 15 28  2  0  0  0  0
 16 30  2  0  0  0  0
 16 31  1  0  0  0  0
 17 32  1  0  0  0  0
 18 32  1  0  0  0  0
 18 33  2  0  0  0  0
 18 34  1  0  0  0  0
 19 21  2  0  0  0  0
 19 40  1  0  0  0  0
 20 22  2  0  0  0  0
 20 41  1  0  0  0  0
 21 53  1  0  0  0  0
 22 42  1  0  0  0  0
 23 24  1  0  0  0  0
 23 63  1  0  0  0  0
 24 25  2  0  0  0  0
 24 56  1  0  0  0  0
 25 26  1  0  0  0  0
 25 64  1  0  0  0  0
 26 71  1  0  0  0  0
 27 87  1  0  0  0  0
 28 88  1  0  0  0  0
 29 31  2  0  0  0  0
 29 87  1  0  0  0  0
 30 89  1  0  0  0  0
 31 90  1  0  0  0  0
 32 69  2  0  0  0  0
 33 70  1  0  0  0  0
 33 74  1  0  0  0  0
 34 75  1  0  0  0  0
 34 81  2  0  0  0  0
 35 54  1  0  0  0  0
 35 76  1  0  0  0  0
 35 82  2  0  0  0  0
 36 66  1  0  0  0  0
 36 72  1  0  0  0  0
 36 83  2  0  0  0  0
 37 65  1  0  0  0  0
 37 79  1  0  0  0  0
 37 84  2  0  0  0  0
 38 67  1  0  0  0  0
 38 77  1  0  0  0  0
 38 85  2  0  0  0  0
 39 73  1  0  0  0  0
 39 78  1  0  0  0  0
 39 86  2  0  0  0  0
 40 43  1  0  0  0  0
 41 54  1  0  0  0  0
 42 72  1  0  0  0  0
 43 47  1  0  0  0  0
 44 45  1  0  0  0  0
 44 49  1  0  0  0  0
 45 50  1  0  0  0  0
 46 48  1  0  0  0  0
 46 51  1  0  0  0  0
 47 53  1  0  0  0  0
 48 55  1  0  0  0  0
 49 71  1  0  0  0  0
 50 71  1  0  0  0  0
 51 73  1  0  0  0  0
 52 55  1  0  0  0  0
 52 73  1  0  0  0  0
 53 76  1  0  0  0  0
 54 72  1  0  0  0  0
 55 70  1  0  0  0  0
 57 67  1  0  0  0  0
 58 68  1  0  0  0  0
 59 68  1  0  0  0  0
 60 68  1  0  0  0  0
 61 79  1  0  0  0  0
 62 80  1  0  0  0  0
 63 78  1  0  0  0  0
 64 79  1  0  0  0  0
 65 88  1  0  0  0  0
 66 68  1  0  0  0  0
 66 77  1  0  0  0  0
 67 80  1  0  0  0  0
 69 70  1  0  0  0  0
M  CHG  1  80   1
M  ISO  4  39 100  65 101  78 100  88 101
M  END
> <Batch ID>
0034

> <Smiles>
CNC(C)C(=O)NC(C(=O)N1Cc2cc([101O:1][101CH2:1]C(=O)N(C)Cc3c(N4CCCC4)ccc(C[100NH:0][100C:0](=O)N4CCCC(n5nc(-c6ccc(Oc7ccc(F)cc7F)cc6)c(C(N)=O)c5N)C4)c3C)ccc2CC1C(=O)NC1CCCc2ccccc21)C(C)(C)C

> <Shape>
0.262

> <Color>
0.051

> <Negative vol penalty>
0.000

$$$$

  -OEChem-04042321483D

 90100  0     1  0  0  0  0  0999 V2000
  -20.4866  -30.5582   22.9829 C   0  0  0  0  0  0  0  0  0  0  0  0
  -20.9914  -30.4831   21.6887 C   0  0  0  0  0  0  0  0  0  0  0  0
  -22.6865  -10.1791   20.1830 C   0  0  0  0  0  0  0  0  0  0  0  0
  -24.2876   -9.4694   21.8472 C   0  0  0  0  0  0  0  0  0  0  0  0
  -21.3499  -30.4609   24.0734 C   0  0  0  0  0  0  0  0  0  0  0  0
  -22.3601  -30.3118   21.4843 C   0  0  0  0  0  0  0  0  0  0  0  0
  -24.8809  -24.6507   17.8116 C   0  0  0  0  0  0  0  0  0  0  0  0
  -21.9461   -9.0171   20.3996 C   0  0  0  0  0  0  0  0  0  0  0  0
  -23.5472   -8.3073   22.0640 C   0  0  0  0  0  0  0  0  0  0  0  0
  -25.4277  -23.7081   16.9405 C   0  0  0  0  0  0  0  0  0  0  0  0
  -20.7462   -7.4151   23.7311 C   0  0  0  0  0  0  0  0  0  0  0  0
  -20.5197   -7.0298   25.0523 C   0  0  0  0  0  0  0  0  0  0  0  0
  -29.2684  -17.7430   19.8882 C   0  0  0  0  0  0  0  0  0  0  0  0
  -27.6497  -24.5241   17.4352 C   0  0  0  0  0  0  0  0  0  0  0  0
  -21.6594   -4.9401   24.6383 C   0  0  0  0  0  0  0  0  0  0  0  0
  -23.8573  -10.4053   20.9067 C   0  0  0  0  0  0  0  0  0  0  0  0
  -24.1898  -12.9340   20.8521 C   0  0  0  0  0  0  0  0  0  0  0  0
  -22.7286  -30.2786   23.8823 C   0  0  0  0  0  0  0  0  0  0  0  0
  -25.7186  -25.5244   18.5103 C   0  0  0  0  0  0  0  0  0  0  0  0
  -23.2428  -30.2133   22.5732 C   0  0  0  0  0  0  0  0  0  0  0  0
  -30.4346  -17.9234   20.6318 C   0  0  0  0  0  0  0  0  0  0  0  0
  -27.1087  -25.4621   18.3185 C   0  0  0  0  0  0  0  0  0  0  0  0
  -28.9942  -18.5803   18.8067 C   0  0  0  0  0  0  0  0  0  0  0  0
  -31.3266  -18.9412   20.2942 C   0  0  0  0  0  0  0  0  0  0  0  0
  -31.0524  -19.7786   19.2128 C   0  0  0  0  0  0  0  0  0  0  0  0
  -29.8862  -19.5981   18.4691 C   0  0  0  0  0  0  0  0  0  0  0  0
  -22.3764   -8.0812   21.3401 C   0  0  0  0  0  0  0  0  0  0  0  0
  -26.8086  -23.6452   16.7526 C   0  0  0  0  0  0  0  0  0  0  0  0
  -21.4292   -6.5629   22.8633 C   0  0  0  0  0  0  0  0  0  0  0  0
  -20.9763   -5.7923   25.5060 C   0  0  0  0  0  0  0  0  0  0  0  0
  -21.8858   -5.3254   23.3169 C   0  0  0  0  0  0  0  0  0  0  0  0
  -24.6229  -11.6052   20.6829 C   0  0  0  0  0  0  0  0  0  0  0  0
  -25.2807  -13.6965   20.5133 C   0  0  0  0  0  0  0  0  0  0  0  0
  -29.9631  -20.2809   16.0430 C   0  0  0  0  0  0  0  0  0  0  0  0
  -30.9537  -19.5703   15.4850 C   0  0  0  0  0  0  0  0  0  0  0  0
  -22.9152  -13.4342   21.2777 C   0  0  0  0  0  0  0  0  0  0  0  0
  -25.9970  -28.3288   20.9871 C   0  0  0  0  0  0  0  0  0  0  0  0
  -28.2896  -26.3805   21.5856 C   0  0  0  0  0  0  0  0  0  0  0  0
  -30.4160  -23.7812   22.1849 C   0  0  0  0  0  0  0  0  0  0  0  0
  -30.6962  -14.7622   20.6893 C   0  0  0  0  0  0  0  0  0  0  0  0
  -23.6284  -30.2262   25.0916 C   0  0  0  0  0  0  0  0  0  0  0  0
  -25.1694  -26.5964   19.4120 C   0  0  0  0  0  0  0  0  0  0  0  0
  -27.9687  -26.4449   19.0650 C   0  0  0  0  0  0  0  0  0  0  0  0
  -29.0816  -21.1724   15.2032 C   0  0  0  0  0  0  0  0  0  0  0  0
  -25.0182  -29.6699   24.7930 C   0  0  0  0  0  0  0  0  0  0  0  0
  -29.7887  -16.2337   23.8768 C   0  0  0  0  0  0  0  0  0  0  0  0
  -29.6360  -12.4446   18.2948 C   0  0  0  0  0  0  0  0  0  0  0  0
  -30.0892  -17.5136   23.1070 C   0  0  0  0  0  0  0  0  0  0  0  0
  -25.5910  -30.3120   23.5334 C   0  0  0  0  0  0  0  0  0  0  0  0
  -28.2074  -12.1047   18.7153 C   0  0  0  0  0  0  0  0  0  0  0  0
  -30.5395  -12.5923   19.5126 C   0  0  0  0  0  0  0  0  0  0  0  0
  -29.3396  -15.2788   22.7817 C   0  0  0  0  0  0  0  0  0  0  0  0
  -28.6308  -13.3054   20.9202 C   0  0  0  0  0  0  0  0  0  0  0  0
  -28.6440  -21.5342   17.5626 C   0  0  0  0  0  0  0  0  0  0  0  0
  -30.7078  -17.0023   21.7992 C   0  0  1  0  0  0  0  0  0  0  0  0
  -24.7183  -30.0030   22.3110 C   0  0  1  0  0  0  0  0  0  0  0  0
  -26.0619  -26.8715   20.6356 C   0  0  1  0  0  0  0  0  0  0  0  0
  -27.6742  -13.1377   19.7218 C   0  0  2  0  0  0  0  0  0  0  0  0
  -28.6389  -22.2402   16.2020 C   0  0  2  0  0  0  0  0  0  1  0  0
  -27.7371  -18.3623   18.0288 C   0  0  0  0  0  0  0  0  0  0  0  0
  -32.5763  -19.1322   21.0941 C   0  0  0  0  0  0  0  0  0  0  0  0
  -32.0121  -20.8699   18.8539 C   0  0  0  0  0  0  0  0  0  0  0  0
  -32.2725  -23.0676   23.7151 C   0  0  0  0  0  0  0  0  0  0  0  0
  -30.2150  -28.2245   20.1035 C   0  0  0  0  0  0  0  0  0  0  0  0
  -32.1049  -26.8260   20.9641 C   0  0  0  0  0  0  0  0  0  0  0  0
  -30.6281  -28.0441   22.5635 C   0  0  0  0  0  0  0  0  0  0  0  0
  -28.8711  -21.4544   23.1638 C   0  0  0  0  0  0  0  0  0  0  0  0
  -29.7332  -26.0150   21.3493 C   0  0  1  0  0  0  0  0  0  0  0  0
  -30.7728  -23.0456   23.4640 C   0  0  2  0  0  0  0  0  0  0  0  0
  -30.6493  -27.2656   21.2300 C   0  0  0  0  0  0  0  0  0  0  0  0
  -25.8902  -11.5248   20.2686 N   0  0  0  0  0  0  0  0  0  0  0  0
  -26.2626  -12.8127   20.1745 N   0  0  0  0  0  0  0  0  0  0  0  0
  -29.6072  -20.4433   17.3766 N   0  0  0  0  0  0  0  0  0  0  0  0
  -27.4931  -26.5773   20.4510 N   0  0  0  0  0  0  0  0  0  0  0  0
  -30.0023  -13.5668   20.4630 N   0  0  0  0  0  0  0  0  0  0  0  0
  -30.1558  -15.6500   21.6242 N   0  0  0  0  0  0  0  0  0  0  0  0
  -25.4862  -15.0302   20.4749 N   0  0  0  0  0  0  0  0  0  0  0  0
  -21.9053  -12.5129   21.5869 N   0  0  0  0  0  0  0  0  0  0  0  0
  -24.9626  -28.6555   21.8432 N   0  0  0  0  0  0  0  0  0  0  0  0
  -30.1047  -25.1027   22.4255 N   0  0  0  0  0  0  0  0  0  0  0  0
  -30.3302  -21.6248   23.3852 N   0  3  0  0  0  0  0  0  0  0  0  0
  -22.6738  -14.6620   21.3649 O   0  0  0  0  0  0  0  0  0  0  0  0
  -26.8248  -29.1009   20.5179 O   0  0  0  0  0  0  0  0  0  0  0  0
  -27.8781  -26.4947   22.7436 O   0  0  0  0  0  0  0  0  0  0  0  0
  -30.4173  -23.2386   21.0821 O   0  0  0  0  0  0  0  0  0  0  0  0
  -31.7564  -15.0153   20.1029 O   0  0  0  0  0  0  0  0  0  0  0  0
  -21.6540   -6.9472   21.5520 O   0  0  0  0  0  0  0  0  0  0  0  0
  -27.3393  -22.7139   15.8989 O   0  0  0  0  0  0  0  0  0  1  0  0
  -20.7601   -5.4231   26.7752 F   0  0  0  0  0  0  0  0  0  0  0  0
  -22.5437   -4.5030   22.4883 F   0  0  0  0  0  0  0  0  0  0  0  0
  1  2  1  0  0  0  0
  1  5  2  0  0  0  0
  2  6  2  0  0  0  0
  3  8  2  0  0  0  0
  3 16  1  0  0  0  0
  4  9  1  0  0  0  0
  4 16  2  0  0  0  0
  5 18  1  0  0  0  0
  6 20  1  0  0  0  0
  7 10  2  0  0  0  0
  7 19  1  0  0  0  0
  8 27  1  0  0  0  0
  9 27  2  0  0  0  0
 10 28  1  0  0  0  0
 11 12  2  0  0  0  0
 11 29  1  0  0  0  0
 12 30  1  0  0  0  0
 13 21  1  0  0  0  0
 13 23  2  0  0  0  0
 14 22  1  0  0  0  0
 14 28  2  0  0  0  0
 15 30  2  0  0  0  0
 15 31  1  0  0  0  0
 16 32  1  0  0  0  0
 17 32  1  0  0  0  0
 17 33  2  0  0  0  0
 17 36  1  0  0  0  0
 18 20  2  0  0  0  0
 18 41  1  0  0  0  0
 19 22  2  0  0  0  0
 19 42  1  0  0  0  0
 20 56  1  0  0  0  0
 21 24  2  0  0  0  0
 21 55  1  0  0  0  0
 22 43  1  0  0  0  0
 23 26  1  0  0  0  0
 23 60  1  0  0  0  0
 24 25  1  0  0  0  0
 24 61  1  0  0  0  0
 25 26  2  0  0  0  0
 25 62  1  0  0  0  0
 26 73  1  0  0  0  0
 27 87  1  0  0  0  0
 28 88  1  0  0  0  0
 29 31  2  0  0  0  0
 29 87  1  0  0  0  0
 30 89  1  0  0  0  0
 31 90  1  0  0  0  0
 32 71  2  0  0  0  0
 33 72  1  0  0  0  0
 33 77  1  0  0  0  0
 34 35  2  0  0  0  0
 34 44  1  0  0  0  0
 34 73  1  0  0  0  0
 36 78  1  0  0  0  0
 36 82  2  0  0  0  0
 37 57  1  0  0  0  0
 37 79  1  0  0  0  0
 37 83  2  0  0  0  0
 38 68  1  0  0  0  0
 38 74  1  0  0  0  0
 38 84  2  0  0  0  0
 39 69  1  0  0  0  0
 39 80  1  0  0  0  0
 39 85  2  0  0  0  0
 40 75  1  0  0  0  0
 40 76  1  0  0  0  0
 40 86  2  0  0  0  0
 41 45  1  0  0  0  0
 42 57  1  0  0  0  0
 43 74  1  0  0  0  0
 44 59  1  0  0  0  0
 45 49  1  0  0  0  0
 46 48  1  0  0  0  0
 46 52  1  0  0  0  0
 47 50  1  0  0  0  0
 47 51  1  0  0  0  0
 48 55  1  0  0  0  0
 49 56  1  0  0  0  0
 50 58  1  0  0  0  0
 51 75  1  0  0  0  0
 52 76  1  0  0  0  0
 53 58  1  0  0  0  0
 53 75  1  0  0  0  0
 54 59  1  0  0  0  0
 54 73  1  0  0  0  0
 55 76  1  0  0  0  0
 56 79  1  0  0  0  0
 57 74  1  0  0  0  0
 58 72  1  0  0  0  0
 59 88  1  0  0  0  0
 63 69  1  0  0  0  0
 64 70  1  0  0  0  0
 65 70  1  0  0  0  0
 66 70  1  0  0  0  0
 67 81  1  0  0  0  0
 68 70  1  0  0  0  0
 68 80  1  0  0  0  0
 69 81  1  0  0  0  0
 71 72  1  0  0  0  0
M  CHG  1  81   1
M  ISO  4  40 100  59 101  76 100  88 101
M  END
> <Batch ID>
0034

> <Smiles>
C=C1C[101CH:1]([101O:1]c2ccc3c(c2)CN(C(=O)C(NC(=O)C(C)NC)C(C)(C)C)C(C(=O)NC2CCCc4ccccc42)C3)CN1c1c(C)cc(C2CCC[100N:0]2[100C:0](=O)N2CCCC(n3nc(-c4ccc(Oc5ccc(F)cc5F)cc4)c(C(N)=O)c3N)C2)c(C)c1C

> <Shape>
0.348

> <Color>
0.200

> <Negative vol penalty>
0.000

$$$$

  -OEChem-04042321483D

 87 96  0     1  0  0  0  0  0999 V2000
  -18.9923  -24.8311   23.3753 C   0  0  0  0  0  0  0  0  0  0  0  0
  -20.1963  -24.9872   22.6960 C   0  0  0  0  0  0  0  0  0  0  0  0
  -22.1957  -14.4395   21.2784 C   0  0  0  0  0  0  0  0  0  0  0  0
  -23.3743  -16.5343   21.5224 C   0  0  0  0  0  0  0  0  0  0  0  0
  -18.1041  -25.9014   23.4721 C   0  0  0  0  0  0  0  0  0  0  0  0
  -20.5123  -26.2134   22.1121 C   0  0  0  0  0  0  0  0  0  0  0  0
  -25.2902  -27.6242   23.0207 C   0  0  0  0  0  0  0  0  0  0  0  0
  -21.2339  -14.8744   22.1902 C   0  0  0  0  0  0  0  0  0  0  0  0
  -22.4124  -16.9693   22.4341 C   0  0  0  0  0  0  0  0  0  0  0  0
  -26.2892  -27.0143   22.2632 C   0  0  0  0  0  0  0  0  0  0  0  0
  -18.5345  -16.9106   22.1818 C   0  0  0  0  0  0  0  0  0  0  0  0
  -17.1940  -16.6967   21.8613 C   0  0  0  0  0  0  0  0  0  0  0  0
  -26.3793  -28.9537   20.8315 C   0  0  0  0  0  0  0  0  0  0  0  0
  -30.2183  -21.1189   20.9452 C   0  0  0  0  0  0  0  0  0  0  0  0
  -16.9297  -15.3619   23.8577 C   0  0  0  0  0  0  0  0  0  0  0  0
  -23.2660  -15.2694   20.9446 C   0  0  0  0  0  0  0  0  0  0  0  0
  -24.0534  -14.4463   18.6621 C   0  0  0  0  0  0  0  0  0  0  0  0
  -18.4136  -27.1442   22.8974 C   0  0  0  0  0  0  0  0  0  0  0  0
  -24.8198  -28.9012   22.6822 C   0  0  0  0  0  0  0  0  0  0  0  0
  -19.6267  -27.3010   22.2001 C   0  0  0  0  0  0  0  0  0  0  0  0
  -25.3761  -29.5787   21.5879 C   0  0  0  0  0  0  0  0  0  0  0  0
  -30.3128  -20.1186   18.3427 C   0  0  0  0  0  0  0  0  0  0  0  0
  -29.7988  -21.3931   18.5818 C   0  0  0  0  0  0  0  0  0  0  0  0
  -30.7796  -19.3443   19.4049 C   0  0  0  0  0  0  0  0  0  0  0  0
  -29.7516  -21.8933   19.8831 C   0  0  0  0  0  0  0  0  0  0  0  0
  -21.3422  -16.1393   22.7680 C   0  0  0  0  0  0  0  0  0  0  0  0
  -26.8319  -27.6778   21.1667 C   0  0  0  0  0  0  0  0  0  0  0  0
  -19.0727  -16.3501   23.3403 C   0  0  0  0  0  0  0  0  0  0  0  0
  -16.3916  -15.9224   22.6992 C   0  0  0  0  0  0  0  0  0  0  0  0
  -18.2703  -15.5758   24.1782 C   0  0  0  0  0  0  0  0  0  0  0  0
  -30.7324  -19.8444   20.7061 C   0  0  0  0  0  0  0  0  0  0  0  0
  -24.2603  -14.8205   20.0033 C   0  0  0  0  0  0  0  0  0  0  0  0
  -25.3023  -14.1031   18.2048 C   0  0  0  0  0  0  0  0  0  0  0  0
  -22.8408  -14.4120   17.8978 C   0  0  0  0  0  0  0  0  0  0  0  0
  -22.0113  -30.0937   21.7912 C   0  0  0  0  0  0  0  0  0  0  0  0
  -23.5768  -32.9246   22.0307 C   0  0  0  0  0  0  0  0  0  0  0  0
  -25.8211  -35.4916   22.1742 C   0  0  0  0  0  0  0  0  0  0  0  0
  -30.8320  -15.6661   19.8873 C   0  0  0  0  0  0  0  0  0  0  0  0
  -17.4008  -28.2581   22.9876 C   0  0  0  0  0  0  0  0  0  0  0  0
  -23.7605  -29.5564   23.5254 C   0  0  0  0  0  0  0  0  0  0  0  0
  -24.9202  -30.9593   21.1949 C   0  0  0  0  0  0  0  0  0  0  0  0
  -17.9777  -29.6336   22.6628 C   0  0  0  0  0  0  0  0  0  0  0  0
  -29.4976  -12.3696   19.7167 C   0  0  0  0  0  0  0  0  0  0  0  0
  -18.8249  -29.5717   21.3959 C   0  0  0  0  0  0  0  0  0  0  0  0
  -27.9853  -12.5902   19.6498 C   0  0  0  0  0  0  0  0  0  0  0  0
  -27.3496  -24.7511   20.1293 C   0  0  0  0  0  0  0  0  0  0  0  0
  -29.6873  -25.5748   20.4519 C   0  0  0  0  0  0  0  0  0  0  0  0
  -30.1776  -13.3931   20.6233 C   0  0  0  0  0  0  0  0  0  0  0  0
  -27.8079  -23.3260   20.4265 C   0  0  0  0  0  0  0  0  0  0  0  0
  -30.1471  -24.1519   20.7542 C   0  0  0  0  0  0  0  0  0  0  0  0
  -28.3698  -15.0217   20.2318 C   0  0  0  0  0  0  0  0  0  0  0  0
  -20.0162  -28.6228   21.5747 C   0  0  1  0  0  0  0  0  0  0  0  0
  -22.9955  -30.6473   22.7825 C   0  0  1  0  0  0  0  0  0  0  0  0
  -27.6469  -14.0482   19.2852 C   0  0  2  0  0  0  0  0  0  0  0  0
  -28.2246  -25.7852   20.8261 C   0  0  0  0  0  0  0  0  0  1  0  0
  -30.3629  -19.5833   16.9461 C   0  0  0  0  0  0  0  0  0  0  0  0
  -29.2983  -22.2231   17.4412 C   0  0  0  0  0  0  0  0  0  0  0  0
  -26.0014  -37.9718   21.8371 C   0  0  0  0  0  0  0  0  0  0  0  0
  -23.5359  -32.5142   19.0074 C   0  0  0  0  0  0  0  0  0  0  0  0
  -24.6383  -34.7483   18.7592 C   0  0  0  0  0  0  0  0  0  0  0  0
  -22.3748  -34.5845   19.7950 C   0  0  0  0  0  0  0  0  0  0  0  0
  -26.6288  -35.9322   24.9871 C   0  0  0  0  0  0  0  0  0  0  0  0
  -31.3287  -17.9779   19.1337 C   0  0  0  0  0  0  0  0  0  0  0  0
  -24.3915  -33.7787   21.0895 C   0  0  1  0  0  0  0  0  0  0  0  0
  -25.7511  -36.8549   22.8384 C   0  0  2  0  0  0  0  0  0  0  0  0
  -23.7472  -33.8860   19.6785 C   0  0  0  0  0  0  0  0  0  0  0  0
  -25.5398  -14.7240   20.3741 N   0  0  0  0  0  0  0  0  0  0  0  0
  -26.1482  -14.2852   19.2591 N   0  0  0  0  0  0  0  0  0  0  0  0
  -29.2392  -23.1706   20.1435 N   0  0  0  0  0  0  0  0  0  0  0  0
  -23.8777  -31.5553   22.0467 N   0  0  0  0  0  0  0  0  0  0  0  0
  -29.8168  -14.7553   20.2233 N   0  0  0  0  0  0  0  0  0  0  0  0
  -25.7484  -13.6663   17.0079 N   0  0  0  0  0  0  0  0  0  0  0  0
  -22.4661  -15.5606   17.1873 N   0  0  0  0  0  0  0  0  0  0  0  0
  -21.0593  -29.2615   22.3484 N   0  0  0  0  0  0  0  0  0  0  0  0
  -24.5785  -35.0608   21.7601 N   0  0  0  0  0  0  0  0  0  0  0  0
  -30.4032  -16.9338   19.5133 N   0  0  0  0  0  0  0  0  0  0  0  0
  -26.7705  -36.9567   23.9207 N   0  3  0  0  0  0  0  0  0  0  0  0
  -22.1028  -13.3984   17.8596 O   0  0  0  0  0  0  0  0  0  0  0  0
  -22.1077  -30.4001   20.6086 O   0  0  0  0  0  0  0  0  0  0  0  0
  -22.7105  -33.4540   22.7312 O   0  0  0  0  0  0  0  0  0  0  0  0
  -26.8735  -34.8726   22.0333 O   0  0  0  0  0  0  0  0  0  0  0  0
  -32.0313  -15.3697   19.9133 O   0  0  0  0  0  0  0  0  0  0  0  0
  -20.4036  -16.5641   23.6575 O   0  0  0  0  0  0  0  0  0  0  0  0
  -27.8066  -27.0845   20.4253 O   0  0  0  0  0  0  0  0  0  1  0  0
  -15.1038  -15.7183   22.3921 F   0  0  0  0  0  0  0  0  0  0  0  0
  -18.7814  -15.0357   25.2931 F   0  0  0  0  0  0  0  0  0  0  0  0
  -31.3000  -18.9179   22.0481 Cl  0  0  0  0  0  0  0  0  0  0  0  0
  1  2  1  0  0  0  0
  1  5  2  0  0  0  0
  2  6  2  0  0  0  0
  3  8  2  0  0  0  0
  3 16  1  0  0  0  0
  4  9  1  0  0  0  0
  4 16  2  0  0  0  0
  5 18  1  0  0  0  0
  6 20  1  0  0  0  0
  7 10  2  0  0  0  0
  7 19  1  0  0  0  0
  8 26  1  0  0  0  0
  9 26  2  0  0  0  0
 10 27  1  0  0  0  0
 11 12  2  0  0  0  0
 11 28  1  0  0  0  0
 12 29  1  0  0  0  0
 13 21  1  0  0  0  0
 13 27  2  0  0  0  0
 14 25  1  0  0  0  0
 14 31  2  0  0  0  0
 15 29  2  0  0  0  0
 15 30  1  0  0  0  0
 16 32  1  0  0  0  0
 17 32  1  0  0  0  0
 17 33  2  0  0  0  0
 17 34  1  0  0  0  0
 18 20  2  0  0  0  0
 18 39  1  0  0  0  0
 19 21  2  0  0  0  0
 19 40  1  0  0  0  0
 20 52  1  0  0  0  0
 21 41  1  0  0  0  0
 22 23  1  0  0  0  0
 22 24  2  0  0  0  0
 22 56  1  0  0  0  0
 23 25  2  0  0  0  0
 23 57  1  0  0  0  0
 24 31  1  0  0  0  0
 24 63  1  0  0  0  0
 25 69  1  0  0  0  0
 26 83  1  0  0  0  0
 27 84  1  0  0  0  0
 28 30  2  0  0  0  0
 28 83  1  0  0  0  0
 29 85  1  0  0  0  0
 30 86  1  0  0  0  0
 31 87  1  0  0  0  0
 32 67  2  0  0  0  0
 33 68  1  0  0  0  0
 33 72  1  0  0  0  0
 34 73  1  0  0  0  0
 34 78  2  0  0  0  0
 35 53  1  0  0  0  0
 35 74  1  0  0  0  0
 35 79  2  0  0  0  0
 36 64  1  0  0  0  0
 36 70  1  0  0  0  0
 36 80  2  0  0  0  0
 37 65  1  0  0  0  0
 37 75  1  0  0  0  0
 37 81  2  0  0  0  0
 38 71  1  0  0  0  0
 38 76  1  0  0  0  0
 38 82  2  0  0  0  0
 39 42  1  0  0  0  0
 40 53  1  0  0  0  0
 41 70  1  0  0  0  0
 42 44  1  0  0  0  0
 43 45  1  0  0  0  0
 43 48  1  0  0  0  0
 44 52  1  0  0  0  0
 45 54  1  0  0  0  0
 46 49  1  0  0  0  0
 46 55  1  0  0  0  0
 47 50  1  0  0  0  0
 47 55  1  0  0  0  0
 48 71  1  0  0  0  0
 49 69  1  0  0  0  0
 50 69  1  0  0  0  0
 51 54  1  0  0  0  0
 51 71  1  0  0  0  0
 52 74  1  0  0  0  0
 53 70  1  0  0  0  0
 54 68  1  0  0  0  0
 55 84  1  0  0  0  0
 58 65  1  0  0  0  0
 59 66  1  0  0  0  0
 60 66  1  0  0  0  0
 61 66  1  0  0  0  0
 62 77  1  0  0  0  0
 63 76  1  0  0  0  0
 64 66  1  0  0  0  0
 64 75  1  0  0  0  0
 65 77  1  0  0  0  0
 67 68  1  0  0  0  0
M  CHG  1  77   1
M  ISO  4  38 100  55 101  76 100  84 101
M  END
> <Batch ID>
0034

> <Smiles>
CNC(C)C(=O)NC(C(=O)N1Cc2cc([101O:1][101CH:1]3CCN(c4cc(Cl)c(C[100NH:0][100C:0](=O)N5CCCC(n6nc(-c7ccc(Oc8ccc(F)cc8F)cc7)c(C(N)=O)c6N)C5)c(C)c4C)CC3)ccc2CC1C(=O)NC1CCCc2ccccc21)C(C)(C)C

> <Shape>
0.253

> <Color>
0.126

> <Negative vol penalty>
0.000

$$$$

  -OEChem-04042321483D

 87 96  0     1  0  0  0  0  0999 V2000
  -37.6833  -28.4687   13.1620 C   0  0  0  0  0  0  0  0  0  0  0  0
  -38.0144  -27.7459   14.3036 C   0  0  0  0  0  0  0  0  0  0  0  0
  -23.0486   -9.8743   20.0143 C   0  0  0  0  0  0  0  0  0  0  0  0
  -23.7749   -9.9731   22.3164 C   0  0  0  0  0  0  0  0  0  0  0  0
  -36.4493  -29.1123   13.0792 C   0  0  0  0  0  0  0  0  0  0  0  0
  -37.1119  -27.6671   15.3637 C   0  0  0  0  0  0  0  0  0  0  0  0
  -34.9539  -23.2086   20.5388 C   0  0  0  0  0  0  0  0  0  0  0  0
  -22.2712   -8.7539   20.3076 C   0  0  0  0  0  0  0  0  0  0  0  0
  -22.9974   -8.8528   22.6098 C   0  0  0  0  0  0  0  0  0  0  0  0
  -34.7556  -23.1754   21.9184 C   0  0  0  0  0  0  0  0  0  0  0  0
  -19.2822   -8.1041   21.7486 C   0  0  0  0  0  0  0  0  0  0  0  0
  -17.9818   -8.0677   21.2454 C   0  0  0  0  0  0  0  0  0  0  0  0
  -32.6209  -24.2617   21.6316 C   0  0  0  0  0  0  0  0  0  0  0  0
  -30.6330  -18.3460   23.8252 C   0  0  0  0  0  0  0  0  0  0  0  0
  -32.1719  -16.4877   22.4247 C   0  0  0  0  0  0  0  0  0  0  0  0
  -18.5096   -6.0492   20.0272 C   0  0  0  0  0  0  0  0  0  0  0  0
  -23.8005  -10.4838   21.0187 C   0  0  0  0  0  0  0  0  0  0  0  0
  -24.2102  -12.9907   20.7828 C   0  0  0  0  0  0  0  0  0  0  0  0
  -35.5273  -29.0333   14.1349 C   0  0  0  0  0  0  0  0  0  0  0  0
  -33.9905  -23.7794   19.6947 C   0  0  0  0  0  0  0  0  0  0  0  0
  -35.8649  -28.3113   15.2955 C   0  0  0  0  0  0  0  0  0  0  0  0
  -32.8082  -24.2986   20.2414 C   0  0  0  0  0  0  0  0  0  0  0  0
  -32.0177  -18.3208   23.9909 C   0  0  0  0  0  0  0  0  0  0  0  0
  -30.0177  -17.4420   22.9592 C   0  0  0  0  0  0  0  0  0  0  0  0
  -32.7872  -17.3917   23.2906 C   0  0  0  0  0  0  0  0  0  0  0  0
  -30.7871  -16.5129   22.2590 C   0  0  0  0  0  0  0  0  0  0  0  0
  -22.2455   -8.2432   21.6053 C   0  0  0  0  0  0  0  0  0  0  0  0
  -33.5902  -23.7046   22.4652 C   0  0  0  0  0  0  0  0  0  0  0  0
  -20.1964   -7.1130   21.3910 C   0  0  0  0  0  0  0  0  0  0  0  0
  -17.5954   -7.0402   20.3848 C   0  0  0  0  0  0  0  0  0  0  0  0
  -19.8100   -6.0856   20.5304 C   0  0  0  0  0  0  0  0  0  0  0  0
  -24.6043  -11.6408   20.7162 C   0  0  0  0  0  0  0  0  0  0  0  0
  -25.3268  -13.6936   20.4013 C   0  0  0  0  0  0  0  0  0  0  0  0
  -32.2724  -21.3303   26.2066 C   0  0  0  0  0  0  0  0  0  0  0  0
  -31.8134  -20.9617   27.4078 C   0  0  0  0  0  0  0  0  0  0  0  0
  -22.9477  -13.5584   21.1562 C   0  0  0  0  0  0  0  0  0  0  0  0
  -33.9485  -26.2344   17.6761 C   0  0  0  0  0  0  0  0  0  0  0  0
  -30.9901  -25.1041   16.9742 C   0  0  0  0  0  0  0  0  0  0  0  0
  -28.2665  -23.3026   17.9657 C   0  0  0  0  0  0  0  0  0  0  0  0
  -30.8154  -14.6067   20.6121 C   0  0  0  0  0  0  0  0  0  0  0  0
  -34.2249  -29.7849   14.0189 C   0  0  0  0  0  0  0  0  0  0  0  0
  -34.2074  -23.7833   18.2063 C   0  0  0  0  0  0  0  0  0  0  0  0
  -31.7339  -24.9042   19.3768 C   0  0  0  0  0  0  0  0  0  0  0  0
  -33.1009  -22.5432   25.9233 C   0  0  0  0  0  0  0  0  0  0  0  0
  -33.1732  -29.3412   15.0326 C   0  0  0  0  0  0  0  0  0  0  0  0
  -29.6728  -12.1101   18.3453 C   0  0  0  0  0  0  0  0  0  0  0  0
  -33.7863  -29.2329   16.4251 C   0  0  0  0  0  0  0  0  0  0  0  0
  -28.2199  -11.8765   18.7656 C   0  0  0  0  0  0  0  0  0  0  0  0
  -30.5759  -12.3735   19.5490 C   0  0  0  0  0  0  0  0  0  0  0  0
  -28.6687  -13.2125   20.8633 C   0  0  0  0  0  0  0  0  0  0  0  0
  -32.2141  -21.5645   23.9059 C   0  0  0  0  0  0  0  0  0  0  0  0
  -34.9025  -28.1819   16.4562 C   0  0  1  0  0  0  0  0  0  0  0  0
  -33.3909  -24.8521   17.4863 C   0  0  1  0  0  0  0  0  0  0  0  0
  -27.7089  -13.0071   19.6799 C   0  0  2  0  0  0  0  0  0  0  0  0
  -33.3734  -22.4005   24.4313 C   0  0  1  0  0  0  0  0  0  1  0  0
  -28.5326  -17.4917   22.8010 C   0  0  0  0  0  0  0  0  0  0  0  0
  -34.2712  -17.3459   23.4522 C   0  0  0  0  0  0  0  0  0  0  0  0
  -30.9888  -19.7422   27.6472 C   0  0  0  0  0  0  0  0  0  0  0  0
  -25.9888  -22.5884   17.1916 C   0  0  0  0  0  0  0  0  0  0  0  0
  -29.9223  -27.9061   17.5389 C   0  0  0  0  0  0  0  0  0  0  0  0
  -27.6235  -26.9250   17.6851 C   0  0  0  0  0  0  0  0  0  0  0  0
  -28.9048  -26.7832   15.5494 C   0  0  0  0  0  0  0  0  0  0  0  0
  -28.9875  -20.4361   18.1142 C   0  0  0  0  0  0  0  0  0  0  0  0
  -32.6572  -19.3026   24.9279 C   0  0  0  0  0  0  0  0  0  0  0  0
  -29.5991  -25.3447   17.5091 C   0  0  1  0  0  0  0  0  0  0  0  0
  -27.4631  -22.2226   17.2638 C   0  0  2  0  0  0  0  0  0  0  0  0
  -29.0333  -26.7301   17.0874 C   0  0  0  0  0  0  0  0  0  0  0  0
  -25.8721  -11.4926   20.3231 N   0  0  0  0  0  0  0  0  0  0  0  0
  -26.2844  -12.7584   20.1392 N   0  0  0  0  0  0  0  0  0  0  0  0
  -31.9953  -24.8903   17.9280 N   0  0  0  0  0  0  0  0  0  0  0  0
  -30.0314  -13.4596   20.3668 N   0  0  0  0  0  0  0  0  0  0  0  0
  -25.5731  -15.0141   20.2676 N   0  0  0  0  0  0  0  0  0  0  0  0
  -21.9074  -12.6928   21.5207 N   0  0  0  0  0  0  0  0  0  0  0  0
  -30.1806  -15.5866   21.3747 N   0  0  0  0  0  0  0  0  0  0  0  0
  -34.3406  -26.8490   16.5022 N   0  0  0  0  0  0  0  0  0  0  0  0
  -28.7917  -24.2112   17.0714 N   0  0  0  0  0  0  0  0  0  0  0  0
  -31.9026  -20.5974   25.0287 N   0  3  1  0  0  0  0  0  0  0  0  0
  -27.5910  -20.9275   17.9898 N   0  3  0  0  0  0  0  0  0  0  0  0
  -22.7430  -14.7960   21.1505 O   0  0  0  0  0  0  0  0  0  0  0  0
  -34.0166  -26.7089   18.8039 O   0  0  0  0  0  0  0  0  0  0  0  0
  -31.1766  -25.0988   15.7549 O   0  0  0  0  0  0  0  0  0  0  0  0
  -28.4103  -23.3389   19.1858 O   0  0  0  0  0  0  0  0  0  0  0  0
  -31.9552  -14.7237   20.1549 O   0  0  0  0  0  0  0  0  0  0  0  0
  -21.4868   -7.1501   21.8920 O   0  0  0  0  0  0  0  0  0  0  0  0
  -33.3944  -23.6741   23.8116 O   0  0  0  0  0  0  0  0  0  1  0  0
  -16.3461   -7.0046   19.9030 F   0  0  0  0  0  0  0  0  0  0  0  0
  -20.6835   -5.1300   20.1842 F   0  0  0  0  0  0  0  0  0  0  0  0
  1  2  1  0  0  0  0
  1  5  2  0  0  0  0
  2  6  2  0  0  0  0
  3  8  2  0  0  0  0
  3 17  1  0  0  0  0
  4  9  1  0  0  0  0
  4 17  2  0  0  0  0
  5 19  1  0  0  0  0
  6 21  1  0  0  0  0
  7 10  2  0  0  0  0
  7 20  1  0  0  0  0
  8 27  1  0  0  0  0
  9 27  2  0  0  0  0
 10 28  1  0  0  0  0
 11 12  2  0  0  0  0
 11 29  1  0  0  0  0
 12 30  1  0  0  0  0
 13 22  1  0  0  0  0
 13 28  2  0  0  0  0
 14 23  1  0  0  0  0
 14 24  2  0  0  0  0
 15 25  1  0  0  0  0
 15 26  2  0  0  0  0
 16 30  2  0  0  0  0
 16 31  1  0  0  0  0
 17 32  1  0  0  0  0
 18 32  1  0  0  0  0
 18 33  2  0  0  0  0
 18 36  1  0  0  0  0
 19 21  2  0  0  0  0
 19 41  1  0  0  0  0
 20 22  2  0  0  0  0
 20 42  1  0  0  0  0
 21 52  1  0  0  0  0
 22 43  1  0  0  0  0
 23 25  2  0  0  0  0
 23 64  1  0  0  0  0
 24 26  1  0  0  0  0
 24 56  1  0  0  0  0
 25 57  1  0  0  0  0
 26 74  1  0  0  0  0
 27 84  1  0  0  0  0
 28 85  1  0  0  0  0
 29 31  2  0  0  0  0
 29 84  1  0  0  0  0
 30 86  1  0  0  0  0
 31 87  1  0  0  0  0
 32 68  2  0  0  0  0
 33 69  1  0  0  0  0
 33 72  1  0  0  0  0
 34 35  2  0  0  0  0
 34 44  1  0  0  0  0
 34 77  1  0  0  0  0
 35 58  1  0  0  0  0
 36 73  1  0  0  0  0
 36 79  2  0  0  0  0
 37 53  1  0  0  0  0
 37 75  1  0  0  0  0
 37 80  2  0  0  0  0
 38 65  1  0  0  0  0
 38 70  1  0  0  0  0
 38 81  2  0  0  0  0
 39 66  1  0  0  0  0
 39 76  1  0  0  0  0
 39 82  2  0  0  0  0
 40 71  1  0  0  0  0
 40 74  1  0  0  0  0
 40 83  2  0  0  0  0
 41 45  1  0  0  0  0
 42 53  1  0  0  0  0
 43 70  1  0  0  0  0
 44 55  1  0  0  0  0
 45 47  1  0  0  0  0
 46 48  1  0  0  0  0
 46 49  1  0  0  0  0
 47 52  1  0  0  0  0
 48 54  1  0  0  0  0
 49 71  1  0  0  0  0
 50 54  1  0  0  0  0
 50 71  1  0  0  0  0
 51 55  1  0  0  0  0
 51 77  1  0  0  0  0
 52 75  1  0  0  0  0
 53 70  1  0  0  0  0
 54 69  1  0  0  0  0
 55 85  1  0  0  0  0
 59 66  1  0  0  0  0
 60 67  1  0  0  0  0
 61 67  1  0  0  0  0
 62 67  1  0  0  0  0
 63 78  1  0  0  0  0
 64 77  1  0  0  0  0
 65 67  1  0  0  0  0
 65 76  1  0  0  0  0
 66 78  1  0  0  0  0
 68 69  1  0  0  0  0
M  CHG  2  77   1  78   1
M  ISO  4  40 100  55 101  74 100  85 101
M  END
> <Batch ID>
0034

> <Smiles>
CC=C1C[101CH:1]([101O:1]c2ccc3c(c2)CN(C(=O)C(NC(=O)C(C)NC)C(C)(C)C)C(C(=O)NC2CCCc4ccccc42)C3)CN1Cc1cc(C)c([100NH:0][100C:0](=O)N2CCCC(n3nc(-c4ccc(Oc5ccc(F)cc5F)cc4)c(C(N)=O)c3N)C2)cc1C

> <Shape>
0.184

> <Color>
0.192

> <Negative vol penalty>
0.000

$$$$
