
  -OEChem-04042321513D

 88 97  0     1  0  0  0  0  0999 V2000
  -22.3147  -31.8173   14.5153 C   0  0  0  0  0  0  0  0  0  0  0  0
  -23.4238  -31.1829   15.0655 C   0  0  0  0  0  0  0  0  0  0  0  0
  -24.6314   -8.8983   20.8905 C   0  0  0  0  0  0  0  0  0  0  0  0
  -23.0034  -10.6811   20.7975 C   0  0  0  0  0  0  0  0  0  0  0  0
  -21.6903  -32.8532   15.2087 C   0  0  0  0  0  0  0  0  0  0  0  0
  -23.9098  -31.5848   16.3092 C   0  0  0  0  0  0  0  0  0  0  0  0
  -25.0002  -27.6673   19.3273 C   0  0  0  0  0  0  0  0  0  0  0  0
  -23.6141   -7.9836   21.1626 C   0  0  0  0  0  0  0  0  0  0  0  0
  -21.9862   -9.7663   21.0696 C   0  0  0  0  0  0  0  0  0  0  0  0
  -26.1957  -26.9915   19.0866 C   0  0  0  0  0  0  0  0  0  0  0  0
  -21.7631   -7.0375   23.8278 C   0  0  0  0  0  0  0  0  0  0  0  0
  -21.9830   -6.1083   24.8445 C   0  0  0  0  0  0  0  0  0  0  0  0
  -27.2361  -28.1996   20.8970 C   0  0  0  0  0  0  0  0  0  0  0  0
  -27.7851  -19.8887   18.9324 C   0  0  0  0  0  0  0  0  0  0  0  0
  -21.7089   -4.3071   23.2578 C   0  0  0  0  0  0  0  0  0  0  0  0
  -24.3260  -10.2471   20.7080 C   0  0  0  0  0  0  0  0  0  0  0  0
  -26.2595  -11.1817   19.3310 C   0  0  0  0  0  0  0  0  0  0  0  0
  -22.1630  -33.2616   16.4659 C   0  0  0  0  0  0  0  0  0  0  0  0
  -24.9166  -28.6237   20.3493 C   0  0  0  0  0  0  0  0  0  0  0  0
  -23.2919  -32.6280   17.0195 C   0  0  0  0  0  0  0  0  0  0  0  0
  -26.0377  -28.8842   21.1503 C   0  0  0  0  0  0  0  0  0  0  0  0
  -27.8165  -20.9308   18.0057 C   0  0  0  0  0  0  0  0  0  0  0  0
  -27.9395  -20.6504   16.6448 C   0  0  0  0  0  0  0  0  0  0  0  0
  -28.0312  -19.3280   16.2106 C   0  0  0  0  0  0  0  0  0  0  0  0
  -27.9998  -18.2859   17.1374 C   0  0  0  0  0  0  0  0  0  0  0  0
  -27.8769  -18.5663   18.4982 C   0  0  0  0  0  0  0  0  0  0  0  0
  -22.2915   -8.4176   21.2522 C   0  0  0  0  0  0  0  0  0  0  0  0
  -27.3147  -27.2597   19.8696 C   0  0  0  0  0  0  0  0  0  0  0  0
  -21.5160   -6.6015   22.5260 C   0  0  0  0  0  0  0  0  0  0  0  0
  -21.9560   -4.7432   24.5596 C   0  0  0  0  0  0  0  0  0  0  0  0
  -21.4889   -5.2363   22.2410 C   0  0  0  0  0  0  0  0  0  0  0  0
  -25.3765  -11.1926   20.4274 C   0  0  0  0  0  0  0  0  0  0  0  0
  -27.0591  -12.2818   19.5233 C   0  0  0  0  0  0  0  0  0  0  0  0
  -28.8282  -24.5046   18.4520 C   0  0  0  0  0  0  0  0  0  0  0  0
  -29.0017  -25.1335   17.2778 C   0  0  0  0  0  0  0  0  0  0  0  0
  -26.3488  -10.2598   18.2367 C   0  0  0  0  0  0  0  0  0  0  0  0
  -24.3107  -31.7422   20.4590 C   0  0  0  0  0  0  0  0  0  0  0  0
  -24.3895  -31.2490   23.6642 C   0  0  0  0  0  0  0  0  0  0  0  0
  -26.4068  -29.3683   25.9903 C   0  0  0  0  0  0  0  0  0  0  0  0
  -27.7227  -17.6510   20.8402 C   0  0  0  0  0  0  0  0  0  0  0  0
  -21.4837  -34.4176   17.1564 C   0  0  0  0  0  0  0  0  0  0  0  0
  -23.6123  -29.3247   20.6135 C   0  0  0  0  0  0  0  0  0  0  0  0
  -25.9944  -29.8872   22.2730 C   0  0  0  0  0  0  0  0  0  0  0  0
  -21.8331  -34.5327   18.6379 C   0  0  0  0  0  0  0  0  0  0  0  0
  -27.5613  -15.3285   23.5341 C   0  0  0  0  0  0  0  0  0  0  0  0
  -29.5911  -23.2486   20.9137 C   0  0  0  0  0  0  0  0  0  0  0  0
  -23.3381  -34.3931   18.8439 C   0  0  0  0  0  0  0  0  0  0  0  0
  -29.4311  -24.7638   20.8578 C   0  0  0  0  0  0  0  0  0  0  0  0
  -27.0512  -14.0446   22.8758 C   0  0  0  0  0  0  0  0  0  0  0  0
  -26.9142  -16.5725   22.9278 C   0  0  0  0  0  0  0  0  0  0  0  0
  -26.5000  -15.3883   20.8076 C   0  0  0  0  0  0  0  0  0  0  0  0
  -29.9987  -22.6811   19.5581 C   0  0  0  0  0  0  0  0  0  0  0  0
  -23.8337  -33.0189   18.3774 C   0  0  1  0  0  0  0  0  0  0  0  0
  -28.4624  -25.1829   19.7531 C   0  0  1  0  0  0  0  0  0  1  0  0
  -23.7846  -30.6508   21.3477 C   0  0  1  0  0  0  0  0  0  0  0  0
  -27.1714  -14.1122   21.3407 C   0  0  2  0  0  0  0  0  0  0  0  0
  -27.9741  -21.7706   15.6537 C   0  0  0  0  0  0  0  0  0  0  0  0
  -28.1633  -19.0280   14.7506 C   0  0  0  0  0  0  0  0  0  0  0  0
  -28.1001  -16.8677   16.6691 C   0  0  0  0  0  0  0  0  0  0  0  0
  -25.8396  -28.4131   28.2405 C   0  0  0  0  0  0  0  0  0  0  0  0
  -25.5373  -33.8629   24.7412 C   0  0  0  0  0  0  0  0  0  0  0  0
  -26.5440  -32.5620   26.6287 C   0  0  0  0  0  0  0  0  0  0  0  0
  -24.0666  -32.6302   26.3449 C   0  0  0  0  0  0  0  0  0  0  0  0
  -27.2409  -26.6483   25.1748 C   0  0  0  0  0  0  0  0  0  0  0  0
  -27.7199  -22.3443   18.4992 C   0  0  0  0  0  0  0  0  0  0  0  0
  -25.4632  -31.2821   24.7249 C   0  0  1  0  0  0  0  0  0  0  0  0
  -25.9909  -28.1246   26.7550 C   0  0  2  0  0  0  0  0  0  0  0  0
  -25.4088  -32.5776   25.5829 C   0  0  0  0  0  0  0  0  0  0  0  0
  -25.5945  -12.2181   21.2549 N   0  0  0  0  0  0  0  0  0  0  0  0
  -26.6237  -12.8619   20.6783 N   0  0  0  0  0  0  0  0  0  0  0  0
  -24.6980  -30.5511   22.4879 N   0  0  0  0  0  0  0  0  0  0  0  0
  -27.0713  -16.5704   21.4717 N   0  0  0  0  0  0  0  0  0  0  0  0
  -28.0853  -12.7997   18.8154 N   0  0  0  0  0  0  0  0  0  0  0  0
  -25.5982  -10.5189   17.0818 N   0  0  0  0  0  0  0  0  0  0  0  0
  -27.8420  -17.5233   19.4567 N   0  0  0  0  0  0  0  0  0  0  0  0
  -23.5147  -32.0061   19.3607 N   0  0  0  0  0  0  0  0  0  0  0  0
  -25.3166  -30.0503   25.4927 N   0  0  0  0  0  0  0  0  0  0  0  0
  -29.0352  -23.0728   18.4616 N   0  3  1  0  0  0  0  0  0  0  0  0
  -27.0082  -27.0486   26.5864 N   0  3  0  0  0  0  0  0  0  0  0  0
  -27.0602   -9.2278   18.2879 O   0  0  0  0  0  0  0  0  0  0  0  0
  -25.3603  -32.3042   20.7491 O   0  0  0  0  0  0  0  0  0  0  0  0
  -23.3139  -31.8152   23.8745 O   0  0  0  0  0  0  0  0  0  0  0  0
  -27.5811  -29.7035   25.8517 O   0  0  0  0  0  0  0  0  0  0  0  0
  -28.1678  -18.6055   21.4826 O   0  0  0  0  0  0  0  0  0  0  0  0
  -21.2986   -7.5252   21.5175 O   0  0  0  0  0  0  0  0  0  0  0  0
  -28.4830  -26.6020   19.6363 O   0  0  0  0  0  0  0  0  0  1  0  0
  -22.1687   -3.8510   25.5358 F   0  0  0  0  0  0  0  0  0  0  0  0
  -21.2532   -4.8114   20.9922 F   0  0  0  0  0  0  0  0  0  0  0  0
  1  2  1  0  0  0  0
  1  5  2  0  0  0  0
  2  6  2  0  0  0  0
  3  8  2  0  0  0  0
  3 16  1  0  0  0  0
  4  9  1  0  0  0  0
  4 16  2  0  0  0  0
  5 18  1  0  0  0  0
  6 20  1  0  0  0  0
  7 10  2  0  0  0  0
  7 19  1  0  0  0  0
  8 27  1  0  0  0  0
  9 27  2  0  0  0  0
 10 28  1  0  0  0  0
 11 12  2  0  0  0  0
 11 29  1  0  0  0  0
 12 30  1  0  0  0  0
 13 21  1  0  0  0  0
 13 28  2  0  0  0  0
 14 22  1  0  0  0  0
 14 26  2  0  0  0  0
 15 30  2  0  0  0  0
 15 31  1  0  0  0  0
 16 32  1  0  0  0  0
 17 32  1  0  0  0  0
 17 33  2  0  0  0  0
 17 36  1  0  0  0  0
 18 20  2  0  0  0  0
 18 41  1  0  0  0  0
 19 21  2  0  0  0  0
 19 42  1  0  0  0  0
 20 53  1  0  0  0  0
 21 43  1  0  0  0  0
 22 23  2  0  0  0  0
 22 65  1  0  0  0  0
 23 24  1  0  0  0  0
 23 57  1  0  0  0  0
 24 25  2  0  0  0  0
 24 58  1  0  0  0  0
 25 26  1  0  0  0  0
 25 59  1  0  0  0  0
 26 75  1  0  0  0  0
 27 85  1  0  0  0  0
 28 86  1  0  0  0  0
 29 31  2  0  0  0  0
 29 85  1  0  0  0  0
 30 87  1  0  0  0  0
 31 88  1  0  0  0  0
 32 69  2  0  0  0  0
 33 70  1  0  0  0  0
 33 73  1  0  0  0  0
 34 35  2  0  0  0  0
 34 54  1  0  0  0  0
 34 78  1  0  0  0  0
 36 74  1  0  0  0  0
 36 80  2  0  0  0  0
 37 55  1  0  0  0  0
 37 76  1  0  0  0  0
 37 81  2  0  0  0  0
 38 66  1  0  0  0  0
 38 71  1  0  0  0  0
 38 82  2  0  0  0  0
 39 67  1  0  0  0  0
 39 77  1  0  0  0  0
 39 83  2  0  0  0  0
 40 72  1  0  0  0  0
 40 75  1  0  0  0  0
 40 84  2  0  0  0  0
 41 44  1  0  0  0  0
 42 55  1  0  0  0  0
 43 71  1  0  0  0  0
 44 47  1  0  0  0  0
 45 49  1  0  0  0  0
 45 50  1  0  0  0  0
 46 48  1  0  0  0  0
 46 52  1  0  0  0  0
 47 53  1  0  0  0  0
 48 54  1  0  0  0  0
 49 56  1  0  0  0  0
 50 72  1  0  0  0  0
 51 56  1  0  0  0  0
 51 72  1  0  0  0  0
 52 78  1  0  0  0  0
 53 76  1  0  0  0  0
 54 86  1  0  0  0  0
 55 71  1  0  0  0  0
 56 70  1  0  0  0  0
 60 67  1  0  0  0  0
 61 68  1  0  0  0  0
 62 68  1  0  0  0  0
 63 68  1  0  0  0  0
 64 79  1  0  0  0  0
 65 78  1  0  0  0  0
 66 68  1  0  0  0  0
 66 77  1  0  0  0  0
 67 79  1  0  0  0  0
 69 70  1  0  0  0  0
M  CHG  2  78   1  79   1
M  ISO  4  40 100  54 101  75 100  86 101
M  END
> <Batch ID>
0035

> <Smiles>
C=C1N(Cc2cc([100NH:0][100C:0](=O)N3CCCC(n4nc(-c5ccc(Oc6ccc(F)cc6F)cc5)c(C(N)=O)c4N)C3)c(C)c(C)c2C)CCC[101CH:1]1[101O:1]c1ccc2c(c1)CN(C(=O)C(NC(=O)C(C)NC)C(C)(C)C)C(C(=O)NC1CCCc3ccccc31)C2

> <Shape>
0.296

> <Color>
0.124

> <Negative vol penalty>
0.000

$$$$

  -OEChem-04042321513D

 84 92  0     1  0  0  0  0  0999 V2000
  -23.6315  -23.7224   18.2458 C   0  0  0  0  0  0  0  0  0  0  0  0
  -24.7139  -22.9728   18.6951 C   0  0  0  0  0  0  0  0  0  0  0  0
  -23.0734  -27.3968   20.6331 C   0  0  0  0  0  0  0  0  0  0  0  0
  -24.4878  -27.1224   22.5725 C   0  0  0  0  0  0  0  0  0  0  0  0
  -22.3350  -23.3587   18.6075 C   0  0  0  0  0  0  0  0  0  0  0  0
  -24.5005  -21.8597   19.5074 C   0  0  0  0  0  0  0  0  0  0  0  0
  -27.2678  -17.8620   18.0913 C   0  0  0  0  0  0  0  0  0  0  0  0
  -22.0196  -26.7892   21.3156 C   0  0  0  0  0  0  0  0  0  0  0  0
  -23.4340  -26.5148   23.2551 C   0  0  0  0  0  0  0  0  0  0  0  0
  -28.6141  -17.8591   18.4534 C   0  0  0  0  0  0  0  0  0  0  0  0
  -18.8499  -25.6360   22.6715 C   0  0  0  0  0  0  0  0  0  0  0  0
  -17.5917  -26.2316   22.5842 C   0  0  0  0  0  0  0  0  0  0  0  0
  -28.1086  -16.3890   20.2980 C   0  0  0  0  0  0  0  0  0  0  0  0
  -32.7249  -23.5981   21.9330 C   0  0  0  0  0  0  0  0  0  0  0  0
  -32.9606  -23.0495   19.5920 C   0  0  0  0  0  0  0  0  0  0  0  0
  -18.4793  -28.2512   23.5694 C   0  0  0  0  0  0  0  0  0  0  0  0
  -24.3075  -27.5633   21.2615 C   0  0  0  0  0  0  0  0  0  0  0  0
  -25.7095  -29.5625   20.5230 C   0  0  0  0  0  0  0  0  0  0  0  0
  -22.1050  -22.2349   19.4167 C   0  0  0  0  0  0  0  0  0  0  0  0
  -26.3284  -17.1359   18.8375 C   0  0  0  0  0  0  0  0  0  0  0  0
  -23.1998  -21.4814   19.8814 C   0  0  0  0  0  0  0  0  0  0  0  0
  -26.7513  -16.3823   19.9417 C   0  0  0  0  0  0  0  0  0  0  0  0
  -32.7916  -23.9998   20.5990 C   0  0  0  0  0  0  0  0  0  0  0  0
  -32.8273  -22.2459   22.2602 C   0  0  0  0  0  0  0  0  0  0  0  0
  -32.9963  -21.2956   21.2533 C   0  0  0  0  0  0  0  0  0  0  0  0
  -22.1998  -26.3482   22.6266 C   0  0  0  0  0  0  0  0  0  0  0  0
  -29.0343  -17.1249   19.5586 C   0  0  0  0  0  0  0  0  0  0  0  0
  -19.9229  -26.3480   23.2078 C   0  0  0  0  0  0  0  0  0  0  0  0
  -17.4063  -27.5392   23.0332 C   0  0  0  0  0  0  0  0  0  0  0  0
  -19.7376  -27.6555   23.6567 C   0  0  0  0  0  0  0  0  0  0  0  0
  -33.0629  -21.6973   19.9192 C   0  0  0  0  0  0  0  0  0  0  0  0
  -25.3967  -28.1904   20.5567 C   0  0  0  0  0  0  0  0  0  0  0  0
  -26.8232  -29.6412   19.7230 C   0  0  0  0  0  0  0  0  0  0  0  0
  -25.0522  -30.6672   21.1581 C   0  0  0  0  0  0  0  0  0  0  0  0
  -23.7499  -17.8871   20.5377 C   0  0  0  0  0  0  0  0  0  0  0  0
  -23.4303  -14.6660   20.7502 C   0  0  0  0  0  0  0  0  0  0  0  0
  -24.9135  -11.5942   20.6454 C   0  0  0  0  0  0  0  0  0  0  0  0
  -31.1298  -25.7208   18.3322 C   0  0  0  0  0  0  0  0  0  0  0  0
  -20.6889  -21.9086   19.8202 C   0  0  0  0  0  0  0  0  0  0  0  0
  -24.8840  -17.1279   18.4180 C   0  0  0  0  0  0  0  0  0  0  0  0
  -25.7858  -15.5697   20.7639 C   0  0  0  0  0  0  0  0  0  0  0  0
  -20.5240  -20.4965   20.3761 C   0  0  0  0  0  0  0  0  0  0  0  0
  -28.9728  -27.4240   16.0687 C   0  0  0  0  0  0  0  0  0  0  0  0
  -21.6194  -20.1917   21.3930 C   0  0  0  0  0  0  0  0  0  0  0  0
  -27.8399  -27.9373   16.9592 C   0  0  0  0  0  0  0  0  0  0  0  0
  -29.4709  -26.0537   16.5229 C   0  0  0  0  0  0  0  0  0  0  0  0
  -28.7311  -26.4902   18.8328 C   0  0  0  0  0  0  0  0  0  0  0  0
  -23.0073  -20.2528   20.7437 C   0  0  1  0  0  0  0  0  0  0  0  0
  -23.9336  -16.7654   19.5549 C   0  0  1  0  0  0  0  0  0  0  0  0
  -28.2334  -27.8940   18.4480 C   0  0  2  0  0  0  0  0  0  0  0  0
  -32.7539  -21.8446   23.6974 C   0  0  0  0  0  0  0  0  0  0  0  0
  -24.4016   -9.1501   20.8929 C   0  0  0  0  0  0  0  0  0  0  0  0
  -23.2833  -15.0059   23.7789 C   0  0  0  0  0  0  0  0  0  0  0  0
  -23.7295  -12.5529   24.0059 C   0  0  0  0  0  0  0  0  0  0  0  0
  -21.6720  -13.3415   22.8365 C   0  0  0  0  0  0  0  0  0  0  0  0
  -25.7744  -11.0146   17.8738 C   0  0  0  0  0  0  0  0  0  0  0  0
  -32.6810  -25.4456   20.2498 C   0  0  0  0  0  0  0  0  0  0  0  0
  -33.1053  -19.8455   21.6223 C   0  0  0  0  0  0  0  0  0  0  0  0
  -31.9679  -17.6217   21.6195 C   0  0  0  0  0  0  0  0  0  0  0  0
  -30.6444  -16.9548   21.3005 C   0  0  0  0  0  0  0  0  0  1  0  0
  -23.9181  -13.6040   21.7058 C   0  0  1  0  0  0  0  0  0  0  0  0
  -24.5306  -10.3148   19.9237 C   0  0  2  0  0  0  0  0  0  0  0  0
  -23.1689  -13.6428   23.0676 C   0  0  0  0  0  0  0  0  0  0  0  0
  -26.2431  -27.4507   19.8354 N   0  0  0  0  0  0  0  0  0  0  0  0
  -27.0988  -28.3613   19.3408 N   0  0  0  0  0  0  0  0  0  0  0  0
  -24.3832  -15.5990   20.3174 N   0  0  0  0  0  0  0  0  0  0  0  0
  -29.8291  -26.0809   17.9431 N   0  0  0  0  0  0  0  0  0  0  0  0
  -27.5837  -30.6797   19.3162 N   0  0  0  0  0  0  0  0  0  0  0  0
  -23.9217  -30.4091   21.9452 N   0  0  0  0  0  0  0  0  0  0  0  0
  -23.2602  -19.0514   19.9775 N   0  0  0  0  0  0  0  0  0  0  0  0
  -23.8042  -12.3339   20.9972 N   0  0  0  0  0  0  0  0  0  0  0  0
  -31.3877  -25.7801   19.6963 N   0  0  0  0  0  0  0  0  0  0  0  0
  -25.5609   -9.9666   18.9048 N   0  3  0  0  0  0  0  0  0  0  0  0
  -31.8701  -19.0727   21.3206 N   0  3  0  0  0  0  0  0  0  0  0  0
  -25.4458  -31.8500   21.0181 O   0  0  0  0  0  0  0  0  0  0  0  0
  -24.0303  -17.7088   21.7173 O   0  0  0  0  0  0  0  0  0  0  0  0
  -22.2490  -14.6635   20.3951 O   0  0  0  0  0  0  0  0  0  0  0  0
  -26.0799  -11.9045   20.8775 O   0  0  0  0  0  0  0  0  0  0  0  0
  -31.9987  -25.3776   17.5233 O   0  0  0  0  0  0  0  0  0  0  0  0
  -21.1716  -25.7555   23.2930 O   0  0  0  0  0  0  0  0  0  0  0  0
  -30.3477  -17.1209   19.9146 O   0  0  0  0  0  0  0  0  0  1  0  0
  -16.1983  -28.1115   22.9479 F   0  0  0  0  0  0  0  0  0  0  0  0
  -20.7648  -28.3449   24.1718 F   0  0  0  0  0  0  0  0  0  0  0  0
  -33.2697  -20.5517   18.6440 Cl  0  0  0  0  0  0  0  0  0  0  0  0
  1  2  1  0  0  0  0
  1  5  2  0  0  0  0
  2  6  2  0  0  0  0
  3  8  2  0  0  0  0
  3 17  1  0  0  0  0
  4  9  1  0  0  0  0
  4 17  2  0  0  0  0
  5 19  1  0  0  0  0
  6 21  1  0  0  0  0
  7 10  2  0  0  0  0
  7 20  1  0  0  0  0
  8 26  1  0  0  0  0
  9 26  2  0  0  0  0
 10 27  1  0  0  0  0
 11 12  2  0  0  0  0
 11 28  1  0  0  0  0
 12 29  1  0  0  0  0
 13 22  1  0  0  0  0
 13 27  2  0  0  0  0
 14 23  1  0  0  0  0
 14 24  2  0  0  0  0
 15 23  2  0  0  0  0
 15 31  1  0  0  0  0
 16 29  2  0  0  0  0
 16 30  1  0  0  0  0
 17 32  1  0  0  0  0
 18 32  1  0  0  0  0
 18 33  2  0  0  0  0
 18 34  1  0  0  0  0
 19 21  2  0  0  0  0
 19 39  1  0  0  0  0
 20 22  2  0  0  0  0
 20 40  1  0  0  0  0
 21 48  1  0  0  0  0
 22 41  1  0  0  0  0
 23 57  1  0  0  0  0
 24 25  1  0  0  0  0
 24 51  1  0  0  0  0
 25 31  2  0  0  0  0
 25 58  1  0  0  0  0
 26 80  1  0  0  0  0
 27 81  1  0  0  0  0
 28 30  2  0  0  0  0
 28 80  1  0  0  0  0
 29 82  1  0  0  0  0
 30 83  1  0  0  0  0
 31 84  1  0  0  0  0
 32 64  2  0  0  0  0
 33 65  1  0  0  0  0
 33 68  1  0  0  0  0
 34 69  1  0  0  0  0
 34 75  2  0  0  0  0
 35 49  1  0  0  0  0
 35 70  1  0  0  0  0
 35 76  2  0  0  0  0
 36 61  1  0  0  0  0
 36 66  1  0  0  0  0
 36 77  2  0  0  0  0
 37 62  1  0  0  0  0
 37 71  1  0  0  0  0
 37 78  2  0  0  0  0
 38 67  1  0  0  0  0
 38 72  1  0  0  0  0
 38 79  2  0  0  0  0
 39 42  1  0  0  0  0
 40 49  1  0  0  0  0
 41 66  1  0  0  0  0
 42 44  1  0  0  0  0
 43 45  1  0  0  0  0
 43 46  1  0  0  0  0
 44 48  1  0  0  0  0
 45 50  1  0  0  0  0
 46 67  1  0  0  0  0
 47 50  1  0  0  0  0
 47 67  1  0  0  0  0
 48 70  1  0  0  0  0
 49 66  1  0  0  0  0
 50 65  1  0  0  0  0
 52 62  1  0  0  0  0
 53 63  1  0  0  0  0
 54 63  1  0  0  0  0
 55 63  1  0  0  0  0
 56 73  1  0  0  0  0
 57 72  1  0  0  0  0
 58 74  1  0  0  0  0
 59 60  1  0  0  0  0
 59 74  1  0  0  0  0
 60 81  1  0  0  0  0
 61 63  1  0  0  0  0
 61 71  1  0  0  0  0
 62 73  1  0  0  0  0
 64 65  1  0  0  0  0
M  CHG  2  73   1  74   1
M  ISO  4  38 100  60 101  72 100  81 101
M  END
> <Batch ID>
0035

> <Smiles>
CNC(C)C(=O)NC(C(=O)N1Cc2cc([101O:1][101CH2:1]CNCc3c(C)cc(C[100NH:0][100C:0](=O)N4CCCC(n5nc(-c6ccc(Oc7ccc(F)cc7F)cc6)c(C(N)=O)c5N)C4)cc3Cl)ccc2CC1C(=O)NC1CCCc2ccccc21)C(C)(C)C

> <Shape>
0.206

> <Color>
0.069

> <Negative vol penalty>
0.000

$$$$

  -OEChem-04042321513D

 88 97  0     1  0  0  0  0  0999 V2000
  -19.6687  -24.2674   21.5906 C   0  0  0  0  0  0  0  0  0  0  0  0
  -20.7972  -24.8175   20.9911 C   0  0  0  0  0  0  0  0  0  0  0  0
  -27.2900  -14.3745   21.3131 C   0  0  0  0  0  0  0  0  0  0  0  0
  -24.9392  -14.7446   20.8958 C   0  0  0  0  0  0  0  0  0  0  0  0
  -18.7368  -25.0971   22.2128 C   0  0  0  0  0  0  0  0  0  0  0  0
  -20.9938  -26.1979   21.0125 C   0  0  0  0  0  0  0  0  0  0  0  0
  -25.7517  -27.4644   22.1970 C   0  0  0  0  0  0  0  0  0  0  0  0
  -27.1324  -13.0238   21.0030 C   0  0  0  0  0  0  0  0  0  0  0  0
  -24.7816  -13.3938   20.5857 C   0  0  0  0  0  0  0  0  0  0  0  0
  -26.7101  -27.3507   21.1909 C   0  0  0  0  0  0  0  0  0  0  0  0
  -24.4839  -10.4716   22.2599 C   0  0  0  0  0  0  0  0  0  0  0  0
  -23.3861   -9.8055   22.8044 C   0  0  0  0  0  0  0  0  0  0  0  0
  -26.5683  -29.7262   20.7958 C   0  0  0  0  0  0  0  0  0  0  0  0
  -30.2649  -24.6395   19.5602 C   0  0  0  0  0  0  0  0  0  0  0  0
  -22.5866   -9.3048   20.5801 C   0  0  0  0  0  0  0  0  0  0  0  0
  -26.1934  -15.2350   21.2596 C   0  0  0  0  0  0  0  0  0  0  0  0
  -26.8011  -17.1762   22.7990 C   0  0  0  0  0  0  0  0  0  0  0  0
  -18.9270  -26.4874   22.2503 C   0  0  0  0  0  0  0  0  0  0  0  0
  -25.1855  -28.7102   22.5032 C   0  0  0  0  0  0  0  0  0  0  0  0
  -20.0628  -27.0470   21.6346 C   0  0  0  0  0  0  0  0  0  0  0  0
  -25.6048  -29.8534   21.8080 C   0  0  0  0  0  0  0  0  0  0  0  0
  -31.4262  -25.4094   19.6249 C   0  0  0  0  0  0  0  0  0  0  0  0
  -32.3108  -25.2489   20.6914 C   0  0  0  0  0  0  0  0  0  0  0  0
  -32.0340  -24.3187   21.6933 C   0  0  0  0  0  0  0  0  0  0  0  0
  -29.9880  -23.7093   20.5621 C   0  0  0  0  0  0  0  0  0  0  0  0
  -25.8782  -12.5334   20.6393 C   0  0  0  0  0  0  0  0  0  0  0  0
  -27.1165  -28.4813   20.4882 C   0  0  0  0  0  0  0  0  0  0  0  0
  -24.6332  -10.5544   20.8754 C   0  0  0  0  0  0  0  0  0  0  0  0
  -22.4374   -9.2221   21.9645 C   0  0  0  0  0  0  0  0  0  0  0  0
  -23.6845   -9.9710   20.0356 C   0  0  0  0  0  0  0  0  0  0  0  0
  -30.8725  -23.5489   21.6286 C   0  0  0  0  0  0  0  0  0  0  0  0
  -26.3554  -16.6303   21.5803 C   0  0  0  0  0  0  0  0  0  0  0  0
  -26.7786  -18.5344   22.5954 C   0  0  0  0  0  0  0  0  0  0  0  0
  -27.1998  -16.5148   24.0070 C   0  0  0  0  0  0  0  0  0  0  0  0
  -22.2489  -29.9234   22.4095 C   0  0  0  0  0  0  0  0  0  0  0  0
  -23.6763  -32.4701   23.8235 C   0  0  0  0  0  0  0  0  0  0  0  0
  -26.7679  -34.2939   23.4590 C   0  0  0  0  0  0  0  0  0  0  0  0
  -27.8382  -23.0068   19.4525 C   0  0  0  0  0  0  0  0  0  0  0  0
  -17.8683  -27.3478   22.8933 C   0  0  0  0  0  0  0  0  0  0  0  0
  -24.1723  -28.8202   23.6095 C   0  0  0  0  0  0  0  0  0  0  0  0
  -25.0425  -31.2172   22.1121 C   0  0  0  0  0  0  0  0  0  0  0  0
  -18.3396  -28.7673   23.1985 C   0  0  0  0  0  0  0  0  0  0  0  0
  -24.7955  -21.2676   18.8247 C   0  0  0  0  0  0  0  0  0  0  0  0
  -19.0724  -29.3564   21.9973 C   0  0  0  0  0  0  0  0  0  0  0  0
  -24.9667  -19.9510   19.5859 C   0  0  0  0  0  0  0  0  0  0  0  0
  -29.4205  -30.1158   18.5294 C   0  0  0  0  0  0  0  0  0  0  0  0
  -29.6747  -29.4111   17.2019 C   0  0  0  0  0  0  0  0  0  0  0  0
  -26.1083  -21.7364   18.2000 C   0  0  0  0  0  0  0  0  0  0  0  0
  -27.4128  -20.5083   19.8909 C   0  0  0  0  0  0  0  0  0  0  0  0
  -30.4246  -28.1488   19.7468 C   0  0  0  0  0  0  0  0  0  0  0  0
  -20.3238  -28.5375   21.6586 C   0  0  1  0  0  0  0  0  0  0  0  0
  -23.2868  -30.0566   23.4879 C   0  0  1  0  0  0  0  0  0  0  0  0
  -26.1313  -20.0294   20.5924 C   0  0  2  0  0  0  0  0  0  0  0  0
  -29.2552  -29.1190   19.6696 C   0  0  2  0  0  0  0  0  0  1  0  0
  -30.8642  -28.4463   17.2743 C   0  0  2  0  0  0  0  0  0  0  0  0
  -33.5542  -26.0789   20.7580 C   0  0  0  0  0  0  0  0  0  0  0  0
  -32.9956  -24.1630   22.8308 C   0  0  0  0  0  0  0  0  0  0  0  0
  -31.0178  -27.7155   15.9418 C   0  0  0  0  0  0  0  0  0  0  0  0
  -28.0802  -35.6307   25.1288 C   0  0  0  0  0  0  0  0  0  0  0  0
  -22.1137  -34.8454   22.7161 C   0  0  0  0  0  0  0  0  0  0  0  0
  -24.1945  -36.2221   22.9245 C   0  0  0  0  0  0  0  0  0  0  0  0
  -23.1474  -35.2316   24.9604 C   0  0  0  0  0  0  0  0  0  0  0  0
  -29.2240  -32.7187   22.9635 C   0  0  0  0  0  0  0  0  0  0  0  0
  -31.6999  -26.4033   18.5349 C   0  0  0  0  0  0  0  0  0  0  0  0
  -24.3568  -33.7242   23.3304 C   0  0  1  0  0  0  0  0  0  0  0  0
  -27.9429  -34.2921   24.4202 C   0  0  2  0  0  0  0  0  0  0  0  0
  -23.4531  -34.9819   23.4675 C   0  0  0  0  0  0  0  0  0  0  0  0
  -26.0705  -17.5653   20.6700 N   0  0  0  0  0  0  0  0  0  0  0  0
  -26.3377  -18.7125   21.3171 N   0  0  0  0  0  0  0  0  0  0  0  0
  -24.0500  -31.2722   23.1981 N   0  0  0  0  0  0  0  0  0  0  0  0
  -27.1643  -21.7905   19.2133 N   0  0  0  0  0  0  0  0  0  0  0  0
  -27.0931  -19.5817   23.3870 N   0  0  0  0  0  0  0  0  0  0  0  0
  -27.1631  -15.1143   24.0452 N   0  0  0  0  0  0  0  0  0  0  0  0
  -28.7992  -22.9449   20.4611 N   0  0  0  0  0  0  0  0  0  0  0  0
  -21.3963  -28.8493   22.5789 N   0  0  0  0  0  0  0  0  0  0  0  0
  -25.6203  -33.8145   24.0543 N   0  0  0  0  0  0  0  0  0  0  0  0
  -30.6236  -27.4551   18.4093 N   0  3  1  0  0  0  0  0  0  0  0  0
  -29.2109  -34.0158   23.6877 N   0  3  0  0  0  0  0  0  0  0  0  0
  -27.5618  -17.1476   25.0278 O   0  0  0  0  0  0  0  0  0  0  0  0
  -22.2227  -30.7359   21.4926 O   0  0  0  0  0  0  0  0  0  0  0  0
  -22.8489  -32.5495   24.7350 O   0  0  0  0  0  0  0  0  0  0  0  0
  -26.8582  -34.6852   22.2974 O   0  0  0  0  0  0  0  0  0  0  0  0
  -27.5626  -24.0349   18.8288 O   0  0  0  0  0  0  0  0  0  0  0  0
  -25.7241  -11.2154   20.3364 O   0  0  0  0  0  0  0  0  0  0  0  0
  -28.0513  -28.3730   19.5052 O   0  0  0  0  0  0  0  0  0  1  0  0
  -21.3840   -8.5811   22.4876 F   0  0  0  0  0  0  0  0  0  0  0  0
  -23.8231  -10.0463   18.7048 F   0  0  0  0  0  0  0  0  0  0  0  0
  -30.5305  -22.3917   22.8745 Cl  0  0  0  0  0  0  0  0  0  0  0  0
  1  2  1  0  0  0  0
  1  5  2  0  0  0  0
  2  6  2  0  0  0  0
  3  8  2  0  0  0  0
  3 16  1  0  0  0  0
  4  9  1  0  0  0  0
  4 16  2  0  0  0  0
  5 18  1  0  0  0  0
  6 20  1  0  0  0  0
  7 10  2  0  0  0  0
  7 19  1  0  0  0  0
  8 26  1  0  0  0  0
  9 26  2  0  0  0  0
 10 27  1  0  0  0  0
 11 12  2  0  0  0  0
 11 28  1  0  0  0  0
 12 29  1  0  0  0  0
 13 21  1  0  0  0  0
 13 27  2  0  0  0  0
 14 22  1  0  0  0  0
 14 25  2  0  0  0  0
 15 29  2  0  0  0  0
 15 30  1  0  0  0  0
 16 32  1  0  0  0  0
 17 32  1  0  0  0  0
 17 33  2  0  0  0  0
 17 34  1  0  0  0  0
 18 20  2  0  0  0  0
 18 39  1  0  0  0  0
 19 21  2  0  0  0  0
 19 40  1  0  0  0  0
 20 51  1  0  0  0  0
 21 41  1  0  0  0  0
 22 23  2  0  0  0  0
 22 64  1  0  0  0  0
 23 24  1  0  0  0  0
 23 56  1  0  0  0  0
 24 31  2  0  0  0  0
 24 57  1  0  0  0  0
 25 31  1  0  0  0  0
 25 74  1  0  0  0  0
 26 84  1  0  0  0  0
 27 85  1  0  0  0  0
 28 30  2  0  0  0  0
 28 84  1  0  0  0  0
 29 86  1  0  0  0  0
 30 87  1  0  0  0  0
 31 88  1  0  0  0  0
 32 68  2  0  0  0  0
 33 69  1  0  0  0  0
 33 72  1  0  0  0  0
 34 73  1  0  0  0  0
 34 79  2  0  0  0  0
 35 52  1  0  0  0  0
 35 75  1  0  0  0  0
 35 80  2  0  0  0  0
 36 65  1  0  0  0  0
 36 70  1  0  0  0  0
 36 81  2  0  0  0  0
 37 66  1  0  0  0  0
 37 76  1  0  0  0  0
 37 82  2  0  0  0  0
 38 71  1  0  0  0  0
 38 74  1  0  0  0  0
 38 83  2  0  0  0  0
 39 42  1  0  0  0  0
 40 52  1  0  0  0  0
 41 70  1  0  0  0  0
 42 44  1  0  0  0  0
 43 45  1  0  0  0  0
 43 48  1  0  0  0  0
 44 51  1  0  0  0  0
 45 53  1  0  0  0  0
 46 47  1  0  0  0  0
 46 54  1  0  0  0  0
 47 55  1  0  0  0  0
 48 71  1  0  0  0  0
 49 53  1  0  0  0  0
 49 71  1  0  0  0  0
 50 54  1  0  0  0  0
 50 77  1  0  0  0  0
 51 75  1  0  0  0  0
 52 70  1  0  0  0  0
 53 69  1  0  0  0  0
 54 85  1  0  0  0  0
 55 58  1  0  0  0  0
 55 77  1  0  0  0  0
 59 66  1  0  0  0  0
 60 67  1  0  0  0  0
 61 67  1  0  0  0  0
 62 67  1  0  0  0  0
 63 78  1  0  0  0  0
 64 77  1  0  0  0  0
 65 67  1  0  0  0  0
 65 76  1  0  0  0  0
 66 78  1  0  0  0  0
 68 69  1  0  0  0  0
M  CHG  2  77   1  78   1
M  ISO  4  38 100  54 101  74 100  85 101
M  END
> <Batch ID>
0035

> <Smiles>
CNC(C)C(=O)NC(C(=O)N1Cc2cc([101O:1][101CH:1]3CCC(C)N(Cc4cc([100NH:0][100C:0](=O)N5CCCC(n6nc(-c7ccc(Oc8ccc(F)cc8F)cc7)c(C(N)=O)c6N)C5)c(Cl)c(C)c4C)C3)ccc2CC1C(=O)NC1CCCc2ccccc21)C(C)(C)C

> <Shape>
0.273

> <Color>
0.101

> <Negative vol penalty>
0.000

$$$$

  -OEChem-04042321513D

 87 96  0     1  0  0  0  0  0999 V2000
  -33.9717  -15.4600   30.4254 C   0  0  0  0  0  0  0  0  0  0  0  0
  -34.2529  -15.4937   29.0633 C   0  0  0  0  0  0  0  0  0  0  0  0
  -23.0756   -9.8680   19.9404 C   0  0  0  0  0  0  0  0  0  0  0  0
  -23.8347   -9.8745   22.2340 C   0  0  0  0  0  0  0  0  0  0  0  0
  -33.6063  -16.6301   31.0897 C   0  0  0  0  0  0  0  0  0  0  0  0
  -34.1677  -16.6974   28.3645 C   0  0  0  0  0  0  0  0  0  0  0  0
  -37.6908  -18.4974   23.6897 C   0  0  0  0  0  0  0  0  0  0  0  0
  -22.3314   -8.7150   20.1899 C   0  0  0  0  0  0  0  0  0  0  0  0
  -23.0905   -8.7214   22.4835 C   0  0  0  0  0  0  0  0  0  0  0  0
  -37.4989  -18.4781   22.3089 C   0  0  0  0  0  0  0  0  0  0  0  0
  -19.8619   -7.9242   23.0849 C   0  0  0  0  0  0  0  0  0  0  0  0
  -19.1046   -7.8842   24.2555 C   0  0  0  0  0  0  0  0  0  0  0  0
  -36.7473  -20.7689   22.3872 C   0  0  0  0  0  0  0  0  0  0  0  0
  -29.7109  -19.2844   22.3579 C   0  0  0  0  0  0  0  0  0  0  0  0
  -31.1564  -17.6781   20.5936 C   0  0  0  0  0  0  0  0  0  0  0  0
  -20.3454   -5.9464   24.9920 C   0  0  0  0  0  0  0  0  0  0  0  0
  -23.8273  -10.4478   20.9624 C   0  0  0  0  0  0  0  0  0  0  0  0
  -24.1697  -12.9729   20.8429 C   0  0  0  0  0  0  0  0  0  0  0  0
  -33.5260  -17.8505   30.4006 C   0  0  0  0  0  0  0  0  0  0  0  0
  -37.4014  -19.6512   24.4323 C   0  0  0  0  0  0  0  0  0  0  0  0
  -33.7996  -17.8846   29.0199 C   0  0  0  0  0  0  0  0  0  0  0  0
  -36.9387  -20.8012   23.7770 C   0  0  0  0  0  0  0  0  0  0  0  0
  -30.6155  -19.8642   21.4684 C   0  0  0  0  0  0  0  0  0  0  0  0
  -29.5291  -17.9015   22.3652 C   0  0  0  0  0  0  0  0  0  0  0  0
  -31.3382  -19.0611   20.5862 C   0  0  0  0  0  0  0  0  0  0  0  0
  -30.2518  -17.0983   21.4831 C   0  0  0  0  0  0  0  0  0  0  0  0
  -22.3388   -8.1417   21.4615 C   0  0  0  0  0  0  0  0  0  0  0  0
  -37.0244  -19.6130   21.6578 C   0  0  0  0  0  0  0  0  0  0  0  0
  -20.8610   -6.9752   22.8677 C   0  0  0  0  0  0  0  0  0  0  0  0
  -19.3463   -6.8954   25.2091 C   0  0  0  0  0  0  0  0  0  0  0  0
  -21.1027   -5.9864   23.8213 C   0  0  0  0  0  0  0  0  0  0  0  0
  -24.5967  -11.6385   20.7051 C   0  0  0  0  0  0  0  0  0  0  0  0
  -25.2621  -13.7222   20.4801 C   0  0  0  0  0  0  0  0  0  0  0  0
  -34.1264  -19.1473   18.0862 C   0  0  0  0  0  0  0  0  0  0  0  0
  -33.5769  -18.9042   16.8910 C   0  0  0  0  0  0  0  0  0  0  0  0
  -22.8991  -13.4889   21.2615 C   0  0  0  0  0  0  0  0  0  0  0  0
  -35.3727  -20.3614   26.7740 C   0  0  0  0  0  0  0  0  0  0  0  0
  -36.9591  -23.1908   26.7632 C   0  0  0  0  0  0  0  0  0  0  0  0
  -38.8679  -25.4356   25.0414 C   0  0  0  0  0  0  0  0  0  0  0  0
  -30.7284  -14.7667   20.6568 C   0  0  0  0  0  0  0  0  0  0  0  0
  -33.0809  -19.0803   31.1517 C   0  0  0  0  0  0  0  0  0  0  0  0
  -37.6391  -19.6644   25.9175 C   0  0  0  0  0  0  0  0  0  0  0  0
  -36.6325  -22.0716   24.5258 C   0  0  0  0  0  0  0  0  0  0  0  0
  -35.4778  -19.7444   18.3206 C   0  0  0  0  0  0  0  0  0  0  0  0
  -33.3780  -20.3843   30.4158 C   0  0  0  0  0  0  0  0  0  0  0  0
  -29.6143  -12.3535   18.2878 C   0  0  0  0  0  0  0  0  0  0  0  0
  -32.9586  -20.2792   28.9529 C   0  0  0  0  0  0  0  0  0  0  0  0
  -28.1745  -12.0621   18.7168 C   0  0  0  0  0  0  0  0  0  0  0  0
  -30.5291  -12.5819   19.4898 C   0  0  0  0  0  0  0  0  0  0  0  0
  -28.6218  -13.3065   20.8705 C   0  0  0  0  0  0  0  0  0  0  0  0
  -34.5647  -18.7630   20.3249 C   0  0  0  0  0  0  0  0  0  0  0  0
  -33.7423  -19.1756   28.2323 C   0  0  1  0  0  0  0  0  0  0  0  0
  -36.8236  -20.7298   26.6437 C   0  0  1  0  0  0  0  0  0  0  0  0
  -27.6493  -13.1336   19.6924 C   0  0  2  0  0  0  0  0  0  0  0  0
  -35.5223  -19.8431   19.8401 C   0  0  1  0  0  0  0  0  0  1  0  0
  -30.7937  -21.3470   21.4790 C   0  0  0  0  0  0  0  0  0  0  0  0
  -28.5534  -17.3076   23.3287 C   0  0  0  0  0  0  0  0  0  0  0  0
  -32.2238  -18.3063   16.7012 C   0  0  0  0  0  0  0  0  0  0  0  0
  -39.9789  -27.6724   25.2849 C   0  0  0  0  0  0  0  0  0  0  0  0
  -34.2507  -24.5652   26.4699 C   0  0  0  0  0  0  0  0  0  0  0  0
  -35.4594  -26.6441   25.7731 C   0  0  0  0  0  0  0  0  0  0  0  0
  -35.8274  -25.6933   28.0498 C   0  0  0  0  0  0  0  0  0  0  0  0
  -41.5528  -24.2829   24.5709 C   0  0  0  0  0  0  0  0  0  0  0  0
  -32.3168  -19.6621   19.6208 C   0  0  0  0  0  0  0  0  0  0  0  0
  -36.7957  -24.5053   26.0390 C   0  0  1  0  0  0  0  0  0  0  0  0
  -40.1453  -26.1663   25.4138 C   0  0  2  0  0  0  0  0  0  0  0  0
  -35.5872  -25.3276   26.5688 C   0  0  0  0  0  0  0  0  0  0  0  0
  -25.8617  -11.5425   20.2873 N   0  0  0  0  0  0  0  0  0  0  0  0
  -26.2389  -12.8260   20.1593 N   0  0  0  0  0  0  0  0  0  0  0  0
  -36.8751  -22.0327   25.9774 N   0  0  0  0  0  0  0  0  0  0  0  0
  -29.9700  -13.6127   20.3672 N   0  0  0  0  0  0  0  0  0  0  0  0
  -25.4728  -15.0536   20.4074 N   0  0  0  0  0  0  0  0  0  0  0  0
  -21.8869  -12.5798   21.5983 N   0  0  0  0  0  0  0  0  0  0  0  0
  -30.0810  -15.6917   21.4752 N   0  0  0  0  0  0  0  0  0  0  0  0
  -35.0773  -19.6319   27.9099 N   0  0  0  0  0  0  0  0  0  0  0  0
  -38.0784  -25.1921   26.1454 N   0  0  0  0  0  0  0  0  0  0  0  0
  -33.4584  -18.7432   19.2912 N   0  3  1  0  0  0  0  0  0  0  0  0
  -41.2637  -25.7394   24.5262 N   0  3  0  0  0  0  0  0  0  0  0  0
  -22.6631  -14.7195   21.3189 O   0  0  0  0  0  0  0  0  0  0  0  0
  -34.5797  -20.7142   25.9090 O   0  0  0  0  0  0  0  0  0  0  0  0
  -37.1611  -23.1918   27.9801 O   0  0  0  0  0  0  0  0  0  0  0  0
  -38.5957  -25.1162   23.8862 O   0  0  0  0  0  0  0  0  0  0  0  0
  -31.8577  -14.9352   20.1896 O   0  0  0  0  0  0  0  0  0  0  0  0
  -21.6125   -7.0167   21.7054 O   0  0  0  0  0  0  0  0  0  0  0  0
  -36.8357  -19.5966   20.3102 O   0  0  0  0  0  0  0  0  0  1  0  0
  -18.6200   -6.8580   26.3339 F   0  0  0  0  0  0  0  0  0  0  0  0
  -22.0619   -5.0727   23.6189 F   0  0  0  0  0  0  0  0  0  0  0  0
  1  2  1  0  0  0  0
  1  5  2  0  0  0  0
  2  6  2  0  0  0  0
  3  8  2  0  0  0  0
  3 17  1  0  0  0  0
  4  9  1  0  0  0  0
  4 17  2  0  0  0  0
  5 19  1  0  0  0  0
  6 21  1  0  0  0  0
  7 10  2  0  0  0  0
  7 20  1  0  0  0  0
  8 27  1  0  0  0  0
  9 27  2  0  0  0  0
 10 28  1  0  0  0  0
 11 12  2  0  0  0  0
 11 29  1  0  0  0  0
 12 30  1  0  0  0  0
 13 22  1  0  0  0  0
 13 28  2  0  0  0  0
 14 23  1  0  0  0  0
 14 24  2  0  0  0  0
 15 25  1  0  0  0  0
 15 26  2  0  0  0  0
 16 30  2  0  0  0  0
 16 31  1  0  0  0  0
 17 32  1  0  0  0  0
 18 32  1  0  0  0  0
 18 33  2  0  0  0  0
 18 36  1  0  0  0  0
 19 21  2  0  0  0  0
 19 41  1  0  0  0  0
 20 22  2  0  0  0  0
 20 42  1  0  0  0  0
 21 52  1  0  0  0  0
 22 43  1  0  0  0  0
 23 25  2  0  0  0  0
 23 56  1  0  0  0  0
 24 26  1  0  0  0  0
 24 57  1  0  0  0  0
 25 64  1  0  0  0  0
 26 74  1  0  0  0  0
 27 84  1  0  0  0  0
 28 85  1  0  0  0  0
 29 31  2  0  0  0  0
 29 84  1  0  0  0  0
 30 86  1  0  0  0  0
 31 87  1  0  0  0  0
 32 68  2  0  0  0  0
 33 69  1  0  0  0  0
 33 72  1  0  0  0  0
 34 35  2  0  0  0  0
 34 44  1  0  0  0  0
 34 77  1  0  0  0  0
 35 58  1  0  0  0  0
 36 73  1  0  0  0  0
 36 79  2  0  0  0  0
 37 53  1  0  0  0  0
 37 75  1  0  0  0  0
 37 80  2  0  0  0  0
 38 65  1  0  0  0  0
 38 70  1  0  0  0  0
 38 81  2  0  0  0  0
 39 66  1  0  0  0  0
 39 76  1  0  0  0  0
 39 82  2  0  0  0  0
 40 71  1  0  0  0  0
 40 74  1  0  0  0  0
 40 83  2  0  0  0  0
 41 45  1  0  0  0  0
 42 53  1  0  0  0  0
 43 70  1  0  0  0  0
 44 55  1  0  0  0  0
 45 47  1  0  0  0  0
 46 48  1  0  0  0  0
 46 49  1  0  0  0  0
 47 52  1  0  0  0  0
 48 54  1  0  0  0  0
 49 71  1  0  0  0  0
 50 54  1  0  0  0  0
 50 71  1  0  0  0  0
 51 55  1  0  0  0  0
 51 77  1  0  0  0  0
 52 75  1  0  0  0  0
 53 70  1  0  0  0  0
 54 69  1  0  0  0  0
 55 85  1  0  0  0  0
 59 66  1  0  0  0  0
 60 67  1  0  0  0  0
 61 67  1  0  0  0  0
 62 67  1  0  0  0  0
 63 78  1  0  0  0  0
 64 77  1  0  0  0  0
 65 67  1  0  0  0  0
 65 76  1  0  0  0  0
 66 78  1  0  0  0  0
 68 69  1  0  0  0  0
M  CHG  2  77   1  78   1
M  ISO  4  40 100  55 101  74 100  85 101
M  END
> <Batch ID>
0035

> <Smiles>
CC=C1C[101CH:1]([101O:1]c2ccc3c(c2)CN(C(=O)C(NC(=O)C(C)NC)C(C)(C)C)C(C(=O)NC2CCCc4ccccc42)C3)CN1Cc1cc([100NH:0][100C:0](=O)N2CCCC(n3nc(-c4ccc(Oc5ccc(F)cc5F)cc4)c(C(N)=O)c3N)C2)c(C)cc1C

> <Shape>
0.175

> <Color>
0.184

> <Negative vol penalty>
0.000

$$$$

  -OEChem-04042321513D

 88 97  0     1  0  0  0  0  0999 V2000
  -19.8165  -33.9897   22.6236 C   0  0  0  0  0  0  0  0  0  0  0  0
  -21.1054  -33.6313   22.2416 C   0  0  0  0  0  0  0  0  0  0  0  0
  -28.5792  -10.9610   20.1127 C   0  0  0  0  0  0  0  0  0  0  0  0
  -27.0907  -12.5905   21.0957 C   0  0  0  0  0  0  0  0  0  0  0  0
  -19.0324  -33.0955   23.3513 C   0  0  0  0  0  0  0  0  0  0  0  0
  -21.6112  -32.3789   22.5880 C   0  0  0  0  0  0  0  0  0  0  0  0
  -25.4220  -28.9050   19.2841 C   0  0  0  0  0  0  0  0  0  0  0  0
  -27.7357   -9.9344   20.5371 C   0  0  0  0  0  0  0  0  0  0  0  0
  -26.2471  -11.5638   21.5201 C   0  0  0  0  0  0  0  0  0  0  0  0
  -26.8017  -28.7126   19.3392 C   0  0  0  0  0  0  0  0  0  0  0  0
  -23.8850   -9.5627   20.1650 C   0  0  0  0  0  0  0  0  0  0  0  0
  -22.5146   -9.7271   19.9637 C   0  0  0  0  0  0  0  0  0  0  0  0
  -26.4670  -26.7418   20.6894 C   0  0  0  0  0  0  0  0  0  0  0  0
  -28.9209  -22.3047   19.3186 C   0  0  0  0  0  0  0  0  0  0  0  0
  -30.2871  -22.5438   21.7391 C   0  0  0  0  0  0  0  0  0  0  0  0
  -22.1446   -9.5596   22.3453 C   0  0  0  0  0  0  0  0  0  0  0  0
  -28.2568  -12.2890   20.3921 C   0  0  0  0  0  0  0  0  0  0  0  0
  -29.4979  -13.6547   18.6308 C   0  0  0  0  0  0  0  0  0  0  0  0
  -19.5254  -31.8279   23.6986 C   0  0  0  0  0  0  0  0  0  0  0  0
  -24.5534  -28.0220   19.9415 C   0  0  0  0  0  0  0  0  0  0  0  0
  -20.8334  -31.4675   23.3223 C   0  0  0  0  0  0  0  0  0  0  0  0
  -25.0765  -26.9238   20.6390 C   0  0  0  0  0  0  0  0  0  0  0  0
  -28.6350  -21.4336   20.3697 C   0  0  0  0  0  0  0  0  0  0  0  0
  -29.8899  -23.2954   19.4776 C   0  0  0  0  0  0  0  0  0  0  0  0
  -29.3181  -21.5531   21.5800 C   0  0  0  0  0  0  0  0  0  0  0  0
  -30.5730  -23.4149   20.6879 C   0  0  0  0  0  0  0  0  0  0  0  0
  -26.5696  -10.2358   21.2407 C   0  0  0  0  0  0  0  0  0  0  0  0
  -27.3246  -27.6326   20.0443 C   0  0  0  0  0  0  0  0  0  0  0  0
  -24.3852   -9.3966   21.4565 C   0  0  0  0  0  0  0  0  0  0  0  0
  -21.6444   -9.7256   21.0538 C   0  0  0  0  0  0  0  0  0  0  0  0
  -23.5150   -9.3951   22.5466 C   0  0  0  0  0  0  0  0  0  0  0  0
  -29.1281  -13.3499   19.9545 C   0  0  0  0  0  0  0  0  0  0  0  0
  -30.3322  -14.7394   18.7485 C   0  0  0  0  0  0  0  0  0  0  0  0
  -29.1210  -13.0146   17.4045 C   0  0  0  0  0  0  0  0  0  0  0  0
  -22.4269  -28.2983   22.2878 C   0  0  0  0  0  0  0  0  0  0  0  0
  -21.7769  -25.2104   21.5364 C   0  0  0  0  0  0  0  0  0  0  0  0
  -22.8486  -22.2753   20.1640 C   0  0  0  0  0  0  0  0  0  0  0  0
  -30.9011  -19.0139   22.9026 C   0  0  0  0  0  0  0  0  0  0  0  0
  -18.6577  -30.9134   24.5267 C   0  0  0  0  0  0  0  0  0  0  0  0
  -23.0663  -28.2282   19.8501 C   0  0  0  0  0  0  0  0  0  0  0  0
  -24.1858  -25.9354   21.3449 C   0  0  0  0  0  0  0  0  0  0  0  0
  -19.1322  -29.4625   24.5309 C   0  0  0  0  0  0  0  0  0  0  0  0
  -33.4276  -16.7711   21.7787 C   0  0  0  0  0  0  0  0  0  0  0  0
  -20.6366  -29.3935   24.7733 C   0  0  0  0  0  0  0  0  0  0  0  0
  -32.6455  -15.6675   21.0643 C   0  0  0  0  0  0  0  0  0  0  0  0
  -30.2961  -28.5773   21.4916 C   0  0  0  0  0  0  0  0  0  0  0  0
  -31.4999  -28.3225   20.5919 C   0  0  0  0  0  0  0  0  0  0  0  0
  -32.6785  -17.2913   23.0035 C   0  0  0  0  0  0  0  0  0  0  0  0
  -30.5140  -16.6304   22.0277 C   0  0  0  0  0  0  0  0  0  0  0  0
  -29.9057  -26.0907   21.6456 C   0  0  0  0  0  0  0  0  0  0  0  0
  -21.4085  -30.1085   23.6578 C   0  0  1  0  0  0  0  0  0  0  0  0
  -22.2993  -27.5586   20.9862 C   0  0  1  0  0  0  0  0  0  0  0  0
  -31.2038  -16.1128   20.7538 C   0  0  2  0  0  0  0  0  0  0  0  0
  -29.2745  -27.4515   21.3920 C   0  0  2  0  0  0  0  0  0  1  0  0
  -32.1472  -26.9584   20.8593 C   0  0  2  0  0  0  0  0  0  0  0  0
  -27.5930  -20.3813   20.1765 C   0  0  0  0  0  0  0  0  0  0  0  0
  -30.1796  -24.2160   18.3379 C   0  0  0  0  0  0  0  0  0  0  0  0
  -33.2940  -26.7298   19.8766 C   0  0  0  0  0  0  0  0  0  0  0  0
  -22.1076  -19.9174   19.7296 C   0  0  0  0  0  0  0  0  0  0  0  0
  -22.2157  -24.5329   24.4789 C   0  0  0  0  0  0  0  0  0  0  0  0
  -22.4060  -22.1240   23.8239 C   0  0  0  0  0  0  0  0  0  0  0  0
  -20.2786  -23.3612   23.4162 C   0  0  0  0  0  0  0  0  0  0  0  0
  -23.1252  -22.6048   17.2359 C   0  0  0  0  0  0  0  0  0  0  0  0
  -29.0285  -20.6322   22.7196 C   0  0  0  0  0  0  0  0  0  0  0  0
  -31.6199  -24.4719   20.8820 C   0  0  0  0  0  0  0  0  0  0  0  0
  -22.3007  -23.8677   21.9857 C   0  0  1  0  0  0  0  0  0  0  0  0
  -22.1958  -21.3295   19.1721 C   0  0  2  0  0  0  0  0  0  0  0  0
  -21.8174  -23.4910   23.4146 C   0  0  0  0  0  0  0  0  0  0  0  0
  -29.6821  -14.1743   20.8475 N   0  0  0  0  0  0  0  0  0  0  0  0
  -30.4086  -15.0077   20.0836 N   0  0  0  0  0  0  0  0  0  0  0  0
  -22.7391  -26.1836   21.2316 N   0  0  0  0  0  0  0  0  0  0  0  0
  -31.3189  -17.6986   22.6407 N   0  0  0  0  0  0  0  0  0  0  0  0
  -31.0006  -15.4803   17.8393 N   0  0  0  0  0  0  0  0  0  0  0  0
  -27.9769  -13.4718   16.7363 N   0  0  0  0  0  0  0  0  0  0  0  0
  -21.4707  -29.2784   22.4740 N   0  0  0  0  0  0  0  0  0  0  0  0
  -21.9143  -22.9124   20.9529 N   0  0  0  0  0  0  0  0  0  0  0  0
  -29.6001  -19.3189   22.5217 N   0  0  0  0  0  0  0  0  0  0  0  0
  -31.0843  -25.8735   20.7110 N   0  3  1  0  0  0  0  0  0  0  0  0
  -22.9791  -21.2865   17.9050 N   0  3  0  0  0  0  0  0  0  0  0  0
  -29.7699  -12.0546   16.9241 O   0  0  0  0  0  0  0  0  0  0  0  0
  -23.3253  -28.0008   23.0663 O   0  0  0  0  0  0  0  0  0  0  0  0
  -20.5589  -25.3869   21.4519 O   0  0  0  0  0  0  0  0  0  0  0  0
  -24.0658  -22.4303   20.2347 O   0  0  0  0  0  0  0  0  0  0  0  0
  -31.6351  -19.8557   23.4314 O   0  0  0  0  0  0  0  0  0  0  0  0
  -25.7461   -9.2343   21.6548 O   0  0  0  0  0  0  0  0  0  0  0  0
  -28.6710  -27.4428   20.1002 O   0  0  0  0  0  0  0  0  0  1  0  0
  -20.3286   -9.8850   20.8605 F   0  0  0  0  0  0  0  0  0  0  0  0
  -23.9898   -9.2372   23.7898 F   0  0  0  0  0  0  0  0  0  0  0  0
  1  2  1  0  0  0  0
  1  5  2  0  0  0  0
  2  6  2  0  0  0  0
  3  8  2  0  0  0  0
  3 17  1  0  0  0  0
  4  9  1  0  0  0  0
  4 17  2  0  0  0  0
  5 19  1  0  0  0  0
  6 21  1  0  0  0  0
  7 10  2  0  0  0  0
  7 20  1  0  0  0  0
  8 27  1  0  0  0  0
  9 27  2  0  0  0  0
 10 28  1  0  0  0  0
 11 12  2  0  0  0  0
 11 29  1  0  0  0  0
 12 30  1  0  0  0  0
 13 22  1  0  0  0  0
 13 28  2  0  0  0  0
 14 23  2  0  0  0  0
 14 24  1  0  0  0  0
 15 25  2  0  0  0  0
 15 26  1  0  0  0  0
 16 30  2  0  0  0  0
 16 31  1  0  0  0  0
 17 32  1  0  0  0  0
 18 32  1  0  0  0  0
 18 33  2  0  0  0  0
 18 34  1  0  0  0  0
 19 21  2  0  0  0  0
 19 39  1  0  0  0  0
 20 22  2  0  0  0  0
 20 40  1  0  0  0  0
 21 51  1  0  0  0  0
 22 41  1  0  0  0  0
 23 25  1  0  0  0  0
 23 56  1  0  0  0  0
 24 26  2  0  0  0  0
 24 57  1  0  0  0  0
 25 64  1  0  0  0  0
 26 65  1  0  0  0  0
 27 85  1  0  0  0  0
 28 86  1  0  0  0  0
 29 31  2  0  0  0  0
 29 85  1  0  0  0  0
 30 87  1  0  0  0  0
 31 88  1  0  0  0  0
 32 69  2  0  0  0  0
 33 70  1  0  0  0  0
 33 73  1  0  0  0  0
 34 74  1  0  0  0  0
 34 80  2  0  0  0  0
 35 52  1  0  0  0  0
 35 75  1  0  0  0  0
 35 81  2  0  0  0  0
 36 66  1  0  0  0  0
 36 71  1  0  0  0  0
 36 82  2  0  0  0  0
 37 67  1  0  0  0  0
 37 76  1  0  0  0  0
 37 83  2  0  0  0  0
 38 72  1  0  0  0  0
 38 77  1  0  0  0  0
 38 84  2  0  0  0  0
 39 42  1  0  0  0  0
 40 52  1  0  0  0  0
 41 71  1  0  0  0  0
 42 44  1  0  0  0  0
 43 45  1  0  0  0  0
 43 48  1  0  0  0  0
 44 51  1  0  0  0  0
 45 53  1  0  0  0  0
 46 47  1  0  0  0  0
 46 54  1  0  0  0  0
 47 55  1  0  0  0  0
 48 72  1  0  0  0  0
 49 53  1  0  0  0  0
 49 72  1  0  0  0  0
 50 54  1  0  0  0  0
 50 78  1  0  0  0  0
 51 75  1  0  0  0  0
 52 71  1  0  0  0  0
 53 70  1  0  0  0  0
 54 86  1  0  0  0  0
 55 58  1  0  0  0  0
 55 78  1  0  0  0  0
 59 67  1  0  0  0  0
 60 68  1  0  0  0  0
 61 68  1  0  0  0  0
 62 68  1  0  0  0  0
 63 79  1  0  0  0  0
 64 77  1  0  0  0  0
 65 78  1  0  0  0  0
 66 68  1  0  0  0  0
 66 76  1  0  0  0  0
 67 79  1  0  0  0  0
 69 70  1  0  0  0  0
M  CHG  2  78   1  79   1
M  ISO  4  38 100  54 101  77 100  86 101
M  END
> <Batch ID>
0035

> <Smiles>
CNC(C)C(=O)NC(C(=O)N1Cc2cc([101O:1][101CH:1]3CCC(C)N(Cc4cc(C[100NH:0][100C:0](=O)N5CCCC(n6nc(-c7ccc(Oc8ccc(F)cc8F)cc7)c(C(N)=O)c6N)C5)c(C)cc4C)C3)ccc2CC1C(=O)NC1CCCc2ccccc21)C(C)(C)C

> <Shape>
0.257

> <Color>
0.071

> <Negative vol penalty>
0.000

$$$$

  -OEChem-04042321513D

 88 97  0     1  0  0  0  0  0999 V2000
  -27.8484  -20.8153   20.7253 C   0  0  0  0  0  0  0  0  0  0  0  0
  -26.9095  -21.7907   20.4092 C   0  0  0  0  0  0  0  0  0  0  0  0
  -24.5120  -15.0993   19.7440 C   0  0  0  0  0  0  0  0  0  0  0  0
  -23.6631  -14.1854   21.8131 C   0  0  0  0  0  0  0  0  0  0  0  0
  -28.9757  -21.1541   21.4707 C   0  0  0  0  0  0  0  0  0  0  0  0
  -27.1034  -23.1074   20.8280 C   0  0  0  0  0  0  0  0  0  0  0  0
  -23.9328  -26.4756   19.1528 C   0  0  0  0  0  0  0  0  0  0  0  0
  -25.3664  -14.0048   19.6111 C   0  0  0  0  0  0  0  0  0  0  0  0
  -24.5175  -13.0909   21.6803 C   0  0  0  0  0  0  0  0  0  0  0  0
  -22.6120  -26.5518   19.5925 C   0  0  0  0  0  0  0  0  0  0  0  0
  -28.3219  -12.9826   20.8936 C   0  0  0  0  0  0  0  0  0  0  0  0
  -29.6442  -13.2343   20.5280 C   0  0  0  0  0  0  0  0  0  0  0  0
  -23.1843  -28.4527   20.9631 C   0  0  0  0  0  0  0  0  0  0  0  0
  -17.7936  -24.0309   24.2324 C   0  0  0  0  0  0  0  0  0  0  0  0
  -29.3538  -11.8824   18.5468 C   0  0  0  0  0  0  0  0  0  0  0  0
  -23.6604  -15.1896   20.8451 C   0  0  0  0  0  0  0  0  0  0  0  0
  -21.4626  -16.4366   20.4952 C   0  0  0  0  0  0  0  0  0  0  0  0
  -29.1766  -22.4733   21.9092 C   0  0  0  0  0  0  0  0  0  0  0  0
  -24.8933  -27.3821   19.6241 C   0  0  0  0  0  0  0  0  0  0  0  0
  -28.2468  -23.4740   21.5608 C   0  0  0  0  0  0  0  0  0  0  0  0
  -24.5161  -28.3874   20.5258 C   0  0  0  0  0  0  0  0  0  0  0  0
  -17.6384  -22.6480   24.1373 C   0  0  0  0  0  0  0  0  0  0  0  0
  -17.2138  -24.8652   23.2766 C   0  0  0  0  0  0  0  0  0  0  0  0
  -16.9036  -22.0993   23.0863 C   0  0  0  0  0  0  0  0  0  0  0  0
  -16.4789  -24.3165   22.2256 C   0  0  0  0  0  0  0  0  0  0  0  0
  -16.3238  -22.9336   22.1304 C   0  0  0  0  0  0  0  0  0  0  0  0
  -25.3692  -13.0006   20.5792 C   0  0  0  0  0  0  0  0  0  0  0  0
  -22.2382  -27.5387   20.5000 C   0  0  0  0  0  0  0  0  0  0  0  0
  -27.5155  -12.1807   20.0858 C   0  0  0  0  0  0  0  0  0  0  0  0
  -30.1602  -12.6842   19.3546 C   0  0  0  0  0  0  0  0  0  0  0  0
  -28.0314  -11.6307   18.9124 C   0  0  0  0  0  0  0  0  0  0  0  0
  -22.7779  -16.3202   20.9832 C   0  0  0  0  0  0  0  0  0  0  0  0
  -21.0612  -17.6908   20.8854 C   0  0  0  0  0  0  0  0  0  0  0  0
  -18.5777  -28.3217   22.5767 C   0  0  0  0  0  0  0  0  0  0  0  0
  -17.5987  -29.1849   22.2811 C   0  0  0  0  0  0  0  0  0  0  0  0
  -20.6740  -15.4951   19.7553 C   0  0  0  0  0  0  0  0  0  0  0  0
  -27.5941  -27.1290   21.2810 C   0  0  0  0  0  0  0  0  0  0  0  0
  -27.8255  -30.3011   20.6436 C   0  0  0  0  0  0  0  0  0  0  0  0
  -26.2435  -33.2218   19.8602 C   0  0  0  0  0  0  0  0  0  0  0  0
  -20.7131  -21.7085   24.7433 C   0  0  0  0  0  0  0  0  0  0  0  0
  -30.4182  -22.7863   22.7064 C   0  0  0  0  0  0  0  0  0  0  0  0
  -26.3081  -27.3031   19.1196 C   0  0  0  0  0  0  0  0  0  0  0  0
  -25.5047  -29.3974   21.0465 C   0  0  0  0  0  0  0  0  0  0  0  0
  -19.9959  -28.6890   22.8838 C   0  0  0  0  0  0  0  0  0  0  0  0
  -30.3146  -24.0980   23.4776 C   0  0  0  0  0  0  0  0  0  0  0  0
  -23.7086  -21.5393   22.8262 C   0  0  0  0  0  0  0  0  0  0  0  0
  -29.8317  -25.2069   22.5547 C   0  0  0  0  0  0  0  0  0  0  0  0
  -23.6278  -20.1741   22.1410 C   0  0  0  0  0  0  0  0  0  0  0  0
  -23.1291  -21.4972   24.2385 C   0  0  0  0  0  0  0  0  0  0  0  0
  -21.6770  -19.5967   23.6442 C   0  0  0  0  0  0  0  0  0  0  0  0
  -19.7771  -26.3101   22.5772 C   0  0  0  0  0  0  0  0  0  0  0  0
  -28.4213  -24.9066   22.0317 C   0  0  1  0  0  0  0  0  0  0  0  0
  -27.3152  -27.9585   20.0596 C   0  0  1  0  0  0  0  0  0  0  0  0
  -22.1984  -19.6024   22.1970 C   0  0  2  0  0  0  0  0  0  0  0  0
  -20.7254  -27.4749   22.3302 C   0  0  1  0  0  0  0  0  0  1  0  0
  -16.7386  -20.6157   22.9866 C   0  0  0  0  0  0  0  0  0  0  0  0
  -15.8589  -25.2136   21.2015 C   0  0  0  0  0  0  0  0  0  0  0  0
  -15.5350  -22.3450   21.0033 C   0  0  0  0  0  0  0  0  0  0  0  0
  -26.6932  -35.6548   19.4414 C   0  0  0  0  0  0  0  0  0  0  0  0
  -28.1698  -30.7510   23.6418 C   0  0  0  0  0  0  0  0  0  0  0  0
  -27.6621  -33.1737   23.2659 C   0  0  0  0  0  0  0  0  0  0  0  0
  -29.6670  -32.1413   22.1995 C   0  0  0  0  0  0  0  0  0  0  0  0
  -25.1954  -33.0592   17.0972 C   0  0  0  0  0  0  0  0  0  0  0  0
  -18.2699  -21.7770   25.1735 C   0  0  0  0  0  0  0  0  0  0  0  0
  -17.3950  -26.3492   23.4026 C   0  0  0  0  0  0  0  0  0  0  0  0
  -27.3647  -31.5655   21.3278 C   0  0  1  0  0  0  0  0  0  0  0  0
  -26.5410  -34.2788   18.8120 C   0  0  2  0  0  0  0  0  0  0  0  0
  -28.1975  -31.8878   22.6006 C   0  0  0  0  0  0  0  0  0  0  0  0
  -23.1851  -17.4134   21.6337 N   0  0  0  0  0  0  0  0  0  0  0  0
  -22.1195  -18.2286   21.5570 N   0  0  0  0  0  0  0  0  0  0  0  0
  -26.8772  -29.2748   20.5283 N   0  0  0  0  0  0  0  0  0  0  0  0
  -21.7717  -20.9466   24.2217 N   0  0  0  0  0  0  0  0  0  0  0  0
  -19.9099  -18.3751   20.7162 N   0  0  0  0  0  0  0  0  0  0  0  0
  -21.2401  -14.2528   19.4380 N   0  0  0  0  0  0  0  0  0  0  0  0
  -28.0844  -25.8671   21.0042 N   0  0  0  0  0  0  0  0  0  0  0  0
  -27.3949  -32.6131   20.3129 N   0  0  0  0  0  0  0  0  0  0  0  0
  -19.4581  -21.1151   24.6827 N   0  0  0  0  0  0  0  0  0  0  0  0
  -18.3806  -26.9061   22.4198 N   0  3  1  0  0  0  0  0  0  0  0  0
  -25.4393  -34.3394   17.8102 N   0  3  0  0  0  0  0  0  0  0  0  0
  -19.5080  -15.7542   19.3722 O   0  0  0  0  0  0  0  0  0  0  0  0
  -27.3817  -27.5996   22.3924 O   0  0  0  0  0  0  0  0  0  0  0  0
  -28.9820  -30.2295   20.2204 O   0  0  0  0  0  0  0  0  0  0  0  0
  -25.1039  -32.9646   20.2421 O   0  0  0  0  0  0  0  0  0  0  0  0
  -20.8737  -22.8362   25.2222 O   0  0  0  0  0  0  0  0  0  0  0  0
  -26.2027  -11.9324   20.4498 O   0  0  0  0  0  0  0  0  0  0  0  0
  -20.9497  -27.6149   20.9313 O   0  0  0  0  0  0  0  0  0  1  0  0
  -31.4296  -12.9273   19.0029 F   0  0  0  0  0  0  0  0  0  0  0  0
  -27.2612  -10.8605   18.1317 F   0  0  0  0  0  0  0  0  0  0  0  0
  1  2  1  0  0  0  0
  1  5  2  0  0  0  0
  2  6  2  0  0  0  0
  3  8  2  0  0  0  0
  3 16  1  0  0  0  0
  4  9  1  0  0  0  0
  4 16  2  0  0  0  0
  5 18  1  0  0  0  0
  6 20  1  0  0  0  0
  7 10  2  0  0  0  0
  7 19  1  0  0  0  0
  8 27  1  0  0  0  0
  9 27  2  0  0  0  0
 10 28  1  0  0  0  0
 11 12  2  0  0  0  0
 11 29  1  0  0  0  0
 12 30  1  0  0  0  0
 13 21  1  0  0  0  0
 13 28  2  0  0  0  0
 14 22  2  0  0  0  0
 14 23  1  0  0  0  0
 15 30  2  0  0  0  0
 15 31  1  0  0  0  0
 16 32  1  0  0  0  0
 17 32  1  0  0  0  0
 17 33  2  0  0  0  0
 17 36  1  0  0  0  0
 18 20  2  0  0  0  0
 18 41  1  0  0  0  0
 19 21  2  0  0  0  0
 19 42  1  0  0  0  0
 20 52  1  0  0  0  0
 21 43  1  0  0  0  0
 22 24  1  0  0  0  0
 22 64  1  0  0  0  0
 23 25  2  0  0  0  0
 23 65  1  0  0  0  0
 24 26  2  0  0  0  0
 24 56  1  0  0  0  0
 25 26  1  0  0  0  0
 25 57  1  0  0  0  0
 26 58  1  0  0  0  0
 27 85  1  0  0  0  0
 28 86  1  0  0  0  0
 29 31  2  0  0  0  0
 29 85  1  0  0  0  0
 30 87  1  0  0  0  0
 31 88  1  0  0  0  0
 32 69  2  0  0  0  0
 33 70  1  0  0  0  0
 33 73  1  0  0  0  0
 34 35  2  0  0  0  0
 34 44  1  0  0  0  0
 34 78  1  0  0  0  0
 36 74  1  0  0  0  0
 36 80  2  0  0  0  0
 37 53  1  0  0  0  0
 37 75  1  0  0  0  0
 37 81  2  0  0  0  0
 38 66  1  0  0  0  0
 38 71  1  0  0  0  0
 38 82  2  0  0  0  0
 39 67  1  0  0  0  0
 39 76  1  0  0  0  0
 39 83  2  0  0  0  0
 40 72  1  0  0  0  0
 40 77  1  0  0  0  0
 40 84  2  0  0  0  0
 41 45  1  0  0  0  0
 42 53  1  0  0  0  0
 43 71  1  0  0  0  0
 44 55  1  0  0  0  0
 45 47  1  0  0  0  0
 46 48  1  0  0  0  0
 46 49  1  0  0  0  0
 47 52  1  0  0  0  0
 48 54  1  0  0  0  0
 49 72  1  0  0  0  0
 50 54  1  0  0  0  0
 50 72  1  0  0  0  0
 51 55  1  0  0  0  0
 51 78  1  0  0  0  0
 52 75  1  0  0  0  0
 53 71  1  0  0  0  0
 54 70  1  0  0  0  0
 55 86  1  0  0  0  0
 59 67  1  0  0  0  0
 60 68  1  0  0  0  0
 61 68  1  0  0  0  0
 62 68  1  0  0  0  0
 63 79  1  0  0  0  0
 64 77  1  0  0  0  0
 65 78  1  0  0  0  0
 66 68  1  0  0  0  0
 66 76  1  0  0  0  0
 67 79  1  0  0  0  0
 69 70  1  0  0  0  0
M  CHG  2  78   1  79   1
M  ISO  4  40 100  55 101  77 100  86 101
M  END
> <Batch ID>
0035

> <Smiles>
C=C1C[101CH:1]([101O:1]c2ccc3c(c2)CN(C(=O)C(NC(=O)C(C)NC)C(C)(C)C)C(C(=O)NC2CCCc4ccccc42)C3)CN1Cc1cc(C[100NH:0][100C:0](=O)N2CCCC(n3nc(-c4ccc(Oc5ccc(F)cc5F)cc4)c(C(N)=O)c3N)C2)c(C)c(C)c1C

> <Shape>
0.212

> <Color>
0.070

> <Negative vol penalty>
0.000

$$$$

  -OEChem-04042321513D

 87 96  0     1  0  0  0  0  0999 V2000
  -29.3915  -33.4665   26.8113 C   0  0  0  0  0  0  0  0  0  0  0  0
  -29.4945  -32.4302   25.8888 C   0  0  0  0  0  0  0  0  0  0  0  0
  -24.7843   -8.3448   21.5961 C   0  0  0  0  0  0  0  0  0  0  0  0
  -23.1607   -9.7067   20.4358 C   0  0  0  0  0  0  0  0  0  0  0  0
  -28.1491  -33.7966   27.3513 C   0  0  0  0  0  0  0  0  0  0  0  0
  -28.3553  -31.7227   25.5066 C   0  0  0  0  0  0  0  0  0  0  0  0
  -27.1676  -29.3646   19.9808 C   0  0  0  0  0  0  0  0  0  0  0  0
  -23.7748   -7.8392   22.4152 C   0  0  0  0  0  0  0  0  0  0  0  0
  -22.1512   -9.2010   21.2549 C   0  0  0  0  0  0  0  0  0  0  0  0
  -27.3002  -28.0773   19.4621 C   0  0  0  0  0  0  0  0  0  0  0  0
  -21.3191   -5.5247   22.2019 C   0  0  0  0  0  0  0  0  0  0  0  0
  -21.2986   -4.1490   22.4313 C   0  0  0  0  0  0  0  0  0  0  0  0
  -24.9753  -27.6504   19.9433 C   0  0  0  0  0  0  0  0  0  0  0  0
  -24.2300  -18.4155   17.7347 C   0  0  0  0  0  0  0  0  0  0  0  0
  -26.6685  -18.4010   19.0897 C   0  0  0  0  0  0  0  0  0  0  0  0
  -21.5466   -4.5406   24.8024 C   0  0  0  0  0  0  0  0  0  0  0  0
  -24.4772   -9.2786   20.6064 C   0  0  0  0  0  0  0  0  0  0  0  0
  -25.9590   -9.2775   18.5299 C   0  0  0  0  0  0  0  0  0  0  0  0
  -26.9927  -33.0991   26.9682 C   0  0  0  0  0  0  0  0  0  0  0  0
  -25.9385  -29.8014   20.4955 C   0  0  0  0  0  0  0  0  0  0  0  0
  -27.0966  -32.0429   26.0430 C   0  0  0  0  0  0  0  0  0  0  0  0
  -24.8290  -28.9445   20.4656 C   0  0  0  0  0  0  0  0  0  0  0  0
  -24.7266  -19.5950   18.2893 C   0  0  0  0  0  0  0  0  0  0  0  0
  -24.9525  -17.2287   17.8576 C   0  0  0  0  0  0  0  0  0  0  0  0
  -25.9459  -19.5878   18.9668 C   0  0  0  0  0  0  0  0  0  0  0  0
  -26.1718  -17.2215   18.5351 C   0  0  0  0  0  0  0  0  0  0  0  0
  -22.4583   -8.2672   22.2446 C   0  0  0  0  0  0  0  0  0  0  0  0
  -26.2047  -27.2190   19.4459 C   0  0  0  0  0  0  0  0  0  0  0  0
  -21.4535   -6.4083   23.2728 C   0  0  0  0  0  0  0  0  0  0  0  0
  -21.4123   -3.6569   23.7315 C   0  0  0  0  0  0  0  0  0  0  0  0
  -21.5672   -5.9163   24.5730 C   0  0  0  0  0  0  0  0  0  0  0  0
  -25.5196   -9.8017   19.7604 C   0  0  0  0  0  0  0  0  0  0  0  0
  -26.9587  -10.1306   18.1307 C   0  0  0  0  0  0  0  0  0  0  0  0
  -25.5041   -8.1228   17.8120 C   0  0  0  0  0  0  0  0  0  0  0  0
  -24.9164  -30.7677   23.3461 C   0  0  0  0  0  0  0  0  0  0  0  0
  -22.1863  -31.4104   21.7164 C   0  0  0  0  0  0  0  0  0  0  0  0
  -20.2076  -30.7680   19.0110 C   0  0  0  0  0  0  0  0  0  0  0  0
  -28.1465  -15.8657   19.3153 C   0  0  0  0  0  0  0  0  0  0  0  0
  -25.6791  -33.4611   27.6147 C   0  0  0  0  0  0  0  0  0  0  0  0
  -25.8050  -31.2022   21.0271 C   0  0  0  0  0  0  0  0  0  0  0  0
  -23.4824  -29.3722   20.9875 C   0  0  0  0  0  0  0  0  0  0  0  0
  -24.4634  -32.9083   26.8751 C   0  0  0  0  0  0  0  0  0  0  0  0
  -30.2900  -13.0829   19.8972 C   0  0  0  0  0  0  0  0  0  0  0  0
  -28.8949  -22.2513   16.9462 C   0  0  0  0  0  0  0  0  0  0  0  0
  -24.6768  -31.4403   26.5197 C   0  0  0  0  0  0  0  0  0  0  0  0
  -28.9159  -23.7113   17.3866 C   0  0  0  0  0  0  0  0  0  0  0  0
  -29.3510  -11.8775   19.8101 C   0  0  0  0  0  0  0  0  0  0  0  0
  -29.6111  -14.2845   20.5522 C   0  0  0  0  0  0  0  0  0  0  0  0
  -27.3895  -13.4701   19.8665 C   0  0  0  0  0  0  0  0  0  0  0  0
  -28.4218  -21.3316   18.0615 C   0  0  0  0  0  0  0  0  0  0  0  0
  -27.0908  -23.2120   19.0580 C   0  0  0  0  0  0  0  0  0  0  0  0
  -25.8800  -31.2683   25.5847 C   0  0  1  0  0  0  0  0  0  0  0  0
  -24.6377  -31.3650   21.9958 C   0  0  1  0  0  0  0  0  0  0  0  0
  -27.5546  -24.1473   17.9399 C   0  0  1  0  0  0  0  0  0  0  0  0
  -28.0080  -12.2555   19.1551 C   0  0  2  0  0  0  0  0  0  0  0  0
  -23.9353  -20.8534   18.1454 C   0  0  0  0  0  0  0  0  0  0  0  0
  -24.3966  -15.9801   17.2535 C   0  0  0  0  0  0  0  0  0  0  0  0
  -18.0193  -31.4218   17.9713 C   0  0  0  0  0  0  0  0  0  0  0  0
  -20.7035  -29.7268   23.7844 C   0  0  0  0  0  0  0  0  0  0  0  0
  -18.7615  -29.6260   22.2076 C   0  0  0  0  0  0  0  0  0  0  0  0
  -19.5229  -31.8247   23.1067 C   0  0  0  0  0  0  0  0  0  0  0  0
  -21.5369  -31.7692   16.5636 C   0  0  0  0  0  0  0  0  0  0  0  0
  -26.4998  -20.8441   19.5718 C   0  0  0  0  0  0  0  0  0  0  0  0
  -27.6161  -25.5880   18.4439 C   0  0  0  0  0  0  0  0  0  1  0  0
  -20.9351  -30.6360   21.3791 C   0  0  1  0  0  0  0  0  0  0  0  0
  -19.5145  -31.6936   18.0275 C   0  0  2  0  0  0  0  0  0  0  0  0
  -20.0065  -30.4443   22.6113 C   0  0  0  0  0  0  0  0  0  0  0  0
  -26.1857  -10.9024   20.1193 N   0  0  0  0  0  0  0  0  0  0  0  0
  -27.0538  -11.0768   19.1083 N   0  0  0  0  0  0  0  0  0  0  0  0
  -23.4040  -30.7491   21.5028 N   0  0  0  0  0  0  0  0  0  0  0  0
  -28.3474  -14.5868   19.8765 N   0  0  0  0  0  0  0  0  0  0  0  0
  -27.7569  -10.1561   17.0422 N   0  0  0  0  0  0  0  0  0  0  0  0
  -24.4683   -7.3576   18.3649 N   0  0  0  0  0  0  0  0  0  0  0  0
  -26.9205  -16.0261   18.6704 N   0  0  0  0  0  0  0  0  0  0  0  0
  -25.5249  -31.6371   24.2311 N   0  0  0  0  0  0  0  0  0  0  0  0
  -20.3097  -31.3369   20.2628 N   0  0  0  0  0  0  0  0  0  0  0  0
  -27.0689  -21.7893   18.5494 N   0  3  2  0  0  0  0  0  0  0  0  0
  -20.0771  -31.5110   16.6596 N   0  3  0  0  0  0  0  0  0  0  0  0
  -26.0127   -7.7704   16.7208 O   0  0  0  0  0  0  0  0  0  0  0  0
  -24.6012  -29.6046   23.5690 O   0  0  0  0  0  0  0  0  0  0  0  0
  -22.0871  -32.5622   22.1465 O   0  0  0  0  0  0  0  0  0  0  0  0
  -20.6143  -29.6505   18.7007 O   0  0  0  0  0  0  0  0  0  0  0  0
  -29.0102  -16.7444   19.3770 O   0  0  0  0  0  0  0  0  0  0  0  0
  -21.4730   -7.7739   23.0436 O   0  0  0  0  0  0  0  0  0  0  0  0
  -26.3316  -25.9618   18.9407 O   0  0  0  0  0  0  0  0  0  1  0  0
  -21.3910   -2.3358   23.9517 F   0  0  0  0  0  0  0  0  0  0  0  0
  -21.6954   -6.7604   25.6060 F   0  0  0  0  0  0  0  0  0  0  0  0
  1  2  1  0  0  0  0
  1  5  2  0  0  0  0
  2  6  2  0  0  0  0
  3  8  2  0  0  0  0
  3 17  1  0  0  0  0
  4  9  1  0  0  0  0
  4 17  2  0  0  0  0
  5 19  1  0  0  0  0
  6 21  1  0  0  0  0
  7 10  2  0  0  0  0
  7 20  1  0  0  0  0
  8 27  1  0  0  0  0
  9 27  2  0  0  0  0
 10 28  1  0  0  0  0
 11 12  2  0  0  0  0
 11 29  1  0  0  0  0
 12 30  1  0  0  0  0
 13 22  1  0  0  0  0
 13 28  2  0  0  0  0
 14 23  1  0  0  0  0
 14 24  2  0  0  0  0
 15 25  1  0  0  0  0
 15 26  2  0  0  0  0
 16 30  2  0  0  0  0
 16 31  1  0  0  0  0
 17 32  1  0  0  0  0
 18 32  1  0  0  0  0
 18 33  2  0  0  0  0
 18 34  1  0  0  0  0
 19 21  2  0  0  0  0
 19 39  1  0  0  0  0
 20 22  2  0  0  0  0
 20 40  1  0  0  0  0
 21 52  1  0  0  0  0
 22 41  1  0  0  0  0
 23 25  2  0  0  0  0
 23 56  1  0  0  0  0
 24 26  1  0  0  0  0
 24 57  1  0  0  0  0
 25 63  1  0  0  0  0
 26 74  1  0  0  0  0
 27 84  1  0  0  0  0
 28 85  1  0  0  0  0
 29 31  2  0  0  0  0
 29 84  1  0  0  0  0
 30 86  1  0  0  0  0
 31 87  1  0  0  0  0
 32 68  2  0  0  0  0
 33 69  1  0  0  0  0
 33 72  1  0  0  0  0
 34 73  1  0  0  0  0
 34 79  2  0  0  0  0
 35 53  1  0  0  0  0
 35 75  1  0  0  0  0
 35 80  2  0  0  0  0
 36 65  1  0  0  0  0
 36 70  1  0  0  0  0
 36 81  2  0  0  0  0
 37 66  1  0  0  0  0
 37 76  1  0  0  0  0
 37 82  2  0  0  0  0
 38 71  1  0  0  0  0
 38 74  1  0  0  0  0
 38 83  2  0  0  0  0
 39 42  1  0  0  0  0
 40 53  1  0  0  0  0
 41 70  1  0  0  0  0
 42 45  1  0  0  0  0
 43 47  1  0  0  0  0
 43 48  1  0  0  0  0
 44 46  1  0  0  0  0
 44 50  1  0  0  0  0
 45 52  1  0  0  0  0
 46 54  1  0  0  0  0
 47 55  1  0  0  0  0
 48 71  1  0  0  0  0
 49 55  1  0  0  0  0
 49 71  1  0  0  0  0
 50 77  1  0  0  0  0
 51 54  1  0  0  0  0
 51 77  1  0  0  0  0
 52 75  1  0  0  0  0
 53 70  1  0  0  0  0
 54 64  1  0  0  0  0
 55 69  1  0  0  0  0
 58 66  1  0  0  0  0
 59 67  1  0  0  0  0
 60 67  1  0  0  0  0
 61 67  1  0  0  0  0
 62 78  1  0  0  0  0
 63 77  1  0  0  0  0
 64 85  1  0  0  0  0
 65 67  1  0  0  0  0
 65 76  1  0  0  0  0
 66 78  1  0  0  0  0
 68 69  1  0  0  0  0
M  CHG  2  77   1  78   1
M  ISO  4  38 100  64 101  74 100  85 101
M  END
> <Batch ID>
0035

> <Smiles>
CNC(C)C(=O)NC(C(=O)N1Cc2cc([101O:1][101CH2:1]C3CCCN(Cc4cc([100NH:0][100C:0](=O)N5CCCC(n6nc(-c7ccc(Oc8ccc(F)cc8F)cc7)c(C(N)=O)c6N)C5)c(C)cc4C)C3)ccc2CC1C(=O)NC1CCCc2ccccc21)C(C)(C)C

> <Shape>
0.280

> <Color>
0.093

> <Negative vol penalty>
0.000

$$$$

  -OEChem-04042321512D

  0  0  0     0  0  0  0  0  0999 V2000
M  END
$$$$

  -OEChem-04042321513D

 87 96  0     1  0  0  0  0  0999 V2000
  -19.0545  -26.8997   17.5259 C   0  0  0  0  0  0  0  0  0  0  0  0
  -19.6132  -25.8493   18.2471 C   0  0  0  0  0  0  0  0  0  0  0  0
  -23.0667   -9.8712   19.8974 C   0  0  0  0  0  0  0  0  0  0  0  0
  -23.8798   -9.7771   22.1706 C   0  0  0  0  0  0  0  0  0  0  0  0
  -19.8095  -28.0417   17.2619 C   0  0  0  0  0  0  0  0  0  0  0  0
  -20.9275  -25.9400   18.7038 C   0  0  0  0  0  0  0  0  0  0  0  0
  -25.0978  -23.8878   24.1548 C   0  0  0  0  0  0  0  0  0  0  0  0
  -22.3325   -8.7047   20.1117 C   0  0  0  0  0  0  0  0  0  0  0  0
  -23.1455   -8.6107   22.3849 C   0  0  0  0  0  0  0  0  0  0  0  0
  -26.3078  -23.2404   24.4008 C   0  0  0  0  0  0  0  0  0  0  0  0
  -19.9348   -7.7728   23.0249 C   0  0  0  0  0  0  0  0  0  0  0  0
  -19.2054   -7.6765   24.2099 C   0  0  0  0  0  0  0  0  0  0  0  0
  -27.4909  -25.2945   23.9534 C   0  0  0  0  0  0  0  0  0  0  0  0
  -31.4421  -19.1027   21.6407 C   0  0  0  0  0  0  0  0  0  0  0  0
  -20.4697   -5.7128   24.8285 C   0  0  0  0  0  0  0  0  0  0  0  0
  -23.8404  -10.4074   20.9268 C   0  0  0  0  0  0  0  0  0  0  0  0
  -24.1714  -12.9368   20.9140 C   0  0  0  0  0  0  0  0  0  0  0  0
  -21.1306  -28.1505   17.7239 C   0  0  0  0  0  0  0  0  0  0  0  0
  -25.0759  -25.2429   23.7950 C   0  0  0  0  0  0  0  0  0  0  0  0
  -21.7013  -27.0840   18.4446 C   0  0  0  0  0  0  0  0  0  0  0  0
  -26.2791  -25.9574   23.7058 C   0  0  0  0  0  0  0  0  0  0  0  0
  -31.5983  -19.2847   23.0147 C   0  0  0  0  0  0  0  0  0  0  0  0
  -30.9419  -17.8969   21.1492 C   0  0  0  0  0  0  0  0  0  0  0  0
  -31.2544  -18.2608   23.8974 C   0  0  0  0  0  0  0  0  0  0  0  0
  -30.7542  -17.0549   23.4059 C   0  0  0  0  0  0  0  0  0  0  0  0
  -30.5980  -16.8730   22.0318 C   0  0  0  0  0  0  0  0  0  0  0  0
  -22.3719   -8.0745   21.3555 C   0  0  0  0  0  0  0  0  0  0  0  0
  -27.5048  -23.9430   24.2973 C   0  0  0  0  0  0  0  0  0  0  0  0
  -20.9316   -6.8390   22.7416 C   0  0  0  0  0  0  0  0  0  0  0  0
  -19.4728   -6.6465   25.1118 C   0  0  0  0  0  0  0  0  0  0  0  0
  -21.1990   -5.8091   23.6434 C   0  0  0  0  0  0  0  0  0  0  0  0
  -24.5995  -11.6119   20.7059 C   0  0  0  0  0  0  0  0  0  0  0  0
  -25.2524  -13.7066   20.5601 C   0  0  0  0  0  0  0  0  0  0  0  0
  -31.6019  -22.7324   24.5673 C   0  0  0  0  0  0  0  0  0  0  0  0
  -32.4440  -22.8023   25.6051 C   0  0  0  0  0  0  0  0  0  0  0  0
  -22.9094  -13.4277   21.3852 C   0  0  0  0  0  0  0  0  0  0  0  0
  -24.1036  -26.8710   21.2440 C   0  0  0  0  0  0  0  0  0  0  0  0
  -24.8165  -29.4381   23.0944 C   0  0  0  0  0  0  0  0  0  0  0  0
  -26.5978  -30.7207   25.7076 C   0  0  0  0  0  0  0  0  0  0  0  0
  -30.7179  -14.7661   20.6559 C   0  0  0  0  0  0  0  0  0  0  0  0
  -21.9230  -29.3849   17.3732 C   0  0  0  0  0  0  0  0  0  0  0  0
  -23.7606  -25.9335   23.5590 C   0  0  0  0  0  0  0  0  0  0  0  0
  -26.3085  -27.4188   23.3427 C   0  0  0  0  0  0  0  0  0  0  0  0
  -30.9503  -23.9017   23.8974 C   0  0  0  0  0  0  0  0  0  0  0  0
  -23.1849  -29.5581   18.2146 C   0  0  0  0  0  0  0  0  0  0  0  0
  -29.5563  -12.4577   18.2066 C   0  0  0  0  0  0  0  0  0  0  0  0
  -23.9549  -28.2441   18.2987 C   0  0  0  0  0  0  0  0  0  0  0  0
  -28.1280  -12.1409   18.6556 C   0  0  0  0  0  0  0  0  0  0  0  0
  -30.4984  -12.6356   19.3960 C   0  0  0  0  0  0  0  0  0  0  0  0
  -28.6218  -13.2885   20.8525 C   0  0  0  0  0  0  0  0  0  0  0  0
  -29.9741  -21.8329   23.1439 C   0  0  0  0  0  0  0  0  0  0  0  0
  -23.1157  -27.1553   18.9781 C   0  0  1  0  0  0  0  0  0  0  0  0
  -23.8895  -27.1859   22.6975 C   0  0  1  0  0  0  0  0  0  0  0  0
  -27.6224  -13.1648   19.6907 C   0  0  2  0  0  0  0  0  0  0  0  0
  -29.6303  -23.2793   23.4701 C   0  0  1  0  0  0  0  0  0  1  0  0
  -30.7848  -17.7326   19.6720 C   0  0  0  0  0  0  0  0  0  0  0  0
  -31.4232  -18.4592   25.3705 C   0  0  0  0  0  0  0  0  0  0  0  0
  -30.3868  -15.9592   24.3575 C   0  0  0  0  0  0  0  0  0  0  0  0
  -26.9984  -32.8597   26.9573 C   0  0  0  0  0  0  0  0  0  0  0  0
  -26.5633  -30.4460   20.8046 C   0  0  0  0  0  0  0  0  0  0  0  0
  -27.6487  -32.0221   22.4189 C   0  0  0  0  0  0  0  0  0  0  0  0
  -25.2082  -32.2151   21.9398 C   0  0  0  0  0  0  0  0  0  0  0  0
  -25.5941  -29.5645   28.2403 C   0  0  0  0  0  0  0  0  0  0  0  0
  -32.1369  -20.5917   23.5171 C   0  0  0  0  0  0  0  0  0  0  0  0
  -26.0491  -30.2775   23.3292 C   0  0  1  0  0  0  0  0  0  0  0  0
  -26.1790  -31.5804   26.8866 C   0  0  2  0  0  0  0  0  0  0  0  0
  -26.3672  -31.2122   22.1281 C   0  0  0  0  0  0  0  0  0  0  0  0
  -25.8546  -11.5405   20.2546 N   0  0  0  0  0  0  0  0  0  0  0  0
  -26.2244  -12.8302   20.1761 N   0  0  0  0  0  0  0  0  0  0  0  0
  -24.9970  -28.0479   23.1153 N   0  0  0  0  0  0  0  0  0  0  0  0
  -29.9567  -13.6231   20.3320 N   0  0  0  0  0  0  0  0  0  0  0  0
  -25.4569  -15.0408   20.5429 N   0  0  0  0  0  0  0  0  0  0  0  0
  -21.9085  -12.4999   21.7040 N   0  0  0  0  0  0  0  0  0  0  0  0
  -30.0868  -15.6503   21.5303 N   0  0  0  0  0  0  0  0  0  0  0  0
  -23.1069  -27.3455   20.4128 N   0  0  0  0  0  0  0  0  0  0  0  0
  -25.8318  -30.9780   24.5903 N   0  0  0  0  0  0  0  0  0  0  0  0
  -31.0828  -21.4660   24.1270 N   0  3  1  0  0  0  0  0  0  0  0  0
  -26.3623  -30.8337   28.1632 N   0  3  0  0  0  0  0  0  0  0  0  0
  -22.6707  -14.6534   21.5039 O   0  0  0  0  0  0  0  0  0  0  0  0
  -25.1001  -26.2452   20.9018 O   0  0  0  0  0  0  0  0  0  0  0  0
  -23.7322  -29.9954   22.9067 O   0  0  0  0  0  0  0  0  0  0  0  0
  -27.5152  -29.9053   25.7704 O   0  0  0  0  0  0  0  0  0  0  0  0
  -31.8353  -14.9607   20.1705 O   0  0  0  0  0  0  0  0  0  0  0  0
  -21.6554   -6.9364   21.5650 O   0  0  0  0  0  0  0  0  0  0  0  0
  -28.6873  -23.3133   24.5362 O   0  0  0  0  0  0  0  0  0  1  0  0
  -18.7734   -6.5551   26.2504 F   0  0  0  0  0  0  0  0  0  0  0  0
  -22.1563   -4.9098   23.3773 F   0  0  0  0  0  0  0  0  0  0  0  0
  1  2  1  0  0  0  0
  1  5  2  0  0  0  0
  2  6  2  0  0  0  0
  3  8  2  0  0  0  0
  3 16  1  0  0  0  0
  4  9  1  0  0  0  0
  4 16  2  0  0  0  0
  5 18  1  0  0  0  0
  6 20  1  0  0  0  0
  7 10  2  0  0  0  0
  7 19  1  0  0  0  0
  8 27  1  0  0  0  0
  9 27  2  0  0  0  0
 10 28  1  0  0  0  0
 11 12  2  0  0  0  0
 11 29  1  0  0  0  0
 12 30  1  0  0  0  0
 13 21  1  0  0  0  0
 13 28  2  0  0  0  0
 14 22  1  0  0  0  0
 14 23  2  0  0  0  0
 15 30  2  0  0  0  0
 15 31  1  0  0  0  0
 16 32  1  0  0  0  0
 17 32  1  0  0  0  0
 17 33  2  0  0  0  0
 17 36  1  0  0  0  0
 18 20  2  0  0  0  0
 18 41  1  0  0  0  0
 19 21  2  0  0  0  0
 19 42  1  0  0  0  0
 20 52  1  0  0  0  0
 21 43  1  0  0  0  0
 22 24  2  0  0  0  0
 22 64  1  0  0  0  0
 23 26  1  0  0  0  0
 23 56  1  0  0  0  0
 24 25  1  0  0  0  0
 24 57  1  0  0  0  0
 25 26  2  0  0  0  0
 25 58  1  0  0  0  0
 26 74  1  0  0  0  0
 27 84  1  0  0  0  0
 28 85  1  0  0  0  0
 29 31  2  0  0  0  0
 29 84  1  0  0  0  0
 30 86  1  0  0  0  0
 31 87  1  0  0  0  0
 32 68  2  0  0  0  0
 33 69  1  0  0  0  0
 33 72  1  0  0  0  0
 34 35  2  0  0  0  0
 34 44  1  0  0  0  0
 34 77  1  0  0  0  0
 36 73  1  0  0  0  0
 36 79  2  0  0  0  0
 37 53  1  0  0  0  0
 37 75  1  0  0  0  0
 37 80  2  0  0  0  0
 38 65  1  0  0  0  0
 38 70  1  0  0  0  0
 38 81  2  0  0  0  0
 39 66  1  0  0  0  0
 39 76  1  0  0  0  0
 39 82  2  0  0  0  0
 40 71  1  0  0  0  0
 40 74  1  0  0  0  0
 40 83  2  0  0  0  0
 41 45  1  0  0  0  0
 42 53  1  0  0  0  0
 43 70  1  0  0  0  0
 44 55  1  0  0  0  0
 45 47  1  0  0  0  0
 46 48  1  0  0  0  0
 46 49  1  0  0  0  0
 47 52  1  0  0  0  0
 48 54  1  0  0  0  0
 49 71  1  0  0  0  0
 50 54  1  0  0  0  0
 50 71  1  0  0  0  0
 51 55  1  0  0  0  0
 51 77  1  0  0  0  0
 52 75  1  0  0  0  0
 53 70  1  0  0  0  0
 54 69  1  0  0  0  0
 55 85  1  0  0  0  0
 59 66  1  0  0  0  0
 60 67  1  0  0  0  0
 61 67  1  0  0  0  0
 62 67  1  0  0  0  0
 63 78  1  0  0  0  0
 64 77  1  0  0  0  0
 65 67  1  0  0  0  0
 65 76  1  0  0  0  0
 66 78  1  0  0  0  0
 68 69  1  0  0  0  0
M  CHG  2  77   1  78   1
M  ISO  4  40 100  55 101  74 100  85 101
M  END
> <Batch ID>
0035

> <Smiles>
C=C1C[101CH:1]([101O:1]c2ccc3c(c2)CN(C(=O)C(NC(=O)C(C)NC)C(C)(C)C)C(C(=O)NC2CCCc4ccccc42)C3)CN1Cc1cc(C)c([100NH:0][100C:0](=O)N2CCCC(n3nc(-c4ccc(Oc5ccc(F)cc5F)cc4)c(C(N)=O)c3N)C2)c(C)c1C

> <Shape>
0.268

> <Color>
0.190

> <Negative vol penalty>
0.000

$$$$

  -OEChem-04042321513D

 86 95  0     1  0  0  0  0  0999 V2000
  -17.5978  -33.5908   20.1086 C   0  0  0  0  0  0  0  0  0  0  0  0
  -18.9325  -33.8730   19.8361 C   0  0  0  0  0  0  0  0  0  0  0  0
  -24.2068  -12.6104   21.5978 C   0  0  0  0  0  0  0  0  0  0  0  0
  -25.8752  -12.3848   19.8651 C   0  0  0  0  0  0  0  0  0  0  0  0
  -17.2482  -32.9710   21.3076 C   0  0  0  0  0  0  0  0  0  0  0  0
  -19.9184  -33.5366   20.7630 C   0  0  0  0  0  0  0  0  0  0  0  0
  -25.3236  -29.1177   18.9885 C   0  0  0  0  0  0  0  0  0  0  0  0
  -24.3380  -11.2551   21.9006 C   0  0  0  0  0  0  0  0  0  0  0  0
  -26.0065  -11.0295   20.1678 C   0  0  0  0  0  0  0  0  0  0  0  0
  -26.5034  -28.4478   18.6640 C   0  0  0  0  0  0  0  0  0  0  0  0
  -23.9740   -7.7745   22.8887 C   0  0  0  0  0  0  0  0  0  0  0  0
  -22.8067   -7.0350   23.0789 C   0  0  0  0  0  0  0  0  0  0  0  0
  -27.2487  -28.6273   20.9576 C   0  0  0  0  0  0  0  0  0  0  0  0
  -31.7793  -22.6578   23.2912 C   0  0  0  0  0  0  0  0  0  0  0  0
  -32.4035  -24.6815   22.1287 C   0  0  0  0  0  0  0  0  0  0  0  0
  -22.1047   -7.5644   20.8286 C   0  0  0  0  0  0  0  0  0  0  0  0
  -24.9754  -13.1752   20.5800 C   0  0  0  0  0  0  0  0  0  0  0  0
  -23.6757  -15.2418   19.8401 C   0  0  0  0  0  0  0  0  0  0  0  0
  -18.2314  -32.6181   22.2454 C   0  0  0  0  0  0  0  0  0  0  0  0
  -25.0947  -29.5318   20.3036 C   0  0  0  0  0  0  0  0  0  0  0  0
  -19.5816  -32.9128   21.9763 C   0  0  0  0  0  0  0  0  0  0  0  0
  -26.0632  -29.2877   21.2911 C   0  0  0  0  0  0  0  0  0  0  0  0
  -32.7361  -23.6209   22.9713 C   0  0  0  0  0  0  0  0  0  0  0  0
  -30.4897  -22.7551   22.7683 C   0  0  0  0  0  0  0  0  0  0  0  0
  -30.1571  -23.8158   21.9257 C   0  0  0  0  0  0  0  0  0  0  0  0
  -31.1140  -24.7790   21.6058 C   0  0  0  0  0  0  0  0  0  0  0  0
  -25.2378  -10.4647   21.1856 C   0  0  0  0  0  0  0  0  0  0  0  0
  -27.4637  -28.2034   19.6461 C   0  0  0  0  0  0  0  0  0  0  0  0
  -24.2066   -8.4091   21.6685 C   0  0  0  0  0  0  0  0  0  0  0  0
  -21.8721   -6.9299   22.0488 C   0  0  0  0  0  0  0  0  0  0  0  0
  -23.2719   -8.3040   20.6384 C   0  0  0  0  0  0  0  0  0  0  0  0
  -24.8399  -14.5750   20.2664 C   0  0  0  0  0  0  0  0  0  0  0  0
  -24.0681  -16.5481   19.6782 C   0  0  0  0  0  0  0  0  0  0  0  0
  -31.3758  -26.1990   19.5398 C   0  0  0  0  0  0  0  0  0  0  0  0
  -32.0546  -25.4504   18.6585 C   0  0  0  0  0  0  0  0  0  0  0  0
  -22.3575  -14.7266   19.6110 C   0  0  0  0  0  0  0  0  0  0  0  0
  -22.7786  -31.2185   22.7257 C   0  0  0  0  0  0  0  0  0  0  0  0
  -23.9832  -28.8014   24.1806 C   0  0  0  0  0  0  0  0  0  0  0  0
  -25.2089  -25.8139   25.2807 C   0  0  0  0  0  0  0  0  0  0  0  0
  -28.3953  -19.6937   22.1753 C   0  0  0  0  0  0  0  0  0  0  0  0
  -17.8004  -31.9925   23.5483 C   0  0  0  0  0  0  0  0  0  0  0  0
  -23.8656  -30.3110   20.6858 C   0  0  0  0  0  0  0  0  0  0  0  0
  -25.7895  -29.7820   22.6853 C   0  0  0  0  0  0  0  0  0  0  0  0
  -31.0293  -27.6393   19.2310 C   0  0  0  0  0  0  0  0  0  0  0  0
  -18.9432  -31.3295   24.3130 C   0  0  0  0  0  0  0  0  0  0  0  0
  -27.9094  -19.2011   18.6231 C   0  0  0  0  0  0  0  0  0  0  0  0
  -20.1598  -32.2487   24.3575 C   0  0  0  0  0  0  0  0  0  0  0  0
  -26.9477  -18.0116   18.6097 C   0  0  0  0  0  0  0  0  0  0  0  0
  -28.9360  -19.0694   19.7441 C   0  0  0  0  0  0  0  0  0  0  0  0
  -27.3854  -17.7072   21.0908 C   0  0  0  0  0  0  0  0  0  0  0  0
  -29.9156  -26.9177   21.2711 C   0  0  0  0  0  0  0  0  0  0  0  0
  -20.6824  -32.5408   22.9458 C   0  0  1  0  0  0  0  0  0  0  0  0
  -23.3597  -29.9837   22.1021 C   0  0  1  0  0  0  0  0  0  0  0  0
  -26.3086  -17.7921   19.9937 C   0  0  2  0  0  0  0  0  0  0  0  0
  -29.7772  -27.8684   20.0764 C   0  0  2  0  0  0  0  0  0  1  0  0
  -34.1153  -23.5153   23.5289 C   0  0  0  0  0  0  0  0  0  0  0  0
  -28.7728  -23.9160   21.3663 C   0  0  0  0  0  0  0  0  0  0  0  0
  -25.1966  -24.2952   27.2783 C   0  0  0  0  0  0  0  0  0  0  0  0
  -25.9418  -30.6592   25.6005 C   0  0  0  0  0  0  0  0  0  0  0  0
  -26.6053  -28.7322   27.0548 C   0  0  0  0  0  0  0  0  0  0  0  0
  -24.2581  -29.5756   27.0990 C   0  0  0  0  0  0  0  0  0  0  0  0
  -23.9580  -23.6143   23.7458 C   0  0  0  0  0  0  0  0  0  0  0  0
  -29.4840  -21.7104   23.1265 C   0  0  0  0  0  0  0  0  0  0  0  0
  -25.0730  -28.2833   25.0846 C   0  0  1  0  0  0  0  0  0  0  0  0
  -24.5319  -24.6332   25.9529 C   0  0  2  0  0  0  0  0  0  0  0  0
  -25.4716  -29.3107   26.1814 C   0  0  0  0  0  0  0  0  0  0  0  0
  -25.8930  -15.3903   20.3687 N   0  0  0  0  0  0  0  0  0  0  0  0
  -25.3919  -16.5829   20.0043 N   0  0  0  0  0  0  0  0  0  0  0  0
  -30.7971  -25.8585   20.7572 N   0  0  0  0  0  0  0  0  0  0  0  0
  -24.3883  -29.5158   23.0467 N   0  0  0  0  0  0  0  0  0  0  0  0
  -28.2623  -18.8816   21.0368 N   0  0  0  0  0  0  0  0  0  0  0  0
  -23.4064  -17.6589   19.2900 N   0  0  0  0  0  0  0  0  0  0  0  0
  -22.0386  -14.2523   18.3313 N   0  0  0  0  0  0  0  0  0  0  0  0
  -21.4400  -31.4144   22.4442 N   0  0  0  0  0  0  0  0  0  0  0  0
  -24.5979  -27.0064   25.6064 N   0  0  0  0  0  0  0  0  0  0  0  0
  -29.2500  -20.7813   22.0434 N   0  0  0  0  0  0  0  0  0  0  0  0
  -24.5958  -23.4307   25.0749 N   0  3  0  0  0  0  0  0  0  0  0  0
  -21.4830  -14.7031   20.5100 O   0  0  0  0  0  0  0  0  0  0  0  0
  -23.4909  -31.9407   23.4134 O   0  0  0  0  0  0  0  0  0  0  0  0
  -22.8037  -28.5849   24.4725 O   0  0  0  0  0  0  0  0  0  0  0  0
  -26.1847  -25.6912   24.5435 O   0  0  0  0  0  0  0  0  0  0  0  0
  -27.7926  -19.4692   23.2305 O   0  0  0  0  0  0  0  0  0  0  0  0
  -25.3663   -9.1423   21.4810 O   0  0  0  0  0  0  0  0  0  0  0  0
  -28.6113  -27.5449   19.3234 O   0  0  0  0  0  0  0  0  0  1  0  0
  -20.7519   -6.2184   22.2311 F   0  0  0  0  0  0  0  0  0  0  0  0
  -23.4904   -8.9104   19.4635 F   0  0  0  0  0  0  0  0  0  0  0  0
  1  2  1  0  0  0  0
  1  5  2  0  0  0  0
  2  6  2  0  0  0  0
  3  8  2  0  0  0  0
  3 17  1  0  0  0  0
  4  9  1  0  0  0  0
  4 17  2  0  0  0  0
  5 19  1  0  0  0  0
  6 21  1  0  0  0  0
  7 10  2  0  0  0  0
  7 20  1  0  0  0  0
  8 27  1  0  0  0  0
  9 27  2  0  0  0  0
 10 28  1  0  0  0  0
 11 12  2  0  0  0  0
 11 29  1  0  0  0  0
 12 30  1  0  0  0  0
 13 22  1  0  0  0  0
 13 28  2  0  0  0  0
 14 23  1  0  0  0  0
 14 24  2  0  0  0  0
 15 23  2  0  0  0  0
 15 26  1  0  0  0  0
 16 30  2  0  0  0  0
 16 31  1  0  0  0  0
 17 32  1  0  0  0  0
 18 32  1  0  0  0  0
 18 33  2  0  0  0  0
 18 36  1  0  0  0  0
 19 21  2  0  0  0  0
 19 41  1  0  0  0  0
 20 22  2  0  0  0  0
 20 42  1  0  0  0  0
 21 52  1  0  0  0  0
 22 43  1  0  0  0  0
 23 56  1  0  0  0  0
 24 25  1  0  0  0  0
 24 63  1  0  0  0  0
 25 26  2  0  0  0  0
 25 57  1  0  0  0  0
 26 69  1  0  0  0  0
 27 83  1  0  0  0  0
 28 84  1  0  0  0  0
 29 31  2  0  0  0  0
 29 83  1  0  0  0  0
 30 85  1  0  0  0  0
 31 86  1  0  0  0  0
 32 67  2  0  0  0  0
 33 68  1  0  0  0  0
 33 72  1  0  0  0  0
 34 35  2  0  0  0  0
 34 44  1  0  0  0  0
 34 69  1  0  0  0  0
 36 73  1  0  0  0  0
 36 78  2  0  0  0  0
 37 53  1  0  0  0  0
 37 74  1  0  0  0  0
 37 79  2  0  0  0  0
 38 64  1  0  0  0  0
 38 70  1  0  0  0  0
 38 80  2  0  0  0  0
 39 65  1  0  0  0  0
 39 75  1  0  0  0  0
 39 81  2  0  0  0  0
 40 71  1  0  0  0  0
 40 76  1  0  0  0  0
 40 82  2  0  0  0  0
 41 45  1  0  0  0  0
 42 53  1  0  0  0  0
 43 70  1  0  0  0  0
 44 55  1  0  0  0  0
 45 47  1  0  0  0  0
 46 48  1  0  0  0  0
 46 49  1  0  0  0  0
 47 52  1  0  0  0  0
 48 54  1  0  0  0  0
 49 71  1  0  0  0  0
 50 54  1  0  0  0  0
 50 71  1  0  0  0  0
 51 55  1  0  0  0  0
 51 69  1  0  0  0  0
 52 74  1  0  0  0  0
 53 70  1  0  0  0  0
 54 68  1  0  0  0  0
 55 84  1  0  0  0  0
 58 65  1  0  0  0  0
 59 66  1  0  0  0  0
 60 66  1  0  0  0  0
 61 66  1  0  0  0  0
 62 77  1  0  0  0  0
 63 76  1  0  0  0  0
 64 66  1  0  0  0  0
 64 75  1  0  0  0  0
 65 77  1  0  0  0  0
 67 68  1  0  0  0  0
M  CHG  1  77   1
M  ISO  4  40 100  55 101  76 100  84 101
M  END
> <Batch ID>
0035

> <Smiles>
C=C1C[101CH:1]([101O:1]c2ccc3c(c2)CN(C(=O)C(NC(=O)C(C)NC)C(C)(C)C)C(C(=O)NC2CCCc4ccccc42)C3)CN1c1cc(C)cc(C[100NH:0][100C:0](=O)N2CCCC(n3nc(-c4ccc(Oc5ccc(F)cc5F)cc4)c(C(N)=O)c3N)C2)c1C

> <Shape>
0.236

> <Color>
0.083

> <Negative vol penalty>
0.000

$$$$

  -OEChem-04042321513D

 87 96  0     1  0  0  0  0  0999 V2000
  -21.8241  -11.8077   19.2428 C   0  0  0  0  0  0  0  0  0  0  0  0
  -21.5555  -13.0647   19.7749 C   0  0  0  0  0  0  0  0  0  0  0  0
  -29.4265  -26.9752   18.6921 C   0  0  0  0  0  0  0  0  0  0  0  0
  -29.2712  -27.5102   21.0430 C   0  0  0  0  0  0  0  0  0  0  0  0
  -23.1052  -11.2675   19.3463 C   0  0  0  0  0  0  0  0  0  0  0  0
  -22.5677  -13.7819   20.4117 C   0  0  0  0  0  0  0  0  0  0  0  0
  -23.3456  -19.8564   20.3956 C   0  0  0  0  0  0  0  0  0  0  0  0
  -18.0932  -26.3740   23.3372 C   0  0  0  0  0  0  0  0  0  0  0  0
  -18.6407  -27.6238   23.0477 C   0  0  0  0  0  0  0  0  0  0  0  0
  -30.7886  -27.2749   18.7138 C   0  0  0  0  0  0  0  0  0  0  0  0
  -30.6333  -27.8098   21.0648 C   0  0  0  0  0  0  0  0  0  0  0  0
  -23.0102  -20.8475   21.3170 C   0  0  0  0  0  0  0  0  0  0  0  0
  -33.5536  -26.1134   21.1857 C   0  0  0  0  0  0  0  0  0  0  0  0
  -34.3087  -25.6137   22.2467 C   0  0  0  0  0  0  0  0  0  0  0  0
  -25.2414  -20.7468   22.2285 C   0  0  0  0  0  0  0  0  0  0  0  0
  -34.9001  -27.8671   22.8869 C   0  0  0  0  0  0  0  0  0  0  0  0
  -28.6678  -27.0929   19.8567 C   0  0  0  0  0  0  0  0  0  0  0  0
  -26.6606  -25.5343   20.0797 C   0  0  0  0  0  0  0  0  0  0  0  0
  -24.1361  -11.9824   19.9762 C   0  0  0  0  0  0  0  0  0  0  0  0
  -24.6304  -19.2944   20.3908 C   0  0  0  0  0  0  0  0  0  0  0  0
  -23.8635  -13.2501   20.5248 C   0  0  0  0  0  0  0  0  0  0  0  0
  -25.5914  -19.7506   21.3043 C   0  0  0  0  0  0  0  0  0  0  0  0
  -18.7963  -25.4728   24.1367 C   0  0  0  0  0  0  0  0  0  0  0  0
  -19.8913  -27.9724   23.5575 C   0  0  0  0  0  0  0  0  0  0  0  0
  -20.0470  -25.8214   24.6466 C   0  0  0  0  0  0  0  0  0  0  0  0
  -31.3920  -27.6922   19.9002 C   0  0  0  0  0  0  0  0  0  0  0  0
  -23.9572  -21.2908   22.2356 C   0  0  0  0  0  0  0  0  0  0  0  0
  -33.4718  -27.4899   20.9752 C   0  0  0  0  0  0  0  0  0  0  0  0
  -34.9819  -26.4905   23.0974 C   0  0  0  0  0  0  0  0  0  0  0  0
  -34.1451  -28.3667   21.8259 C   0  0  0  0  0  0  0  0  0  0  0  0
  -20.5945  -27.0712   24.3570 C   0  0  0  0  0  0  0  0  0  0  0  0
  -27.2606  -26.7840   19.8347 C   0  0  0  0  0  0  0  0  0  0  0  0
  -25.3142  -25.7663   19.9388 C   0  0  0  0  0  0  0  0  0  0  0  0
  -22.8695  -23.5720   25.6906 C   0  0  0  0  0  0  0  0  0  0  0  0
  -23.6344  -24.3270   26.4882 C   0  0  0  0  0  0  0  0  0  0  0  0
  -27.2662  -24.2762   20.4055 C   0  0  0  0  0  0  0  0  0  0  0  0
  -25.8043  -16.3771   20.8542 C   0  0  0  0  0  0  0  0  0  0  0  0
  -28.5940  -17.7843   19.9829 C   0  0  0  0  0  0  0  0  0  0  0  0
  -30.4351  -20.6451   19.7119 C   0  0  0  0  0  0  0  0  0  0  0  0
  -21.3515  -29.8575   20.9747 C   0  0  0  0  0  0  0  0  0  0  0  0
  -25.4932  -11.3372   20.1055 C   0  0  0  0  0  0  0  0  0  0  0  0
  -24.9845  -18.2452   19.3729 C   0  0  0  0  0  0  0  0  0  0  0  0
  -26.9907  -19.1940   21.3273 C   0  0  0  0  0  0  0  0  0  0  0  0
  -23.0260  -22.0987   25.4780 C   0  0  0  0  0  0  0  0  0  0  0  0
  -26.6036  -12.3211   20.4652 C   0  0  0  0  0  0  0  0  0  0  0  0
  -22.5914  -29.2305   17.6966 C   0  0  0  0  0  0  0  0  0  0  0  0
  -26.1608  -13.2322   21.6056 C   0  0  0  0  0  0  0  0  0  0  0  0
  -23.8660  -28.4196   17.9365 C   0  0  0  0  0  0  0  0  0  0  0  0
  -22.3913  -30.2982   18.7699 C   0  0  0  0  0  0  0  0  0  0  0  0
  -23.6968  -28.9850   20.3963 C   0  0  0  0  0  0  0  0  0  0  0  0
  -21.4809  -23.0322   23.8836 C   0  0  0  0  0  0  0  0  0  0  0  0
  -24.9413  -14.0693   21.2011 C   0  0  1  0  0  0  0  0  0  0  0  0
  -26.1672  -17.3787   19.7946 C   0  0  1  0  0  0  0  0  0  0  0  0
  -23.9123  -27.8589   19.3707 C   0  0  2  0  0  0  0  0  0  0  0  0
  -22.5644  -21.9739   24.0344 C   0  0  1  0  0  0  0  0  0  1  0  0
  -18.1860  -24.1414   24.4301 C   0  0  0  0  0  0  0  0  0  0  0  0
  -32.6943  -21.4737   19.0000 C   0  0  0  0  0  0  0  0  0  0  0  0
  -29.8033  -16.6986   22.5653 C   0  0  0  0  0  0  0  0  0  0  0  0
  -31.6984  -18.3084   22.2727 C   0  0  0  0  0  0  0  0  0  0  0  0
  -31.2956  -16.5350   20.5651 C   0  0  0  0  0  0  0  0  0  0  0  0
  -29.2686  -22.3666   17.6060 C   0  0  0  0  0  0  0  0  0  0  0  0
  -20.4386  -29.3222   23.2195 C   0  0  0  0  0  0  0  0  0  0  0  0
  -20.7866  -24.8360   25.5028 C   0  0  0  0  0  0  0  0  0  0  0  0
  -29.7066  -18.4959   20.7142 C   0  0  1  0  0  0  0  0  0  0  0  0
  -31.2606  -21.2072   18.5686 C   0  0  2  0  0  0  0  0  0  0  0  0
  -30.5991  -17.5188   21.5304 C   0  0  0  0  0  0  0  0  0  0  0  0
  -26.3684  -27.7391   19.5590 N   0  0  0  0  0  0  0  0  0  0  0  0
  -25.1942  -27.0892   19.6297 N   0  0  0  0  0  0  0  0  0  0  0  0
  -27.2866  -18.1655   20.3163 N   0  0  0  0  0  0  0  0  0  0  0  0
  -22.4444  -29.7008   20.1064 N   0  0  0  0  0  0  0  0  0  0  0  0
  -24.2330  -24.9656   20.0503 N   0  0  0  0  0  0  0  0  0  0  0  0
  -28.6624  -24.2142   20.5111 N   0  0  0  0  0  0  0  0  0  0  0  0
  -25.3438  -15.1732   20.3562 N   0  0  0  0  0  0  0  0  0  0  0  0
  -30.4293  -19.2662   19.7079 N   0  0  0  0  0  0  0  0  0  0  0  0
  -21.4811  -29.2545   22.2198 N   0  0  0  0  0  0  0  0  0  0  0  0
  -21.9282  -24.1776   24.7882 N   0  3  1  0  0  0  0  0  0  0  0  0
  -30.6702  -22.4867   18.0836 N   0  3  0  0  0  0  0  0  0  0  0  0
  -26.5904  -23.2342   20.5812 O   0  0  0  0  0  0  0  0  0  0  0  0
  -25.9339  -16.6740   22.0360 O   0  0  0  0  0  0  0  0  0  0  0  0
  -28.8748  -16.9271   19.1414 O   0  0  0  0  0  0  0  0  0  0  0  0
  -29.8566  -21.3578   20.5291 O   0  0  0  0  0  0  0  0  0  0  0  0
  -20.3332  -30.4835   20.6614 O   0  0  0  0  0  0  0  0  0  0  0  0
  -32.7212  -27.9845   19.9218 O   0  0  0  0  0  0  0  0  0  0  0  0
  -23.6322  -22.2575   23.1365 O   0  0  0  0  0  0  0  0  0  1  0  0
  -35.7057  -26.0106   24.1172 F   0  0  0  0  0  0  0  0  0  0  0  0
  -34.0693  -29.6902   21.6294 F   0  0  0  0  0  0  0  0  0  0  0  0
  -22.1493  -27.5062   24.9850 Cl  0  0  0  0  0  0  0  0  0  0  0  0
  1  2  1  0  0  0  0
  1  5  2  0  0  0  0
  2  6  2  0  0  0  0
  3 10  2  0  0  0  0
  3 17  1  0  0  0  0
  4 11  1  0  0  0  0
  4 17  2  0  0  0  0
  5 19  1  0  0  0  0
  6 21  1  0  0  0  0
  7 12  2  0  0  0  0
  7 20  1  0  0  0  0
  8  9  1  0  0  0  0
  8 23  2  0  0  0  0
  9 24  2  0  0  0  0
 10 26  1  0  0  0  0
 11 26  2  0  0  0  0
 12 27  1  0  0  0  0
 13 14  2  0  0  0  0
 13 28  1  0  0  0  0
 14 29  1  0  0  0  0
 15 22  1  0  0  0  0
 15 27  2  0  0  0  0
 16 29  2  0  0  0  0
 16 30  1  0  0  0  0
 17 32  1  0  0  0  0
 18 32  1  0  0  0  0
 18 33  2  0  0  0  0
 18 36  1  0  0  0  0
 19 21  2  0  0  0  0
 19 41  1  0  0  0  0
 20 22  2  0  0  0  0
 20 42  1  0  0  0  0
 21 52  1  0  0  0  0
 22 43  1  0  0  0  0
 23 25  1  0  0  0  0
 23 56  1  0  0  0  0
 24 31  1  0  0  0  0
 24 62  1  0  0  0  0
 25 31  2  0  0  0  0
 25 63  1  0  0  0  0
 26 83  1  0  0  0  0
 27 84  1  0  0  0  0
 28 30  2  0  0  0  0
 28 83  1  0  0  0  0
 29 85  1  0  0  0  0
 30 86  1  0  0  0  0
 31 87  1  0  0  0  0
 32 67  2  0  0  0  0
 33 68  1  0  0  0  0
 33 71  1  0  0  0  0
 34 35  2  0  0  0  0
 34 44  1  0  0  0  0
 34 76  1  0  0  0  0
 36 72  1  0  0  0  0
 36 78  2  0  0  0  0
 37 53  1  0  0  0  0
 37 73  1  0  0  0  0
 37 79  2  0  0  0  0
 38 64  1  0  0  0  0
 38 69  1  0  0  0  0
 38 80  2  0  0  0  0
 39 65  1  0  0  0  0
 39 74  1  0  0  0  0
 39 81  2  0  0  0  0
 40 70  1  0  0  0  0
 40 75  1  0  0  0  0
 40 82  2  0  0  0  0
 41 45  1  0  0  0  0
 42 53  1  0  0  0  0
 43 69  1  0  0  0  0
 44 55  1  0  0  0  0
 45 47  1  0  0  0  0
 46 48  1  0  0  0  0
 46 49  1  0  0  0  0
 47 52  1  0  0  0  0
 48 54  1  0  0  0  0
 49 70  1  0  0  0  0
 50 54  1  0  0  0  0
 50 70  1  0  0  0  0
 51 55  1  0  0  0  0
 51 76  1  0  0  0  0
 52 73  1  0  0  0  0
 53 69  1  0  0  0  0
 54 68  1  0  0  0  0
 55 84  1  0  0  0  0
 57 65  1  0  0  0  0
 58 66  1  0  0  0  0
 59 66  1  0  0  0  0
 60 66  1  0  0  0  0
 61 77  1  0  0  0  0
 62 75  1  0  0  0  0
 63 76  1  0  0  0  0
 64 66  1  0  0  0  0
 64 74  1  0  0  0  0
 65 77  1  0  0  0  0
 67 68  1  0  0  0  0
M  CHG  2  76   1  77   1
M  ISO  4  40 100  55 101  75 100  84 101
M  END
> <Batch ID>
0035

> <Smiles>
C=C1C[101CH:1]([101O:1]c2ccc3c(c2)CN(C(=O)C(NC(=O)C(C)NC)C(C)(C)C)C(C(=O)NC2CCCc4ccccc42)C3)CN1Cc1c(C)ccc(C[100NH:0][100C:0](=O)N2CCCC(n3nc(-c4ccc(Oc5ccc(F)cc5F)cc4)c(C(N)=O)c3N)C2)c1Cl

> <Shape>
0.224

> <Color>
0.063

> <Negative vol penalty>
0.000

$$$$

  -OEChem-04042321513D

 93102  0     1  0  0  0  0  0999 V2000
  -29.8481  -36.2052   21.6610 C   0  0  0  0  0  0  0  0  0  0  0  0
  -29.8533  -34.8155   21.5964 C   0  0  0  0  0  0  0  0  0  0  0  0
  -23.5801   -9.6415   20.0238 C   0  0  0  0  0  0  0  0  0  0  0  0
  -23.1300  -10.0901   22.3547 C   0  0  0  0  0  0  0  0  0  0  0  0
  -28.8650  -36.8639   22.3982 C   0  0  0  0  0  0  0  0  0  0  0  0
  -28.8760  -34.0837   22.2699 C   0  0  0  0  0  0  0  0  0  0  0  0
  -26.9463  -30.3542   19.4393 C   0  0  0  0  0  0  0  0  0  0  0  0
  -22.8182   -8.4757   20.1010 C   0  0  0  0  0  0  0  0  0  0  0  0
  -22.3680   -8.9243   22.4319 C   0  0  0  0  0  0  0  0  0  0  0  0
  -27.7107  -29.1960   19.3050 C   0  0  0  0  0  0  0  0  0  0  0  0
  -22.9209   -5.6009   22.7148 C   0  0  0  0  0  0  0  0  0  0  0  0
  -23.1187   -4.7693   23.8171 C   0  0  0  0  0  0  0  0  0  0  0  0
  -26.3607  -28.1170   20.9880 C   0  0  0  0  0  0  0  0  0  0  0  0
  -24.6736  -20.9167   22.2211 C   0  0  0  0  0  0  0  0  0  0  0  0
  -26.9292  -20.0525   22.1744 C   0  0  0  0  0  0  0  0  0  0  0  0
  -20.8011   -5.0455   24.4412 C   0  0  0  0  0  0  0  0  0  0  0  0
  -23.7360  -10.4487   21.1507 C   0  0  0  0  0  0  0  0  0  0  0  0
  -24.2994  -12.7616   20.2337 C   0  0  0  0  0  0  0  0  0  0  0  0
  -27.8694  -36.1401   23.0732 C   0  0  0  0  0  0  0  0  0  0  0  0
  -25.8884  -30.4062   20.3584 C   0  0  0  0  0  0  0  0  0  0  0  0
  -27.8794  -34.7333   23.0180 C   0  0  0  0  0  0  0  0  0  0  0  0
  -25.5827  -29.2761   21.1302 C   0  0  0  0  0  0  0  0  0  0  0  0
  -25.9127  -20.8080   21.5900 C   0  0  0  0  0  0  0  0  0  0  0  0
  -24.4509  -20.2700   23.4368 C   0  0  0  0  0  0  0  0  0  0  0  0
  -26.7065  -19.4057   23.3901 C   0  0  0  0  0  0  0  0  0  0  0  0
  -25.4674  -19.5145   24.0213 C   0  0  0  0  0  0  0  0  0  0  0  0
  -22.2121   -8.1171   21.3050 C   0  0  0  0  0  0  0  0  0  0  0  0
  -27.4198  -28.0782   20.0814 C   0  0  0  0  0  0  0  0  0  0  0  0
  -21.6633   -6.1549   22.4758 C   0  0  0  0  0  0  0  0  0  0  0  0
  -22.0588   -4.4916   24.6802 C   0  0  0  0  0  0  0  0  0  0  0  0
  -20.6034   -5.8772   23.3390 C   0  0  0  0  0  0  0  0  0  0  0  0
  -24.5234  -11.6528   21.0717 C   0  0  0  0  0  0  0  0  0  0  0  0
  -25.3168  -13.6329   20.5377 C   0  0  0  0  0  0  0  0  0  0  0  0
  -23.2642  -12.9842   19.2670 C   0  0  0  0  0  0  0  0  0  0  0  0
  -25.2412  -32.1476   22.9376 C   0  0  0  0  0  0  0  0  0  0  0  0
  -22.4012  -30.5860   22.8007 C   0  0  0  0  0  0  0  0  0  0  0  0
  -21.2745  -27.2228   22.1399 C   0  0  0  0  0  0  0  0  0  0  0  0
  -28.5332  -16.2448   24.2763 C   0  0  0  0  0  0  0  0  0  0  0  0
  -26.8553  -36.8945   23.8961 C   0  0  0  0  0  0  0  0  0  0  0  0
  -25.0564  -31.6541   20.4721 C   0  0  0  0  0  0  0  0  0  0  0  0
  -24.4447  -29.2738   22.1168 C   0  0  0  0  0  0  0  0  0  0  0  0
  -25.6345  -36.0593   24.2737 C   0  0  0  0  0  0  0  0  0  0  0  0
  -24.4467  -21.3011   29.1513 C   0  0  0  0  0  0  0  0  0  0  0  0
  -25.6015  -21.9686   28.4066 C   0  0  0  0  0  0  0  0  0  0  0  0
  -29.5101  -12.9671   23.2871 C   0  0  0  0  0  0  0  0  0  0  0  0
  -23.6346  -20.2980   28.3378 C   0  0  0  0  0  0  0  0  0  0  0  0
  -26.7484  -21.0033   28.1225 C   0  0  0  0  0  0  0  0  0  0  0  0
  -26.0638  -34.6905   24.7920 C   0  0  0  0  0  0  0  0  0  0  0  0
  -28.2797  -12.4227   22.5593 C   0  0  0  0  0  0  0  0  0  0  0  0
  -29.1210  -13.8465   24.4734 C   0  0  0  0  0  0  0  0  0  0  0  0
  -26.9616  -14.4013   23.4232 C   0  0  0  0  0  0  0  0  0  0  0  0
  -24.4410  -19.1919   27.6672 C   0  0  0  0  0  0  0  0  0  0  0  0
  -26.6313  -20.1906   26.8387 C   0  0  0  0  0  0  0  0  0  0  0  0
  -26.8215  -33.9053   23.7146 C   0  0  1  0  0  0  0  0  0  0  0  0
  -24.3273  -31.7664   21.8074 C   0  0  1  0  0  0  0  0  0  0  0  0
  -27.3031  -13.5540   22.1856 C   0  0  2  0  0  0  0  0  0  0  0  0
  -23.1147  -20.4015   24.0916 C   0  0  0  0  0  0  0  0  0  0  0  0
  -19.0907  -26.3823   21.2334 C   0  0  0  0  0  0  0  0  0  0  0  0
  -21.6251  -30.2972   25.7374 C   0  0  0  0  0  0  0  0  0  0  0  0
  -20.4362  -28.1757   25.1425 C   0  0  0  0  0  0  0  0  0  0  0  0
  -19.6950  -30.3399   24.1476 C   0  0  0  0  0  0  0  0  0  0  0  0
  -22.6172  -25.7449   19.9554 C   0  0  0  0  0  0  0  0  0  0  0  0
  -27.8115  -18.6026   23.9951 C   0  0  0  0  0  0  0  0  0  0  0  0
  -25.2283  -18.8208   25.3245 C   0  0  0  0  0  0  0  0  0  0  0  0
  -26.1524  -21.5042   20.2828 C   0  0  0  0  0  0  0  0  0  0  0  0
  -27.3083  -23.3966   19.1332 C   0  0  0  0  0  0  0  0  0  0  0  0
  -27.5101  -25.7052   20.2104 C   0  0  0  0  0  0  0  0  0  1  0  0
  -21.8621  -29.2957   23.3695 C   0  0  1  0  0  0  0  0  0  0  0  0
  -20.5327  -26.7386   20.9071 C   0  0  2  0  0  0  0  0  0  0  0  0
  -28.1721  -24.6259   19.3673 C   0  0  1  0  0  0  0  0  0  0  0  0
  -20.9323  -29.5304   24.5933 C   0  0  0  0  0  0  0  0  0  0  0  0
  -25.5988  -11.8033   21.8495 N   0  0  0  0  0  0  0  0  0  0  0  0
  -26.0596  -13.0168   21.5014 N   0  0  0  0  0  0  0  0  0  0  0  0
  -23.6645  -30.5198   22.1961 N   0  0  0  0  0  0  0  0  0  0  0  0
  -28.1951  -14.9002   24.0512 N   0  0  0  0  0  0  0  0  0  0  0  0
  -25.6395  -14.8581   20.0719 N   0  0  0  0  0  0  0  0  0  0  0  0
  -22.0796  -13.6042   19.6874 N   0  0  0  0  0  0  0  0  0  0  0  0
  -25.8968  -33.3494   22.7501 N   0  0  0  0  0  0  0  0  0  0  0  0
  -21.2243  -28.5955   22.2600 N   0  0  0  0  0  0  0  0  0  0  0  0
  -27.6030  -17.1802   23.8399 N   0  0  0  0  0  0  0  0  0  0  0  0
  -25.2271  -19.7589   26.5071 N   0  3  0  0  0  0  0  0  0  0  0  0
  -21.1990  -25.5311   20.3425 N   0  3  0  0  0  0  0  0  0  0  0  0
  -27.0012  -22.7199   20.4164 N   0  3  0  0  0  0  0  0  0  0  0  0
  -23.3795  -12.6285   18.0696 O   0  0  0  0  0  0  0  0  0  0  0  0
  -25.3428  -31.4068   23.9085 O   0  0  0  0  0  0  0  0  0  0  0  0
  -21.7232  -31.6132   22.8832 O   0  0  0  0  0  0  0  0  0  0  0  0
  -21.8388  -26.4593   22.9204 O   0  0  0  0  0  0  0  0  0  0  0  0
  -29.5885  -16.5866   24.8208 O   0  0  0  0  0  0  0  0  0  0  0  0
  -21.4684   -6.9797   21.3807 O   0  0  0  0  0  0  0  0  0  0  0  0
  -28.1648  -26.9467   19.9528 O   0  0  0  0  0  0  0  0  0  1  0  0
  -22.2484   -3.6917   25.7378 F   0  0  0  0  0  0  0  0  0  0  0  0
  -19.3926   -6.4055   23.1139 F   0  0  0  0  0  0  0  0  0  0  0  0
  -29.3128  -24.2305   20.0045 F   0  0  0  0  0  0  0  0  0  0  0  0
  1  2  1  0  0  0  0
  1  5  2  0  0  0  0
  2  6  2  0  0  0  0
  3  8  2  0  0  0  0
  3 17  1  0  0  0  0
  4  9  1  0  0  0  0
  4 17  2  0  0  0  0
  5 19  1  0  0  0  0
  6 21  1  0  0  0  0
  7 10  2  0  0  0  0
  7 20  1  0  0  0  0
  8 27  1  0  0  0  0
  9 27  2  0  0  0  0
 10 28  1  0  0  0  0
 11 12  2  0  0  0  0
 11 29  1  0  0  0  0
 12 30  1  0  0  0  0
 13 22  1  0  0  0  0
 13 28  2  0  0  0  0
 14 23  1  0  0  0  0
 14 24  2  0  0  0  0
 15 23  2  0  0  0  0
 15 25  1  0  0  0  0
 16 30  2  0  0  0  0
 16 31  1  0  0  0  0
 17 32  1  0  0  0  0
 18 32  1  0  0  0  0
 18 33  2  0  0  0  0
 18 34  1  0  0  0  0
 19 21  2  0  0  0  0
 19 39  1  0  0  0  0
 20 22  2  0  0  0  0
 20 40  1  0  0  0  0
 21 54  1  0  0  0  0
 22 41  1  0  0  0  0
 23 65  1  0  0  0  0
 24 26  1  0  0  0  0
 24 57  1  0  0  0  0
 25 26  2  0  0  0  0
 25 63  1  0  0  0  0
 26 64  1  0  0  0  0
 27 89  1  0  0  0  0
 28 90  1  0  0  0  0
 29 31  2  0  0  0  0
 29 89  1  0  0  0  0
 30 91  1  0  0  0  0
 31 92  1  0  0  0  0
 32 72  2  0  0  0  0
 33 73  1  0  0  0  0
 33 76  1  0  0  0  0
 34 77  1  0  0  0  0
 34 84  2  0  0  0  0
 35 55  1  0  0  0  0
 35 78  1  0  0  0  0
 35 85  2  0  0  0  0
 36 68  1  0  0  0  0
 36 74  1  0  0  0  0
 36 86  2  0  0  0  0
 37 69  1  0  0  0  0
 37 79  1  0  0  0  0
 37 87  2  0  0  0  0
 38 75  1  0  0  0  0
 38 80  1  0  0  0  0
 38 88  2  0  0  0  0
 39 42  1  0  0  0  0
 40 55  1  0  0  0  0
 41 74  1  0  0  0  0
 42 48  1  0  0  0  0
 43 44  1  0  0  0  0
 43 46  1  0  0  0  0
 44 47  1  0  0  0  0
 45 49  1  0  0  0  0
 45 50  1  0  0  0  0
 46 52  1  0  0  0  0
 47 53  1  0  0  0  0
 48 54  1  0  0  0  0
 49 56  1  0  0  0  0
 50 75  1  0  0  0  0
 51 56  1  0  0  0  0
 51 75  1  0  0  0  0
 52 81  1  0  0  0  0
 53 81  1  0  0  0  0
 54 78  1  0  0  0  0
 55 74  1  0  0  0  0
 56 73  1  0  0  0  0
 58 69  1  0  0  0  0
 59 71  1  0  0  0  0
 60 71  1  0  0  0  0
 61 71  1  0  0  0  0
 62 82  1  0  0  0  0
 63 80  1  0  0  0  0
 64 81  1  0  0  0  0
 65 83  1  0  0  0  0
 66 70  1  0  0  0  0
 66 83  1  0  0  0  0
 67 70  1  0  0  0  0
 67 90  1  0  0  0  0
 68 71  1  0  0  0  0
 68 79  1  0  0  0  0
 69 82  1  0  0  0  0
 70 93  1  0  0  0  0
 72 73  1  0  0  0  0
M  CHG  3  81   1  82   1  83   1
M  ISO  4  38 100  67 101  80 100  90 101
M  END
> <Batch ID>
0035

> <Smiles>
CNC(C)C(=O)NC(C(=O)N1Cc2cc([101O:1][101CH2:1]C(F)CNCc3cc(C)c(CN4CCCCCC4)c(C[100NH:0][100C:0](=O)N4CCCC(n5nc(-c6ccc(Oc7ccc(F)cc7F)cc6)c(C(N)=O)c5N)C4)c3)ccc2CC1C(=O)NC1CCCc2ccccc21)C(C)(C)C

> <Shape>
0.263

> <Color>
0.157

> <Negative vol penalty>
0.000

$$$$

  -OEChem-04042321513D

 83 91  0     1  0  0  0  0  0999 V2000
  -39.0049  -32.4497   18.7414 C   0  0  0  0  0  0  0  0  0  0  0  0
  -39.4501  -31.1355   18.8408 C   0  0  0  0  0  0  0  0  0  0  0  0
  -23.0037   -9.8864   19.9907 C   0  0  0  0  0  0  0  0  0  0  0  0
  -23.7227   -9.9580   22.2961 C   0  0  0  0  0  0  0  0  0  0  0  0
  -37.8827  -32.8606   19.4596 C   0  0  0  0  0  0  0  0  0  0  0  0
  -38.7740  -30.2315   19.6595 C   0  0  0  0  0  0  0  0  0  0  0  0
  -37.0766  -23.2858   20.0976 C   0  0  0  0  0  0  0  0  0  0  0  0
  -22.2381   -8.7532   20.2646 C   0  0  0  0  0  0  0  0  0  0  0  0
  -22.9570   -8.8247   22.5701 C   0  0  0  0  0  0  0  0  0  0  0  0
  -37.1533  -22.2121   20.9837 C   0  0  0  0  0  0  0  0  0  0  0  0
  -23.2072   -5.4822   22.1272 C   0  0  0  0  0  0  0  0  0  0  0  0
  -23.7941   -4.4723   22.8895 C   0  0  0  0  0  0  0  0  0  0  0  0
  -35.1798  -23.0136   22.1161 C   0  0  0  0  0  0  0  0  0  0  0  0
  -29.8634  -17.4774   23.0620 C   0  0  0  0  0  0  0  0  0  0  0  0
  -32.0445  -16.5780   22.5415 C   0  0  0  0  0  0  0  0  0  0  0  0
  -22.0655   -4.7270   24.5580 C   0  0  0  0  0  0  0  0  0  0  0  0
  -23.7461  -10.4888   21.0064 C   0  0  0  0  0  0  0  0  0  0  0  0
  -24.1284  -13.0034   20.8101 C   0  0  0  0  0  0  0  0  0  0  0  0
  -37.1868  -31.9588   20.2799 C   0  0  0  0  0  0  0  0  0  0  0  0
  -36.0556  -24.2390   20.2211 C   0  0  0  0  0  0  0  0  0  0  0  0
  -37.6423  -30.6311   20.3904 C   0  0  0  0  0  0  0  0  0  0  0  0
  -35.0910  -24.0970   21.2288 C   0  0  0  0  0  0  0  0  0  0  0  0
  -30.4479  -18.3820   23.9484 C   0  0  0  0  0  0  0  0  0  0  0  0
  -32.6290  -17.4826   23.4278 C   0  0  0  0  0  0  0  0  0  0  0  0
  -30.6617  -16.5754   22.3586 C   0  0  0  0  0  0  0  0  0  0  0  0
  -31.8307  -18.3846   24.1313 C   0  0  0  0  0  0  0  0  0  0  0  0
  -22.2147   -8.2223   21.5543 C   0  0  0  0  0  0  0  0  0  0  0  0
  -36.2065  -22.0775   21.9949 C   0  0  0  0  0  0  0  0  0  0  0  0
  -22.0494   -6.1147   22.5803 C   0  0  0  0  0  0  0  0  0  0  0  0
  -23.2233   -4.0946   24.1048 C   0  0  0  0  0  0  0  0  0  0  0  0
  -21.4785   -5.7370   23.7957 C   0  0  0  0  0  0  0  0  0  0  0  0
  -24.5377  -11.6592   20.7239 C   0  0  0  0  0  0  0  0  0  0  0  0
  -25.2381  -13.7244   20.4425 C   0  0  0  0  0  0  0  0  0  0  0  0
  -22.8586  -13.5513   21.1886 C   0  0  0  0  0  0  0  0  0  0  0  0
  -35.9620  -27.3647   20.7911 C   0  0  0  0  0  0  0  0  0  0  0  0
  -32.7936  -26.9807   20.2116 C   0  0  0  0  0  0  0  0  0  0  0  0
  -30.0937  -24.8945   20.1382 C   0  0  0  0  0  0  0  0  0  0  0  0
  -30.7156  -14.6952   20.6828 C   0  0  0  0  0  0  0  0  0  0  0  0
  -36.0070  -32.4614   21.0738 C   0  0  0  0  0  0  0  0  0  0  0  0
  -35.9713  -25.3767   19.2408 C   0  0  0  0  0  0  0  0  0  0  0  0
  -33.9632  -25.0820   21.3915 C   0  0  0  0  0  0  0  0  0  0  0  0
  -35.1254  -31.3450   21.6276 C   0  0  0  0  0  0  0  0  0  0  0  0
  -29.6069  -12.2210   18.3748 C   0  0  0  0  0  0  0  0  0  0  0  0
  -35.9809  -30.2601   22.2740 C   0  0  0  0  0  0  0  0  0  0  0  0
  -28.1556  -11.9649   18.7873 C   0  0  0  0  0  0  0  0  0  0  0  0
  -30.5039  -12.4760   19.5849 C   0  0  0  0  0  0  0  0  0  0  0  0
  -28.5839  -13.2734   20.9066 C   0  0  0  0  0  0  0  0  0  0  0  0
  -36.9209  -29.6146   21.2486 C   0  0  1  0  0  0  0  0  0  0  0  0
  -35.1879  -26.5708   19.7772 C   0  0  1  0  0  0  0  0  0  0  0  0
  -27.6297  -13.0756   19.7175 C   0  0  2  0  0  0  0  0  0  0  0  0
  -29.5673  -19.3360   24.6883 C   0  0  0  0  0  0  0  0  0  0  0  0
  -27.6300  -24.8772   19.6615 C   0  0  0  0  0  0  0  0  0  0  0  0
  -32.2666  -28.3251   22.8995 C   0  0  0  0  0  0  0  0  0  0  0  0
  -29.9273  -27.4380   22.8058 C   0  0  0  0  0  0  0  0  0  0  0  0
  -30.7261  -29.0310   21.0603 C   0  0  0  0  0  0  0  0  0  0  0  0
  -30.4166  -22.9497   17.9308 C   0  0  0  0  0  0  0  0  0  0  0  0
  -34.1190  -17.4633   23.6027 C   0  0  0  0  0  0  0  0  0  0  0  0
  -36.2702  -18.6411   23.1298 C   0  0  0  0  0  0  0  0  0  0  0  0
  -36.8481  -19.8182   22.3690 C   0  0  0  0  0  0  0  0  0  1  0  0
  -31.5846  -26.6530   21.0543 C   0  0  1  0  0  0  0  0  0  0  0  0
  -29.0224  -24.6702   19.0863 C   0  0  2  0  0  0  0  0  0  0  0  0
  -31.1484  -27.8441   21.9534 C   0  0  0  0  0  0  0  0  0  0  0  0
  -25.8082  -11.5311   20.3322 N   0  0  0  0  0  0  0  0  0  0  0  0
  -26.2068  -12.8041   20.1689 N   0  0  0  0  0  0  0  0  0  0  0  0
  -33.9274  -26.1807   20.4122 N   0  0  0  0  0  0  0  0  0  0  0  0
  -29.9451  -13.5433   20.4177 N   0  0  0  0  0  0  0  0  0  0  0  0
  -32.4240  -19.3016   25.0299 N   0  0  0  0  0  0  0  0  0  0  0  0
  -25.4700  -15.0495   20.3298 N   0  0  0  0  0  0  0  0  0  0  0  0
  -21.8272  -12.6686   21.5368 N   0  0  0  0  0  0  0  0  0  0  0  0
  -30.0679  -15.6561   21.4585 N   0  0  0  0  0  0  0  0  0  0  0  0
  -36.1963  -28.6750   20.4200 N   0  0  0  0  0  0  0  0  0  0  0  0
  -30.5543  -26.1941   20.1289 N   0  0  0  0  0  0  0  0  0  0  0  0
  -29.1072  -23.2829   18.5483 N   0  3  0  0  0  0  0  0  0  0  0  0
  -34.8003  -18.5992   22.9250 N   0  3  0  0  0  0  0  0  0  0  0  0
  -22.6402  -14.7864   21.2012 O   0  0  0  0  0  0  0  0  0  0  0  0
  -36.3189  -26.8287   21.8337 O   0  0  0  0  0  0  0  0  0  0  0  0
  -32.7318  -27.9077   19.4001 O   0  0  0  0  0  0  0  0  0  0  0  0
  -30.4804  -24.0067   20.8950 O   0  0  0  0  0  0  0  0  0  0  0  0
  -31.8553  -14.8318   20.2306 O   0  0  0  0  0  0  0  0  0  0  0  0
  -21.4674   -7.1166   21.8220 O   0  0  0  0  0  0  0  0  0  0  0  0
  -36.2794  -21.0308   22.8615 O   0  0  0  0  0  0  0  0  0  1  0  0
  -23.7862   -3.1237   24.8360 F   0  0  0  0  0  0  0  0  0  0  0  0
  -20.3656   -6.3401   24.2356 F   0  0  0  0  0  0  0  0  0  0  0  0
  1  2  1  0  0  0  0
  1  5  2  0  0  0  0
  2  6  2  0  0  0  0
  3  8  2  0  0  0  0
  3 17  1  0  0  0  0
  4  9  1  0  0  0  0
  4 17  2  0  0  0  0
  5 19  1  0  0  0  0
  6 21  1  0  0  0  0
  7 10  2  0  0  0  0
  7 20  1  0  0  0  0
  8 27  1  0  0  0  0
  9 27  2  0  0  0  0
 10 28  1  0  0  0  0
 11 12  2  0  0  0  0
 11 29  1  0  0  0  0
 12 30  1  0  0  0  0
 13 22  1  0  0  0  0
 13 28  2  0  0  0  0
 14 23  2  0  0  0  0
 14 25  1  0  0  0  0
 15 24  1  0  0  0  0
 15 25  2  0  0  0  0
 16 30  2  0  0  0  0
 16 31  1  0  0  0  0
 17 32  1  0  0  0  0
 18 32  1  0  0  0  0
 18 33  2  0  0  0  0
 18 34  1  0  0  0  0
 19 21  2  0  0  0  0
 19 39  1  0  0  0  0
 20 22  2  0  0  0  0
 20 40  1  0  0  0  0
 21 48  1  0  0  0  0
 22 41  1  0  0  0  0
 23 26  1  0  0  0  0
 23 51  1  0  0  0  0
 24 26  2  0  0  0  0
 24 57  1  0  0  0  0
 25 70  1  0  0  0  0
 26 67  1  0  0  0  0
 27 80  1  0  0  0  0
 28 81  1  0  0  0  0
 29 31  2  0  0  0  0
 29 80  1  0  0  0  0
 30 82  1  0  0  0  0
 31 83  1  0  0  0  0
 32 63  2  0  0  0  0
 33 64  1  0  0  0  0
 33 68  1  0  0  0  0
 34 69  1  0  0  0  0
 34 75  2  0  0  0  0
 35 49  1  0  0  0  0
 35 71  1  0  0  0  0
 35 76  2  0  0  0  0
 36 60  1  0  0  0  0
 36 65  1  0  0  0  0
 36 77  2  0  0  0  0
 37 61  1  0  0  0  0
 37 72  1  0  0  0  0
 37 78  2  0  0  0  0
 38 66  1  0  0  0  0
 38 70  1  0  0  0  0
 38 79  2  0  0  0  0
 39 42  1  0  0  0  0
 40 49  1  0  0  0  0
 41 65  1  0  0  0  0
 42 44  1  0  0  0  0
 43 45  1  0  0  0  0
 43 46  1  0  0  0  0
 44 48  1  0  0  0  0
 45 50  1  0  0  0  0
 46 66  1  0  0  0  0
 47 50  1  0  0  0  0
 47 66  1  0  0  0  0
 48 71  1  0  0  0  0
 49 65  1  0  0  0  0
 50 64  1  0  0  0  0
 52 61  1  0  0  0  0
 53 62  1  0  0  0  0
 54 62  1  0  0  0  0
 55 62  1  0  0  0  0
 56 73  1  0  0  0  0
 57 74  1  0  0  0  0
 58 59  1  0  0  0  0
 58 74  1  0  0  0  0
 59 81  1  0  0  0  0
 60 62  1  0  0  0  0
 60 72  1  0  0  0  0
 61 73  1  0  0  0  0
 63 64  1  0  0  0  0
M  CHG  2  73   1  74   1
M  ISO  4  38 100  59 101  70 100  81 101
M  END
> <Batch ID>
0035

> <Smiles>
CNC(C)C(=O)NC(C(=O)N1Cc2cc([101O:1][101CH2:1]CNCc3cc([100NH:0][100C:0](=O)N4CCCC(n5nc(-c6ccc(Oc7ccc(F)cc7F)cc6)c(C(N)=O)c5N)C4)cc(C)c3N)ccc2CC1C(=O)NC1CCCc2ccccc21)C(C)(C)C

> <Shape>
0.223

> <Color>
0.190

> <Negative vol penalty>
0.000

$$$$

  -OEChem-04042321513D

 88 97  0     1  0  0  0  0  0999 V2000
  -25.6219  -15.9620   15.7708 C   0  0  0  0  0  0  0  0  0  0  0  0
  -25.7812  -16.1204   17.1438 C   0  0  0  0  0  0  0  0  0  0  0  0
  -23.3848  -10.0443   22.2339 C   0  0  0  0  0  0  0  0  0  0  0  0
  -23.5092   -9.6359   19.8559 C   0  0  0  0  0  0  0  0  0  0  0  0
  -26.3582  -16.7521   14.8891 C   0  0  0  0  0  0  0  0  0  0  0  0
  -26.6778  -17.0682   17.6357 C   0  0  0  0  0  0  0  0  0  0  0  0
  -26.0662  -20.4221   22.7233 C   0  0  0  0  0  0  0  0  0  0  0  0
  -31.9980  -18.8372   23.3704 C   0  0  0  0  0  0  0  0  0  0  0  0
  -31.7785  -18.7659   21.9948 C   0  0  0  0  0  0  0  0  0  0  0  0
  -22.6154   -8.8916   22.3916 C   0  0  0  0  0  0  0  0  0  0  0  0
  -22.7399   -8.4832   20.0136 C   0  0  0  0  0  0  0  0  0  0  0  0
  -26.5822  -20.2767   24.0103 C   0  0  0  0  0  0  0  0  0  0  0  0
  -19.4766   -7.7036   20.4310 C   0  0  0  0  0  0  0  0  0  0  0  0
  -18.4359   -7.4904   19.5271 C   0  0  0  0  0  0  0  0  0  0  0  0
  -28.3823  -21.7824   23.4522 C   0  0  0  0  0  0  0  0  0  0  0  0
  -19.4627   -5.4160   18.8344 C   0  0  0  0  0  0  0  0  0  0  0  0
  -23.8316  -10.4165   20.9661 C   0  0  0  0  0  0  0  0  0  0  0  0
  -24.2565  -12.9268   21.1260 C   0  0  0  0  0  0  0  0  0  0  0  0
  -27.2571  -17.7168   15.3705 C   0  0  0  0  0  0  0  0  0  0  0  0
  -26.7116  -21.2416   21.7861 C   0  0  0  0  0  0  0  0  0  0  0  0
  -27.4278  -17.8711   16.7596 C   0  0  0  0  0  0  0  0  0  0  0  0
  -27.8711  -21.9385   22.1548 C   0  0  0  0  0  0  0  0  0  0  0  0
  -31.6515  -17.7619   24.1887 C   0  0  0  0  0  0  0  0  0  0  0  0
  -31.2123  -17.6195   21.4374 C   0  0  0  0  0  0  0  0  0  0  0  0
  -31.0854  -16.6155   23.6312 C   0  0  0  0  0  0  0  0  0  0  0  0
  -30.8658  -16.5442   22.2556 C   0  0  0  0  0  0  0  0  0  0  0  0
  -22.2930   -8.1110   21.2815 C   0  0  0  0  0  0  0  0  0  0  0  0
  -27.7420  -20.9546   24.3740 C   0  0  0  0  0  0  0  0  0  0  0  0
  -20.5104   -6.7731   20.5366 C   0  0  0  0  0  0  0  0  0  0  0  0
  -18.4290   -6.3465   18.7288 C   0  0  0  0  0  0  0  0  0  0  0  0
  -20.5035   -5.6293   19.7383 C   0  0  0  0  0  0  0  0  0  0  0  0
  -24.6259  -11.6075   20.8024 C   0  0  0  0  0  0  0  0  0  0  0  0
  -25.3506  -13.6835   20.7840 C   0  0  0  0  0  0  0  0  0  0  0  0
  -23.0337  -13.4239   21.6857 C   0  0  0  0  0  0  0  0  0  0  0  0
  -28.0867  -20.7652   18.9602 C   0  0  0  0  0  0  0  0  0  0  0  0
  -28.3199  -24.0006   18.9650 C   0  0  0  0  0  0  0  0  0  0  0  0
  -29.1473  -26.5776   21.3507 C   0  0  0  0  0  0  0  0  0  0  0  0
  -30.8514  -14.5441   20.7240 C   0  0  0  0  0  0  0  0  0  0  0  0
  -28.0658  -18.5147   14.3785 C   0  0  0  0  0  0  0  0  0  0  0  0
  -26.1273  -21.4088   20.4102 C   0  0  0  0  0  0  0  0  0  0  0  0
  -28.5904  -22.8464   21.1921 C   0  0  0  0  0  0  0  0  0  0  0  0
  -28.7188  -19.7553   14.9825 C   0  0  0  0  0  0  0  0  0  0  0  0
  -28.1192  -17.7826   27.9111 C   0  0  0  0  0  0  0  0  0  0  0  0
  -29.5068  -12.4682   18.1628 C   0  0  0  0  0  0  0  0  0  0  0  0
  -29.3940  -19.4120   16.3065 C   0  0  0  0  0  0  0  0  0  0  0  0
  -28.0867  -12.1678   18.6478 C   0  0  0  0  0  0  0  0  0  0  0  0
  -27.7523  -19.0994   27.2304 C   0  0  0  0  0  0  0  0  0  0  0  0
  -29.4329  -17.8730   28.6858 C   0  0  0  0  0  0  0  0  0  0  0  0
  -30.5018  -12.5234   19.3206 C   0  0  0  0  0  0  0  0  0  0  0  0
  -28.7109  -13.1289   20.9003 C   0  0  0  0  0  0  0  0  0  0  0  0
  -30.1231  -19.5115   26.3043 C   0  0  0  0  0  0  0  0  0  0  0  0
  -28.3724  -18.9057   17.3319 C   0  0  1  0  0  0  0  0  0  0  0  0
  -27.1527  -21.8658   19.3772 C   0  0  1  0  0  0  0  0  0  0  0  0
  -27.6618  -13.1276   19.7764 C   0  0  2  0  0  0  0  0  0  0  0  0
  -28.6212  -19.4943   26.0369 C   0  0  2  0  0  0  0  0  0  1  0  0
  -30.7095  -17.5741   27.8847 C   0  0  2  0  0  0  0  0  0  0  0  0
  -30.9890  -17.5736   19.9603 C   0  0  0  0  0  0  0  0  0  0  0  0
  -30.7147  -15.4660   24.5155 C   0  0  0  0  0  0  0  0  0  0  0  0
  -31.9417  -18.0984   28.6240 C   0  0  0  0  0  0  0  0  0  0  0  0
  -28.4571  -28.9881   21.4536 C   0  0  0  0  0  0  0  0  0  0  0  0
  -30.9296  -24.5111   17.4687 C   0  0  0  0  0  0  0  0  0  0  0  0
  -31.2333  -26.5798   18.8458 C   0  0  0  0  0  0  0  0  0  0  0  0
  -29.2649  -26.3721   17.3275 C   0  0  0  0  0  0  0  0  0  0  0  0
  -28.0868  -26.2771   24.0974 C   0  0  0  0  0  0  0  0  0  0  0  0
  -31.8984  -17.8655   25.6649 C   0  0  0  0  0  0  0  0  0  0  0  0
  -29.3451  -24.9979   19.4482 C   0  0  1  0  0  0  0  0  0  0  0  0
  -28.1930  -27.5825   21.9705 C   0  0  2  0  0  0  0  0  0  0  0  0
  -30.1901  -25.5899   18.2850 C   0  0  0  0  0  0  0  0  0  0  0  0
  -25.8584  -11.5272   20.2938 N   0  0  0  0  0  0  0  0  0  0  0  0
  -26.2728  -12.8056   20.2951 N   0  0  0  0  0  0  0  0  0  0  0  0
  -27.9836  -22.9722   19.8566 N   0  0  0  0  0  0  0  0  0  0  0  0
  -30.0355  -13.4556   20.3494 N   0  0  0  0  0  0  0  0  0  0  0  0
  -25.6041  -15.0074   20.8567 N   0  0  0  0  0  0  0  0  0  0  0  0
  -22.0057  -13.8054   20.8127 N   0  0  0  0  0  0  0  0  0  0  0  0
  -30.2894  -15.3811   21.6875 N   0  0  0  0  0  0  0  0  0  0  0  0
  -27.6299  -20.0131   17.8948 N   0  0  0  0  0  0  0  0  0  0  0  0
  -28.6122  -25.9944   20.2216 N   0  0  0  0  0  0  0  0  0  0  0  0
  -30.6367  -18.0983   26.4609 N   0  3  2  0  0  0  0  0  0  0  0  0
  -28.3416  -27.5914   23.4533 N   0  3  0  0  0  0  0  0  0  0  0  0
  -22.8639  -13.5423   22.9229 O   0  0  0  0  0  0  0  0  0  0  0  0
  -29.1443  -20.6107   19.5597 O   0  0  0  0  0  0  0  0  0  0  0  0
  -27.8301  -24.1334   17.8406 O   0  0  0  0  0  0  0  0  0  0  0  0
  -30.2578  -26.3371   21.8190 O   0  0  0  0  0  0  0  0  0  0  0  0
  -31.9549  -14.7361   20.2069 O   0  0  0  0  0  0  0  0  0  0  0  0
  -21.5425   -6.9859   21.4351 O   0  0  0  0  0  0  0  0  0  0  0  0
  -28.2482  -20.8139   25.6294 O   0  0  0  0  0  0  0  0  0  1  0  0
  -17.4287   -6.1411   17.8619 F   0  0  0  0  0  0  0  0  0  0  0  0
  -21.4933   -4.7312   19.8361 F   0  0  0  0  0  0  0  0  0  0  0  0
  1  2  1  0  0  0  0
  1  5  2  0  0  0  0
  2  6  2  0  0  0  0
  3 10  2  0  0  0  0
  3 17  1  0  0  0  0
  4 11  1  0  0  0  0
  4 17  2  0  0  0  0
  5 19  1  0  0  0  0
  6 21  1  0  0  0  0
  7 12  2  0  0  0  0
  7 20  1  0  0  0  0
  8  9  2  0  0  0  0
  8 23  1  0  0  0  0
  9 24  1  0  0  0  0
 10 27  1  0  0  0  0
 11 27  2  0  0  0  0
 12 28  1  0  0  0  0
 13 14  2  0  0  0  0
 13 29  1  0  0  0  0
 14 30  1  0  0  0  0
 15 22  1  0  0  0  0
 15 28  2  0  0  0  0
 16 30  2  0  0  0  0
 16 31  1  0  0  0  0
 17 32  1  0  0  0  0
 18 32  1  0  0  0  0
 18 33  2  0  0  0  0
 18 34  1  0  0  0  0
 19 21  2  0  0  0  0
 19 39  1  0  0  0  0
 20 22  2  0  0  0  0
 20 40  1  0  0  0  0
 21 52  1  0  0  0  0
 22 41  1  0  0  0  0
 23 25  2  0  0  0  0
 23 65  1  0  0  0  0
 24 26  2  0  0  0  0
 24 57  1  0  0  0  0
 25 26  1  0  0  0  0
 25 58  1  0  0  0  0
 26 75  1  0  0  0  0
 27 85  1  0  0  0  0
 28 86  1  0  0  0  0
 29 31  2  0  0  0  0
 29 85  1  0  0  0  0
 30 87  1  0  0  0  0
 31 88  1  0  0  0  0
 32 69  2  0  0  0  0
 33 70  1  0  0  0  0
 33 73  1  0  0  0  0
 34 74  1  0  0  0  0
 34 80  2  0  0  0  0
 35 53  1  0  0  0  0
 35 76  1  0  0  0  0
 35 81  2  0  0  0  0
 36 66  1  0  0  0  0
 36 71  1  0  0  0  0
 36 82  2  0  0  0  0
 37 67  1  0  0  0  0
 37 77  1  0  0  0  0
 37 83  2  0  0  0  0
 38 72  1  0  0  0  0
 38 75  1  0  0  0  0
 38 84  2  0  0  0  0
 39 42  1  0  0  0  0
 40 53  1  0  0  0  0
 41 71  1  0  0  0  0
 42 45  1  0  0  0  0
 43 47  1  0  0  0  0
 43 48  1  0  0  0  0
 44 46  1  0  0  0  0
 44 49  1  0  0  0  0
 45 52  1  0  0  0  0
 46 54  1  0  0  0  0
 47 55  1  0  0  0  0
 48 56  1  0  0  0  0
 49 72  1  0  0  0  0
 50 54  1  0  0  0  0
 50 72  1  0  0  0  0
 51 55  1  0  0  0  0
 51 78  1  0  0  0  0
 52 76  1  0  0  0  0
 53 71  1  0  0  0  0
 54 70  1  0  0  0  0
 55 86  1  0  0  0  0
 56 59  1  0  0  0  0
 56 78  1  0  0  0  0
 60 67  1  0  0  0  0
 61 68  1  0  0  0  0
 62 68  1  0  0  0  0
 63 68  1  0  0  0  0
 64 79  1  0  0  0  0
 65 78  1  0  0  0  0
 66 68  1  0  0  0  0
 66 77  1  0  0  0  0
 67 79  1  0  0  0  0
 69 70  1  0  0  0  0
M  CHG  2  78   1  79   1
M  ISO  4  38 100  55 101  75 100  86 101
M  END
> <Batch ID>
0035

> <Smiles>
CNC(C)C(=O)NC(C(=O)N1Cc2cc([101O:1][101CH:1]3CCCC(C)N(Cc4ccc(C)c([100NH:0][100C:0](=O)N5CCCC(n6nc(-c7ccc(Oc8ccc(F)cc8F)cc7)c(C(N)=O)c6N)C5)c4C)C3)ccc2CC1C(=O)NC1CCCc2ccccc21)C(C)(C)C

> <Shape>
0.236

> <Color>
0.169

> <Negative vol penalty>
0.000

$$$$

  -OEChem-04042321513D

 91100  0     1  0  0  0  0  0999 V2000
  -31.1136  -24.9413   18.8131 C   0  0  0  0  0  0  0  0  0  0  0  0
  -29.7244  -24.9216   18.7407 C   0  0  0  0  0  0  0  0  0  0  0  0
  -27.0081  -16.4684   21.4624 C   0  0  0  0  0  0  0  0  0  0  0  0
  -27.0127  -15.6338   19.1951 C   0  0  0  0  0  0  0  0  0  0  0  0
  -31.7455  -25.5514   19.8958 C   0  0  0  0  0  0  0  0  0  0  0  0
  -28.9663  -25.5112   19.7517 C   0  0  0  0  0  0  0  0  0  0  0  0
  -23.6177  -28.4264   19.1186 C   0  0  0  0  0  0  0  0  0  0  0  0
  -28.2661  -17.0347   21.2566 C   0  0  0  0  0  0  0  0  0  0  0  0
  -28.2707  -16.2002   18.9893 C   0  0  0  0  0  0  0  0  0  0  0  0
  -22.2987  -28.0194   19.3144 C   0  0  0  0  0  0  0  0  0  0  0  0
  -29.5449  -19.7883   19.7681 C   0  0  0  0  0  0  0  0  0  0  0  0
  -29.7499  -21.0928   20.2174 C   0  0  0  0  0  0  0  0  0  0  0  0
  -22.3432  -28.9636   21.5338 C   0  0  0  0  0  0  0  0  0  0  0  0
  -17.5429  -19.7574   20.0985 C   0  0  0  0  0  0  0  0  0  0  0  0
  -31.5234  -20.3164   21.6627 C   0  0  0  0  0  0  0  0  0  0  0  0
  -26.3814  -15.7679   20.4317 C   0  0  0  0  0  0  0  0  0  0  0  0
  -24.7345  -14.2082   21.5990 C   0  0  0  0  0  0  0  0  0  0  0  0
  -30.9949  -26.1573   20.9157 C   0  0  0  0  0  0  0  0  0  0  0  0
  -24.3141  -29.0965   20.1347 C   0  0  0  0  0  0  0  0  0  0  0  0
  -29.5887  -26.1289   20.8497 C   0  0  0  0  0  0  0  0  0  0  0  0
  -23.6702  -29.3802   21.3475 C   0  0  0  0  0  0  0  0  0  0  0  0
  -17.8232  -20.2828   22.8240 C   0  0  0  0  0  0  0  0  0  0  0  0
  -18.6499  -19.3446   22.2058 C   0  0  0  0  0  0  0  0  0  0  0  0
  -16.8564  -20.9584   22.0793 C   0  0  0  0  0  0  0  0  0  0  0  0
  -18.5097  -19.0819   20.8431 C   0  0  0  0  0  0  0  0  0  0  0  0
  -28.8974  -16.9007   20.0200 C   0  0  0  0  0  0  0  0  0  0  0  0
  -21.6622  -28.2854   20.5232 C   0  0  0  0  0  0  0  0  0  0  0  0
  -30.3290  -18.7478   20.2662 C   0  0  0  0  0  0  0  0  0  0  0  0
  -30.7391  -21.3569   21.1646 C   0  0  0  0  0  0  0  0  0  0  0  0
  -31.3183  -19.0118   21.2135 C   0  0  0  0  0  0  0  0  0  0  0  0
  -16.7162  -20.6957   20.7166 C   0  0  0  0  0  0  0  0  0  0  0  0
  -25.0822  -15.1822   20.6439 C   0  0  0  0  0  0  0  0  0  0  0  0
  -23.3941  -13.9896   21.3942 C   0  0  0  0  0  0  0  0  0  0  0  0
  -25.5503  -13.5591   22.5833 C   0  0  0  0  0  0  0  0  0  0  0  0
  -26.9231  -28.4863   21.8448 C   0  0  0  0  0  0  0  0  0  0  0  0
  -26.4223  -31.4911   22.9594 C   0  0  0  0  0  0  0  0  0  0  0  0
  -24.2277  -34.0420   23.5280 C   0  0  0  0  0  0  0  0  0  0  0  0
  -19.0161  -17.3424   19.0927 C   0  0  0  0  0  0  0  0  0  0  0  0
  -31.7219  -26.7631   22.0900 C   0  0  0  0  0  0  0  0  0  0  0  0
  -25.7278  -29.5525   19.8979 C   0  0  0  0  0  0  0  0  0  0  0  0
  -24.3671  -30.1146   22.4625 C   0  0  0  0  0  0  0  0  0  0  0  0
  -30.8516  -27.6934   22.9311 C   0  0  0  0  0  0  0  0  0  0  0  0
  -20.0583  -14.1314   17.9611 C   0  0  0  0  0  0  0  0  0  0  0  0
  -16.7588  -24.8475   25.0667 C   0  0  0  0  0  0  0  0  0  0  0  0
  -29.4991  -27.0477   23.2148 C   0  0  0  0  0  0  0  0  0  0  0  0
  -21.4306  -13.9453   18.6124 C   0  0  0  0  0  0  0  0  0  0  0  0
  -17.2987  -25.8440   24.0457 C   0  0  0  0  0  0  0  0  0  0  0  0
  -19.8234  -15.5803   17.5376 C   0  0  0  0  0  0  0  0  0  0  0  0
  -15.9505  -23.7393   24.3883 C   0  0  0  0  0  0  0  0  0  0  0  0
  -21.4009  -16.3913   19.2473 C   0  0  0  0  0  0  0  0  0  0  0  0
  -17.2028  -23.9935   22.3247 C   0  0  0  0  0  0  0  0  0  0  0  0
  -28.7322  -26.7794   21.9143 C   0  0  1  0  0  0  0  0  0  0  0  0
  -26.5086  -29.7734   21.1898 C   0  0  1  0  0  0  0  0  0  0  0  0
  -21.6572  -14.9610   19.7494 C   0  0  2  0  0  0  0  0  0  0  0  0
  -18.0537  -25.1021   22.9477 C   0  0  1  0  0  0  0  0  0  0  0  0
  -17.9747  -20.5637   24.2860 C   0  0  0  0  0  0  0  0  0  0  0  0
  -19.6870  -18.6206   23.0066 C   0  0  0  0  0  0  0  0  0  0  0  0
  -24.1047  -36.3580   24.4864 C   0  0  0  0  0  0  0  0  0  0  0  0
  -18.8139  -27.0715   19.0720 C   0  0  0  0  0  0  0  0  0  0  0  0
  -26.5193  -30.3271   25.7782 C   0  0  0  0  0  0  0  0  0  0  0  0
  -25.4677  -32.4407   26.6121 C   0  0  0  0  0  0  0  0  0  0  0  0
  -27.7048  -32.5128   25.5108 C   0  0  0  0  0  0  0  0  0  0  0  0
  -23.3694  -35.1928   20.9399 C   0  0  0  0  0  0  0  0  0  0  0  0
  -15.9734  -21.9657   22.7575 C   0  0  0  0  0  0  0  0  0  0  0  0
  -19.5839  -25.6444   21.0505 C   0  0  0  0  0  0  0  0  0  0  0  0
  -25.6452  -32.0901   24.1067 C   0  0  1  0  0  0  0  0  0  0  0  0
  -24.3111  -35.5280   23.2289 C   0  0  2  0  0  0  0  0  0  0  0  0
  -19.9459  -26.7157   20.0270 C   0  0  2  0  0  0  0  0  0  1  0  0
  -26.3215  -31.8271   25.4819 C   0  0  0  0  0  0  0  0  0  0  0  0
  -24.0462  -15.5565   19.8885 N   0  0  0  0  0  0  0  0  0  0  0  0
  -23.0344  -14.8137   20.3687 N   0  0  0  0  0  0  0  0  0  0  0  0
  -25.7507  -30.5344   22.1852 N   0  0  0  0  0  0  0  0  0  0  0  0
  -20.0523  -16.4848   18.6665 N   0  0  0  0  0  0  0  0  0  0  0  0
  -16.7452  -23.0529   23.3593 N   0  0  2  0  0  0  0  0  0  0  0  0
  -22.4998  -13.1748   21.9931 N   0  0  0  0  0  0  0  0  0  0  0  0
  -26.1992  -12.3673   22.2328 N   0  0  0  0  0  0  0  0  0  0  0  0
  -19.3388  -18.1329   20.1952 N   0  0  0  0  0  0  0  0  0  0  0  0
  -28.1435  -28.0029   21.4131 N   0  0  0  0  0  0  0  0  0  0  0  0
  -25.4699  -33.5028   23.7875 N   0  0  0  0  0  0  0  0  0  0  0  0
  -18.4352  -26.0724   21.8871 N   0  3  0  0  0  0  0  0  0  0  0  0
  -23.2711  -35.9153   22.2342 N   0  3  0  0  0  0  0  0  0  0  0  0
  -25.6862  -14.0136   23.7446 O   0  0  0  0  0  0  0  0  0  0  0  0
  -26.1907  -27.9707   22.6810 O   0  0  0  0  0  0  0  0  0  0  0  0
  -27.5800  -31.8638   22.7533 O   0  0  0  0  0  0  0  0  0  0  0  0
  -23.1663  -33.4224   23.5346 O   0  0  0  0  0  0  0  0  0  0  0  0
  -17.9139  -17.3537   18.5387 O   0  0  0  0  0  0  0  0  0  0  0  0
  -30.1248  -17.4533   19.8187 O   0  0  0  0  0  0  0  0  0  0  0  0
  -20.3750  -27.8887   20.7172 O   0  0  0  0  0  0  0  0  0  1  0  0
  -30.9370  -22.6099   21.5947 F   0  0  0  0  0  0  0  0  0  0  0  0
  -32.0756  -18.0165   21.6948 F   0  0  0  0  0  0  0  0  0  0  0  0
  -15.5320  -21.5102   19.7597 Cl  0  0  0  0  0  0  0  0  0  0  0  0
  1  2  1  0  0  0  0
  1  5  2  0  0  0  0
  2  6  2  0  0  0  0
  3  8  2  0  0  0  0
  3 16  1  0  0  0  0
  4  9  1  0  0  0  0
  4 16  2  0  0  0  0
  5 18  1  0  0  0  0
  6 20  1  0  0  0  0
  7 10  2  0  0  0  0
  7 19  1  0  0  0  0
  8 26  1  0  0  0  0
  9 26  2  0  0  0  0
 10 27  1  0  0  0  0
 11 12  2  0  0  0  0
 11 28  1  0  0  0  0
 12 29  1  0  0  0  0
 13 21  1  0  0  0  0
 13 27  2  0  0  0  0
 14 25  1  0  0  0  0
 14 31  2  0  0  0  0
 15 29  2  0  0  0  0
 15 30  1  0  0  0  0
 16 32  1  0  0  0  0
 17 32  1  0  0  0  0
 17 33  2  0  0  0  0
 17 34  1  0  0  0  0
 18 20  2  0  0  0  0
 18 39  1  0  0  0  0
 19 21  2  0  0  0  0
 19 40  1  0  0  0  0
 20 52  1  0  0  0  0
 21 41  1  0  0  0  0
 22 23  1  0  0  0  0
 22 24  2  0  0  0  0
 22 56  1  0  0  0  0
 23 25  2  0  0  0  0
 23 57  1  0  0  0  0
 24 31  1  0  0  0  0
 24 64  1  0  0  0  0
 25 77  1  0  0  0  0
 26 87  1  0  0  0  0
 27 88  1  0  0  0  0
 28 30  2  0  0  0  0
 28 87  1  0  0  0  0
 29 89  1  0  0  0  0
 30 90  1  0  0  0  0
 31 91  1  0  0  0  0
 32 70  2  0  0  0  0
 33 71  1  0  0  0  0
 33 75  1  0  0  0  0
 34 76  1  0  0  0  0
 34 82  2  0  0  0  0
 35 53  1  0  0  0  0
 35 78  1  0  0  0  0
 35 83  2  0  0  0  0
 36 66  1  0  0  0  0
 36 72  1  0  0  0  0
 36 84  2  0  0  0  0
 37 67  1  0  0  0  0
 37 79  1  0  0  0  0
 37 85  2  0  0  0  0
 38 73  1  0  0  0  0
 38 77  1  0  0  0  0
 38 86  2  0  0  0  0
 39 42  1  0  0  0  0
 40 53  1  0  0  0  0
 41 72  1  0  0  0  0
 42 45  1  0  0  0  0
 43 46  1  0  0  0  0
 43 48  1  0  0  0  0
 44 47  1  0  0  0  0
 44 49  1  0  0  0  0
 45 52  1  0  0  0  0
 46 54  1  0  0  0  0
 47 55  1  0  0  0  0
 48 73  1  0  0  0  0
 49 74  1  0  0  0  0
 50 54  1  0  0  0  0
 50 73  1  0  0  0  0
 51 55  1  0  0  0  0
 51 74  1  0  0  0  0
 52 78  1  0  0  0  0
 53 72  1  0  0  0  0
 54 71  1  0  0  0  0
 55 80  1  0  0  0  0
 58 67  1  0  0  0  0
 59 68  1  0  0  0  0
 60 69  1  0  0  0  0
 61 69  1  0  0  0  0
 62 69  1  0  0  0  0
 63 81  1  0  0  0  0
 64 74  1  0  0  0  0
 65 68  1  0  0  0  0
 65 80  1  0  0  0  0
 66 69  1  0  0  0  0
 66 79  1  0  0  0  0
 67 81  1  0  0  0  0
 68 88  1  0  0  0  0
 70 71  1  0  0  0  0
M  CHG  2  80   1  81   1
M  ISO  4  38 100  68 101  77 100  88 101
M  END
> <Batch ID>
0035

> <Smiles>
CNC(C)C(=O)NC(C(=O)N1Cc2cc([101O:1][101CH:1](C)CNC3CCCN(Cc4c(Cl)cc([100NH:0][100C:0](=O)N5CCCC(n6nc(-c7ccc(Oc8ccc(F)cc8F)cc7)c(C(N)=O)c6N)C5)c(C)c4C)C3)ccc2CC1C(=O)NC1CCCc2ccccc21)C(C)(C)C

> <Shape>
0.258

> <Color>
0.076

> <Negative vol penalty>
0.000

$$$$

  -OEChem-04042321513D

 88 97  0     1  0  0  0  0  0999 V2000
  -16.4693  -29.4948   22.8251 C   0  0  0  0  0  0  0  0  0  0  0  0
  -17.3742  -30.4403   23.2971 C   0  0  0  0  0  0  0  0  0  0  0  0
  -27.2929  -16.1494   22.2361 C   0  0  0  0  0  0  0  0  0  0  0  0
  -26.9177  -17.5623   20.3126 C   0  0  0  0  0  0  0  0  0  0  0  0
  -16.9067  -28.2085   22.5121 C   0  0  0  0  0  0  0  0  0  0  0  0
  -18.7168  -30.0996   23.4574 C   0  0  0  0  0  0  0  0  0  0  0  0
  -25.2839  -32.9294   23.0312 C   0  0  0  0  0  0  0  0  0  0  0  0
  -27.2359  -15.0209   21.4183 C   0  0  0  0  0  0  0  0  0  0  0  0
  -26.8607  -16.4338   19.4947 C   0  0  0  0  0  0  0  0  0  0  0  0
  -26.4517  -33.0590   23.7817 C   0  0  0  0  0  0  0  0  0  0  0  0
  -29.2777  -13.3988   19.2658 C   0  0  0  0  0  0  0  0  0  0  0  0
  -30.2501  -12.4158   19.4490 C   0  0  0  0  0  0  0  0  0  0  0  0
  -27.1081  -30.8299   23.1339 C   0  0  0  0  0  0  0  0  0  0  0  0
  -29.1794  -27.6756   25.0403 C   0  0  0  0  0  0  0  0  0  0  0  0
  -28.5247  -10.8052   19.9650 C   0  0  0  0  0  0  0  0  0  0  0  0
  -27.1337  -17.4201   21.6833 C   0  0  0  0  0  0  0  0  0  0  0  0
  -28.2725  -19.0034   23.3277 C   0  0  0  0  0  0  0  0  0  0  0  0
  -18.2572  -27.8547   22.6595 C   0  0  0  0  0  0  0  0  0  0  0  0
  -25.0138  -31.7431   22.3340 C   0  0  0  0  0  0  0  0  0  0  0  0
  -19.1724  -28.8069   23.1474 C   0  0  0  0  0  0  0  0  0  0  0  0
  -25.9374  -30.6888   22.3732 C   0  0  0  0  0  0  0  0  0  0  0  0
  -28.6681  -27.9591   26.3067 C   0  0  0  0  0  0  0  0  0  0  0  0
  -28.5011  -26.7977   24.1947 C   0  0  0  0  0  0  0  0  0  0  0  0
  -27.4784  -27.3647   26.7275 C   0  0  0  0  0  0  0  0  0  0  0  0
  -26.8001  -26.4868   25.8820 C   0  0  0  0  0  0  0  0  0  0  0  0
  -27.3115  -26.2033   24.6155 C   0  0  0  0  0  0  0  0  0  0  0  0
  -27.0199  -15.1630   20.0476 C   0  0  0  0  0  0  0  0  0  0  0  0
  -27.3626  -32.0081   23.8355 C   0  0  0  0  0  0  0  0  0  0  0  0
  -27.9287  -13.0852   19.4323 C   0  0  0  0  0  0  0  0  0  0  0  0
  -29.8736  -11.1190   19.7986 C   0  0  0  0  0  0  0  0  0  0  0  0
  -27.5522  -11.7884   19.7819 C   0  0  0  0  0  0  0  0  0  0  0  0
  -27.1919  -18.5862   22.5276 C   0  0  0  0  0  0  0  0  0  0  0  0
  -27.8301  -20.1569   23.9278 C   0  0  0  0  0  0  0  0  0  0  0  0
  -29.5609  -18.4020   23.5118 C   0  0  0  0  0  0  0  0  0  0  0  0
  -22.7291  -29.5369   22.4617 C   0  0  0  0  0  0  0  0  0  0  0  0
  -24.2471  -28.3726   19.8421 C   0  0  0  0  0  0  0  0  0  0  0  0
  -27.6590  -27.8745   18.7799 C   0  0  0  0  0  0  0  0  0  0  0  0
  -25.2481  -25.0848   23.7003 C   0  0  0  0  0  0  0  0  0  0  0  0
  -18.6741  -26.4380   22.3532 C   0  0  0  0  0  0  0  0  0  0  0  0
  -23.7623  -31.6291   21.5074 C   0  0  0  0  0  0  0  0  0  0  0  0
  -25.7040  -29.4019   21.6263 C   0  0  0  0  0  0  0  0  0  0  0  0
  -20.1828  -26.2676   22.1958 C   0  0  0  0  0  0  0  0  0  0  0  0
  -23.2038  -22.2012   24.1270 C   0  0  0  0  0  0  0  0  0  0  0  0
  -20.9210  -26.9751   23.3278 C   0  0  0  0  0  0  0  0  0  0  0  0
  -24.1480  -21.0379   23.8148 C   0  0  0  0  0  0  0  0  0  0  0  0
  -29.5175  -33.2050   26.4868 C   0  0  0  0  0  0  0  0  0  0  0  0
  -30.8269  -32.4257   26.4469 C   0  0  0  0  0  0  0  0  0  0  0  0
  -23.4752  -23.4082   23.2308 C   0  0  0  0  0  0  0  0  0  0  0  0
  -25.8136  -22.7057   22.9030 C   0  0  0  0  0  0  0  0  0  0  0  0
  -28.2503  -31.0336   26.6825 C   0  0  0  0  0  0  0  0  0  0  0  0
  -20.6415  -28.4828   23.3112 C   0  0  1  0  0  0  0  0  0  0  0  0
  -23.3437  -30.1843   21.2531 C   0  0  1  0  0  0  0  0  0  0  0  0
  -25.6214  -21.4900   23.8243 C   0  0  2  0  0  0  0  0  0  0  0  0
  -28.3538  -32.3714   25.9654 C   0  0  2  0  0  0  0  0  0  1  0  0
  -30.7283  -31.0851   27.1845 C   0  0  2  0  0  0  0  0  0  0  0  0
  -29.0736  -26.5150   22.8433 C   0  0  0  0  0  0  0  0  0  0  0  0
  -26.9328  -27.6708   28.0864 C   0  0  0  0  0  0  0  0  0  0  0  0
  -25.5239  -25.8514   26.3386 C   0  0  0  0  0  0  0  0  0  0  0  0
  -32.0423  -30.3194   27.0415 C   0  0  0  0  0  0  0  0  0  0  0  0
  -28.6557  -27.7916   16.4784 C   0  0  0  0  0  0  0  0  0  0  0  0
  -23.8584  -25.3570   20.0970 C   0  0  0  0  0  0  0  0  0  0  0  0
  -26.0450  -25.0457   18.9179 C   0  0  0  0  0  0  0  0  0  0  0  0
  -24.1514  -26.1766   17.7524 C   0  0  0  0  0  0  0  0  0  0  0  0
  -29.6066  -30.0089   19.4204 C   0  0  0  0  0  0  0  0  0  0  0  0
  -29.4164  -28.9079   27.1958 C   0  0  0  0  0  0  0  0  0  0  0  0
  -25.3698  -27.3916   19.6048 C   0  0  1  0  0  0  0  0  0  0  0  0
  -28.3992  -28.6515   17.7062 C   0  0  2  0  0  0  0  0  0  0  0  0
  -24.8546  -26.0081   19.1169 C   0  0  0  0  0  0  0  0  0  0  0  0
  -26.1420  -19.4077   22.6099 N   0  0  0  0  0  0  0  0  0  0  0  0
  -26.5608  -20.3527   23.4689 N   0  0  0  0  0  0  0  0  0  0  0  0
  -24.4628  -29.3365   20.8372 N   0  0  0  0  0  0  0  0  0  0  0  0
  -24.8898  -23.7821   23.2939 N   0  0  0  0  0  0  0  0  0  0  0  0
  -28.4069  -21.0126   24.7981 N   0  0  0  0  0  0  0  0  0  0  0  0
  -30.6039  -18.7815   22.6559 N   0  0  0  0  0  0  0  0  0  0  0  0
  -26.6225  -25.3146   23.7534 N   0  0  0  0  0  0  0  0  0  0  0  0
  -21.4213  -29.1300   22.2780 N   0  0  0  0  0  0  0  0  0  0  0  0
  -26.2940  -28.0439   18.6836 N   0  0  0  0  0  0  0  0  0  0  0  0
  -29.5701  -30.2849   26.5954 N   0  3  1  0  0  0  0  0  0  0  0  0
  -29.7108  -29.1320   18.2258 N   0  3  0  0  0  0  0  0  0  0  0  0
  -29.7767  -17.5411   24.3983 O   0  0  0  0  0  0  0  0  0  0  0  0
  -23.3926  -29.4141   23.4845 O   0  0  0  0  0  0  0  0  0  0  0  0
  -23.2197  -28.2912   19.1644 O   0  0  0  0  0  0  0  0  0  0  0  0
  -28.2340  -27.1832   19.6178 O   0  0  0  0  0  0  0  0  0  0  0  0
  -24.3990  -25.9257   24.0066 O   0  0  0  0  0  0  0  0  0  0  0  0
  -26.9645  -14.0621   19.2493 O   0  0  0  0  0  0  0  0  0  0  0  0
  -28.5029  -32.1317   24.5678 O   0  0  0  0  0  0  0  0  0  1  0  0
  -30.8074  -10.1747   19.9729 F   0  0  0  0  0  0  0  0  0  0  0  0
  -26.2578  -11.4807   19.9420 F   0  0  0  0  0  0  0  0  0  0  0  0
  1  2  1  0  0  0  0
  1  5  2  0  0  0  0
  2  6  2  0  0  0  0
  3  8  2  0  0  0  0
  3 16  1  0  0  0  0
  4  9  1  0  0  0  0
  4 16  2  0  0  0  0
  5 18  1  0  0  0  0
  6 20  1  0  0  0  0
  7 10  2  0  0  0  0
  7 19  1  0  0  0  0
  8 27  1  0  0  0  0
  9 27  2  0  0  0  0
 10 28  1  0  0  0  0
 11 12  2  0  0  0  0
 11 29  1  0  0  0  0
 12 30  1  0  0  0  0
 13 21  1  0  0  0  0
 13 28  2  0  0  0  0
 14 22  1  0  0  0  0
 14 23  2  0  0  0  0
 15 30  2  0  0  0  0
 15 31  1  0  0  0  0
 16 32  1  0  0  0  0
 17 32  1  0  0  0  0
 17 33  2  0  0  0  0
 17 34  1  0  0  0  0
 18 20  2  0  0  0  0
 18 39  1  0  0  0  0
 19 21  2  0  0  0  0
 19 40  1  0  0  0  0
 20 51  1  0  0  0  0
 21 41  1  0  0  0  0
 22 24  2  0  0  0  0
 22 65  1  0  0  0  0
 23 26  1  0  0  0  0
 23 56  1  0  0  0  0
 24 25  1  0  0  0  0
 24 57  1  0  0  0  0
 25 26  2  0  0  0  0
 25 58  1  0  0  0  0
 26 75  1  0  0  0  0
 27 85  1  0  0  0  0
 28 86  1  0  0  0  0
 29 31  2  0  0  0  0
 29 85  1  0  0  0  0
 30 87  1  0  0  0  0
 31 88  1  0  0  0  0
 32 69  2  0  0  0  0
 33 70  1  0  0  0  0
 33 73  1  0  0  0  0
 34 74  1  0  0  0  0
 34 80  2  0  0  0  0
 35 52  1  0  0  0  0
 35 76  1  0  0  0  0
 35 81  2  0  0  0  0
 36 66  1  0  0  0  0
 36 71  1  0  0  0  0
 36 82  2  0  0  0  0
 37 67  1  0  0  0  0
 37 77  1  0  0  0  0
 37 83  2  0  0  0  0
 38 72  1  0  0  0  0
 38 75  1  0  0  0  0
 38 84  2  0  0  0  0
 39 42  1  0  0  0  0
 40 52  1  0  0  0  0
 41 71  1  0  0  0  0
 42 44  1  0  0  0  0
 43 45  1  0  0  0  0
 43 48  1  0  0  0  0
 44 51  1  0  0  0  0
 45 53  1  0  0  0  0
 46 47  1  0  0  0  0
 46 54  1  0  0  0  0
 47 55  1  0  0  0  0
 48 72  1  0  0  0  0
 49 53  1  0  0  0  0
 49 72  1  0  0  0  0
 50 54  1  0  0  0  0
 50 78  1  0  0  0  0
 51 76  1  0  0  0  0
 52 71  1  0  0  0  0
 53 70  1  0  0  0  0
 54 86  1  0  0  0  0
 55 59  1  0  0  0  0
 55 78  1  0  0  0  0
 60 67  1  0  0  0  0
 61 68  1  0  0  0  0
 62 68  1  0  0  0  0
 63 68  1  0  0  0  0
 64 79  1  0  0  0  0
 65 78  1  0  0  0  0
 66 68  1  0  0  0  0
 66 77  1  0  0  0  0
 67 79  1  0  0  0  0
 69 70  1  0  0  0  0
M  CHG  2  78   1  79   1
M  ISO  4  38 100  54 101  75 100  86 101
M  END
> <Batch ID>
0035

> <Smiles>
CNC(C)C(=O)NC(C(=O)N1Cc2cc([101O:1][101CH:1]3CCC(C)N(Cc4cc(C)c([100NH:0][100C:0](=O)N5CCCC(n6nc(-c7ccc(Oc8ccc(F)cc8F)cc7)c(C(N)=O)c6N)C5)c(C)c4C)C3)ccc2CC1C(=O)NC1CCCc2ccccc21)C(C)(C)C

> <Shape>
0.242

> <Color>
0.099

> <Negative vol penalty>
0.000

$$$$

  -OEChem-04042321513D

 87 96  0     1  0  0  0  0  0999 V2000
  -36.5775  -29.3132   18.1265 C   0  0  0  0  0  0  0  0  0  0  0  0
  -36.2819  -28.3109   19.0450 C   0  0  0  0  0  0  0  0  0  0  0  0
  -23.3633  -10.0958   22.1541 C   0  0  0  0  0  0  0  0  0  0  0  0
  -23.5477   -9.6742   19.7823 C   0  0  0  0  0  0  0  0  0  0  0  0
  -35.5865  -29.7819   17.2650 C   0  0  0  0  0  0  0  0  0  0  0  0
  -34.9949  -27.7776   19.1032 C   0  0  0  0  0  0  0  0  0  0  0  0
  -34.9990  -22.7234   19.4202 C   0  0  0  0  0  0  0  0  0  0  0  0
  -22.6073   -8.9329   22.3021 C   0  0  0  0  0  0  0  0  0  0  0  0
  -22.7918   -8.5113   19.9303 C   0  0  0  0  0  0  0  0  0  0  0  0
  -35.2794  -22.1638   20.6660 C   0  0  0  0  0  0  0  0  0  0  0  0
  -19.4160   -7.9531   21.7732 C   0  0  0  0  0  0  0  0  0  0  0  0
  -18.2668   -8.0239   22.5605 C   0  0  0  0  0  0  0  0  0  0  0  0
  -32.9209  -21.8158   21.0339 C   0  0  0  0  0  0  0  0  0  0  0  0
  -30.7763  -17.8624   24.5656 C   0  0  0  0  0  0  0  0  0  0  0  0
  -32.2431  -16.2753   22.8015 C   0  0  0  0  0  0  0  0  0  0  0  0
  -19.1725   -6.3373   24.0343 C   0  0  0  0  0  0  0  0  0  0  0  0
  -23.8335  -10.4664   20.8942 C   0  0  0  0  0  0  0  0  0  0  0  0
  -24.2181  -12.9837   21.0469 C   0  0  0  0  0  0  0  0  0  0  0  0
  -34.2892  -29.2473   17.3061 C   0  0  0  0  0  0  0  0  0  0  0  0
  -33.6744  -22.8436   18.9758 C   0  0  0  0  0  0  0  0  0  0  0  0
  -33.9853  -28.2405   18.2423 C   0  0  0  0  0  0  0  0  0  0  0  0
  -32.6264  -22.3750   19.7810 C   0  0  0  0  0  0  0  0  0  0  0  0
  -30.1178  -17.1019   23.5994 C   0  0  0  0  0  0  0  0  0  0  0  0
  -32.1683  -17.8295   24.6497 C   0  0  0  0  0  0  0  0  0  0  0  0
  -30.8512  -16.3083   22.7173 C   0  0  0  0  0  0  0  0  0  0  0  0
  -22.3216   -8.1407   21.1902 C   0  0  0  0  0  0  0  0  0  0  0  0
  -34.2401  -21.7126   21.4743 C   0  0  0  0  0  0  0  0  0  0  0  0
  -20.4435   -7.0743   22.1164 C   0  0  0  0  0  0  0  0  0  0  0  0
  -18.1450   -7.2161   23.6911 C   0  0  0  0  0  0  0  0  0  0  0  0
  -20.3217   -6.2665   23.2470 C   0  0  0  0  0  0  0  0  0  0  0  0
  -32.9017  -17.0359   23.7677 C   0  0  0  0  0  0  0  0  0  0  0  0
  -24.6139  -11.6679   20.7407 C   0  0  0  0  0  0  0  0  0  0  0  0
  -25.3086  -13.7540   20.7247 C   0  0  0  0  0  0  0  0  0  0  0  0
  -22.9758  -13.4664   21.5755 C   0  0  0  0  0  0  0  0  0  0  0  0
  -31.7804  -25.2758   18.2005 C   0  0  0  0  0  0  0  0  0  0  0  0
  -29.7500  -22.9054   17.3167 C   0  0  0  0  0  0  0  0  0  0  0  0
  -28.7133  -19.7043   18.6186 C   0  0  0  0  0  0  0  0  0  0  0  0
  -30.7963  -14.6947   20.7836 C   0  0  0  0  0  0  0  0  0  0  0  0
  -33.2389  -29.8191   16.3870 C   0  0  0  0  0  0  0  0  0  0  0  0
  -33.3904  -23.4251   17.6180 C   0  0  0  0  0  0  0  0  0  0  0  0
  -31.1885  -22.4625   19.3414 C   0  0  0  0  0  0  0  0  0  0  0  0
  -31.9983  -28.9390   16.2576 C   0  0  0  0  0  0  0  0  0  0  0  0
  -29.5406  -12.5831   18.2065 C   0  0  0  0  0  0  0  0  0  0  0  0
  -31.5316  -28.4690   17.6317 C   0  0  0  0  0  0  0  0  0  0  0  0
  -28.1143  -12.2650   18.6612 C   0  0  0  0  0  0  0  0  0  0  0  0
  -35.0496  -22.2970   24.7637 C   0  0  0  0  0  0  0  0  0  0  0  0
  -35.7946  -21.1323   25.4057 C   0  0  0  0  0  0  0  0  0  0  0  0
  -30.5081  -12.6602   19.3862 C   0  0  0  0  0  0  0  0  0  0  0  0
  -28.6732  -13.2494   20.9208 C   0  0  0  0  0  0  0  0  0  0  0  0
  -33.0066  -20.8379   24.5267 C   0  0  0  0  0  0  0  0  0  0  0  0
  -32.6074  -27.6194   18.3190 C   0  0  1  0  0  0  0  0  0  0  0  0
  -31.9708  -23.9679   17.4856 C   0  0  1  0  0  0  0  0  0  0  0  0
  -27.6500  -13.2256   19.7735 C   0  0  2  0  0  0  0  0  0  0  0  0
  -33.9473  -21.8106   23.8313 C   0  0  2  0  0  0  0  0  0  1  0  0
  -34.8486  -20.1610   26.1217 C   0  0  2  0  0  0  0  0  0  0  0  0
  -28.6259  -17.1582   23.5307 C   0  0  0  0  0  0  0  0  0  0  0  0
  -35.6435  -18.9793   26.6739 C   0  0  0  0  0  0  0  0  0  0  0  0
  -27.8697  -17.3943   18.1188 C   0  0  0  0  0  0  0  0  0  0  0  0
  -27.0020  -24.0774   17.9372 C   0  0  0  0  0  0  0  0  0  0  0  0
  -26.1880  -21.7521   18.3829 C   0  0  0  0  0  0  0  0  0  0  0  0
  -27.0189  -22.3671   16.1126 C   0  0  0  0  0  0  0  0  0  0  0  0
  -31.4276  -18.5429   18.8246 C   0  0  0  0  0  0  0  0  0  0  0  0
  -32.8387  -18.6625   25.7021 C   0  0  0  0  0  0  0  0  0  0  0  0
  -28.6708  -22.1086   18.0091 C   0  0  1  0  0  0  0  0  0  0  0  0
  -29.0604  -18.3383   18.0547 C   0  0  2  0  0  0  0  0  0  0  0  0
  -27.2421  -22.5869   17.6248 C   0  0  0  0  0  0  0  0  0  0  0  0
  -25.8586  -11.6023   20.2606 N   0  0  0  0  0  0  0  0  0  0  0  0
  -26.2544  -12.8867   20.2627 N   0  0  0  0  0  0  0  0  0  0  0  0
  -30.9616  -23.0447   18.0084 N   0  0  0  0  0  0  0  0  0  0  0  0
  -30.0051  -13.5920   20.3979 N   0  0  0  0  0  0  0  0  0  0  0  0
  -25.5412  -15.0820   20.7943 N   0  0  0  0  0  0  0  0  0  0  0  0
  -21.9614  -12.5392   21.8503 N   0  0  0  0  0  0  0  0  0  0  0  0
  -30.2006  -15.5294   21.7285 N   0  0  0  0  0  0  0  0  0  0  0  0
  -32.6235  -26.2814   17.7677 N   0  0  0  0  0  0  0  0  0  0  0  0
  -28.9354  -20.7078   17.6994 N   0  0  0  0  0  0  0  0  0  0  0  0
  -33.7916  -19.6845   25.1295 N   0  3  1  0  0  0  0  0  0  0  0  0
  -30.1836  -17.7308   18.8230 N   0  3  0  0  0  0  0  0  0  0  0  0
  -22.7656  -14.6857   21.7820 O   0  0  0  0  0  0  0  0  0  0  0  0
  -30.9306  -25.3661   19.0787 O   0  0  0  0  0  0  0  0  0  0  0  0
  -29.5287  -23.3805   16.2000 O   0  0  0  0  0  0  0  0  0  0  0  0
  -28.2843  -19.8647   19.7591 O   0  0  0  0  0  0  0  0  0  0  0  0
  -31.9084  -14.8995   20.2904 O   0  0  0  0  0  0  0  0  0  0  0  0
  -21.5841   -7.0058   21.3342 O   0  0  0  0  0  0  0  0  0  0  0  0
  -34.5110  -21.1666   22.6910 O   0  0  0  0  0  0  0  0  0  1  0  0
  -17.0420   -7.2853   24.4479 F   0  0  0  0  0  0  0  0  0  0  0  0
  -21.3060   -5.4211   23.5824 F   0  0  0  0  0  0  0  0  0  0  0  0
  -34.6250  -16.9701   23.8417 Cl  0  0  0  0  0  0  0  0  0  0  0  0
  1  2  1  0  0  0  0
  1  5  2  0  0  0  0
  2  6  2  0  0  0  0
  3  8  2  0  0  0  0
  3 17  1  0  0  0  0
  4  9  1  0  0  0  0
  4 17  2  0  0  0  0
  5 19  1  0  0  0  0
  6 21  1  0  0  0  0
  7 10  2  0  0  0  0
  7 20  1  0  0  0  0
  8 26  1  0  0  0  0
  9 26  2  0  0  0  0
 10 27  1  0  0  0  0
 11 12  2  0  0  0  0
 11 28  1  0  0  0  0
 12 29  1  0  0  0  0
 13 22  1  0  0  0  0
 13 27  2  0  0  0  0
 14 23  2  0  0  0  0
 14 24  1  0  0  0  0
 15 25  2  0  0  0  0
 15 31  1  0  0  0  0
 16 29  2  0  0  0  0
 16 30  1  0  0  0  0
 17 32  1  0  0  0  0
 18 32  1  0  0  0  0
 18 33  2  0  0  0  0
 18 34  1  0  0  0  0
 19 21  2  0  0  0  0
 19 39  1  0  0  0  0
 20 22  2  0  0  0  0
 20 40  1  0  0  0  0
 21 51  1  0  0  0  0
 22 41  1  0  0  0  0
 23 25  1  0  0  0  0
 23 56  1  0  0  0  0
 24 31  2  0  0  0  0
 24 63  1  0  0  0  0
 25 73  1  0  0  0  0
 26 83  1  0  0  0  0
 27 84  1  0  0  0  0
 28 30  2  0  0  0  0
 28 83  1  0  0  0  0
 29 85  1  0  0  0  0
 30 86  1  0  0  0  0
 31 87  1  0  0  0  0
 32 67  2  0  0  0  0
 33 68  1  0  0  0  0
 33 71  1  0  0  0  0
 34 72  1  0  0  0  0
 34 78  2  0  0  0  0
 35 52  1  0  0  0  0
 35 74  1  0  0  0  0
 35 79  2  0  0  0  0
 36 64  1  0  0  0  0
 36 69  1  0  0  0  0
 36 80  2  0  0  0  0
 37 65  1  0  0  0  0
 37 75  1  0  0  0  0
 37 81  2  0  0  0  0
 38 70  1  0  0  0  0
 38 73  1  0  0  0  0
 38 82  2  0  0  0  0
 39 42  1  0  0  0  0
 40 52  1  0  0  0  0
 41 69  1  0  0  0  0
 42 44  1  0  0  0  0
 43 45  1  0  0  0  0
 43 48  1  0  0  0  0
 44 51  1  0  0  0  0
 45 53  1  0  0  0  0
 46 47  1  0  0  0  0
 46 54  1  0  0  0  0
 47 55  1  0  0  0  0
 48 70  1  0  0  0  0
 49 53  1  0  0  0  0
 49 70  1  0  0  0  0
 50 54  1  0  0  0  0
 50 76  1  0  0  0  0
 51 74  1  0  0  0  0
 52 69  1  0  0  0  0
 53 68  1  0  0  0  0
 54 84  1  0  0  0  0
 55 57  1  0  0  0  0
 55 76  1  0  0  0  0
 58 65  1  0  0  0  0
 59 66  1  0  0  0  0
 60 66  1  0  0  0  0
 61 66  1  0  0  0  0
 62 77  1  0  0  0  0
 63 76  1  0  0  0  0
 64 66  1  0  0  0  0
 64 75  1  0  0  0  0
 65 77  1  0  0  0  0
 67 68  1  0  0  0  0
M  CHG  2  76   1  77   1
M  ISO  4  38 100  54 101  73 100  84 101
M  END
> <Batch ID>
0035

> <Smiles>
CNC(C)C(=O)NC(C(=O)N1Cc2cc([101O:1][101CH:1]3CCC(C)N(Cc4cc(C)c([100NH:0][100C:0](=O)N5CCCC(n6nc(-c7ccc(Oc8ccc(F)cc8F)cc7)c(C(N)=O)c6N)C5)cc4Cl)C3)ccc2CC1C(=O)NC1CCCc2ccccc21)C(C)(C)C

> <Shape>
0.215

> <Color>
0.202

> <Negative vol penalty>
0.000

$$$$

  -OEChem-04042321513D

 87 96  0     1  0  0  0  0  0999 V2000
  -18.3048  -25.9791   25.7198 C   0  0  0  0  0  0  0  0  0  0  0  0
  -19.5335  -25.3325   25.6329 C   0  0  0  0  0  0  0  0  0  0  0  0
  -23.2125   -9.7337   19.9411 C   0  0  0  0  0  0  0  0  0  0  0  0
  -23.8368   -9.8987   22.2692 C   0  0  0  0  0  0  0  0  0  0  0  0
  -17.9493  -26.9293   24.7635 C   0  0  0  0  0  0  0  0  0  0  0  0
  -20.4070  -25.6349   24.5889 C   0  0  0  0  0  0  0  0  0  0  0  0
  -26.5254  -25.7566   24.8261 C   0  0  0  0  0  0  0  0  0  0  0  0
  -22.5169   -8.5552   20.2112 C   0  0  0  0  0  0  0  0  0  0  0  0
  -23.1411   -8.7203   22.5393 C   0  0  0  0  0  0  0  0  0  0  0  0
  -27.4972  -24.8291   24.4529 C   0  0  0  0  0  0  0  0  0  0  0  0
  -19.9298   -7.7765   23.0049 C   0  0  0  0  0  0  0  0  0  0  0  0
  -19.1094   -7.7540   24.1327 C   0  0  0  0  0  0  0  0  0  0  0  0
  -27.7387  -25.9461   22.3284 C   0  0  0  0  0  0  0  0  0  0  0  0
  -29.7120  -19.5900   22.5298 C   0  0  0  0  0  0  0  0  0  0  0  0
  -20.4058   -5.9280   25.0394 C   0  0  0  0  0  0  0  0  0  0  0  0
  -23.8726  -10.4054   20.9701 C   0  0  0  0  0  0  0  0  0  0  0  0
  -24.0880  -12.9363   20.7338 C   0  0  0  0  0  0  0  0  0  0  0  0
  -18.8229  -27.2506   23.7127 C   0  0  0  0  0  0  0  0  0  0  0  0
  -26.1445  -26.7810   23.9475 C   0  0  0  0  0  0  0  0  0  0  0  0
  -20.0623  -26.5894   23.6169 C   0  0  0  0  0  0  0  0  0  0  0  0
  -26.7637  -26.8868   22.6939 C   0  0  0  0  0  0  0  0  0  0  0  0
  -30.0961  -20.1991   21.3352 C   0  0  0  0  0  0  0  0  0  0  0  0
  -29.6128  -18.2006   22.6039 C   0  0  0  0  0  0  0  0  0  0  0  0
  -30.3810  -19.4188   20.2147 C   0  0  0  0  0  0  0  0  0  0  0  0
  -29.8977  -17.4203   21.4833 C   0  0  0  0  0  0  0  0  0  0  0  0
  -22.4812   -8.0486   21.5103 C   0  0  0  0  0  0  0  0  0  0  0  0
  -28.1019  -24.9221   23.2028 C   0  0  0  0  0  0  0  0  0  0  0  0
  -20.9882   -6.8747   22.8942 C   0  0  0  0  0  0  0  0  0  0  0  0
  -19.3474   -6.8298   25.1500 C   0  0  0  0  0  0  0  0  0  0  0  0
  -21.2262   -5.9505   23.9115 C   0  0  0  0  0  0  0  0  0  0  0  0
  -30.2818  -18.0294   20.2887 C   0  0  0  0  0  0  0  0  0  0  0  0
  -24.5918  -11.6225   20.6917 C   0  0  0  0  0  0  0  0  0  0  0  0
  -25.1586  -13.7257   20.3917 C   0  0  0  0  0  0  0  0  0  0  0  0
  -31.3079  -23.6846   22.1630 C   0  0  0  0  0  0  0  0  0  0  0  0
  -30.2999  -24.4821   22.5351 C   0  0  0  0  0  0  0  0  0  1  0  0
  -22.7701  -13.4015   21.0538 C   0  0  0  0  0  0  0  0  0  0  0  0
  -23.4357  -27.6056   22.5032 C   0  0  0  0  0  0  0  0  0  0  0  0
  -25.1752  -30.1773   21.5637 C   0  0  0  0  0  0  0  0  0  0  0  0
  -28.2476  -31.5258   20.9401 C   0  0  0  0  0  0  0  0  0  0  0  0
  -30.5432  -15.0798   20.8112 C   0  0  0  0  0  0  0  0  0  0  0  0
  -18.3749  -28.2502   22.6760 C   0  0  0  0  0  0  0  0  0  0  0  0
  -25.1139  -27.7894   24.3757 C   0  0  0  0  0  0  0  0  0  0  0  0
  -26.4049  -27.9800   21.7220 C   0  0  0  0  0  0  0  0  0  0  0  0
  -32.6923  -24.1336   21.8228 C   0  0  0  0  0  0  0  0  0  0  0  0
  -19.5147  -28.7849   21.8128 C   0  0  0  0  0  0  0  0  0  0  0  0
  -33.4930  -22.9430   22.3204 C   0  0  0  0  0  0  0  0  0  0  0  0
  -29.6959  -12.4913   18.5180 C   0  0  0  0  0  0  0  0  0  0  0  0
  -20.4014  -27.6410   21.3311 C   0  0  0  0  0  0  0  0  0  0  0  0
  -28.2510  -12.1426   18.8825 C   0  0  0  0  0  0  0  0  0  0  0  0
  -30.5266  -12.8309   19.7542 C   0  0  0  0  0  0  0  0  0  0  0  0
  -28.5074  -13.5177   20.9874 C   0  0  0  0  0  0  0  0  0  0  0  0
  -32.6033  -21.7479   22.0164 C   0  0  0  0  0  0  0  0  0  0  0  0
  -21.0473  -26.9082   22.5132 C   0  0  1  0  0  0  0  0  0  0  0  0
  -24.4346  -28.4854   23.2002 C   0  0  1  0  0  0  0  0  0  0  0  0
  -27.6149  -13.2314   19.7687 C   0  0  2  0  0  0  0  0  0  0  0  0
  -29.1991  -17.5754   23.8966 C   0  0  0  0  0  0  0  0  0  0  0  0
  -30.7939  -20.0524   18.9266 C   0  0  0  0  0  0  0  0  0  0  0  0
  -29.3482  -33.6371   20.1473 C   0  0  0  0  0  0  0  0  0  0  0  0
  -24.3684  -29.5181   18.6958 C   0  0  0  0  0  0  0  0  0  0  0  0
  -26.2091  -31.0204   17.9065 C   0  0  0  0  0  0  0  0  0  0  0  0
  -24.3309  -31.9551   19.2561 C   0  0  0  0  0  0  0  0  0  0  0  0
  -29.7084  -31.8601   23.4923 C   0  0  0  0  0  0  0  0  0  0  0  0
  -30.1957  -21.6951   21.2799 C   0  0  0  0  0  0  0  0  0  0  0  0
  -26.0606  -30.4956   20.3831 C   0  0  1  0  0  0  0  0  0  0  0  0
  -28.8713  -32.8460   21.3554 C   0  0  2  0  0  0  0  0  0  0  0  0
  -25.2479  -30.7254   19.0777 C   0  0  0  0  0  0  0  0  0  0  0  0
  -25.8821  -11.5758   20.3495 N   0  0  0  0  0  0  0  0  0  0  0  0
  -26.1980  -12.8701   20.1735 N   0  0  0  0  0  0  0  0  0  0  0  0
  -25.3871  -28.9381   22.1843 N   0  0  0  0  0  0  0  0  0  0  0  0
  -29.8644  -13.8723   20.5429 N   0  0  0  0  0  0  0  0  0  0  0  0
  -25.3028  -15.0614   20.2590 N   0  0  0  0  0  0  0  0  0  0  0  0
  -21.7894  -12.4560   21.3830 N   0  0  0  0  0  0  0  0  0  0  0  0
  -29.8019  -16.0078   21.5418 N   0  0  0  0  0  0  0  0  0  0  0  0
  -22.1613  -27.6717   23.0334 N   0  0  0  0  0  0  0  0  0  0  0  0
  -26.8818  -31.6330   20.7837 N   0  0  0  0  0  0  0  0  0  0  0  0
  -31.1875  -22.2541   22.2547 N   0  3  2  0  0  0  0  0  0  0  0  0
  -30.0378  -32.6085   22.2520 N   0  3  0  0  0  0  0  0  0  0  0  0
  -22.4668  -14.6185   21.0319 O   0  0  0  0  0  0  0  0  0  0  0  0
  -23.7943  -26.9189   21.5537 O   0  0  0  0  0  0  0  0  0  0  0  0
  -24.3316  -31.0010   21.9264 O   0  0  0  0  0  0  0  0  0  0  0  0
  -28.9065  -30.5027   20.7679 O   0  0  0  0  0  0  0  0  0  0  0  0
  -31.6871  -15.2869   20.3981 O   0  0  0  0  0  0  0  0  0  0  0  0
  -21.8022   -6.8988   21.7742 O   0  0  0  0  0  0  0  0  0  0  0  0
  -29.0503  -24.0178   22.8357 O   0  0  0  0  0  0  0  0  0  1  0  0
  -18.5604   -6.8094   26.2337 F   0  0  0  0  0  0  0  0  0  0  0  0
  -22.2422   -5.0824   23.8114 F   0  0  0  0  0  0  0  0  0  0  0  0
  -30.5563  -17.2805   19.2097 F   0  0  0  0  0  0  0  0  0  0  0  0
  1  2  1  0  0  0  0
  1  5  2  0  0  0  0
  2  6  2  0  0  0  0
  3  8  2  0  0  0  0
  3 16  1  0  0  0  0
  4  9  1  0  0  0  0
  4 16  2  0  0  0  0
  5 18  1  0  0  0  0
  6 20  1  0  0  0  0
  7 10  2  0  0  0  0
  7 19  1  0  0  0  0
  8 26  1  0  0  0  0
  9 26  2  0  0  0  0
 10 27  1  0  0  0  0
 11 12  2  0  0  0  0
 11 28  1  0  0  0  0
 12 29  1  0  0  0  0
 13 21  1  0  0  0  0
 13 27  2  0  0  0  0
 14 22  1  0  0  0  0
 14 23  2  0  0  0  0
 15 29  2  0  0  0  0
 15 30  1  0  0  0  0
 16 32  1  0  0  0  0
 17 32  1  0  0  0  0
 17 33  2  0  0  0  0
 17 36  1  0  0  0  0
 18 20  2  0  0  0  0
 18 41  1  0  0  0  0
 19 21  2  0  0  0  0
 19 42  1  0  0  0  0
 20 53  1  0  0  0  0
 21 43  1  0  0  0  0
 22 24  2  0  0  0  0
 22 63  1  0  0  0  0
 23 25  1  0  0  0  0
 23 56  1  0  0  0  0
 24 31  1  0  0  0  0
 24 57  1  0  0  0  0
 25 31  2  0  0  0  0
 25 73  1  0  0  0  0
 26 83  1  0  0  0  0
 27 84  1  0  0  0  0
 28 30  2  0  0  0  0
 28 83  1  0  0  0  0
 29 85  1  0  0  0  0
 30 86  1  0  0  0  0
 31 87  1  0  0  0  0
 32 67  2  0  0  0  0
 33 68  1  0  0  0  0
 33 71  1  0  0  0  0
 34 35  2  0  0  0  0
 34 44  1  0  0  0  0
 34 76  1  0  0  0  0
 35 84  1  0  0  0  0
 36 72  1  0  0  0  0
 36 78  2  0  0  0  0
 37 54  1  0  0  0  0
 37 74  1  0  0  0  0
 37 79  2  0  0  0  0
 38 64  1  0  0  0  0
 38 69  1  0  0  0  0
 38 80  2  0  0  0  0
 39 65  1  0  0  0  0
 39 75  1  0  0  0  0
 39 81  2  0  0  0  0
 40 70  1  0  0  0  0
 40 73  1  0  0  0  0
 40 82  2  0  0  0  0
 41 45  1  0  0  0  0
 42 54  1  0  0  0  0
 43 69  1  0  0  0  0
 44 46  1  0  0  0  0
 45 48  1  0  0  0  0
 46 52  1  0  0  0  0
 47 49  1  0  0  0  0
 47 50  1  0  0  0  0
 48 53  1  0  0  0  0
 49 55  1  0  0  0  0
 50 70  1  0  0  0  0
 51 55  1  0  0  0  0
 51 70  1  0  0  0  0
 52 76  1  0  0  0  0
 53 74  1  0  0  0  0
 54 69  1  0  0  0  0
 55 68  1  0  0  0  0
 58 65  1  0  0  0  0
 59 66  1  0  0  0  0
 60 66  1  0  0  0  0
 61 66  1  0  0  0  0
 62 77  1  0  0  0  0
 63 76  1  0  0  0  0
 64 66  1  0  0  0  0
 64 75  1  0  0  0  0
 65 77  1  0  0  0  0
 67 68  1  0  0  0  0
M  CHG  2  76   1  77   1
M  ISO  4  35 101  40 100  73 100  84 101
M  END
> <Batch ID>
0035

> <Smiles>
CNC(C)C(=O)NC(C(=O)N1Cc2cc([101O:1][101CH:1]=C3CCCN3Cc3cc(C)c([100NH:0][100C:0](=O)N4CCCC(n5nc(-c6ccc(Oc7ccc(F)cc7F)cc6)c(C(N)=O)c5N)C4)c(F)c3C)ccc2CC1C(=O)NC1CCCc2ccccc21)C(C)(C)C

> <Shape>
0.287

> <Color>
0.201

> <Negative vol penalty>
0.000

$$$$

  -OEChem-04042321513D

 88 97  0     1  0  0  0  0  0999 V2000
  -16.6327  -28.4659   23.8948 C   0  0  0  0  0  0  0  0  0  0  0  0
  -16.9839  -28.2435   22.5671 C   0  0  0  0  0  0  0  0  0  0  0  0
  -26.1226  -13.3517   20.1246 C   0  0  0  0  0  0  0  0  0  0  0  0
  -25.8804  -14.4327   22.2716 C   0  0  0  0  0  0  0  0  0  0  0  0
  -17.4395  -29.2651   24.7036 C   0  0  0  0  0  0  0  0  0  0  0  0
  -18.1417  -28.8212   22.0472 C   0  0  0  0  0  0  0  0  0  0  0  0
  -24.2799  -25.4640   18.5717 C   0  0  0  0  0  0  0  0  0  0  0  0
  -24.9485  -12.6343   20.3533 C   0  0  0  0  0  0  0  0  0  0  0  0
  -24.7062  -13.7153   22.5003 C   0  0  0  0  0  0  0  0  0  0  0  0
  -25.4903  -24.9704   18.0846 C   0  0  0  0  0  0  0  0  0  0  0  0
  -23.9961   -9.9136   22.1182 C   0  0  0  0  0  0  0  0  0  0  0  0
  -24.0024   -8.5503   21.8230 C   0  0  0  0  0  0  0  0  0  0  0  0
  -26.6389  -26.9240   18.9285 C   0  0  0  0  0  0  0  0  0  0  0  0
  -32.7586  -22.7383   19.7406 C   0  0  0  0  0  0  0  0  0  0  0  0
  -22.2146   -8.8863   20.2331 C   0  0  0  0  0  0  0  0  0  0  0  0
  -26.5887  -14.2508   21.0838 C   0  0  0  0  0  0  0  0  0  0  0  0
  -28.0590  -15.8890   19.7945 C   0  0  0  0  0  0  0  0  0  0  0  0
  -18.6129  -29.8449   24.1961 C   0  0  0  0  0  0  0  0  0  0  0  0
  -24.2468  -26.6838   19.2534 C   0  0  0  0  0  0  0  0  0  0  0  0
  -18.9643  -29.6300   22.8497 C   0  0  0  0  0  0  0  0  0  0  0  0
  -25.4314  -27.4176   19.4295 C   0  0  0  0  0  0  0  0  0  0  0  0
  -31.8690  -22.2345   22.3362 C   0  0  0  0  0  0  0  0  0  0  0  0
  -32.9551  -21.5267   21.8215 C   0  0  0  0  0  0  0  0  0  0  0  0
  -31.6724  -23.4461   20.2552 C   0  0  0  0  0  0  0  0  0  0  0  0
  -24.2402  -12.8161   21.5411 C   0  0  0  0  0  0  0  0  0  0  0  0
  -26.6668  -25.6987   18.2624 C   0  0  0  0  0  0  0  0  0  0  0  0
  -23.0989  -10.7632   21.4709 C   0  0  0  0  0  0  0  0  0  0  0  0
  -23.1117   -8.0367   20.8805 C   0  0  0  0  0  0  0  0  0  0  0  0
  -22.2082  -10.2495   20.5284 C   0  0  0  0  0  0  0  0  0  0  0  0
  -33.3999  -21.7785   20.5237 C   0  0  0  0  0  0  0  0  0  0  0  0
  -31.2276  -23.1942   21.5530 C   0  0  0  0  0  0  0  0  0  0  0  0
  -27.8018  -14.9917   20.8484 C   0  0  0  0  0  0  0  0  0  0  0  0
  -29.3424  -16.3237   20.0192 C   0  0  0  0  0  0  0  0  0  0  0  0
  -29.6718  -24.3142   19.0720 C   0  0  0  0  0  0  0  0  0  0  0  0
  -27.2134  -16.2934   18.7096 C   0  0  0  0  0  0  0  0  0  0  0  0
  -22.1756  -29.2337   21.0655 C   0  0  0  0  0  0  0  0  0  0  0  0
  -24.8097  -28.9617   22.6141 C   0  0  0  0  0  0  0  0  0  0  0  0
  -27.6580  -28.0604   24.2609 C   0  0  0  0  0  0  0  0  0  0  0  0
  -33.3219  -18.1686   23.4695 C   0  0  0  0  0  0  0  0  0  0  0  0
  -19.4282  -30.7399   25.0955 C   0  0  0  0  0  0  0  0  0  0  0  0
  -22.9559  -27.2833   19.7412 C   0  0  0  0  0  0  0  0  0  0  0  0
  -25.3425  -28.7413   20.1386 C   0  0  0  0  0  0  0  0  0  0  0  0
  -20.8365  -31.0097   24.5719 C   0  0  0  0  0  0  0  0  0  0  0  0
  -31.2005  -26.6878   18.2849 C   0  0  0  0  0  0  0  0  0  0  0  0
  -32.8726  -14.6448   23.2294 C   0  0  0  0  0  0  0  0  0  0  0  0
  -20.7950  -31.3724   23.0909 C   0  0  0  0  0  0  0  0  0  0  0  0
  -29.9283  -26.3305   17.5510 C   0  0  0  0  0  0  0  0  0  0  0  0
  -31.5322  -14.4953   22.5076 C   0  0  0  0  0  0  0  0  0  0  0  0
  -31.9026  -25.4208   18.7468 C   0  0  0  0  0  0  0  0  0  0  0  0
  -32.8709  -15.8390   24.1811 C   0  0  0  0  0  0  0  0  0  0  0  0
  -31.1376  -16.9711   22.8442 C   0  0  0  0  0  0  0  0  0  0  0  0
  -20.2256  -30.2190   22.2561 C   0  0  1  0  0  0  0  0  0  0  0  0
  -29.0230  -25.5674   18.4935 C   0  0  1  0  0  0  0  0  0  1  0  0
  -23.1123  -28.0616   21.0599 C   0  0  1  0  0  0  0  0  0  0  0  0
  -31.1093  -15.8135   21.8316 C   0  0  2  0  0  0  0  0  0  0  0  0
  -31.4054  -21.9505   23.7322 C   0  0  0  0  0  0  0  0  0  0  0  0
  -28.9940  -28.5871   26.3188 C   0  0  0  0  0  0  0  0  0  0  0  0
  -25.8232  -31.5194   21.2971 C   0  0  0  0  0  0  0  0  0  0  0  0
  -27.7655  -31.4788   22.8764 C   0  0  0  0  0  0  0  0  0  0  0  0
  -25.4438  -31.6949   23.7628 C   0  0  0  0  0  0  0  0  0  0  0  0
  -27.3617  -25.3049   25.2994 C   0  0  0  0  0  0  0  0  0  0  0  0
  -33.6347  -20.4974   22.6709 C   0  0  0  0  0  0  0  0  0  0  0  0
  -26.2113  -29.4755   22.8261 C   0  0  1  0  0  0  0  0  0  0  0  0
  -27.9118  -27.7056   25.7149 C   0  0  2  0  0  0  0  0  0  0  0  0
  -26.3056  -31.0200   22.6736 C   0  0  0  0  0  0  0  0  0  0  0  0
  -28.8386  -14.8630   21.6806 N   0  0  0  0  0  0  0  0  0  0  0  0
  -29.7597  -15.6850   21.1497 N   0  0  0  0  0  0  0  0  0  0  0  0
  -31.0333  -24.4335   19.4120 N   0  0  0  0  0  0  0  0  0  0  0  0
  -24.4497  -28.6287   21.3026 N   0  0  0  0  0  0  0  0  0  0  0  0
  -32.4627  -17.0574   23.4776 N   0  0  0  0  0  0  0  0  0  0  0  0
  -30.1433  -17.1861   19.3580 N   0  0  0  0  0  0  0  0  0  0  0  0
  -26.3853  -17.4099   18.8883 N   0  0  0  0  0  0  0  0  0  0  0  0
  -21.2254  -29.1897   22.0678 N   0  0  0  0  0  0  0  0  0  0  0  0
  -26.6361  -28.9767   24.1296 N   0  0  0  0  0  0  0  0  0  0  0  0
  -32.8613  -19.2801   22.7746 N   0  0  0  0  0  0  0  0  0  0  0  0
  -28.3430  -26.2840   25.8336 N   0  3  0  0  0  0  0  0  0  0  0  0
  -28.9808  -23.3076   19.2493 O   0  0  0  0  0  0  0  0  0  0  0  0
  -27.1807  -15.6729   17.6199 O   0  0  0  0  0  0  0  0  0  0  0  0
  -22.3053  -30.1148   20.2238 O   0  0  0  0  0  0  0  0  0  0  0  0
  -24.0508  -28.8625   23.5823 O   0  0  0  0  0  0  0  0  0  0  0  0
  -28.3044  -27.5761   23.3345 O   0  0  0  0  0  0  0  0  0  0  0  0
  -34.4207  -18.1681   24.0350 O   0  0  0  0  0  0  0  0  0  0  0  0
  -23.0943  -12.1165   21.7645 O   0  0  0  0  0  0  0  0  0  0  0  0
  -27.8458  -25.2088   17.7883 O   0  0  0  0  0  0  0  0  0  1  0  0
  -23.1190   -6.7278   20.5960 F   0  0  0  0  0  0  0  0  0  0  0  0
  -21.3448  -11.0610   19.9024 F   0  0  0  0  0  0  0  0  0  0  0  0
  -34.7370  -20.9205   19.8474 Cl  0  0  0  0  0  0  0  0  0  0  0  0
  -29.8769  -24.0732   22.1945 Cl  0  0  0  0  0  0  0  0  0  0  0  0
  1  2  1  0  0  0  0
  1  5  2  0  0  0  0
  2  6  2  0  0  0  0
  3  8  2  0  0  0  0
  3 16  1  0  0  0  0
  4  9  1  0  0  0  0
  4 16  2  0  0  0  0
  5 18  1  0  0  0  0
  6 20  1  0  0  0  0
  7 10  2  0  0  0  0
  7 19  1  0  0  0  0
  8 25  1  0  0  0  0
  9 25  2  0  0  0  0
 10 26  1  0  0  0  0
 11 12  2  0  0  0  0
 11 27  1  0  0  0  0
 12 28  1  0  0  0  0
 13 21  1  0  0  0  0
 13 26  2  0  0  0  0
 14 24  1  0  0  0  0
 14 30  2  0  0  0  0
 15 28  2  0  0  0  0
 15 29  1  0  0  0  0
 16 32  1  0  0  0  0
 17 32  1  0  0  0  0
 17 33  2  0  0  0  0
 17 35  1  0  0  0  0
 18 20  2  0  0  0  0
 18 40  1  0  0  0  0
 19 21  2  0  0  0  0
 19 41  1  0  0  0  0
 20 52  1  0  0  0  0
 21 42  1  0  0  0  0
 22 23  2  0  0  0  0
 22 31  1  0  0  0  0
 22 56  1  0  0  0  0
 23 30  1  0  0  0  0
 23 62  1  0  0  0  0
 24 31  2  0  0  0  0
 24 68  1  0  0  0  0
 25 83  1  0  0  0  0
 26 84  1  0  0  0  0
 27 29  2  0  0  0  0
 27 83  1  0  0  0  0
 28 85  1  0  0  0  0
 29 86  1  0  0  0  0
 30 87  1  0  0  0  0
 31 88  1  0  0  0  0
 32 66  2  0  0  0  0
 33 67  1  0  0  0  0
 33 71  1  0  0  0  0
 34 53  1  0  0  0  0
 34 68  1  0  0  0  0
 34 77  2  0  0  0  0
 35 72  1  0  0  0  0
 35 78  2  0  0  0  0
 36 54  1  0  0  0  0
 36 73  1  0  0  0  0
 36 79  2  0  0  0  0
 37 63  1  0  0  0  0
 37 69  1  0  0  0  0
 37 80  2  0  0  0  0
 38 64  1  0  0  0  0
 38 74  1  0  0  0  0
 38 81  2  0  0  0  0
 39 70  1  0  0  0  0
 39 75  1  0  0  0  0
 39 82  2  0  0  0  0
 40 43  1  0  0  0  0
 41 54  1  0  0  0  0
 42 69  1  0  0  0  0
 43 46  1  0  0  0  0
 44 47  1  0  0  0  0
 44 49  1  0  0  0  0
 45 48  1  0  0  0  0
 45 50  1  0  0  0  0
 46 52  1  0  0  0  0
 47 53  1  0  0  0  0
 48 55  1  0  0  0  0
 49 68  1  0  0  0  0
 50 70  1  0  0  0  0
 51 55  1  0  0  0  0
 51 70  1  0  0  0  0
 52 73  1  0  0  0  0
 53 84  1  0  0  0  0
 54 69  1  0  0  0  0
 55 67  1  0  0  0  0
 57 64  1  0  0  0  0
 58 65  1  0  0  0  0
 59 65  1  0  0  0  0
 60 65  1  0  0  0  0
 61 76  1  0  0  0  0
 62 75  1  0  0  0  0
 63 65  1  0  0  0  0
 63 74  1  0  0  0  0
 64 76  1  0  0  0  0
 66 67  1  0  0  0  0
M  CHG  1  76   1
M  ISO  4  39 100  53 101  75 100  84 101
M  END
> <Batch ID>
0035

> <Smiles>
CNC(C)C(=O)NC(C(=O)N1Cc2cc([101O:1][101CH:1]3CCCN(c4cc(Cl)c(C[100NH:0][100C:0](=O)N5CCCC(n6nc(-c7ccc(Oc8ccc(F)cc8F)cc7)c(C(N)=O)c6N)C5)c(C)c4Cl)C3=O)ccc2CC1C(=O)NC1CCCc2ccccc21)C(C)(C)C

> <Shape>
0.270

> <Color>
0.097

> <Negative vol penalty>
0.000

$$$$

  -OEChem-04042321513D

 87 96  0     1  0  0  0  0  0999 V2000
  -16.9631  -28.0700   20.2735 C   0  0  0  0  0  0  0  0  0  0  0  0
  -18.1943  -28.3795   19.7046 C   0  0  0  0  0  0  0  0  0  0  0  0
  -24.9795  -13.9890   21.8669 C   0  0  0  0  0  0  0  0  0  0  0  0
  -26.2980  -14.0877   19.8449 C   0  0  0  0  0  0  0  0  0  0  0  0
  -16.8298  -28.0214   21.6605 C   0  0  0  0  0  0  0  0  0  0  0  0
  -19.2928  -28.6418   20.5225 C   0  0  0  0  0  0  0  0  0  0  0  0
  -25.1457  -27.2415   19.3873 C   0  0  0  0  0  0  0  0  0  0  0  0
  -29.3167  -25.0032   17.0573 C   0  0  0  0  0  0  0  0  0  0  0  0
  -28.2574  -24.1181   17.2574 C   0  0  0  0  0  0  0  0  0  0  0  0
  -24.9592  -12.5967   21.7858 C   0  0  0  0  0  0  0  0  0  0  0  0
  -26.2778  -12.6953   19.7637 C   0  0  0  0  0  0  0  0  0  0  0  0
  -26.2099  -27.9915   18.8886 C   0  0  0  0  0  0  0  0  0  0  0  0
  -23.2890  -10.2274   20.0475 C   0  0  0  0  0  0  0  0  0  0  0  0
  -22.0706   -9.5840   20.2647 C   0  0  0  0  0  0  0  0  0  0  0  0
  -26.9435  -28.4381   21.1429 C   0  0  0  0  0  0  0  0  0  0  0  0
  -30.2855  -24.3195   19.1623 C   0  0  0  0  0  0  0  0  0  0  0  0
  -23.0346   -8.3878   22.1293 C   0  0  0  0  0  0  0  0  0  0  0  0
  -25.6488  -14.7345   20.8964 C   0  0  0  0  0  0  0  0  0  0  0  0
  -26.1897  -16.9565   22.0268 C   0  0  0  0  0  0  0  0  0  0  0  0
  -17.9296  -28.2738   22.4957 C   0  0  0  0  0  0  0  0  0  0  0  0
  -24.9658  -27.0929   20.7700 C   0  0  0  0  0  0  0  0  0  0  0  0
  -19.1738  -28.5980   21.9220 C   0  0  0  0  0  0  0  0  0  0  0  0
  -25.8777  -27.6835   21.6565 C   0  0  0  0  0  0  0  0  0  0  0  0
  -30.3308  -25.1039   18.0098 C   0  0  0  0  0  0  0  0  0  0  0  0
  -29.2262  -23.4344   19.3624 C   0  0  0  0  0  0  0  0  0  0  0  0
  -28.2121  -23.3337   18.4099 C   0  0  0  0  0  0  0  0  0  0  0  0
  -25.6083  -11.9498   20.7342 C   0  0  0  0  0  0  0  0  0  0  0  0
  -27.1073  -28.5924   19.7665 C   0  0  0  0  0  0  0  0  0  0  0  0
  -24.3803   -9.9510   20.8713 C   0  0  0  0  0  0  0  0  0  0  0  0
  -21.9434   -8.6642   21.3056 C   0  0  0  0  0  0  0  0  0  0  0  0
  -24.2530   -9.0312   21.9122 C   0  0  0  0  0  0  0  0  0  0  0  0
  -25.6696  -16.1728   20.9793 C   0  0  0  0  0  0  0  0  0  0  0  0
  -25.9686  -18.2523   21.6286 C   0  0  0  0  0  0  0  0  0  0  0  0
  -30.6299  -28.3497   18.1681 C   0  0  0  0  0  0  0  0  0  0  0  0
  -26.8167  -16.5496   23.2503 C   0  0  0  0  0  0  0  0  0  0  0  0
  -22.6842  -27.8918   22.8339 C   0  0  0  0  0  0  0  0  0  0  0  0
  -24.5198  -26.2123   24.9153 C   0  0  0  0  0  0  0  0  0  0  0  0
  -27.6045  -25.0045   25.7356 C   0  0  0  0  0  0  0  0  0  0  0  0
  -26.0488  -22.2328   17.7360 C   0  0  0  0  0  0  0  0  0  0  0  0
  -17.7255  -28.2561   23.9899 C   0  0  0  0  0  0  0  0  0  0  0  0
  -23.8282  -26.2584   21.2914 C   0  0  0  0  0  0  0  0  0  0  0  0
  -25.7406  -27.5375   23.1492 C   0  0  0  0  0  0  0  0  0  0  0  0
  -19.0283  -28.1791   24.7817 C   0  0  0  0  0  0  0  0  0  0  0  0
  -32.2388  -28.4332   20.6713 C   0  0  0  0  0  0  0  0  0  0  0  0
  -23.1993  -20.0994   17.8154 C   0  0  0  0  0  0  0  0  0  0  0  0
  -20.0448  -29.1767   24.2355 C   0  0  0  0  0  0  0  0  0  0  0  0
  -31.8662  -29.6736   19.8731 C   0  0  0  0  0  0  0  0  0  0  0  0
  -23.6307  -18.9521   18.7318 C   0  0  0  0  0  0  0  0  0  0  0  0
  -31.8118  -27.1265   20.0082 C   0  0  0  0  0  0  0  0  0  0  0  0
  -24.3536  -20.5962   16.9467 C   0  0  0  0  0  0  0  0  0  0  0  0
  -26.0042  -19.8098   18.5978 C   0  0  0  0  0  0  0  0  0  0  0  0
  -20.3947  -28.8643   22.7755 C   0  0  1  0  0  0  0  0  0  0  0  0
  -30.5387  -29.5157   19.1394 C   0  0  2  0  0  0  0  0  0  0  0  0
  -23.4455  -26.6007   22.7280 C   0  0  1  0  0  0  0  0  0  0  0  0
  -24.8917  -19.3191   19.5386 C   0  0  2  0  0  0  0  0  0  0  0  0
  -29.2019  -22.6087   20.6078 C   0  0  0  0  0  0  0  0  0  0  0  0
  -29.3348  -23.7127   27.0141 C   0  0  0  0  0  0  0  0  0  0  0  0
  -24.4853  -28.6648   26.7303 C   0  0  0  0  0  0  0  0  0  0  0  0
  -26.4158  -27.6786   27.9829 C   0  0  0  0  0  0  0  0  0  0  0  0
  -24.2282  -26.4812   27.9221 C   0  0  0  0  0  0  0  0  0  0  0  0
  -27.1415  -22.5654   24.1246 C   0  0  0  0  0  0  0  0  0  0  0  0
  -31.4698  -26.0584   17.7955 C   0  0  0  0  0  0  0  0  0  0  0  0
  -29.3383  -29.3595   20.0667 C   0  0  0  0  0  0  0  0  0  1  0  0
  -25.6638  -26.5462   25.8420 C   0  0  1  0  0  0  0  0  0  0  0  0
  -28.0597  -23.6293   26.1895 C   0  0  2  0  0  0  0  0  0  0  0  0
  -25.2000  -27.3473   27.0913 C   0  0  0  0  0  0  0  0  0  0  0  0
  -25.1566  -16.9092   19.9901 N   0  0  0  0  0  0  0  0  0  0  0  0
  -25.3532  -18.1692   20.4143 N   0  0  0  0  0  0  0  0  0  0  0  0
  -31.3488  -27.2465   18.6277 N   0  0  0  0  0  0  0  0  0  0  0  0
  -24.6083  -26.7171   23.6103 N   0  0  0  0  0  0  0  0  0  0  0  0
  -25.5116  -20.9288   17.7794 N   0  0  0  0  0  0  0  0  0  0  0  0
  -26.2424  -19.4432   22.2023 N   0  0  0  0  0  0  0  0  0  0  0  0
  -28.2074  -16.3761   23.2629 N   0  0  0  0  0  0  0  0  0  0  0  0
  -27.1276  -22.4407   18.5948 N   0  0  0  0  0  0  0  0  0  0  0  0
  -21.3158  -27.7503   22.7039 N   0  0  0  0  0  0  0  0  0  0  0  0
  -26.3197  -25.2808   26.1532 N   0  0  0  0  0  0  0  0  0  0  0  0
  -28.3185  -22.7543   25.0112 N   0  3  0  0  0  0  0  0  0  0  0  0
  -30.0738  -28.4171   17.0704 O   0  0  0  0  0  0  0  0  0  0  0  0
  -26.1612  -16.3299   24.2970 O   0  0  0  0  0  0  0  0  0  0  0  0
  -23.2931  -28.9386   23.0213 O   0  0  0  0  0  0  0  0  0  0  0  0
  -23.5856  -25.5228   25.3319 O   0  0  0  0  0  0  0  0  0  0  0  0
  -28.3185  -25.7597   25.0796 O   0  0  0  0  0  0  0  0  0  0  0  0
  -25.5687  -23.1087   17.0120 O   0  0  0  0  0  0  0  0  0  0  0  0
  -25.5890  -10.5912   20.6549 O   0  0  0  0  0  0  0  0  0  0  0  0
  -28.1466  -29.3256   19.2825 O   0  0  0  0  0  0  0  0  0  1  0  0
  -20.7729   -8.0476   21.5149 F   0  0  0  0  0  0  0  0  0  0  0  0
  -25.2975   -8.7624   22.7076 F   0  0  0  0  0  0  0  0  0  0  0  0
  1  2  1  0  0  0  0
  1  5  2  0  0  0  0
  2  6  2  0  0  0  0
  3 10  2  0  0  0  0
  3 18  1  0  0  0  0
  4 11  1  0  0  0  0
  4 18  2  0  0  0  0
  5 20  1  0  0  0  0
  6 22  1  0  0  0  0
  7 12  2  0  0  0  0
  7 21  1  0  0  0  0
  8  9  2  0  0  0  0
  8 24  1  0  0  0  0
  9 26  1  0  0  0  0
 10 27  1  0  0  0  0
 11 27  2  0  0  0  0
 12 28  1  0  0  0  0
 13 14  2  0  0  0  0
 13 29  1  0  0  0  0
 14 30  1  0  0  0  0
 15 23  1  0  0  0  0
 15 28  2  0  0  0  0
 16 24  2  0  0  0  0
 16 25  1  0  0  0  0
 17 30  2  0  0  0  0
 17 31  1  0  0  0  0
 18 32  1  0  0  0  0
 19 32  1  0  0  0  0
 19 33  2  0  0  0  0
 19 35  1  0  0  0  0
 20 22  2  0  0  0  0
 20 40  1  0  0  0  0
 21 23  2  0  0  0  0
 21 41  1  0  0  0  0
 22 52  1  0  0  0  0
 23 42  1  0  0  0  0
 24 62  1  0  0  0  0
 25 26  2  0  0  0  0
 25 56  1  0  0  0  0
 26 74  1  0  0  0  0
 27 84  1  0  0  0  0
 28 85  1  0  0  0  0
 29 31  2  0  0  0  0
 29 84  1  0  0  0  0
 30 86  1  0  0  0  0
 31 87  1  0  0  0  0
 32 67  2  0  0  0  0
 33 68  1  0  0  0  0
 33 72  1  0  0  0  0
 34 53  1  0  0  0  0
 34 69  1  0  0  0  0
 34 78  2  0  0  0  0
 35 73  1  0  0  0  0
 35 79  2  0  0  0  0
 36 54  1  0  0  0  0
 36 75  1  0  0  0  0
 36 80  2  0  0  0  0
 37 64  1  0  0  0  0
 37 70  1  0  0  0  0
 37 81  2  0  0  0  0
 38 65  1  0  0  0  0
 38 76  1  0  0  0  0
 38 82  2  0  0  0  0
 39 71  1  0  0  0  0
 39 74  1  0  0  0  0
 39 83  2  0  0  0  0
 40 43  1  0  0  0  0
 41 54  1  0  0  0  0
 42 70  1  0  0  0  0
 43 46  1  0  0  0  0
 44 47  1  0  0  0  0
 44 49  1  0  0  0  0
 45 48  1  0  0  0  0
 45 50  1  0  0  0  0
 46 52  1  0  0  0  0
 47 53  1  0  0  0  0
 48 55  1  0  0  0  0
 49 69  1  0  0  0  0
 50 71  1  0  0  0  0
 51 55  1  0  0  0  0
 51 71  1  0  0  0  0
 52 75  1  0  0  0  0
 53 63  1  0  0  0  0
 54 70  1  0  0  0  0
 55 68  1  0  0  0  0
 57 65  1  0  0  0  0
 58 66  1  0  0  0  0
 59 66  1  0  0  0  0
 60 66  1  0  0  0  0
 61 77  1  0  0  0  0
 62 69  1  0  0  0  0
 63 85  1  0  0  0  0
 64 66  1  0  0  0  0
 64 76  1  0  0  0  0
 65 77  1  0  0  0  0
 67 68  1  0  0  0  0
M  CHG  1  77   1
M  ISO  4  39 100  63 101  74 100  85 101
M  END
> <Batch ID>
0035

> <Smiles>
CNC(C)C(=O)NC(C(=O)N1Cc2cc([101O:1][101CH2:1]C3CCCN(Cc4ccc([100NH:0][100C:0](=O)N5CCCC(n6nc(-c7ccc(Oc8ccc(F)cc8F)cc7)c(C(N)=O)c6N)C5)c(C)c4)C3=O)ccc2CC1C(=O)NC1CCCc2ccccc21)C(C)(C)C

> <Shape>
0.204

> <Color>
0.076

> <Negative vol penalty>
0.000

$$$$

  -OEChem-04042321513D

 89 98  0     1  0  0  0  0  0999 V2000
  -20.7491  -32.7429   21.9645 C   0  0  0  0  0  0  0  0  0  0  0  0
  -20.9745  -31.3917   21.7221 C   0  0  0  0  0  0  0  0  0  0  0  0
  -22.7598   -9.9593   20.0600 C   0  0  0  0  0  0  0  0  0  0  0  0
  -24.4073   -9.3111   21.7039 C   0  0  0  0  0  0  0  0  0  0  0  0
  -21.4323  -33.7063   21.2236 C   0  0  0  0  0  0  0  0  0  0  0  0
  -21.8825  -31.0030   20.7378 C   0  0  0  0  0  0  0  0  0  0  0  0
  -24.9410  -27.2731   22.2799 C   0  0  0  0  0  0  0  0  0  0  0  0
  -22.1083   -8.7380   20.2312 C   0  0  0  0  0  0  0  0  0  0  0  0
  -23.7558   -8.0897   21.8753 C   0  0  0  0  0  0  0  0  0  0  0  0
  -24.4143  -25.9823   22.2934 C   0  0  0  0  0  0  0  0  0  0  0  0
  -21.0273   -6.9300   23.4973 C   0  0  0  0  0  0  0  0  0  0  0  0
  -20.8285   -6.4808   24.8028 C   0  0  0  0  0  0  0  0  0  0  0  0
  -25.5146  -25.5178   20.1975 C   0  0  0  0  0  0  0  0  0  0  0  0
  -28.7544  -19.0080   22.5937 C   0  0  0  0  0  0  0  0  0  0  0  0
  -22.1222   -4.4988   24.3178 C   0  0  0  0  0  0  0  0  0  0  0  0
  -23.9094  -10.2459   20.7963 C   0  0  0  0  0  0  0  0  0  0  0  0
  -24.0514  -12.7926   20.8349 C   0  0  0  0  0  0  0  0  0  0  0  0
  -22.3564  -33.3293   20.2363 C   0  0  0  0  0  0  0  0  0  0  0  0
  -25.7510  -27.7002   21.2178 C   0  0  0  0  0  0  0  0  0  0  0  0
  -22.5778  -31.9623   19.9820 C   0  0  0  0  0  0  0  0  0  0  0  0
  -26.0524  -26.8137   20.1741 C   0  0  0  0  0  0  0  0  0  0  0  0
  -29.4211  -17.8890   23.0926 C   0  0  0  0  0  0  0  0  0  0  0  0
  -27.8735  -19.7168   23.4106 C   0  0  0  0  0  0  0  0  0  0  0  0
  -29.2067  -17.4786   24.4084 C   0  0  0  0  0  0  0  0  0  0  0  0
  -27.6591  -19.3064   24.7263 C   0  0  0  0  0  0  0  0  0  0  0  0
  -28.3257  -18.1874   25.2253 C   0  0  0  0  0  0  0  0  0  0  0  0
  -22.6062   -7.8032   21.1389 C   0  0  0  0  0  0  0  0  0  0  0  0
  -24.6986  -25.1054   21.2507 C   0  0  0  0  0  0  0  0  0  0  0  0
  -21.7735   -6.1636   22.6020 C   0  0  0  0  0  0  0  0  0  0  0  0
  -21.3759   -5.2653   25.2130 C   0  0  0  0  0  0  0  0  0  0  0  0
  -22.3209   -4.9480   23.0122 C   0  0  0  0  0  0  0  0  0  0  0  0
  -24.5832  -11.5071   20.6193 C   0  0  0  0  0  0  0  0  0  0  0  0
  -25.0826  -13.6466   20.5285 C   0  0  0  0  0  0  0  0  0  0  0  0
  -24.9782  -21.8984   22.4868 C   0  0  0  0  0  0  0  0  0  0  0  0
  -24.1950  -22.1763   23.5421 C   0  0  0  0  0  0  0  0  0  0  0  0
  -22.7424  -13.1801   21.2731 C   0  0  0  0  0  0  0  0  0  0  0  0
  -25.5392  -29.9776   19.0105 C   0  0  0  0  0  0  0  0  0  0  0  0
  -28.5479  -29.0088   18.2814 C   0  0  0  0  0  0  0  0  0  0  0  0
  -30.3012  -25.8709   17.9707 C   0  0  0  0  0  0  0  0  0  0  0  0
  -30.4680  -15.0792   20.8295 C   0  0  0  0  0  0  0  0  0  0  0  0
  -23.0358  -34.4066   19.4286 C   0  0  0  0  0  0  0  0  0  0  0  0
  -26.3332  -29.0870   21.2314 C   0  0  0  0  0  0  0  0  0  0  0  0
  -26.9333  -27.2167   19.0208 C   0  0  0  0  0  0  0  0  0  0  0  0
  -24.2592  -33.9123   18.6610 C   0  0  0  0  0  0  0  0  0  0  0  0
  -29.5323  -12.7655   18.2902 C   0  0  0  0  0  0  0  0  0  0  0  0
  -25.7389  -20.6611   20.0150 C   0  0  0  0  0  0  0  0  0  0  0  0
  -23.9454  -32.6043   17.9416 C   0  0  0  0  0  0  0  0  0  0  0  0
  -24.8975  -21.9323   19.9946 C   0  0  0  0  0  0  0  0  0  0  0  0
  -28.1207  -12.3336   18.6910 C   0  0  0  0  0  0  0  0  0  0  0  0
  -30.4240  -12.9827   19.5107 C   0  0  0  0  0  0  0  0  0  0  0  0
  -28.4646  -13.4748   20.9222 C   0  0  0  0  0  0  0  0  0  0  0  0
  -25.4895  -19.8482   21.2811 C   0  0  0  0  0  0  0  0  0  0  0  0
  -23.5734  -31.5012   18.9398 C   0  0  1  0  0  0  0  0  0  0  0  0
  -25.1150  -22.7665   21.2562 C   0  0  1  0  0  0  0  0  0  1  0  0
  -26.7261  -29.5837   19.8435 C   0  0  1  0  0  0  0  0  0  0  0  0
  -27.5123  -13.2977   19.7272 C   0  0  2  0  0  0  0  0  0  0  0  0
  -29.9231  -16.2782   24.9410 C   0  0  0  0  0  0  0  0  0  0  0  0
  -26.7132  -20.0680   25.5999 C   0  0  0  0  0  0  0  0  0  0  0  0
  -28.0963  -17.7475   26.6369 C   0  0  0  0  0  0  0  0  0  0  0  0
  -32.7340  -25.3260   18.2570 C   0  0  0  0  0  0  0  0  0  0  0  0
  -28.6981  -29.4220   15.2620 C   0  0  0  0  0  0  0  0  0  0  0  0
  -30.3037  -27.5042   15.1496 C   0  0  0  0  0  0  0  0  0  0  0  0
  -30.8984  -29.5523   16.4435 C   0  0  0  0  0  0  0  0  0  0  0  0
  -29.7157  -23.7824   19.9842 C   0  0  0  0  0  0  0  0  0  0  0  0
  -30.3586  -17.1474   22.1969 C   0  0  0  0  0  0  0  0  0  0  0  0
  -27.1699  -20.9174   22.8497 C   0  0  0  0  0  0  0  0  0  0  0  0
  -29.1436  -27.9767   17.3546 C   0  0  1  0  0  0  0  0  0  0  0  0
  -31.3609  -25.3250   18.9107 C   0  0  2  0  0  0  0  0  0  0  0  0
  -29.7351  -28.6104   16.0638 C   0  0  0  0  0  0  0  0  0  0  0  0
  -25.8535  -11.5370   20.2076 N   0  0  0  0  0  0  0  0  0  0  0  0
  -26.1285  -12.8517   20.1619 N   0  0  0  0  0  0  0  0  0  0  0  0
  -27.4735  -28.5851   19.0764 N   0  0  0  0  0  0  0  0  0  0  0  0
  -29.7902  -13.9079   20.4532 N   0  0  0  0  0  0  0  0  0  0  0  0
  -25.1876  -14.9924   20.5395 N   0  0  0  0  0  0  0  0  0  0  0  0
  -22.5129  -13.3217   22.6485 N   0  0  0  0  0  0  0  0  0  0  0  0
  -24.7616  -30.9714   19.5737 N   0  0  0  0  0  0  0  0  0  0  0  0
  -30.1097  -27.2248   18.1480 N   0  0  0  0  0  0  0  0  0  0  0  0
  -29.7938  -15.9041   21.7215 N   0  0  0  0  0  0  0  0  0  0  0  0
  -25.7221  -20.6585   22.5354 N   0  3  1  0  0  0  0  0  0  0  0  0
  -31.0305  -23.9271   19.3079 N   0  3  0  0  0  0  0  0  0  0  0  0
  -21.7997  -13.3786   20.4698 O   0  0  0  0  0  0  0  0  0  0  0  0
  -25.3442  -29.4222   17.9357 O   0  0  0  0  0  0  0  0  0  0  0  0
  -29.0231  -30.1469   18.3045 O   0  0  0  0  0  0  0  0  0  0  0  0
  -29.7058  -25.1673   17.1576 O   0  0  0  0  0  0  0  0  0  0  0  0
  -31.5885  -15.3711   20.3979 O   0  0  0  0  0  0  0  0  0  0  0  0
  -21.9706   -6.6113   21.3065 O   0  0  0  0  0  0  0  0  0  0  0  0
  -24.1853  -23.8451   21.2611 O   0  0  0  0  0  0  0  0  0  1  0  0
  -21.1863   -4.8347   26.4672 F   0  0  0  0  0  0  0  0  0  0  0  0
  -23.0397   -4.2079   22.1570 F   0  0  0  0  0  0  0  0  0  0  0  0
  1  2  1  0  0  0  0
  1  5  2  0  0  0  0
  2  6  2  0  0  0  0
  3  8  2  0  0  0  0
  3 16  1  0  0  0  0
  4  9  1  0  0  0  0
  4 16  2  0  0  0  0
  5 18  1  0  0  0  0
  6 20  1  0  0  0  0
  7 10  2  0  0  0  0
  7 19  1  0  0  0  0
  8 27  1  0  0  0  0
  9 27  2  0  0  0  0
 10 28  1  0  0  0  0
 11 12  2  0  0  0  0
 11 29  1  0  0  0  0
 12 30  1  0  0  0  0
 13 21  1  0  0  0  0
 13 28  2  0  0  0  0
 14 22  2  0  0  0  0
 14 23  1  0  0  0  0
 15 30  2  0  0  0  0
 15 31  1  0  0  0  0
 16 32  1  0  0  0  0
 17 32  1  0  0  0  0
 17 33  2  0  0  0  0
 17 36  1  0  0  0  0
 18 20  2  0  0  0  0
 18 41  1  0  0  0  0
 19 21  2  0  0  0  0
 19 42  1  0  0  0  0
 20 53  1  0  0  0  0
 21 43  1  0  0  0  0
 22 24  1  0  0  0  0
 22 65  1  0  0  0  0
 23 25  2  0  0  0  0
 23 66  1  0  0  0  0
 24 26  2  0  0  0  0
 24 57  1  0  0  0  0
 25 26  1  0  0  0  0
 25 58  1  0  0  0  0
 26 59  1  0  0  0  0
 27 86  1  0  0  0  0
 28 87  1  0  0  0  0
 29 31  2  0  0  0  0
 29 86  1  0  0  0  0
 30 88  1  0  0  0  0
 31 89  1  0  0  0  0
 32 70  2  0  0  0  0
 33 71  1  0  0  0  0
 33 74  1  0  0  0  0
 34 35  2  0  0  0  0
 34 54  1  0  0  0  0
 34 79  1  0  0  0  0
 36 75  1  0  0  0  0
 36 81  2  0  0  0  0
 37 55  1  0  0  0  0
 37 76  1  0  0  0  0
 37 82  2  0  0  0  0
 38 67  1  0  0  0  0
 38 72  1  0  0  0  0
 38 83  2  0  0  0  0
 39 68  1  0  0  0  0
 39 77  1  0  0  0  0
 39 84  2  0  0  0  0
 40 73  1  0  0  0  0
 40 78  1  0  0  0  0
 40 85  2  0  0  0  0
 41 44  1  0  0  0  0
 42 55  1  0  0  0  0
 43 72  1  0  0  0  0
 44 47  1  0  0  0  0
 45 49  1  0  0  0  0
 45 50  1  0  0  0  0
 46 48  1  0  0  0  0
 46 52  1  0  0  0  0
 47 53  1  0  0  0  0
 48 54  1  0  0  0  0
 49 56  1  0  0  0  0
 50 73  1  0  0  0  0
 51 56  1  0  0  0  0
 51 73  1  0  0  0  0
 52 79  1  0  0  0  0
 53 76  1  0  0  0  0
 54 87  1  0  0  0  0
 55 72  1  0  0  0  0
 56 71  1  0  0  0  0
 60 68  1  0  0  0  0
 61 69  1  0  0  0  0
 62 69  1  0  0  0  0
 63 69  1  0  0  0  0
 64 80  1  0  0  0  0
 65 78  1  0  0  0  0
 66 79  1  0  0  0  0
 67 69  1  0  0  0  0
 67 77  1  0  0  0  0
 68 80  1  0  0  0  0
 70 71  1  0  0  0  0
M  CHG  2  79   1  80   1
M  ISO  4  40 100  54 101  78 100  87 101
M  END
> <Batch ID>
0035

> <Smiles>
C=C1N(Cc2cc(C[100NH:0][100C:0](=O)N3CCCC(n4nc(-c5ccc(Oc6ccc(F)cc6F)cc5)c(C(N)=O)c4N)C3)c(C)c(C)c2C)CCC[101CH:1]1[101O:1]c1ccc2c(c1)CN(C(=O)C(NC(=O)C(C)NC)C(C)(C)C)C(C(=O)NC1CCCc3ccccc31)C2

> <Shape>
0.264

> <Color>
0.182

> <Negative vol penalty>
0.000

$$$$

  -OEChem-04042321513D

 82 90  0     1  0  0  0  0  0999 V2000
  -28.6512  -11.0904   20.3527 C   0  0  0  0  0  0  0  0  0  0  0  0
  -29.0663  -12.3706   20.0003 C   0  0  0  0  0  0  0  0  0  0  0  0
  -25.5021  -31.4840   23.8122 C   0  0  0  0  0  0  0  0  0  0  0  0
  -23.8539  -31.2818   25.5671 C   0  0  0  0  0  0  0  0  0  0  0  0
  -23.0414  -28.2814   17.5909 C   0  0  0  0  0  0  0  0  0  0  0  0
  -27.2931  -10.8183   20.5120 C   0  0  0  0  0  0  0  0  0  0  0  0
  -28.1233  -13.3793   19.8059 C   0  0  0  0  0  0  0  0  0  0  0  0
  -28.7698  -19.3260   21.1192 C   0  0  0  0  0  0  0  0  0  0  0  0
  -25.6965  -32.8235   24.1490 C   0  0  0  0  0  0  0  0  0  0  0  0
  -24.0483  -32.6214   25.9039 C   0  0  0  0  0  0  0  0  0  0  0  0
  -29.0969  -20.4300   20.3331 C   0  0  0  0  0  0  0  0  0  0  0  0
  -24.1302  -35.7738   23.6326 C   0  0  0  0  0  0  0  0  0  0  0  0
  -24.1884  -36.7011   22.5922 C   0  0  0  0  0  0  0  0  0  0  0  0
  -24.2369  -28.7311   17.0307 C   0  0  0  0  0  0  0  0  0  0  0  0
  -26.7516  -20.9297   20.0697 C   0  0  0  0  0  0  0  0  0  0  0  0
  -26.4225  -37.3221   23.2705 C   0  0  0  0  0  0  0  0  0  0  0  0
  -24.5808  -30.7131   24.5212 C   0  0  0  0  0  0  0  0  0  0  0  0
  -22.9880  -27.0334   18.2117 C   0  0  0  0  0  0  0  0  0  0  0  0
  -25.0656  -28.2143   24.6899 C   0  0  0  0  0  0  0  0  0  0  0  0
  -26.3336  -11.8266   20.3290 C   0  0  0  0  0  0  0  0  0  0  0  0
  -27.4286  -19.0087   21.3779 C   0  0  0  0  0  0  0  0  0  0  0  0
  -26.7510  -13.1201   19.9617 C   0  0  0  0  0  0  0  0  0  0  0  0
  -26.4103  -19.8226   20.8615 C   0  0  0  0  0  0  0  0  0  0  0  0
  -25.3259  -26.6851   17.7119 C   0  0  0  0  0  0  0  0  0  0  0  0
  -24.9697  -33.3922   25.1949 C   0  0  0  0  0  0  0  0  0  0  0  0
  -28.0877  -21.2304   19.8058 C   0  0  0  0  0  0  0  0  0  0  0  0
  -25.2182  -35.6208   24.4920 C   0  0  0  0  0  0  0  0  0  0  0  0
  -25.3345  -37.4752   22.4111 C   0  0  0  0  0  0  0  0  0  0  0  0
  -26.3643  -36.3949   24.3110 C   0  0  0  0  0  0  0  0  0  0  0  0
  -25.3792  -27.9329   17.0912 C   0  0  0  0  0  0  0  0  0  0  0  0
  -24.1303  -26.2353   18.2723 C   0  0  0  0  0  0  0  0  0  0  0  0
  -24.3791  -29.3295   24.1733 C   0  0  0  0  0  0  0  0  0  0  0  0
  -24.5082  -27.1382   24.0435 C   0  0  0  0  0  0  0  0  0  0  0  0
  -21.7041  -26.6086   18.7844 C   0  0  0  0  0  0  0  0  0  0  0  0
  -26.1135  -28.1563   25.6668 C   0  0  0  0  0  0  0  0  0  0  0  0
  -25.5486  -16.5254   20.7437 C   0  0  0  0  0  0  0  0  0  0  0  0
  -23.4333  -18.1530   22.5872 C   0  0  0  0  0  0  0  0  0  0  0  0
  -22.4047  -21.1473   23.8613 C   0  0  0  0  0  0  0  0  0  0  0  0
  -24.8739  -11.4731   20.4662 C   0  0  0  0  0  0  0  0  0  0  0  0
  -27.0932  -17.8299   22.2498 C   0  0  0  0  0  0  0  0  0  0  0  0
  -24.9555  -19.5367   21.1265 C   0  0  0  0  0  0  0  0  0  0  0  0
  -23.9632  -12.6900   20.6082 C   0  0  0  0  0  0  0  0  0  0  0  0
  -20.4343  -25.6896   21.9913 C   0  0  0  0  0  0  0  0  0  0  0  0
  -24.3226  -13.7496   19.5714 C   0  0  0  0  0  0  0  0  0  0  0  0
  -21.3535  -26.4294   22.9649 C   0  0  0  0  0  0  0  0  0  0  0  0
  -20.1789  -26.5059   20.7268 C   0  0  0  0  0  0  0  0  0  0  0  0
  -22.3254  -27.6979   21.0036 C   0  0  0  0  0  0  0  0  0  0  0  0
  -25.7600  -14.2470   19.7663 C   0  0  1  0  0  0  0  0  0  0  0  0
  -25.6799  -17.3020   22.0232 C   0  0  1  0  0  0  0  0  0  0  0  0
  -22.6492  -26.8878   22.2696 C   0  0  1  0  0  0  0  0  0  0  0  0
  -20.6226  -22.1661   25.3047 C   0  0  0  0  0  0  0  0  0  0  0  0
  -21.4409  -17.9194   20.2881 C   0  0  0  0  0  0  0  0  0  0  0  0
  -20.0826  -19.7203   21.3743 C   0  0  0  0  0  0  0  0  0  0  0  0
  -20.4594  -17.5580   22.5598 C   0  0  0  0  0  0  0  0  0  0  0  0
  -24.3897  -22.1071   25.8355 C   0  0  0  0  0  0  0  0  0  0  0  0
  -28.2960  -24.6984   18.8522 C   0  0  0  0  0  0  0  0  0  0  0  0
  -27.4198  -25.9452   18.8495 C   0  0  0  0  0  0  0  0  0  0  0  0
  -27.5034  -23.4146   19.0684 C   0  0  0  0  0  0  0  0  0  1  0  0
  -22.3721  -19.1955   22.3303 C   0  0  1  0  0  0  0  0  0  0  0  0
  -22.0185  -21.5636   25.2691 C   0  0  2  0  0  0  0  0  0  0  0  0
  -21.1160  -18.6028   21.6313 C   0  0  0  0  0  0  0  0  0  0  0  0
  -23.4562  -28.9930   23.2684 N   0  0  0  0  0  0  0  0  0  0  0  0
  -23.5588  -27.6542   23.2112 N   0  0  0  0  0  0  0  0  0  0  0  0
  -21.4407  -26.9266   20.1189 N   0  0  0  0  0  0  0  0  0  0  0  0
  -24.6782  -18.3693   21.9796 N   0  0  0  0  0  0  0  0  0  0  0  0
  -24.7423  -25.8105   24.1115 N   0  0  0  0  0  0  0  0  0  0  0  0
  -26.5682  -29.3560   26.2310 N   0  0  0  0  0  0  0  0  0  0  0  0
  -26.4633  -25.8948   17.7702 N   0  0  0  0  0  0  0  0  0  0  0  0
  -25.8270  -15.1780   20.8723 N   0  0  0  0  0  0  0  0  0  0  0  0
  -22.0983  -19.8252   23.6175 N   0  0  0  0  0  0  0  0  0  0  0  0
  -22.9803  -22.5746   25.7925 N   0  3  0  0  0  0  0  0  0  0  0  0
  -20.9543  -25.9852   18.0345 O   0  0  0  0  0  0  0  0  0  0  0  0
  -26.6426  -27.0740   26.0166 O   0  0  0  0  0  0  0  0  0  0  0  0
  -25.2176  -17.1053   19.7162 O   0  0  0  0  0  0  0  0  0  0  0  0
  -23.1696  -17.1862   23.3065 O   0  0  0  0  0  0  0  0  0  0  0  0
  -22.9228  -21.9188   23.0570 O   0  0  0  0  0  0  0  0  0  0  0  0
  -25.1592  -34.6992   25.5240 O   0  0  0  0  0  0  0  0  0  0  0  0
  -28.4041  -22.3082   19.0377 O   0  0  0  0  0  0  0  0  0  1  0  0
  -25.3908  -38.3645   21.4111 F   0  0  0  0  0  0  0  0  0  0  0  0
  -27.4132  -36.2514   25.1327 F   0  0  0  0  0  0  0  0  0  0  0  0
  -26.8364  -28.5344   16.3829 Cl  0  0  0  0  0  0  0  0  0  0  0  0
  -24.0562  -24.6837   19.0460 Cl  0  0  0  0  0  0  0  0  0  0  0  0
  1  2  1  0  0  0  0
  1  6  2  0  0  0  0
  2  7  2  0  0  0  0
  3  9  2  0  0  0  0
  3 17  1  0  0  0  0
  4 10  1  0  0  0  0
  4 17  2  0  0  0  0
  5 14  1  0  0  0  0
  5 18  2  0  0  0  0
  6 20  1  0  0  0  0
  7 22  1  0  0  0  0
  8 11  2  0  0  0  0
  8 21  1  0  0  0  0
  9 25  1  0  0  0  0
 10 25  2  0  0  0  0
 11 26  1  0  0  0  0
 12 13  2  0  0  0  0
 12 27  1  0  0  0  0
 13 28  1  0  0  0  0
 14 30  2  0  0  0  0
 15 23  1  0  0  0  0
 15 26  2  0  0  0  0
 16 28  2  0  0  0  0
 16 29  1  0  0  0  0
 17 32  1  0  0  0  0
 18 31  1  0  0  0  0
 18 34  1  0  0  0  0
 19 32  1  0  0  0  0
 19 33  2  0  0  0  0
 19 35  1  0  0  0  0
 20 22  2  0  0  0  0
 20 39  1  0  0  0  0
 21 23  2  0  0  0  0
 21 40  1  0  0  0  0
 22 48  1  0  0  0  0
 23 41  1  0  0  0  0
 24 30  1  0  0  0  0
 24 31  2  0  0  0  0
 24 68  1  0  0  0  0
 25 77  1  0  0  0  0
 26 78  1  0  0  0  0
 27 29  2  0  0  0  0
 27 77  1  0  0  0  0
 28 79  1  0  0  0  0
 29 80  1  0  0  0  0
 30 81  1  0  0  0  0
 31 82  1  0  0  0  0
 32 62  2  0  0  0  0
 33 63  1  0  0  0  0
 33 66  1  0  0  0  0
 34 64  1  0  0  0  0
 34 72  2  0  0  0  0
 35 67  1  0  0  0  0
 35 73  2  0  0  0  0
 36 49  1  0  0  0  0
 36 69  1  0  0  0  0
 36 74  2  0  0  0  0
 37 59  1  0  0  0  0
 37 65  1  0  0  0  0
 37 75  2  0  0  0  0
 38 60  1  0  0  0  0
 38 70  1  0  0  0  0
 38 76  2  0  0  0  0
 39 42  1  0  0  0  0
 40 49  1  0  0  0  0
 41 65  1  0  0  0  0
 42 44  1  0  0  0  0
 43 45  1  0  0  0  0
 43 46  1  0  0  0  0
 44 48  1  0  0  0  0
 45 50  1  0  0  0  0
 46 64  1  0  0  0  0
 47 50  1  0  0  0  0
 47 64  1  0  0  0  0
 48 69  1  0  0  0  0
 49 65  1  0  0  0  0
 50 63  1  0  0  0  0
 51 60  1  0  0  0  0
 52 61  1  0  0  0  0
 53 61  1  0  0  0  0
 54 61  1  0  0  0  0
 55 71  1  0  0  0  0
 56 57  1  0  0  0  0
 56 58  1  0  0  0  0
 57 68  1  0  0  0  0
 58 78  1  0  0  0  0
 59 61  1  0  0  0  0
 59 70  1  0  0  0  0
 60 71  1  0  0  0  0
 62 63  1  0  0  0  0
M  CHG  1  71   1
M  ISO  4  18 100  34 100  58 101  78 101
M  END
> <Batch ID>
0035

> <Smiles>
CNC(C)C(=O)NC(C(=O)N1Cc2cc([101O:1][101CH2:1]CCNc3c(Cl)cc[100c:0]([100C:0](=O)N4CCCC(n5nc(-c6ccc(Oc7ccc(F)cc7F)cc6)c(C(N)=O)c5N)C4)c3Cl)ccc2CC1C(=O)NC1CCCc2ccccc21)C(C)(C)C

> <Shape>
0.207

> <Color>
0.056

> <Negative vol penalty>
0.000

$$$$

  -OEChem-04042321513D

 87 96  0     1  0  0  0  0  0999 V2000
  -29.8346  -35.2204   22.7345 C   0  0  0  0  0  0  0  0  0  0  0  0
  -29.6836  -33.8385   22.6798 C   0  0  0  0  0  0  0  0  0  0  0  0
  -22.7453  -10.1375   20.3374 C   0  0  0  0  0  0  0  0  0  0  0  0
  -24.5570   -8.9776   21.4372 C   0  0  0  0  0  0  0  0  0  0  0  0
  -28.2331  -19.9585   19.6638 C   0  0  0  0  0  0  0  0  0  0  0  0
  -28.7627  -36.0228   23.1230 C   0  0  0  0  0  0  0  0  0  0  0  0
  -28.4607  -33.2581   23.0147 C   0  0  0  0  0  0  0  0  0  0  0  0
  -27.0519  -29.6663   19.7346 C   0  0  0  0  0  0  0  0  0  0  0  0
  -28.5146  -18.5982   19.7905 C   0  0  0  0  0  0  0  0  0  0  0  0
  -21.8390   -9.5731   21.2350 C   0  0  0  0  0  0  0  0  0  0  0  0
  -23.6507   -8.4132   22.3348 C   0  0  0  0  0  0  0  0  0  0  0  0
  -27.6669  -28.4206   19.8516 C   0  0  0  0  0  0  0  0  0  0  0  0
  -21.7708   -6.3838   24.6923 C   0  0  0  0  0  0  0  0  0  0  0  0
  -21.8967   -5.0230   24.9711 C   0  0  0  0  0  0  0  0  0  0  0  0
  -25.7348  -27.5839   21.0288 C   0  0  0  0  0  0  0  0  0  0  0  0
  -26.1655  -18.0894   19.5460 C   0  0  0  0  0  0  0  0  0  0  0  0
  -21.5444   -4.5119   22.6362 C   0  0  0  0  0  0  0  0  0  0  0  0
  -24.1043   -9.8397   20.4384 C   0  0  0  0  0  0  0  0  0  0  0  0
  -26.9178  -20.3842   19.4782 C   0  0  0  0  0  0  0  0  0  0  0  0
  -25.0515  -10.2782   18.1108 C   0  0  0  0  0  0  0  0  0  0  0  0
  -27.5232  -35.4526   23.4535 C   0  0  0  0  0  0  0  0  0  0  0  0
  -25.7760  -29.8836   20.2744 C   0  0  0  0  0  0  0  0  0  0  0  0
  -27.3716  -34.0536   23.4093 C   0  0  0  0  0  0  0  0  0  0  0  0
  -25.1047  -28.8325   20.9152 C   0  0  0  0  0  0  0  0  0  0  0  0
  -25.8840  -19.4496   19.4193 C   0  0  0  0  0  0  0  0  0  0  0  0
  -27.4808  -17.6637   19.7316 C   0  0  0  0  0  0  0  0  0  0  0  0
  -22.2917   -8.7110   22.2338 C   0  0  0  0  0  0  0  0  0  0  0  0
  -27.0096  -27.3799   20.5013 C   0  0  0  0  0  0  0  0  0  0  0  0
  -21.5317   -6.8088   23.3854 C   0  0  0  0  0  0  0  0  0  0  0  0
  -21.7835   -4.0870   23.9431 C   0  0  0  0  0  0  0  0  0  0  0  0
  -21.4185   -5.8728   22.3573 C   0  0  0  0  0  0  0  0  0  0  0  0
  -25.0409  -10.4219   19.5111 C   0  0  0  0  0  0  0  0  0  0  0  0
  -26.1309  -11.0204   17.6977 C   0  0  0  0  0  0  0  0  0  0  0  0
  -26.6723  -22.3959   18.1255 C   0  0  0  0  0  0  0  0  0  0  0  0
  -26.6520  -21.8338   19.3468 C   0  0  0  0  0  0  0  0  0  0  0  0
  -24.1649   -9.5400   17.2595 C   0  0  0  0  0  0  0  0  0  0  0  0
  -24.5841  -31.7996   22.5132 C   0  0  0  0  0  0  0  0  0  0  0  0
  -21.7542  -30.5832   21.4964 C   0  0  0  0  0  0  0  0  0  0  0  0
  -20.4726  -27.3528   20.5272 C   0  0  0  0  0  0  0  0  0  0  0  0
  -29.0155  -15.6923   20.0551 C   0  0  0  0  0  0  0  0  0  0  0  0
  -26.4075  -36.3574   23.9133 C   0  0  0  0  0  0  0  0  0  0  0  0
  -25.1152  -31.2256   20.1165 C   0  0  0  0  0  0  0  0  0  0  0  0
  -23.7254  -29.0085   21.4941 C   0  0  0  0  0  0  0  0  0  0  0  0
  -26.3989  -23.8371   17.8451 C   0  0  0  0  0  0  0  0  0  0  0  0
  -26.3085  -22.5962   20.6009 C   0  0  0  0  0  0  0  0  0  0  0  0
  -25.0344  -35.6907   23.8910 C   0  0  0  0  0  0  0  0  0  0  0  0
  -27.2032  -23.8053   20.8869 C   0  0  0  0  0  0  0  0  0  0  0  0
  -30.4219  -12.5387   19.1865 C   0  0  0  0  0  0  0  0  0  0  0  0
  -25.1038  -34.3041   24.5230 C   0  0  0  0  0  0  0  0  0  0  0  0
  -29.2021  -11.6264   19.0378 C   0  0  0  0  0  0  0  0  0  0  0  0
  -30.2412  -13.5469   20.3199 C   0  0  0  0  0  0  0  0  0  0  0  0
  -27.7899  -13.4315   20.1029 C   0  0  0  0  0  0  0  0  0  0  0  0
  -26.0534  -33.3884   23.7412 C   0  0  1  0  0  0  0  0  0  0  0  0
  -24.0269  -31.4816   21.1545 C   0  0  1  0  0  0  0  0  0  0  0  0
  -27.8983  -12.4415   18.9316 C   0  0  2  0  0  0  0  0  0  0  0  0
  -26.9342  -25.0475   20.0279 C   0  0  2  0  0  0  0  0  0  1  0  0
  -24.4630  -19.8695   19.2211 C   0  0  0  0  0  0  0  0  0  0  0  0
  -28.9638  -24.6408   16.7847 C   0  0  0  0  0  0  0  0  0  0  0  0
  -18.5915  -26.7401   18.9834 C   0  0  0  0  0  0  0  0  0  0  0  0
  -20.0724  -30.5162   24.0414 C   0  0  0  0  0  0  0  0  0  0  0  0
  -18.8691  -28.5277   23.1107 C   0  0  0  0  0  0  0  0  0  0  0  0
  -18.7549  -30.7197   21.9255 C   0  0  0  0  0  0  0  0  0  0  0  0
  -22.2299  -25.6324   18.8807 C   0  0  0  0  0  0  0  0  0  0  0  0
  -28.7448  -24.6661   18.2816 C   0  0  0  0  0  0  0  0  0  0  0  0
  -20.9059  -29.3921   21.8717 C   0  0  1  0  0  0  0  0  0  0  0  0
  -20.0963  -26.9076   19.1255 C   0  0  2  0  0  0  0  0  0  0  0  0
  -19.6788  -29.7886   22.7404 C   0  0  0  0  0  0  0  0  0  0  0  0
  -26.0347  -11.1945   19.9578 N   0  0  0  0  0  0  0  0  0  0  0  0
  -26.6800  -11.5428   18.8316 N   0  0  0  0  0  0  0  0  0  0  0  0
  -23.1238  -30.3409   21.3197 N   0  0  0  0  0  0  0  0  0  0  0  0
  -28.9875  -14.2848   20.1507 N   0  0  0  0  0  0  0  0  0  0  0  0
  -26.6545  -11.2704   16.4787 N   0  0  0  0  0  0  0  0  0  0  0  0
  -23.1076   -8.8332   17.8483 N   0  0  0  0  0  0  0  0  0  0  0  0
  -27.7666  -16.2821   19.8631 N   0  0  0  0  0  0  0  0  0  0  0  0
  -25.4123  -32.9055   22.5369 N   0  0  0  0  0  0  0  0  0  0  0  0
  -20.5618  -28.7256   20.6204 N   0  0  0  0  0  0  0  0  0  0  0  0
  -27.2748  -24.8376   18.5652 N   0  3  1  0  0  0  0  0  0  0  0  0
  -20.7466  -25.6060   18.8033 N   0  3  0  0  0  0  0  0  0  0  0  0
  -24.3158   -9.4949   16.0150 O   0  0  0  0  0  0  0  0  0  0  0  0
  -24.2837  -31.0948   23.4696 O   0  0  0  0  0  0  0  0  0  0  0  0
  -21.2201  -31.6865   21.3580 O   0  0  0  0  0  0  0  0  0  0  0  0
  -20.6643  -26.5620   21.4483 O   0  0  0  0  0  0  0  0  0  0  0  0
  -30.0728  -16.3256   20.1103 O   0  0  0  0  0  0  0  0  0  0  0  0
  -21.4077   -8.1602   23.1100 O   0  0  0  0  0  0  0  0  0  0  0  0
  -27.6079  -26.1632   20.6174 O   0  0  0  0  0  0  0  0  0  1  0  0
  -21.9060   -2.7803   24.2108 F   0  0  0  0  0  0  0  0  0  0  0  0
  -21.1900   -6.2751   21.0997 F   0  0  0  0  0  0  0  0  0  0  0  0
  1  2  1  0  0  0  0
  1  6  2  0  0  0  0
  2  7  2  0  0  0  0
  3 10  2  0  0  0  0
  3 18  1  0  0  0  0
  4 11  1  0  0  0  0
  4 18  2  0  0  0  0
  5  9  2  0  0  0  0
  5 19  1  0  0  0  0
  6 21  1  0  0  0  0
  7 23  1  0  0  0  0
  8 12  2  0  0  0  0
  8 22  1  0  0  0  0
  9 26  1  0  0  0  0
 10 27  1  0  0  0  0
 11 27  2  0  0  0  0
 12 28  1  0  0  0  0
 13 14  2  0  0  0  0
 13 29  1  0  0  0  0
 14 30  1  0  0  0  0
 15 24  1  0  0  0  0
 15 28  2  0  0  0  0
 16 25  1  0  0  0  0
 16 26  2  0  0  0  0
 17 30  2  0  0  0  0
 17 31  1  0  0  0  0
 18 32  1  0  0  0  0
 19 25  2  0  0  0  0
 19 35  1  0  0  0  0
 20 32  1  0  0  0  0
 20 33  2  0  0  0  0
 20 36  1  0  0  0  0
 21 23  2  0  0  0  0
 21 41  1  0  0  0  0
 22 24  2  0  0  0  0
 22 42  1  0  0  0  0
 23 53  1  0  0  0  0
 24 43  1  0  0  0  0
 25 57  1  0  0  0  0
 26 74  1  0  0  0  0
 27 84  1  0  0  0  0
 28 85  1  0  0  0  0
 29 31  2  0  0  0  0
 29 84  1  0  0  0  0
 30 86  1  0  0  0  0
 31 87  1  0  0  0  0
 32 68  2  0  0  0  0
 33 69  1  0  0  0  0
 33 72  1  0  0  0  0
 34 35  2  0  0  0  0
 34 44  1  0  0  0  0
 35 45  1  0  0  0  0
 36 73  1  0  0  0  0
 36 79  2  0  0  0  0
 37 54  1  0  0  0  0
 37 75  1  0  0  0  0
 37 80  2  0  0  0  0
 38 65  1  0  0  0  0
 38 70  1  0  0  0  0
 38 81  2  0  0  0  0
 39 66  1  0  0  0  0
 39 76  1  0  0  0  0
 39 82  2  0  0  0  0
 40 71  1  0  0  0  0
 40 74  1  0  0  0  0
 40 83  2  0  0  0  0
 41 46  1  0  0  0  0
 42 54  1  0  0  0  0
 43 70  1  0  0  0  0
 44 77  1  0  0  0  0
 45 47  1  0  0  0  0
 46 49  1  0  0  0  0
 47 56  1  0  0  0  0
 48 50  1  0  0  0  0
 48 51  1  0  0  0  0
 49 53  1  0  0  0  0
 50 55  1  0  0  0  0
 51 71  1  0  0  0  0
 52 55  1  0  0  0  0
 52 71  1  0  0  0  0
 53 75  1  0  0  0  0
 54 70  1  0  0  0  0
 55 69  1  0  0  0  0
 56 77  1  0  0  0  0
 56 85  1  0  0  0  0
 58 64  1  0  0  0  0
 59 66  1  0  0  0  0
 60 67  1  0  0  0  0
 61 67  1  0  0  0  0
 62 67  1  0  0  0  0
 63 78  1  0  0  0  0
 64 77  1  0  0  0  0
 65 67  1  0  0  0  0
 65 76  1  0  0  0  0
 66 78  1  0  0  0  0
 68 69  1  0  0  0  0
M  CHG  2  77   1  78   1
M  ISO  4  40 100  56 101  74 100  85 101
M  END
> <Batch ID>
0035

> <Smiles>
CCN1CC=C(c2ccc([100NH:0][100C:0](=O)N3CCCC(n4nc(-c5ccc(Oc6ccc(F)cc6F)cc5)c(C(N)=O)c4N)C3)cc2C)CC[101CH:1]1[101O:1]c1ccc2c(c1)CN(C(=O)C(NC(=O)C(C)NC)C(C)(C)C)C(C(=O)NC1CCCc3ccccc31)C2

> <Shape>
0.325

> <Color>
0.111

> <Negative vol penalty>
0.000

$$$$

  -OEChem-04042321513D

 87 96  0     1  0  0  0  0  0999 V2000
  -18.3885  -24.1895   21.0924 C   0  0  0  0  0  0  0  0  0  0  0  0
  -19.4829  -24.5349   20.3059 C   0  0  0  0  0  0  0  0  0  0  0  0
  -27.9089  -12.6690   20.4434 C   0  0  0  0  0  0  0  0  0  0  0  0
  -25.8820  -13.9704   20.2567 C   0  0  0  0  0  0  0  0  0  0  0  0
  -17.9755  -25.0360   22.1205 C   0  0  0  0  0  0  0  0  0  0  0  0
  -20.1642  -25.7275   20.5463 C   0  0  0  0  0  0  0  0  0  0  0  0
  -25.1936  -25.1399   20.4767 C   0  0  0  0  0  0  0  0  0  0  0  0
  -31.2430  -24.5718   21.5236 C   0  0  0  0  0  0  0  0  0  0  0  0
  -30.2873  -23.6475   21.9453 C   0  0  0  0  0  0  0  0  0  0  0  0
  -27.1714  -11.4966   20.2788 C   0  0  0  0  0  0  0  0  0  0  0  0
  -25.1444  -12.7980   20.0921 C   0  0  0  0  0  0  0  0  0  0  0  0
  -25.8068  -25.0497   19.2279 C   0  0  0  0  0  0  0  0  0  0  0  0
  -23.9141  -10.3328   22.0517 C   0  0  0  0  0  0  0  0  0  0  0  0
  -22.7273  -10.2071   22.7737 C   0  0  0  0  0  0  0  0  0  0  0  0
  -26.4510  -27.3692   19.3834 C   0  0  0  0  0  0  0  0  0  0  0  0
  -29.9472  -22.9547   19.6559 C   0  0  0  0  0  0  0  0  0  0  0  0
  -21.4921  -10.0016   20.7074 C   0  0  0  0  0  0  0  0  0  0  0  0
  -27.2642  -13.9059   20.4324 C   0  0  0  0  0  0  0  0  0  0  0  0
  -29.0707  -15.5868   19.7851 C   0  0  0  0  0  0  0  0  0  0  0  0
  -18.6580  -26.2349   22.3798 C   0  0  0  0  0  0  0  0  0  0  0  0
  -25.1950  -26.3504   21.1846 C   0  0  0  0  0  0  0  0  0  0  0  0
  -19.7591  -26.5915   21.5779 C   0  0  0  0  0  0  0  0  0  0  0  0
  -25.8393  -27.4714   20.6422 C   0  0  0  0  0  0  0  0  0  0  0  0
  -31.5507  -24.6877   20.1680 C   0  0  0  0  0  0  0  0  0  0  0  0
  -30.9029  -23.8791   19.2342 C   0  0  0  0  0  0  0  0  0  0  0  0
  -29.6394  -22.8389   21.0115 C   0  0  0  0  0  0  0  0  0  0  0  0
  -25.7892  -11.5611   20.1031 C   0  0  0  0  0  0  0  0  0  0  0  0
  -26.4332  -26.1652   18.6798 C   0  0  0  0  0  0  0  0  0  0  0  0
  -23.8899  -10.2931   20.6576 C   0  0  0  0  0  0  0  0  0  0  0  0
  -21.5163  -10.0414   22.1016 C   0  0  0  0  0  0  0  0  0  0  0  0
  -22.6790  -10.1274   19.9855 C   0  0  0  0  0  0  0  0  0  0  0  0
  -28.0255  -15.1173   20.6030 C   0  0  0  0  0  0  0  0  0  0  0  0
  -29.4590  -16.7681   20.3683 C   0  0  0  0  0  0  0  0  0  0  0  0
  -29.6397  -15.0069   18.6037 C   0  0  0  0  0  0  0  0  0  0  0  0
  -22.9476  -28.3427   22.2256 C   0  0  0  0  0  0  0  0  0  0  0  0
  -25.4654  -29.8294   23.6302 C   0  0  0  0  0  0  0  0  0  0  0  0
  -28.8517  -30.6902   22.7306 C   0  0  0  0  0  0  0  0  0  0  0  0
  -28.2485  -21.6550   22.7465 C   0  0  0  0  0  0  0  0  0  0  0  0
  -18.1455  -27.1404   23.4716 C   0  0  0  0  0  0  0  0  0  0  0  0
  -24.5521  -26.4241   22.5424 C   0  0  0  0  0  0  0  0  0  0  0  0
  -25.8864  -28.7888   21.3708 C   0  0  0  0  0  0  0  0  0  0  0  0
  -19.1511  -28.2053   23.9019 C   0  0  0  0  0  0  0  0  0  0  0  0
  -30.0936  -27.9299   16.1895 C   0  0  0  0  0  0  0  0  0  0  0  0
  -28.2473  -18.7830   24.8509 C   0  0  0  0  0  0  0  0  0  0  0  0
  -19.7714  -28.8779   22.6814 C   0  0  0  0  0  0  0  0  0  0  0  0
  -28.2754  -17.6119   23.8661 C   0  0  0  0  0  0  0  0  0  0  0  0
  -28.6416  -27.5788   16.5060 C   0  0  0  0  0  0  0  0  0  0  0  0
  -30.7458  -26.9191   15.2476 C   0  0  0  0  0  0  0  0  0  0  0  0
  -27.3969  -19.9408   24.3312 C   0  0  0  0  0  0  0  0  0  0  0  0
  -27.7734  -19.2401   21.9995 C   0  0  0  0  0  0  0  0  0  0  0  0
  -29.1297  -25.0841   16.9370 C   0  0  0  0  0  0  0  0  0  0  0  0
  -20.5391  -27.8648   21.8237 C   0  0  1  0  0  0  0  0  0  0  0  0
  -24.1687  -27.8446   22.9457 C   0  0  1  0  0  0  0  0  0  0  0  0
  -28.6704  -18.0756   22.4502 C   0  0  2  0  0  0  0  0  0  0  0  0
  -28.4339  -26.3592   17.4030 C   0  0  2  0  0  0  0  0  0  1  0  0
  -31.4038  -25.7022   15.9163 C   0  0  2  0  0  0  0  0  0  0  0  0
  -32.5769  -25.6850   19.7404 C   0  0  0  0  0  0  0  0  0  0  0  0
  -31.6330  -24.5874   14.8943 C   0  0  0  0  0  0  0  0  0  0  0  0
  -30.8831  -31.0344   24.1631 C   0  0  0  0  0  0  0  0  0  0  0  0
  -24.6674  -32.7733   23.5489 C   0  0  0  0  0  0  0  0  0  0  0  0
  -27.0975  -33.3559   23.3964 C   0  0  0  0  0  0  0  0  0  0  0  0
  -26.2258  -32.1659   25.4081 C   0  0  0  0  0  0  0  0  0  0  0  0
  -30.4061  -28.6814   21.2115 C   0  0  0  0  0  0  0  0  0  0  0  0
  -31.2190  -23.9845   17.7714 C   0  0  0  0  0  0  0  0  0  0  0  0
  -26.4301  -30.9157   23.2201 C   0  0  1  0  0  0  0  0  0  0  0  0
  -30.1234  -30.0632   23.2729 C   0  0  2  0  0  0  0  0  0  0  0  0
  -26.0932  -32.2854   23.8742 C   0  0  0  0  0  0  0  0  0  0  0  0
  -27.7663  -15.9337   21.6278 N   0  0  0  0  0  0  0  0  0  0  0  0
  -28.6544  -16.9280   21.4579 N   0  0  0  0  0  0  0  0  0  0  0  0
  -25.2382  -28.8122   22.6924 N   0  0  0  0  0  0  0  0  0  0  0  0
  -27.8311  -20.3289   22.9874 N   0  0  0  0  0  0  0  0  0  0  0  0
  -30.4069  -17.6752   20.0504 N   0  0  0  0  0  0  0  0  0  0  0  0
  -29.0889  -15.3469   17.3606 N   0  0  0  0  0  0  0  0  0  0  0  0
  -28.6699  -21.8984   21.4397 N   0  0  0  0  0  0  0  0  0  0  0  0
  -21.8222  -27.5653   22.4222 N   0  0  0  0  0  0  0  0  0  0  0  0
  -27.7645  -30.4161   23.5332 N   0  0  0  0  0  0  0  0  0  0  0  0
  -30.6243  -25.2124   17.1246 N   0  3  2  0  0  0  0  0  0  0  0  0
  -31.0176  -29.6542   22.1531 N   0  3  0  0  0  0  0  0  0  0  0  0
  -30.5974  -14.1980   18.6503 O   0  0  0  0  0  0  0  0  0  0  0  0
  -23.0206  -29.3581   21.5434 O   0  0  0  0  0  0  0  0  0  0  0  0
  -24.9384  -29.8777   24.7445 O   0  0  0  0  0  0  0  0  0  0  0  0
  -28.8260  -31.3595   21.7001 O   0  0  0  0  0  0  0  0  0  0  0  0
  -28.2590  -22.5047   23.6409 O   0  0  0  0  0  0  0  0  0  0  0  0
  -25.0692  -10.4173   19.9423 O   0  0  0  0  0  0  0  0  0  0  0  0
  -27.0320  -26.0800   17.4607 O   0  0  0  0  0  0  0  0  0  1  0  0
  -20.3769   -9.9191   22.7950 F   0  0  0  0  0  0  0  0  0  0  0  0
  -22.6496  -10.0872   18.6463 F   0  0  0  0  0  0  0  0  0  0  0  0
  1  2  1  0  0  0  0
  1  5  2  0  0  0  0
  2  6  2  0  0  0  0
  3 10  2  0  0  0  0
  3 18  1  0  0  0  0
  4 11  1  0  0  0  0
  4 18  2  0  0  0  0
  5 20  1  0  0  0  0
  6 22  1  0  0  0  0
  7 12  2  0  0  0  0
  7 21  1  0  0  0  0
  8  9  2  0  0  0  0
  8 24  1  0  0  0  0
  9 26  1  0  0  0  0
 10 27  1  0  0  0  0
 11 27  2  0  0  0  0
 12 28  1  0  0  0  0
 13 14  2  0  0  0  0
 13 29  1  0  0  0  0
 14 30  1  0  0  0  0
 15 23  1  0  0  0  0
 15 28  2  0  0  0  0
 16 25  1  0  0  0  0
 16 26  2  0  0  0  0
 17 30  2  0  0  0  0
 17 31  1  0  0  0  0
 18 32  1  0  0  0  0
 19 32  1  0  0  0  0
 19 33  2  0  0  0  0
 19 34  1  0  0  0  0
 20 22  2  0  0  0  0
 20 39  1  0  0  0  0
 21 23  2  0  0  0  0
 21 40  1  0  0  0  0
 22 52  1  0  0  0  0
 23 41  1  0  0  0  0
 24 25  2  0  0  0  0
 24 57  1  0  0  0  0
 25 64  1  0  0  0  0
 26 74  1  0  0  0  0
 27 84  1  0  0  0  0
 28 85  1  0  0  0  0
 29 31  2  0  0  0  0
 29 84  1  0  0  0  0
 30 86  1  0  0  0  0
 31 87  1  0  0  0  0
 32 68  2  0  0  0  0
 33 69  1  0  0  0  0
 33 72  1  0  0  0  0
 34 73  1  0  0  0  0
 34 79  2  0  0  0  0
 35 53  1  0  0  0  0
 35 75  1  0  0  0  0
 35 80  2  0  0  0  0
 36 65  1  0  0  0  0
 36 70  1  0  0  0  0
 36 81  2  0  0  0  0
 37 66  1  0  0  0  0
 37 76  1  0  0  0  0
 37 82  2  0  0  0  0
 38 71  1  0  0  0  0
 38 74  1  0  0  0  0
 38 83  2  0  0  0  0
 39 42  1  0  0  0  0
 40 53  1  0  0  0  0
 41 70  1  0  0  0  0
 42 45  1  0  0  0  0
 43 47  1  0  0  0  0
 43 48  1  0  0  0  0
 44 46  1  0  0  0  0
 44 49  1  0  0  0  0
 45 52  1  0  0  0  0
 46 54  1  0  0  0  0
 47 55  1  0  0  0  0
 48 56  1  0  0  0  0
 49 71  1  0  0  0  0
 50 54  1  0  0  0  0
 50 71  1  0  0  0  0
 51 55  1  0  0  0  0
 51 77  1  0  0  0  0
 52 75  1  0  0  0  0
 53 70  1  0  0  0  0
 54 69  1  0  0  0  0
 55 85  1  0  0  0  0
 56 58  1  0  0  0  0
 56 77  1  0  0  0  0
 59 66  1  0  0  0  0
 60 67  1  0  0  0  0
 61 67  1  0  0  0  0
 62 67  1  0  0  0  0
 63 78  1  0  0  0  0
 64 77  1  0  0  0  0
 65 67  1  0  0  0  0
 65 76  1  0  0  0  0
 66 78  1  0  0  0  0
 68 69  1  0  0  0  0
M  CHG  2  77   1  78   1
M  ISO  4  38 100  55 101  74 100  85 101
M  END
> <Batch ID>
0035

> <Smiles>
CNC(C)C(=O)NC(C(=O)N1Cc2cc([101O:1][101CH:1]3CCCC(C)N(Cc4cc([100NH:0][100C:0](=O)N5CCCC(n6nc(-c7ccc(Oc8ccc(F)cc8F)cc7)c(C(N)=O)c6N)C5)ccc4C)C3)ccc2CC1C(=O)NC1CCCc2ccccc21)C(C)(C)C

> <Shape>
0.279

> <Color>
0.049

> <Negative vol penalty>
0.000

$$$$

  -OEChem-04042321513D

 95105  0     1  0  0  0  0  0999 V2000
  -20.2163  -18.6441   21.8192 C   0  0  0  0  0  0  0  0  0  0  0  0
  -21.4806  -18.0640   21.7957 C   0  0  0  0  0  0  0  0  0  0  0  0
  -23.3962  -30.3515   24.6238 C   0  0  0  0  0  0  0  0  0  0  0  0
  -22.3687  -31.1605   22.5923 C   0  0  0  0  0  0  0  0  0  0  0  0
  -19.1803  -18.0269   22.5189 C   0  0  0  0  0  0  0  0  0  0  0  0
  -21.7098  -16.8669   22.4731 C   0  0  0  0  0  0  0  0  0  0  0  0
  -24.3762  -13.5569   19.7200 C   0  0  0  0  0  0  0  0  0  0  0  0
  -22.1361  -30.2116   25.2054 C   0  0  0  0  0  0  0  0  0  0  0  0
  -21.1086  -31.0206   23.1739 C   0  0  0  0  0  0  0  0  0  0  0  0
  -25.7524  -13.7632   19.6336 C   0  0  0  0  0  0  0  0  0  0  0  0
  -18.9256  -28.5212   23.8128 C   0  0  0  0  0  0  0  0  0  0  0  0
  -17.9218  -27.9293   23.0462 C   0  0  0  0  0  0  0  0  0  0  0  0
  -26.1049  -12.0780   21.3233 C   0  0  0  0  0  0  0  0  0  0  0  0
  -29.0647  -18.5962   21.7633 C   0  0  0  0  0  0  0  0  0  0  0  0
  -16.5964  -29.9411   23.2286 C   0  0  0  0  0  0  0  0  0  0  0  0
  -23.5125  -30.8260   23.3173 C   0  0  0  0  0  0  0  0  0  0  0  0
  -25.8738  -31.7797   23.1686 C   0  0  0  0  0  0  0  0  0  0  0  0
  -19.3945  -16.8166   23.1972 C   0  0  0  0  0  0  0  0  0  0  0  0
  -23.8525  -12.6158   20.6180 C   0  0  0  0  0  0  0  0  0  0  0  0
  -20.6760  -16.2336   23.1837 C   0  0  0  0  0  0  0  0  0  0  0  0
  -24.7219  -11.8599   21.4173 C   0  0  0  0  0  0  0  0  0  0  0  0
  -28.7694  -19.9052   21.3827 C   0  0  0  0  0  0  0  0  0  0  0  0
  -30.1024  -17.9052   21.1377 C   0  0  0  0  0  0  0  0  0  0  0  0
  -30.8448  -18.5233   20.1315 C   0  0  0  0  0  0  0  0  0  0  0  0
  -30.5496  -19.8324   19.7509 C   0  0  0  0  0  0  0  0  0  0  0  0
  -29.5118  -20.5233   20.3765 C   0  0  0  0  0  0  0  0  0  0  0  0
  -20.9923  -30.5461   24.4805 C   0  0  0  0  0  0  0  0  0  0  0  0
  -26.6168  -13.0258   20.4374 C   0  0  0  0  0  0  0  0  0  0  0  0
  -18.7648  -29.8230   24.2873 C   0  0  0  0  0  0  0  0  0  0  0  0
  -16.7572  -28.6393   22.7541 C   0  0  0  0  0  0  0  0  0  0  0  0
  -17.6002  -30.5329   23.9952 C   0  0  0  0  0  0  0  0  0  0  0  0
  -24.8139  -30.9712   22.7161 C   0  0  0  0  0  0  0  0  0  0  0  0
  -26.8808  -31.5664   22.2591 C   0  0  0  0  0  0  0  0  0  0  0  0
  -30.7121  -23.2472   21.3221 C   0  0  0  0  0  0  0  0  0  0  0  0
  -30.7125  -14.5802   19.9599 C   0  0  0  0  0  0  0  0  0  0  0  0
  -31.3227  -22.6969   22.3823 C   0  0  0  0  0  0  0  0  0  0  0  0
  -25.9422  -32.6460   24.3090 C   0  0  0  0  0  0  0  0  0  0  0  0
  -21.9131  -12.7522   23.1327 C   0  0  0  0  0  0  0  0  0  0  0  0
  -22.1388   -9.5194   22.9914 C   0  0  0  0  0  0  0  0  0  0  0  0
  -23.0095   -6.2564   22.4999 C   0  0  0  0  0  0  0  0  0  0  0  0
  -28.1608  -27.0142   18.5862 C   0  0  0  0  0  0  0  0  0  0  0  0
  -18.2558  -16.2113   23.9792 C   0  0  0  0  0  0  0  0  0  0  0  0
  -22.3673  -12.3862   20.6800 C   0  0  0  0  0  0  0  0  0  0  0  0
  -24.2114  -10.8230   22.3831 C   0  0  0  0  0  0  0  0  0  0  0  0
  -31.3948  -24.2116   20.3917 C   0  0  0  0  0  0  0  0  0  0  0  0
  -29.8290  -13.8648   18.9638 C   0  0  0  0  0  0  0  0  0  0  0  0
  -18.4864  -14.7510   24.3594 C   0  0  0  0  0  0  0  0  0  0  0  0
  -30.5495  -25.4701   20.2135 C   0  0  0  0  0  0  0  0  0  0  0  0
  -27.6010  -30.4097   17.6728 C   0  0  0  0  0  0  0  0  0  0  0  0
  -19.8902  -14.5621   24.9256 C   0  0  0  0  0  0  0  0  0  0  0  0
  -26.9188  -31.0116   18.9026 C   0  0  0  0  0  0  0  0  0  0  0  0
  -27.1624  -28.9666   17.4338 C   0  0  0  0  0  0  0  0  0  0  0  0
  -26.6396  -28.6725   19.8242 C   0  0  0  0  0  0  0  0  0  0  0  0
  -28.5547  -15.5372   20.1387 C   0  0  0  0  0  0  0  0  0  0  0  0
  -28.5011  -24.1726   20.9278 C   0  0  0  0  0  0  0  0  0  0  0  0
  -20.9577  -14.9228   23.8855 C   0  0  1  0  0  0  0  0  0  0  0  0
  -21.9130  -11.7671   21.9982 C   0  0  1  0  0  0  0  0  0  0  0  0
  -27.0928  -30.1085   20.1385 C   0  0  2  0  0  0  0  0  0  0  0  0
  -29.0976  -25.1150   19.8802 C   0  0  1  0  0  0  0  0  0  0  0  0
  -28.4146  -14.2046   19.4264 C   0  0  2  0  0  0  0  0  0  1  0  0
  -27.6528  -20.6227   22.0682 C   0  0  0  0  0  0  0  0  0  0  0  0
  -31.9567  -17.7796   19.4617 C   0  0  0  0  0  0  0  0  0  0  0  0
  -31.3463  -20.4956   18.6720 C   0  0  0  0  0  0  0  0  0  0  0  0
  -22.6297   -3.9553   23.4262 C   0  0  0  0  0  0  0  0  0  0  0  0
  -24.0065  -10.1511   25.3199 C   0  0  0  0  0  0  0  0  0  0  0  0
  -24.3416   -7.6892   25.6282 C   0  0  0  0  0  0  0  0  0  0  0  0
  -22.0697   -8.6814   25.9053 C   0  0  0  0  0  0  0  0  0  0  0  0
  -21.8358   -5.3003   19.9568 C   0  0  0  0  0  0  0  0  0  0  0  0
  -30.4002  -16.4976   21.5667 C   0  0  0  0  0  0  0  0  0  0  0  0
  -29.1932  -21.9275   19.9704 C   0  0  0  0  0  0  0  0  0  0  0  0
  -23.0622   -8.4850   23.5884 C   0  0  1  0  0  0  0  0  0  0  0  0
  -22.1728   -4.9928   22.4126 C   0  0  2  0  0  0  0  0  0  0  0  0
  -23.3757   -8.7640   25.0855 C   0  0  0  0  0  0  0  0  0  0  0  0
  -25.1190  -30.2949   21.6055 N   0  0  0  0  0  0  0  0  0  0  0  0
  -26.3820  -30.6780   21.3524 N   0  0  0  0  0  0  0  0  0  0  0  0
  -29.9232  -15.5262   20.6060 N   0  0  0  0  0  0  0  0  0  0  0  0
  -22.7509  -10.6396   22.4116 N   0  0  0  0  0  0  0  0  0  0  0  0
  -27.3546  -28.1631   18.6435 N   0  0  0  0  0  0  0  0  0  0  0  0
  -28.1352  -32.0540   22.1546 N   0  0  0  0  0  0  0  0  0  0  0  0
  -25.5536  -33.9839   24.1560 N   0  0  0  0  0  0  0  0  0  0  0  0
  -21.1058  -13.8536   22.9215 N   0  0  0  0  0  0  0  0  0  0  0  0
  -22.4391   -7.1895   23.3397 N   0  0  0  0  0  0  0  0  0  0  0  0
  -28.2954  -26.3137   19.7787 N   0  0  0  0  0  0  0  0  0  0  0  0
  -29.3269  -22.9152   21.0965 N   0  3  1  0  0  0  0  0  0  0  0  0
  -22.2758   -4.3964   21.0507 N   0  3  0  0  0  0  0  0  0  0  0  0
  -31.9071  -14.3665   20.1053 O   0  0  0  0  0  0  0  0  0  0  0  0
  -26.3517  -32.2496   25.4264 O   0  0  0  0  0  0  0  0  0  0  0  0
  -22.5940  -12.5289   24.1267 O   0  0  0  0  0  0  0  0  0  0  0  0
  -20.9195   -9.3366   23.0314 O   0  0  0  0  0  0  0  0  0  0  0  0
  -24.0654   -6.3997   21.8876 O   0  0  0  0  0  0  0  0  0  0  0  0
  -28.7235  -26.6434   17.5504 O   0  0  0  0  0  0  0  0  0  0  0  0
  -19.7626  -30.4095   25.0476 O   0  0  0  0  0  0  0  0  0  0  0  0
  -27.9604  -13.2256   20.3555 O   0  0  0  0  0  0  0  0  0  1  0  0
  -15.7940  -28.0713   22.0166 F   0  0  0  0  0  0  0  0  0  0  0  0
  -17.4405  -31.7843   24.4473 F   0  0  0  0  0  0  0  0  0  0  0  0
  1  2  1  0  0  0  0
  1  5  2  0  0  0  0
  2  6  2  0  0  0  0
  3  8  2  0  0  0  0
  3 16  1  0  0  0  0
  4  9  1  0  0  0  0
  4 16  2  0  0  0  0
  5 18  1  0  0  0  0
  6 20  1  0  0  0  0
  7 10  2  0  0  0  0
  7 19  1  0  0  0  0
  8 27  1  0  0  0  0
  9 27  2  0  0  0  0
 10 28  1  0  0  0  0
 11 12  2  0  0  0  0
 11 29  1  0  0  0  0
 12 30  1  0  0  0  0
 13 21  1  0  0  0  0
 13 28  2  0  0  0  0
 14 22  2  0  0  0  0
 14 23  1  0  0  0  0
 15 30  2  0  0  0  0
 15 31  1  0  0  0  0
 16 32  1  0  0  0  0
 17 32  1  0  0  0  0
 17 33  2  0  0  0  0
 17 37  1  0  0  0  0
 18 20  2  0  0  0  0
 18 42  1  0  0  0  0
 19 21  2  0  0  0  0
 19 43  1  0  0  0  0
 20 56  1  0  0  0  0
 21 44  1  0  0  0  0
 22 26  1  0  0  0  0
 22 61  1  0  0  0  0
 23 24  2  0  0  0  0
 23 69  1  0  0  0  0
 24 25  1  0  0  0  0
 24 62  1  0  0  0  0
 25 26  2  0  0  0  0
 25 63  1  0  0  0  0
 26 70  1  0  0  0  0
 27 92  1  0  0  0  0
 28 93  1  0  0  0  0
 29 31  2  0  0  0  0
 29 92  1  0  0  0  0
 30 94  1  0  0  0  0
 31 95  1  0  0  0  0
 32 74  2  0  0  0  0
 33 75  1  0  0  0  0
 33 79  1  0  0  0  0
 34 36  2  0  0  0  0
 34 45  1  0  0  0  0
 34 84  1  0  0  0  0
 35 46  1  0  0  0  0
 35 76  1  0  0  0  0
 35 86  2  0  0  0  0
 37 80  1  0  0  0  0
 37 87  2  0  0  0  0
 38 57  1  0  0  0  0
 38 81  1  0  0  0  0
 38 88  2  0  0  0  0
 39 71  1  0  0  0  0
 39 77  1  0  0  0  0
 39 89  2  0  0  0  0
 40 72  1  0  0  0  0
 40 82  1  0  0  0  0
 40 90  2  0  0  0  0
 41 78  1  0  0  0  0
 41 83  1  0  0  0  0
 41 91  2  0  0  0  0
 42 47  1  0  0  0  0
 43 57  1  0  0  0  0
 44 77  1  0  0  0  0
 45 48  1  0  0  0  0
 46 60  1  0  0  0  0
 47 50  1  0  0  0  0
 48 59  1  0  0  0  0
 49 51  1  0  0  0  0
 49 52  1  0  0  0  0
 50 56  1  0  0  0  0
 51 58  1  0  0  0  0
 52 78  1  0  0  0  0
 53 58  1  0  0  0  0
 53 78  1  0  0  0  0
 54 60  1  0  0  0  0
 54 76  1  0  0  0  0
 55 59  1  0  0  0  0
 55 84  1  0  0  0  0
 56 81  1  0  0  0  0
 57 77  1  0  0  0  0
 58 75  1  0  0  0  0
 59 83  1  0  0  0  0
 60 93  1  0  0  0  0
 64 72  1  0  0  0  0
 65 73  1  0  0  0  0
 66 73  1  0  0  0  0
 67 73  1  0  0  0  0
 68 85  1  0  0  0  0
 69 76  1  0  0  0  0
 70 84  1  0  0  0  0
 71 73  1  0  0  0  0
 71 82  1  0  0  0  0
 72 85  1  0  0  0  0
 74 75  1  0  0  0  0
M  CHG  2  84   1  85   1
M  ISO  4  41 100  60 101  83 100  93 101
M  END
> <Batch ID>
0035

> <Smiles>
C=C1CCC([100NH:0][100C:0](=O)N2CCCC(n3nc(-c4ccc(Oc5ccc(F)cc5F)cc4)c(C(N)=O)c3N)C2)CN1Cc1c(C)cc(CN2C[101CH:1]([101O:1]c3ccc4c(c3)CN(C(=O)C(NC(=O)C(C)NC)C(C)(C)C)C(C(=O)NC3CCCc5ccccc53)C4)CC2=O)c(C)c1C

> <Shape>
0.318

> <Color>
0.071

> <Negative vol penalty>
0.000

$$$$

  -OEChem-04042321513D

 86 95  0     1  0  0  0  0  0999 V2000
  -20.7949  -33.1565   25.5180 C   0  0  0  0  0  0  0  0  0  0  0  0
  -22.0394  -32.6905   25.1062 C   0  0  0  0  0  0  0  0  0  0  0  0
  -30.8141  -20.2934   15.5251 C   0  0  0  0  0  0  0  0  0  0  0  0
  -24.1555  -13.8647   21.5598 C   0  0  0  0  0  0  0  0  0  0  0  0
  -25.8905  -13.9732   19.8820 C   0  0  0  0  0  0  0  0  0  0  0  0
  -19.6721  -32.3382   25.4016 C   0  0  0  0  0  0  0  0  0  0  0  0
  -22.1620  -31.4055   24.5789 C   0  0  0  0  0  0  0  0  0  0  0  0
  -25.9779  -29.5944   20.1444 C   0  0  0  0  0  0  0  0  0  0  0  0
  -29.6155  -20.0734   14.8466 C   0  0  0  0  0  0  0  0  0  0  0  0
  -30.8306  -21.0858   16.6729 C   0  0  0  0  0  0  0  0  0  0  0  0
  -24.3547  -12.4891   21.6768 C   0  0  0  0  0  0  0  0  0  0  0  0
  -26.0897  -12.5976   19.9990 C   0  0  0  0  0  0  0  0  0  0  0  0
  -27.2160  -28.9541   20.1759 C   0  0  0  0  0  0  0  0  0  0  0  0
  -23.5044   -9.6959   19.9739 C   0  0  0  0  0  0  0  0  0  0  0  0
  -22.3744   -8.8790   20.0096 C   0  0  0  0  0  0  0  0  0  0  0  0
  -26.1192  -26.8305   19.8493 C   0  0  0  0  0  0  0  0  0  0  0  0
  -23.0265   -8.0724   22.1917 C   0  0  0  0  0  0  0  0  0  0  0  0
  -24.9234  -14.6067   20.6624 C   0  0  0  0  0  0  0  0  0  0  0  0
  -24.8552  -16.9963   21.5529 C   0  0  0  0  0  0  0  0  0  0  0  0
  -19.7793  -31.0460   24.8636 C   0  0  0  0  0  0  0  0  0  0  0  0
  -24.7983  -28.8551   19.9758 C   0  0  0  0  0  0  0  0  0  0  0  0
  -21.0398  -30.5686   24.4565 C   0  0  0  0  0  0  0  0  0  0  0  0
  -24.8677  -27.4641   19.8134 C   0  0  0  0  0  0  0  0  0  0  0  0
  -28.4333  -20.6460   15.3157 C   0  0  0  0  0  0  0  0  0  0  0  0
  -29.6483  -21.6585   17.1421 C   0  0  0  0  0  0  0  0  0  0  0  0
  -28.4497  -21.4385   16.4635 C   0  0  0  0  0  0  0  0  0  0  0  0
  -25.3217  -11.8555   20.8964 C   0  0  0  0  0  0  0  0  0  0  0  0
  -27.2866  -27.5717   20.0312 C   0  0  0  0  0  0  0  0  0  0  0  0
  -24.3955   -9.7011   21.0471 C   0  0  0  0  0  0  0  0  0  0  0  0
  -22.1354   -8.0672   21.1185 C   0  0  0  0  0  0  0  0  0  0  0  0
  -24.1565   -8.8893   22.1560 C   0  0  0  0  0  0  0  0  0  0  0  0
  -24.7178  -16.0276   20.5406 C   0  0  0  0  0  0  0  0  0  0  0  0
  -24.5524  -18.1846   20.9344 C   0  0  0  0  0  0  0  0  0  0  0  0
  -25.2236  -16.8361   22.9292 C   0  0  0  0  0  0  0  0  0  0  0  0
  -22.1905  -28.3623   21.7250 C   0  0  0  0  0  0  0  0  0  0  0  0
  -21.1749  -26.8053   19.0667 C   0  0  0  0  0  0  0  0  0  0  0  0
  -21.9806  -25.1486   16.1939 C   0  0  0  0  0  0  0  0  0  0  0  0
  -24.8048  -19.9936   15.2322 C   0  0  0  0  0  0  0  0  0  0  0  0
  -18.5455  -30.1808   24.8015 C   0  0  0  0  0  0  0  0  0  0  0  0
  -23.4729  -29.5637   19.9173 C   0  0  0  0  0  0  0  0  0  0  0  0
  -23.6324  -26.6270   19.6093 C   0  0  0  0  0  0  0  0  0  0  0  0
  -18.6966  -28.9693   23.8851 C   0  0  0  0  0  0  0  0  0  0  0  0
  -21.9425  -19.9816   17.3496 C   0  0  0  0  0  0  0  0  0  0  0  0
  -30.6859  -25.9973   17.1718 C   0  0  0  0  0  0  0  0  0  0  0  0
  -20.0227  -28.2629   24.1484 C   0  0  0  0  0  0  0  0  0  0  0  0
  -22.3416  -19.0543   18.4989 C   0  0  0  0  0  0  0  0  0  0  0  0
  -30.1442  -26.8198   18.3335 C   0  0  0  0  0  0  0  0  0  0  0  0
  -22.5067  -19.5007   16.0145 C   0  0  0  0  0  0  0  0  0  0  0  0
  -24.3631  -18.3467   17.1529 C   0  0  0  0  0  0  0  0  0  0  0  0
  -30.8831  -24.5386   17.5593 C   0  0  0  0  0  0  0  0  0  0  0  0
  -29.0720  -24.7437   19.2820 C   0  0  0  0  0  0  0  0  0  0  0  0
  -21.2090  -29.1897   23.8564 C   0  0  1  0  0  0  0  0  0  0  0  0
  -22.2945  -28.6556   20.2551 C   0  0  1  0  0  0  0  0  0  0  0  0
  -23.8641  -18.8212   18.5285 C   0  0  2  0  0  0  0  0  0  0  0  0
  -28.8700  -26.2053   18.9044 C   0  0  1  0  0  0  0  0  0  1  0  0
  -27.1820  -22.0526   16.9665 C   0  0  0  0  0  0  0  0  0  0  0  0
  -20.9360  -23.9587   14.2470 C   0  0  0  0  0  0  0  0  0  0  0  0
  -20.6076  -24.3938   20.8480 C   0  0  0  0  0  0  0  0  0  0  0  0
  -20.4884  -22.9839   18.7825 C   0  0  0  0  0  0  0  0  0  0  0  0
  -18.8611  -24.8450   19.1158 C   0  0  0  0  0  0  0  0  0  0  0  0
  -23.1439  -27.0573   14.2542 C   0  0  0  0  0  0  0  0  0  0  0  0
  -27.1630  -20.3946   14.5708 C   0  0  0  0  0  0  0  0  0  0  0  0
  -29.6933  -22.5064   18.3790 C   0  0  0  0  0  0  0  0  0  0  0  0
  -21.2668  -25.3870   18.5578 C   0  0  1  0  0  0  0  0  0  0  0  0
  -21.4625  -25.2848   14.7735 C   0  0  2  0  0  0  0  0  0  0  0  0
  -20.3293  -24.4177   19.3318 C   0  0  0  0  0  0  0  0  0  0  0  0
  -24.3557  -16.5550   19.3681 N   0  0  0  0  0  0  0  0  0  0  0  0
  -24.2630  -17.8679   19.6398 N   0  0  0  0  0  0  0  0  0  0  0  0
  -22.3594  -27.3654   19.5657 N   0  0  0  0  0  0  0  0  0  0  0  0
  -23.9548  -19.3006   16.1097 N   0  0  0  0  0  0  0  0  0  0  0  0
  -24.5081  -19.4592   21.3771 N   0  0  0  0  0  0  0  0  0  0  0  0
  -26.5812  -16.9074   23.2701 N   0  0  0  0  0  0  0  0  0  0  0  0
  -21.4389  -29.2825   22.4306 N   0  0  0  0  0  0  0  0  0  0  0  0
  -21.0079  -25.4504   17.1234 N   0  0  0  0  0  0  0  0  0  0  0  0
  -26.1635  -19.7513   15.3941 N   0  0  0  0  0  0  0  0  0  0  0  0
  -29.5846  -23.9780   18.0889 N   0  3  2  0  0  0  0  0  0  0  0  0
  -22.5502  -25.7515   13.8679 N   0  3  0  0  0  0  0  0  0  0  0  0
  -24.3756  -16.6195   23.8278 O   0  0  0  0  0  0  0  0  0  0  0  0
  -22.7495  -27.3735   22.1848 O   0  0  0  0  0  0  0  0  0  0  0  0
  -20.0936  -27.3969   19.0166 O   0  0  0  0  0  0  0  0  0  0  0  0
  -23.1318  -24.8050   16.4530 O   0  0  0  0  0  0  0  0  0  0  0  0
  -24.3845  -20.7747   14.3719 O   0  0  0  0  0  0  0  0  0  0  0  0
  -25.5165  -10.5133   21.0105 O   0  0  0  0  0  0  0  0  0  0  0  0
  -28.4937  -26.9441   20.0622 O   0  0  0  0  0  0  0  0  0  1  0  0
  -21.0494   -7.2839   21.1533 F   0  0  0  0  0  0  0  0  0  0  0  0
  -25.0083   -8.8909   23.1905 F   0  0  0  0  0  0  0  0  0  0  0  0
  1  2  1  0  0  0  0
  1  6  2  0  0  0  0
  2  7  2  0  0  0  0
  3  9  1  0  0  0  0
  3 10  2  0  0  0  0
  4 11  2  0  0  0  0
  4 18  1  0  0  0  0
  5 12  1  0  0  0  0
  5 18  2  0  0  0  0
  6 20  1  0  0  0  0
  7 22  1  0  0  0  0
  8 13  2  0  0  0  0
  8 21  1  0  0  0  0
  9 24  2  0  0  0  0
 10 25  1  0  0  0  0
 11 27  1  0  0  0  0
 12 27  2  0  0  0  0
 13 28  1  0  0  0  0
 14 15  2  0  0  0  0
 14 29  1  0  0  0  0
 15 30  1  0  0  0  0
 16 23  1  0  0  0  0
 16 28  2  0  0  0  0
 17 30  2  0  0  0  0
 17 31  1  0  0  0  0
 18 32  1  0  0  0  0
 19 32  1  0  0  0  0
 19 33  2  0  0  0  0
 19 34  1  0  0  0  0
 20 22  2  0  0  0  0
 20 39  1  0  0  0  0
 21 23  2  0  0  0  0
 21 40  1  0  0  0  0
 22 52  1  0  0  0  0
 23 41  1  0  0  0  0
 24 26  1  0  0  0  0
 24 62  1  0  0  0  0
 25 26  2  0  0  0  0
 25 63  1  0  0  0  0
 26 56  1  0  0  0  0
 27 83  1  0  0  0  0
 28 84  1  0  0  0  0
 29 31  2  0  0  0  0
 29 83  1  0  0  0  0
 30 85  1  0  0  0  0
 31 86  1  0  0  0  0
 32 67  2  0  0  0  0
 33 68  1  0  0  0  0
 33 71  1  0  0  0  0
 34 72  1  0  0  0  0
 34 78  2  0  0  0  0
 35 53  1  0  0  0  0
 35 73  1  0  0  0  0
 35 79  2  0  0  0  0
 36 64  1  0  0  0  0
 36 69  1  0  0  0  0
 36 80  2  0  0  0  0
 37 65  1  0  0  0  0
 37 74  1  0  0  0  0
 37 81  2  0  0  0  0
 38 70  1  0  0  0  0
 38 75  1  0  0  0  0
 38 82  2  0  0  0  0
 39 42  1  0  0  0  0
 40 53  1  0  0  0  0
 41 69  1  0  0  0  0
 42 45  1  0  0  0  0
 43 46  1  0  0  0  0
 43 48  1  0  0  0  0
 44 47  1  0  0  0  0
 44 50  1  0  0  0  0
 45 52  1  0  0  0  0
 46 54  1  0  0  0  0
 47 55  1  0  0  0  0
 48 70  1  0  0  0  0
 49 54  1  0  0  0  0
 49 70  1  0  0  0  0
 50 76  1  0  0  0  0
 51 55  1  0  0  0  0
 51 76  1  0  0  0  0
 52 73  1  0  0  0  0
 53 69  1  0  0  0  0
 54 68  1  0  0  0  0
 55 84  1  0  0  0  0
 57 65  1  0  0  0  0
 58 66  1  0  0  0  0
 59 66  1  0  0  0  0
 60 66  1  0  0  0  0
 61 77  1  0  0  0  0
 62 75  1  0  0  0  0
 63 76  1  0  0  0  0
 64 66  1  0  0  0  0
 64 74  1  0  0  0  0
 65 77  1  0  0  0  0
 67 68  1  0  0  0  0
M  CHG  2  76   1  77   1
M  ISO  4  38 100  55 101  75 100  84 101
M  END
> <Batch ID>
0035

> <Smiles>
CNC(C)C(=O)NC(C(=O)N1Cc2cc([101O:1][101CH:1]3CCCN(Cc4cccc(C[100NH:0][100C:0](=O)N5CCCC(n6nc(-c7ccc(Oc8ccc(F)cc8F)cc7)c(C(N)=O)c6N)C5)c4C)C3)ccc2CC1C(=O)NC1CCCc2ccccc21)C(C)(C)C

> <Shape>
0.204

> <Color>
0.090

> <Negative vol penalty>
0.000

$$$$

  -OEChem-04042321513D

 87 96  0     1  0  0  0  0  0999 V2000
  -23.5402  -38.2100   19.6200 C   0  0  0  0  0  0  0  0  0  0  0  0
  -24.4208  -37.2899   19.0603 C   0  0  0  0  0  0  0  0  0  0  0  0
  -26.0223  -20.4639   18.6099 C   0  0  0  0  0  0  0  0  0  0  0  0
  -23.1170   -9.1684   19.5713 C   0  0  0  0  0  0  0  0  0  0  0  0
  -24.4533   -9.0606   21.5813 C   0  0  0  0  0  0  0  0  0  0  0  0
  -23.0147  -37.9857   20.8918 C   0  0  0  0  0  0  0  0  0  0  0  0
  -24.7772  -36.1453   19.7725 C   0  0  0  0  0  0  0  0  0  0  0  0
  -26.5168  -29.2675   18.7794 C   0  0  0  0  0  0  0  0  0  0  0  0
  -26.9786  -21.4623   18.7949 C   0  0  0  0  0  0  0  0  0  0  0  0
  -26.3368  -19.1353   18.8956 C   0  0  0  0  0  0  0  0  0  0  0  0
  -22.0535   -8.5691   20.2462 C   0  0  0  0  0  0  0  0  0  0  0  0
  -23.3898   -8.4613   22.2562 C   0  0  0  0  0  0  0  0  0  0  0  0
  -27.5107  -28.3488   19.1139 C   0  0  0  0  0  0  0  0  0  0  0  0
  -21.9958   -5.3893   22.4807 C   0  0  0  0  0  0  0  0  0  0  0  0
  -22.2778   -4.2832   23.2822 C   0  0  0  0  0  0  0  0  0  0  0  0
  -26.4788  -28.0266   21.2703 C   0  0  0  0  0  0  0  0  0  0  0  0
  -21.4328   -5.4661   25.2119 C   0  0  0  0  0  0  0  0  0  0  0  0
  -24.3169   -9.4141   20.2388 C   0  0  0  0  0  0  0  0  0  0  0  0
  -26.0807   -9.5459   18.4005 C   0  0  0  0  0  0  0  0  0  0  0  0
  -23.3574  -36.8331   21.6161 C   0  0  0  0  0  0  0  0  0  0  0  0
  -25.5008  -29.5814   19.6936 C   0  0  0  0  0  0  0  0  0  0  0  0
  -24.2569  -35.9060   21.0558 C   0  0  0  0  0  0  0  0  0  0  0  0
  -25.4717  -28.9477   20.9441 C   0  0  0  0  0  0  0  0  0  0  0  0
  -28.2495  -21.1321   19.2655 C   0  0  0  0  0  0  0  0  0  0  0  0
  -28.5641  -19.8035   19.5511 C   0  0  0  0  0  0  0  0  0  0  0  0
  -27.6077  -18.8051   19.3661 C   0  0  0  0  0  0  0  0  0  0  0  0
  -22.1899   -8.2156   21.5886 C   0  0  0  0  0  0  0  0  0  0  0  0
  -27.4934  -27.7303   20.3606 C   0  0  0  0  0  0  0  0  0  0  0  0
  -21.4324   -6.5339   23.0448 C   0  0  0  0  0  0  0  0  0  0  0  0
  -21.9962   -4.3215   24.6479 C   0  0  0  0  0  0  0  0  0  0  0  0
  -21.1508   -6.5723   24.4104 C   0  0  0  0  0  0  0  0  0  0  0  0
  -25.4161  -10.0326   19.5421 C   0  0  0  0  0  0  0  0  0  0  0  0
  -27.0397  -10.4918   18.1322 C   0  0  0  0  0  0  0  0  0  0  0  0
  -28.6243  -24.5495   19.9756 C   0  0  0  0  0  0  0  0  0  0  0  0
  -25.8515   -8.3462   17.6496 C   0  0  0  0  0  0  0  0  0  0  0  0
  -24.5672  -32.2265   21.1886 C   0  0  0  0  0  0  0  0  0  0  0  0
  -22.1325  -30.3328   22.1931 C   0  0  0  0  0  0  0  0  0  0  0  0
  -21.7459  -26.9458   23.3745 C   0  0  0  0  0  0  0  0  0  0  0  0
  -27.0617  -16.3427   19.5186 C   0  0  0  0  0  0  0  0  0  0  0  0
  -22.8008  -36.6573   23.0067 C   0  0  0  0  0  0  0  0  0  0  0  0
  -24.4209  -30.5545   19.3074 C   0  0  0  0  0  0  0  0  0  0  0  0
  -24.3914  -29.2348   21.9535 C   0  0  0  0  0  0  0  0  0  0  0  0
  -22.9369  -35.2341   23.5419 C   0  0  0  0  0  0  0  0  0  0  0  0
  -28.0753  -23.7725   22.7473 C   0  0  0  0  0  0  0  0  0  0  0  0
  -29.3309  -13.6331   21.0127 C   0  0  0  0  0  0  0  0  0  0  0  0
  -24.3434  -34.7008   23.2886 C   0  0  0  0  0  0  0  0  0  0  0  0
  -28.4518  -25.2040   22.4272 C   0  0  0  0  0  0  0  0  0  0  0  0
  -28.9937  -12.4753   20.0762 C   0  0  0  0  0  0  0  0  0  0  0  0
  -28.8103  -22.8298   21.8114 C   0  0  0  0  0  0  0  0  0  0  0  0
  -29.0427  -14.9893   20.3814 C   0  0  0  0  0  0  0  0  0  0  0  0
  -26.8754  -13.8795   19.8091 C   0  0  0  0  0  0  0  0  0  0  0  0
  -24.6483  -34.6402   21.7870 C   0  0  1  0  0  0  0  0  0  0  0  0
  -28.0435  -25.5152   21.0008 C   0  0  1  0  0  0  0  0  0  1  0  0
  -23.7249  -31.1832   20.5106 C   0  0  1  0  0  0  0  0  0  0  0  0
  -27.7143  -12.7191   19.2515 C   0  0  2  0  0  0  0  0  0  0  0  0
  -30.9708  -19.4508   18.9429 C   0  0  0  0  0  0  0  0  0  0  0  0
  -19.7714  -25.4000   23.2790 C   0  0  0  0  0  0  0  0  0  0  0  0
  -21.5258  -31.4039   24.9850 C   0  0  0  0  0  0  0  0  0  0  0  0
  -20.8101  -29.0957   25.6391 C   0  0  0  0  0  0  0  0  0  0  0  0
  -19.5862  -30.3163   23.8406 C   0  0  0  0  0  0  0  0  0  0  0  0
  -23.3124  -24.8419   22.0040 C   0  0  0  0  0  0  0  0  0  0  0  0
  -29.9290  -19.4541   20.0559 C   0  0  0  0  0  0  0  0  0  0  0  0
  -29.2599  -22.2262   19.4556 C   0  0  0  0  0  0  0  0  0  0  0  0
  -21.9045  -29.4215   23.3748 C   0  0  1  0  0  0  0  0  0  0  0  0
  -21.0908  -25.7941   22.6336 C   0  0  2  0  0  0  0  0  0  0  0  0
  -20.9827  -30.0640   24.4495 C   0  0  0  0  0  0  0  0  0  0  0  0
  -25.9112  -11.1971   19.9698 N   0  0  0  0  0  0  0  0  0  0  0  0
  -26.8971  -11.4500   19.0923 N   0  0  0  0  0  0  0  0  0  0  0  0
  -28.8017  -23.2326   20.4040 N   0  0  0  0  0  0  0  0  0  0  0  0
  -23.3614  -30.1983   21.5314 N   0  0  0  0  0  0  0  0  0  0  0  0
  -27.6637  -15.1148   19.8874 N   0  0  0  0  0  0  0  0  0  0  0  0
  -27.9828  -10.5890   17.1712 N   0  0  0  0  0  0  0  0  0  0  0  0
  -26.5411   -7.1838   18.0205 N   0  0  0  0  0  0  0  0  0  0  0  0
  -27.9054  -17.4488   19.6505 N   0  0  0  0  0  0  0  0  0  0  0  0
  -24.0072  -33.4898   21.1871 N   0  0  0  0  0  0  0  0  0  0  0  0
  -21.4016  -28.1650   22.8302 N   0  0  0  0  0  0  0  0  0  0  0  0
  -21.9869  -24.6033   22.6310 N   0  3  0  0  0  0  0  0  0  0  0  0
  -28.8473  -24.9354   18.8252 O   0  0  0  0  0  0  0  0  0  0  0  0
  -25.0710   -8.3102   16.6683 O   0  0  0  0  0  0  0  0  0  0  0  0
  -25.6446  -31.9086   21.6784 O   0  0  0  0  0  0  0  0  0  0  0  0
  -21.2499  -31.1296   21.8646 O   0  0  0  0  0  0  0  0  0  0  0  0
  -22.4859  -26.7806   24.3418 O   0  0  0  0  0  0  0  0  0  0  0  0
  -25.9001  -16.3975   19.1091 O   0  0  0  0  0  0  0  0  0  0  0  0
  -21.1523   -7.6310   22.2475 O   0  0  0  0  0  0  0  0  0  0  0  0
  -28.4627  -26.8337   20.6898 O   0  0  0  0  0  0  0  0  0  1  0  0
  -22.2656   -3.2587   25.4172 F   0  0  0  0  0  0  0  0  0  0  0  0
  -20.6084   -7.6687   24.9577 F   0  0  0  0  0  0  0  0  0  0  0  0
  1  2  1  0  0  0  0
  1  6  2  0  0  0  0
  2  7  2  0  0  0  0
  3  9  1  0  0  0  0
  3 10  2  0  0  0  0
  4 11  2  0  0  0  0
  4 18  1  0  0  0  0
  5 12  1  0  0  0  0
  5 18  2  0  0  0  0
  6 20  1  0  0  0  0
  7 22  1  0  0  0  0
  8 13  2  0  0  0  0
  8 21  1  0  0  0  0
  9 24  2  0  0  0  0
 10 26  1  0  0  0  0
 11 27  1  0  0  0  0
 12 27  2  0  0  0  0
 13 28  1  0  0  0  0
 14 15  2  0  0  0  0
 14 29  1  0  0  0  0
 15 30  1  0  0  0  0
 16 23  1  0  0  0  0
 16 28  2  0  0  0  0
 17 30  2  0  0  0  0
 17 31  1  0  0  0  0
 18 32  1  0  0  0  0
 19 32  1  0  0  0  0
 19 33  2  0  0  0  0
 19 35  1  0  0  0  0
 20 22  2  0  0  0  0
 20 40  1  0  0  0  0
 21 23  2  0  0  0  0
 21 41  1  0  0  0  0
 22 52  1  0  0  0  0
 23 42  1  0  0  0  0
 24 25  1  0  0  0  0
 24 63  1  0  0  0  0
 25 26  2  0  0  0  0
 25 62  1  0  0  0  0
 26 74  1  0  0  0  0
 27 84  1  0  0  0  0
 28 85  1  0  0  0  0
 29 31  2  0  0  0  0
 29 84  1  0  0  0  0
 30 86  1  0  0  0  0
 31 87  1  0  0  0  0
 32 67  2  0  0  0  0
 33 68  1  0  0  0  0
 33 72  1  0  0  0  0
 34 53  1  0  0  0  0
 34 69  1  0  0  0  0
 34 78  2  0  0  0  0
 35 73  1  0  0  0  0
 35 79  2  0  0  0  0
 36 54  1  0  0  0  0
 36 75  1  0  0  0  0
 36 80  2  0  0  0  0
 37 64  1  0  0  0  0
 37 70  1  0  0  0  0
 37 81  2  0  0  0  0
 38 65  1  0  0  0  0
 38 76  1  0  0  0  0
 38 82  2  0  0  0  0
 39 71  1  0  0  0  0
 39 74  1  0  0  0  0
 39 83  2  0  0  0  0
 40 43  1  0  0  0  0
 41 54  1  0  0  0  0
 42 70  1  0  0  0  0
 43 46  1  0  0  0  0
 44 47  1  0  0  0  0
 44 49  1  0  0  0  0
 45 48  1  0  0  0  0
 45 50  1  0  0  0  0
 46 52  1  0  0  0  0
 47 53  1  0  0  0  0
 48 55  1  0  0  0  0
 49 69  1  0  0  0  0
 50 71  1  0  0  0  0
 51 55  1  0  0  0  0
 51 71  1  0  0  0  0
 52 75  1  0  0  0  0
 53 85  1  0  0  0  0
 54 70  1  0  0  0  0
 55 68  1  0  0  0  0
 56 62  1  0  0  0  0
 57 65  1  0  0  0  0
 58 66  1  0  0  0  0
 59 66  1  0  0  0  0
 60 66  1  0  0  0  0
 61 77  1  0  0  0  0
 63 69  1  0  0  0  0
 64 66  1  0  0  0  0
 64 76  1  0  0  0  0
 65 77  1  0  0  0  0
 67 68  1  0  0  0  0
M  CHG  1  77   1
M  ISO  4  39 100  53 101  74 100  85 101
M  END
> <Batch ID>
0035

> <Smiles>
CCc1c(CN2CCC[101CH:1]([101O:1]c3ccc4c(c3)CN(C(=O)C(NC(=O)C(C)NC)C(C)(C)C)C(C(=O)NC3CCCc5ccccc53)C4)C2=O)cccc1[100NH:0][100C:0](=O)N1CCCC(n2nc(-c3ccc(Oc4ccc(F)cc4F)cc3)c(C(N)=O)c2N)C1

> <Shape>
0.301

> <Color>
0.096

> <Negative vol penalty>
0.000

$$$$

  -OEChem-04042321513D

 88 97  0     1  0  0  0  0  0999 V2000
  -20.0827  -27.6891   20.0946 C   0  0  0  0  0  0  0  0  0  0  0  0
  -20.4817  -26.4378   19.6359 C   0  0  0  0  0  0  0  0  0  0  0  0
  -21.6727  -20.1621   22.5816 C   0  0  0  0  0  0  0  0  0  0  0  0
  -19.7404  -18.8461   23.1910 C   0  0  0  0  0  0  0  0  0  0  0  0
  -20.9564  -28.7724   20.0101 C   0  0  0  0  0  0  0  0  0  0  0  0
  -21.7543  -26.2693   19.0913 C   0  0  0  0  0  0  0  0  0  0  0  0
  -26.4076  -21.5582   21.9273 C   0  0  0  0  0  0  0  0  0  0  0  0
  -28.7663  -11.3156   19.3308 C   0  0  0  0  0  0  0  0  0  0  0  0
  -21.2567  -21.1737   23.4471 C   0  0  0  0  0  0  0  0  0  0  0  0
  -19.3244  -19.8577   24.0566 C   0  0  0  0  0  0  0  0  0  0  0  0
  -27.2780  -20.5275   22.2825 C   0  0  0  0  0  0  0  0  0  0  0  0
  -18.9894  -23.6804   23.4410 C   0  0  0  0  0  0  0  0  0  0  0  0
  -19.0390  -24.9935   22.9733 C   0  0  0  0  0  0  0  0  0  0  0  0
  -30.0919  -11.4144   19.7535 C   0  0  0  0  0  0  0  0  0  0  0  0
  -28.8808  -21.3026   20.6459 C   0  0  0  0  0  0  0  0  0  0  0  0
  -20.5626  -25.5713   24.7570 C   0  0  0  0  0  0  0  0  0  0  0  0
  -20.9145  -18.9983   22.4535 C   0  0  0  0  0  0  0  0  0  0  0  0
  -21.5386  -18.0513   20.1685 C   0  0  0  0  0  0  0  0  0  0  0  0
  -22.2438  -28.6150   19.4730 C   0  0  0  0  0  0  0  0  0  0  0  0
  -26.7775  -22.4753   20.9397 C   0  0  0  0  0  0  0  0  0  0  0  0
  -22.6455  -27.3518   18.9982 C   0  0  0  0  0  0  0  0  0  0  0  0
  -28.0183  -22.3445   20.2947 C   0  0  0  0  0  0  0  0  0  0  0  0
  -28.0183  -12.4711   19.1050 C   0  0  0  0  0  0  0  0  0  0  0  0
  -28.5958  -13.7254   19.3022 C   0  0  0  0  0  0  0  0  0  0  0  0
  -29.9214  -13.8242   19.7249 C   0  0  0  0  0  0  0  0  0  0  0  0
  -20.0826  -21.0216   24.1846 C   0  0  0  0  0  0  0  0  0  0  0  0
  -28.5114  -20.3999   21.6432 C   0  0  0  0  0  0  0  0  0  0  0  0
  -19.7263  -23.3127   24.5668 C   0  0  0  0  0  0  0  0  0  0  0  0
  -19.8257  -25.9390   23.6312 C   0  0  0  0  0  0  0  0  0  0  0  0
  -20.5129  -24.2581   25.2248 C   0  0  0  0  0  0  0  0  0  0  0  0
  -30.6694  -12.6687   19.9506 C   0  0  0  0  0  0  0  0  0  0  0  0
  -21.3433  -17.9531   21.5592 C   0  0  0  0  0  0  0  0  0  0  0  0
  -21.9432  -16.7948   19.7890 C   0  0  0  0  0  0  0  0  0  0  0  0
  -29.7447  -17.3438   20.8143 C   0  0  0  0  0  0  0  0  0  0  0  0
  -21.3695  -19.1777   19.2976 C   0  0  0  0  0  0  0  0  0  0  0  0
  -25.8574  -25.5258   18.9586 C   0  0  0  0  0  0  0  0  0  0  0  0
  -28.8294  -25.7892   19.6716 C   0  0  0  0  0  0  0  0  0  0  0  0
  -31.9595  -26.9059   20.4416 C   0  0  0  0  0  0  0  0  0  0  0  0
  -25.0596  -12.2356   20.5930 C   0  0  0  0  0  0  0  0  0  0  0  0
  -23.1358  -29.8257   19.3589 C   0  0  0  0  0  0  0  0  0  0  0  0
  -25.8459  -23.5646   20.4819 C   0  0  0  0  0  0  0  0  0  0  0  0
  -28.3594  -23.3336   19.2138 C   0  0  0  0  0  0  0  0  0  0  0  0
  -24.6023  -29.4808   19.1124 C   0  0  0  0  0  0  0  0  0  0  0  0
  -28.4358  -15.9560   23.0386 C   0  0  0  0  0  0  0  0  0  0  0  0
  -21.9675  -12.4312   22.3472 C   0  0  0  0  0  0  0  0  0  0  0  0
  -24.7258  -28.4265   18.0169 C   0  0  0  0  0  0  0  0  0  0  0  0
  -28.8708  -17.3973   23.2022 C   0  0  0  0  0  0  0  0  0  0  0  0
  -21.5492  -13.8941   22.1891 C   0  0  0  0  0  0  0  0  0  0  0  0
  -29.4189  -15.2245   22.1424 C   0  0  0  0  0  0  0  0  0  0  0  0
  -23.4804  -12.2903   22.5007 C   0  0  0  0  0  0  0  0  0  0  0  0
  -23.8551  -14.3977   21.2792 C   0  0  0  0  0  0  0  0  0  0  0  0
  -24.0268  -27.1237   18.4238 C   0  0  1  0  0  0  0  0  0  0  0  0
  -28.8836  -18.0669   21.8421 C   0  0  1  0  0  0  0  0  0  1  0  0
  -26.5783  -24.8619   20.0949 C   0  0  1  0  0  0  0  0  0  0  0  0
  -22.3435  -14.5861   21.0650 C   0  0  2  0  0  0  0  0  0  0  0  0
  -27.7902  -14.9626   19.0588 C   0  0  0  0  0  0  0  0  0  0  0  0
  -33.7717  -28.4240   19.5999 C   0  0  0  0  0  0  0  0  0  0  0  0
  -29.5803  -23.7175   17.5626 C   0  0  0  0  0  0  0  0  0  0  0  0
  -31.8449  -24.7768   17.4304 C   0  0  0  0  0  0  0  0  0  0  0  0
  -29.8162  -26.0942   16.8211 C   0  0  0  0  0  0  0  0  0  0  0  0
  -31.8297  -28.5967   22.8671 C   0  0  0  0  0  0  0  0  0  0  0  0
  -30.5304  -15.1806   19.9336 C   0  0  0  0  0  0  0  0  0  0  0  0
  -26.6017  -12.3362   18.6511 C   0  0  0  0  0  0  0  0  0  0  0  0
  -30.2573  -25.5502   19.2504 C   0  0  1  0  0  0  0  0  0  0  0  0
  -32.5459  -28.3052   20.4921 C   0  0  2  0  0  0  0  0  0  0  0  0
  -30.3647  -25.0250   17.7909 C   0  0  0  0  0  0  0  0  0  0  0  0
  -21.6023  -16.7308   22.0312 N   0  0  0  0  0  0  0  0  0  0  0  0
  -21.9645  -16.0493   20.9309 N   0  0  0  0  0  0  0  0  0  0  0  0
  -29.8081  -15.9543   20.9346 N   0  0  0  0  0  0  0  0  0  0  0  0
  -27.9650  -24.6885   19.6301 N   0  0  0  0  0  0  0  0  0  0  0  0
  -24.1745  -12.9667   21.4023 N   0  0  0  0  0  0  0  0  0  0  0  0
  -22.2792  -16.2660   18.5932 N   0  0  0  0  0  0  0  0  0  0  0  0
  -20.1162  -19.3811   18.7041 N   0  0  0  0  0  0  0  0  0  0  0  0
  -24.8467  -26.3801   19.3561 N   0  0  0  0  0  0  0  0  0  0  0  0
  -30.9682  -26.8016   19.4889 N   0  0  0  0  0  0  0  0  0  0  0  0
  -25.6708  -12.9513   19.5708 N   0  0  0  0  0  0  0  0  0  0  0  0
  -32.9441  -28.6499   21.8862 N   0  3  0  0  0  0  0  0  0  0  0  0
  -30.2826  -17.9816   19.9054 O   0  0  0  0  0  0  0  0  0  0  0  0
  -22.3068  -19.9706   19.0400 O   0  0  0  0  0  0  0  0  0  0  0  0
  -26.1936  -25.2828   17.8055 O   0  0  0  0  0  0  0  0  0  0  0  0
  -28.4857  -26.9213   20.0229 O   0  0  0  0  0  0  0  0  0  0  0  0
  -32.3450  -25.9954   21.1716 O   0  0  0  0  0  0  0  0  0  0  0  0
  -25.2843  -11.0328   20.7652 O   0  0  0  0  0  0  0  0  0  0  0  0
  -19.6766  -22.0084   25.0295 O   0  0  0  0  0  0  0  0  0  0  0  0
  -29.3583  -19.3940   21.9980 O   0  0  0  0  0  0  0  0  0  1  0  0
  -19.8744  -27.1996   23.1810 F   0  0  0  0  0  0  0  0  0  0  0  0
  -21.2240  -23.9105   26.3062 F   0  0  0  0  0  0  0  0  0  0  0  0
  -32.3127  -12.7482   20.4743 Cl  0  0  0  0  0  0  0  0  0  0  0  0
  1  2  1  0  0  0  0
  1  5  2  0  0  0  0
  2  6  2  0  0  0  0
  3  9  2  0  0  0  0
  3 17  1  0  0  0  0
  4 10  1  0  0  0  0
  4 17  2  0  0  0  0
  5 19  1  0  0  0  0
  6 21  1  0  0  0  0
  7 11  2  0  0  0  0
  7 20  1  0  0  0  0
  8 14  1  0  0  0  0
  8 23  2  0  0  0  0
  9 26  1  0  0  0  0
 10 26  2  0  0  0  0
 11 27  1  0  0  0  0
 12 13  2  0  0  0  0
 12 28  1  0  0  0  0
 13 29  1  0  0  0  0
 14 31  2  0  0  0  0
 15 22  1  0  0  0  0
 15 27  2  0  0  0  0
 16 29  2  0  0  0  0
 16 30  1  0  0  0  0
 17 32  1  0  0  0  0
 18 32  1  0  0  0  0
 18 33  2  0  0  0  0
 18 35  1  0  0  0  0
 19 21  2  0  0  0  0
 19 40  1  0  0  0  0
 20 22  2  0  0  0  0
 20 41  1  0  0  0  0
 21 52  1  0  0  0  0
 22 42  1  0  0  0  0
 23 24  1  0  0  0  0
 23 63  1  0  0  0  0
 24 25  2  0  0  0  0
 24 56  1  0  0  0  0
 25 31  1  0  0  0  0
 25 62  1  0  0  0  0
 26 84  1  0  0  0  0
 27 85  1  0  0  0  0
 28 30  2  0  0  0  0
 28 84  1  0  0  0  0
 29 86  1  0  0  0  0
 30 87  1  0  0  0  0
 31 88  1  0  0  0  0
 32 67  2  0  0  0  0
 33 68  1  0  0  0  0
 33 72  1  0  0  0  0
 34 53  1  0  0  0  0
 34 69  1  0  0  0  0
 34 78  2  0  0  0  0
 35 73  1  0  0  0  0
 35 79  2  0  0  0  0
 36 54  1  0  0  0  0
 36 74  1  0  0  0  0
 36 80  2  0  0  0  0
 37 64  1  0  0  0  0
 37 70  1  0  0  0  0
 37 81  2  0  0  0  0
 38 65  1  0  0  0  0
 38 75  1  0  0  0  0
 38 82  2  0  0  0  0
 39 71  1  0  0  0  0
 39 76  1  0  0  0  0
 39 83  2  0  0  0  0
 40 43  1  0  0  0  0
 41 54  1  0  0  0  0
 42 70  1  0  0  0  0
 43 46  1  0  0  0  0
 44 47  1  0  0  0  0
 44 49  1  0  0  0  0
 45 48  1  0  0  0  0
 45 50  1  0  0  0  0
 46 52  1  0  0  0  0
 47 53  1  0  0  0  0
 48 55  1  0  0  0  0
 49 69  1  0  0  0  0
 50 71  1  0  0  0  0
 51 55  1  0  0  0  0
 51 71  1  0  0  0  0
 52 74  1  0  0  0  0
 53 85  1  0  0  0  0
 54 70  1  0  0  0  0
 55 68  1  0  0  0  0
 57 65  1  0  0  0  0
 58 66  1  0  0  0  0
 59 66  1  0  0  0  0
 60 66  1  0  0  0  0
 61 77  1  0  0  0  0
 62 69  1  0  0  0  0
 63 76  1  0  0  0  0
 64 66  1  0  0  0  0
 64 75  1  0  0  0  0
 65 77  1  0  0  0  0
 67 68  1  0  0  0  0
M  CHG  1  77   1
M  ISO  4  39 100  53 101  76 100  85 101
M  END
> <Batch ID>
0035

> <Smiles>
CNC(C)C(=O)NC(C(=O)N1Cc2cc([101O:1][101CH:1]3CCCN(Cc4c(Cl)ccc(C[100NH:0][100C:0](=O)N5CCCC(n6nc(-c7ccc(Oc8ccc(F)cc8F)cc7)c(C(N)=O)c6N)C5)c4C)C3=O)ccc2CC1C(=O)NC1CCCc2ccccc21)C(C)(C)C

> <Shape>
0.236

> <Color>
0.060

> <Negative vol penalty>
0.000

$$$$

  -OEChem-04042321513D

 85 94  0     1  0  0  0  0  0999 V2000
  -25.7903  -18.7276   23.9599 C   0  0  0  0  0  0  0  0  0  0  0  0
  -26.1750  -19.7495   23.0979 C   0  0  0  0  0  0  0  0  0  0  0  0
  -26.4271  -11.5684   21.2167 C   0  0  0  0  0  0  0  0  0  0  0  0
  -25.5353  -13.3307   19.8253 C   0  0  0  0  0  0  0  0  0  0  0  0
  -24.4591  -18.6184   24.3596 C   0  0  0  0  0  0  0  0  0  0  0  0
  -25.2282  -20.6623   22.6342 C   0  0  0  0  0  0  0  0  0  0  0  0
  -26.8823  -25.4447   22.8290 C   0  0  0  0  0  0  0  0  0  0  0  0
  -26.8423  -22.1355   16.5940 C   0  0  0  0  0  0  0  0  0  0  0  0
  -26.0510  -21.0974   17.0855 C   0  0  0  0  0  0  0  0  0  0  0  0
  -25.1343  -11.1022   21.4549 C   0  0  0  0  0  0  0  0  0  0  0  0
  -24.2424  -12.8643   20.0634 C   0  0  0  0  0  0  0  0  0  0  0  0
  -27.7595  -25.8563   21.8266 C   0  0  0  0  0  0  0  0  0  0  0  0
  -22.8125   -9.2580   19.8297 C   0  0  0  0  0  0  0  0  0  0  0  0
  -22.5930   -7.8833   19.7431 C   0  0  0  0  0  0  0  0  0  0  0  0
  -25.9305  -26.9260   20.6735 C   0  0  0  0  0  0  0  0  0  0  0  0
  -28.6546  -21.4337   18.0292 C   0  0  0  0  0  0  0  0  0  0  0  0
  -21.8734   -7.8529   22.0492 C   0  0  0  0  0  0  0  0  0  0  0  0
  -26.6276  -12.6827   20.4020 C   0  0  0  0  0  0  0  0  0  0  0  0
  -29.0245  -12.4608   19.5572 C   0  0  0  0  0  0  0  0  0  0  0  0
  -23.4974  -19.5361   23.9083 C   0  0  0  0  0  0  0  0  0  0  0  0
  -25.5183  -25.7618   22.7555 C   0  0  0  0  0  0  0  0  0  0  0  0
  -23.8826  -20.5645   23.0272 C   0  0  0  0  0  0  0  0  0  0  0  0
  -25.0384  -26.5194   21.6776 C   0  0  0  0  0  0  0  0  0  0  0  0
  -28.1442  -22.3037   17.0658 C   0  0  0  0  0  0  0  0  0  0  0  0
  -26.5614  -20.2274   18.0490 C   0  0  0  0  0  0  0  0  0  0  0  0
  -27.8633  -20.3956   18.5208 C   0  0  0  0  0  0  0  0  0  0  0  0
  -24.0419  -11.7501   20.8783 C   0  0  0  0  0  0  0  0  0  0  0  0
  -27.2832  -26.5947   20.7472 C   0  0  0  0  0  0  0  0  0  0  0  0
  -22.5625   -9.9302   21.0261 C   0  0  0  0  0  0  0  0  0  0  0  0
  -22.1234   -7.1807   20.8528 C   0  0  0  0  0  0  0  0  0  0  0  0
  -22.0929   -9.2277   22.1358 C   0  0  0  0  0  0  0  0  0  0  0  0
  -27.9628  -13.1652   20.1560 C   0  0  0  0  0  0  0  0  0  0  0  0
  -30.0697  -13.3519   19.5548 C   0  0  0  0  0  0  0  0  0  0  0  0
  -29.0624  -11.1208   19.0486 C   0  0  0  0  0  0  0  0  0  0  0  0
  -22.8305  -24.0759   22.5622 C   0  0  0  0  0  0  0  0  0  0  0  0
  -21.4395  -26.9885   22.8842 C   0  0  0  0  0  0  0  0  0  0  0  0
  -21.9824  -30.3211   21.6127 C   0  0  0  0  0  0  0  0  0  0  0  0
  -29.6757  -19.5573   20.0676 C   0  0  0  0  0  0  0  0  0  0  0  0
  -22.0615  -19.3493   24.3303 C   0  0  0  0  0  0  0  0  0  0  0  0
  -24.5897  -25.3332   23.8585 C   0  0  0  0  0  0  0  0  0  0  0  0
  -23.5866  -26.9033   21.5621 C   0  0  0  0  0  0  0  0  0  0  0  0
  -21.1913  -20.5805   24.0909 C   0  0  0  0  0  0  0  0  0  0  0  0
  -31.5108  -17.1539   22.1924 C   0  0  0  0  0  0  0  0  0  0  0  0
  -28.2097  -27.1282   16.0209 C   0  0  0  0  0  0  0  0  0  0  0  0
  -21.4329  -21.1413   22.6931 C   0  0  0  0  0  0  0  0  0  0  0  0
  -31.1026  -15.7619   21.7076 C   0  0  0  0  0  0  0  0  0  0  0  0
  -28.3366  -27.6065   17.4613 C   0  0  0  0  0  0  0  0  0  0  0  0
  -31.4877  -18.1974   21.0840 C   0  0  0  0  0  0  0  0  0  0  0  0
  -29.4371  -17.0229   20.2556 C   0  0  0  0  0  0  0  0  0  0  0  0
  -28.9257  -25.8028   15.8033 C   0  0  0  0  0  0  0  0  0  0  0  0
  -28.5836  -25.2132   18.2169 C   0  0  0  0  0  0  0  0  0  0  0  0
  -22.8896  -21.5888   22.5223 C   0  0  1  0  0  0  0  0  0  0  0  0
  -23.1297  -25.2724   23.4205 C   0  0  1  0  0  0  0  0  0  0  0  0
  -30.3432  -15.7871   20.3705 C   0  0  2  0  0  0  0  0  0  0  0  0
  -27.8694  -26.5388   18.4457 C   0  0  1  0  0  0  0  0  0  1  0  0
  -25.6908  -19.1248   18.5582 C   0  0  0  0  0  0  0  0  0  0  0  0
  -21.3983  -32.5564   22.5924 C   0  0  0  0  0  0  0  0  0  0  0  0
  -18.9011  -26.7349   21.2103 C   0  0  0  0  0  0  0  0  0  0  0  0
  -19.0567  -29.1869   20.7292 C   0  0  0  0  0  0  0  0  0  0  0  0
  -18.7590  -28.3945   23.0757 C   0  0  0  0  0  0  0  0  0  0  0  0
  -24.7813  -31.2643   21.4253 C   0  0  0  0  0  0  0  0  0  0  0  0
  -28.9947  -23.4205   16.5363 C   0  0  0  0  0  0  0  0  0  0  0  0
  -20.9900  -28.0698   21.9314 C   0  0  1  0  0  0  0  0  0  0  0  0
  -22.4926  -31.5194   22.3925 C   0  0  2  0  0  0  0  0  0  0  0  0
  -19.4483  -28.0791   21.7303 C   0  0  0  0  0  0  0  0  0  0  0  0
  -28.3025  -14.4079   20.5085 N   0  0  0  0  0  0  0  0  0  0  0  0
  -29.5894  -14.4914   20.1302 N   0  0  0  0  0  0  0  0  0  0  0  0
  -22.7172  -26.4554   22.6625 N   0  0  0  0  0  0  0  0  0  0  0  0
  -30.1654  -18.2870   20.4580 N   0  0  0  0  0  0  0  0  0  0  0  0
  -31.3435  -13.2640   19.1167 N   0  0  0  0  0  0  0  0  0  0  0  0
  -28.7278  -10.9066   17.7045 N   0  0  0  0  0  0  0  0  0  0  0  0
  -28.4000  -19.5217   19.4988 N   0  0  0  0  0  0  0  0  0  0  0  0
  -23.1054  -22.8653   23.1691 N   0  0  0  0  0  0  0  0  0  0  0  0
  -21.5327  -29.3213   22.4490 N   0  0  0  0  0  0  0  0  0  0  0  0
  -28.4025  -24.7805   16.7842 N   0  3  2  0  0  0  0  0  0  0  0  0
  -23.6248  -32.1643   21.6691 N   0  3  0  0  0  0  0  0  0  0  0  0
  -29.3675  -10.1403   19.7691 O   0  0  0  0  0  0  0  0  0  0  0  0
  -22.3821  -24.2389   21.4335 O   0  0  0  0  0  0  0  0  0  0  0  0
  -20.6876  -26.6351   23.7960 O   0  0  0  0  0  0  0  0  0  0  0  0
  -21.9793  -30.2779   20.3844 O   0  0  0  0  0  0  0  0  0  0  0  0
  -30.3329  -20.5859   20.2411 O   0  0  0  0  0  0  0  0  0  0  0  0
  -22.7802  -11.2952   21.1102 O   0  0  0  0  0  0  0  0  0  0  0  0
  -28.1371  -26.9972   19.7671 O   0  0  0  0  0  0  0  0  0  1  0  0
  -21.9112   -5.8608   20.7691 F   0  0  0  0  0  0  0  0  0  0  0  0
  -21.8498   -9.8682   23.2876 F   0  0  0  0  0  0  0  0  0  0  0  0
  1  2  1  0  0  0  0
  1  5  2  0  0  0  0
  2  6  2  0  0  0  0
  3 10  2  0  0  0  0
  3 18  1  0  0  0  0
  4 11  1  0  0  0  0
  4 18  2  0  0  0  0
  5 20  1  0  0  0  0
  6 22  1  0  0  0  0
  7 12  2  0  0  0  0
  7 21  1  0  0  0  0
  8  9  2  0  0  0  0
  8 24  1  0  0  0  0
  9 25  1  0  0  0  0
 10 27  1  0  0  0  0
 11 27  2  0  0  0  0
 12 28  1  0  0  0  0
 13 14  2  0  0  0  0
 13 29  1  0  0  0  0
 14 30  1  0  0  0  0
 15 23  1  0  0  0  0
 15 28  2  0  0  0  0
 16 24  2  0  0  0  0
 16 26  1  0  0  0  0
 17 30  2  0  0  0  0
 17 31  1  0  0  0  0
 18 32  1  0  0  0  0
 19 32  1  0  0  0  0
 19 33  2  0  0  0  0
 19 34  1  0  0  0  0
 20 22  2  0  0  0  0
 20 39  1  0  0  0  0
 21 23  2  0  0  0  0
 21 40  1  0  0  0  0
 22 52  1  0  0  0  0
 23 41  1  0  0  0  0
 24 62  1  0  0  0  0
 25 26  2  0  0  0  0
 25 56  1  0  0  0  0
 26 72  1  0  0  0  0
 27 82  1  0  0  0  0
 28 83  1  0  0  0  0
 29 31  2  0  0  0  0
 29 82  1  0  0  0  0
 30 84  1  0  0  0  0
 31 85  1  0  0  0  0
 32 66  2  0  0  0  0
 33 67  1  0  0  0  0
 33 70  1  0  0  0  0
 34 71  1  0  0  0  0
 34 77  2  0  0  0  0
 35 53  1  0  0  0  0
 35 73  1  0  0  0  0
 35 78  2  0  0  0  0
 36 63  1  0  0  0  0
 36 68  1  0  0  0  0
 36 79  2  0  0  0  0
 37 64  1  0  0  0  0
 37 74  1  0  0  0  0
 37 80  2  0  0  0  0
 38 69  1  0  0  0  0
 38 72  1  0  0  0  0
 38 81  2  0  0  0  0
 39 42  1  0  0  0  0
 40 53  1  0  0  0  0
 41 68  1  0  0  0  0
 42 45  1  0  0  0  0
 43 46  1  0  0  0  0
 43 48  1  0  0  0  0
 44 47  1  0  0  0  0
 44 50  1  0  0  0  0
 45 52  1  0  0  0  0
 46 54  1  0  0  0  0
 47 55  1  0  0  0  0
 48 69  1  0  0  0  0
 49 54  1  0  0  0  0
 49 69  1  0  0  0  0
 50 75  1  0  0  0  0
 51 55  1  0  0  0  0
 51 75  1  0  0  0  0
 52 73  1  0  0  0  0
 53 68  1  0  0  0  0
 54 67  1  0  0  0  0
 55 83  1  0  0  0  0
 57 64  1  0  0  0  0
 58 65  1  0  0  0  0
 59 65  1  0  0  0  0
 60 65  1  0  0  0  0
 61 76  1  0  0  0  0
 62 75  1  0  0  0  0
 63 65  1  0  0  0  0
 63 74  1  0  0  0  0
 64 76  1  0  0  0  0
 66 67  1  0  0  0  0
M  CHG  2  75   1  76   1
M  ISO  4  38 100  55 101  72 100  83 101
M  END
> <Batch ID>
0035

> <Smiles>
CNC(C)C(=O)NC(C(=O)N1Cc2cc([101O:1][101CH:1]3CCCN(Cc4ccc(C)c([100NH:0][100C:0](=O)N5CCCC(n6nc(-c7ccc(Oc8ccc(F)cc8F)cc7)c(C(N)=O)c6N)C5)c4)C3)ccc2CC1C(=O)NC1CCCc2ccccc21)C(C)(C)C

> <Shape>
0.255

> <Color>
0.071

> <Negative vol penalty>
0.000

$$$$

  -OEChem-04042321513D

 82 90  0     1  0  0  0  0  0999 V2000
  -31.5128  -10.9061   20.1987 C   0  0  0  0  0  0  0  0  0  0  0  0
  -31.2600  -12.2355   19.8756 C   0  0  0  0  0  0  0  0  0  0  0  0
  -20.8226  -29.4864   21.0514 C   0  0  0  0  0  0  0  0  0  0  0  0
  -22.3102  -27.9444   22.1679 C   0  0  0  0  0  0  0  0  0  0  0  0
  -30.4520  -10.0384   20.4551 C   0  0  0  0  0  0  0  0  0  0  0  0
  -29.9461  -12.6976   19.8077 C   0  0  0  0  0  0  0  0  0  0  0  0
  -29.3383  -17.1693   22.1055 C   0  0  0  0  0  0  0  0  0  0  0  0
  -31.0214  -27.2866   20.5540 C   0  0  0  0  0  0  0  0  0  0  0  0
  -31.1569  -26.4852   21.6875 C   0  0  0  0  0  0  0  0  0  0  0  0
  -19.7460  -28.6402   21.3172 C   0  0  0  0  0  0  0  0  0  0  0  0
  -21.2336  -27.0983   22.4338 C   0  0  0  0  0  0  0  0  0  0  0  0
  -29.7651  -18.3030   21.4154 C   0  0  0  0  0  0  0  0  0  0  0  0
  -18.9366  -24.3596   23.0919 C   0  0  0  0  0  0  0  0  0  0  0  0
  -19.1131  -22.9948   22.8646 C   0  0  0  0  0  0  0  0  0  0  0  0
  -29.5416  -25.6484   19.5725 C   0  0  0  0  0  0  0  0  0  0  0  0
  -27.4886  -18.7504   20.7546 C   0  0  0  0  0  0  0  0  0  0  0  0
  -19.5688  -23.4420   20.5344 C   0  0  0  0  0  0  0  0  0  0  0  0
  -22.1047  -29.1385   21.4768 C   0  0  0  0  0  0  0  0  0  0  0  0
  -29.6771  -24.8469   20.7060 C   0  0  0  0  0  0  0  0  0  0  0  0
  -23.6957  -31.0594   22.0116 C   0  0  0  0  0  0  0  0  0  0  0  0
  -29.1248  -10.4925   20.3998 C   0  0  0  0  0  0  0  0  0  0  0  0
  -27.9827  -16.8109   22.1163 C   0  0  0  0  0  0  0  0  0  0  0  0
  -28.8665  -11.8348   20.0623 C   0  0  0  0  0  0  0  0  0  0  0  0
  -27.0469  -17.6131   21.4478 C   0  0  0  0  0  0  0  0  0  0  0  0
  -30.2137  -26.8683   19.4965 C   0  0  0  0  0  0  0  0  0  0  0  0
  -30.4848  -25.2653   21.7635 C   0  0  0  0  0  0  0  0  0  0  0  0
  -19.9515  -27.4462   22.0084 C   0  0  0  0  0  0  0  0  0  0  0  0
  -28.8407  -19.0921   20.7374 C   0  0  0  0  0  0  0  0  0  0  0  0
  -19.0760  -25.2656   22.0406 C   0  0  0  0  0  0  0  0  0  0  0  0
  -19.4293  -22.5360   21.5858 C   0  0  0  0  0  0  0  0  0  0  0  0
  -19.3922  -24.8068   20.7618 C   0  0  0  0  0  0  0  0  0  0  0  0
  -23.2172  -30.0118   21.2020 C   0  0  0  0  0  0  0  0  0  0  0  0
  -24.7584  -31.5764   21.3117 C   0  0  0  0  0  0  0  0  0  0  0  0
  -28.9552  -23.5645   20.7560 C   0  0  0  0  0  0  0  0  0  0  0  0
  -29.0966  -22.5616   19.8753 C   0  0  0  0  0  0  0  0  0  0  0  0
  -23.2221  -31.5236   23.2828 C   0  0  0  0  0  0  0  0  0  0  0  0
  -26.3181  -14.2997   21.1029 C   0  0  0  0  0  0  0  0  0  0  0  0
  -23.8644  -15.8205   22.5824 C   0  0  0  0  0  0  0  0  0  0  0  0
  -22.5393  -18.7506   23.7249 C   0  0  0  0  0  0  0  0  0  0  0  0
  -28.4481  -29.2621   17.2030 C   0  0  0  0  0  0  0  0  0  0  0  0
  -28.0094   -9.5058   20.6385 C   0  0  0  0  0  0  0  0  0  0  0  0
  -27.5348  -15.5998   22.8877 C   0  0  0  0  0  0  0  0  0  0  0  0
  -25.5773  -17.2830   21.4455 C   0  0  0  0  0  0  0  0  0  0  0  0
  -26.6606  -10.1659   20.9129 C   0  0  0  0  0  0  0  0  0  0  0  0
  -26.3827  -32.1403   16.8469 C   0  0  0  0  0  0  0  0  0  0  0  0
  -26.3948  -11.2773   19.9024 C   0  0  0  0  0  0  0  0  0  0  0  0
  -25.3804  -32.0157   17.9957 C   0  0  0  0  0  0  0  0  0  0  0  0
  -26.7337  -30.7775   16.2538 C   0  0  0  0  0  0  0  0  0  0  0  0
  -26.1998  -29.6538   18.3812 C   0  0  0  0  0  0  0  0  0  0  0  0
  -27.4560  -12.3797   20.0030 C   0  0  1  0  0  0  0  0  0  0  0  0
  -26.1996  -15.0430   22.4034 C   0  0  1  0  0  0  0  0  0  0  0  0
  -25.8577  -30.9971   19.0482 C   0  0  2  0  0  0  0  0  0  0  0  0
  -30.6548  -24.4313   22.9926 C   0  0  0  0  0  0  0  0  0  0  0  0
  -20.9290  -20.2774   24.8967 C   0  0  0  0  0  0  0  0  0  0  0  0
  -22.3144  -15.6017   19.9633 C   0  0  0  0  0  0  0  0  0  0  0  0
  -20.7333  -17.3362   20.8350 C   0  0  0  0  0  0  0  0  0  0  0  0
  -20.9607  -15.1515   22.0175 C   0  0  0  0  0  0  0  0  0  0  0  0
  -23.9536  -18.4504   26.3072 C   0  0  0  0  0  0  0  0  0  0  0  0
  -30.0696  -27.7262   18.2850 C   0  0  0  0  0  0  0  0  0  0  0  0
  -28.3299  -21.2808   19.9598 C   0  0  0  0  0  0  0  0  0  1  0  0
  -22.8341  -16.8427   22.1669 C   0  0  1  0  0  0  0  0  0  0  0  0
  -21.8997  -19.1171   25.0520 C   0  0  2  0  0  0  0  0  0  0  0  0
  -21.7385  -16.2384   21.2439 C   0  0  0  0  0  0  0  0  0  0  0  0
  -23.9183  -29.8705   20.0740 N   0  0  0  0  0  0  0  0  0  0  0  0
  -24.8481  -30.8362   20.1697 N   0  0  0  0  0  0  0  0  0  0  0  0
  -25.1897  -16.0853   22.2089 N   0  0  0  0  0  0  0  0  0  0  0  0
  -27.1805  -29.8589   17.3038 N   0  0  0  0  0  0  0  0  0  0  0  0
  -25.6154  -32.5875   21.5677 N   0  0  0  0  0  0  0  0  0  0  0  0
  -22.1196  -30.8796   23.8608 N   0  0  0  0  0  0  0  0  0  0  0  0
  -27.1935  -13.2313   21.1434 N   0  0  0  0  0  0  0  0  0  0  0  0
  -22.3200  -17.4286   23.4001 N   0  0  0  0  0  0  0  0  0  0  0  0
  -28.7960  -28.4096   18.2436 N   0  0  0  0  0  0  0  0  0  0  0  0
  -22.9446  -19.5076   26.0402 N   0  3  0  0  0  0  0  0  0  0  0  0
  -23.7504  -32.4916   23.8805 O   0  0  0  0  0  0  0  0  0  0  0  0
  -25.6627  -14.6673   20.1350 O   0  0  0  0  0  0  0  0  0  0  0  0
  -23.5077  -14.8274   23.2212 O   0  0  0  0  0  0  0  0  0  0  0  0
  -23.1671  -19.5574   23.0427 O   0  0  0  0  0  0  0  0  0  0  0  0
  -29.2152  -29.4775   16.2585 O   0  0  0  0  0  0  0  0  0  0  0  0
  -18.9012  -26.6204   22.2681 O   0  0  0  0  0  0  0  0  0  0  0  0
  -29.2547  -20.1989   20.0624 O   0  0  0  0  0  0  0  0  0  1  0  0
  -19.6003  -21.2255   21.3680 F   0  0  0  0  0  0  0  0  0  0  0  0
  -19.5287  -25.6725   19.7481 F   0  0  0  0  0  0  0  0  0  0  0  0
  1  2  1  0  0  0  0
  1  5  2  0  0  0  0
  2  6  2  0  0  0  0
  3 10  2  0  0  0  0
  3 18  1  0  0  0  0
  4 11  1  0  0  0  0
  4 18  2  0  0  0  0
  5 21  1  0  0  0  0
  6 23  1  0  0  0  0
  7 12  2  0  0  0  0
  7 22  1  0  0  0  0
  8  9  2  0  0  0  0
  8 25  1  0  0  0  0
  9 26  1  0  0  0  0
 10 27  1  0  0  0  0
 11 27  2  0  0  0  0
 12 28  1  0  0  0  0
 13 14  2  0  0  0  0
 13 29  1  0  0  0  0
 14 30  1  0  0  0  0
 15 19  1  0  0  0  0
 15 25  2  0  0  0  0
 16 24  1  0  0  0  0
 16 28  2  0  0  0  0
 17 30  2  0  0  0  0
 17 31  1  0  0  0  0
 18 32  1  0  0  0  0
 19 26  2  0  0  0  0
 19 34  1  0  0  0  0
 20 32  1  0  0  0  0
 20 33  2  0  0  0  0
 20 36  1  0  0  0  0
 21 23  2  0  0  0  0
 21 41  1  0  0  0  0
 22 24  2  0  0  0  0
 22 42  1  0  0  0  0
 23 50  1  0  0  0  0
 24 43  1  0  0  0  0
 25 59  1  0  0  0  0
 26 53  1  0  0  0  0
 27 79  1  0  0  0  0
 28 80  1  0  0  0  0
 29 31  2  0  0  0  0
 29 79  1  0  0  0  0
 30 81  1  0  0  0  0
 31 82  1  0  0  0  0
 32 64  2  0  0  0  0
 33 65  1  0  0  0  0
 33 68  1  0  0  0  0
 34 35  2  0  0  0  0
 35 60  1  0  0  0  0
 36 69  1  0  0  0  0
 36 74  2  0  0  0  0
 37 51  1  0  0  0  0
 37 70  1  0  0  0  0
 37 75  2  0  0  0  0
 38 61  1  0  0  0  0
 38 66  1  0  0  0  0
 38 76  2  0  0  0  0
 39 62  1  0  0  0  0
 39 71  1  0  0  0  0
 39 77  2  0  0  0  0
 40 67  1  0  0  0  0
 40 72  1  0  0  0  0
 40 78  2  0  0  0  0
 41 44  1  0  0  0  0
 42 51  1  0  0  0  0
 43 66  1  0  0  0  0
 44 46  1  0  0  0  0
 45 47  1  0  0  0  0
 45 48  1  0  0  0  0
 46 50  1  0  0  0  0
 47 52  1  0  0  0  0
 48 67  1  0  0  0  0
 49 52  1  0  0  0  0
 49 67  1  0  0  0  0
 50 70  1  0  0  0  0
 51 66  1  0  0  0  0
 52 65  1  0  0  0  0
 54 62  1  0  0  0  0
 55 63  1  0  0  0  0
 56 63  1  0  0  0  0
 57 63  1  0  0  0  0
 58 73  1  0  0  0  0
 59 72  1  0  0  0  0
 60 80  1  0  0  0  0
 61 63  1  0  0  0  0
 61 71  1  0  0  0  0
 62 73  1  0  0  0  0
 64 65  1  0  0  0  0
M  CHG  1  73   1
M  ISO  4  40 100  60 101  72 100  80 101
M  END
> <Batch ID>
0035

> <Smiles>
CNC(C)C(=O)NC(C(=O)N1Cc2cc([101O:1][101CH2:1]C=Cc3cc(C[100NH:0][100C:0](=O)N4CCCC(n5nc(-c6ccc(Oc7ccc(F)cc7F)cc6)c(C(N)=O)c5N)C4)ccc3C)ccc2CC1C(=O)NC1CCCc2ccccc21)C(C)(C)C

> <Shape>
0.227

> <Color>
0.058

> <Negative vol penalty>
0.000

$$$$

  -OEChem-04042321513D

 85 94  0     1  0  0  0  0  0999 V2000
  -23.5360  -10.0682   21.4546 C   0  0  0  0  0  0  0  0  0  0  0  0
  -24.0897  -11.0174   22.3064 C   0  0  0  0  0  0  0  0  0  0  0  0
  -31.7973  -28.8937   19.3535 C   0  0  0  0  0  0  0  0  0  0  0  0
  -20.1594  -28.1064   21.7377 C   0  0  0  0  0  0  0  0  0  0  0  0
  -20.1337  -28.9771   23.9912 C   0  0  0  0  0  0  0  0  0  0  0  0
  -23.7307  -10.1738   20.0791 C   0  0  0  0  0  0  0  0  0  0  0  0
  -24.8281  -12.0789   21.7822 C   0  0  0  0  0  0  0  0  0  0  0  0
  -29.2236  -18.7047   21.8118 C   0  0  0  0  0  0  0  0  0  0  0  0
  -31.7400  -27.6693   18.6878 C   0  0  0  0  0  0  0  0  0  0  0  0
  -30.8478  -29.2032   20.3274 C   0  0  0  0  0  0  0  0  0  0  0  0
  -18.8141  -28.4448   21.5916 C   0  0  0  0  0  0  0  0  0  0  0  0
  -18.7884  -29.3156   23.8451 C   0  0  0  0  0  0  0  0  0  0  0  0
  -30.1111  -19.4546   21.0412 C   0  0  0  0  0  0  0  0  0  0  0  0
  -15.7985  -27.7401   23.9404 C   0  0  0  0  0  0  0  0  0  0  0  0
  -14.9333  -27.4240   24.9877 C   0  0  0  0  0  0  0  0  0  0  0  0
  -28.4788  -19.5528   19.2677 C   0  0  0  0  0  0  0  0  0  0  0  0
  -14.3852  -29.7633   25.2411 C   0  0  0  0  0  0  0  0  0  0  0  0
  -20.8192  -28.3725   22.9375 C   0  0  0  0  0  0  0  0  0  0  0  0
  -22.7776  -26.7387   22.9910 C   0  0  0  0  0  0  0  0  0  0  0  0
  -24.4824  -11.2306   19.5395 C   0  0  0  0  0  0  0  0  0  0  0  0
  -27.9590  -18.3635   21.3110 C   0  0  0  0  0  0  0  0  0  0  0  0
  -25.0155  -12.2162   20.3949 C   0  0  0  0  0  0  0  0  0  0  0  0
  -27.5761  -18.8007   20.0350 C   0  0  0  0  0  0  0  0  0  0  0  0
  -30.7332  -26.7544   18.9959 C   0  0  0  0  0  0  0  0  0  0  0  0
  -29.7837  -27.0638   19.9697 C   0  0  0  0  0  0  0  0  0  0  0  0
  -29.8410  -28.2883   20.6354 C   0  0  0  0  0  0  0  0  0  0  0  0
  -18.1287  -29.0494   22.6452 C   0  0  0  0  0  0  0  0  0  0  0  0
  -29.7399  -19.8762   19.7678 C   0  0  0  0  0  0  0  0  0  0  0  0
  -15.9572  -29.0679   23.5434 C   0  0  0  0  0  0  0  0  0  0  0  0
  -14.2266  -28.4355   25.6380 C   0  0  0  0  0  0  0  0  0  0  0  0
  -15.2505  -30.0795   24.1937 C   0  0  0  0  0  0  0  0  0  0  0  0
  -22.2086  -28.0226   23.0893 C   0  0  0  0  0  0  0  0  0  0  0  0
  -24.1181  -26.9393   23.2130 C   0  0  0  0  0  0  0  0  0  0  0  0
  -22.1505  -25.4775   22.7229 C   0  0  0  0  0  0  0  0  0  0  0  0
  -26.4702  -15.6341   20.6494 C   0  0  0  0  0  0  0  0  0  0  0  0
  -23.9466  -17.5963   20.0987 C   0  0  0  0  0  0  0  0  0  0  0  0
  -23.3899  -20.7879   18.5109 C   0  0  0  0  0  0  0  0  0  0  0  0
  -28.8199  -29.8009   22.3720 C   0  0  0  0  0  0  0  0  0  0  0  0
  -24.6551  -11.3008   18.0427 C   0  0  0  0  0  0  0  0  0  0  0  0
  -27.0030  -17.5768   22.1653 C   0  0  0  0  0  0  0  0  0  0  0  0
  -26.2223  -18.4781   19.4592 C   0  0  0  0  0  0  0  0  0  0  0  0
  -25.8128  -12.1990   17.6193 C   0  0  0  0  0  0  0  0  0  0  0  0
  -26.6065  -31.0196   24.8805 C   0  0  0  0  0  0  0  0  0  0  0  0
  -33.0986  -23.1579   20.1676 C   0  0  0  0  0  0  0  0  0  0  0  0
  -25.7177  -13.5400   18.3316 C   0  0  0  0  0  0  0  0  0  0  0  0
  -25.3118  -30.2429   24.6300 C   0  0  0  0  0  0  0  0  0  0  0  0
  -32.5476  -21.8072   19.7299 C   0  0  0  0  0  0  0  0  0  0  0  0
  -27.3176  -31.3726   23.5753 C   0  0  0  0  0  0  0  0  0  0  0  0
  -26.2709  -29.4611   22.4264 C   0  0  0  0  0  0  0  0  0  0  0  0
  -32.6771  -24.2713   19.2194 C   0  0  0  0  0  0  0  0  0  0  0  0
  -30.6186  -22.9777   18.6036 C   0  0  0  0  0  0  0  0  0  0  0  0
  -25.8480  -13.3625   19.8496 C   0  0  1  0  0  0  0  0  0  0  0  0
  -25.9359  -16.8493   21.3533 C   0  0  1  0  0  0  0  0  0  0  0  0
  -25.5524  -29.0267   23.7143 C   0  0  2  0  0  0  0  0  0  0  0  0
  -31.0339  -21.8563   19.5468 C   0  0  1  0  0  0  0  0  0  1  0  0
  -28.7054  -26.0789   20.2969 C   0  0  0  0  0  0  0  0  0  0  0  0
  -21.6264  -22.5265   18.9167 C   0  0  0  0  0  0  0  0  0  0  0  0
  -22.4477  -16.1849   17.8468 C   0  0  0  0  0  0  0  0  0  0  0  0
  -21.6860  -18.4295   17.0408 C   0  0  0  0  0  0  0  0  0  0  0  0
  -21.0191  -17.6276   19.3068 C   0  0  0  0  0  0  0  0  0  0  0  0
  -25.4124  -22.9009   18.9624 C   0  0  0  0  0  0  0  0  0  0  0  0
  -30.6949  -25.4448   18.2648 C   0  0  0  0  0  0  0  0  0  0  0  0
  -23.4108  -18.3376   18.8976 C   0  0  1  0  0  0  0  0  0  0  0  0
  -23.0585  -22.0998   19.1991 C   0  0  2  0  0  0  0  0  0  0  0  0
  -22.1686  -17.6392   18.2758 C   0  0  0  0  0  0  0  0  0  0  0  0
  -23.1136  -28.9688   23.3534 N   0  0  0  0  0  0  0  0  0  0  0  0
  -24.2648  -28.2789   23.4229 N   0  0  0  0  0  0  0  0  0  0  0  0
  -25.3253  -17.7011   20.3306 N   0  0  0  0  0  0  0  0  0  0  0  0
  -27.5153  -30.1711   22.7615 N   0  0  0  0  0  0  0  0  0  0  0  0
  -25.1739  -26.0986   23.2472 N   0  0  0  0  0  0  0  0  0  0  0  0
  -20.7642  -25.4507   22.5187 N   0  0  0  0  0  0  0  0  0  0  0  0
  -28.8872  -28.6232   21.6284 N   0  0  0  0  0  0  0  0  0  0  0  0
  -25.5451  -14.6186   20.4995 N   0  0  0  0  0  0  0  0  0  0  0  0
  -23.1683  -19.7071   19.3379 N   0  0  0  0  0  0  0  0  0  0  0  0
  -31.1716  -24.2891   19.1007 N   0  3  2  0  0  0  0  0  0  0  0  0
  -23.9721  -23.1781   18.7262 N   0  3  0  0  0  0  0  0  0  0  0  0
  -22.7978  -24.4039   22.6824 O   0  0  0  0  0  0  0  0  0  0  0  0
  -27.6350  -15.6195   20.2690 O   0  0  0  0  0  0  0  0  0  0  0  0
  -23.1692  -16.9540   20.8091 O   0  0  0  0  0  0  0  0  0  0  0  0
  -23.8005  -20.7278   17.3540 O   0  0  0  0  0  0  0  0  0  0  0  0
  -29.8075  -30.4641   22.6987 O   0  0  0  0  0  0  0  0  0  0  0  0
  -16.8160  -29.3801   22.5029 O   0  0  0  0  0  0  0  0  0  0  0  0
  -30.6045  -20.6077   19.0133 O   0  0  0  0  0  0  0  0  0  1  0  0
  -13.3945  -28.1316   26.6428 F   0  0  0  0  0  0  0  0  0  0  0  0
  -15.3979  -31.3567   23.8160 F   0  0  0  0  0  0  0  0  0  0  0  0
  1  2  1  0  0  0  0
  1  6  2  0  0  0  0
  2  7  2  0  0  0  0
  3  9  2  0  0  0  0
  3 10  1  0  0  0  0
  4 11  2  0  0  0  0
  4 18  1  0  0  0  0
  5 12  1  0  0  0  0
  5 18  2  0  0  0  0
  6 20  1  0  0  0  0
  7 22  1  0  0  0  0
  8 13  2  0  0  0  0
  8 21  1  0  0  0  0
  9 24  1  0  0  0  0
 10 26  2  0  0  0  0
 11 27  1  0  0  0  0
 12 27  2  0  0  0  0
 13 28  1  0  0  0  0
 14 15  2  0  0  0  0
 14 29  1  0  0  0  0
 15 30  1  0  0  0  0
 16 23  1  0  0  0  0
 16 28  2  0  0  0  0
 17 30  2  0  0  0  0
 17 31  1  0  0  0  0
 18 32  1  0  0  0  0
 19 32  1  0  0  0  0
 19 33  2  0  0  0  0
 19 34  1  0  0  0  0
 20 22  2  0  0  0  0
 20 39  1  0  0  0  0
 21 23  2  0  0  0  0
 21 40  1  0  0  0  0
 22 52  1  0  0  0  0
 23 41  1  0  0  0  0
 24 25  2  0  0  0  0
 24 62  1  0  0  0  0
 25 26  1  0  0  0  0
 25 56  1  0  0  0  0
 26 72  1  0  0  0  0
 27 82  1  0  0  0  0
 28 83  1  0  0  0  0
 29 31  2  0  0  0  0
 29 82  1  0  0  0  0
 30 84  1  0  0  0  0
 31 85  1  0  0  0  0
 32 66  2  0  0  0  0
 33 67  1  0  0  0  0
 33 70  1  0  0  0  0
 34 71  1  0  0  0  0
 34 77  2  0  0  0  0
 35 53  1  0  0  0  0
 35 73  1  0  0  0  0
 35 78  2  0  0  0  0
 36 63  1  0  0  0  0
 36 68  1  0  0  0  0
 36 79  2  0  0  0  0
 37 64  1  0  0  0  0
 37 74  1  0  0  0  0
 37 80  2  0  0  0  0
 38 69  1  0  0  0  0
 38 72  1  0  0  0  0
 38 81  2  0  0  0  0
 39 42  1  0  0  0  0
 40 53  1  0  0  0  0
 41 68  1  0  0  0  0
 42 45  1  0  0  0  0
 43 46  1  0  0  0  0
 43 48  1  0  0  0  0
 44 47  1  0  0  0  0
 44 50  1  0  0  0  0
 45 52  1  0  0  0  0
 46 54  1  0  0  0  0
 47 55  1  0  0  0  0
 48 69  1  0  0  0  0
 49 54  1  0  0  0  0
 49 69  1  0  0  0  0
 50 75  1  0  0  0  0
 51 55  1  0  0  0  0
 51 75  1  0  0  0  0
 52 73  1  0  0  0  0
 53 68  1  0  0  0  0
 54 67  1  0  0  0  0
 55 83  1  0  0  0  0
 57 64  1  0  0  0  0
 58 65  1  0  0  0  0
 59 65  1  0  0  0  0
 60 65  1  0  0  0  0
 61 76  1  0  0  0  0
 62 75  1  0  0  0  0
 63 65  1  0  0  0  0
 63 74  1  0  0  0  0
 64 76  1  0  0  0  0
 66 67  1  0  0  0  0
M  CHG  2  75   1  76   1
M  ISO  4  38 100  55 101  72 100  83 101
M  END
> <Batch ID>
0035

> <Smiles>
CNC(C)C(=O)NC(C(=O)N1Cc2cc([101O:1][101CH:1]3CCCN(Cc4cccc([100NH:0][100C:0](=O)N5CCCC(n6nc(-c7ccc(Oc8ccc(F)cc8F)cc7)c(C(N)=O)c6N)C5)c4C)C3)ccc2CC1C(=O)NC1CCCc2ccccc21)C(C)(C)C

> <Shape>
0.230

> <Color>
0.038

> <Negative vol penalty>
0.000

$$$$

  -OEChem-04042321513D

 87 96  0     1  0  0  0  0  0999 V2000
  -32.9235  -13.3889   17.0998 C   0  0  0  0  0  0  0  0  0  0  0  0
  -32.0565  -14.4538   17.3230 C   0  0  0  0  0  0  0  0  0  0  0  0
  -21.5953  -29.5417   22.2469 C   0  0  0  0  0  0  0  0  0  0  0  0
  -22.9159  -27.5520   21.8799 C   0  0  0  0  0  0  0  0  0  0  0  0
  -32.4170  -12.0983   16.9526 C   0  0  0  0  0  0  0  0  0  0  0  0
  -30.6824  -14.2288   17.3980 C   0  0  0  0  0  0  0  0  0  0  0  0
  -28.5193  -16.6873   21.2609 C   0  0  0  0  0  0  0  0  0  0  0  0
  -20.5268  -28.7536   22.6744 C   0  0  0  0  0  0  0  0  0  0  0  0
  -21.8473  -26.7640   22.3075 C   0  0  0  0  0  0  0  0  0  0  0  0
  -28.2796  -18.0505   21.0938 C   0  0  0  0  0  0  0  0  0  0  0  0
  -18.9362  -25.6100   21.0327 C   0  0  0  0  0  0  0  0  0  0  0  0
  -18.6207  -24.4809   20.2770 C   0  0  0  0  0  0  0  0  0  0  0  0
  -25.9698  -17.5759   20.5853 C   0  0  0  0  0  0  0  0  0  0  0  0
  -31.3461  -26.7033   19.3675 C   0  0  0  0  0  0  0  0  0  0  0  0
  -19.0285  -23.0787   22.2017 C   0  0  0  0  0  0  0  0  0  0  0  0
  -22.7899  -28.9409   21.8496 C   0  0  0  0  0  0  0  0  0  0  0  0
  -24.5676  -30.7465   22.1446 C   0  0  0  0  0  0  0  0  0  0  0  0
  -31.0368  -11.8559   17.0355 C   0  0  0  0  0  0  0  0  0  0  0  0
  -27.4868  -15.7557   21.0805 C   0  0  0  0  0  0  0  0  0  0  0  0
  -30.1569  -12.9339   17.2505 C   0  0  0  0  0  0  0  0  0  0  0  0
  -26.1983  -16.2017   20.7533 C   0  0  0  0  0  0  0  0  0  0  0  0
  -31.6685  -25.9251   20.4793 C   0  0  0  0  0  0  0  0  0  0  0  0
  -30.3230  -26.3022   18.5084 C   0  0  0  0  0  0  0  0  0  0  0  0
  -30.9678  -24.7457   20.7320 C   0  0  0  0  0  0  0  0  0  0  0  0
  -29.6223  -25.1228   18.7610 C   0  0  0  0  0  0  0  0  0  0  0  0
  -29.9447  -24.3446   19.8728 C   0  0  0  0  0  0  0  0  0  0  0  0
  -20.6527  -27.3648   22.7047 C   0  0  0  0  0  0  0  0  0  0  0  0
  -27.0054  -18.4948   20.7531 C   0  0  0  0  0  0  0  0  0  0  0  0
  -19.2980  -25.4735   22.3729 C   0  0  0  0  0  0  0  0  0  0  0  0
  -18.6668  -23.2153   20.8615 C   0  0  0  0  0  0  0  0  0  0  0  0
  -19.3441  -24.2079   22.9574 C   0  0  0  0  0  0  0  0  0  0  0  0
  -23.8939  -29.7543   21.4074 C   0  0  0  0  0  0  0  0  0  0  0  0
  -25.5282  -31.2203   21.2848 C   0  0  0  0  0  0  0  0  0  0  0  0
  -24.3450  -31.1994   23.4866 C   0  0  0  0  0  0  0  0  0  0  0  0
  -26.9791  -13.3264   19.0944 C   0  0  0  0  0  0  0  0  0  0  0  0
  -24.3756  -12.8461   20.9688 C   0  0  0  0  0  0  0  0  0  0  0  0
  -21.7116  -13.0544   23.0917 C   0  0  0  0  0  0  0  0  0  0  0  0
  -28.3190  -28.8158   16.5645 C   0  0  0  0  0  0  0  0  0  0  0  0
  -30.5325  -10.4505   16.8228 C   0  0  0  0  0  0  0  0  0  0  0  0
  -27.7554  -14.2907   21.2906 C   0  0  0  0  0  0  0  0  0  0  0  0
  -25.0508  -15.2438   20.5681 C   0  0  0  0  0  0  0  0  0  0  0  0
  -29.0939  -10.2425   17.2891 C   0  0  0  0  0  0  0  0  0  0  0  0
  -26.4112  -31.8214   16.6211 C   0  0  0  0  0  0  0  0  0  0  0  0
  -28.2031  -11.3780   16.7950 C   0  0  0  0  0  0  0  0  0  0  0  0
  -25.6105  -31.7220   17.9207 C   0  0  0  0  0  0  0  0  0  0  0  0
  -28.5957  -20.8802   19.4528 C   0  0  0  0  0  0  0  0  0  0  0  0
  -27.3681  -22.0545   21.2863 C   0  0  0  0  0  0  0  0  0  0  0  0
  -26.5698  -30.4587   15.9503 C   0  0  0  0  0  0  0  0  0  0  0  0
  -29.7269  -21.8998   19.5537 C   0  0  0  0  0  0  0  0  0  0  0  0
  -28.4997  -23.0720   21.3925 C   0  0  0  0  0  0  0  0  0  0  0  0
  -26.3306  -29.3048   18.1148 C   0  0  0  0  0  0  0  0  0  0  0  0
  -28.6621  -12.7264   17.3629 C   0  0  1  0  0  0  0  0  0  0  0  0
  -26.7505  -13.3908   20.5780 C   0  0  1  0  0  0  0  0  0  0  0  0
  -26.1920  -30.6453   18.8566 C   0  0  2  0  0  0  0  0  0  0  0  0
  -27.8687  -20.7065   20.7802 C   0  0  0  0  0  0  0  0  0  1  0  0
  -32.7683  -26.3774   21.3833 C   0  0  0  0  0  0  0  0  0  0  0  0
  -31.3186  -23.9152   21.9267 C   0  0  0  0  0  0  0  0  0  0  0  0
  -28.5256  -24.6980   17.8353 C   0  0  0  0  0  0  0  0  0  0  0  0
  -19.5243  -11.9447   23.6226 C   0  0  0  0  0  0  0  0  0  0  0  0
  -23.1179  -14.1581   18.5179 C   0  0  0  0  0  0  0  0  0  0  0  0
  -20.8755  -13.8408   19.5851 C   0  0  0  0  0  0  0  0  0  0  0  0
  -22.2762  -11.8565   19.0165 C   0  0  0  0  0  0  0  0  0  0  0  0
  -22.5888  -12.3767   25.8358 C   0  0  0  0  0  0  0  0  0  0  0  0
  -29.9980  -27.1539   17.3250 C   0  0  0  0  0  0  0  0  0  0  0  0
  -22.9461  -13.3313   20.9577 C   0  0  1  0  0  0  0  0  0  0  0  0
  -21.0114  -12.0044   23.9353 C   0  0  2  0  0  0  0  0  0  0  0  0
  -22.3244  -13.3111   19.5327 C   0  0  0  0  0  0  0  0  0  0  0  0
  -24.3847  -29.6057   20.1741 N   0  0  0  0  0  0  0  0  0  0  0  0
  -25.3771  -30.5109   20.1297 N   0  0  0  0  0  0  0  0  0  0  0  0
  -29.2411  -23.1603   20.1265 N   0  0  0  0  0  0  0  0  0  0  0  0
  -25.3652  -13.8210   20.7783 N   0  0  0  0  0  0  0  0  0  0  0  0
  -27.1272  -29.4837   16.8908 N   0  0  0  0  0  0  0  0  0  0  0  0
  -26.4788  -32.1703   21.4116 N   0  0  0  0  0  0  0  0  0  0  0  0
  -25.0326  -30.5632   24.5291 N   0  0  0  0  0  0  0  0  0  0  0  0
  -28.2330  -12.8682   18.7377 N   0  0  0  0  0  0  0  0  0  0  0  0
  -22.2307  -12.5159   21.9333 N   0  0  0  0  0  0  0  0  0  0  0  0
  -28.7819  -27.9129   17.5140 N   0  0  0  0  0  0  0  0  0  0  0  0
  -21.1749  -12.3109   25.3846 N   0  3  0  0  0  0  0  0  0  0  0  0
  -23.5473  -32.1294   23.7550 O   0  0  0  0  0  0  0  0  0  0  0  0
  -26.0836  -13.6659   18.3298 O   0  0  0  0  0  0  0  0  0  0  0  0
  -24.6060  -11.6475   21.1472 O   0  0  0  0  0  0  0  0  0  0  0  0
  -21.7871  -14.2349   23.4250 O   0  0  0  0  0  0  0  0  0  0  0  0
  -28.9286  -29.0136   15.5080 O   0  0  0  0  0  0  0  0  0  0  0  0
  -19.6103  -26.5955   23.1220 O   0  0  0  0  0  0  0  0  0  0  0  0
  -26.7689  -19.8248   20.5887 O   0  0  0  0  0  0  0  0  0  1  0  0
  -18.3622  -22.1312   20.1361 F   0  0  0  0  0  0  0  0  0  0  0  0
  -19.6898  -24.0705   24.2448 F   0  0  0  0  0  0  0  0  0  0  0  0
  1  2  1  0  0  0  0
  1  5  2  0  0  0  0
  2  6  2  0  0  0  0
  3  8  2  0  0  0  0
  3 16  1  0  0  0  0
  4  9  1  0  0  0  0
  4 16  2  0  0  0  0
  5 18  1  0  0  0  0
  6 20  1  0  0  0  0
  7 10  2  0  0  0  0
  7 19  1  0  0  0  0
  8 27  1  0  0  0  0
  9 27  2  0  0  0  0
 10 28  1  0  0  0  0
 11 12  2  0  0  0  0
 11 29  1  0  0  0  0
 12 30  1  0  0  0  0
 13 21  1  0  0  0  0
 13 28  2  0  0  0  0
 14 22  1  0  0  0  0
 14 23  2  0  0  0  0
 15 30  2  0  0  0  0
 15 31  1  0  0  0  0
 16 32  1  0  0  0  0
 17 32  1  0  0  0  0
 17 33  2  0  0  0  0
 17 34  1  0  0  0  0
 18 20  2  0  0  0  0
 18 39  1  0  0  0  0
 19 21  2  0  0  0  0
 19 40  1  0  0  0  0
 20 52  1  0  0  0  0
 21 41  1  0  0  0  0
 22 24  2  0  0  0  0
 22 56  1  0  0  0  0
 23 25  1  0  0  0  0
 23 64  1  0  0  0  0
 24 26  1  0  0  0  0
 24 57  1  0  0  0  0
 25 26  2  0  0  0  0
 25 58  1  0  0  0  0
 26 70  1  0  0  0  0
 27 84  1  0  0  0  0
 28 85  1  0  0  0  0
 29 31  2  0  0  0  0
 29 84  1  0  0  0  0
 30 86  1  0  0  0  0
 31 87  1  0  0  0  0
 32 68  2  0  0  0  0
 33 69  1  0  0  0  0
 33 73  1  0  0  0  0
 34 74  1  0  0  0  0
 34 79  2  0  0  0  0
 35 53  1  0  0  0  0
 35 75  1  0  0  0  0
 35 80  2  0  0  0  0
 36 65  1  0  0  0  0
 36 71  1  0  0  0  0
 36 81  2  0  0  0  0
 37 66  1  0  0  0  0
 37 76  1  0  0  0  0
 37 82  2  0  0  0  0
 38 72  1  0  0  0  0
 38 77  1  0  0  0  0
 38 83  2  0  0  0  0
 39 42  1  0  0  0  0
 40 53  1  0  0  0  0
 41 71  1  0  0  0  0
 42 44  1  0  0  0  0
 43 45  1  0  0  0  0
 43 48  1  0  0  0  0
 44 52  1  0  0  0  0
 45 54  1  0  0  0  0
 46 49  1  0  0  0  0
 46 55  1  0  0  0  0
 47 50  1  0  0  0  0
 47 55  1  0  0  0  0
 48 72  1  0  0  0  0
 49 70  1  0  0  0  0
 50 70  1  0  0  0  0
 51 54  1  0  0  0  0
 51 72  1  0  0  0  0
 52 75  1  0  0  0  0
 53 71  1  0  0  0  0
 54 69  1  0  0  0  0
 55 85  1  0  0  0  0
 59 66  1  0  0  0  0
 60 67  1  0  0  0  0
 61 67  1  0  0  0  0
 62 67  1  0  0  0  0
 63 78  1  0  0  0  0
 64 77  1  0  0  0  0
 65 67  1  0  0  0  0
 65 76  1  0  0  0  0
 66 78  1  0  0  0  0
 68 69  1  0  0  0  0
M  CHG  1  78   1
M  ISO  4  38 100  55 101  77 100  85 101
M  END
> <Batch ID>
0035

> <Smiles>
CNC(C)C(=O)NC(C(=O)N1Cc2cc([101O:1][101CH:1]3CCN(c4c(C)c(C)cc(C[100NH:0][100C:0](=O)N5CCCC(n6nc(-c7ccc(Oc8ccc(F)cc8F)cc7)c(C(N)=O)c6N)C5)c4C)CC3)ccc2CC1C(=O)NC1CCCc2ccccc21)C(C)(C)C

> <Shape>
0.276

> <Color>
0.057

> <Negative vol penalty>
0.000

$$$$

  -OEChem-04042321513D

 88 97  0     1  0  0  0  0  0999 V2000
  -22.9434  -33.1248   25.3208 C   0  0  0  0  0  0  0  0  0  0  0  0
  -23.8235  -32.1354   24.8943 C   0  0  0  0  0  0  0  0  0  0  0  0
  -26.3933  -12.4334   21.6381 C   0  0  0  0  0  0  0  0  0  0  0  0
  -25.7079  -13.4546   19.5586 C   0  0  0  0  0  0  0  0  0  0  0  0
  -21.5683  -32.9388   25.1850 C   0  0  0  0  0  0  0  0  0  0  0  0
  -23.3289  -30.9588   24.3326 C   0  0  0  0  0  0  0  0  0  0  0  0
  -25.8508  -29.5879   20.1606 C   0  0  0  0  0  0  0  0  0  0  0  0
  -28.2389  -23.5452   17.0363 C   0  0  0  0  0  0  0  0  0  0  0  0
  -27.1067  -22.8613   17.4786 C   0  0  0  0  0  0  0  0  0  0  0  0
  -25.1939  -11.7229   21.6845 C   0  0  0  0  0  0  0  0  0  0  0  0
  -24.5085  -12.7441   19.6050 C   0  0  0  0  0  0  0  0  0  0  0  0
  -27.0897  -28.9736   20.3385 C   0  0  0  0  0  0  0  0  0  0  0  0
  -23.8763   -8.9628   20.2427 C   0  0  0  0  0  0  0  0  0  0  0  0
  -23.9375   -7.6083   20.5703 C   0  0  0  0  0  0  0  0  0  0  0  0
  -26.0659  -26.8188   19.9805 C   0  0  0  0  0  0  0  0  0  0  0  0
  -22.5289   -8.0093   22.4918 C   0  0  0  0  0  0  0  0  0  0  0  0
  -26.6503  -13.2993   20.5752 C   0  0  0  0  0  0  0  0  0  0  0  0
  -29.0962  -13.6265   19.9286 C   0  0  0  0  0  0  0  0  0  0  0  0
  -21.0569  -31.7635   24.6125 C   0  0  0  0  0  0  0  0  0  0  0  0
  -24.7063  -28.8201   19.9017 C   0  0  0  0  0  0  0  0  0  0  0  0
  -21.9456  -30.7563   24.1902 C   0  0  0  0  0  0  0  0  0  0  0  0
  -24.8142  -27.4260   19.7972 C   0  0  0  0  0  0  0  0  0  0  0  0
  -29.4991  -23.1951   17.5212 C   0  0  0  0  0  0  0  0  0  0  0  0
  -27.2344  -21.8273   18.4061 C   0  0  0  0  0  0  0  0  0  0  0  0
  -29.6269  -22.1612   18.4487 C   0  0  0  0  0  0  0  0  0  0  0  0
  -28.4946  -21.4772   18.8911 C   0  0  0  0  0  0  0  0  0  0  0  0
  -24.2515  -11.8782   20.6680 C   0  0  0  0  0  0  0  0  0  0  0  0
  -27.1969  -27.5887   20.2513 C   0  0  0  0  0  0  0  0  0  0  0  0
  -23.1415   -9.8406   21.0398 C   0  0  0  0  0  0  0  0  0  0  0  0
  -23.2637   -7.1316   21.6948 C   0  0  0  0  0  0  0  0  0  0  0  0
  -22.4677   -9.3638   22.1642 C   0  0  0  0  0  0  0  0  0  0  0  0
  -27.8889  -14.0340   20.5269 C   0  0  0  0  0  0  0  0  0  0  0  0
  -29.9608  -14.6695   20.1549 C   0  0  0  0  0  0  0  0  0  0  0  0
  -29.4084  -12.4136   19.2306 C   0  0  0  0  0  0  0  0  0  0  0  0
  -21.9443  -28.3357   21.3985 C   0  0  0  0  0  0  0  0  0  0  0  0
  -21.2263  -26.6692   18.7097 C   0  0  0  0  0  0  0  0  0  0  0  0
  -22.3433  -24.9317   15.9931 C   0  0  0  0  0  0  0  0  0  0  0  0
  -29.1471  -20.5094   21.1236 C   0  0  0  0  0  0  0  0  0  0  0  0
  -19.5613  -31.5874   24.5299 C   0  0  0  0  0  0  0  0  0  0  0  0
  -23.3821  -29.4999   19.6858 C   0  0  0  0  0  0  0  0  0  0  0  0
  -23.6194  -26.5581   19.5010 C   0  0  0  0  0  0  0  0  0  0  0  0
  -19.1308  -30.4716   23.5812 C   0  0  0  0  0  0  0  0  0  0  0  0
  -30.8256  -18.2098   23.2617 C   0  0  0  0  0  0  0  0  0  0  0  0
  -19.9616  -29.2154   23.8228 C   0  0  0  0  0  0  0  0  0  0  0  0
  -31.9031  -27.5295   19.1901 C   0  0  0  0  0  0  0  0  0  0  0  0
  -30.3777  -16.8408   22.7447 C   0  0  0  0  0  0  0  0  0  0  0  0
  -32.9846  -26.5722   18.7066 C   0  0  0  0  0  0  0  0  0  0  0  0
  -29.7003  -19.2402   23.1871 C   0  0  0  0  0  0  0  0  0  0  0  0
  -28.6174  -18.0029   21.3526 C   0  0  0  0  0  0  0  0  0  0  0  0
  -30.1476  -25.8754   18.4815 C   0  0  0  0  0  0  0  0  0  0  0  0
  -21.4484  -29.4768   23.5532 C   0  0  1  0  0  0  0  0  0  0  0  0
  -22.1906  -28.5808   19.9367 C   0  0  1  0  0  0  0  0  0  0  0  0
  -30.6479  -26.7676   19.6155 C   0  0  2  0  0  0  0  0  0  0  0  0
  -29.7362  -16.9484   21.3474 C   0  0  2  0  0  0  0  0  0  0  0  0
  -32.4948  -25.6616   17.5748 C   0  0  1  0  0  0  0  0  0  0  0  0
  -26.0025  -21.1138   18.8612 C   0  0  0  0  0  0  0  0  0  0  0  0
  -30.9821  -21.7918   18.9659 C   0  0  0  0  0  0  0  0  0  0  0  0
  -33.5953  -24.6734   17.1938 C   0  0  0  0  0  0  0  0  0  0  0  0
  -21.5190  -23.6557   13.9956 C   0  0  0  0  0  0  0  0  0  0  0  0
  -20.5222  -24.3091   20.5110 C   0  0  0  0  0  0  0  0  0  0  0  0
  -20.6339  -22.8275   18.4959 C   0  0  0  0  0  0  0  0  0  0  0  0
  -18.9514  -24.6664   18.5980 C   0  0  0  0  0  0  0  0  0  0  0  0
  -23.6644  -26.7958   14.1119 C   0  0  0  0  0  0  0  0  0  0  0  0
  -30.7000  -23.9475   17.0286 C   0  0  0  0  0  0  0  0  0  0  0  0
  -29.5620  -27.7304   20.0458 C   0  0  0  0  0  0  0  0  0  1  0  0
  -21.3918  -25.2364   18.2638 C   0  0  1  0  0  0  0  0  0  0  0  0
  -21.9684  -25.0091   14.5241 C   0  0  2  0  0  0  0  0  0  0  0  0
  -20.3972  -24.2758   18.9747 C   0  0  0  0  0  0  0  0  0  0  0  0
  -27.9748  -15.2416   21.0911 N   0  0  0  0  0  0  0  0  0  0  0  0
  -29.2466  -15.6018   20.8483 N   0  0  0  0  0  0  0  0  0  0  0  0
  -22.3454  -27.2693   19.3040 N   0  0  0  0  0  0  0  0  0  0  0  0
  -29.1437  -19.2900   21.8334 N   0  0  0  0  0  0  0  0  0  0  0  0
  -31.2546  -14.8708   19.8265 N   0  0  0  0  0  0  0  0  0  0  0  0
  -28.4034  -11.4472   19.0881 N   0  0  0  0  0  0  0  0  0  0  0  0
  -28.6220  -20.4275   19.8343 N   0  0  0  0  0  0  0  0  0  0  0  0
  -21.7102  -29.4845   22.1299 N   0  0  0  0  0  0  0  0  0  0  0  0
  -21.2774  -25.2458   16.8094 N   0  0  0  0  0  0  0  0  0  0  0  0
  -31.2450  -24.9226   18.0446 N   0  3  2  0  0  0  0  0  0  0  0  0
  -23.1338  -25.4660   13.7154 N   0  3  0  0  0  0  0  0  0  0  0  0
  -30.5495  -12.1864   18.7618 O   0  0  0  0  0  0  0  0  0  0  0  0
  -21.9636  -27.1892   21.8306 O   0  0  0  0  0  0  0  0  0  0  0  0
  -20.1461  -27.2373   18.5307 O   0  0  0  0  0  0  0  0  0  0  0  0
  -23.4681  -24.6200   16.3779 O   0  0  0  0  0  0  0  0  0  0  0  0
  -29.6086  -21.5437   21.6127 O   0  0  0  0  0  0  0  0  0  0  0  0
  -23.0811  -11.1849   20.7128 O   0  0  0  0  0  0  0  0  0  0  0  0
  -28.4048  -26.9865   20.4252 O   0  0  0  0  0  0  0  0  0  1  0  0
  -23.3213   -5.8306   22.0083 F   0  0  0  0  0  0  0  0  0  0  0  0
  -21.7592  -10.2021   22.9331 F   0  0  0  0  0  0  0  0  0  0  0  0
  1  2  1  0  0  0  0
  1  5  2  0  0  0  0
  2  6  2  0  0  0  0
  3 10  2  0  0  0  0
  3 17  1  0  0  0  0
  4 11  1  0  0  0  0
  4 17  2  0  0  0  0
  5 19  1  0  0  0  0
  6 21  1  0  0  0  0
  7 12  2  0  0  0  0
  7 20  1  0  0  0  0
  8  9  2  0  0  0  0
  8 23  1  0  0  0  0
  9 24  1  0  0  0  0
 10 27  1  0  0  0  0
 11 27  2  0  0  0  0
 12 28  1  0  0  0  0
 13 14  2  0  0  0  0
 13 29  1  0  0  0  0
 14 30  1  0  0  0  0
 15 22  1  0  0  0  0
 15 28  2  0  0  0  0
 16 30  2  0  0  0  0
 16 31  1  0  0  0  0
 17 32  1  0  0  0  0
 18 32  1  0  0  0  0
 18 33  2  0  0  0  0
 18 34  1  0  0  0  0
 19 21  2  0  0  0  0
 19 39  1  0  0  0  0
 20 22  2  0  0  0  0
 20 40  1  0  0  0  0
 21 51  1  0  0  0  0
 22 41  1  0  0  0  0
 23 25  2  0  0  0  0
 23 64  1  0  0  0  0
 24 26  2  0  0  0  0
 24 56  1  0  0  0  0
 25 26  1  0  0  0  0
 25 57  1  0  0  0  0
 26 75  1  0  0  0  0
 27 85  1  0  0  0  0
 28 86  1  0  0  0  0
 29 31  2  0  0  0  0
 29 85  1  0  0  0  0
 30 87  1  0  0  0  0
 31 88  1  0  0  0  0
 32 69  2  0  0  0  0
 33 70  1  0  0  0  0
 33 73  1  0  0  0  0
 34 74  1  0  0  0  0
 34 80  2  0  0  0  0
 35 52  1  0  0  0  0
 35 76  1  0  0  0  0
 35 81  2  0  0  0  0
 36 66  1  0  0  0  0
 36 71  1  0  0  0  0
 36 82  2  0  0  0  0
 37 67  1  0  0  0  0
 37 77  1  0  0  0  0
 37 83  2  0  0  0  0
 38 72  1  0  0  0  0
 38 75  1  0  0  0  0
 38 84  2  0  0  0  0
 39 42  1  0  0  0  0
 40 52  1  0  0  0  0
 41 71  1  0  0  0  0
 42 44  1  0  0  0  0
 43 46  1  0  0  0  0
 43 48  1  0  0  0  0
 44 51  1  0  0  0  0
 45 47  1  0  0  0  0
 45 53  1  0  0  0  0
 46 54  1  0  0  0  0
 47 55  1  0  0  0  0
 48 72  1  0  0  0  0
 49 54  1  0  0  0  0
 49 72  1  0  0  0  0
 50 53  1  0  0  0  0
 50 78  1  0  0  0  0
 51 76  1  0  0  0  0
 52 71  1  0  0  0  0
 53 65  1  0  0  0  0
 54 70  1  0  0  0  0
 55 58  1  0  0  0  0
 55 78  1  0  0  0  0
 59 67  1  0  0  0  0
 60 68  1  0  0  0  0
 61 68  1  0  0  0  0
 62 68  1  0  0  0  0
 63 79  1  0  0  0  0
 64 78  1  0  0  0  0
 65 86  1  0  0  0  0
 66 68  1  0  0  0  0
 66 77  1  0  0  0  0
 67 79  1  0  0  0  0
 69 70  1  0  0  0  0
M  CHG  2  78   1  79   1
M  ISO  4  38 100  65 101  75 100  86 101
M  END
> <Batch ID>
0035

> <Smiles>
CNC(C)C(=O)NC(C(=O)N1Cc2cc([101O:1][101CH2:1]C3CCC(C)N(Cc4ccc(C)c([100NH:0][100C:0](=O)N5CCCC(n6nc(-c7ccc(Oc8ccc(F)cc8F)cc7)c(C(N)=O)c6N)C5)c4C)C3)ccc2CC1C(=O)NC1CCCc2ccccc21)C(C)(C)C

> <Shape>
0.305

> <Color>
0.093

> <Negative vol penalty>
0.000

$$$$

  -OEChem-04042321513D

 87 96  0     1  0  0  0  0  0999 V2000
  -25.0085  -35.6470   22.0165 C   0  0  0  0  0  0  0  0  0  0  0  0
  -25.7516  -34.4715   21.9780 C   0  0  0  0  0  0  0  0  0  0  0  0
  -23.9843  -10.8400   23.5507 C   0  0  0  0  0  0  0  0  0  0  0  0
  -24.5837   -9.2994   21.7888 C   0  0  0  0  0  0  0  0  0  0  0  0
  -23.7070  -35.6314   22.5162 C   0  0  0  0  0  0  0  0  0  0  0  0
  -25.1940  -33.2800   22.4404 C   0  0  0  0  0  0  0  0  0  0  0  0
  -26.0785  -29.3848   19.3276 C   0  0  0  0  0  0  0  0  0  0  0  0
  -23.5961   -9.7688   24.3553 C   0  0  0  0  0  0  0  0  0  0  0  0
  -24.1956   -8.2282   22.5934 C   0  0  0  0  0  0  0  0  0  0  0  0
  -27.3447  -28.8036   19.3787 C   0  0  0  0  0  0  0  0  0  0  0  0
  -21.3115   -6.7341   23.5317 C   0  0  0  0  0  0  0  0  0  0  0  0
  -20.5360   -5.7325   22.9477 C   0  0  0  0  0  0  0  0  0  0  0  0
  -26.4670  -27.0265   20.7537 C   0  0  0  0  0  0  0  0  0  0  0  0
  -30.4683  -18.8414   20.1786 C   0  0  0  0  0  0  0  0  0  0  0  0
  -22.2473   -4.1068   23.4632 C   0  0  0  0  0  0  0  0  0  0  0  0
  -24.4781  -10.6053   22.2674 C   0  0  0  0  0  0  0  0  0  0  0  0
  -24.0740  -12.7799   20.9962 C   0  0  0  0  0  0  0  0  0  0  0  0
  -23.1297  -34.4373   22.9760 C   0  0  0  0  0  0  0  0  0  0  0  0
  -24.9975  -28.7960   19.9993 C   0  0  0  0  0  0  0  0  0  0  0  0
  -23.8841  -33.2487   22.9480 C   0  0  0  0  0  0  0  0  0  0  0  0
  -25.1875  -27.6008   20.7074 C   0  0  0  0  0  0  0  0  0  0  0  0
  -28.3885  -20.5651   20.8757 C   0  0  0  0  0  0  0  0  0  0  0  0
  -28.1113  -19.2442   20.5234 C   0  0  0  0  0  0  0  0  0  0  0  0
  -29.7057  -21.0241   20.8795 C   0  0  0  0  0  0  0  0  0  0  0  0
  -29.1512  -18.3824   20.1749 C   0  0  0  0  0  0  0  0  0  0  0  0
  -23.7018   -8.4629   23.8767 C   0  0  0  0  0  0  0  0  0  0  0  0
  -27.5398  -27.6259   20.0943 C   0  0  0  0  0  0  0  0  0  0  0  0
  -22.5550   -6.4220   24.0815 C   0  0  0  0  0  0  0  0  0  0  0  0
  -21.0038   -4.4189   22.9134 C   0  0  0  0  0  0  0  0  0  0  0  0
  -23.0228   -5.1084   24.0472 C   0  0  0  0  0  0  0  0  0  0  0  0
  -30.7456  -20.1623   20.5310 C   0  0  0  0  0  0  0  0  0  0  0  0
  -24.8787  -11.7115   21.4356 C   0  0  0  0  0  0  0  0  0  0  0  0
  -24.9175  -13.5568   20.2404 C   0  0  0  0  0  0  0  0  0  0  0  0
  -22.6880  -13.0462   21.2489 C   0  0  0  0  0  0  0  0  0  0  0  0
  -23.0588  -29.6968   22.3517 C   0  0  0  0  0  0  0  0  0  0  0  0
  -21.5413  -26.9196   21.6399 C   0  0  0  0  0  0  0  0  0  0  0  0
  -22.4889  -23.5383   20.8115 C   0  0  0  0  0  0  0  0  0  0  0  0
  -29.8235  -16.0670   19.4446 C   0  0  0  0  0  0  0  0  0  0  0  0
  -21.7362  -34.4790   23.5512 C   0  0  0  0  0  0  0  0  0  0  0  0
  -23.6321  -29.4210   19.9122 C   0  0  0  0  0  0  0  0  0  0  0  0
  -24.0554  -26.9180   21.4290 C   0  0  0  0  0  0  0  0  0  0  0  0
  -21.0866  -33.1031   23.6743 C   0  0  0  0  0  0  0  0  0  0  0  0
  -29.5887  -12.6363   18.5215 C   0  0  0  0  0  0  0  0  0  0  0  0
  -30.1753  -24.3582   17.9527 C   0  0  0  0  0  0  0  0  0  0  0  0
  -22.0603  -32.1066   24.2954 C   0  0  0  0  0  0  0  0  0  0  0  0
  -28.2762  -12.1777   19.1612 C   0  0  0  0  0  0  0  0  0  0  0  0
  -29.8821  -25.7619   18.4656 C   0  0  0  0  0  0  0  0  0  0  0  0
  -30.3324  -13.6350   19.4065 C   0  0  0  0  0  0  0  0  0  0  0  0
  -28.2269  -14.3349   20.4770 C   0  0  0  0  0  0  0  0  0  0  0  0
  -30.6481  -23.4387   19.0696 C   0  0  0  0  0  0  0  0  0  0  0  0
  -29.3765  -24.8061   20.7438 C   0  0  0  0  0  0  0  0  0  0  0  0
  -23.3053  -31.9316   23.4174 C   0  0  1  0  0  0  0  0  0  0  0  0
  -22.7135  -29.0121   21.0595 C   0  0  1  0  0  0  0  0  0  0  0  0
  -27.4106  -13.3775   19.5934 C   0  0  2  0  0  0  0  0  0  0  0  0
  -28.9014  -25.7343   19.6337 C   0  0  1  0  0  0  0  0  0  1  0  0
  -27.2719  -21.4886   21.2495 C   0  0  0  0  0  0  0  0  0  0  0  0
  -26.6971  -18.7534   20.5199 C   0  0  0  0  0  0  0  0  0  0  0  0
  -21.2860  -21.7877   19.4753 C   0  0  0  0  0  0  0  0  0  0  0  0
  -20.4889  -25.9892   24.3485 C   0  0  0  0  0  0  0  0  0  0  0  0
  -20.7232  -23.6278   23.5502 C   0  0  0  0  0  0  0  0  0  0  0  0
  -19.1650  -25.1880   22.3838 C   0  0  0  0  0  0  0  0  0  0  0  0
  -24.7927  -23.1812   18.9883 C   0  0  0  0  0  0  0  0  0  0  0  0
  -29.9894  -22.4472   21.2606 C   0  0  0  0  0  0  0  0  0  0  0  0
  -21.6597  -25.4876   22.1027 C   0  0  1  0  0  0  0  0  0  0  0  0
  -22.3600  -22.8642   19.4575 C   0  0  2  0  0  0  0  0  0  0  0  0
  -20.5316  -25.0907   23.0964 C   0  0  0  0  0  0  0  0  0  0  0  0
  -26.1367  -11.7986   20.9953 N   0  0  0  0  0  0  0  0  0  0  0  0
  -26.1289  -12.9308   20.2714 N   0  0  0  0  0  0  0  0  0  0  0  0
  -22.7406  -27.5713   21.3193 N   0  0  0  0  0  0  0  0  0  0  0  0
  -29.4514  -14.7461   19.7727 N   0  0  0  0  0  0  0  0  0  0  0  0
  -24.7338  -14.7075   19.5588 N   0  0  0  0  0  0  0  0  0  0  0  0
  -21.9691  -12.1452   22.0463 N   0  0  0  0  0  0  0  0  0  0  0  0
  -28.8921  -17.0370   19.8137 N   0  0  0  0  0  0  0  0  0  0  0  0
  -23.0109  -31.0763   22.2877 N   0  0  0  0  0  0  0  0  0  0  0  0
  -21.7067  -24.6708   20.8948 N   0  0  0  0  0  0  0  0  0  0  0  0
  -29.6262  -23.4298   20.1816 N   0  3  2  0  0  0  0  0  0  0  0  0
  -23.6523  -22.2324   19.0682 N   0  3  0  0  0  0  0  0  0  0  0  0
  -22.1003  -14.0445   20.7679 O   0  0  0  0  0  0  0  0  0  0  0  0
  -23.3458  -29.0234   23.3344 O   0  0  0  0  0  0  0  0  0  0  0  0
  -20.4251  -27.4386   21.5588 O   0  0  0  0  0  0  0  0  0  0  0  0
  -23.2086  -23.1018   21.7071 O   0  0  0  0  0  0  0  0  0  0  0  0
  -30.8773  -16.3166   18.8536 O   0  0  0  0  0  0  0  0  0  0  0  0
  -23.3234   -7.4173   24.6616 O   0  0  0  0  0  0  0  0  0  0  0  0
  -28.7749  -27.0569   20.1463 O   0  0  0  0  0  0  0  0  0  1  0  0
  -20.2583   -3.4570   22.3539 F   0  0  0  0  0  0  0  0  0  0  0  0
  -24.2161   -4.8023   24.5747 F   0  0  0  0  0  0  0  0  0  0  0  0
  -32.3893  -20.6913   20.5232 Cl  0  0  0  0  0  0  0  0  0  0  0  0
  1  2  1  0  0  0  0
  1  5  2  0  0  0  0
  2  6  2  0  0  0  0
  3  8  2  0  0  0  0
  3 16  1  0  0  0  0
  4  9  1  0  0  0  0
  4 16  2  0  0  0  0
  5 18  1  0  0  0  0
  6 20  1  0  0  0  0
  7 10  2  0  0  0  0
  7 19  1  0  0  0  0
  8 26  1  0  0  0  0
  9 26  2  0  0  0  0
 10 27  1  0  0  0  0
 11 12  2  0  0  0  0
 11 28  1  0  0  0  0
 12 29  1  0  0  0  0
 13 21  1  0  0  0  0
 13 27  2  0  0  0  0
 14 25  1  0  0  0  0
 14 31  2  0  0  0  0
 15 29  2  0  0  0  0
 15 30  1  0  0  0  0
 16 32  1  0  0  0  0
 17 32  1  0  0  0  0
 17 33  2  0  0  0  0
 17 34  1  0  0  0  0
 18 20  2  0  0  0  0
 18 39  1  0  0  0  0
 19 21  2  0  0  0  0
 19 40  1  0  0  0  0
 20 52  1  0  0  0  0
 21 41  1  0  0  0  0
 22 23  1  0  0  0  0
 22 24  2  0  0  0  0
 22 56  1  0  0  0  0
 23 25  2  0  0  0  0
 23 57  1  0  0  0  0
 24 31  1  0  0  0  0
 24 63  1  0  0  0  0
 25 73  1  0  0  0  0
 26 83  1  0  0  0  0
 27 84  1  0  0  0  0
 28 30  2  0  0  0  0
 28 83  1  0  0  0  0
 29 85  1  0  0  0  0
 30 86  1  0  0  0  0
 31 87  1  0  0  0  0
 32 67  2  0  0  0  0
 33 68  1  0  0  0  0
 33 71  1  0  0  0  0
 34 72  1  0  0  0  0
 34 78  2  0  0  0  0
 35 53  1  0  0  0  0
 35 74  1  0  0  0  0
 35 79  2  0  0  0  0
 36 64  1  0  0  0  0
 36 69  1  0  0  0  0
 36 80  2  0  0  0  0
 37 65  1  0  0  0  0
 37 75  1  0  0  0  0
 37 81  2  0  0  0  0
 38 70  1  0  0  0  0
 38 73  1  0  0  0  0
 38 82  2  0  0  0  0
 39 42  1  0  0  0  0
 40 53  1  0  0  0  0
 41 69  1  0  0  0  0
 42 45  1  0  0  0  0
 43 46  1  0  0  0  0
 43 48  1  0  0  0  0
 44 47  1  0  0  0  0
 44 50  1  0  0  0  0
 45 52  1  0  0  0  0
 46 54  1  0  0  0  0
 47 55  1  0  0  0  0
 48 70  1  0  0  0  0
 49 54  1  0  0  0  0
 49 70  1  0  0  0  0
 50 76  1  0  0  0  0
 51 55  1  0  0  0  0
 51 76  1  0  0  0  0
 52 74  1  0  0  0  0
 53 69  1  0  0  0  0
 54 68  1  0  0  0  0
 55 84  1  0  0  0  0
 58 65  1  0  0  0  0
 59 66  1  0  0  0  0
 60 66  1  0  0  0  0
 61 66  1  0  0  0  0
 62 77  1  0  0  0  0
 63 76  1  0  0  0  0
 64 66  1  0  0  0  0
 64 75  1  0  0  0  0
 65 77  1  0  0  0  0
 67 68  1  0  0  0  0
M  CHG  2  76   1  77   1
M  ISO  4  38 100  55 101  73 100  84 101
M  END
> <Batch ID>
0035

> <Smiles>
CNC(C)C(=O)NC(C(=O)N1Cc2cc([101O:1][101CH:1]3CCCN(Cc4c(Cl)cc([100NH:0][100C:0](=O)N5CCCC(n6nc(-c7ccc(Oc8ccc(F)cc8F)cc7)c(C(N)=O)c6N)C5)c(C)c4C)C3)ccc2CC1C(=O)NC1CCCc2ccccc21)C(C)(C)C

> <Shape>
0.333

> <Color>
0.159

> <Negative vol penalty>
0.000

$$$$

  -OEChem-04042321513D

 87 96  0     1  0  0  0  0  0999 V2000
  -21.3318  -27.6676   22.8974 C   0  0  0  0  0  0  0  0  0  0  0  0
  -21.8087  -26.8001   23.8749 C   0  0  0  0  0  0  0  0  0  0  0  0
  -22.8461  -10.0735   20.0610 C   0  0  0  0  0  0  0  0  0  0  0  0
  -24.2940   -9.4723   21.8993 C   0  0  0  0  0  0  0  0  0  0  0  0
  -21.2889  -27.2589   21.5651 C   0  0  0  0  0  0  0  0  0  0  0  0
  -22.2420  -25.5229   23.5207 C   0  0  0  0  0  0  0  0  0  0  0  0
  -26.8253  -22.3538   26.0616 C   0  0  0  0  0  0  0  0  0  0  0  0
  -22.1418   -8.8809   20.2257 C   0  0  0  0  0  0  0  0  0  0  0  0
  -23.5897   -8.2796   22.0639 C   0  0  0  0  0  0  0  0  0  0  0  0
  -26.8477  -21.3447   27.0234 C   0  0  0  0  0  0  0  0  0  0  0  0
  -20.6730   -7.2821   23.4492 C   0  0  0  0  0  0  0  0  0  0  0  0
  -20.3266   -6.9099   24.7480 C   0  0  0  0  0  0  0  0  0  0  0  0
  -26.9134  -19.6862   25.2729 C   0  0  0  0  0  0  0  0  0  0  0  0
  -31.6469  -11.9312   25.8582 C   0  0  0  0  0  0  0  0  0  0  0  0
  -30.0139  -12.5707   27.5199 C   0  0  0  0  0  0  0  0  0  0  0  0
  -21.5995   -4.8710   24.5031 C   0  0  0  0  0  0  0  0  0  0  0  0
  -23.9223  -10.3692   20.8978 C   0  0  0  0  0  0  0  0  0  0  0  0
  -24.1407  -12.9097   20.8206 C   0  0  0  0  0  0  0  0  0  0  0  0
  -21.7309  -25.9795   21.1931 C   0  0  0  0  0  0  0  0  0  0  0  0
  -26.8358  -22.0358   24.6959 C   0  0  0  0  0  0  0  0  0  0  0  0
  -22.2037  -25.0962   22.1824 C   0  0  0  0  0  0  0  0  0  0  0  0
  -26.8937  -20.6932   24.2958 C   0  0  0  0  0  0  0  0  0  0  0  0
  -31.1260  -12.8818   24.9803 C   0  0  0  0  0  0  0  0  0  0  0  0
  -29.4930  -13.5214   26.6420 C   0  0  0  0  0  0  0  0  0  0  0  0
  -30.0490  -13.6769   25.3723 C   0  0  0  0  0  0  0  0  0  0  0  0
  -22.5135   -7.9839   21.2271 C   0  0  0  0  0  0  0  0  0  0  0  0
  -26.8888  -20.0105   26.6290 C   0  0  0  0  0  0  0  0  0  0  0  0
  -21.4826   -6.4488   22.6772 C   0  0  0  0  0  0  0  0  0  0  0  0
  -20.7898   -5.7043   25.2750 C   0  0  0  0  0  0  0  0  0  0  0  0
  -21.9459   -5.2433   23.2042 C   0  0  0  0  0  0  0  0  0  0  0  0
  -31.0909  -11.7756   27.1279 C   0  0  0  0  0  0  0  0  0  0  0  0
  -24.6506  -11.6008   20.7279 C   0  0  0  0  0  0  0  0  0  0  0  0
  -25.2247  -13.7183   20.5802 C   0  0  0  0  0  0  0  0  0  0  0  0
  -22.8066  -13.3548   21.0991 C   0  0  0  0  0  0  0  0  0  0  0  0
  -24.8405  -22.5091   22.2672 C   0  0  0  0  0  0  0  0  0  0  0  0
  -27.2737  -21.2494   20.5309 C   0  0  0  0  0  0  0  0  0  0  0  0
  -30.0652  -19.2875   20.4535 C   0  0  0  0  0  0  0  0  0  0  0  0
  -31.1246  -12.9264   21.2239 C   0  0  0  0  0  0  0  0  0  0  0  0
  -21.6212  -25.5656   19.7469 C   0  0  0  0  0  0  0  0  0  0  0  0
  -26.8382  -23.1368   23.6711 C   0  0  0  0  0  0  0  0  0  0  0  0
  -26.9270  -20.2996   22.8424 C   0  0  0  0  0  0  0  0  0  0  0  0
  -22.4491  -24.3302   19.4025 C   0  0  0  0  0  0  0  0  0  0  0  0
  -29.3943  -13.7921   18.2351 C   0  0  0  0  0  0  0  0  0  0  0  0
  -29.8910  -17.2752   29.0196 C   0  0  0  0  0  0  0  0  0  0  0  0
  -22.2434  -23.2406   20.4500 C   0  0  0  0  0  0  0  0  0  0  0  0
  -27.9363  -13.4468   18.5434 C   0  0  0  0  0  0  0  0  0  0  0  0
  -28.7561  -18.2834   28.8970 C   0  0  0  0  0  0  0  0  0  0  0  0
  -30.3577  -12.7932   18.8721 C   0  0  0  0  0  0  0  0  0  0  0  0
  -28.7186  -12.2514   20.6309 C   0  0  0  0  0  0  0  0  0  0  0  0
  -29.4082  -15.8525   28.7757 C   0  0  0  0  0  0  0  0  0  0  0  0
  -27.5609  -16.7213   27.3187 C   0  0  0  0  0  0  0  0  0  0  0  0
  -22.7058  -23.7117   21.8341 C   0  0  1  0  0  0  0  0  0  0  0  0
  -26.3325  -22.6829   22.3053 C   0  0  1  0  0  0  0  0  0  0  0  0
  -27.7116  -13.2624   20.0562 C   0  0  2  0  0  0  0  0  0  0  0  0
  -28.0338  -18.1488   27.5601 C   0  0  1  0  0  0  0  0  0  1  0  0
  -29.4897  -14.6956   24.4307 C   0  0  0  0  0  0  0  0  0  0  0  0
  -31.8181  -18.4170   18.8829 C   0  0  0  0  0  0  0  0  0  0  0  0
  -25.2674  -19.2440   19.4070 C   0  0  0  0  0  0  0  0  0  0  0  0
  -27.1985  -17.8565   18.6236 C   0  0  0  0  0  0  0  0  0  0  0  0
  -26.8769  -20.1622   17.7275 C   0  0  0  0  0  0  0  0  0  0  0  0
  -32.2395  -20.6155   21.9595 C   0  0  0  0  0  0  0  0  0  0  0  0
  -31.7394  -13.0286   23.6261 C   0  0  0  0  0  0  0  0  0  0  0  0
  -28.3346  -14.3644   27.0875 C   0  0  0  0  0  0  0  0  0  0  0  0
  -27.6757  -19.8574   20.1068 C   0  0  1  0  0  0  0  0  0  0  0  0
  -31.4433  -19.5196   19.8609 C   0  0  2  0  0  0  0  0  0  0  0  0
  -26.7521  -19.2871   18.9937 C   0  0  0  0  0  0  0  0  0  0  0  0
  -25.9568  -11.5747   20.4502 N   0  0  0  0  0  0  0  0  0  0  0  0
  -26.2769  -12.8773   20.3662 N   0  0  0  0  0  0  0  0  0  0  0  0
  -26.9215  -21.4121   21.8782 N   0  0  0  0  0  0  0  0  0  0  0  0
  -30.0927  -12.6658   20.3072 N   0  0  0  0  0  0  0  0  0  0  0  0
  -25.3708  -15.0595   20.5331 N   0  0  0  0  0  0  0  0  0  0  0  0
  -22.4413  -13.5768   22.4338 N   0  0  0  0  0  0  0  0  0  0  0  0
  -24.1488  -23.6570   21.9307 N   0  0  0  0  0  0  0  0  0  0  0  0
  -29.0838  -19.9352   19.7332 N   0  0  0  0  0  0  0  0  0  0  0  0
  -30.7872  -12.7886   22.5647 N   0  0  0  0  0  0  0  0  0  0  0  0
  -28.7291  -15.7748   27.4290 N   0  3  2  0  0  0  0  0  0  0  0  0
  -32.4709  -19.5604   20.9395 N   0  3  0  0  0  0  0  0  0  0  0  0
  -21.9584  -13.5342   20.1925 O   0  0  0  0  0  0  0  0  0  0  0  0
  -24.3531  -21.4142   22.5227 O   0  0  0  0  0  0  0  0  0  0  0  0
  -27.2792  -22.1602   19.6991 O   0  0  0  0  0  0  0  0  0  0  0  0
  -29.8775  -18.5975   21.4530 O   0  0  0  0  0  0  0  0  0  0  0  0
  -32.2610  -13.2625   20.8734 O   0  0  0  0  0  0  0  0  0  0  0  0
  -21.8263   -6.8202   21.3882 O   0  0  0  0  0  0  0  0  0  0  0  0
  -26.9101  -19.0236   27.5657 O   0  0  0  0  0  0  0  0  0  1  0  0
  -20.4583   -5.3477   26.5228 F   0  0  0  0  0  0  0  0  0  0  0  0
  -22.7249   -4.4391   22.4679 F   0  0  0  0  0  0  0  0  0  0  0  0
  -31.7334  -10.6026   28.2113 Cl  0  0  0  0  0  0  0  0  0  0  0  0
  1  2  1  0  0  0  0
  1  5  2  0  0  0  0
  2  6  2  0  0  0  0
  3  8  2  0  0  0  0
  3 17  1  0  0  0  0
  4  9  1  0  0  0  0
  4 17  2  0  0  0  0
  5 19  1  0  0  0  0
  6 21  1  0  0  0  0
  7 10  2  0  0  0  0
  7 20  1  0  0  0  0
  8 26  1  0  0  0  0
  9 26  2  0  0  0  0
 10 27  1  0  0  0  0
 11 12  2  0  0  0  0
 11 28  1  0  0  0  0
 12 29  1  0  0  0  0
 13 22  1  0  0  0  0
 13 27  2  0  0  0  0
 14 23  2  0  0  0  0
 14 31  1  0  0  0  0
 15 24  1  0  0  0  0
 15 31  2  0  0  0  0
 16 29  2  0  0  0  0
 16 30  1  0  0  0  0
 17 32  1  0  0  0  0
 18 32  1  0  0  0  0
 18 33  2  0  0  0  0
 18 34  1  0  0  0  0
 19 21  2  0  0  0  0
 19 39  1  0  0  0  0
 20 22  2  0  0  0  0
 20 40  1  0  0  0  0
 21 52  1  0  0  0  0
 22 41  1  0  0  0  0
 23 25  1  0  0  0  0
 23 62  1  0  0  0  0
 24 25  2  0  0  0  0
 24 63  1  0  0  0  0
 25 56  1  0  0  0  0
 26 83  1  0  0  0  0
 27 84  1  0  0  0  0
 28 30  2  0  0  0  0
 28 83  1  0  0  0  0
 29 85  1  0  0  0  0
 30 86  1  0  0  0  0
 31 87  1  0  0  0  0
 32 67  2  0  0  0  0
 33 68  1  0  0  0  0
 33 71  1  0  0  0  0
 34 72  1  0  0  0  0
 34 78  2  0  0  0  0
 35 53  1  0  0  0  0
 35 73  1  0  0  0  0
 35 79  2  0  0  0  0
 36 64  1  0  0  0  0
 36 69  1  0  0  0  0
 36 80  2  0  0  0  0
 37 65  1  0  0  0  0
 37 74  1  0  0  0  0
 37 81  2  0  0  0  0
 38 70  1  0  0  0  0
 38 75  1  0  0  0  0
 38 82  2  0  0  0  0
 39 42  1  0  0  0  0
 40 53  1  0  0  0  0
 41 69  1  0  0  0  0
 42 45  1  0  0  0  0
 43 46  1  0  0  0  0
 43 48  1  0  0  0  0
 44 47  1  0  0  0  0
 44 50  1  0  0  0  0
 45 52  1  0  0  0  0
 46 54  1  0  0  0  0
 47 55  1  0  0  0  0
 48 70  1  0  0  0  0
 49 54  1  0  0  0  0
 49 70  1  0  0  0  0
 50 76  1  0  0  0  0
 51 55  1  0  0  0  0
 51 76  1  0  0  0  0
 52 73  1  0  0  0  0
 53 69  1  0  0  0  0
 54 68  1  0  0  0  0
 55 84  1  0  0  0  0
 57 65  1  0  0  0  0
 58 66  1  0  0  0  0
 59 66  1  0  0  0  0
 60 66  1  0  0  0  0
 61 77  1  0  0  0  0
 62 75  1  0  0  0  0
 63 76  1  0  0  0  0
 64 66  1  0  0  0  0
 64 74  1  0  0  0  0
 65 77  1  0  0  0  0
 67 68  1  0  0  0  0
M  CHG  2  76   1  77   1
M  ISO  4  38 100  55 101  75 100  84 101
M  END
> <Batch ID>
0035

> <Smiles>
CNC(C)C(=O)NC(C(=O)N1Cc2cc([101O:1][101CH:1]3CCCN(Cc4cc(Cl)cc(C[100NH:0][100C:0](=O)N5CCCC(n6nc(-c7ccc(Oc8ccc(F)cc8F)cc7)c(C(N)=O)c6N)C5)c4C)C3)ccc2CC1C(=O)NC1CCCc2ccccc21)C(C)(C)C

> <Shape>
0.213

> <Color>
0.158

> <Negative vol penalty>
0.000

$$$$

  -OEChem-04042321513D

 88 97  0     1  0  0  0  0  0999 V2000
  -23.8090  -17.6376   22.7143 C   0  0  0  0  0  0  0  0  0  0  0  0
  -24.5509  -18.7572   23.0736 C   0  0  0  0  0  0  0  0  0  0  0  0
  -26.9984  -11.7885   20.4165 C   0  0  0  0  0  0  0  0  0  0  0  0
  -25.8926  -13.8363   19.7679 C   0  0  0  0  0  0  0  0  0  0  0  0
  -22.8049  -17.7500   21.7549 C   0  0  0  0  0  0  0  0  0  0  0  0
  -24.2810  -19.9919   22.4824 C   0  0  0  0  0  0  0  0  0  0  0  0
  -27.0943  -25.3647   23.0707 C   0  0  0  0  0  0  0  0  0  0  0  0
  -25.8061  -11.0875   20.2361 C   0  0  0  0  0  0  0  0  0  0  0  0
  -24.7002  -13.1353   19.5874 C   0  0  0  0  0  0  0  0  0  0  0  0
  -28.1204  -26.0639   22.4366 C   0  0  0  0  0  0  0  0  0  0  0  0
  -22.9249  -10.5960   21.9335 C   0  0  0  0  0  0  0  0  0  0  0  0
  -22.5573   -9.6797   22.9188 C   0  0  0  0  0  0  0  0  0  0  0  0
  -26.4864  -27.2664   21.1315 C   0  0  0  0  0  0  0  0  0  0  0  0
  -31.0018  -22.4745   19.4291 C   0  0  0  0  0  0  0  0  0  0  0  0
  -28.7242  -23.2796   19.4572 C   0  0  0  0  0  0  0  0  0  0  0  0
  -22.5957   -7.9036   21.2813 C   0  0  0  0  0  0  0  0  0  0  0  0
  -27.0417  -13.1630   20.1824 C   0  0  0  0  0  0  0  0  0  0  0  0
  -29.4943  -13.6746   19.7026 C   0  0  0  0  0  0  0  0  0  0  0  0
  -22.5316  -18.9845   21.1431 C   0  0  0  0  0  0  0  0  0  0  0  0
  -25.7547  -25.6037   22.7315 C   0  0  0  0  0  0  0  0  0  0  0  0
  -23.2556  -20.1307   21.5295 C   0  0  0  0  0  0  0  0  0  0  0  0
  -25.4450  -26.5707   21.7645 C   0  0  0  0  0  0  0  0  0  0  0  0
  -30.0447  -23.4057   19.0261 C   0  0  0  0  0  0  0  0  0  0  0  0
  -30.6384  -21.4172   20.2633 C   0  0  0  0  0  0  0  0  0  0  0  0
  -28.3607  -22.2223   20.2914 C   0  0  0  0  0  0  0  0  0  0  0  0
  -29.3178  -21.2912   20.6944 C   0  0  0  0  0  0  0  0  0  0  0  0
  -24.6571  -11.7608   19.8216 C   0  0  0  0  0  0  0  0  0  0  0  0
  -27.8167  -27.0128   21.4648 C   0  0  0  0  0  0  0  0  0  0  0  0
  -23.1278  -10.1662   20.6221 C   0  0  0  0  0  0  0  0  0  0  0  0
  -22.3927   -8.3335   22.5927 C   0  0  0  0  0  0  0  0  0  0  0  0
  -22.9632   -8.8200   20.2960 C   0  0  0  0  0  0  0  0  0  0  0  0
  -28.2729  -13.8878   20.3692 C   0  0  0  0  0  0  0  0  0  0  0  0
  -30.3437  -14.6146   20.2332 C   0  0  0  0  0  0  0  0  0  0  0  0
  -31.5822  -26.6689   17.9275 C   0  0  0  0  0  0  0  0  0  0  0  0
  -32.8582  -26.7106   17.5155 C   0  0  0  0  0  0  0  0  0  0  0  0
  -29.8311  -12.7130   18.6939 C   0  0  0  0  0  0  0  0  0  0  0  0
  -23.4048  -23.8510   21.5031 C   0  0  0  0  0  0  0  0  0  0  0  0
  -21.6364  -26.5023   22.1076 C   0  0  0  0  0  0  0  0  0  0  0  0
  -22.0486  -30.0722   21.7866 C   0  0  0  0  0  0  0  0  0  0  0  0
  -29.4511  -19.9311   22.8107 C   0  0  0  0  0  0  0  0  0  0  0  0
  -21.4285  -19.0511   20.1166 C   0  0  0  0  0  0  0  0  0  0  0  0
  -24.6582  -24.8602   23.4437 C   0  0  0  0  0  0  0  0  0  0  0  0
  -24.0222  -26.8791   21.3787 C   0  0  0  0  0  0  0  0  0  0  0  0
  -30.5512  -27.6811   17.5076 C   0  0  0  0  0  0  0  0  0  0  0  0
  -21.5140  -20.2903   19.2315 C   0  0  0  0  0  0  0  0  0  0  0  0
  -29.8312  -28.2421   18.7279 C   0  0  0  0  0  0  0  0  0  0  0  0
  -31.1186  -17.1266   24.2361 C   0  0  0  0  0  0  0  0  0  0  0  0
  -21.6839  -21.5332   20.0923 C   0  0  0  0  0  0  0  0  0  0  0  0
  -30.6940  -15.9594   23.3419 C   0  0  0  0  0  0  0  0  0  0  0  0
  -29.9835  -18.1292   24.4370 C   0  0  0  0  0  0  0  0  0  0  0  0
  -28.9447  -17.4604   22.3056 C   0  0  0  0  0  0  0  0  0  0  0  0
  -30.4979  -26.1961   20.0447 C   0  0  0  0  0  0  0  0  0  0  0  0
  -23.0004  -21.4777   20.8777 C   0  0  1  0  0  0  0  0  0  0  0  0
  -23.3543  -24.8169   22.6529 C   0  0  1  0  0  0  0  0  0  0  0  0
  -30.0748  -16.4575   22.0213 C   0  0  2  0  0  0  0  0  0  0  0  0
  -29.3509  -27.1242   19.6533 C   0  0  1  0  0  0  0  0  0  1  0  0
  -31.6862  -20.4352   20.6777 C   0  0  0  0  0  0  0  0  0  0  0  0
  -26.9381  -22.1141   20.7371 C   0  0  0  0  0  0  0  0  0  0  0  0
  -33.8942  -25.7193   17.9189 C   0  0  0  0  0  0  0  0  0  0  0  0
  -20.9920  -31.9578   23.0616 C   0  0  0  0  0  0  0  0  0  0  0  0
  -19.5949  -26.5076   19.8399 C   0  0  0  0  0  0  0  0  0  0  0  0
  -19.5593  -29.0075   19.9712 C   0  0  0  0  0  0  0  0  0  0  0  0
  -18.8333  -27.6469   21.9319 C   0  0  0  0  0  0  0  0  0  0  0  0
  -24.6822  -31.2068   22.5187 C   0  0  0  0  0  0  0  0  0  0  0  0
  -30.4356  -24.5427   18.1286 C   0  0  0  0  0  0  0  0  0  0  0  0
  -21.2885  -27.7537   21.3382 C   0  0  1  0  0  0  0  0  0  0  0  0
  -22.2199  -31.0724   22.9157 C   0  0  2  0  0  0  0  0  0  0  0  0
  -19.8434  -27.7150   20.7658 C   0  0  0  0  0  0  0  0  0  0  0  0
  -28.3364  -14.8848   21.2557 N   0  0  0  0  0  0  0  0  0  0  0  0
  -29.6081  -15.3065   21.1499 N   0  0  0  0  0  0  0  0  0  0  0  0
  -22.9856  -26.1213   22.0990 N   0  0  0  0  0  0  0  0  0  0  0  0
  -29.4490  -18.5599   23.1433 N   0  0  0  0  0  0  0  0  0  0  0  0
  -31.6405  -14.9085   20.0004 N   0  0  0  0  0  0  0  0  0  0  0  0
  -29.6501  -13.0640   17.3491 N   0  0  0  0  0  0  0  0  0  0  0  0
  -28.9484  -20.2173   21.5418 N   0  0  0  0  0  0  0  0  0  0  0  0
  -23.0263  -22.5635   21.8328 N   0  0  0  0  0  0  0  0  0  0  0  0
  -21.5443  -28.8717   22.2400 N   0  0  0  0  0  0  0  0  0  0  0  0
  -31.2051  -25.6192   18.8427 N   0  3  1  0  0  0  0  0  0  0  0  0
  -23.4007  -31.9449   22.6601 N   0  3  0  0  0  0  0  0  0  0  0  0
  -30.2637  -11.5701   18.9771 O   0  0  0  0  0  0  0  0  0  0  0  0
  -23.7592  -24.2449   20.3982 O   0  0  0  0  0  0  0  0  0  0  0  0
  -20.7450  -25.8895   22.7005 O   0  0  0  0  0  0  0  0  0  0  0  0
  -22.3304  -30.3314   20.6187 O   0  0  0  0  0  0  0  0  0  0  0  0
  -29.8932  -20.7855   23.5830 O   0  0  0  0  0  0  0  0  0  0  0  0
  -23.4935  -11.0770   19.6452 O   0  0  0  0  0  0  0  0  0  0  0  0
  -28.8164  -27.6962   20.8440 O   0  0  0  0  0  0  0  0  0  1  0  0
  -22.0412   -7.4534   23.5393 F   0  0  0  0  0  0  0  0  0  0  0  0
  -23.1580   -8.4009   19.0381 F   0  0  0  0  0  0  0  0  0  0  0  0
  1  2  1  0  0  0  0
  1  5  2  0  0  0  0
  2  6  2  0  0  0  0
  3  8  2  0  0  0  0
  3 17  1  0  0  0  0
  4  9  1  0  0  0  0
  4 17  2  0  0  0  0
  5 19  1  0  0  0  0
  6 21  1  0  0  0  0
  7 10  2  0  0  0  0
  7 20  1  0  0  0  0
  8 27  1  0  0  0  0
  9 27  2  0  0  0  0
 10 28  1  0  0  0  0
 11 12  2  0  0  0  0
 11 29  1  0  0  0  0
 12 30  1  0  0  0  0
 13 22  1  0  0  0  0
 13 28  2  0  0  0  0
 14 23  1  0  0  0  0
 14 24  2  0  0  0  0
 15 23  2  0  0  0  0
 15 25  1  0  0  0  0
 16 30  2  0  0  0  0
 16 31  1  0  0  0  0
 17 32  1  0  0  0  0
 18 32  1  0  0  0  0
 18 33  2  0  0  0  0
 18 36  1  0  0  0  0
 19 21  2  0  0  0  0
 19 41  1  0  0  0  0
 20 22  2  0  0  0  0
 20 42  1  0  0  0  0
 21 53  1  0  0  0  0
 22 43  1  0  0  0  0
 23 65  1  0  0  0  0
 24 26  1  0  0  0  0
 24 57  1  0  0  0  0
 25 26  2  0  0  0  0
 25 58  1  0  0  0  0
 26 75  1  0  0  0  0
 27 85  1  0  0  0  0
 28 86  1  0  0  0  0
 29 31  2  0  0  0  0
 29 85  1  0  0  0  0
 30 87  1  0  0  0  0
 31 88  1  0  0  0  0
 32 69  2  0  0  0  0
 33 70  1  0  0  0  0
 33 73  1  0  0  0  0
 34 35  2  0  0  0  0
 34 44  1  0  0  0  0
 34 78  1  0  0  0  0
 35 59  1  0  0  0  0
 36 74  1  0  0  0  0
 36 80  2  0  0  0  0
 37 54  1  0  0  0  0
 37 76  1  0  0  0  0
 37 81  2  0  0  0  0
 38 66  1  0  0  0  0
 38 71  1  0  0  0  0
 38 82  2  0  0  0  0
 39 67  1  0  0  0  0
 39 77  1  0  0  0  0
 39 83  2  0  0  0  0
 40 72  1  0  0  0  0
 40 75  1  0  0  0  0
 40 84  2  0  0  0  0
 41 45  1  0  0  0  0
 42 54  1  0  0  0  0
 43 71  1  0  0  0  0
 44 46  1  0  0  0  0
 45 48  1  0  0  0  0
 46 56  1  0  0  0  0
 47 49  1  0  0  0  0
 47 50  1  0  0  0  0
 48 53  1  0  0  0  0
 49 55  1  0  0  0  0
 50 72  1  0  0  0  0
 51 55  1  0  0  0  0
 51 72  1  0  0  0  0
 52 56  1  0  0  0  0
 52 78  1  0  0  0  0
 53 76  1  0  0  0  0
 54 71  1  0  0  0  0
 55 70  1  0  0  0  0
 56 86  1  0  0  0  0
 60 67  1  0  0  0  0
 61 68  1  0  0  0  0
 62 68  1  0  0  0  0
 63 68  1  0  0  0  0
 64 79  1  0  0  0  0
 65 78  1  0  0  0  0
 66 68  1  0  0  0  0
 66 77  1  0  0  0  0
 67 79  1  0  0  0  0
 69 70  1  0  0  0  0
M  CHG  2  78   1  79   1
M  ISO  4  40 100  56 101  75 100  86 101
M  END
> <Batch ID>
0035

> <Smiles>
CC=C1CC[101CH:1]([101O:1]c2ccc3c(c2)CN(C(=O)C(NC(=O)C(C)NC)C(C)(C)C)C(C(=O)NC2CCCc4ccccc42)C3)CN1Cc1cc(C)c([100NH:0][100C:0](=O)N2CCCC(n3nc(-c4ccc(Oc5ccc(F)cc5F)cc4)c(C(N)=O)c3N)C2)c(C)c1

> <Shape>
0.279

> <Color>
0.055

> <Negative vol penalty>
0.000

$$$$

  -OEChem-04042321513D

 84 93  0     1  0  0  0  0  0999 V2000
  -20.8747  -29.6854   25.1146 C   0  0  0  0  0  0  0  0  0  0  0  0
  -22.1660  -29.1946   24.9500 C   0  0  0  0  0  0  0  0  0  0  0  0
  -23.2655  -10.0791   22.1736 C   0  0  0  0  0  0  0  0  0  0  0  0
  -23.5221   -9.5390   19.8328 C   0  0  0  0  0  0  0  0  0  0  0  0
  -19.8458  -29.2265   24.2933 C   0  0  0  0  0  0  0  0  0  0  0  0
  -22.4289  -28.2437   23.9645 C   0  0  0  0  0  0  0  0  0  0  0  0
  -27.5816  -26.1695   19.4408 C   0  0  0  0  0  0  0  0  0  0  0  0
  -22.5353   -8.9061   22.3643 C   0  0  0  0  0  0  0  0  0  0  0  0
  -22.7919   -8.3659   20.0234 C   0  0  0  0  0  0  0  0  0  0  0  0
  -28.2869  -25.0281   19.0620 C   0  0  0  0  0  0  0  0  0  0  0  0
  -23.1743   -5.6064   22.7333 C   0  0  0  0  0  0  0  0  0  0  0  0
  -23.4819   -4.8251   23.8471 C   0  0  0  0  0  0  0  0  0  0  0  0
  -26.4466  -24.3671   17.6494 C   0  0  0  0  0  0  0  0  0  0  0  0
  -31.4662  -18.4154   20.3574 C   0  0  0  0  0  0  0  0  0  0  0  0
  -21.2215   -5.0905   24.6576 C   0  0  0  0  0  0  0  0  0  0  0  0
  -23.7589  -10.3956   20.9078 C   0  0  0  0  0  0  0  0  0  0  0  0
  -24.0764  -12.9267   20.9364 C   0  0  0  0  0  0  0  0  0  0  0  0
  -20.0981  -28.2766   23.2909 C   0  0  0  0  0  0  0  0  0  0  0  0
  -26.2969  -26.4131   18.9343 C   0  0  0  0  0  0  0  0  0  0  0  0
  -21.4021  -27.7707   23.1299 C   0  0  0  0  0  0  0  0  0  0  0  0
  -25.7281  -25.5136   18.0214 C   0  0  0  0  0  0  0  0  0  0  0  0
  -29.0068  -19.7533   20.3654 C   0  0  0  0  0  0  0  0  0  0  0  0
  -30.0392  -20.1847   19.5121 C   0  0  0  0  0  0  0  0  0  0  0  0
  -30.4507  -18.0015   21.2170 C   0  0  0  0  0  0  0  0  0  0  0  0
  -29.2260  -18.6685   21.2239 C   0  0  0  0  0  0  0  0  0  0  0  0
  -22.2985   -8.0495   21.2892 C   0  0  0  0  0  0  0  0  0  0  0  0
  -27.7183  -24.1252   18.1684 C   0  0  0  0  0  0  0  0  0  0  0  0
  -21.8903   -6.1298   22.5816 C   0  0  0  0  0  0  0  0  0  0  0  0
  -22.5055   -4.5671   24.8092 C   0  0  0  0  0  0  0  0  0  0  0  0
  -20.9139   -5.8719   23.5438 C   0  0  0  0  0  0  0  0  0  0  0  0
  -31.2616  -19.5005   19.5053 C   0  0  0  0  0  0  0  0  0  0  0  0
  -24.5128  -11.6075   20.7101 C   0  0  0  0  0  0  0  0  0  0  0  0
  -25.1553  -13.7076   20.6009 C   0  0  0  0  0  0  0  0  0  0  0  0
  -22.8090  -13.4035   21.4078 C   0  0  0  0  0  0  0  0  0  0  0  0
  -23.4003  -26.7035   20.2108 C   0  0  0  0  0  0  0  0  0  0  0  0
  -22.5694  -27.4982   17.1776 C   0  0  0  0  0  0  0  0  0  0  0  0
  -23.2581  -27.3073   13.8405 C   0  0  0  0  0  0  0  0  0  0  0  0
  -30.6323  -14.7672   20.7569 C   0  0  0  0  0  0  0  0  0  0  0  0
  -18.9444  -27.7756   22.4587 C   0  0  0  0  0  0  0  0  0  0  0  0
  -25.5600  -27.6626   19.3322 C   0  0  0  0  0  0  0  0  0  0  0  0
  -27.6926  -20.4931   20.4039 C   0  0  0  0  0  0  0  0  0  0  0  0
  -24.3602  -25.7394   17.4331 C   0  0  0  0  0  0  0  0  0  0  0  0
  -29.8103  -21.3332   18.5565 C   0  0  0  0  0  0  0  0  0  0  0  0
  -19.3799  -27.0445   21.1913 C   0  0  0  0  0  0  0  0  0  0  0  0
  -29.4735  -12.5214   18.2489 C   0  0  0  0  0  0  0  0  0  0  0  0
  -20.4894  -26.0460   21.5056 C   0  0  0  0  0  0  0  0  0  0  0  0
  -28.0466  -12.1878   18.6877 C   0  0  0  0  0  0  0  0  0  0  0  0
  -27.4885  -21.4014   19.1870 C   0  0  0  0  0  0  0  0  0  0  0  0
  -30.4099  -12.6777   19.4451 C   0  0  0  0  0  0  0  0  0  0  0  0
  -28.5267  -13.3042   20.9062 C   0  0  0  0  0  0  0  0  0  0  0  0
  -21.7318  -26.7569   22.0558 C   0  0  1  0  0  0  0  0  0  0  0  0
  -24.0495  -27.5486   19.1515 C   0  0  1  0  0  0  0  0  0  0  0  0
  -27.5333  -13.1921   19.7370 C   0  0  2  0  0  0  0  0  0  0  0  0
  -28.1542  -18.2148   22.1662 C   0  0  0  0  0  0  0  0  0  0  0  0
  -22.3769  -28.0245   11.6030 C   0  0  0  0  0  0  0  0  0  0  0  0
  -20.4236  -25.3344   17.3318 C   0  0  0  0  0  0  0  0  0  0  0  0
  -20.2353  -25.4412   14.8375 C   0  0  0  0  0  0  0  0  0  0  0  0
  -19.6938  -27.4495   16.2146 C   0  0  0  0  0  0  0  0  0  0  0  0
  -25.6991  -28.8737   13.2516 C   0  0  0  0  0  0  0  0  0  0  0  0
  -30.7012  -16.8390   22.1215 C   0  0  0  0  0  0  0  0  0  0  0  0
  -22.1054  -26.7340   15.9611 C   0  0  1  0  0  0  0  0  0  0  0  0
  -23.3026  -28.3713   12.7587 C   0  0  2  0  0  0  0  0  0  0  0  0
  -20.6396  -26.2342   16.0987 C   0  0  0  0  0  0  0  0  0  0  0  0
  -25.7708  -11.5498   20.2651 N   0  0  0  0  0  0  0  0  0  0  0  0
  -26.1341  -12.8425   20.2090 N   0  0  0  0  0  0  0  0  0  0  0  0
  -23.6769  -26.9724   17.8579 N   0  0  0  0  0  0  0  0  0  0  0  0
  -29.8661  -13.6449   20.4015 N   0  0  0  0  0  0  0  0  0  0  0  0
  -28.6967  -22.2000   18.9670 N   0  0  2  0  0  0  0  0  0  1  0  0
  -25.3526  -15.0430   20.6057 N   0  0  0  0  0  0  0  0  0  0  0  0
  -21.8108  -13.6899   20.4666 N   0  0  0  0  0  0  0  0  0  0  0  0
  -22.4745  -27.3805   20.9815 N   0  0  0  0  0  0  0  0  0  0  0  0
  -22.3332  -27.6103   14.8172 N   0  0  0  0  0  0  0  0  0  0  0  0
  -30.0401  -15.6371   21.6643 N   0  0  0  0  0  0  0  0  0  0  0  0
  -24.6874  -28.5109   12.2260 N   0  3  0  0  0  0  0  0  0  0  0  0
  -22.5744  -13.5862   22.6264 O   0  0  0  0  0  0  0  0  0  0  0  0
  -23.7149  -25.5242   20.3198 O   0  0  0  0  0  0  0  0  0  0  0  0
  -21.9755  -28.5277   17.5077 O   0  0  0  0  0  0  0  0  0  0  0  0
  -23.9699  -26.3056   13.8192 O   0  0  0  0  0  0  0  0  0  0  0  0
  -31.7585  -14.9812   20.2954 O   0  0  0  0  0  0  0  0  0  0  0  0
  -21.5862   -6.9046   21.4749 O   0  0  0  0  0  0  0  0  0  0  0  0
  -28.4044  -23.0100   17.7975 O   0  0  0  0  0  0  0  0  0  1  0  0
  -22.8007   -3.8156   25.8779 F   0  0  0  0  0  0  0  0  0  0  0  0
  -19.6782   -6.3710   23.4030 F   0  0  0  0  0  0  0  0  0  0  0  0
  -32.5600  -19.9299   18.4447 Cl  0  0  0  0  0  0  0  0  0  0  0  0
  1  2  1  0  0  0  0
  1  5  2  0  0  0  0
  2  6  2  0  0  0  0
  3  8  2  0  0  0  0
  3 16  1  0  0  0  0
  4  9  1  0  0  0  0
  4 16  2  0  0  0  0
  5 18  1  0  0  0  0
  6 20  1  0  0  0  0
  7 10  2  0  0  0  0
  7 19  1  0  0  0  0
  8 26  1  0  0  0  0
  9 26  2  0  0  0  0
 10 27  1  0  0  0  0
 11 12  2  0  0  0  0
 11 28  1  0  0  0  0
 12 29  1  0  0  0  0
 13 21  1  0  0  0  0
 13 27  2  0  0  0  0
 14 24  1  0  0  0  0
 14 31  2  0  0  0  0
 15 29  2  0  0  0  0
 15 30  1  0  0  0  0
 16 32  1  0  0  0  0
 17 32  1  0  0  0  0
 17 33  2  0  0  0  0
 17 34  1  0  0  0  0
 18 20  2  0  0  0  0
 18 39  1  0  0  0  0
 19 21  2  0  0  0  0
 19 40  1  0  0  0  0
 20 51  1  0  0  0  0
 21 42  1  0  0  0  0
 22 23  2  0  0  0  0
 22 25  1  0  0  0  0
 22 41  1  0  0  0  0
 23 31  1  0  0  0  0
 23 43  1  0  0  0  0
 24 25  2  0  0  0  0
 24 60  1  0  0  0  0
 25 54  1  0  0  0  0
 26 80  1  0  0  0  0
 27 81  1  0  0  0  0
 28 30  2  0  0  0  0
 28 80  1  0  0  0  0
 29 82  1  0  0  0  0
 30 83  1  0  0  0  0
 31 84  1  0  0  0  0
 32 64  2  0  0  0  0
 33 65  1  0  0  0  0
 33 69  1  0  0  0  0
 34 70  1  0  0  0  0
 34 75  2  0  0  0  0
 35 52  1  0  0  0  0
 35 71  1  0  0  0  0
 35 76  2  0  0  0  0
 36 61  1  0  0  0  0
 36 66  1  0  0  0  0
 36 77  2  0  0  0  0
 37 62  1  0  0  0  0
 37 72  1  0  0  0  0
 37 78  2  0  0  0  0
 38 67  1  0  0  0  0
 38 73  1  0  0  0  0
 38 79  2  0  0  0  0
 39 44  1  0  0  0  0
 40 52  1  0  0  0  0
 41 48  1  0  0  0  0
 42 66  1  0  0  0  0
 43 68  1  0  0  0  0
 44 46  1  0  0  0  0
 45 47  1  0  0  0  0
 45 49  1  0  0  0  0
 46 51  1  0  0  0  0
 47 53  1  0  0  0  0
 48 68  1  0  0  0  0
 49 67  1  0  0  0  0
 50 53  1  0  0  0  0
 50 67  1  0  0  0  0
 51 71  1  0  0  0  0
 52 66  1  0  0  0  0
 53 65  1  0  0  0  0
 55 62  1  0  0  0  0
 56 63  1  0  0  0  0
 57 63  1  0  0  0  0
 58 63  1  0  0  0  0
 59 74  1  0  0  0  0
 60 73  1  0  0  0  0
 61 63  1  0  0  0  0
 61 72  1  0  0  0  0
 62 74  1  0  0  0  0
 64 65  1  0  0  0  0
 68 81  1  0  0  0  0
M  CHG  1  74   1
M  ISO  4  38 100  68 101  73 100  81 101
M  END
> <Batch ID>
0035

> <Smiles>
CNC(C)C(=O)NC(C(=O)N1Cc2cc([101O:1][101N:1]3CCc4c(C)c(C[100NH:0][100C:0](=O)N5CCCC(n6nc(-c7ccc(Oc8ccc(F)cc8F)cc7)c(C(N)=O)c6N)C5)cc(Cl)c4C3)ccc2CC1C(=O)NC1CCCc2ccccc21)C(C)(C)C

> <Shape>
0.307

> <Color>
0.188

> <Negative vol penalty>
0.000

$$$$

  -OEChem-04042321513D

 86 95  0     1  0  0  0  0  0999 V2000
  -20.9607  -27.5871   21.1639 C   0  0  0  0  0  0  0  0  0  0  0  0
  -21.7726  -26.4837   21.4064 C   0  0  0  0  0  0  0  0  0  0  0  0
  -23.0763   -9.8660   19.9411 C   0  0  0  0  0  0  0  0  0  0  0  0
  -23.8319   -9.8770   22.2359 C   0  0  0  0  0  0  0  0  0  0  0  0
  -20.9925  -28.6785   22.0309 C   0  0  0  0  0  0  0  0  0  0  0  0
  -22.6175  -26.4716   22.5155 C   0  0  0  0  0  0  0  0  0  0  0  0
  -24.1431  -21.6208   25.9285 C   0  0  0  0  0  0  0  0  0  0  0  0
  -31.5600  -19.3850   22.8534 C   0  0  0  0  0  0  0  0  0  0  0  0
  -22.3327   -8.7128   20.1915 C   0  0  0  0  0  0  0  0  0  0  0  0
  -23.0882   -8.7238   22.4863 C   0  0  0  0  0  0  0  0  0  0  0  0
  -25.2626  -20.7899   25.9302 C   0  0  0  0  0  0  0  0  0  0  0  0
  -19.3822   -7.9167   21.6385 C   0  0  0  0  0  0  0  0  0  0  0  0
  -18.0762   -7.8689   21.1509 C   0  0  0  0  0  0  0  0  0  0  0  0
  -31.4395  -19.1535   21.4832 C   0  0  0  0  0  0  0  0  0  0  0  0
  -26.2333  -22.1114   27.6996 C   0  0  0  0  0  0  0  0  0  0  0  0
  -18.6396   -5.9241   19.8328 C   0  0  0  0  0  0  0  0  0  0  0  0
  -23.8260  -10.4481   20.9633 C   0  0  0  0  0  0  0  0  0  0  0  0
  -24.1665  -12.9733   20.8400 C   0  0  0  0  0  0  0  0  0  0  0  0
  -21.8312  -28.6757   23.1566 C   0  0  0  0  0  0  0  0  0  0  0  0
  -24.0650  -22.7116   26.8063 C   0  0  0  0  0  0  0  0  0  0  0  0
  -22.6616  -27.5645   23.3977 C   0  0  0  0  0  0  0  0  0  0  0  0
  -25.1105  -22.9531   27.7088 C   0  0  0  0  0  0  0  0  0  0  0  0
  -31.1894  -18.3948   23.7633 C   0  0  0  0  0  0  0  0  0  0  0  0
  -30.6981  -17.1732   23.3029 C   0  0  0  0  0  0  0  0  0  0  0  0
  -30.5776  -16.9417   21.9327 C   0  0  0  0  0  0  0  0  0  0  0  0
  -22.3386   -8.1417   21.4641 C   0  0  0  0  0  0  0  0  0  0  0  0
  -26.3092  -21.0368   26.8138 C   0  0  0  0  0  0  0  0  0  0  0  0
  -20.3169   -6.9682   21.2232 C   0  0  0  0  0  0  0  0  0  0  0  0
  -17.7049   -6.8726   20.2481 C   0  0  0  0  0  0  0  0  0  0  0  0
  -19.9456   -5.9719   20.3204 C   0  0  0  0  0  0  0  0  0  0  0  0
  -30.9483  -17.9319   21.0228 C   0  0  0  0  0  0  0  0  0  0  0  0
  -24.5948  -11.6390   20.7052 C   0  0  0  0  0  0  0  0  0  0  0  0
  -25.2589  -13.7228   20.4776 C   0  0  0  0  0  0  0  0  0  0  0  0
  -30.1657  -19.2443   27.3028 C   0  0  0  0  0  0  0  0  0  0  0  0
  -30.5645  -18.3042   28.1679 C   0  0  0  0  0  0  0  0  0  0  0  0
  -22.8949  -13.4890   21.2557 C   0  0  0  0  0  0  0  0  0  0  0  0
  -23.8520  -25.8634   26.4542 C   0  0  0  0  0  0  0  0  0  0  0  0
  -23.4987  -25.8082   29.6782 C   0  0  0  0  0  0  0  0  0  0  0  0
  -24.0373  -24.1717   32.6242 C   0  0  0  0  0  0  0  0  0  0  0  0
  -30.7241  -14.7720   20.6608 C   0  0  0  0  0  0  0  0  0  0  0  0
  -21.8658  -29.8983   24.0391 C   0  0  0  0  0  0  0  0  0  0  0  0
  -22.8387  -23.5826   26.8104 C   0  0  0  0  0  0  0  0  0  0  0  0
  -25.0664  -24.0989   28.6853 C   0  0  0  0  0  0  0  0  0  0  0  0
  -29.6417  -20.5972   27.6711 C   0  0  0  0  0  0  0  0  0  0  0  0
  -22.5136  -29.6498   25.3988 C   0  0  0  0  0  0  0  0  0  0  0  0
  -29.6156  -12.3538   18.2943 C   0  0  0  0  0  0  0  0  0  0  0  0
  -23.8198  -28.8792   25.2351 C   0  0  0  0  0  0  0  0  0  0  0  0
  -28.1753  -12.0620   18.7216 C   0  0  0  0  0  0  0  0  0  0  0  0
  -30.5283  -12.5851   19.4973 C   0  0  0  0  0  0  0  0  0  0  0  0
  -28.6183  -13.3105   20.8738 C   0  0  0  0  0  0  0  0  0  0  0  0
  -29.2923  -20.1543   25.3295 C   0  0  0  0  0  0  0  0  0  0  0  0
  -23.5733  -27.5035   24.6040 C   0  0  1  0  0  0  0  0  0  0  0  0
  -23.0928  -24.9693   27.3933 C   0  0  1  0  0  0  0  0  0  0  0  0
  -27.6478  -13.1348   19.6945 C   0  0  2  0  0  0  0  0  0  0  0  0
  -28.6595  -20.8354   26.5348 C   0  0  1  0  0  0  0  0  0  1  0  0
  -30.3045  -16.1153   24.2864 C   0  0  0  0  0  0  0  0  0  0  0  0
  -23.6682  -24.3928   35.0965 C   0  0  0  0  0  0  0  0  0  0  0  0
  -25.7906  -27.8160   29.8384 C   0  0  0  0  0  0  0  0  0  0  0  0
  -26.0019  -27.2751   32.2738 C   0  0  0  0  0  0  0  0  0  0  0  0
  -23.8907  -28.2750   31.3985 C   0  0  0  0  0  0  0  0  0  0  0  0
  -22.3658  -21.7309   32.7103 C   0  0  0  0  0  0  0  0  0  0  0  0
  -31.3285  -18.6706   25.2315 C   0  0  0  0  0  0  0  0  0  0  0  0
  -24.4388  -25.8668   30.8579 C   0  0  1  0  0  0  0  0  0  0  0  0
  -23.1120  -23.8580   33.7860 C   0  0  2  0  0  0  0  0  0  0  0  0
  -25.0325  -27.2877   31.0725 C   0  0  0  0  0  0  0  0  0  0  0  0
  -25.8605  -11.5433   20.2894 N   0  0  0  0  0  0  0  0  0  0  0  0
  -26.2369  -12.8269   20.1597 N   0  0  0  0  0  0  0  0  0  0  0  0
  -23.8490  -24.9259   28.6464 N   0  0  0  0  0  0  0  0  0  0  0  0
  -29.9671  -13.6169   20.3720 N   0  0  0  0  0  0  0  0  0  0  0  0
  -25.4686  -15.0543   20.4028 N   0  0  0  0  0  0  0  0  0  0  0  0
  -21.8829  -12.5797   21.5925 N   0  0  0  0  0  0  0  0  0  0  0  0
  -30.0746  -15.6980   21.4766 N   0  0  0  0  0  0  0  0  0  0  0  0
  -23.0490  -26.5821   25.5892 N   0  0  0  0  0  0  0  0  0  0  0  0
  -23.6923  -25.3522   32.0008 N   0  0  0  0  0  0  0  0  0  0  0  0
  -30.0168  -18.9404   25.9054 N   0  3  1  0  0  0  0  0  0  0  0  0
  -22.9289  -22.3850   33.9194 N   0  3  0  0  0  0  0  0  0  0  0  0
  -22.6578  -14.7195   21.3106 O   0  0  0  0  0  0  0  0  0  0  0  0
  -25.0755  -25.8998   26.5112 O   0  0  0  0  0  0  0  0  0  0  0  0
  -22.4869  -26.5138   29.6757 O   0  0  0  0  0  0  0  0  0  0  0  0
  -24.9748  -23.4443   32.3041 O   0  0  0  0  0  0  0  0  0  0  0  0
  -31.8540  -14.9407   20.1951 O   0  0  0  0  0  0  0  0  0  0  0  0
  -21.6129   -7.0166   21.7089 O   0  0  0  0  0  0  0  0  0  0  0  0
  -27.4034  -20.2277   26.8171 O   0  0  0  0  0  0  0  0  0  1  0  0
  -16.4504   -6.8259   19.7811 F   0  0  0  0  0  0  0  0  0  0  0  0
  -20.8388   -5.0573   19.9187 F   0  0  0  0  0  0  0  0  0  0  0  0
  -30.8215  -17.6896   19.3164 Cl  0  0  0  0  0  0  0  0  0  0  0  0
  1  2  1  0  0  0  0
  1  5  2  0  0  0  0
  2  6  2  0  0  0  0
  3  9  2  0  0  0  0
  3 17  1  0  0  0  0
  4 10  1  0  0  0  0
  4 17  2  0  0  0  0
  5 19  1  0  0  0  0
  6 21  1  0  0  0  0
  7 11  2  0  0  0  0
  7 20  1  0  0  0  0
  8 14  2  0  0  0  0
  8 23  1  0  0  0  0
  9 26  1  0  0  0  0
 10 26  2  0  0  0  0
 11 27  1  0  0  0  0
 12 13  2  0  0  0  0
 12 28  1  0  0  0  0
 13 29  1  0  0  0  0
 14 31  1  0  0  0  0
 15 22  1  0  0  0  0
 15 27  2  0  0  0  0
 16 29  2  0  0  0  0
 16 30  1  0  0  0  0
 17 32  1  0  0  0  0
 18 32  1  0  0  0  0
 18 33  2  0  0  0  0
 18 36  1  0  0  0  0
 19 21  2  0  0  0  0
 19 41  1  0  0  0  0
 20 22  2  0  0  0  0
 20 42  1  0  0  0  0
 21 52  1  0  0  0  0
 22 43  1  0  0  0  0
 23 24  2  0  0  0  0
 23 62  1  0  0  0  0
 24 25  1  0  0  0  0
 24 56  1  0  0  0  0
 25 31  2  0  0  0  0
 25 72  1  0  0  0  0
 26 82  1  0  0  0  0
 27 83  1  0  0  0  0
 28 30  2  0  0  0  0
 28 82  1  0  0  0  0
 29 84  1  0  0  0  0
 30 85  1  0  0  0  0
 31 86  1  0  0  0  0
 32 66  2  0  0  0  0
 33 67  1  0  0  0  0
 33 70  1  0  0  0  0
 34 35  2  0  0  0  0
 34 44  1  0  0  0  0
 34 75  1  0  0  0  0
 36 71  1  0  0  0  0
 36 77  2  0  0  0  0
 37 53  1  0  0  0  0
 37 73  1  0  0  0  0
 37 78  2  0  0  0  0
 38 63  1  0  0  0  0
 38 68  1  0  0  0  0
 38 79  2  0  0  0  0
 39 64  1  0  0  0  0
 39 74  1  0  0  0  0
 39 80  2  0  0  0  0
 40 69  1  0  0  0  0
 40 72  1  0  0  0  0
 40 81  2  0  0  0  0
 41 45  1  0  0  0  0
 42 53  1  0  0  0  0
 43 68  1  0  0  0  0
 44 55  1  0  0  0  0
 45 47  1  0  0  0  0
 46 48  1  0  0  0  0
 46 49  1  0  0  0  0
 47 52  1  0  0  0  0
 48 54  1  0  0  0  0
 49 69  1  0  0  0  0
 50 54  1  0  0  0  0
 50 69  1  0  0  0  0
 51 55  1  0  0  0  0
 51 75  1  0  0  0  0
 52 73  1  0  0  0  0
 53 68  1  0  0  0  0
 54 67  1  0  0  0  0
 55 83  1  0  0  0  0
 57 64  1  0  0  0  0
 58 65  1  0  0  0  0
 59 65  1  0  0  0  0
 60 65  1  0  0  0  0
 61 76  1  0  0  0  0
 62 75  1  0  0  0  0
 63 65  1  0  0  0  0
 63 74  1  0  0  0  0
 64 76  1  0  0  0  0
 66 67  1  0  0  0  0
M  CHG  2  75   1  76   1
M  ISO  4  40 100  55 101  72 100  83 101
M  END
> <Batch ID>
0035

> <Smiles>
C=C1C[101CH:1]([101O:1]c2ccc3c(c2)CN(C(=O)C(NC(=O)C(C)NC)C(C)(C)C)C(C(=O)NC2CCCc4ccccc42)C3)CN1Cc1ccc(Cl)c([100NH:0][100C:0](=O)N2CCCC(n3nc(-c4ccc(Oc5ccc(F)cc5F)cc4)c(C(N)=O)c3N)C2)c1C

> <Shape>
0.186

> <Color>
0.187

> <Negative vol penalty>
0.000

$$$$

  -OEChem-04042321513D

 90 99  0     1  0  0  0  0  0999 V2000
  -25.1026  -36.5095   23.2926 C   0  0  0  0  0  0  0  0  0  0  0  0
  -26.2348  -35.7834   22.9373 C   0  0  0  0  0  0  0  0  0  0  0  0
  -22.8634   -9.6032   19.9492 C   0  0  0  0  0  0  0  0  0  0  0  0
  -24.5769   -8.7685   21.4339 C   0  0  0  0  0  0  0  0  0  0  0  0
  -23.9486  -35.8430   23.7024 C   0  0  0  0  0  0  0  0  0  0  0  0
  -26.2139  -34.3902   22.9926 C   0  0  0  0  0  0  0  0  0  0  0  0
  -28.9218  -28.6312   19.7036 C   0  0  0  0  0  0  0  0  0  0  0  0
  -21.8807   -9.0741   20.7859 C   0  0  0  0  0  0  0  0  0  0  0  0
  -23.5942   -8.2395   22.2706 C   0  0  0  0  0  0  0  0  0  0  0  0
  -29.6092  -27.4521   19.9882 C   0  0  0  0  0  0  0  0  0  0  0  0
  -21.5798   -5.5251   22.3418 C   0  0  0  0  0  0  0  0  0  0  0  0
  -21.7644   -4.2272   22.8184 C   0  0  0  0  0  0  0  0  0  0  0  0
  -27.5342  -26.4057   20.6354 C   0  0  0  0  0  0  0  0  0  0  0  0
  -27.5734  -18.3383   20.1862 C   0  0  0  0  0  0  0  0  0  0  0  0
  -21.7321   -5.0559   25.0876 C   0  0  0  0  0  0  0  0  0  0  0  0
  -24.2115   -9.4503   20.2732 C   0  0  0  0  0  0  0  0  0  0  0  0
  -25.4536   -9.6775   18.0566 C   0  0  0  0  0  0  0  0  0  0  0  0
  -23.9104  -34.4407   23.7535 C   0  0  0  0  0  0  0  0  0  0  0  0
  -27.5346  -28.7099   19.8934 C   0  0  0  0  0  0  0  0  0  0  0  0
  -25.0587  -33.7043   23.4048 C   0  0  0  0  0  0  0  0  0  0  0  0
  -26.8312  -27.5861   20.3500 C   0  0  0  0  0  0  0  0  0  0  0  0
  -27.0290  -19.6076   20.3809 C   0  0  0  0  0  0  0  0  0  0  0  0
  -25.7607  -19.9064   19.8831 C   0  0  0  0  0  0  0  0  0  0  0  0
  -25.0368  -18.9359   19.1905 C   0  0  0  0  0  0  0  0  0  0  0  0
  -25.5813  -17.6665   18.9958 C   0  0  0  0  0  0  0  0  0  0  0  0
  -26.8495  -17.3677   19.4936 C   0  0  0  0  0  0  0  0  0  0  0  0
  -22.2461   -8.3923   21.9466 C   0  0  0  0  0  0  0  0  0  0  0  0
  -28.9159  -26.3400   20.4569 C   0  0  0  0  0  0  0  0  0  0  0  0
  -21.4715   -6.5884   23.2381 C   0  0  0  0  0  0  0  0  0  0  0  0
  -21.8405   -3.9926   24.1912 C   0  0  0  0  0  0  0  0  0  0  0  0
  -21.5475   -6.3538   24.6110 C   0  0  0  0  0  0  0  0  0  0  0  0
  -25.2271   -9.9961   19.4090 C   0  0  0  0  0  0  0  0  0  0  0  0
  -26.5226  -10.4599   17.6939 C   0  0  0  0  0  0  0  0  0  0  0  0
  -24.7595   -8.7569   17.2043 C   0  0  0  0  0  0  0  0  0  0  0  0
  -25.6174  -30.4591   21.7286 C   0  0  0  0  0  0  0  0  0  0  0  0
  -23.2842  -28.9802   20.0283 C   0  0  0  0  0  0  0  0  0  0  0  0
  -22.6311  -25.6532   18.7945 C   0  0  0  0  0  0  0  0  0  0  0  0
  -28.6697  -15.6445   19.7470 C   0  0  0  0  0  0  0  0  0  0  0  0
  -22.6554  -33.7662   24.2481 C   0  0  0  0  0  0  0  0  0  0  0  0
  -26.8040  -29.9807   19.5563 C   0  0  0  0  0  0  0  0  0  0  0  0
  -25.3388  -27.6126   20.5513 C   0  0  0  0  0  0  0  0  0  0  0  0
  -22.5950  -32.2764   23.9205 C   0  0  0  0  0  0  0  0  0  0  0  0
  -30.4222  -12.5533   19.5229 C   0  0  0  0  0  0  0  0  0  0  0  0
  -30.1191  -22.2224   18.5056 C   0  0  0  0  0  0  0  0  0  0  0  0
  -23.9206  -31.6014   24.2581 C   0  0  0  0  0  0  0  0  0  0  0  0
  -29.3099  -11.5184   19.3391 C   0  0  0  0  0  0  0  0  0  0  0  0
  -30.4087  -23.5444   19.2043 C   0  0  0  0  0  0  0  0  0  0  0  0
  -30.0019  -13.6755   20.4704 C   0  0  0  0  0  0  0  0  0  0  0  0
  -27.6246  -13.3024   19.9425 C   0  0  0  0  0  0  0  0  0  0  0  0
  -29.6304  -21.1643   19.4844 C   0  0  0  0  0  0  0  0  0  0  0  0
  -28.7153  -22.9586   20.9788 C   0  0  0  0  0  0  0  0  0  0  0  0
  -25.0672  -32.1912   23.4280 C   0  0  1  0  0  0  0  0  0  0  0  0
  -25.4647  -30.1087   20.2755 C   0  0  1  0  0  0  0  0  0  0  0  0
  -27.9779  -12.1866   18.9456 C   0  0  2  0  0  0  0  0  0  0  0  0
  -29.2043  -24.0251   20.0076 C   0  0  1  0  0  0  0  0  0  1  0  0
  -25.1803  -21.2694   20.0926 C   0  0  0  0  0  0  0  0  0  0  0  0
  -23.6764  -19.2572   18.6565 C   0  0  0  0  0  0  0  0  0  0  0  0
  -21.2841  -24.8792   16.8238 C   0  0  0  0  0  0  0  0  0  0  0  0
  -21.0188  -28.7025   22.0534 C   0  0  0  0  0  0  0  0  0  0  0  0
  -20.3048  -26.6182   20.8642 C   0  0  0  0  0  0  0  0  0  0  0  0
  -20.2779  -28.8065   19.6670 C   0  0  0  0  0  0  0  0  0  0  0  0
  -24.9190  -24.1459   17.6755 C   0  0  0  0  0  0  0  0  0  0  0  0
  -27.8298  -20.6346   21.1260 C   0  0  0  0  0  0  0  0  0  0  0  0
  -22.4934  -27.7037   20.1842 C   0  0  1  0  0  0  0  0  0  0  0  0
  -22.6762  -25.1953   17.3479 C   0  0  2  0  0  0  0  0  0  0  0  0
  -24.8032  -16.6271   18.2507 C   0  0  0  0  0  0  0  0  0  0  0  0
  -21.0501  -27.9602   20.7025 C   0  0  0  0  0  0  0  0  0  0  0  0
  -26.0836  -10.9094   19.8740 N   0  0  0  0  0  0  0  0  0  0  0  0
  -26.8587  -11.1714   18.8079 N   0  0  0  0  0  0  0  0  0  0  0  0
  -24.6703  -28.8802   20.2137 N   0  0  0  0  0  0  0  0  0  0  0  0
  -28.7344  -14.2643   20.0326 N   0  0  0  0  0  0  0  0  0  0  0  0
  -27.1987  -10.6016   16.5341 N   0  0  0  0  0  0  0  0  0  0  0  0
  -23.6838   -8.0337   17.7375 N   0  0  0  0  0  0  0  0  0  0  0  0
  -27.4213  -16.0845   19.3081 N   0  0  0  0  0  0  0  0  0  0  0  0
  -25.0390  -31.6637   22.0807 N   0  0  0  0  0  0  0  0  0  0  0  0
  -22.5532  -27.0264   18.8934 N   0  0  0  0  0  0  0  0  0  0  0  0
  -28.4230  -21.6847   20.2276 N   0  3  2  0  0  0  0  0  0  0  0  0
  -23.5165  -23.9714   17.2180 N   0  3  0  0  0  0  0  0  0  0  0  0
  -25.0940   -8.5687   16.0101 O   0  0  0  0  0  0  0  0  0  0  0  0
  -26.2144  -29.6927   22.4755 O   0  0  0  0  0  0  0  0  0  0  0  0
  -22.6946  -30.0261   19.7453 O   0  0  0  0  0  0  0  0  0  0  0  0
  -22.6582  -24.8709   19.7420 O   0  0  0  0  0  0  0  0  0  0  0  0
  -29.6566  -16.3767   19.8559 O   0  0  0  0  0  0  0  0  0  0  0  0
  -21.2875   -7.8762   22.7634 O   0  0  0  0  0  0  0  0  0  0  0  0
  -29.5845  -25.1881   20.7362 O   0  0  0  0  0  0  0  0  0  1  0  0
  -22.0162   -2.7461   24.6488 F   0  0  0  0  0  0  0  0  0  0  0  0
  -21.4429   -7.3711   25.4770 F   0  0  0  0  0  0  0  0  0  0  0  0
  -23.5840  -17.0649   17.8243 F   0  0  0  0  0  0  0  0  0  0  0  0
  -25.4368  -16.1763   17.1304 F   0  0  0  0  0  0  0  0  0  0  0  0
  -24.5561  -15.5211   19.0076 F   0  0  0  0  0  0  0  0  0  0  0  0
  1  2  1  0  0  0  0
  1  5  2  0  0  0  0
  2  6  2  0  0  0  0
  3  8  2  0  0  0  0
  3 16  1  0  0  0  0
  4  9  1  0  0  0  0
  4 16  2  0  0  0  0
  5 18  1  0  0  0  0
  6 20  1  0  0  0  0
  7 10  2  0  0  0  0
  7 19  1  0  0  0  0
  8 27  1  0  0  0  0
  9 27  2  0  0  0  0
 10 28  1  0  0  0  0
 11 12  2  0  0  0  0
 11 29  1  0  0  0  0
 12 30  1  0  0  0  0
 13 21  1  0  0  0  0
 13 28  2  0  0  0  0
 14 22  1  0  0  0  0
 14 26  2  0  0  0  0
 15 30  2  0  0  0  0
 15 31  1  0  0  0  0
 16 32  1  0  0  0  0
 17 32  1  0  0  0  0
 17 33  2  0  0  0  0
 17 34  1  0  0  0  0
 18 20  2  0  0  0  0
 18 39  1  0  0  0  0
 19 21  2  0  0  0  0
 19 40  1  0  0  0  0
 20 52  1  0  0  0  0
 21 41  1  0  0  0  0
 22 23  2  0  0  0  0
 22 63  1  0  0  0  0
 23 24  1  0  0  0  0
 23 56  1  0  0  0  0
 24 25  2  0  0  0  0
 24 57  1  0  0  0  0
 25 26  1  0  0  0  0
 25 66  1  0  0  0  0
 26 74  1  0  0  0  0
 27 84  1  0  0  0  0
 28 85  1  0  0  0  0
 29 31  2  0  0  0  0
 29 84  1  0  0  0  0
 30 86  1  0  0  0  0
 31 87  1  0  0  0  0
 32 68  2  0  0  0  0
 33 69  1  0  0  0  0
 33 72  1  0  0  0  0
 34 73  1  0  0  0  0
 34 79  2  0  0  0  0
 35 53  1  0  0  0  0
 35 75  1  0  0  0  0
 35 80  2  0  0  0  0
 36 64  1  0  0  0  0
 36 70  1  0  0  0  0
 36 81  2  0  0  0  0
 37 65  1  0  0  0  0
 37 76  1  0  0  0  0
 37 82  2  0  0  0  0
 38 71  1  0  0  0  0
 38 74  1  0  0  0  0
 38 83  2  0  0  0  0
 39 42  1  0  0  0  0
 40 53  1  0  0  0  0
 41 70  1  0  0  0  0
 42 45  1  0  0  0  0
 43 46  1  0  0  0  0
 43 48  1  0  0  0  0
 44 47  1  0  0  0  0
 44 50  1  0  0  0  0
 45 52  1  0  0  0  0
 46 54  1  0  0  0  0
 47 55  1  0  0  0  0
 48 71  1  0  0  0  0
 49 54  1  0  0  0  0
 49 71  1  0  0  0  0
 50 77  1  0  0  0  0
 51 55  1  0  0  0  0
 51 77  1  0  0  0  0
 52 75  1  0  0  0  0
 53 70  1  0  0  0  0
 54 69  1  0  0  0  0
 55 85  1  0  0  0  0
 58 65  1  0  0  0  0
 59 67  1  0  0  0  0
 60 67  1  0  0  0  0
 61 67  1  0  0  0  0
 62 78  1  0  0  0  0
 63 77  1  0  0  0  0
 64 67  1  0  0  0  0
 64 76  1  0  0  0  0
 65 78  1  0  0  0  0
 66 88  1  0  0  0  0
 66 89  1  0  0  0  0
 66 90  1  0  0  0  0
 68 69  1  0  0  0  0
M  CHG  2  77   1  78   1
M  ISO  4  38 100  55 101  74 100  85 101
M  END
> <Batch ID>
0035

> <Smiles>
CNC(C)C(=O)NC(C(=O)N1Cc2cc([101O:1][101CH:1]3CCCN(Cc4cc([100NH:0][100C:0](=O)N5CCCC(n6nc(-c7ccc(Oc8ccc(F)cc8F)cc7)c(C(N)=O)c6N)C5)c(C(F)(F)F)c(C)c4C)C3)ccc2CC1C(=O)NC1CCCc2ccccc21)C(C)(C)C

> <Shape>
0.330

> <Color>
0.078

> <Negative vol penalty>
0.000

$$$$

  -OEChem-04042321513D

 83 91  0     1  0  0  0  0  0999 V2000
  -24.7396  -37.0989   21.1146 C   0  0  0  0  0  0  0  0  0  0  0  0
  -25.4504  -36.0178   20.6032 C   0  0  0  0  0  0  0  0  0  0  0  0
  -24.4298   -9.3805   21.7114 C   0  0  0  0  0  0  0  0  0  0  0  0
  -22.5958  -10.4722   20.5794 C   0  0  0  0  0  0  0  0  0  0  0  0
  -24.1567  -37.0135   22.3783 C   0  0  0  0  0  0  0  0  0  0  0  0
  -25.5796  -34.8510   21.3558 C   0  0  0  0  0  0  0  0  0  0  0  0
  -25.7577  -29.1066   19.2402 C   0  0  0  0  0  0  0  0  0  0  0  0
  -23.7036   -8.1900   21.7400 C   0  0  0  0  0  0  0  0  0  0  0  0
  -21.8695   -9.2817   20.6079 C   0  0  0  0  0  0  0  0  0  0  0  0
  -26.8144  -28.2350   18.9804 C   0  0  0  0  0  0  0  0  0  0  0  0
  -21.1924   -6.8479   23.5612 C   0  0  0  0  0  0  0  0  0  0  0  0
  -21.1764   -6.1279   24.7557 C   0  0  0  0  0  0  0  0  0  0  0  0
  -26.5137  -27.2322   21.1537 C   0  0  0  0  0  0  0  0  0  0  0  0
  -27.0363  -20.4810   18.7946 C   0  0  0  0  0  0  0  0  0  0  0  0
  -26.8651  -20.3703   21.5769 C   0  0  0  0  0  0  0  0  0  0  0  0
  -22.1733   -4.2372   23.6294 C   0  0  0  0  0  0  0  0  0  0  0  0
  -23.8759  -10.5217   21.1311 C   0  0  0  0  0  0  0  0  0  0  0  0
  -25.5063  -12.1868   20.0935 C   0  0  0  0  0  0  0  0  0  0  0  0
  -24.2707  -35.8416   23.1427 C   0  0  0  0  0  0  0  0  0  0  0  0
  -25.0769  -29.0547   20.4651 C   0  0  0  0  0  0  0  0  0  0  0  0
  -24.9988  -34.7503   22.6314 C   0  0  0  0  0  0  0  0  0  0  0  0
  -25.4470  -28.1025   21.4255 C   0  0  0  0  0  0  0  0  0  0  0  0
  -26.1828  -19.5619   19.4048 C   0  0  0  0  0  0  0  0  0  0  0  0
  -27.8044  -21.3447   19.5756 C   0  0  0  0  0  0  0  0  0  0  0  0
  -26.0971  -19.5066   20.7959 C   0  0  0  0  0  0  0  0  0  0  0  0
  -22.4234   -8.1406   21.1882 C   0  0  0  0  0  0  0  0  0  0  0  0
  -27.1944  -27.2996   19.9383 C   0  0  0  0  0  0  0  0  0  0  0  0
  -21.6987   -6.2626   22.4007 C   0  0  0  0  0  0  0  0  0  0  0  0
  -21.6669   -4.8226   24.7899 C   0  0  0  0  0  0  0  0  0  0  0  0
  -22.1892   -4.9572   22.4349 C   0  0  0  0  0  0  0  0  0  0  0  0
  -27.7187  -21.2894   20.9667 C   0  0  0  0  0  0  0  0  0  0  0  0
  -24.6254  -11.7519   21.1018 C   0  0  0  0  0  0  0  0  0  0  0  0
  -25.9584  -13.4063   20.5351 C   0  0  0  0  0  0  0  0  0  0  0  0
  -25.8822  -11.5459   18.8673 C   0  0  0  0  0  0  0  0  0  0  0  0
  -24.6360  -31.0812   22.8739 C   0  0  0  0  0  0  0  0  0  0  0  0
  -22.6560  -28.7520   23.9586 C   0  0  0  0  0  0  0  0  0  0  0  0
  -21.7948  -25.4497   23.9596 C   0  0  0  0  0  0  0  0  0  0  0  0
  -25.0473  -18.4082   22.8053 C   0  0  0  0  0  0  0  0  0  0  0  0
  -23.6635  -35.8133   24.5230 C   0  0  0  0  0  0  0  0  0  0  0  0
  -23.9219  -29.9839   20.7193 C   0  0  0  0  0  0  0  0  0  0  0  0
  -24.7353  -27.9924   22.7483 C   0  0  0  0  0  0  0  0  0  0  0  0
  -23.5292  -34.4066   25.1006 C   0  0  0  0  0  0  0  0  0  0  0  0
  -25.4700  -15.6668   25.0377 C   0  0  0  0  0  0  0  0  0  0  0  0
  -24.8209  -33.6209   24.8982 C   0  0  0  0  0  0  0  0  0  0  0  0
  -25.3604  -14.4397   24.1298 C   0  0  0  0  0  0  0  0  0  0  0  0
  -24.5164  -16.7792   24.6052 C   0  0  0  0  0  0  0  0  0  0  0  0
  -24.5119  -15.9465   22.2867 C   0  0  0  0  0  0  0  0  0  0  0  0
  -25.1401  -33.4587   23.4072 C   0  0  1  0  0  0  0  0  0  0  0  0
  -23.6328  -30.1856   22.2036 C   0  0  1  0  0  0  0  0  0  0  0  0
  -25.5000  -14.8239   22.6437 C   0  0  2  0  0  0  0  0  0  0  0  0
  -25.3733  -18.6474   18.5435 C   0  0  0  0  0  0  0  0  0  0  0  0
  -20.1567  -23.8414   24.9733 C   0  0  0  0  0  0  0  0  0  0  0  0
  -24.2113  -28.8254   26.5826 C   0  0  0  0  0  0  0  0  0  0  0  0
  -23.1878  -26.6175   27.1704 C   0  0  0  0  0  0  0  0  0  0  0  0
  -21.7329  -28.6174   26.8445 C   0  0  0  0  0  0  0  0  0  0  0  0
  -20.6925  -24.7226   21.3110 C   0  0  0  0  0  0  0  0  0  0  0  0
  -28.7107  -22.3179   18.8811 C   0  0  0  0  0  0  0  0  0  0  0  0
  -29.0964  -24.7095   18.2726 C   0  0  0  0  0  0  0  0  0  0  0  0
  -28.4466  -26.0781   18.3271 C   0  0  0  0  0  0  0  0  0  1  0  0
  -22.8181  -27.5333   24.8347 C   0  0  1  0  0  0  0  0  0  0  0  0
  -20.4530  -24.7586   23.7970 C   0  0  2  0  0  0  0  0  0  0  0  0
  -23.0024  -27.9015   26.3340 C   0  0  0  0  0  0  0  0  0  0  0  0
  -24.5227  -12.6241   22.1082 N   0  0  0  0  0  0  0  0  0  0  0  0
  -25.3450  -13.6192   21.7345 N   0  0  0  0  0  0  0  0  0  0  0  0
  -23.6164  -28.9273   22.9523 N   0  0  0  0  0  0  0  0  0  0  0  0
  -24.7086  -17.0929   23.1877 N   0  0  0  0  0  0  0  0  0  0  0  0
  -26.8170  -14.3064   20.0107 N   0  0  0  0  0  0  0  0  0  0  0  0
  -25.3237  -10.2957   18.5683 N   0  0  0  0  0  0  0  0  0  0  0  0
  -25.2367  -18.5794   21.4344 N   0  0  0  0  0  0  0  0  0  0  0  0
  -24.3138  -32.4240   22.8231 N   0  0  0  0  0  0  0  0  0  0  0  0
  -21.6648  -26.6812   24.5661 N   0  0  0  0  0  0  0  0  0  0  0  0
  -20.4382  -23.9430   22.5498 N   0  3  0  0  0  0  0  0  0  0  0  0
  -28.1927  -23.7126   18.9001 N   0  3  0  0  0  0  0  0  0  0  0  0
  -26.7021  -12.0589   18.0685 O   0  0  0  0  0  0  0  0  0  0  0  0
  -25.6280  -30.5902   23.3996 O   0  0  0  0  0  0  0  0  0  0  0  0
  -21.7079  -29.5163   24.1552 O   0  0  0  0  0  0  0  0  0  0  0  0
  -22.8528  -24.9458   23.5893 O   0  0  0  0  0  0  0  0  0  0  0  0
  -25.1876  -19.3096   23.6358 O   0  0  0  0  0  0  0  0  0  0  0  0
  -21.7146   -6.9790   21.2158 O   0  0  0  0  0  0  0  0  0  0  0  0
  -28.2260  -26.4481   19.6875 O   0  0  0  0  0  0  0  0  0  1  0  0
  -21.6530   -4.1318   25.9374 F   0  0  0  0  0  0  0  0  0  0  0  0
  -22.6780   -4.3900   21.3235 F   0  0  0  0  0  0  0  0  0  0  0  0
  -28.6539  -22.3420   21.9653 Cl  0  0  0  0  0  0  0  0  0  0  0  0
  1  2  1  0  0  0  0
  1  5  2  0  0  0  0
  2  6  2  0  0  0  0
  3  8  2  0  0  0  0
  3 17  1  0  0  0  0
  4  9  1  0  0  0  0
  4 17  2  0  0  0  0
  5 19  1  0  0  0  0
  6 21  1  0  0  0  0
  7 10  2  0  0  0  0
  7 20  1  0  0  0  0
  8 26  1  0  0  0  0
  9 26  2  0  0  0  0
 10 27  1  0  0  0  0
 11 12  2  0  0  0  0
 11 28  1  0  0  0  0
 12 29  1  0  0  0  0
 13 22  1  0  0  0  0
 13 27  2  0  0  0  0
 14 23  2  0  0  0  0
 14 24  1  0  0  0  0
 15 25  2  0  0  0  0
 15 31  1  0  0  0  0
 16 29  2  0  0  0  0
 16 30  1  0  0  0  0
 17 32  1  0  0  0  0
 18 32  1  0  0  0  0
 18 33  2  0  0  0  0
 18 34  1  0  0  0  0
 19 21  2  0  0  0  0
 19 39  1  0  0  0  0
 20 22  2  0  0  0  0
 20 40  1  0  0  0  0
 21 48  1  0  0  0  0
 22 41  1  0  0  0  0
 23 25  1  0  0  0  0
 23 51  1  0  0  0  0
 24 31  2  0  0  0  0
 24 57  1  0  0  0  0
 25 69  1  0  0  0  0
 26 79  1  0  0  0  0
 27 80  1  0  0  0  0
 28 30  2  0  0  0  0
 28 79  1  0  0  0  0
 29 81  1  0  0  0  0
 30 82  1  0  0  0  0
 31 83  1  0  0  0  0
 32 63  2  0  0  0  0
 33 64  1  0  0  0  0
 33 67  1  0  0  0  0
 34 68  1  0  0  0  0
 34 74  2  0  0  0  0
 35 49  1  0  0  0  0
 35 70  1  0  0  0  0
 35 75  2  0  0  0  0
 36 60  1  0  0  0  0
 36 65  1  0  0  0  0
 36 76  2  0  0  0  0
 37 61  1  0  0  0  0
 37 71  1  0  0  0  0
 37 77  2  0  0  0  0
 38 66  1  0  0  0  0
 38 69  1  0  0  0  0
 38 78  2  0  0  0  0
 39 42  1  0  0  0  0
 40 49  1  0  0  0  0
 41 65  1  0  0  0  0
 42 44  1  0  0  0  0
 43 45  1  0  0  0  0
 43 46  1  0  0  0  0
 44 48  1  0  0  0  0
 45 50  1  0  0  0  0
 46 66  1  0  0  0  0
 47 50  1  0  0  0  0
 47 66  1  0  0  0  0
 48 70  1  0  0  0  0
 49 65  1  0  0  0  0
 50 64  1  0  0  0  0
 52 61  1  0  0  0  0
 53 62  1  0  0  0  0
 54 62  1  0  0  0  0
 55 62  1  0  0  0  0
 56 72  1  0  0  0  0
 57 73  1  0  0  0  0
 58 59  1  0  0  0  0
 58 73  1  0  0  0  0
 59 80  1  0  0  0  0
 60 62  1  0  0  0  0
 60 71  1  0  0  0  0
 61 72  1  0  0  0  0
 63 64  1  0  0  0  0
M  CHG  2  72   1  73   1
M  ISO  4  38 100  59 101  69 100  80 101
M  END
> <Batch ID>
0035

> <Smiles>
CNC(C)C(=O)NC(C(=O)N1Cc2cc([101O:1][101CH2:1]CNCc3cc(C)c([100NH:0][100C:0](=O)N4CCCC(n5nc(-c6ccc(Oc7ccc(F)cc7F)cc6)c(C(N)=O)c5N)C4)cc3Cl)ccc2CC1C(=O)NC1CCCc2ccccc21)C(C)(C)C

> <Shape>
0.269

> <Color>
0.113

> <Negative vol penalty>
0.000

$$$$

  -OEChem-04042321513D

 85 93  0     1  0  0  0  0  0999 V2000
  -18.0329  -32.7313   24.1314 C   0  0  0  0  0  0  0  0  0  0  0  0
  -19.2705  -32.9965   23.5539 C   0  0  0  0  0  0  0  0  0  0  0  0
  -25.5479  -13.6522   21.4448 C   0  0  0  0  0  0  0  0  0  0  0  0
  -25.2565  -14.1396   19.0965 C   0  0  0  0  0  0  0  0  0  0  0  0
  -17.7818  -31.4814   24.6957 C   0  0  0  0  0  0  0  0  0  0  0  0
  -20.2581  -32.0122   23.5414 C   0  0  0  0  0  0  0  0  0  0  0  0
  -25.7106  -29.6249   19.5555 C   0  0  0  0  0  0  0  0  0  0  0  0
  -24.5494  -12.6814   21.3673 C   0  0  0  0  0  0  0  0  0  0  0  0
  -24.2579  -13.1688   19.0190 C   0  0  0  0  0  0  0  0  0  0  0  0
  -27.0653  -29.3125   19.6600 C   0  0  0  0  0  0  0  0  0  0  0  0
  -24.2541   -9.4930   20.2813 C   0  0  0  0  0  0  0  0  0  0  0  0
  -24.4969   -8.2631   20.8928 C   0  0  0  0  0  0  0  0  0  0  0  0
  -28.2574  -24.2147   17.3340 C   0  0  0  0  0  0  0  0  0  0  0  0
  -26.4916  -27.1637   20.5941 C   0  0  0  0  0  0  0  0  0  0  0  0
  -29.6799  -22.5017   15.6533 C   0  0  0  0  0  0  0  0  0  0  0  0
  -22.5720   -8.5906   22.3157 C   0  0  0  0  0  0  0  0  0  0  0  0
  -25.9014  -14.3814   20.3095 C   0  0  0  0  0  0  0  0  0  0  0  0
  -29.5112  -24.5920   16.8531 C   0  0  0  0  0  0  0  0  0  0  0  0
  -28.3128  -15.2037   20.1800 C   0  0  0  0  0  0  0  0  0  0  0  0
  -18.7635  -30.4780   24.6815 C   0  0  0  0  0  0  0  0  0  0  0  0
  -24.7348  -28.7117   19.9803 C   0  0  0  0  0  0  0  0  0  0  0  0
  -20.0203  -30.7481   24.1072 C   0  0  0  0  0  0  0  0  0  0  0  0
  -25.1251  -27.4658   20.4915 C   0  0  0  0  0  0  0  0  0  0  0  0
  -27.7149  -22.9809   16.9747 C   0  0  0  0  0  0  0  0  0  0  0  0
  -30.2224  -23.7355   16.0127 C   0  0  0  0  0  0  0  0  0  0  0  0
  -28.4261  -22.1244   16.1343 C   0  0  0  0  0  0  0  0  0  0  0  0
  -23.9044  -12.4396   20.1544 C   0  0  0  0  0  0  0  0  0  0  0  0
  -27.4561  -28.0829   20.1820 C   0  0  0  0  0  0  0  0  0  0  0  0
  -23.1703  -10.2718   20.6870 C   0  0  0  0  0  0  0  0  0  0  0  0
  -23.6558   -7.8119   21.9100 C   0  0  0  0  0  0  0  0  0  0  0  0
  -22.3292   -9.8206   21.7041 C   0  0  0  0  0  0  0  0  0  0  0  0
  -26.9325  -15.3848   20.3890 C   0  0  0  0  0  0  0  0  0  0  0  0
  -28.8554  -16.4510   20.3706 C   0  0  0  0  0  0  0  0  0  0  0  0
  -30.0662  -25.9027   17.2460 C   0  0  0  0  0  0  0  0  0  0  0  0
  -29.0395  -14.0145   19.8434 C   0  0  0  0  0  0  0  0  0  0  0  0
  -22.4584  -28.7316   22.1988 C   0  0  0  0  0  0  0  0  0  0  0  0
  -21.6553  -25.8959   20.8438 C   0  0  0  0  0  0  0  0  0  0  0  0
  -22.4437  -22.7076   19.3503 C   0  0  0  0  0  0  0  0  0  0  0  0
  -26.6217  -21.9858   19.8931 C   0  0  0  0  0  0  0  0  0  0  0  0
  -18.4621  -29.1580   25.3459 C   0  0  0  0  0  0  0  0  0  0  0  0
  -23.2770  -29.0531   19.8360 C   0  0  0  0  0  0  0  0  0  0  0  0
  -24.1163  -26.4425   20.9428 C   0  0  0  0  0  0  0  0  0  0  0  0
  -19.4325  -28.0453   24.9582 C   0  0  0  0  0  0  0  0  0  0  0  0
  -28.1256  -20.5250   22.7708 C   0  0  0  0  0  0  0  0  0  0  0  0
  -20.8726  -28.5429   25.0328 C   0  0  0  0  0  0  0  0  0  0  0  0
  -28.1149  -19.0256   22.4679 C   0  0  0  0  0  0  0  0  0  0  0  0
  -26.8749  -21.2180   22.2347 C   0  0  0  0  0  0  0  0  0  0  0  0
  -26.5953  -19.4902   20.4997 C   0  0  0  0  0  0  0  0  0  0  0  0
  -21.1086  -29.6980   24.0521 C   0  0  1  0  0  0  0  0  0  0  0  0
  -22.3802  -28.2537   20.7764 C   0  0  1  0  0  0  0  0  0  0  0  0
  -27.8628  -18.7576   20.9719 C   0  0  2  0  0  0  0  0  0  0  0  0
  -31.5662  -24.1179   15.4847 C   0  0  0  0  0  0  0  0  0  0  0  0
  -27.8651  -20.7991   15.7355 C   0  0  0  0  0  0  0  0  0  0  0  0
  -21.5884  -20.6318   18.2293 C   0  0  0  0  0  0  0  0  0  0  0  0
  -21.8184  -24.6613   23.6293 C   0  0  0  0  0  0  0  0  0  0  0  0
  -21.8908  -22.4041   22.5485 C   0  0  0  0  0  0  0  0  0  0  0  0
  -19.8921  -23.8659   22.2468 C   0  0  0  0  0  0  0  0  0  0  0  0
  -23.0819  -23.7587   16.6583 C   0  0  0  0  0  0  0  0  0  0  0  0
  -26.3708  -22.5982   17.5012 C   0  0  0  0  0  0  0  0  0  0  0  0
  -30.8066  -27.4059   19.0595 C   0  0  0  0  0  0  0  0  0  0  0  0
  -29.6570  -28.3570   19.3238 C   0  0  0  0  0  0  0  0  0  1  0  0
  -22.0485  -24.4554   21.0659 C   0  0  1  0  0  0  0  0  0  0  0  0
  -21.8435  -22.1239   18.0840 C   0  0  2  0  0  0  0  0  0  0  0  0
  -21.4317  -23.8665   22.3660 C   0  0  0  0  0  0  0  0  0  0  0  0
  -26.6177  -16.6475   20.6897 N   0  0  0  0  0  0  0  0  0  0  0  0
  -27.8080  -17.2713   20.6710 N   0  0  0  0  0  0  0  0  0  0  0  0
  -22.7033  -26.8255   20.7874 N   0  0  0  0  0  0  0  0  0  0  0  0
  -26.6942  -20.9249   20.8108 N   0  0  0  0  0  0  0  0  0  0  0  0
  -30.1216  -16.9152   20.3091 N   0  0  0  0  0  0  0  0  0  0  0  0
  -30.3436  -26.7816   16.2828 N   0  0  0  0  0  0  0  0  0  0  0  0
  -28.3266  -12.8184   19.6844 N   0  0  0  0  0  0  0  0  0  0  0  0
  -21.2581  -29.1937   22.7038 N   0  0  0  0  0  0  0  0  0  0  0  0
  -21.6772  -23.7388   19.8506 N   0  0  0  0  0  0  0  0  0  0  0  0
  -26.4562  -21.6202   18.5628 N   0  0  0  0  0  0  0  0  0  0  0  0
  -30.2660  -26.1444   18.5471 N   0  3  0  0  0  0  0  0  0  0  0  0
  -22.7634  -22.3334   16.9304 N   0  3  0  0  0  0  0  0  0  0  0  0
  -30.2862  -14.0093   19.7044 O   0  0  0  0  0  0  0  0  0  0  0  0
  -23.5283  -28.6832   22.7945 O   0  0  0  0  0  0  0  0  0  0  0  0
  -20.4626  -26.1846   20.7175 O   0  0  0  0  0  0  0  0  0  0  0  0
  -23.4861  -22.2880   19.8481 O   0  0  0  0  0  0  0  0  0  0  0  0
  -26.7041  -23.1709   20.2334 O   0  0  0  0  0  0  0  0  0  0  0  0
  -22.9302  -11.4922   20.0783 O   0  0  0  0  0  0  0  0  0  0  0  0
  -28.7777  -27.7758   20.2858 O   0  0  0  0  0  0  0  0  0  1  0  0
  -23.8881   -6.6301   22.4961 F   0  0  0  0  0  0  0  0  0  0  0  0
  -21.2857  -10.5638   22.0974 F   0  0  0  0  0  0  0  0  0  0  0  0
  1  2  1  0  0  0  0
  1  5  2  0  0  0  0
  2  6  2  0  0  0  0
  3  8  2  0  0  0  0
  3 17  1  0  0  0  0
  4  9  1  0  0  0  0
  4 17  2  0  0  0  0
  5 20  1  0  0  0  0
  6 22  1  0  0  0  0
  7 10  2  0  0  0  0
  7 21  1  0  0  0  0
  8 27  1  0  0  0  0
  9 27  2  0  0  0  0
 10 28  1  0  0  0  0
 11 12  2  0  0  0  0
 11 29  1  0  0  0  0
 12 30  1  0  0  0  0
 13 18  1  0  0  0  0
 13 24  2  0  0  0  0
 14 23  1  0  0  0  0
 14 28  2  0  0  0  0
 15 25  1  0  0  0  0
 15 26  2  0  0  0  0
 16 30  2  0  0  0  0
 16 31  1  0  0  0  0
 17 32  1  0  0  0  0
 18 25  2  0  0  0  0
 18 34  1  0  0  0  0
 19 32  1  0  0  0  0
 19 33  2  0  0  0  0
 19 35  1  0  0  0  0
 20 22  2  0  0  0  0
 20 40  1  0  0  0  0
 21 23  2  0  0  0  0
 21 41  1  0  0  0  0
 22 49  1  0  0  0  0
 23 42  1  0  0  0  0
 24 26  1  0  0  0  0
 24 59  1  0  0  0  0
 25 52  1  0  0  0  0
 26 53  1  0  0  0  0
 27 82  1  0  0  0  0
 28 83  1  0  0  0  0
 29 31  2  0  0  0  0
 29 82  1  0  0  0  0
 30 84  1  0  0  0  0
 31 85  1  0  0  0  0
 32 65  2  0  0  0  0
 33 66  1  0  0  0  0
 33 69  1  0  0  0  0
 34 70  1  0  0  0  0
 34 75  2  0  0  0  0
 35 71  1  0  0  0  0
 35 77  2  0  0  0  0
 36 50  1  0  0  0  0
 36 72  1  0  0  0  0
 36 78  2  0  0  0  0
 37 62  1  0  0  0  0
 37 67  1  0  0  0  0
 37 79  2  0  0  0  0
 38 63  1  0  0  0  0
 38 73  1  0  0  0  0
 38 80  2  0  0  0  0
 39 68  1  0  0  0  0
 39 74  1  0  0  0  0
 39 81  2  0  0  0  0
 40 43  1  0  0  0  0
 41 50  1  0  0  0  0
 42 67  1  0  0  0  0
 43 45  1  0  0  0  0
 44 46  1  0  0  0  0
 44 47  1  0  0  0  0
 45 49  1  0  0  0  0
 46 51  1  0  0  0  0
 47 68  1  0  0  0  0
 48 51  1  0  0  0  0
 48 68  1  0  0  0  0
 49 72  1  0  0  0  0
 50 67  1  0  0  0  0
 51 66  1  0  0  0  0
 54 63  1  0  0  0  0
 55 64  1  0  0  0  0
 56 64  1  0  0  0  0
 57 64  1  0  0  0  0
 58 76  1  0  0  0  0
 59 74  1  0  0  0  0
 60 61  1  0  0  0  0
 60 75  1  0  0  0  0
 61 83  1  0  0  0  0
 62 64  1  0  0  0  0
 62 73  1  0  0  0  0
 63 76  1  0  0  0  0
 65 66  1  0  0  0  0
M  CHG  2  75   1  76   1
M  ISO  4  39 100  61 101  74 100  83 101
M  END
> <Batch ID>
0035

> <Smiles>
CNC(C)C(=O)NC(C(=O)N1Cc2cc([101O:1][101CH2:1]CNC(=N)c3cc(C[100NH:0][100C:0](=O)N4CCCC(n5nc(-c6ccc(Oc7ccc(F)cc7F)cc6)c(C(N)=O)c5N)C4)c(C)cc3C)ccc2CC1C(=O)NC1CCCc2ccccc21)C(C)(C)C

> <Shape>
0.234

> <Color>
0.090

> <Negative vol penalty>
0.000

$$$$

  -OEChem-04042321513D

 87 96  0     1  0  0  0  0  0999 V2000
  -17.8497  -24.6333   22.5858 C   0  0  0  0  0  0  0  0  0  0  0  0
  -19.1110  -24.4897   22.0167 C   0  0  0  0  0  0  0  0  0  0  0  0
  -25.9230  -14.1196   21.6749 C   0  0  0  0  0  0  0  0  0  0  0  0
  -24.8163  -15.2813   19.8685 C   0  0  0  0  0  0  0  0  0  0  0  0
  -17.4142  -25.8897   23.0048 C   0  0  0  0  0  0  0  0  0  0  0  0
  -19.9372  -25.6028   21.8652 C   0  0  0  0  0  0  0  0  0  0  0  0
  -26.0425  -25.7458   22.3247 C   0  0  0  0  0  0  0  0  0  0  0  0
  -26.9248  -13.7077   20.7962 C   0  0  0  0  0  0  0  0  0  0  0  0
  -25.8182  -14.8694   18.9898 C   0  0  0  0  0  0  0  0  0  0  0  0
  -27.0559  -25.7240   21.3675 C   0  0  0  0  0  0  0  0  0  0  0  0
  -27.3352  -11.3366   18.4226 C   0  0  0  0  0  0  0  0  0  0  0  0
  -27.7421  -10.0038   18.4838 C   0  0  0  0  0  0  0  0  0  0  0  0
  -27.1751  -28.1321   21.4477 C   0  0  0  0  0  0  0  0  0  0  0  0
  -26.6102  -22.7042   18.3737 C   0  0  0  0  0  0  0  0  0  0  0  0
  -26.9413  -20.9456   20.5139 C   0  0  0  0  0  0  0  0  0  0  0  0
  -29.9899  -10.7143   19.0126 C   0  0  0  0  0  0  0  0  0  0  0  0
  -24.8687  -14.9064   21.2111 C   0  0  0  0  0  0  0  0  0  0  0  0
  -22.9702  -14.5108   22.8684 C   0  0  0  0  0  0  0  0  0  0  0  0
  -18.2392  -27.0171   22.8673 C   0  0  0  0  0  0  0  0  0  0  0  0
  -25.5794  -26.9636   22.8435 C   0  0  0  0  0  0  0  0  0  0  0  0
  -19.5118  -26.8757   22.2816 C   0  0  0  0  0  0  0  0  0  0  0  0
  -26.1575  -28.1665   22.4133 C   0  0  0  0  0  0  0  0  0  0  0  0
  -25.5026  -22.2889   19.1128 C   0  0  0  0  0  0  0  0  0  0  0  0
  -27.8833  -22.2403   18.7046 C   0  0  0  0  0  0  0  0  0  0  0  0
  -25.6681  -21.4095   20.1829 C   0  0  0  0  0  0  0  0  0  0  0  0
  -26.8725  -14.0825   19.4537 C   0  0  0  0  0  0  0  0  0  0  0  0
  -27.6204  -26.9174   20.9267 C   0  0  0  0  0  0  0  0  0  0  0  0
  -28.2557  -12.3583   18.6563 C   0  0  0  0  0  0  0  0  0  0  0  0
  -29.0694   -9.6926   18.7788 C   0  0  0  0  0  0  0  0  0  0  0  0
  -28.0489  -21.3610   19.7747 C   0  0  0  0  0  0  0  0  0  0  0  0
  -29.5831  -12.0471   18.9514 C   0  0  0  0  0  0  0  0  0  0  0  0
  -23.8331  -15.3319   22.1181 C   0  0  0  0  0  0  0  0  0  0  0  0
  -22.1783  -15.3907   23.5649 C   0  0  0  0  0  0  0  0  0  0  0  0
  -22.8914  -13.0805   22.9303 C   0  0  0  0  0  0  0  0  0  0  0  0
  -22.7896  -28.4869   22.8409 C   0  0  0  0  0  0  0  0  0  0  0  0
  -24.3514  -30.5404   24.8072 C   0  0  0  0  0  0  0  0  0  0  0  0
  -27.3227  -31.8417   25.8677 C   0  0  0  0  0  0  0  0  0  0  0  0
  -24.5539  -20.1040   22.0385 C   0  0  0  0  0  0  0  0  0  0  0  0
  -17.7064  -28.3627   23.2916 C   0  0  0  0  0  0  0  0  0  0  0  0
  -24.5040  -26.9686   23.8951 C   0  0  0  0  0  0  0  0  0  0  0  0
  -25.7100  -29.4992   22.9537 C   0  0  0  0  0  0  0  0  0  0  0  0
  -18.7898  -29.4281   23.4387 C   0  0  0  0  0  0  0  0  0  0  0  0
  -31.9717  -25.1485   20.1519 C   0  0  0  0  0  0  0  0  0  0  0  0
  -20.7659  -19.9345   22.7378 C   0  0  0  0  0  0  0  0  0  0  0  0
  -32.2362  -24.7573   18.7009 C   0  0  0  0  0  0  0  0  0  0  0  0
  -19.7279  -29.4049   22.2361 C   0  0  0  0  0  0  0  0  0  0  0  0
  -20.8331  -18.4171   22.8558 C   0  0  0  0  0  0  0  0  0  0  0  0
  -30.8888  -26.2166   20.2789 C   0  0  0  0  0  0  0  0  0  0  0  0
  -22.0295  -20.4698   22.0698 C   0  0  0  0  0  0  0  0  0  0  0  0
  -23.1436  -19.0516   23.7960 C   0  0  0  0  0  0  0  0  0  0  0  0
  -31.3384  -23.6667   18.1290 C   0  0  0  0  0  0  0  0  0  0  0  0
  -29.2784  -25.0731   18.6206 C   0  0  0  0  0  0  0  0  0  0  0  0
  -20.4467  -28.0551   22.1231 C   0  0  1  0  0  0  0  0  0  0  0  0
  -23.7543  -28.2947   23.9767 C   0  0  1  0  0  0  0  0  0  0  0  0
  -22.0507  -17.9684   23.6885 C   0  0  2  0  0  0  0  0  0  0  0  0
  -29.4658  -25.7531   19.9727 C   0  0  2  0  0  0  0  0  0  1  0  0
  -24.1504  -22.8019   18.7360 C   0  0  0  0  0  0  0  0  0  0  0  0
  -28.2776  -33.5306   27.4593 C   0  0  0  0  0  0  0  0  0  0  0  0
  -23.5074  -32.7883   22.9244 C   0  0  0  0  0  0  0  0  0  0  0  0
  -25.2362  -34.2447   24.0007 C   0  0  0  0  0  0  0  0  0  0  0  0
  -23.3440  -33.3479   25.3564 C   0  0  0  0  0  0  0  0  0  0  0  0
  -28.8298  -29.7678   27.3465 C   0  0  0  0  0  0  0  0  0  0  0  0
  -29.0729  -22.6890   17.9080 C   0  0  0  0  0  0  0  0  0  0  0  0
  -25.1849  -31.7836   24.6105 C   0  0  1  0  0  0  0  0  0  0  0  0
  -27.8799  -32.0763   27.2601 C   0  0  2  0  0  0  0  0  0  0  0  0
  -24.3254  -33.0163   24.2112 C   0  0  0  0  0  0  0  0  0  0  0  0
  -23.6105  -16.6334   22.3190 N   0  0  0  0  0  0  0  0  0  0  0  0
  -22.5985  -16.6369   23.2033 N   0  0  0  0  0  0  0  0  0  0  0  0
  -24.6513  -29.4521   23.9756 N   0  0  0  0  0  0  0  0  0  0  0  0
  -23.2680  -19.8688   22.5863 N   0  0  0  0  0  0  0  0  0  0  0  0
  -21.1705  -15.2124   24.4452 N   0  0  0  0  0  0  0  0  0  0  0  0
  -22.0440  -12.4185   22.0315 N   0  0  0  0  0  0  0  0  0  0  0  0
  -24.5549  -20.9755   20.9460 N   0  0  0  0  0  0  0  0  0  0  0  0
  -21.5282  -27.9765   23.0815 N   0  0  0  0  0  0  0  0  0  0  0  0
  -25.9494  -31.9613   25.8403 N   0  0  0  0  0  0  0  0  0  0  0  0
  -29.9200  -23.7069   18.6325 N   0  3  1  0  0  0  0  0  0  0  0  0
  -29.0819  -31.2251   27.4873 N   0  3  0  0  0  0  0  0  0  0  0  0
  -23.5406  -12.4106   23.7690 O   0  0  0  0  0  0  0  0  0  0  0  0
  -23.1617  -29.0575   21.8222 O   0  0  0  0  0  0  0  0  0  0  0  0
  -23.4716  -30.5327   25.6718 O   0  0  0  0  0  0  0  0  0  0  0  0
  -28.0349  -31.5821   24.9002 O   0  0  0  0  0  0  0  0  0  0  0  0
  -25.5642  -19.5759   22.5075 O   0  0  0  0  0  0  0  0  0  0  0  0
  -27.8501  -13.6809   18.5960 O   0  0  0  0  0  0  0  0  0  0  0  0
  -28.6093  -26.8990   19.9921 O   0  0  0  0  0  0  0  0  0  1  0  0
  -29.4596   -8.4127   18.8390 F   0  0  0  0  0  0  0  0  0  0  0  0
  -29.2683  -20.9098   20.1001 F   0  0  0  0  0  0  0  0  0  0  0  0
  -30.4717  -13.0242   19.1780 F   0  0  0  0  0  0  0  0  0  0  0  0
  1  2  1  0  0  0  0
  1  5  2  0  0  0  0
  2  6  2  0  0  0  0
  3  8  2  0  0  0  0
  3 17  1  0  0  0  0
  4  9  1  0  0  0  0
  4 17  2  0  0  0  0
  5 19  1  0  0  0  0
  6 21  1  0  0  0  0
  7 10  2  0  0  0  0
  7 20  1  0  0  0  0
  8 26  1  0  0  0  0
  9 26  2  0  0  0  0
 10 27  1  0  0  0  0
 11 12  2  0  0  0  0
 11 28  1  0  0  0  0
 12 29  1  0  0  0  0
 13 22  1  0  0  0  0
 13 27  2  0  0  0  0
 14 23  2  0  0  0  0
 14 24  1  0  0  0  0
 15 25  2  0  0  0  0
 15 30  1  0  0  0  0
 16 29  2  0  0  0  0
 16 31  1  0  0  0  0
 17 32  1  0  0  0  0
 18 32  1  0  0  0  0
 18 33  2  0  0  0  0
 18 34  1  0  0  0  0
 19 21  2  0  0  0  0
 19 39  1  0  0  0  0
 20 22  2  0  0  0  0
 20 40  1  0  0  0  0
 21 53  1  0  0  0  0
 22 41  1  0  0  0  0
 23 25  1  0  0  0  0
 23 57  1  0  0  0  0
 24 30  2  0  0  0  0
 24 63  1  0  0  0  0
 25 73  1  0  0  0  0
 26 83  1  0  0  0  0
 27 84  1  0  0  0  0
 28 31  2  0  0  0  0
 28 83  1  0  0  0  0
 29 85  1  0  0  0  0
 30 86  1  0  0  0  0
 31 87  1  0  0  0  0
 32 67  2  0  0  0  0
 33 68  1  0  0  0  0
 33 71  1  0  0  0  0
 34 72  1  0  0  0  0
 34 78  2  0  0  0  0
 35 54  1  0  0  0  0
 35 74  1  0  0  0  0
 35 79  2  0  0  0  0
 36 64  1  0  0  0  0
 36 69  1  0  0  0  0
 36 80  2  0  0  0  0
 37 65  1  0  0  0  0
 37 75  1  0  0  0  0
 37 81  2  0  0  0  0
 38 70  1  0  0  0  0
 38 73  1  0  0  0  0
 38 82  2  0  0  0  0
 39 42  1  0  0  0  0
 40 54  1  0  0  0  0
 41 69  1  0  0  0  0
 42 46  1  0  0  0  0
 43 45  1  0  0  0  0
 43 48  1  0  0  0  0
 44 47  1  0  0  0  0
 44 49  1  0  0  0  0
 45 51  1  0  0  0  0
 46 53  1  0  0  0  0
 47 55  1  0  0  0  0
 48 56  1  0  0  0  0
 49 70  1  0  0  0  0
 50 55  1  0  0  0  0
 50 70  1  0  0  0  0
 51 76  1  0  0  0  0
 52 56  1  0  0  0  0
 52 76  1  0  0  0  0
 53 74  1  0  0  0  0
 54 69  1  0  0  0  0
 55 68  1  0  0  0  0
 56 84  1  0  0  0  0
 58 65  1  0  0  0  0
 59 66  1  0  0  0  0
 60 66  1  0  0  0  0
 61 66  1  0  0  0  0
 62 77  1  0  0  0  0
 63 76  1  0  0  0  0
 64 66  1  0  0  0  0
 64 75  1  0  0  0  0
 65 77  1  0  0  0  0
 67 68  1  0  0  0  0
M  CHG  2  76   1  77   1
M  ISO  4  38 100  56 101  73 100  84 101
M  END
> <Batch ID>
0035

> <Smiles>
CNC(C)C(=O)NC(C(=O)N1Cc2cc([101O:1][101CH:1]3CCCCN(Cc4cc(C)c([100NH:0][100C:0](=O)N5CCCC(n6nc(-c7ccc(Oc8ccc(F)cc8F)cc7)c(C(N)=O)c6N)C5)cc4F)C3)ccc2CC1C(=O)NC1CCCc2ccccc21)C(C)(C)C

> <Shape>
0.275

> <Color>
0.051

> <Negative vol penalty>
0.000

$$$$

  -OEChem-04042321513D

 87 96  0     1  0  0  0  0  0999 V2000
  -16.5104  -29.7735   22.7849 C   0  0  0  0  0  0  0  0  0  0  0  0
  -17.4718  -30.6848   23.2101 C   0  0  0  0  0  0  0  0  0  0  0  0
  -26.3875  -15.7678   23.0069 C   0  0  0  0  0  0  0  0  0  0  0  0
  -26.0689  -17.0834   21.0057 C   0  0  0  0  0  0  0  0  0  0  0  0
  -16.8690  -28.4498   22.5338 C   0  0  0  0  0  0  0  0  0  0  0  0
  -18.7923  -30.2724   23.3854 C   0  0  0  0  0  0  0  0  0  0  0  0
  -25.5150  -32.6806   22.8179 C   0  0  0  0  0  0  0  0  0  0  0  0
  -26.2414  -14.5981   22.2612 C   0  0  0  0  0  0  0  0  0  0  0  0
  -25.9228  -15.9137   20.2600 C   0  0  0  0  0  0  0  0  0  0  0  0
  -26.6912  -32.7760   23.5603 C   0  0  0  0  0  0  0  0  0  0  0  0
  -28.1315  -12.7167   20.1826 C   0  0  0  0  0  0  0  0  0  0  0  0
  -29.0409  -11.6842   20.4115 C   0  0  0  0  0  0  0  0  0  0  0  0
  -27.2110  -30.4831   23.0200 C   0  0  0  0  0  0  0  0  0  0  0  0
  -27.3906  -27.1909   26.7985 C   0  0  0  0  0  0  0  0  0  0  0  0
  -29.0764  -27.2907   25.0708 C   0  0  0  0  0  0  0  0  0  0  0  0
  -27.2240  -10.2260   21.0517 C   0  0  0  0  0  0  0  0  0  0  0  0
  -26.3012  -17.0105   22.3791 C   0  0  0  0  0  0  0  0  0  0  0  0
  -27.5721  -18.6114   23.9054 C   0  0  0  0  0  0  0  0  0  0  0  0
  -18.1965  -28.0233   22.6969 C   0  0  0  0  0  0  0  0  0  0  0  0
  -25.1720  -31.4805   22.1789 C   0  0  0  0  0  0  0  0  0  0  0  0
  -19.1687  -28.9414   23.1376 C   0  0  0  0  0  0  0  0  0  0  0  0
  -26.0311  -30.3759   22.2680 C   0  0  0  0  0  0  0  0  0  0  0  0
  -28.6086  -27.6797   26.3259 C   0  0  0  0  0  0  0  0  0  0  0  0
  -26.6405  -26.3130   26.0160 C   0  0  0  0  0  0  0  0  0  0  0  0
  -28.3263  -26.4128   24.2882 C   0  0  0  0  0  0  0  0  0  0  0  0
  -27.1083  -25.9240   24.7608 C   0  0  0  0  0  0  0  0  0  0  0  0
  -26.0091  -14.6710   20.8878 C   0  0  0  0  0  0  0  0  0  0  0  0
  -27.5380  -31.6762   23.6639 C   0  0  0  0  0  0  0  0  0  0  0  0
  -26.7683  -12.5039   20.3883 C   0  0  0  0  0  0  0  0  0  0  0  0
  -28.5872  -10.4388   20.8460 C   0  0  0  0  0  0  0  0  0  0  0  0
  -26.3146  -11.2585   20.8228 C   0  0  0  0  0  0  0  0  0  0  0  0
  -26.4515  -18.2192   23.1489 C   0  0  0  0  0  0  0  0  0  0  0  0
  -27.2175  -19.8260   24.4398 C   0  0  0  0  0  0  0  0  0  0  0  0
  -28.8218  -17.9381   24.1070 C   0  0  0  0  0  0  0  0  0  0  0  0
  -22.7601  -29.4235   22.4145 C   0  0  0  0  0  0  0  0  0  0  0  0
  -24.1962  -28.0462   19.8527 C   0  0  0  0  0  0  0  0  0  0  0  0
  -27.5683  -27.2944   18.8129 C   0  0  0  0  0  0  0  0  0  0  0  0
  -24.9592  -24.8916   23.9473 C   0  0  0  0  0  0  0  0  0  0  0  0
  -18.5269  -26.5712   22.4587 C   0  0  0  0  0  0  0  0  0  0  0  0
  -23.9129  -31.4020   21.3597 C   0  0  0  0  0  0  0  0  0  0  0  0
  -25.7185  -29.0709   21.5841 C   0  0  0  0  0  0  0  0  0  0  0  0
  -20.0222  -26.3035   22.3084 C   0  0  0  0  0  0  0  0  0  0  0  0
  -22.7393  -22.1812   24.5817 C   0  0  0  0  0  0  0  0  0  0  0  0
  -20.8055  -27.0190   23.4045 C   0  0  0  0  0  0  0  0  0  0  0  0
  -23.5993  -20.9410   24.3278 C   0  0  0  0  0  0  0  0  0  0  0  0
  -29.7704  -32.8680   26.2527 C   0  0  0  0  0  0  0  0  0  0  0  0
  -31.0308  -32.0107   26.2492 C   0  0  0  0  0  0  0  0  0  0  0  0
  -23.0719  -23.3110   23.6088 C   0  0  0  0  0  0  0  0  0  0  0  0
  -25.3528  -22.4362   23.2900 C   0  0  0  0  0  0  0  0  0  0  0  0
  -28.3765  -30.7882   26.5537 C   0  0  0  0  0  0  0  0  0  0  0  0
  -20.6164  -28.5382   23.3156 C   0  0  1  0  0  0  0  0  0  0  0  0
  -23.4078  -29.9743   21.1757 C   0  0  1  0  0  0  0  0  0  0  0  0
  -25.0991  -21.2940   24.2873 C   0  0  2  0  0  0  0  0  0  0  0  0
  -28.5570  -32.0814   25.7730 C   0  0  2  0  0  0  0  0  0  1  0  0
  -30.8550  -30.7154   27.0506 C   0  0  2  0  0  0  0  0  0  0  0  0
  -25.3398  -25.8060   26.5498 C   0  0  0  0  0  0  0  0  0  0  0  0
  -28.8535  -26.0147   22.9474 C   0  0  0  0  0  0  0  0  0  0  0  0
  -32.1204  -29.8665   26.9435 C   0  0  0  0  0  0  0  0  0  0  0  0
  -28.5496  -27.0418   16.5171 C   0  0  0  0  0  0  0  0  0  0  0  0
  -23.6290  -25.0749   20.2528 C   0  0  0  0  0  0  0  0  0  0  0  0
  -25.7887  -24.5771   19.0882 C   0  0  0  0  0  0  0  0  0  0  0  0
  -23.9617  -25.7620   17.8713 C   0  0  0  0  0  0  0  0  0  0  0  0
  -29.6421  -29.3368   19.3482 C   0  0  0  0  0  0  0  0  0  0  0  0
  -29.4155  -28.6236   27.1678 C   0  0  0  0  0  0  0  0  0  0  0  0
  -25.2573  -26.9895   19.6620 C   0  0  1  0  0  0  0  0  0  0  0  0
  -28.3495  -27.9734   17.7024 C   0  0  2  0  0  0  0  0  0  0  0  0
  -24.6587  -25.6175   19.2417 C   0  0  0  0  0  0  0  0  0  0  0  0
  -25.4593  -19.1121   23.1961 N   0  0  0  0  0  0  0  0  0  0  0  0
  -25.9552  -20.0774   23.9888 N   0  0  0  0  0  0  0  0  0  0  0  0
  -24.4727  -29.0420   20.8001 N   0  0  0  0  0  0  0  0  0  0  0  0
  -24.5088  -23.5933   23.6275 N   0  0  0  0  0  0  0  0  0  0  0  0
  -27.8655  -20.6927   25.2469 N   0  0  0  0  0  0  0  0  0  0  0  0
  -29.8708  -18.1950   23.2138 N   0  0  0  0  0  0  0  0  0  0  0  0
  -26.3465  -25.0324   23.9656 N   0  0  0  0  0  0  0  0  0  0  0  0
  -21.4297  -29.0873   22.2518 N   0  0  0  0  0  0  0  0  0  0  0  0
  -26.2154  -27.5404   18.7097 N   0  0  0  0  0  0  0  0  0  0  0  0
  -29.6489  -29.9586   26.5017 N   0  3  1  0  0  0  0  0  0  0  0  0
  -29.6893  -28.3990   18.1971 N   0  3  0  0  0  0  0  0  0  0  0  0
  -28.9976  -17.1201   25.0416 O   0  0  0  0  0  0  0  0  0  0  0  0
  -23.4189  -29.3105   23.4416 O   0  0  0  0  0  0  0  0  0  0  0  0
  -23.1631  -27.9940   19.1806 O   0  0  0  0  0  0  0  0  0  0  0  0
  -28.1041  -26.6110   19.6825 O   0  0  0  0  0  0  0  0  0  0  0  0
  -24.1728  -25.8040   24.2138 O   0  0  0  0  0  0  0  0  0  0  0  0
  -25.8667  -13.5298   20.1598 O   0  0  0  0  0  0  0  0  0  0  0  0
  -28.6863  -31.7664   24.3885 O   0  0  0  0  0  0  0  0  0  1  0  0
  -29.4604   -9.4469   21.0644 F   0  0  0  0  0  0  0  0  0  0  0  0
  -25.0062  -11.0478   21.0210 F   0  0  0  0  0  0  0  0  0  0  0  0
  1  2  1  0  0  0  0
  1  5  2  0  0  0  0
  2  6  2  0  0  0  0
  3  8  2  0  0  0  0
  3 17  1  0  0  0  0
  4  9  1  0  0  0  0
  4 17  2  0  0  0  0
  5 19  1  0  0  0  0
  6 21  1  0  0  0  0
  7 10  2  0  0  0  0
  7 20  1  0  0  0  0
  8 27  1  0  0  0  0
  9 27  2  0  0  0  0
 10 28  1  0  0  0  0
 11 12  2  0  0  0  0
 11 29  1  0  0  0  0
 12 30  1  0  0  0  0
 13 22  1  0  0  0  0
 13 28  2  0  0  0  0
 14 23  1  0  0  0  0
 14 24  2  0  0  0  0
 15 23  2  0  0  0  0
 15 25  1  0  0  0  0
 16 30  2  0  0  0  0
 16 31  1  0  0  0  0
 17 32  1  0  0  0  0
 18 32  1  0  0  0  0
 18 33  2  0  0  0  0
 18 34  1  0  0  0  0
 19 21  2  0  0  0  0
 19 39  1  0  0  0  0
 20 22  2  0  0  0  0
 20 40  1  0  0  0  0
 21 51  1  0  0  0  0
 22 41  1  0  0  0  0
 23 64  1  0  0  0  0
 24 26  1  0  0  0  0
 24 56  1  0  0  0  0
 25 26  2  0  0  0  0
 25 57  1  0  0  0  0
 26 74  1  0  0  0  0
 27 84  1  0  0  0  0
 28 85  1  0  0  0  0
 29 31  2  0  0  0  0
 29 84  1  0  0  0  0
 30 86  1  0  0  0  0
 31 87  1  0  0  0  0
 32 68  2  0  0  0  0
 33 69  1  0  0  0  0
 33 72  1  0  0  0  0
 34 73  1  0  0  0  0
 34 79  2  0  0  0  0
 35 52  1  0  0  0  0
 35 75  1  0  0  0  0
 35 80  2  0  0  0  0
 36 65  1  0  0  0  0
 36 70  1  0  0  0  0
 36 81  2  0  0  0  0
 37 66  1  0  0  0  0
 37 76  1  0  0  0  0
 37 82  2  0  0  0  0
 38 71  1  0  0  0  0
 38 74  1  0  0  0  0
 38 83  2  0  0  0  0
 39 42  1  0  0  0  0
 40 52  1  0  0  0  0
 41 70  1  0  0  0  0
 42 44  1  0  0  0  0
 43 45  1  0  0  0  0
 43 48  1  0  0  0  0
 44 51  1  0  0  0  0
 45 53  1  0  0  0  0
 46 47  1  0  0  0  0
 46 54  1  0  0  0  0
 47 55  1  0  0  0  0
 48 71  1  0  0  0  0
 49 53  1  0  0  0  0
 49 71  1  0  0  0  0
 50 54  1  0  0  0  0
 50 77  1  0  0  0  0
 51 75  1  0  0  0  0
 52 70  1  0  0  0  0
 53 69  1  0  0  0  0
 54 85  1  0  0  0  0
 55 58  1  0  0  0  0
 55 77  1  0  0  0  0
 59 66  1  0  0  0  0
 60 67  1  0  0  0  0
 61 67  1  0  0  0  0
 62 67  1  0  0  0  0
 63 78  1  0  0  0  0
 64 77  1  0  0  0  0
 65 67  1  0  0  0  0
 65 76  1  0  0  0  0
 66 78  1  0  0  0  0
 68 69  1  0  0  0  0
M  CHG  2  77   1  78   1
M  ISO  4  38 100  54 101  74 100  85 101
M  END
> <Batch ID>
0035

> <Smiles>
CNC(C)C(=O)NC(C(=O)N1Cc2cc([101O:1][101CH:1]3CCC(C)N(Cc4cc(C)c([100NH:0][100C:0](=O)N5CCCC(n6nc(-c7ccc(Oc8ccc(F)cc8F)cc7)c(C(N)=O)c6N)C5)c(C)c4)C3)ccc2CC1C(=O)NC1CCCc2ccccc21)C(C)(C)C

> <Shape>
0.225

> <Color>
0.095

> <Negative vol penalty>
0.000

$$$$

  -OEChem-04042321513D

 87 96  0     1  0  0  0  0  0999 V2000
  -23.0204  -17.9981   22.6098 C   0  0  0  0  0  0  0  0  0  0  0  0
  -23.3764  -18.9537   21.6635 C   0  0  0  0  0  0  0  0  0  0  0  0
  -26.4789  -13.1064   21.7228 C   0  0  0  0  0  0  0  0  0  0  0  0
  -24.9713  -14.8209   20.9323 C   0  0  0  0  0  0  0  0  0  0  0  0
  -21.8861  -18.1880   23.3980 C   0  0  0  0  0  0  0  0  0  0  0  0
  -22.5975  -20.0993   21.5040 C   0  0  0  0  0  0  0  0  0  0  0  0
  -25.3872  -24.3106   21.1466 C   0  0  0  0  0  0  0  0  0  0  0  0
  -25.3950  -12.2591   21.9524 C   0  0  0  0  0  0  0  0  0  0  0  0
  -23.8873  -13.9736   21.1618 C   0  0  0  0  0  0  0  0  0  0  0  0
  -26.0007  -24.5659   19.9210 C   0  0  0  0  0  0  0  0  0  0  0  0
  -23.3634  -10.2635   20.1296 C   0  0  0  0  0  0  0  0  0  0  0  0
  -23.4753   -8.9388   19.7075 C   0  0  0  0  0  0  0  0  0  0  0  0
  -24.2441  -26.1260   19.3735 C   0  0  0  0  0  0  0  0  0  0  0  0
  -31.0152  -23.7947   16.0164 C   0  0  0  0  0  0  0  0  0  0  0  0
  -30.3612  -23.4866   18.3216 C   0  0  0  0  0  0  0  0  0  0  0  0
  -23.1663   -8.1877   21.9829 C   0  0  0  0  0  0  0  0  0  0  0  0
  -26.2671  -14.3874   21.2128 C   0  0  0  0  0  0  0  0  0  0  0  0
  -28.4770  -15.0353   20.1155 C   0  0  0  0  0  0  0  0  0  0  0  0
  -21.0984  -19.3411   23.2548 C   0  0  0  0  0  0  0  0  0  0  0  0
  -24.1897  -24.9541   21.4909 C   0  0  0  0  0  0  0  0  0  0  0  0
  -21.4509  -20.3042   22.2901 C   0  0  0  0  0  0  0  0  0  0  0  0
  -23.6188  -25.8791   20.6052 C   0  0  0  0  0  0  0  0  0  0  0  0
  -30.6199  -24.3309   17.2419 C   0  0  0  0  0  0  0  0  0  0  0  0
  -31.1518  -22.4142   15.8706 C   0  0  0  0  0  0  0  0  0  0  0  0
  -30.4978  -22.1061   18.1759 C   0  0  0  0  0  0  0  0  0  0  0  0
  -24.0992  -12.6927   21.6719 C   0  0  0  0  0  0  0  0  0  0  0  0
  -25.4277  -25.4715   19.0330 C   0  0  0  0  0  0  0  0  0  0  0  0
  -23.1530  -10.5504   21.4783 C   0  0  0  0  0  0  0  0  0  0  0  0
  -23.3768   -7.9009   20.6342 C   0  0  0  0  0  0  0  0  0  0  0  0
  -23.0544   -9.5125   22.4050 C   0  0  0  0  0  0  0  0  0  0  0  0
  -30.8931  -21.5699   16.9504 C   0  0  0  0  0  0  0  0  0  0  0  0
  -27.3863  -15.2633   20.9759 C   0  0  0  0  0  0  0  0  0  0  0  0
  -29.2584  -16.1572   20.2470 C   0  0  0  0  0  0  0  0  0  0  0  0
  -28.1578  -25.8072   16.6691 C   0  0  0  0  0  0  0  0  0  0  0  0
  -27.7554  -24.9090   15.7550 C   0  0  0  0  0  0  0  0  0  0  0  0
  -28.7586  -13.9101   19.2728 C   0  0  0  0  0  0  0  0  0  0  0  0
  -21.2316  -23.9896   22.1412 C   0  0  0  0  0  0  0  0  0  0  0  0
  -20.7829  -27.1231   22.8499 C   0  0  0  0  0  0  0  0  0  0  0  0
  -21.7469  -30.3044   21.4472 C   0  0  0  0  0  0  0  0  0  0  0  0
  -29.8270  -21.6869   20.5677 C   0  0  0  0  0  0  0  0  0  0  0  0
  -19.8548  -19.4799   24.0967 C   0  0  0  0  0  0  0  0  0  0  0  0
  -23.5546  -24.6879   22.8281 C   0  0  0  0  0  0  0  0  0  0  0  0
  -22.3449  -26.6115   20.9357 C   0  0  0  0  0  0  0  0  0  0  0  0
  -19.2936  -20.8993   24.1250 C   0  0  0  0  0  0  0  0  0  0  0  0
  -29.0253  -19.9619   23.5775 C   0  0  0  0  0  0  0  0  0  0  0  0
  -28.6542  -28.4023   17.7820 C   0  0  0  0  0  0  0  0  0  0  0  0
  -19.2419  -21.4810   22.7159 C   0  0  0  0  0  0  0  0  0  0  0  0
  -27.2737  -27.7715   17.9256 C   0  0  0  0  0  0  0  0  0  0  0  0
  -28.6171  -18.5670   23.0982 C   0  0  0  0  0  0  0  0  0  0  0  0
  -28.5638  -21.0512   22.6110 C   0  0  0  0  0  0  0  0  0  0  0  0
  -28.5570  -19.4564   20.7334 C   0  0  0  0  0  0  0  0  0  0  0  0
  -29.3599  -27.9170   16.5200 C   0  0  0  0  0  0  0  0  0  0  0  0
  -20.6454  -21.5718   22.1047 C   0  0  1  0  0  0  0  0  0  0  0  0
  -27.3476  -26.2464   17.8681 C   0  0  1  0  0  0  0  0  0  1  0  0
  -22.0647  -25.0145   22.8576 C   0  0  1  0  0  0  0  0  0  0  0  0
  -29.0563  -18.3207   21.6415 C   0  0  2  0  0  0  0  0  0  0  0  0
  -31.5772  -21.8848   14.5387 C   0  0  0  0  0  0  0  0  0  0  0  0
  -22.0656  -32.5404   22.5409 C   0  0  0  0  0  0  0  0  0  0  0  0
  -17.8838  -27.6118   22.0335 C   0  0  0  0  0  0  0  0  0  0  0  0
  -18.5039  -29.9800   21.5086 C   0  0  0  0  0  0  0  0  0  0  0  0
  -18.7275  -29.1214   23.8401 C   0  0  0  0  0  0  0  0  0  0  0  0
  -24.5064  -30.5499   20.4062 C   0  0  0  0  0  0  0  0  0  0  0  0
  -30.4741  -25.8159   17.3982 C   0  0  0  0  0  0  0  0  0  0  0  0
  -20.3591  -28.3452   22.0715 C   0  0  1  0  0  0  0  0  0  0  0  0
  -22.7515  -31.2852   22.0244 C   0  0  2  0  0  0  0  0  0  0  0  0
  -18.8822  -28.7430   22.3509 C   0  0  0  0  0  0  0  0  0  0  0  0
  -27.4644  -16.4377   21.6074 N   0  0  0  0  0  0  0  0  0  0  0  0
  -28.6135  -16.9576   21.1435 N   0  0  0  0  0  0  0  0  0  0  0  0
  -21.7585  -26.3123   22.2526 N   0  0  0  0  0  0  0  0  0  0  0  0
  -29.0200  -20.7532   21.2516 N   0  0  0  0  0  0  0  0  0  0  0  0
  -30.4274  -16.5272   19.6822 N   0  0  0  0  0  0  0  0  0  0  0  0
  -27.8503  -12.8428   19.2576 N   0  0  0  0  0  0  0  0  0  0  0  0
  -30.2268  -21.2804   19.2951 N   0  0  0  0  0  0  0  0  0  0  0  0
  -21.3592  -22.7091   22.6446 N   0  0  0  0  0  0  0  0  0  0  0  0
  -21.3289  -29.3879   22.3887 N   0  0  0  0  0  0  0  0  0  0  0  0
  -29.4568  -26.4099   16.4633 N   0  3  1  0  0  0  0  0  0  0  0  0
  -23.7417  -31.6846   20.9847 N   0  3  0  0  0  0  0  0  0  0  0  0
  -29.7936  -13.8456   18.5669 O   0  0  0  0  0  0  0  0  0  0  0  0
  -20.5241  -24.3354   21.2022 O   0  0  0  0  0  0  0  0  0  0  0  0
  -20.2726  -26.9001   23.9505 O   0  0  0  0  0  0  0  0  0  0  0  0
  -21.3678  -30.3494   20.2789 O   0  0  0  0  0  0  0  0  0  0  0  0
  -30.1630  -22.7556   21.0843 O   0  0  0  0  0  0  0  0  0  0  0  0
  -23.0413  -11.8660   21.8956 O   0  0  0  0  0  0  0  0  0  0  0  0
  -26.0241  -25.7220   17.8357 O   0  0  0  0  0  0  0  0  0  1  0  0
  -23.4828   -6.6287   20.2285 F   0  0  0  0  0  0  0  0  0  0  0  0
  -22.8511   -9.7818   23.7019 F   0  0  0  0  0  0  0  0  0  0  0  0
  -31.0641  -19.8550   16.7626 Cl  0  0  0  0  0  0  0  0  0  0  0  0
  1  2  1  0  0  0  0
  1  5  2  0  0  0  0
  2  6  2  0  0  0  0
  3  8  2  0  0  0  0
  3 17  1  0  0  0  0
  4  9  1  0  0  0  0
  4 17  2  0  0  0  0
  5 19  1  0  0  0  0
  6 21  1  0  0  0  0
  7 10  2  0  0  0  0
  7 20  1  0  0  0  0
  8 26  1  0  0  0  0
  9 26  2  0  0  0  0
 10 27  1  0  0  0  0
 11 12  2  0  0  0  0
 11 28  1  0  0  0  0
 12 29  1  0  0  0  0
 13 22  1  0  0  0  0
 13 27  2  0  0  0  0
 14 23  1  0  0  0  0
 14 24  2  0  0  0  0
 15 23  2  0  0  0  0
 15 25  1  0  0  0  0
 16 29  2  0  0  0  0
 16 30  1  0  0  0  0
 17 32  1  0  0  0  0
 18 32  1  0  0  0  0
 18 33  2  0  0  0  0
 18 36  1  0  0  0  0
 19 21  2  0  0  0  0
 19 41  1  0  0  0  0
 20 22  2  0  0  0  0
 20 42  1  0  0  0  0
 21 53  1  0  0  0  0
 22 43  1  0  0  0  0
 23 63  1  0  0  0  0
 24 31  1  0  0  0  0
 24 57  1  0  0  0  0
 25 31  2  0  0  0  0
 25 73  1  0  0  0  0
 26 83  1  0  0  0  0
 27 84  1  0  0  0  0
 28 30  2  0  0  0  0
 28 83  1  0  0  0  0
 29 85  1  0  0  0  0
 30 86  1  0  0  0  0
 31 87  1  0  0  0  0
 32 67  2  0  0  0  0
 33 68  1  0  0  0  0
 33 71  1  0  0  0  0
 34 35  2  0  0  0  0
 34 54  1  0  0  0  0
 34 76  1  0  0  0  0
 36 72  1  0  0  0  0
 36 78  2  0  0  0  0
 37 55  1  0  0  0  0
 37 74  1  0  0  0  0
 37 79  2  0  0  0  0
 38 64  1  0  0  0  0
 38 69  1  0  0  0  0
 38 80  2  0  0  0  0
 39 65  1  0  0  0  0
 39 75  1  0  0  0  0
 39 81  2  0  0  0  0
 40 70  1  0  0  0  0
 40 73  1  0  0  0  0
 40 82  2  0  0  0  0
 41 44  1  0  0  0  0
 42 55  1  0  0  0  0
 43 69  1  0  0  0  0
 44 47  1  0  0  0  0
 45 49  1  0  0  0  0
 45 50  1  0  0  0  0
 46 48  1  0  0  0  0
 46 52  1  0  0  0  0
 47 53  1  0  0  0  0
 48 54  1  0  0  0  0
 49 56  1  0  0  0  0
 50 70  1  0  0  0  0
 51 56  1  0  0  0  0
 51 70  1  0  0  0  0
 52 76  1  0  0  0  0
 53 74  1  0  0  0  0
 54 84  1  0  0  0  0
 55 69  1  0  0  0  0
 56 68  1  0  0  0  0
 58 65  1  0  0  0  0
 59 66  1  0  0  0  0
 60 66  1  0  0  0  0
 61 66  1  0  0  0  0
 62 77  1  0  0  0  0
 63 76  1  0  0  0  0
 64 66  1  0  0  0  0
 64 75  1  0  0  0  0
 65 77  1  0  0  0  0
 67 68  1  0  0  0  0
M  CHG  2  76   1  77   1
M  ISO  4  40 100  54 101  73 100  84 101
M  END
> <Batch ID>
0035

> <Smiles>
C=C1N(Cc2cc(C)c(Cl)c([100NH:0][100C:0](=O)N3CCCC(n4nc(-c5ccc(Oc6ccc(F)cc6F)cc5)c(C(N)=O)c4N)C3)c2)CCC[101CH:1]1[101O:1]c1ccc2c(c1)CN(C(=O)C(NC(=O)C(C)NC)C(C)(C)C)C(C(=O)NC1CCCc3ccccc31)C2

> <Shape>
0.235

> <Color>
0.045

> <Negative vol penalty>
0.000

$$$$

  -OEChem-04042321513D

 88 97  0     1  0  0  0  0  0999 V2000
  -16.8316  -28.3380   24.1640 C   0  0  0  0  0  0  0  0  0  0  0  0
  -17.2669  -27.6524   23.0345 C   0  0  0  0  0  0  0  0  0  0  0  0
  -24.0959   -9.3017   20.8100 C   0  0  0  0  0  0  0  0  0  0  0  0
  -22.8190  -11.2411   21.4774 C   0  0  0  0  0  0  0  0  0  0  0  0
  -17.5244  -29.4651   24.6040 C   0  0  0  0  0  0  0  0  0  0  0  0
  -18.3947  -28.0941   22.3437 C   0  0  0  0  0  0  0  0  0  0  0  0
  -22.5535  -24.6250   19.4843 C   0  0  0  0  0  0  0  0  0  0  0  0
  -23.2465   -8.4854   21.5569 C   0  0  0  0  0  0  0  0  0  0  0  0
  -21.9695  -10.4248   22.2243 C   0  0  0  0  0  0  0  0  0  0  0  0
  -22.7208  -24.2730   18.1457 C   0  0  0  0  0  0  0  0  0  0  0  0
  -20.1666   -7.1301   21.2249 C   0  0  0  0  0  0  0  0  0  0  0  0
  -19.7151   -5.9505   20.6330 C   0  0  0  0  0  0  0  0  0  0  0  0
  -24.3039  -26.0731   17.8764 C   0  0  0  0  0  0  0  0  0  0  0  0
  -27.7791  -21.3127   17.6765 C   0  0  0  0  0  0  0  0  0  0  0  0
  -28.8532  -19.6488   19.0603 C   0  0  0  0  0  0  0  0  0  0  0  0
  -20.7449   -4.6682   22.4028 C   0  0  0  0  0  0  0  0  0  0  0  0
  -23.8822  -10.6795   20.7703 C   0  0  0  0  0  0  0  0  0  0  0  0
  -24.6140  -11.8925   18.6488 C   0  0  0  0  0  0  0  0  0  0  0  0
  -18.6670  -29.9152   23.9238 C   0  0  0  0  0  0  0  0  0  0  0  0
  -23.2532  -25.7124   20.0271 C   0  0  0  0  0  0  0  0  0  0  0  0
  -19.1027  -29.2290   22.7742 C   0  0  0  0  0  0  0  0  0  0  0  0
  -24.1457  -26.4353   19.2228 C   0  0  0  0  0  0  0  0  0  0  0  0
  -28.6940  -20.9800   18.6755 C   0  0  0  0  0  0  0  0  0  0  0  0
  -27.0232  -20.3140   17.0625 C   0  0  0  0  0  0  0  0  0  0  0  0
  -27.1824  -18.9828   17.4473 C   0  0  0  0  0  0  0  0  0  0  0  0
  -28.0973  -18.6501   18.4462 C   0  0  0  0  0  0  0  0  0  0  0  0
  -22.1833   -9.0470   22.2640 C   0  0  0  0  0  0  0  0  0  0  0  0
  -23.5939  -24.9989   17.3408 C   0  0  0  0  0  0  0  0  0  0  0  0
  -20.9073   -7.0787   22.4058 C   0  0  0  0  0  0  0  0  0  0  0  0
  -20.0043   -4.7196   21.2219 C   0  0  0  0  0  0  0  0  0  0  0  0
  -21.1964   -5.8478   22.9948 C   0  0  0  0  0  0  0  0  0  0  0  0
  -24.7596  -11.5233   19.9995 C   0  0  0  0  0  0  0  0  0  0  0  0
  -25.6986  -12.6955   18.3935 C   0  0  0  0  0  0  0  0  0  0  0  0
  -25.6209  -22.2800   14.1989 C   0  0  0  0  0  0  0  0  0  0  0  0
  -26.1586  -21.7709   13.0849 C   0  0  0  0  0  0  0  0  0  0  0  0
  -23.5898  -11.5410   17.7090 C   0  0  0  0  0  0  0  0  0  0  0  0
  -22.4217  -28.4911   21.3275 C   0  0  0  0  0  0  0  0  0  0  0  0
  -25.6023  -28.7207   21.9217 C   0  0  0  0  0  0  0  0  0  0  0  0
  -28.7790  -27.7878   21.0939 C   0  0  0  0  0  0  0  0  0  0  0  0
  -29.1475  -16.8245   19.8284 C   0  0  0  0  0  0  0  0  0  0  0  0
  -19.3553  -31.1661   24.4096 C   0  0  0  0  0  0  0  0  0  0  0  0
  -23.0818  -26.0627   21.4798 C   0  0  0  0  0  0  0  0  0  0  0  0
  -24.9357  -27.5985   19.7625 C   0  0  0  0  0  0  0  0  0  0  0  0
  -24.4069  -23.1518   14.2628 C   0  0  0  0  0  0  0  0  0  0  0  0
  -20.7593  -31.3494   23.8391 C   0  0  0  0  0  0  0  0  0  0  0  0
  -29.8536  -13.5914   21.1421 C   0  0  0  0  0  0  0  0  0  0  0  0
  -20.7607  -31.1007   22.3342 C   0  0  0  0  0  0  0  0  0  0  0  0
  -28.5793  -12.7955   20.8509 C   0  0  0  0  0  0  0  0  0  0  0  0
  -29.5447  -15.0410   21.5125 C   0  0  0  0  0  0  0  0  0  0  0  0
  -27.4243  -14.9646   20.2606 C   0  0  0  0  0  0  0  0  0  0  0  0
  -25.6365  -23.1632   16.3370 C   0  0  0  0  0  0  0  0  0  0  0  0
  -20.3362  -29.6628   22.0123 C   0  0  1  0  0  0  0  0  0  0  0  0
  -23.4572  -27.5075   21.7943 C   0  0  1  0  0  0  0  0  0  0  0  0
  -27.6885  -13.5156   19.8196 C   0  0  2  0  0  0  0  0  0  0  0  0
  -24.2387  -23.3527   15.7635 C   0  0  1  0  0  0  0  0  0  1  0  0
  -29.5012  -22.0479   19.3331 C   0  0  0  0  0  0  0  0  0  0  0  0
  -27.3723  -20.9043   13.0653 C   0  0  0  0  0  0  0  0  0  0  0  0
  -27.1763  -17.1270   15.7613 C   0  0  0  0  0  0  0  0  0  0  0  0
  -31.2751  -27.6059   21.2781 C   0  0  0  0  0  0  0  0  0  0  0  0
  -25.5394  -31.4349   20.5293 C   0  0  0  0  0  0  0  0  0  0  0  0
  -28.0345  -31.3251   20.3544 C   0  0  0  0  0  0  0  0  0  0  0  0
  -26.9433  -31.3557   22.5974 C   0  0  0  0  0  0  0  0  0  0  0  0
  -28.5930  -25.4004   22.8331 C   0  0  0  0  0  0  0  0  0  0  0  0
  -26.3682  -17.9152   16.7859 C   0  0  0  0  0  0  0  0  0  0  0  0
  -26.0448  -20.6992   15.9922 C   0  0  0  0  0  0  0  0  0  0  0  0
  -26.7925  -29.2716   21.1741 C   0  0  1  0  0  0  0  0  0  0  0  0
  -29.9410  -27.3057   21.9435 C   0  0  2  0  0  0  0  0  0  0  0  0
  -26.8112  -30.8262   21.1528 C   0  0  0  0  0  0  0  0  0  0  0  0
  -25.8509  -12.0486   20.5628 N   0  0  0  0  0  0  0  0  0  0  0  0
  -26.4008  -12.7559   19.5611 N   0  0  0  0  0  0  0  0  0  0  0  0
  -24.7289  -27.9060   21.1874 N   0  0  0  0  0  0  0  0  0  0  0  0
  -28.7008  -15.6600   20.4881 N   0  0  0  0  0  0  0  0  0  0  0  0
  -26.1107  -13.3487   17.2862 N   0  0  0  0  0  0  0  0  0  0  0  0
  -22.5480  -10.7069   18.1371 N   0  0  0  0  0  0  0  0  0  0  0  0
  -28.2757  -17.3041   18.8515 N   0  0  0  0  0  0  0  0  0  0  0  0
  -21.4298  -28.7465   22.2552 N   0  0  0  0  0  0  0  0  0  0  0  0
  -27.9726  -28.6681   21.7837 N   0  0  0  0  0  0  0  0  0  0  0  0
  -26.2615  -22.0907   15.4699 N   0  3  1  0  0  0  0  0  0  0  0  0
  -29.8463  -25.8349   22.1642 N   0  3  0  0  0  0  0  0  0  0  0  0
  -23.6070  -11.9411   16.5203 O   0  0  0  0  0  0  0  0  0  0  0  0
  -22.5164  -28.9830   20.2092 O   0  0  0  0  0  0  0  0  0  0  0  0
  -25.4570  -28.9969   23.1151 O   0  0  0  0  0  0  0  0  0  0  0  0
  -28.6063  -27.4229   19.9330 O   0  0  0  0  0  0  0  0  0  0  0  0
  -30.2366  -17.3414   20.0904 O   0  0  0  0  0  0  0  0  0  0  0  0
  -21.3541   -8.2507   22.9927 O   0  0  0  0  0  0  0  0  0  0  0  0
  -23.7585  -24.6578   16.0337 O   0  0  0  0  0  0  0  0  0  1  0  0
  -19.5694   -3.5870   20.6542 F   0  0  0  0  0  0  0  0  0  0  0  0
  -21.9066   -5.7922   24.1298 F   0  0  0  0  0  0  0  0  0  0  0  0
  1  2  1  0  0  0  0
  1  5  2  0  0  0  0
  2  6  2  0  0  0  0
  3  8  2  0  0  0  0
  3 17  1  0  0  0  0
  4  9  1  0  0  0  0
  4 17  2  0  0  0  0
  5 19  1  0  0  0  0
  6 21  1  0  0  0  0
  7 10  2  0  0  0  0
  7 20  1  0  0  0  0
  8 27  1  0  0  0  0
  9 27  2  0  0  0  0
 10 28  1  0  0  0  0
 11 12  2  0  0  0  0
 11 29  1  0  0  0  0
 12 30  1  0  0  0  0
 13 22  1  0  0  0  0
 13 28  2  0  0  0  0
 14 23  2  0  0  0  0
 14 24  1  0  0  0  0
 15 23  1  0  0  0  0
 15 26  2  0  0  0  0
 16 30  2  0  0  0  0
 16 31  1  0  0  0  0
 17 32  1  0  0  0  0
 18 32  1  0  0  0  0
 18 33  2  0  0  0  0
 18 36  1  0  0  0  0
 19 21  2  0  0  0  0
 19 41  1  0  0  0  0
 20 22  2  0  0  0  0
 20 42  1  0  0  0  0
 21 52  1  0  0  0  0
 22 43  1  0  0  0  0
 23 56  1  0  0  0  0
 24 25  2  0  0  0  0
 24 65  1  0  0  0  0
 25 26  1  0  0  0  0
 25 64  1  0  0  0  0
 26 75  1  0  0  0  0
 27 85  1  0  0  0  0
 28 86  1  0  0  0  0
 29 31  2  0  0  0  0
 29 85  1  0  0  0  0
 30 87  1  0  0  0  0
 31 88  1  0  0  0  0
 32 69  2  0  0  0  0
 33 70  1  0  0  0  0
 33 73  1  0  0  0  0
 34 35  2  0  0  0  0
 34 44  1  0  0  0  0
 34 78  1  0  0  0  0
 35 57  1  0  0  0  0
 36 74  1  0  0  0  0
 36 80  2  0  0  0  0
 37 53  1  0  0  0  0
 37 76  1  0  0  0  0
 37 81  2  0  0  0  0
 38 66  1  0  0  0  0
 38 71  1  0  0  0  0
 38 82  2  0  0  0  0
 39 67  1  0  0  0  0
 39 77  1  0  0  0  0
 39 83  2  0  0  0  0
 40 72  1  0  0  0  0
 40 75  1  0  0  0  0
 40 84  2  0  0  0  0
 41 45  1  0  0  0  0
 42 53  1  0  0  0  0
 43 71  1  0  0  0  0
 44 55  1  0  0  0  0
 45 47  1  0  0  0  0
 46 48  1  0  0  0  0
 46 49  1  0  0  0  0
 47 52  1  0  0  0  0
 48 54  1  0  0  0  0
 49 72  1  0  0  0  0
 50 54  1  0  0  0  0
 50 72  1  0  0  0  0
 51 55  1  0  0  0  0
 51 78  1  0  0  0  0
 52 76  1  0  0  0  0
 53 71  1  0  0  0  0
 54 70  1  0  0  0  0
 55 86  1  0  0  0  0
 58 64  1  0  0  0  0
 59 67  1  0  0  0  0
 60 68  1  0  0  0  0
 61 68  1  0  0  0  0
 62 68  1  0  0  0  0
 63 79  1  0  0  0  0
 65 78  1  0  0  0  0
 66 68  1  0  0  0  0
 66 77  1  0  0  0  0
 67 79  1  0  0  0  0
 69 70  1  0  0  0  0
M  CHG  2  78   1  79   1
M  ISO  4  40 100  55 101  75 100  86 101
M  END
> <Batch ID>
0035

> <Smiles>
CC=C1C[101CH:1]([101O:1]c2ccc3c(c2)CN(C(=O)C(NC(=O)C(C)NC)C(C)(C)C)C(C(=O)NC2CCCc4ccccc42)C3)CN1Cc1cc(C)cc([100NH:0][100C:0](=O)N2CCCC(n3nc(-c4ccc(Oc5ccc(F)cc5F)cc4)c(C(N)=O)c3N)C2)c1CC

> <Shape>
0.265

> <Color>
0.083

> <Negative vol penalty>
0.000

$$$$

  -OEChem-04042321513D

 89 98  0     1  0  0  0  0  0999 V2000
  -16.7621  -29.4043   24.2927 C   0  0  0  0  0  0  0  0  0  0  0  0
  -17.2219  -28.1514   23.8999 C   0  0  0  0  0  0  0  0  0  0  0  0
  -26.0604  -13.4052   21.1629 C   0  0  0  0  0  0  0  0  0  0  0  0
  -26.2618  -13.4006   18.7553 C   0  0  0  0  0  0  0  0  0  0  0  0
  -17.4048  -30.5553   23.8387 C   0  0  0  0  0  0  0  0  0  0  0  0
  -18.3241  -28.0488   23.0519 C   0  0  0  0  0  0  0  0  0  0  0  0
  -23.9440  -23.8213   21.6876 C   0  0  0  0  0  0  0  0  0  0  0  0
  -24.8911  -12.6508   21.0665 C   0  0  0  0  0  0  0  0  0  0  0  0
  -25.0925  -12.6461   18.6589 C   0  0  0  0  0  0  0  0  0  0  0  0
  -24.5586  -23.1552   20.6282 C   0  0  0  0  0  0  0  0  0  0  0  0
  -24.0484   -9.4168   20.5526 C   0  0  0  0  0  0  0  0  0  0  0  0
  -23.9037   -8.3320   21.4174 C   0  0  0  0  0  0  0  0  0  0  0  0
  -30.1443  -21.7688   13.3253 C   0  0  0  0  0  0  0  0  0  0  0  0
  -30.4053  -20.4232   13.5838 C   0  0  0  0  0  0  0  0  0  0  0  0
  -25.6382  -25.2097   19.9705 C   0  0  0  0  0  0  0  0  0  0  0  0
  -21.9055   -9.3316   22.3368 C   0  0  0  0  0  0  0  0  0  0  0  0
  -26.7457  -13.7801   20.0072 C   0  0  0  0  0  0  0  0  0  0  0  0
  -29.2983  -22.0365   15.5725 C   0  0  0  0  0  0  0  0  0  0  0  0
  -29.2708  -14.0763   20.2171 C   0  0  0  0  0  0  0  0  0  0  0  0
  -18.5214  -30.4665   22.9925 C   0  0  0  0  0  0  0  0  0  0  0  0
  -24.1637  -25.1914   21.8902 C   0  0  0  0  0  0  0  0  0  0  0  0
  -18.9815  -29.1997   22.5851 C   0  0  0  0  0  0  0  0  0  0  0  0
  -25.0272  -25.8903   21.0347 C   0  0  0  0  0  0  0  0  0  0  0  0
  -29.5593  -20.6909   15.8310 C   0  0  0  0  0  0  0  0  0  0  0  0
  -24.4072  -12.2713   19.8145 C   0  0  0  0  0  0  0  0  0  0  0  0
  -25.4036  -23.8499   19.7678 C   0  0  0  0  0  0  0  0  0  0  0  0
  -23.1217  -10.4590   20.5799 C   0  0  0  0  0  0  0  0  0  0  0  0
  -22.8323   -8.2894   22.3095 C   0  0  0  0  0  0  0  0  0  0  0  0
  -22.0503  -10.4164   21.4720 C   0  0  0  0  0  0  0  0  0  0  0  0
  -29.5908  -22.5755   14.3196 C   0  0  0  0  0  0  0  0  0  0  0  0
  -30.1127  -19.8842   14.8367 C   0  0  0  0  0  0  0  0  0  0  0  0
  -27.9533  -14.5599   20.1061 C   0  0  0  0  0  0  0  0  0  0  0  0
  -30.0475  -15.2074   20.2791 C   0  0  0  0  0  0  0  0  0  0  0  0
  -28.7154  -22.8873   16.6234 C   0  0  0  0  0  0  0  0  0  0  0  0
  -27.4027  -23.0901   16.8158 C   0  0  0  0  0  0  0  0  0  0  0  0
  -29.7496  -12.7256   20.2602 C   0  0  0  0  0  0  0  0  0  0  0  0
  -22.3225  -27.7824   21.8905 C   0  0  0  0  0  0  0  0  0  0  0  0
  -25.0461  -29.2415   22.8780 C   0  0  0  0  0  0  0  0  0  0  0  0
  -28.4564  -29.2295   23.0065 C   0  0  0  0  0  0  0  0  0  0  0  0
  -29.2733  -20.8031   18.3314 C   0  0  0  0  0  0  0  0  0  0  0  0
  -19.1542  -31.7398   22.4896 C   0  0  0  0  0  0  0  0  0  0  0  0
  -23.5142  -25.8895   23.0535 C   0  0  0  0  0  0  0  0  0  0  0  0
  -25.3121  -27.3575   21.2211 C   0  0  0  0  0  0  0  0  0  0  0  0
  -20.5449  -31.5350   21.8944 C   0  0  0  0  0  0  0  0  0  0  0  0
  -32.5224  -26.0717   14.8685 C   0  0  0  0  0  0  0  0  0  0  0  0
  -31.5895  -26.9372   15.6928 C   0  0  0  0  0  0  0  0  0  0  0  0
  -29.8949  -19.7826   21.6854 C   0  0  0  0  0  0  0  0  0  0  0  0
  -20.5489  -30.3406   20.9457 C   0  0  0  0  0  0  0  0  0  0  0  0
  -29.5933  -18.2823   21.6697 C   0  0  0  0  0  0  0  0  0  0  0  0
  -28.9410  -20.5624   20.7822 C   0  0  0  0  0  0  0  0  0  0  0  0
  -31.8271  -24.7169   14.8596 C   0  0  0  0  0  0  0  0  0  0  0  0
  -30.2185  -26.4896   15.2115 C   0  0  0  0  0  0  0  0  0  0  0  0
  -28.5512  -18.5708   19.3855 C   0  0  0  0  0  0  0  0  0  0  0  0
  -20.1893  -29.0468   21.6861 C   0  0  1  0  0  0  0  0  0  0  0  0
  -23.4050  -27.3987   22.8594 C   0  0  1  0  0  0  0  0  0  0  0  0
  -29.5274  -17.7358   20.2301 C   0  0  2  0  0  0  0  0  0  0  0  0
  -30.4007  -30.5743   23.8483 C   0  0  0  0  0  0  0  0  0  0  0  0
  -24.6766  -31.2114   20.5774 C   0  0  0  0  0  0  0  0  0  0  0  0
  -27.0644  -31.9019   20.8771 C   0  0  0  0  0  0  0  0  0  0  0  0
  -25.4266  -32.2466   22.7268 C   0  0  0  0  0  0  0  0  0  0  0  0
  -29.3640  -27.0308   24.7675 C   0  0  0  0  0  0  0  0  0  0  0  0
  -26.8577  -23.9757   17.8901 C   0  0  0  0  0  0  0  0  0  1  0  0
  -26.2138  -29.9051   22.1887 C   0  0  1  0  0  0  0  0  0  0  0  0
  -29.4219  -29.4521   24.1567 C   0  0  2  0  0  0  0  0  0  0  0  0
  -25.8387  -31.2890   21.5876 C   0  0  0  0  0  0  0  0  0  0  0  0
  -27.8927  -15.8942   20.0980 N   0  0  0  0  0  0  0  0  0  0  0  0
  -29.1819  -16.2587   20.2047 N   0  0  0  0  0  0  0  0  0  0  0  0
  -24.6484  -27.9970   22.3692 N   0  0  0  0  0  0  0  0  0  0  0  0
  -28.9340  -19.9907   19.4339 N   0  0  0  0  0  0  0  0  0  0  0  0
  -30.3734  -25.0243   14.9978 N   0  0  0  0  0  0  0  0  0  0  0  0
  -31.3798  -15.3952   20.3895 N   0  0  0  0  0  0  0  0  0  0  0  0
  -28.8159  -11.6830   20.1848 N   0  0  0  0  0  0  0  0  0  0  0  0
  -29.2638  -20.1421   17.1036 N   0  0  0  0  0  0  0  0  0  0  0  0
  -21.3254  -28.5644   22.4418 N   0  0  0  0  0  0  0  0  0  0  0  0
  -27.2934  -29.9522   23.1689 N   0  0  0  0  0  0  0  0  0  0  0  0
  -30.2005  -28.2104   24.4270 N   0  3  0  0  0  0  0  0  0  0  0  0
  -30.9678  -12.4513   20.3790 O   0  0  0  0  0  0  0  0  0  0  0  0
  -22.3878  -27.3988   20.7285 O   0  0  0  0  0  0  0  0  0  0  0  0
  -24.5113  -29.8032   23.8372 O   0  0  0  0  0  0  0  0  0  0  0  0
  -28.7103  -28.4916   22.0571 O   0  0  0  0  0  0  0  0  0  0  0  0
  -29.5784  -21.9905   18.4698 O   0  0  0  0  0  0  0  0  0  0  0  0
  -29.7185  -24.4968   12.5688 O   0  0  0  0  0  0  0  0  0  0  0  0
  -27.9298  -24.5817   14.3410 O   0  0  0  0  0  0  0  0  0  0  0  0
  -23.2664  -11.5349   19.7201 O   0  0  0  0  0  0  0  0  0  0  0  0
  -26.0042  -23.2023   18.7326 O   0  0  0  0  0  0  0  0  0  1  0  0
  -22.6926   -7.2469   23.1388 F   0  0  0  0  0  0  0  0  0  0  0  0
  -21.1562  -11.4141   21.5020 F   0  0  0  0  0  0  0  0  0  0  0  0
  -29.2889  -24.2602   13.9373 S   0  0  0  0  0  0  0  0  0  0  0  0
  -30.4572  -18.2122   15.1081 Cl  0  0  0  0  0  0  0  0  0  0  0  0
  1  2  1  0  0  0  0
  1  5  2  0  0  0  0
  2  6  2  0  0  0  0
  3  8  2  0  0  0  0
  3 17  1  0  0  0  0
  4  9  1  0  0  0  0
  4 17  2  0  0  0  0
  5 20  1  0  0  0  0
  6 22  1  0  0  0  0
  7 10  2  0  0  0  0
  7 21  1  0  0  0  0
  8 25  1  0  0  0  0
  9 25  2  0  0  0  0
 10 26  1  0  0  0  0
 11 12  2  0  0  0  0
 11 27  1  0  0  0  0
 12 28  1  0  0  0  0
 13 14  1  0  0  0  0
 13 30  2  0  0  0  0
 14 31  2  0  0  0  0
 15 23  1  0  0  0  0
 15 26  2  0  0  0  0
 16 28  2  0  0  0  0
 16 29  1  0  0  0  0
 17 32  1  0  0  0  0
 18 24  2  0  0  0  0
 18 30  1  0  0  0  0
 18 34  1  0  0  0  0
 19 32  1  0  0  0  0
 19 33  2  0  0  0  0
 19 36  1  0  0  0  0
 20 22  2  0  0  0  0
 20 41  1  0  0  0  0
 21 23  2  0  0  0  0
 21 42  1  0  0  0  0
 22 54  1  0  0  0  0
 23 43  1  0  0  0  0
 24 31  1  0  0  0  0
 24 73  1  0  0  0  0
 25 84  1  0  0  0  0
 26 85  1  0  0  0  0
 27 29  2  0  0  0  0
 27 84  1  0  0  0  0
 28 86  1  0  0  0  0
 29 87  1  0  0  0  0
 30 88  1  0  0  0  0
 31 89  1  0  0  0  0
 32 66  2  0  0  0  0
 33 67  1  0  0  0  0
 33 71  1  0  0  0  0
 34 35  2  0  0  0  0
 35 62  1  0  0  0  0
 36 72  1  0  0  0  0
 36 77  2  0  0  0  0
 37 55  1  0  0  0  0
 37 74  1  0  0  0  0
 37 78  2  0  0  0  0
 38 63  1  0  0  0  0
 38 68  1  0  0  0  0
 38 79  2  0  0  0  0
 39 64  1  0  0  0  0
 39 75  1  0  0  0  0
 39 80  2  0  0  0  0
 40 69  1  0  0  0  0
 40 73  1  0  0  0  0
 40 81  2  0  0  0  0
 41 44  1  0  0  0  0
 42 55  1  0  0  0  0
 43 68  1  0  0  0  0
 44 48  1  0  0  0  0
 45 46  1  0  0  0  0
 45 51  1  0  0  0  0
 46 52  1  0  0  0  0
 47 49  1  0  0  0  0
 47 50  1  0  0  0  0
 48 54  1  0  0  0  0
 49 56  1  0  0  0  0
 50 69  1  0  0  0  0
 51 70  1  0  0  0  0
 52 70  1  0  0  0  0
 53 56  1  0  0  0  0
 53 69  1  0  0  0  0
 54 74  1  0  0  0  0
 55 68  1  0  0  0  0
 56 67  1  0  0  0  0
 57 64  1  0  0  0  0
 58 65  1  0  0  0  0
 59 65  1  0  0  0  0
 60 65  1  0  0  0  0
 61 76  1  0  0  0  0
 62 85  1  0  0  0  0
 63 65  1  0  0  0  0
 63 75  1  0  0  0  0
 64 76  1  0  0  0  0
 66 67  1  0  0  0  0
 70 88  1  0  0  0  0
 82 88  2  0  0  0  0
 83 88  2  0  0  0  0
M  CHG  1  76   1
M  ISO  4  40 100  62 101  73 100  85 101
M  END
> <Batch ID>
0035

> <Smiles>
CNC(C)C(=O)NC(C(=O)N1Cc2cc([101O:1][101CH2:1]C=Cc3c(S(=O)(=O)N4CCCC4)ccc(Cl)c3[100NH:0][100C:0](=O)N3CCCC(n4nc(-c5ccc(Oc6ccc(F)cc6F)cc5)c(C(N)=O)c4N)C3)ccc2CC1C(=O)NC1CCCc2ccccc21)C(C)(C)C

> <Shape>
0.249

> <Color>
0.068

> <Negative vol penalty>
0.000

$$$$

  -OEChem-04042321513D

 86 95  0     1  0  0  0  0  0999 V2000
  -26.7909  -37.8704   24.0187 C   0  0  0  0  0  0  0  0  0  0  0  0
  -27.5685  -36.8515   23.4779 C   0  0  0  0  0  0  0  0  0  0  0  0
  -24.1514   -9.1701   21.1321 C   0  0  0  0  0  0  0  0  0  0  0  0
  -25.5626   -9.7007   23.0200 C   0  0  0  0  0  0  0  0  0  0  0  0
  -25.5661  -37.5702   24.6134 C   0  0  0  0  0  0  0  0  0  0  0  0
  -27.1222  -35.5315   23.5324 C   0  0  0  0  0  0  0  0  0  0  0  0
  -27.3406  -29.4067   19.8236 C   0  0  0  0  0  0  0  0  0  0  0  0
  -23.9890   -7.8729   21.6181 C   0  0  0  0  0  0  0  0  0  0  0  0
  -25.4001   -8.4034   23.5060 C   0  0  0  0  0  0  0  0  0  0  0  0
  -27.6608  -28.0596   19.9868 C   0  0  0  0  0  0  0  0  0  0  0  0
  -22.1595   -6.3149   23.9969 C   0  0  0  0  0  0  0  0  0  0  0  0
  -20.8720   -5.7783   23.9944 C   0  0  0  0  0  0  0  0  0  0  0  0
  -25.4919  -27.6691   20.9679 C   0  0  0  0  0  0  0  0  0  0  0  0
  -28.7016  -20.8175   19.7033 C   0  0  0  0  0  0  0  0  0  0  0  0
  -21.6194   -3.9919   22.5496 C   0  0  0  0  0  0  0  0  0  0  0  0
  -24.9383  -10.0841   21.8330 C   0  0  0  0  0  0  0  0  0  0  0  0
  -24.3051  -12.5457   21.6156 C   0  0  0  0  0  0  0  0  0  0  0  0
  -25.1001  -36.2471   24.6666 C   0  0  0  0  0  0  0  0  0  0  0  0
  -26.0957  -29.8981   20.2421 C   0  0  0  0  0  0  0  0  0  0  0  0
  -25.8906  -35.2132   24.1296 C   0  0  0  0  0  0  0  0  0  0  0  0
  -25.1574  -29.0224   20.8066 C   0  0  0  0  0  0  0  0  0  0  0  0
  -29.1708  -21.2486   20.9441 C   0  0  0  0  0  0  0  0  0  0  0  0
  -28.5565  -19.4539   19.4479 C   0  0  0  0  0  0  0  0  0  0  0  0
  -29.4950  -20.3161   21.9295 C   0  0  0  0  0  0  0  0  0  0  0  0
  -29.3500  -18.9525   21.6741 C   0  0  0  0  0  0  0  0  0  0  0  0
  -28.8808  -18.5214   20.4333 C   0  0  0  0  0  0  0  0  0  0  0  0
  -24.6133   -7.4895   22.8051 C   0  0  0  0  0  0  0  0  0  0  0  0
  -26.7375  -27.1912   20.5616 C   0  0  0  0  0  0  0  0  0  0  0  0
  -23.1769   -5.6901   23.2757 C   0  0  0  0  0  0  0  0  0  0  0  0
  -20.6020   -4.6167   23.2708 C   0  0  0  0  0  0  0  0  0  0  0  0
  -22.9069   -4.5286   22.5521 C   0  0  0  0  0  0  0  0  0  0  0  0
  -25.1070  -11.4242   21.3312 C   0  0  0  0  0  0  0  0  0  0  0  0
  -24.8788  -13.5683   20.9004 C   0  0  0  0  0  0  0  0  0  0  0  0
  -23.1453  -12.6534   22.4517 C   0  0  0  0  0  0  0  0  0  0  0  0
  -25.1356  -32.0499   22.3755 C   0  0  0  0  0  0  0  0  0  0  0  0
  -22.2199  -31.4560   21.0840 C   0  0  0  0  0  0  0  0  0  0  0  0
  -20.1891  -29.3062   19.3806 C   0  0  0  0  0  0  0  0  0  0  0  0
  -29.3575  -16.3913   19.1755 C   0  0  0  0  0  0  0  0  0  0  0  0
  -23.7915  -35.9658   25.3617 C   0  0  0  0  0  0  0  0  0  0  0  0
  -25.7555  -31.3485   20.0347 C   0  0  0  0  0  0  0  0  0  0  0  0
  -23.7994  -29.4960   21.2538 C   0  0  0  0  0  0  0  0  0  0  0  0
  -23.2176  -34.5872   25.0449 C   0  0  0  0  0  0  0  0  0  0  0  0
  -28.4630  -13.4826   17.3272 C   0  0  0  0  0  0  0  0  0  0  0  0
  -24.3015  -33.5195   25.1552 C   0  0  0  0  0  0  0  0  0  0  0  0
  -27.4442  -12.7800   18.2275 C   0  0  0  0  0  0  0  0  0  0  0  0
  -26.0618  -24.2051   22.1427 C   0  0  0  0  0  0  0  0  0  0  0  0
  -29.5759  -14.1437   18.1385 C   0  0  0  0  0  0  0  0  0  0  0  0
  -28.0980  -14.3476   20.0989 C   0  0  0  0  0  0  0  0  0  0  0  0
  -26.8456  -23.0529   21.5473 C   0  0  0  0  0  0  0  0  0  0  0  0
  -28.3917  -24.7562   22.3888 C   0  0  0  0  0  0  0  0  0  0  0  0
  -25.4292  -33.7721   24.1472 C   0  0  1  0  0  0  0  0  0  0  0  0
  -24.6542  -31.8432   20.9673 C   0  0  1  0  0  0  0  0  0  0  0  0
  -26.9226  -13.7220   19.3303 C   0  0  2  0  0  0  0  0  0  0  0  0
  -27.0387  -25.3649   22.0549 C   0  0  1  0  0  0  0  0  0  1  0  0
  -28.0503  -19.0232   18.1092 C   0  0  0  0  0  0  0  0  0  0  0  0
  -29.9981  -20.7819   23.2592 C   0  0  0  0  0  0  0  0  0  0  0  0
  -29.6996  -17.9559   22.7350 C   0  0  0  0  0  0  0  0  0  0  0  0
  -17.8473  -29.0837   18.5065 C   0  0  0  0  0  0  0  0  0  0  0  0
  -21.2204  -30.8944   23.9116 C   0  0  0  0  0  0  0  0  0  0  0  0
  -19.2141  -29.7836   22.9070 C   0  0  0  0  0  0  0  0  0  0  0  0
  -19.6377  -32.2057   22.4870 C   0  0  0  0  0  0  0  0  0  0  0  0
  -21.1309  -29.0749   16.5845 C   0  0  0  0  0  0  0  0  0  0  0  0
  -29.3161  -22.7209   21.1935 C   0  0  0  0  0  0  0  0  0  0  0  0
  -21.1046  -30.4784   21.3661 C   0  0  1  0  0  0  0  0  0  0  0  0
  -19.2703  -29.5178   18.1909 C   0  0  2  0  0  0  0  0  0  0  0  0
  -20.3204  -30.8317   22.6614 C   0  0  0  0  0  0  0  0  0  0  0  0
  -26.1134  -11.7074   20.4999 N   0  0  0  0  0  0  0  0  0  0  0  0
  -25.9476  -13.0185   20.2559 N   0  0  0  0  0  0  0  0  0  0  0  0
  -23.5163  -30.9241   21.0356 N   0  0  0  0  0  0  0  0  0  0  0  0
  -29.0070  -15.0247   19.1608 N   0  0  0  0  0  0  0  0  0  0  0  0
  -24.5682  -14.8752   20.7662 N   0  0  0  0  0  0  0  0  0  0  0  0
  -22.6900  -11.5051   23.1138 N   0  0  0  0  0  0  0  0  0  0  0  0
  -28.7293  -17.1369   20.1726 N   0  0  0  0  0  0  0  0  0  0  0  0
  -25.0258  -33.3530   22.8221 N   0  0  0  0  0  0  0  0  0  0  0  0
  -20.2822  -30.4386   20.1618 N   0  0  0  0  0  0  0  0  0  0  0  0
  -28.2436  -23.2742   22.0758 N   0  3  2  0  0  0  0  0  0  0  0  0
  -19.7517  -28.7336   17.0186 N   0  3  0  0  0  0  0  0  0  0  0  0
  -22.5213  -13.7323   22.5940 O   0  0  0  0  0  0  0  0  0  0  0  0
  -25.5728  -31.0974   23.0105 O   0  0  0  0  0  0  0  0  0  0  0  0
  -21.9499  -32.6463   20.9058 O   0  0  0  0  0  0  0  0  0  0  0  0
  -20.7636  -28.2416   19.5975 O   0  0  0  0  0  0  0  0  0  0  0  0
  -30.1351  -16.8709   18.3465 O   0  0  0  0  0  0  0  0  0  0  0  0
  -24.4548   -6.2238   23.2798 O   0  0  0  0  0  0  0  0  0  0  0  0
  -27.0477  -25.8760   20.7226 O   0  0  0  0  0  0  0  0  0  1  0  0
  -19.3660   -4.1006   23.2697 F   0  0  0  0  0  0  0  0  0  0  0  0
  -23.8806   -3.9233   21.8582 F   0  0  0  0  0  0  0  0  0  0  0  0
  1  2  1  0  0  0  0
  1  5  2  0  0  0  0
  2  6  2  0  0  0  0
  3  8  2  0  0  0  0
  3 16  1  0  0  0  0
  4  9  1  0  0  0  0
  4 16  2  0  0  0  0
  5 18  1  0  0  0  0
  6 20  1  0  0  0  0
  7 10  2  0  0  0  0
  7 19  1  0  0  0  0
  8 27  1  0  0  0  0
  9 27  2  0  0  0  0
 10 28  1  0  0  0  0
 11 12  2  0  0  0  0
 11 29  1  0  0  0  0
 12 30  1  0  0  0  0
 13 21  1  0  0  0  0
 13 28  2  0  0  0  0
 14 22  1  0  0  0  0
 14 23  2  0  0  0  0
 15 30  2  0  0  0  0
 15 31  1  0  0  0  0
 16 32  1  0  0  0  0
 17 32  1  0  0  0  0
 17 33  2  0  0  0  0
 17 34  1  0  0  0  0
 18 20  2  0  0  0  0
 18 39  1  0  0  0  0
 19 21  2  0  0  0  0
 19 40  1  0  0  0  0
 20 51  1  0  0  0  0
 21 41  1  0  0  0  0
 22 24  2  0  0  0  0
 22 63  1  0  0  0  0
 23 26  1  0  0  0  0
 23 55  1  0  0  0  0
 24 25  1  0  0  0  0
 24 56  1  0  0  0  0
 25 26  2  0  0  0  0
 25 57  1  0  0  0  0
 26 73  1  0  0  0  0
 27 83  1  0  0  0  0
 28 84  1  0  0  0  0
 29 31  2  0  0  0  0
 29 83  1  0  0  0  0
 30 85  1  0  0  0  0
 31 86  1  0  0  0  0
 32 67  2  0  0  0  0
 33 68  1  0  0  0  0
 33 71  1  0  0  0  0
 34 72  1  0  0  0  0
 34 78  2  0  0  0  0
 35 52  1  0  0  0  0
 35 74  1  0  0  0  0
 35 79  2  0  0  0  0
 36 64  1  0  0  0  0
 36 69  1  0  0  0  0
 36 80  2  0  0  0  0
 37 65  1  0  0  0  0
 37 75  1  0  0  0  0
 37 81  2  0  0  0  0
 38 70  1  0  0  0  0
 38 73  1  0  0  0  0
 38 82  2  0  0  0  0
 39 42  1  0  0  0  0
 40 52  1  0  0  0  0
 41 69  1  0  0  0  0
 42 44  1  0  0  0  0
 43 45  1  0  0  0  0
 43 47  1  0  0  0  0
 44 51  1  0  0  0  0
 45 53  1  0  0  0  0
 46 49  1  0  0  0  0
 46 54  1  0  0  0  0
 47 70  1  0  0  0  0
 48 53  1  0  0  0  0
 48 70  1  0  0  0  0
 49 76  1  0  0  0  0
 50 54  1  0  0  0  0
 50 76  1  0  0  0  0
 51 74  1  0  0  0  0
 52 69  1  0  0  0  0
 53 68  1  0  0  0  0
 54 84  1  0  0  0  0
 58 65  1  0  0  0  0
 59 66  1  0  0  0  0
 60 66  1  0  0  0  0
 61 66  1  0  0  0  0
 62 77  1  0  0  0  0
 63 76  1  0  0  0  0
 64 66  1  0  0  0  0
 64 75  1  0  0  0  0
 65 77  1  0  0  0  0
 67 68  1  0  0  0  0
M  CHG  2  76   1  77   1
M  ISO  4  38 100  54 101  73 100  84 101
M  END
> <Batch ID>
0035

> <Smiles>
CNC(C)C(=O)NC(C(=O)N1Cc2cc([101O:1][101CH:1]3CCN(Cc4cc(C)c([100NH:0][100C:0](=O)N5CCCC(n6nc(-c7ccc(Oc8ccc(F)cc8F)cc7)c(C(N)=O)c6N)C5)c(C)c4C)C3)ccc2CC1C(=O)NC1CCCc2ccccc21)C(C)(C)C

> <Shape>
0.328

> <Color>
0.104

> <Negative vol penalty>
0.000

$$$$

  -OEChem-04042321513D

 86 95  0     1  0  0  0  0  0999 V2000
  -26.7039  -38.1254   24.2536 C   0  0  0  0  0  0  0  0  0  0  0  0
  -27.3935  -37.3184   23.3544 C   0  0  0  0  0  0  0  0  0  0  0  0
  -24.6179   -9.1478   21.6240 C   0  0  0  0  0  0  0  0  0  0  0  0
  -23.8289  -10.8555   23.1400 C   0  0  0  0  0  0  0  0  0  0  0  0
  -25.9293  -37.5449   25.2572 C   0  0  0  0  0  0  0  0  0  0  0  0
  -27.3099  -35.9304   23.4589 C   0  0  0  0  0  0  0  0  0  0  0  0
  -27.3231  -30.0167   19.4162 C   0  0  0  0  0  0  0  0  0  0  0  0
  -24.1553   -8.1611   22.4947 C   0  0  0  0  0  0  0  0  0  0  0  0
  -23.3663   -9.8689   24.0107 C   0  0  0  0  0  0  0  0  0  0  0  0
  -27.9686  -28.7854   19.3110 C   0  0  0  0  0  0  0  0  0  0  0  0
  -22.8596   -5.1944   24.1484 C   0  0  0  0  0  0  0  0  0  0  0  0
  -22.1581   -4.1214   23.5987 C   0  0  0  0  0  0  0  0  0  0  0  0
  -26.5366  -27.8942   21.0357 C   0  0  0  0  0  0  0  0  0  0  0  0
  -27.8226  -21.1958   20.4904 C   0  0  0  0  0  0  0  0  0  0  0  0
  -20.4971   -5.6492   22.7361 C   0  0  0  0  0  0  0  0  0  0  0  0
  -24.4548  -10.4950   21.9467 C   0  0  0  0  0  0  0  0  0  0  0  0
  -24.2221  -12.1212   19.9950 C   0  0  0  0  0  0  0  0  0  0  0  0
  -25.8284  -36.1491   25.3681 C   0  0  0  0  0  0  0  0  0  0  0  0
  -26.2851  -30.1994   20.3412 C   0  0  0  0  0  0  0  0  0  0  0  0
  -26.5344  -35.3308   24.4657 C   0  0  0  0  0  0  0  0  0  0  0  0
  -25.8779  -29.1280   21.1489 C   0  0  0  0  0  0  0  0  0  0  0  0
  -26.9174  -21.7084   19.5612 C   0  0  0  0  0  0  0  0  0  0  0  0
  -26.2975  -20.8557   18.6479 C   0  0  0  0  0  0  0  0  0  0  0  0
  -27.4881  -18.9778   19.5928 C   0  0  0  0  0  0  0  0  0  0  0  0
  -23.5295   -8.5217   23.6880 C   0  0  0  0  0  0  0  0  0  0  0  0
  -27.5773  -27.7247   20.1228 C   0  0  0  0  0  0  0  0  0  0  0  0
  -22.3797   -6.4948   23.9921 C   0  0  0  0  0  0  0  0  0  0  0  0
  -20.9769   -4.3488   22.8925 C   0  0  0  0  0  0  0  0  0  0  0  0
  -21.1985   -6.7222   23.2859 C   0  0  0  0  0  0  0  0  0  0  0  0
  -28.1081  -19.8305   20.5062 C   0  0  0  0  0  0  0  0  0  0  0  0
  -26.5828  -19.4904   18.6636 C   0  0  0  0  0  0  0  0  0  0  0  0
  -24.9330  -11.5147   21.0480 C   0  0  0  0  0  0  0  0  0  0  0  0
  -25.1111  -13.0159   19.4512 C   0  0  0  0  0  0  0  0  0  0  0  0
  -28.6021  -24.4192   18.7777 C   0  0  0  0  0  0  0  0  0  0  0  0
  -29.7938  -23.8569   18.9984 C   0  0  0  0  0  0  0  0  0  0  0  0
  -22.8784  -11.8961   19.5486 C   0  0  0  0  0  0  0  0  0  0  0  0
  -25.8392  -32.0706   22.8717 C   0  0  0  0  0  0  0  0  0  0  0  0
  -22.8582  -30.7933   22.8032 C   0  0  0  0  0  0  0  0  0  0  0  0
  -20.8325  -28.2138   21.8600 C   0  0  0  0  0  0  0  0  0  0  0  0
  -28.9763  -16.9862   19.9993 C   0  0  0  0  0  0  0  0  0  0  0  0
  -25.0168  -35.5675   26.4984 C   0  0  0  0  0  0  0  0  0  0  0  0
  -25.5811  -31.5261   20.4237 C   0  0  0  0  0  0  0  0  0  0  0  0
  -24.7555  -29.2666   22.1436 C   0  0  0  0  0  0  0  0  0  0  0  0
  -24.6808  -34.0904   26.3098 C   0  0  0  0  0  0  0  0  0  0  0  0
  -30.0781  -13.6081   20.2257 C   0  0  0  0  0  0  0  0  0  0  0  0
  -25.9195  -33.3122   25.8774 C   0  0  0  0  0  0  0  0  0  0  0  0
  -28.7793  -12.8122   20.3732 C   0  0  0  0  0  0  0  0  0  0  0  0
  -30.0118  -14.9437   20.9642 C   0  0  0  0  0  0  0  0  0  0  0  0
  -27.5559  -14.9869   20.7745 C   0  0  0  0  0  0  0  0  0  0  0  0
  -26.7808  -25.2868   18.3437 C   0  0  0  0  0  0  0  0  0  0  0  0
  -26.4488  -33.8213   24.5313 C   0  0  1  0  0  0  0  0  0  0  0  0
  -28.1556  -25.8663   18.7561 C   0  0  1  0  0  0  0  0  0  1  0  0
  -24.8805  -31.7486   21.7605 C   0  0  1  0  0  0  0  0  0  0  0  0
  -27.5511  -13.6625   19.9936 C   0  0  2  0  0  0  0  0  0  0  0  0
  -25.3300  -21.4293   17.6589 C   0  0  0  0  0  0  0  0  0  0  0  0
  -18.4495  -27.4359   21.9777 C   0  0  0  0  0  0  0  0  0  0  0  0
  -23.2567  -30.0230   25.7286 C   0  0  0  0  0  0  0  0  0  0  0  0
  -21.3118  -28.4616   25.5100 C   0  0  0  0  0  0  0  0  0  0  0  0
  -20.9838  -30.9130   25.1844 C   0  0  0  0  0  0  0  0  0  0  0  0
  -20.5695  -28.2004   18.9122 C   0  0  0  0  0  0  0  0  0  0  0  0
  -26.6301  -23.1809   19.5664 C   0  0  0  0  0  0  0  0  0  0  0  0
  -22.2009  -29.5795   23.4146 C   0  0  1  0  0  0  0  0  0  0  0  0
  -19.4846  -28.1949   21.1619 C   0  0  2  0  0  0  0  0  0  0  0  0
  -21.9608  -29.7419   24.9421 C   0  0  0  0  0  0  0  0  0  0  0  0
  -26.1776  -11.9842   21.1676 N   0  0  0  0  0  0  0  0  0  0  0  0
  -26.2559  -12.8953   20.1827 N   0  0  0  0  0  0  0  0  0  0  0  0
  -24.1025  -30.5853   22.1914 N   0  0  0  0  0  0  0  0  0  0  0  0
  -28.8254  -15.6963   20.5508 N   0  0  0  0  0  0  0  0  0  0  0  0
  -25.0175  -13.8860   18.4234 N   0  0  0  0  0  0  0  0  0  0  0  0
  -22.1025  -10.9410   20.2195 N   0  0  0  0  0  0  0  0  0  0  0  0
  -27.7809  -17.5916   19.6130 N   0  0  0  0  0  0  0  0  0  0  0  0
  -25.6398  -33.3121   23.4447 N   0  0  0  0  0  0  0  0  0  0  0  0
  -20.9874  -29.3394   22.6411 N   0  0  0  0  0  0  0  0  0  0  0  0
  -27.2804  -23.9041   18.4458 N   0  3  2  0  0  0  0  0  0  0  0  0
  -19.6016  -27.5425   19.8272 N   0  3  0  0  0  0  0  0  0  0  0  0
  -22.3858  -12.5117   18.5728 O   0  0  0  0  0  0  0  0  0  0  0  0
  -26.6954  -31.2526   23.1870 O   0  0  0  0  0  0  0  0  0  0  0  0
  -22.2854  -31.8842   22.8599 O   0  0  0  0  0  0  0  0  0  0  0  0
  -21.6633  -27.3177   21.7286 O   0  0  0  0  0  0  0  0  0  0  0  0
  -30.0866  -17.5038   19.8534 O   0  0  0  0  0  0  0  0  0  0  0  0
  -23.0777   -7.5591   24.5377 O   0  0  0  0  0  0  0  0  0  0  0  0
  -28.2061  -26.5220   20.0226 O   0  0  0  0  0  0  0  0  0  1  0  0
  -20.3042   -3.3184   22.3633 F   0  0  0  0  0  0  0  0  0  0  0  0
  -20.7333   -7.9694   23.1313 F   0  0  0  0  0  0  0  0  0  0  0  0
  -29.2367  -19.2440   21.6767 Cl  0  0  0  0  0  0  0  0  0  0  0  0
  -25.8074  -18.4365   17.5234 Cl  0  0  0  0  0  0  0  0  0  0  0  0
  1  2  1  0  0  0  0
  1  5  2  0  0  0  0
  2  6  2  0  0  0  0
  3  8  2  0  0  0  0
  3 16  1  0  0  0  0
  4  9  1  0  0  0  0
  4 16  2  0  0  0  0
  5 18  1  0  0  0  0
  6 20  1  0  0  0  0
  7 10  2  0  0  0  0
  7 19  1  0  0  0  0
  8 25  1  0  0  0  0
  9 25  2  0  0  0  0
 10 26  1  0  0  0  0
 11 12  2  0  0  0  0
 11 27  1  0  0  0  0
 12 28  1  0  0  0  0
 13 21  1  0  0  0  0
 13 26  2  0  0  0  0
 14 22  1  0  0  0  0
 14 30  2  0  0  0  0
 15 28  2  0  0  0  0
 15 29  1  0  0  0  0
 16 32  1  0  0  0  0
 17 32  1  0  0  0  0
 17 33  2  0  0  0  0
 17 36  1  0  0  0  0
 18 20  2  0  0  0  0
 18 41  1  0  0  0  0
 19 21  2  0  0  0  0
 19 42  1  0  0  0  0
 20 51  1  0  0  0  0
 21 43  1  0  0  0  0
 22 23  2  0  0  0  0
 22 61  1  0  0  0  0
 23 31  1  0  0  0  0
 23 55  1  0  0  0  0
 24 30  1  0  0  0  0
 24 31  2  0  0  0  0
 24 71  1  0  0  0  0
 25 81  1  0  0  0  0
 26 82  1  0  0  0  0
 27 29  2  0  0  0  0
 27 81  1  0  0  0  0
 28 83  1  0  0  0  0
 29 84  1  0  0  0  0
 30 85  1  0  0  0  0
 31 86  1  0  0  0  0
 32 65  2  0  0  0  0
 33 66  1  0  0  0  0
 33 69  1  0  0  0  0
 34 35  2  0  0  0  0
 34 52  1  0  0  0  0
 34 74  1  0  0  0  0
 36 70  1  0  0  0  0
 36 76  2  0  0  0  0
 37 53  1  0  0  0  0
 37 72  1  0  0  0  0
 37 77  2  0  0  0  0
 38 62  1  0  0  0  0
 38 67  1  0  0  0  0
 38 78  2  0  0  0  0
 39 63  1  0  0  0  0
 39 73  1  0  0  0  0
 39 79  2  0  0  0  0
 40 68  1  0  0  0  0
 40 71  1  0  0  0  0
 40 80  2  0  0  0  0
 41 44  1  0  0  0  0
 42 53  1  0  0  0  0
 43 67  1  0  0  0  0
 44 46  1  0  0  0  0
 45 47  1  0  0  0  0
 45 48  1  0  0  0  0
 46 51  1  0  0  0  0
 47 54  1  0  0  0  0
 48 68  1  0  0  0  0
 49 54  1  0  0  0  0
 49 68  1  0  0  0  0
 50 52  1  0  0  0  0
 50 74  1  0  0  0  0
 51 72  1  0  0  0  0
 52 82  1  0  0  0  0
 53 67  1  0  0  0  0
 54 66  1  0  0  0  0
 56 63  1  0  0  0  0
 57 64  1  0  0  0  0
 58 64  1  0  0  0  0
 59 64  1  0  0  0  0
 60 75  1  0  0  0  0
 61 74  1  0  0  0  0
 62 64  1  0  0  0  0
 62 73  1  0  0  0  0
 63 75  1  0  0  0  0
 65 66  1  0  0  0  0
M  CHG  2  74   1  75   1
M  ISO  4  40 100  52 101  71 100  82 101
M  END
> <Batch ID>
0035

> <Smiles>
C=C1N(Cc2cc(Cl)c([100NH:0][100C:0](=O)N3CCCC(n4nc(-c5ccc(Oc6ccc(F)cc6F)cc5)c(C(N)=O)c4N)C3)c(Cl)c2C)C[101CH:1]1[101O:1]c1ccc2c(c1)CN(C(=O)C(NC(=O)C(C)NC)C(C)(C)C)C(C(=O)NC1CCCc3ccccc31)C2

> <Shape>
0.353

> <Color>
0.126

> <Negative vol penalty>
0.000

$$$$

  -OEChem-04042321513D

 87 96  0     1  0  0  0  0  0999 V2000
  -18.5032  -33.2815   22.9873 C   0  0  0  0  0  0  0  0  0  0  0  0
  -19.8699  -33.2789   23.2471 C   0  0  0  0  0  0  0  0  0  0  0  0
  -24.1816   -9.3670   21.0978 C   0  0  0  0  0  0  0  0  0  0  0  0
  -25.4487  -10.0697   23.0311 C   0  0  0  0  0  0  0  0  0  0  0  0
  -17.8060  -32.0762   22.9162 C   0  0  0  0  0  0  0  0  0  0  0  0
  -20.5401  -32.0709   23.4369 C   0  0  0  0  0  0  0  0  0  0  0  0
  -26.7453  -29.1519   19.6950 C   0  0  0  0  0  0  0  0  0  0  0  0
  -24.0163   -8.1036   21.6654 C   0  0  0  0  0  0  0  0  0  0  0  0
  -25.2833   -8.8063   23.5988 C   0  0  0  0  0  0  0  0  0  0  0  0
  -27.7401  -28.4613   19.0025 C   0  0  0  0  0  0  0  0  0  0  0  0
  -22.0654   -6.6690   24.0253 C   0  0  0  0  0  0  0  0  0  0  0  0
  -20.7938   -6.0980   23.9768 C   0  0  0  0  0  0  0  0  0  0  0  0
  -26.7649  -26.3549   19.6807 C   0  0  0  0  0  0  0  0  0  0  0  0
  -26.3902  -21.0294   17.2537 C   0  0  0  0  0  0  0  0  0  0  0  0
  -28.1314  -20.6045   18.8738 C   0  0  0  0  0  0  0  0  0  0  0  0
  -21.6784   -4.2346   22.7188 C   0  0  0  0  0  0  0  0  0  0  0  0
  -24.8979  -10.3500   21.7807 C   0  0  0  0  0  0  0  0  0  0  0  0
  -24.0573  -12.5620   20.8276 C   0  0  0  0  0  0  0  0  0  0  0  0
  -18.4698  -30.8523   23.0957 C   0  0  0  0  0  0  0  0  0  0  0  0
  -25.7464  -28.4458   20.3710 C   0  0  0  0  0  0  0  0  0  0  0  0
  -19.8509  -30.8481   23.3694 C   0  0  0  0  0  0  0  0  0  0  0  0
  -25.7587  -27.0413   20.3657 C   0  0  0  0  0  0  0  0  0  0  0  0
  -27.7272  -21.1177   17.6413 C   0  0  0  0  0  0  0  0  0  0  0  0
  -25.4573  -20.4280   18.0986 C   0  0  0  0  0  0  0  0  0  0  0  0
  -27.1985  -20.0031   19.7187 C   0  0  0  0  0  0  0  0  0  0  0  0
  -25.8615  -19.9149   19.3310 C   0  0  0  0  0  0  0  0  0  0  0  0
  -24.5671   -7.8233   22.9159 C   0  0  0  0  0  0  0  0  0  0  0  0
  -27.7500  -27.0663   18.9956 C   0  0  0  0  0  0  0  0  0  0  0  0
  -23.1436   -6.0229   23.4205 C   0  0  0  0  0  0  0  0  0  0  0  0
  -20.6002   -4.8808   23.3236 C   0  0  0  0  0  0  0  0  0  0  0  0
  -22.9501   -4.8057   22.7673 C   0  0  0  0  0  0  0  0  0  0  0  0
  -25.0696  -11.6551   21.1946 C   0  0  0  0  0  0  0  0  0  0  0  0
  -24.7337  -13.6454   20.3223 C   0  0  0  0  0  0  0  0  0  0  0  0
  -22.6330  -12.4363   20.9339 C   0  0  0  0  0  0  0  0  0  0  0  0
  -22.6404  -28.5981   22.4699 C   0  0  0  0  0  0  0  0  0  0  0  0
  -22.2376  -26.3285   20.4458 C   0  0  0  0  0  0  0  0  0  0  0  0
  -22.0172  -24.1986   17.7902 C   0  0  0  0  0  0  0  0  0  0  0  0
  -28.8954  -17.3523   20.6120 C   0  0  0  0  0  0  0  0  0  0  0  0
  -17.6650  -29.5774   23.0565 C   0  0  0  0  0  0  0  0  0  0  0  0
  -24.6907  -29.1479   21.1811 C   0  0  0  0  0  0  0  0  0  0  0  0
  -24.6840  -26.3235   21.1356 C   0  0  0  0  0  0  0  0  0  0  0  0
  -18.5194  -28.3224   22.8979 C   0  0  0  0  0  0  0  0  0  0  0  0
  -29.6112  -14.2068   19.1055 C   0  0  0  0  0  0  0  0  0  0  0  0
  -28.5918  -25.0689   14.8106 C   0  0  0  0  0  0  0  0  0  0  0  0
  -19.7066  -28.3603   23.8550 C   0  0  0  0  0  0  0  0  0  0  0  0
  -28.4135  -13.3362   19.4896 C   0  0  0  0  0  0  0  0  0  0  0  0
  -28.8882  -26.0291   15.9550 C   0  0  0  0  0  0  0  0  0  0  0  0
  -29.9955  -15.1659   20.2299 C   0  0  0  0  0  0  0  0  0  0  0  0
  -27.6949  -15.1378   21.1134 C   0  0  0  0  0  0  0  0  0  0  0  0
  -29.0449  -23.6521   15.1336 C   0  0  0  0  0  0  0  0  0  0  0  0
  -28.7481  -24.1073   17.5820 C   0  0  0  0  0  0  0  0  0  0  0  0
  -20.6178  -29.5570   23.5564 C   0  0  1  0  0  0  0  0  0  0  0  0
  -23.3284  -28.4321   21.1468 C   0  0  1  0  0  0  0  0  0  0  0  0
  -27.2350  -14.1930   19.9899 C   0  0  2  0  0  0  0  0  0  0  0  0
  -28.2974  -25.5282   17.2693 C   0  0  1  0  0  0  0  0  0  1  0  0
  -24.0319  -20.3452   17.6594 C   0  0  0  0  0  0  0  0  0  0  0  0
  -24.8611  -19.2697   20.2365 C   0  0  0  0  0  0  0  0  0  0  0  0
  -20.4746  -22.5291   16.7269 C   0  0  0  0  0  0  0  0  0  0  0  0
  -22.9459  -24.3004   22.6113 C   0  0  0  0  0  0  0  0  0  0  0  0
  -22.2104  -22.4849   21.0521 C   0  0  0  0  0  0  0  0  0  0  0  0
  -20.5740  -24.2018   21.8248 C   0  0  0  0  0  0  0  0  0  0  0  0
  -21.8596  -25.7660   15.2848 C   0  0  0  0  0  0  0  0  0  0  0  0
  -27.6569  -19.4613   21.0333 C   0  0  0  0  0  0  0  0  0  0  0  0
  -28.7305  -21.7652   16.7329 C   0  0  0  0  0  0  0  0  0  0  0  0
  -22.3601  -24.8534   20.1583 C   0  0  1  0  0  0  0  0  0  0  0  0
  -20.9229  -23.9819   16.7606 C   0  0  2  0  0  0  0  0  0  0  0  0
  -22.0429  -23.9786   21.4038 C   0  0  0  0  0  0  0  0  0  0  0  0
  -26.2957  -12.1217   20.9438 N   0  0  0  0  0  0  0  0  0  0  0  0
  -26.0583  -13.3336   20.4136 N   0  0  0  0  0  0  0  0  0  0  0  0
  -23.3853  -26.9788   20.9154 N   0  0  0  0  0  0  0  0  0  0  0  0
  -28.8340  -15.9497   20.6573 N   0  0  0  0  0  0  0  0  0  0  0  0
  -24.3186  -14.8247   19.8132 N   0  0  0  0  0  0  0  0  0  0  0  0
  -22.0092  -12.8778   22.1088 N   0  0  0  0  0  0  0  0  0  0  0  0
  -21.4444  -29.2867   22.3996 N   0  0  0  0  0  0  0  0  0  0  0  0
  -21.5023  -24.5891   19.0082 N   0  0  0  0  0  0  0  0  0  0  0  0
  -27.7492  -18.0183   21.0286 N   0  0  0  0  0  0  0  0  0  0  0  0
  -28.4070  -23.2015   16.4262 N   0  3  2  0  0  0  0  0  0  0  0  0
  -21.4086  -24.3554   15.4021 N   0  3  0  0  0  0  0  0  0  0  0  0
  -21.9361  -11.9320   20.0210 O   0  0  0  0  0  0  0  0  0  0  0  0
  -23.1550  -28.1346   23.4808 O   0  0  0  0  0  0  0  0  0  0  0  0
  -21.1536  -26.8902   20.2652 O   0  0  0  0  0  0  0  0  0  0  0  0
  -23.2092  -24.0340   17.5401 O   0  0  0  0  0  0  0  0  0  0  0  0
  -29.8954  -17.9655   20.2237 O   0  0  0  0  0  0  0  0  0  0  0  0
  -24.4057   -6.5907   23.4701 O   0  0  0  0  0  0  0  0  0  0  0  0
  -28.7215  -26.3984   18.3138 O   0  0  0  0  0  0  0  0  0  1  0  0
  -19.3792   -4.3318   23.2785 F   0  0  0  0  0  0  0  0  0  0  0  0
  -23.9822   -4.1797   22.1854 F   0  0  0  0  0  0  0  0  0  0  0  0
  1  2  1  0  0  0  0
  1  5  2  0  0  0  0
  2  6  2  0  0  0  0
  3  8  2  0  0  0  0
  3 17  1  0  0  0  0
  4  9  1  0  0  0  0
  4 17  2  0  0  0  0
  5 19  1  0  0  0  0
  6 21  1  0  0  0  0
  7 10  2  0  0  0  0
  7 20  1  0  0  0  0
  8 27  1  0  0  0  0
  9 27  2  0  0  0  0
 10 28  1  0  0  0  0
 11 12  2  0  0  0  0
 11 29  1  0  0  0  0
 12 30  1  0  0  0  0
 13 22  1  0  0  0  0
 13 28  2  0  0  0  0
 14 23  1  0  0  0  0
 14 24  2  0  0  0  0
 15 23  2  0  0  0  0
 15 25  1  0  0  0  0
 16 30  2  0  0  0  0
 16 31  1  0  0  0  0
 17 32  1  0  0  0  0
 18 32  1  0  0  0  0
 18 33  2  0  0  0  0
 18 34  1  0  0  0  0
 19 21  2  0  0  0  0
 19 39  1  0  0  0  0
 20 22  2  0  0  0  0
 20 40  1  0  0  0  0
 21 52  1  0  0  0  0
 22 41  1  0  0  0  0
 23 64  1  0  0  0  0
 24 26  1  0  0  0  0
 24 56  1  0  0  0  0
 25 26  2  0  0  0  0
 25 63  1  0  0  0  0
 26 57  1  0  0  0  0
 27 84  1  0  0  0  0
 28 85  1  0  0  0  0
 29 31  2  0  0  0  0
 29 84  1  0  0  0  0
 30 86  1  0  0  0  0
 31 87  1  0  0  0  0
 32 68  2  0  0  0  0
 33 69  1  0  0  0  0
 33 72  1  0  0  0  0
 34 73  1  0  0  0  0
 34 79  2  0  0  0  0
 35 53  1  0  0  0  0
 35 74  1  0  0  0  0
 35 80  2  0  0  0  0
 36 65  1  0  0  0  0
 36 70  1  0  0  0  0
 36 81  2  0  0  0  0
 37 66  1  0  0  0  0
 37 75  1  0  0  0  0
 37 82  2  0  0  0  0
 38 71  1  0  0  0  0
 38 76  1  0  0  0  0
 38 83  2  0  0  0  0
 39 42  1  0  0  0  0
 40 53  1  0  0  0  0
 41 70  1  0  0  0  0
 42 45  1  0  0  0  0
 43 46  1  0  0  0  0
 43 48  1  0  0  0  0
 44 47  1  0  0  0  0
 44 50  1  0  0  0  0
 45 52  1  0  0  0  0
 46 54  1  0  0  0  0
 47 55  1  0  0  0  0
 48 71  1  0  0  0  0
 49 54  1  0  0  0  0
 49 71  1  0  0  0  0
 50 77  1  0  0  0  0
 51 55  1  0  0  0  0
 51 77  1  0  0  0  0
 52 74  1  0  0  0  0
 53 70  1  0  0  0  0
 54 69  1  0  0  0  0
 55 85  1  0  0  0  0
 58 66  1  0  0  0  0
 59 67  1  0  0  0  0
 60 67  1  0  0  0  0
 61 67  1  0  0  0  0
 62 78  1  0  0  0  0
 63 76  1  0  0  0  0
 64 77  1  0  0  0  0
 65 67  1  0  0  0  0
 65 75  1  0  0  0  0
 66 78  1  0  0  0  0
 68 69  1  0  0  0  0
M  CHG  2  77   1  78   1
M  ISO  4  38 100  55 101  76 100  85 101
M  END
> <Batch ID>
0035

> <Smiles>
CNC(C)C(=O)NC(C(=O)N1Cc2cc([101O:1][101CH:1]3CCCN(Cc4cc(C)c(C)c(C[100NH:0][100C:0](=O)N5CCCC(n6nc(-c7ccc(Oc8ccc(F)cc8F)cc7)c(C(N)=O)c6N)C5)c4)C3)ccc2CC1C(=O)NC1CCCc2ccccc21)C(C)(C)C

> <Shape>
0.250

> <Color>
0.135

> <Negative vol penalty>
0.000

$$$$

  -OEChem-04042321513D

 83 91  0     1  0  0  0  0  0999 V2000
  -15.7310  -27.3115   22.1797 C   0  0  0  0  0  0  0  0  0  0  0  0
  -16.0232  -26.0336   21.7139 C   0  0  0  0  0  0  0  0  0  0  0  0
  -29.7385  -23.6581   18.7782 C   0  0  0  0  0  0  0  0  0  0  0  0
  -29.0243  -23.6499   21.0863 C   0  0  0  0  0  0  0  0  0  0  0  0
  -16.7645  -28.1675   22.5583 C   0  0  0  0  0  0  0  0  0  0  0  0
  -17.3491  -25.6112   21.6254 C   0  0  0  0  0  0  0  0  0  0  0  0
  -19.4799  -19.9482   22.5722 C   0  0  0  0  0  0  0  0  0  0  0  0
  -22.8256  -10.9397   19.7997 C   0  0  0  0  0  0  0  0  0  0  0  0
  -24.1944  -10.9736   20.0658 C   0  0  0  0  0  0  0  0  0  0  0  0
  -29.4283  -25.0149   18.6871 C   0  0  0  0  0  0  0  0  0  0  0  0
  -28.7141  -25.0067   20.9951 C   0  0  0  0  0  0  0  0  0  0  0  0
  -19.8146  -18.9138   21.6993 C   0  0  0  0  0  0  0  0  0  0  0  0
  -26.2097  -26.9122   19.7589 C   0  0  0  0  0  0  0  0  0  0  0  0
  -24.9952  -27.3369   20.2975 C   0  0  0  0  0  0  0  0  0  0  0  0
  -22.1255  -19.6011   21.7807 C   0  0  0  0  0  0  0  0  0  0  0  0
  -26.1784  -28.8083   21.8049 C   0  0  0  0  0  0  0  0  0  0  0  0
  -29.5365  -22.9755   19.9778 C   0  0  0  0  0  0  0  0  0  0  0  0
  -22.6030  -13.1869   20.6587 C   0  0  0  0  0  0  0  0  0  0  0  0
  -31.0875  -21.0064   20.4517 C   0  0  0  0  0  0  0  0  0  0  0  0
  -18.1033  -27.7519   22.4835 C   0  0  0  0  0  0  0  0  0  0  0  0
  -20.4654  -20.8249   23.0480 C   0  0  0  0  0  0  0  0  0  0  0  0
  -18.4016  -26.4628   22.0021 C   0  0  0  0  0  0  0  0  0  0  0  0
  -21.8011  -20.6442   22.6615 C   0  0  0  0  0  0  0  0  0  0  0  0
  -22.0299  -12.0464   20.0962 C   0  0  0  0  0  0  0  0  0  0  0  0
  -24.7675  -12.1141   20.6284 C   0  0  0  0  0  0  0  0  0  0  0  0
  -23.9718  -13.2207   20.9248 C   0  0  0  0  0  0  0  0  0  0  0  0
  -28.9161  -25.6893   19.7955 C   0  0  0  0  0  0  0  0  0  0  0  0
  -21.1371  -18.7419   21.3012 C   0  0  0  0  0  0  0  0  0  0  0  0
  -27.4086  -27.4355   20.2433 C   0  0  0  0  0  0  0  0  0  0  0  0
  -24.9795  -28.2850   21.3205 C   0  0  0  0  0  0  0  0  0  0  0  0
  -27.3929  -28.3835   21.2663 C   0  0  0  0  0  0  0  0  0  0  0  0
  -29.8562  -21.5738   20.0725 C   0  0  0  0  0  0  0  0  0  0  0  0
  -30.8768  -19.6509   20.3825 C   0  0  0  0  0  0  0  0  0  0  0  0
  -21.7604  -14.3540   20.9688 C   0  0  0  0  0  0  0  0  0  0  0  0
  -21.5217  -15.3794   20.1364 C   0  0  0  0  0  0  0  0  0  0  0  0
  -32.3122  -21.6473   20.8325 C   0  0  0  0  0  0  0  0  0  0  0  0
  -20.9870  -23.9519   22.8168 C   0  0  0  0  0  0  0  0  0  0  0  0
  -23.3934  -23.3096   24.8950 C   0  0  0  0  0  0  0  0  0  0  0  0
  -25.5738  -21.0234   26.1858 C   0  0  0  0  0  0  0  0  0  0  0  0
  -25.9728  -16.4021   20.8841 C   0  0  0  0  0  0  0  0  0  0  0  0
  -19.1888  -28.7292   22.8593 C   0  0  0  0  0  0  0  0  0  0  0  0
  -20.0923  -21.9193   24.0101 C   0  0  0  0  0  0  0  0  0  0  0  0
  -22.8999  -21.5458   23.1599 C   0  0  0  0  0  0  0  0  0  0  0  0
  -20.5473  -28.0719   23.0891 C   0  0  0  0  0  0  0  0  0  0  0  0
  -28.2520  -16.3822   18.0730 C   0  0  0  0  0  0  0  0  0  0  0  0
  -20.8617  -27.0891   21.9657 C   0  0  0  0  0  0  0  0  0  0  0  0
  -29.0415  -17.6704   18.3125 C   0  0  0  0  0  0  0  0  0  0  0  0
  -26.7843  -16.5547   18.4529 C   0  0  0  0  0  0  0  0  0  0  0  0
  -27.3483  -18.3058   20.0927 C   0  0  0  0  0  0  0  0  0  0  0  0
  -19.8260  -25.9594   21.9151 C   0  0  1  0  0  0  0  0  0  0  0  0
  -21.0961  -23.0680   24.0269 C   0  0  1  0  0  0  0  0  0  0  0  0
  -28.8445  -18.1895   19.7491 C   0  0  2  0  0  0  0  0  0  0  0  0
  -20.5671  -11.9691   19.7954 C   0  0  0  0  0  0  0  0  0  0  0  0
  -26.2356  -12.1227   20.9054 C   0  0  0  0  0  0  0  0  0  0  0  0
  -27.4452  -20.8034   27.8432 C   0  0  0  0  0  0  0  0  0  0  0  0
  -25.2822  -24.6998   22.9432 C   0  0  0  0  0  0  0  0  0  0  0  0
  -27.2003  -23.6353   24.1497 C   0  0  0  0  0  0  0  0  0  0  0  0
  -25.7003  -25.2246   25.3524 C   0  0  0  0  0  0  0  0  0  0  0  0
  -24.0766  -19.0355   27.7876 C   0  0  0  0  0  0  0  0  0  0  0  0
  -24.6021  -14.4371   21.5300 C   0  0  0  0  0  0  0  0  0  0  0  0
  -20.6685  -16.5516   20.5018 C   0  0  0  0  0  0  0  0  0  1  0  0
  -24.8457  -22.9197   24.7616 C   0  0  1  0  0  0  0  0  0  0  0  0
  -25.9461  -20.6832   27.6177 C   0  0  2  0  0  0  0  0  0  0  0  0
  -25.7363  -24.1039   24.2906 C   0  0  0  0  0  0  0  0  0  0  0  0
  -28.9318  -20.6540   19.7837 N   0  0  0  0  0  0  0  0  0  0  0  0
  -29.5826  -19.4949   19.9814 N   0  0  0  0  0  0  0  0  0  0  0  0
  -22.4837  -22.6050   24.0938 N   0  0  0  0  0  0  0  0  0  0  0  0
  -26.6659  -17.0328   19.8376 N   0  0  0  0  0  0  0  0  0  0  0  0
  -31.6741  -18.5892   20.6262 N   0  0  0  0  0  0  0  0  0  0  0  0
  -32.3558  -23.0481   20.8502 N   0  0  0  0  0  0  0  0  0  0  0  0
  -20.0850  -24.9893   22.9573 N   0  0  0  0  0  0  0  0  0  0  0  0
  -25.2361  -22.3532   26.0481 N   0  0  0  0  0  0  0  0  0  0  0  0
  -25.3482  -15.2045   20.5577 N   0  0  0  0  0  0  0  0  0  0  0  0
  -25.5321  -19.2891   27.9432 N   0  3  0  0  0  0  0  0  0  0  0  0
  -33.3423  -20.9972   21.1318 O   0  0  0  0  0  0  0  0  0  0  0  0
  -21.6716  -23.7116   21.8293 O   0  0  0  0  0  0  0  0  0  0  0  0
  -23.0769  -24.2013   25.6864 O   0  0  0  0  0  0  0  0  0  0  0  0
  -25.5853  -20.1934   25.2794 O   0  0  0  0  0  0  0  0  0  0  0  0
  -25.9190  -16.8690   22.0270 O   0  0  0  0  0  0  0  0  0  0  0  0
  -28.6135  -27.0133   19.7069 O   0  0  0  0  0  0  0  0  0  0  0  0
  -21.4664  -17.7335   20.4488 O   0  0  0  0  0  0  0  0  0  1  0  0
  -23.8131  -28.6939   21.8366 F   0  0  0  0  0  0  0  0  0  0  0  0
  -28.5413  -28.8907   21.7350 F   0  0  0  0  0  0  0  0  0  0  0  0
  1  2  1  0  0  0  0
  1  5  2  0  0  0  0
  2  6  2  0  0  0  0
  3 10  2  0  0  0  0
  3 17  1  0  0  0  0
  4 11  1  0  0  0  0
  4 17  2  0  0  0  0
  5 20  1  0  0  0  0
  6 22  1  0  0  0  0
  7 12  2  0  0  0  0
  7 21  1  0  0  0  0
  8  9  1  0  0  0  0
  8 24  2  0  0  0  0
  9 25  2  0  0  0  0
 10 27  1  0  0  0  0
 11 27  2  0  0  0  0
 12 28  1  0  0  0  0
 13 14  2  0  0  0  0
 13 29  1  0  0  0  0
 14 30  1  0  0  0  0
 15 23  1  0  0  0  0
 15 28  2  0  0  0  0
 16 30  2  0  0  0  0
 16 31  1  0  0  0  0
 17 32  1  0  0  0  0
 18 24  1  0  0  0  0
 18 26  2  0  0  0  0
 18 34  1  0  0  0  0
 19 32  1  0  0  0  0
 19 33  2  0  0  0  0
 19 36  1  0  0  0  0
 20 22  2  0  0  0  0
 20 41  1  0  0  0  0
 21 23  2  0  0  0  0
 21 42  1  0  0  0  0
 22 50  1  0  0  0  0
 23 43  1  0  0  0  0
 24 53  1  0  0  0  0
 25 26  1  0  0  0  0
 25 54  1  0  0  0  0
 26 60  1  0  0  0  0
 27 80  1  0  0  0  0
 28 81  1  0  0  0  0
 29 31  2  0  0  0  0
 29 80  1  0  0  0  0
 30 82  1  0  0  0  0
 31 83  1  0  0  0  0
 32 65  2  0  0  0  0
 33 66  1  0  0  0  0
 33 69  1  0  0  0  0
 34 35  2  0  0  0  0
 35 61  1  0  0  0  0
 36 70  1  0  0  0  0
 36 75  2  0  0  0  0
 37 51  1  0  0  0  0
 37 71  1  0  0  0  0
 37 76  2  0  0  0  0
 38 62  1  0  0  0  0
 38 67  1  0  0  0  0
 38 77  2  0  0  0  0
 39 63  1  0  0  0  0
 39 72  1  0  0  0  0
 39 78  2  0  0  0  0
 40 68  1  0  0  0  0
 40 73  1  0  0  0  0
 40 79  2  0  0  0  0
 41 44  1  0  0  0  0
 42 51  1  0  0  0  0
 43 67  1  0  0  0  0
 44 46  1  0  0  0  0
 45 47  1  0  0  0  0
 45 48  1  0  0  0  0
 46 50  1  0  0  0  0
 47 52  1  0  0  0  0
 48 68  1  0  0  0  0
 49 52  1  0  0  0  0
 49 68  1  0  0  0  0
 50 71  1  0  0  0  0
 51 67  1  0  0  0  0
 52 66  1  0  0  0  0
 55 63  1  0  0  0  0
 56 64  1  0  0  0  0
 57 64  1  0  0  0  0
 58 64  1  0  0  0  0
 59 74  1  0  0  0  0
 60 73  1  0  0  0  0
 61 81  1  0  0  0  0
 62 64  1  0  0  0  0
 62 72  1  0  0  0  0
 63 74  1  0  0  0  0
 65 66  1  0  0  0  0
M  CHG  1  74   1
M  ISO  4  40 100  61 101  73 100  81 101
M  END
> <Batch ID>
0035

> <Smiles>
CNC(C)C(=O)NC(C(=O)N1Cc2cc([101O:1][101CH2:1]C=Cc3c(C)ccc(C)c3C[100NH:0][100C:0](=O)N3CCCC(n4nc(-c5ccc(Oc6ccc(F)cc6F)cc5)c(C(N)=O)c4N)C3)ccc2CC1C(=O)NC1CCCc2ccccc21)C(C)(C)C

> <Shape>
0.215

> <Color>
0.081

> <Negative vol penalty>
0.000

$$$$

  -OEChem-04042321513D

 81 89  0     1  0  0  0  0  0999 V2000
  -28.7813  -32.5329   26.4888 C   0  0  0  0  0  0  0  0  0  0  0  0
  -29.1923  -31.2053   26.5518 C   0  0  0  0  0  0  0  0  0  0  0  0
  -23.0686   -9.8815   19.9415 C   0  0  0  0  0  0  0  0  0  0  0  0
  -23.8342   -9.8787   22.2330 C   0  0  0  0  0  0  0  0  0  0  0  0
  -27.4263  -32.8368   26.3639 C   0  0  0  0  0  0  0  0  0  0  0  0
  -28.2483  -30.1808   26.4911 C   0  0  0  0  0  0  0  0  0  0  0  0
  -28.9437  -24.6842   23.8815 C   0  0  0  0  0  0  0  0  0  0  0  0
  -32.0776  -16.5777   22.5352 C   0  0  0  0  0  0  0  0  0  0  0  0
  -22.3230   -8.7289   20.1892 C   0  0  0  0  0  0  0  0  0  0  0  0
  -23.0885   -8.7261   22.4807 C   0  0  0  0  0  0  0  0  0  0  0  0
  -29.2562  -23.4303   24.4047 C   0  0  0  0  0  0  0  0  0  0  0  0
  -19.3768   -7.9331   21.6449 C   0  0  0  0  0  0  0  0  0  0  0  0
  -18.0686   -7.8912   21.1627 C   0  0  0  0  0  0  0  0  0  0  0  0
  -32.6913  -17.4502   23.4339 C   0  0  0  0  0  0  0  0  0  0  0  0
  -26.9071  -22.8888   24.4941 C   0  0  0  0  0  0  0  0  0  0  0  0
  -18.6211   -5.9518   19.8321 C   0  0  0  0  0  0  0  0  0  0  0  0
  -23.8242  -10.4563   20.9634 C   0  0  0  0  0  0  0  0  0  0  0  0
  -30.5289  -18.3290   24.0574 C   0  0  0  0  0  0  0  0  0  0  0  0
  -24.1709  -12.9812   20.8516 C   0  0  0  0  0  0  0  0  0  0  0  0
  -26.4661  -31.8153   26.2919 C   0  0  0  0  0  0  0  0  0  0  0  0
  -27.6077  -25.0546   23.6705 C   0  0  0  0  0  0  0  0  0  0  0  0
  -26.8791  -30.4713   26.3665 C   0  0  0  0  0  0  0  0  0  0  0  0
  -26.5804  -24.1471   23.9657 C   0  0  0  0  0  0  0  0  0  0  0  0
  -29.9152  -17.4565   23.1586 C   0  0  0  0  0  0  0  0  0  0  0  0
  -30.6896  -16.5809   22.3975 C   0  0  0  0  0  0  0  0  0  0  0  0
  -22.3329   -8.1513   21.4588 C   0  0  0  0  0  0  0  0  0  0  0  0
  -28.2377  -22.5334   24.7137 C   0  0  0  0  0  0  0  0  0  0  0  0
  -20.3072   -6.9843   21.2206 C   0  0  0  0  0  0  0  0  0  0  0  0
  -17.6907   -6.9006   20.2564 C   0  0  0  0  0  0  0  0  0  0  0  0
  -19.9293   -5.9937   20.3143 C   0  0  0  0  0  0  0  0  0  0  0  0
  -31.9170  -18.3259   24.1950 C   0  0  0  0  0  0  0  0  0  0  0  0
  -24.5951  -11.6466   20.7081 C   0  0  0  0  0  0  0  0  0  0  0  0
  -25.2636  -13.7298   20.4883 C   0  0  0  0  0  0  0  0  0  0  0  0
  -29.6954  -19.2453   24.8539 C   0  0  0  0  0  0  0  0  0  0  0  0
  -29.3209  -20.4741   24.4765 C   0  0  0  0  0  0  0  0  0  1  0  0
  -22.9025  -13.4980   21.2755 C   0  0  0  0  0  0  0  0  0  0  0  0
  -25.7057  -27.3339   24.8067 C   0  0  0  0  0  0  0  0  0  0  0  0
  -23.6384  -26.1701   22.5945 C   0  0  0  0  0  0  0  0  0  0  0  0
  -22.6489  -23.5440   20.6526 C   0  0  0  0  0  0  0  0  0  0  0  0
  -30.7323  -14.7637   20.6533 C   0  0  0  0  0  0  0  0  0  0  0  0
  -25.0088  -32.1937   26.2047 C   0  0  0  0  0  0  0  0  0  0  0  0
  -27.2886  -26.4009   23.0804 C   0  0  0  0  0  0  0  0  0  0  0  0
  -25.1312  -24.4886   23.7388 C   0  0  0  0  0  0  0  0  0  0  0  0
  -24.1055  -31.0424   25.7701 C   0  0  0  0  0  0  0  0  0  0  0  0
  -29.6072  -12.3607   18.2791 C   0  0  0  0  0  0  0  0  0  0  0  0
  -24.4444  -29.7749   26.5481 C   0  0  0  0  0  0  0  0  0  0  0  0
  -28.1680  -12.0705   18.7112 C   0  0  0  0  0  0  0  0  0  0  0  0
  -30.5257  -12.5833   19.4793 C   0  0  0  0  0  0  0  0  0  0  0  0
  -28.6237  -13.3066   20.8679 C   0  0  0  0  0  0  0  0  0  0  0  0
  -25.8875  -29.3315   26.2789 C   0  0  1  0  0  0  0  0  0  0  0  0
  -25.8688  -26.8667   23.3880 C   0  0  1  0  0  0  0  0  0  0  0  0
  -27.6476  -13.1396   19.6918 C   0  0  2  0  0  0  0  0  0  0  0  0
  -28.4247  -17.4500   22.9990 C   0  0  0  0  0  0  0  0  0  0  0  0
  -20.9035  -22.8819   18.9754 C   0  0  0  0  0  0  0  0  0  0  0  0
  -21.5932  -25.8815   24.8403 C   0  0  0  0  0  0  0  0  0  0  0  0
  -20.2658  -24.3760   23.3438 C   0  0  0  0  0  0  0  0  0  0  0  0
  -20.6628  -26.7496   22.6874 C   0  0  0  0  0  0  0  0  0  0  0  0
  -24.6816  -23.0517   18.5586 C   0  0  0  0  0  0  0  0  0  0  0  0
  -22.5749  -25.0987   22.5843 C   0  0  1  0  0  0  0  0  0  0  0  0
  -22.2963  -23.4578   19.1785 C   0  0  2  0  0  0  0  0  0  0  0  0
  -21.3013  -25.5204   23.3702 C   0  0  0  0  0  0  0  0  0  0  0  0
  -25.8587  -11.5497   20.2863 N   0  0  0  0  0  0  0  0  0  0  0  0
  -26.2379  -12.8329   20.1617 N   0  0  0  0  0  0  0  0  0  0  0  0
  -24.8698  -25.8194   23.1659 N   0  0  0  0  0  0  0  0  0  0  0  0
  -29.9710  -13.6121   20.3617 N   0  0  0  0  0  0  0  0  0  0  0  0
  -25.4766  -15.0611   20.4196 N   0  0  0  0  0  0  0  0  0  0  0  0
  -21.8895  -12.5897   21.6121 N   0  0  0  0  0  0  0  0  0  0  0  0
  -30.0889  -15.6871   21.4766 N   0  0  0  0  0  0  0  0  0  0  0  0
  -25.9828  -28.6749   24.9928 N   0  0  0  0  0  0  0  0  0  0  0  0
  -22.3327  -24.7773   21.1821 N   0  0  0  0  0  0  0  0  0  0  0  0
  -23.2730  -22.5895   18.4622 N   0  3  0  0  0  0  0  0  0  0  0  0
  -22.6688  -14.7289   21.3379 O   0  0  0  0  0  0  0  0  0  0  0  0
  -25.3532  -26.5372   25.6685 O   0  0  0  0  0  0  0  0  0  0  0  0
  -23.3882  -27.2752   22.1067 O   0  0  0  0  0  0  0  0  0  0  0  0
  -23.1508  -22.6094   21.2731 O   0  0  0  0  0  0  0  0  0  0  0  0
  -31.8606  -14.9318   20.1834 O   0  0  0  0  0  0  0  0  0  0  0  0
  -21.6053   -7.0267   21.7008 O   0  0  0  0  0  0  0  0  0  0  0  0
  -28.5399  -21.3091   25.2251 O   0  0  0  0  0  0  0  0  0  1  0  0
  -16.4340   -6.8596   19.7946 F   0  0  0  0  0  0  0  0  0  0  0  0
  -20.8184   -5.0788   19.9040 F   0  0  0  0  0  0  0  0  0  0  0  0
  -32.7357  -19.3817   25.2942 Cl  0  0  0  0  0  0  0  0  0  0  0  0
  1  2  1  0  0  0  0
  1  5  2  0  0  0  0
  2  6  2  0  0  0  0
  3  9  2  0  0  0  0
  3 17  1  0  0  0  0
  4 10  1  0  0  0  0
  4 17  2  0  0  0  0
  5 20  1  0  0  0  0
  6 22  1  0  0  0  0
  7 11  2  0  0  0  0
  7 21  1  0  0  0  0
  8 14  1  0  0  0  0
  8 25  2  0  0  0  0
  9 26  1  0  0  0  0
 10 26  2  0  0  0  0
 11 27  1  0  0  0  0
 12 13  2  0  0  0  0
 12 28  1  0  0  0  0
 13 29  1  0  0  0  0
 14 31  2  0  0  0  0
 15 23  1  0  0  0  0
 15 27  2  0  0  0  0
 16 29  2  0  0  0  0
 16 30  1  0  0  0  0
 17 32  1  0  0  0  0
 18 24  2  0  0  0  0
 18 31  1  0  0  0  0
 18 34  1  0  0  0  0
 19 32  1  0  0  0  0
 19 33  2  0  0  0  0
 19 36  1  0  0  0  0
 20 22  2  0  0  0  0
 20 41  1  0  0  0  0
 21 23  2  0  0  0  0
 21 42  1  0  0  0  0
 22 50  1  0  0  0  0
 23 43  1  0  0  0  0
 24 25  1  0  0  0  0
 24 53  1  0  0  0  0
 25 68  1  0  0  0  0
 26 77  1  0  0  0  0
 27 78  1  0  0  0  0
 28 30  2  0  0  0  0
 28 77  1  0  0  0  0
 29 79  1  0  0  0  0
 30 80  1  0  0  0  0
 31 81  1  0  0  0  0
 32 62  2  0  0  0  0
 33 63  1  0  0  0  0
 33 66  1  0  0  0  0
 34 35  2  0  0  0  0
 35 78  1  0  0  0  0
 36 67  1  0  0  0  0
 36 72  2  0  0  0  0
 37 51  1  0  0  0  0
 37 69  1  0  0  0  0
 37 73  2  0  0  0  0
 38 59  1  0  0  0  0
 38 64  1  0  0  0  0
 38 74  2  0  0  0  0
 39 60  1  0  0  0  0
 39 70  1  0  0  0  0
 39 75  2  0  0  0  0
 40 65  1  0  0  0  0
 40 68  1  0  0  0  0
 40 76  2  0  0  0  0
 41 44  1  0  0  0  0
 42 51  1  0  0  0  0
 43 64  1  0  0  0  0
 44 46  1  0  0  0  0
 45 47  1  0  0  0  0
 45 48  1  0  0  0  0
 46 50  1  0  0  0  0
 47 52  1  0  0  0  0
 48 65  1  0  0  0  0
 49 52  1  0  0  0  0
 49 65  1  0  0  0  0
 50 69  1  0  0  0  0
 51 64  1  0  0  0  0
 52 63  1  0  0  0  0
 54 60  1  0  0  0  0
 55 61  1  0  0  0  0
 56 61  1  0  0  0  0
 57 61  1  0  0  0  0
 58 71  1  0  0  0  0
 59 61  1  0  0  0  0
 59 70  1  0  0  0  0
 60 71  1  0  0  0  0
 62 63  1  0  0  0  0
M  CHG  1  71   1
M  ISO  4  35 101  40 100  68 100  78 101
M  END
> <Batch ID>
0035

> <Smiles>
CNC(C)C(=O)NC(C(=O)N1Cc2cc([101O:1][101CH:1]=Cc3c(Cl)ccc([100NH:0][100C:0](=O)N4CCCC(n5nc(-c6ccc(Oc7ccc(F)cc7F)cc6)c(C(N)=O)c5N)C4)c3C)ccc2CC1C(=O)NC1CCCc2ccccc21)C(C)(C)C

> <Shape>
0.214

> <Color>
0.200

> <Negative vol penalty>
0.000

$$$$

  -OEChem-04042321513D

 87 96  0     1  0  0  0  0  0999 V2000
  -22.5187  -12.8030   19.5616 C   0  0  0  0  0  0  0  0  0  0  0  0
  -22.4800  -13.9509   18.7782 C   0  0  0  0  0  0  0  0  0  0  0  0
  -28.5554  -17.5080   19.6925 C   0  0  0  0  0  0  0  0  0  0  0  0
  -30.7773  -18.0569   18.9184 C   0  0  0  0  0  0  0  0  0  0  0  0
  -22.1880  -12.8747   20.9131 C   0  0  0  0  0  0  0  0  0  0  0  0
  -22.1221  -15.1730   19.3486 C   0  0  0  0  0  0  0  0  0  0  0  0
  -20.5427  -22.9592   19.6694 C   0  0  0  0  0  0  0  0  0  0  0  0
  -29.0101  -16.2575   20.1109 C   0  0  0  0  0  0  0  0  0  0  0  0
  -31.2320  -16.8063   19.3369 C   0  0  0  0  0  0  0  0  0  0  0  0
  -19.8982  -23.9333   20.4307 C   0  0  0  0  0  0  0  0  0  0  0  0
  -29.7415  -13.2739   18.7011 C   0  0  0  0  0  0  0  0  0  0  0  0
  -28.9582  -12.1627   18.3893 C   0  0  0  0  0  0  0  0  0  0  0  0
  -21.1874  -23.2707   22.3589 C   0  0  0  0  0  0  0  0  0  0  0  0
  -22.8667  -26.9254   19.8938 C   0  0  0  0  0  0  0  0  0  0  0  0
  -25.3182  -27.7783   20.9163 C   0  0  0  0  0  0  0  0  0  0  0  0
  -28.7219  -11.6690   20.7425 C   0  0  0  0  0  0  0  0  0  0  0  0
  -29.4390  -18.4077   19.0961 C   0  0  0  0  0  0  0  0  0  0  0  0
  -27.9644  -19.9644   17.7142 C   0  0  0  0  0  0  0  0  0  0  0  0
  -21.8140  -14.0964   21.4968 C   0  0  0  0  0  0  0  0  0  0  0  0
  -21.5083  -22.1249   20.2509 C   0  0  0  0  0  0  0  0  0  0  0  0
  -21.8081  -15.2703   20.7162 C   0  0  0  0  0  0  0  0  0  0  0  0
  -21.8446  -22.2886   21.6022 C   0  0  0  0  0  0  0  0  0  0  0  0
  -24.0375  -26.2469   19.5555 C   0  0  0  0  0  0  0  0  0  0  0  0
  -22.9216  -28.0304   20.7433 C   0  0  0  0  0  0  0  0  0  0  0  0
  -25.2632  -26.6733   20.0668 C   0  0  0  0  0  0  0  0  0  0  0  0
  -30.3484  -15.9067   19.9331 C   0  0  0  0  0  0  0  0  0  0  0  0
  -20.2184  -24.0872   21.7764 C   0  0  0  0  0  0  0  0  0  0  0  0
  -30.0152  -13.5826   20.0336 C   0  0  0  0  0  0  0  0  0  0  0  0
  -28.4484  -11.3603   19.4100 C   0  0  0  0  0  0  0  0  0  0  0  0
  -29.5054  -12.7802   21.0543 C   0  0  0  0  0  0  0  0  0  0  0  0
  -24.1474  -28.4569   21.2545 C   0  0  0  0  0  0  0  0  0  0  0  0
  -28.9699  -19.6994   18.6632 C   0  0  0  0  0  0  0  0  0  0  0  0
  -27.8954  -21.3351   17.6606 C   0  0  0  0  0  0  0  0  0  0  0  0
  -19.9422  -29.1637   22.7578 C   0  0  0  0  0  0  0  0  0  0  0  0
  -20.0298  -30.2473   23.5439 C   0  0  0  0  0  0  0  0  0  0  0  0
  -27.1642  -19.0529   16.9495 C   0  0  0  0  0  0  0  0  0  0  0  0
  -21.7731  -18.9934   20.7276 C   0  0  0  0  0  0  0  0  0  0  0  0
  -24.7411  -19.7959   21.7616 C   0  0  0  0  0  0  0  0  0  0  0  0
  -26.2137  -22.4076   23.7685 C   0  0  0  0  0  0  0  0  0  0  0  0
  -27.7537  -26.3065   20.1642 C   0  0  0  0  0  0  0  0  0  0  0  0
  -21.4735  -14.1184   22.9661 C   0  0  0  0  0  0  0  0  0  0  0  0
  -22.2136  -21.0968   19.4094 C   0  0  0  0  0  0  0  0  0  0  0  0
  -22.8886  -21.4318   22.2690 C   0  0  0  0  0  0  0  0  0  0  0  0
  -18.6400  -28.6606   22.1966 C   0  0  0  0  0  0  0  0  0  0  0  0
  -20.6839  -15.3576   23.3749 C   0  0  0  0  0  0  0  0  0  0  0  0
  -18.4772  -27.1733   22.4862 C   0  0  0  0  0  0  0  0  0  0  0  0
  -30.9604  -24.8658   19.6000 C   0  0  0  0  0  0  0  0  0  0  0  0
  -21.3668  -16.6083   22.8417 C   0  0  0  0  0  0  0  0  0  0  0  0
  -30.6457  -23.4150   19.2279 C   0  0  0  0  0  0  0  0  0  0  0  0
  -30.0093  -25.3955   20.6717 C   0  0  0  0  0  0  0  0  0  0  0  0
  -28.2666  -23.7919   19.9928 C   0  0  0  0  0  0  0  0  0  0  0  0
  -20.9754  -26.9696   22.7722 C   0  0  0  0  0  0  0  0  0  0  0  0
  -21.3922  -16.6049   21.3080 C   0  0  1  0  0  0  0  0  0  0  0  0
  -22.8115  -19.9596   20.2320 C   0  0  1  0  0  0  0  0  0  0  0  0
  -29.1573  -23.2352   18.8701 C   0  0  2  0  0  0  0  0  0  0  0  0
  -19.7325  -26.3908   22.1010 C   0  0  1  0  0  0  0  0  0  1  0  0
  -23.9492  -25.0676   18.6418 C   0  0  0  0  0  0  0  0  0  0  0  0
  -28.5336  -23.3642   23.7543 C   0  0  0  0  0  0  0  0  0  0  0  0
  -25.2823  -17.7589   23.9679 C   0  0  0  0  0  0  0  0  0  0  0  0
  -26.7012  -19.4768   25.1099 C   0  0  0  0  0  0  0  0  0  0  0  0
  -27.3315  -18.6478   22.8431 C   0  0  0  0  0  0  0  0  0  0  0  0
  -25.2013  -25.1601   23.3716 C   0  0  0  0  0  0  0  0  0  0  0  0
  -21.6403  -28.7334   21.0822 C   0  0  0  0  0  0  0  0  0  0  0  0
  -25.3408  -20.1865   23.0908 C   0  0  1  0  0  0  0  0  0  0  0  0
  -27.0995  -23.5393   23.2796 C   0  0  2  0  0  0  0  0  0  0  0  0
  -26.1367  -19.0230   23.7467 C   0  0  0  0  0  0  0  0  0  0  0  0
  -29.5016  -20.8125   19.1755 N   0  0  0  0  0  0  0  0  0  0  0  0
  -28.8277  -21.7901   18.5460 N   0  0  0  0  0  0  0  0  0  0  0  0
  -23.5457  -20.4365   21.4058 N   0  0  0  0  0  0  0  0  0  0  0  0
  -28.6175  -25.1952   20.2620 N   0  0  0  0  0  0  0  0  0  0  0  0
  -27.1288  -22.1835   16.9429 N   0  0  0  0  0  0  0  0  0  0  0  0
  -27.6380  -18.6358   15.6982 N   0  0  0  0  0  0  0  0  0  0  0  0
  -26.4636  -25.9978   19.7341 N   0  0  0  0  0  0  0  0  0  0  0  0
  -22.2258  -17.6933   20.8473 N   0  0  0  0  0  0  0  0  0  0  0  0
  -26.1318  -21.3874   22.8446 N   0  0  0  0  0  0  0  0  0  0  0  0
  -21.1568  -28.4381   22.4751 N   0  3  1  0  0  0  0  0  0  0  0  0
  -26.5940  -24.8475   23.7835 N   0  3  0  0  0  0  0  0  0  0  0  0
  -26.0540  -18.6340   17.3564 O   0  0  0  0  0  0  0  0  0  0  0  0
  -20.6450  -19.3977   20.9838 O   0  0  0  0  0  0  0  0  0  0  0  0
  -25.3159  -18.9586   21.0615 O   0  0  0  0  0  0  0  0  0  0  0  0
  -25.6537  -22.4251   24.8624 O   0  0  0  0  0  0  0  0  0  0  0  0
  -28.1383  -27.4515   20.4154 O   0  0  0  0  0  0  0  0  0  0  0  0
  -30.7924  -14.6866   20.3416 O   0  0  0  0  0  0  0  0  0  0  0  0
  -19.5904  -25.0368   22.5219 O   0  0  0  0  0  0  0  0  0  1  0  0
  -27.6949  -10.2942   19.1105 F   0  0  0  0  0  0  0  0  0  0  0  0
  -29.7638  -13.0724   22.3363 F   0  0  0  0  0  0  0  0  0  0  0  0
  -24.2541  -29.8201   22.3080 Cl  0  0  0  0  0  0  0  0  0  0  0  0
  1  2  1  0  0  0  0
  1  5  2  0  0  0  0
  2  6  2  0  0  0  0
  3  8  2  0  0  0  0
  3 17  1  0  0  0  0
  4  9  1  0  0  0  0
  4 17  2  0  0  0  0
  5 19  1  0  0  0  0
  6 21  1  0  0  0  0
  7 10  2  0  0  0  0
  7 20  1  0  0  0  0
  8 26  1  0  0  0  0
  9 26  2  0  0  0  0
 10 27  1  0  0  0  0
 11 12  2  0  0  0  0
 11 28  1  0  0  0  0
 12 29  1  0  0  0  0
 13 22  1  0  0  0  0
 13 27  2  0  0  0  0
 14 23  2  0  0  0  0
 14 24  1  0  0  0  0
 15 25  2  0  0  0  0
 15 31  1  0  0  0  0
 16 29  2  0  0  0  0
 16 30  1  0  0  0  0
 17 32  1  0  0  0  0
 18 32  1  0  0  0  0
 18 33  2  0  0  0  0
 18 36  1  0  0  0  0
 19 21  2  0  0  0  0
 19 41  1  0  0  0  0
 20 22  2  0  0  0  0
 20 42  1  0  0  0  0
 21 53  1  0  0  0  0
 22 43  1  0  0  0  0
 23 25  1  0  0  0  0
 23 57  1  0  0  0  0
 24 31  2  0  0  0  0
 24 63  1  0  0  0  0
 25 73  1  0  0  0  0
 26 83  1  0  0  0  0
 27 84  1  0  0  0  0
 28 30  2  0  0  0  0
 28 83  1  0  0  0  0
 29 85  1  0  0  0  0
 30 86  1  0  0  0  0
 31 87  1  0  0  0  0
 32 67  2  0  0  0  0
 33 68  1  0  0  0  0
 33 71  1  0  0  0  0
 34 35  2  0  0  0  0
 34 44  1  0  0  0  0
 34 76  1  0  0  0  0
 36 72  1  0  0  0  0
 36 78  2  0  0  0  0
 37 54  1  0  0  0  0
 37 74  1  0  0  0  0
 37 79  2  0  0  0  0
 38 64  1  0  0  0  0
 38 69  1  0  0  0  0
 38 80  2  0  0  0  0
 39 65  1  0  0  0  0
 39 75  1  0  0  0  0
 39 81  2  0  0  0  0
 40 70  1  0  0  0  0
 40 73  1  0  0  0  0
 40 82  2  0  0  0  0
 41 45  1  0  0  0  0
 42 54  1  0  0  0  0
 43 69  1  0  0  0  0
 44 46  1  0  0  0  0
 45 48  1  0  0  0  0
 46 56  1  0  0  0  0
 47 49  1  0  0  0  0
 47 50  1  0  0  0  0
 48 53  1  0  0  0  0
 49 55  1  0  0  0  0
 50 70  1  0  0  0  0
 51 55  1  0  0  0  0
 51 70  1  0  0  0  0
 52 56  1  0  0  0  0
 52 76  1  0  0  0  0
 53 74  1  0  0  0  0
 54 69  1  0  0  0  0
 55 68  1  0  0  0  0
 56 84  1  0  0  0  0
 58 65  1  0  0  0  0
 59 66  1  0  0  0  0
 60 66  1  0  0  0  0
 61 66  1  0  0  0  0
 62 77  1  0  0  0  0
 63 76  1  0  0  0  0
 64 66  1  0  0  0  0
 64 75  1  0  0  0  0
 65 77  1  0  0  0  0
 67 68  1  0  0  0  0
M  CHG  2  76   1  77   1
M  ISO  4  40 100  56 101  73 100  84 101
M  END
> <Batch ID>
0035

> <Smiles>
C=C1CC[101CH:1]([101O:1]c2ccc3c(c2)CN(C(=O)C(NC(=O)C(C)NC)C(C)(C)C)C(C(=O)NC2CCCc4ccccc42)C3)CN1Cc1cc(C)c([100NH:0][100C:0](=O)N2CCCC(n3nc(-c4ccc(Oc5ccc(F)cc5F)cc4)c(C(N)=O)c3N)C2)cc1Cl

> <Shape>
0.212

> <Color>
0.062

> <Negative vol penalty>
0.000

$$$$

  -OEChem-04042321513D

 90 99  0     1  0  0  0  0  0999 V2000
  -21.4602  -31.9924   24.9005 C   0  0  0  0  0  0  0  0  0  0  0  0
  -21.5118  -31.7861   23.5256 C   0  0  0  0  0  0  0  0  0  0  0  0
  -23.0389  -10.9082   22.4436 C   0  0  0  0  0  0  0  0  0  0  0  0
  -23.6704   -9.5045   20.5814 C   0  0  0  0  0  0  0  0  0  0  0  0
  -22.6413  -32.0706   25.6373 C   0  0  0  0  0  0  0  0  0  0  0  0
  -22.7446  -31.6590   22.8866 C   0  0  0  0  0  0  0  0  0  0  0  0
  -24.3887  -25.7260   19.1465 C   0  0  0  0  0  0  0  0  0  0  0  0
  -27.5418  -20.5647   21.8475 C   0  0  0  0  0  0  0  0  0  0  0  0
  -28.0554  -19.7275   22.8380 C   0  0  0  0  0  0  0  0  0  0  0  0
  -22.2848   -9.8626   22.9761 C   0  0  0  0  0  0  0  0  0  0  0  0
  -22.9163   -8.4588   21.1139 C   0  0  0  0  0  0  0  0  0  0  0  0
  -24.6956  -24.7130   18.2378 C   0  0  0  0  0  0  0  0  0  0  0  0
  -23.2468   -6.1413   23.5512 C   0  0  0  0  0  0  0  0  0  0  0  0
  -23.8248   -4.8720   23.5710 C   0  0  0  0  0  0  0  0  0  0  0  0
  -26.8758  -25.6916   17.8671 C   0  0  0  0  0  0  0  0  0  0  0  0
  -28.8902  -19.4336   20.1924 C   0  0  0  0  0  0  0  0  0  0  0  0
  -22.0298   -4.0330   22.1886 C   0  0  0  0  0  0  0  0  0  0  0  0
  -23.7316  -10.7292   21.2462 C   0  0  0  0  0  0  0  0  0  0  0  0
  -24.0460  -13.0801   20.3069 C   0  0  0  0  0  0  0  0  0  0  0  0
  -23.8890  -31.9347   25.0084 C   0  0  0  0  0  0  0  0  0  0  0  0
  -25.3311  -26.7182   19.4308 C   0  0  0  0  0  0  0  0  0  0  0  0
  -23.9436  -31.7368   23.6155 C   0  0  0  0  0  0  0  0  0  0  0  0
  -26.5786  -26.7017   18.7858 C   0  0  0  0  0  0  0  0  0  0  0  0
  -27.9592  -20.4177   20.5247 C   0  0  0  0  0  0  0  0  0  0  0  0
  -28.9864  -18.7434   22.5057 C   0  0  0  0  0  0  0  0  0  0  0  0
  -29.4038  -18.5965   21.1828 C   0  0  0  0  0  0  0  0  0  0  0  0
  -22.2235   -8.6379   22.3113 C   0  0  0  0  0  0  0  0  0  0  0  0
  -25.9360  -24.6960   17.5995 C   0  0  0  0  0  0  0  0  0  0  0  0
  -22.0602   -6.3564   22.8502 C   0  0  0  0  0  0  0  0  0  0  0  0
  -23.2164   -3.8179   22.8897 C   0  0  0  0  0  0  0  0  0  0  0  0
  -21.4517   -5.3023   22.1688 C   0  0  0  0  0  0  0  0  0  0  0  0
  -24.5103  -11.8091   20.6953 C   0  0  0  0  0  0  0  0  0  0  0  0
  -25.1667  -13.7310   19.8524 C   0  0  0  0  0  0  0  0  0  0  0  0
  -26.6647  -21.3717   17.1672 C   0  0  0  0  0  0  0  0  0  0  0  0
  -27.6394  -21.1313   16.2716 C   0  0  0  0  0  0  0  0  0  0  0  0
  -22.7200  -13.6237   20.3530 C   0  0  0  0  0  0  0  0  0  0  0  0
  -26.1692  -29.8122   21.3804 C   0  0  0  0  0  0  0  0  0  0  0  0
  -28.6913  -28.0663   21.3522 C   0  0  0  0  0  0  0  0  0  0  0  0
  -31.1144  -25.6668   21.4445 C   0  0  0  0  0  0  0  0  0  0  0  0
  -30.5484  -15.1079   20.3882 C   0  0  0  0  0  0  0  0  0  0  0  0
  -25.1398  -32.0737   25.8395 C   0  0  0  0  0  0  0  0  0  0  0  0
  -25.0206  -27.8631   20.3564 C   0  0  0  0  0  0  0  0  0  0  0  0
  -27.5483  -27.8090   19.0966 C   0  0  0  0  0  0  0  0  0  0  0  0
  -26.3949  -31.5545   25.1427 C   0  0  0  0  0  0  0  0  0  0  0  0
  -23.5878  -20.0727   16.8977 C   0  0  0  0  0  0  0  0  0  0  0  0
  -24.1876  -20.6899   15.6349 C   0  0  0  0  0  0  0  0  0  0  0  0
  -29.8065  -11.9859   18.8456 C   0  0  0  0  0  0  0  0  0  0  0  0
  -24.5750  -19.2829   17.7687 C   0  0  0  0  0  0  0  0  0  0  0  0
  -26.4592  -32.0668   23.7074 C   0  0  0  0  0  0  0  0  0  0  0  0
  -24.6821  -22.1318   15.7707 C   0  0  0  0  0  0  0  0  0  0  0  0
  -28.3266  -11.7638   19.1626 C   0  0  0  0  0  0  0  0  0  0  0  0
  -30.5369  -12.6606   20.0046 C   0  0  0  0  0  0  0  0  0  0  0  0
  -28.4431  -13.6938   20.7937 C   0  0  0  0  0  0  0  0  0  0  0  0
  -25.3177  -20.1023   18.8222 C   0  0  0  0  0  0  0  0  0  0  0  0
  -25.2610  -31.5693   22.8899 C   0  0  1  0  0  0  0  0  0  0  0  0
  -25.6113  -22.4299   16.9502 C   0  0  2  0  0  0  0  0  0  1  0  0
  -26.2407  -28.3281   21.1715 C   0  0  1  0  0  0  0  0  0  0  0  0
  -27.6522  -13.0667   19.6329 C   0  0  2  0  0  0  0  0  0  0  0  0
  -29.5230  -17.8597   23.5834 C   0  0  0  0  0  0  0  0  0  0  0  0
  -28.6929  -20.0968   16.4533 C   0  0  0  0  0  0  0  0  0  0  0  0
  -33.4280  -25.2363   22.3157 C   0  0  0  0  0  0  0  0  0  0  0  0
  -29.8475  -29.8099   19.1326 C   0  0  0  0  0  0  0  0  0  0  0  0
  -32.0303  -28.6209   19.4326 C   0  0  0  0  0  0  0  0  0  0  0  0
  -31.0671  -29.9494   21.3115 C   0  0  0  0  0  0  0  0  0  0  0  0
  -30.1908  -23.4023   23.1114 C   0  0  0  0  0  0  0  0  0  0  0  0
  -30.3998  -17.5501   20.8035 C   0  0  0  0  0  0  0  0  0  0  0  0
  -27.4071  -21.3186   19.4596 C   0  0  0  0  0  0  0  0  0  0  0  0
  -30.0009  -27.7465   20.6769 C   0  0  1  0  0  0  0  0  0  0  0  0
  -31.9379  -25.1101   22.5919 C   0  0  2  0  0  0  0  0  0  0  0  0
  -30.7127  -29.0171   20.1325 C   0  0  0  0  0  0  0  0  0  0  0  0
  -25.8237  -11.6594   20.5040 N   0  0  0  0  0  0  0  0  0  0  0  0
  -26.1942  -12.8448   19.9904 N   0  0  0  0  0  0  0  0  0  0  0  0
  -27.5497  -28.0846   20.5418 N   0  0  0  0  0  0  0  0  0  0  0  0
  -29.8474  -13.8907   20.4013 N   0  0  0  0  0  0  0  0  0  0  0  0
  -25.3637  -14.9693   19.3520 N   0  0  0  0  0  0  0  0  0  0  0  0
  -21.8883  -13.4516   19.2382 N   0  0  0  0  0  0  0  0  0  0  0  0
  -25.4529  -30.1888   22.5006 N   0  0  0  0  0  0  0  0  0  0  0  0
  -30.7864  -26.9907   21.6465 N   0  0  0  0  0  0  0  0  0  0  0  0
  -29.8189  -16.2264   20.7721 N   0  0  0  0  0  0  0  0  0  0  0  0
  -26.6821  -20.5693   18.3686 N   0  3  2  0  0  0  0  0  0  0  0  0
  -31.6200  -23.6701   22.8068 N   0  3  0  0  0  0  0  0  0  0  0  0
  -22.2914  -14.2579   21.3468 O   0  0  0  0  0  0  0  0  0  0  0  0
  -26.7239  -30.5617   20.5853 O   0  0  0  0  0  0  0  0  0  0  0  0
  -28.6788  -28.2994   22.5641 O   0  0  0  0  0  0  0  0  0  0  0  0
  -30.7971  -24.9954   20.4652 O   0  0  0  0  0  0  0  0  0  0  0  0
  -31.7350  -15.1924   20.0536 O   0  0  0  0  0  0  0  0  0  0  0  0
  -21.4879   -7.6173   22.8308 O   0  0  0  0  0  0  0  0  0  0  0  0
  -26.2321  -23.6974   16.7131 O   0  0  0  0  0  0  0  0  0  1  0  0
  -23.7724   -2.5994   22.9076 F   0  0  0  0  0  0  0  0  0  0  0  0
  -20.3124   -5.5031   21.4926 F   0  0  0  0  0  0  0  0  0  0  0  0
  1  2  1  0  0  0  0
  1  5  2  0  0  0  0
  2  6  2  0  0  0  0
  3 10  2  0  0  0  0
  3 18  1  0  0  0  0
  4 11  1  0  0  0  0
  4 18  2  0  0  0  0
  5 20  1  0  0  0  0
  6 22  1  0  0  0  0
  7 12  2  0  0  0  0
  7 21  1  0  0  0  0
  8  9  2  0  0  0  0
  8 24  1  0  0  0  0
  9 25  1  0  0  0  0
 10 27  1  0  0  0  0
 11 27  2  0  0  0  0
 12 28  1  0  0  0  0
 13 14  2  0  0  0  0
 13 29  1  0  0  0  0
 14 30  1  0  0  0  0
 15 23  1  0  0  0  0
 15 28  2  0  0  0  0
 16 24  2  0  0  0  0
 16 26  1  0  0  0  0
 17 30  2  0  0  0  0
 17 31  1  0  0  0  0
 18 32  1  0  0  0  0
 19 32  1  0  0  0  0
 19 33  2  0  0  0  0
 19 36  1  0  0  0  0
 20 22  2  0  0  0  0
 20 41  1  0  0  0  0
 21 23  2  0  0  0  0
 21 42  1  0  0  0  0
 22 55  1  0  0  0  0
 23 43  1  0  0  0  0
 24 67  1  0  0  0  0
 25 26  2  0  0  0  0
 25 59  1  0  0  0  0
 26 66  1  0  0  0  0
 27 87  1  0  0  0  0
 28 88  1  0  0  0  0
 29 31  2  0  0  0  0
 29 87  1  0  0  0  0
 30 89  1  0  0  0  0
 31 90  1  0  0  0  0
 32 71  2  0  0  0  0
 33 72  1  0  0  0  0
 33 75  1  0  0  0  0
 34 35  2  0  0  0  0
 34 56  1  0  0  0  0
 34 80  1  0  0  0  0
 35 60  1  0  0  0  0
 36 76  1  0  0  0  0
 36 82  2  0  0  0  0
 37 57  1  0  0  0  0
 37 77  1  0  0  0  0
 37 83  2  0  0  0  0
 38 68  1  0  0  0  0
 38 73  1  0  0  0  0
 38 84  2  0  0  0  0
 39 69  1  0  0  0  0
 39 78  1  0  0  0  0
 39 85  2  0  0  0  0
 40 74  1  0  0  0  0
 40 79  1  0  0  0  0
 40 86  2  0  0  0  0
 41 44  1  0  0  0  0
 42 57  1  0  0  0  0
 43 73  1  0  0  0  0
 44 49  1  0  0  0  0
 45 46  1  0  0  0  0
 45 48  1  0  0  0  0
 46 50  1  0  0  0  0
 47 51  1  0  0  0  0
 47 52  1  0  0  0  0
 48 54  1  0  0  0  0
 49 55  1  0  0  0  0
 50 56  1  0  0  0  0
 51 58  1  0  0  0  0
 52 74  1  0  0  0  0
 53 58  1  0  0  0  0
 53 74  1  0  0  0  0
 54 80  1  0  0  0  0
 55 77  1  0  0  0  0
 56 88  1  0  0  0  0
 57 73  1  0  0  0  0
 58 72  1  0  0  0  0
 61 69  1  0  0  0  0
 62 70  1  0  0  0  0
 63 70  1  0  0  0  0
 64 70  1  0  0  0  0
 65 81  1  0  0  0  0
 66 79  1  0  0  0  0
 67 80  1  0  0  0  0
 68 70  1  0  0  0  0
 68 78  1  0  0  0  0
 69 81  1  0  0  0  0
 71 72  1  0  0  0  0
M  CHG  2  80   1  81   1
M  ISO  4  40 100  56 101  79 100  88 101
M  END
> <Batch ID>
0035

> <Smiles>
CC=C1N(Cc2ccc(C)c(C[100NH:0][100C:0](=O)N3CCCC(n4nc(-c5ccc(Oc6ccc(F)cc6F)cc5)c(C(N)=O)c4N)C3)c2)CCCCC[101CH:1]1[101O:1]c1ccc2c(c1)CN(C(=O)C(NC(=O)C(C)NC)C(C)(C)C)C(C(=O)NC1CCCc3ccccc31)C2

> <Shape>
0.308

> <Color>
0.127

> <Negative vol penalty>
0.000

$$$$

  -OEChem-04042321513D

 84 92  0     1  0  0  0  0  0999 V2000
  -32.2321  -25.9653   17.7485 C   0  0  0  0  0  0  0  0  0  0  0  0
  -31.0192  -25.7063   18.3788 C   0  0  0  0  0  0  0  0  0  0  0  0
  -24.8789   -8.7295   21.4305 C   0  0  0  0  0  0  0  0  0  0  0  0
  -23.4020   -9.7464   19.8113 C   0  0  0  0  0  0  0  0  0  0  0  0
  -33.0721  -26.9640   18.2393 C   0  0  0  0  0  0  0  0  0  0  0  0
  -30.6462  -26.4451   19.5010 C   0  0  0  0  0  0  0  0  0  0  0  0
  -25.8142  -27.9496   19.3183 C   0  0  0  0  0  0  0  0  0  0  0  0
  -23.9125   -7.7617   21.7043 C   0  0  0  0  0  0  0  0  0  0  0  0
  -22.4355   -8.7785   20.0851 C   0  0  0  0  0  0  0  0  0  0  0  0
  -24.8400  -27.0015   19.6276 C   0  0  0  0  0  0  0  0  0  0  0  0
  -21.0570   -7.5313   23.4980 C   0  0  0  0  0  0  0  0  0  0  0  0
  -20.8078   -7.2257   24.8359 C   0  0  0  0  0  0  0  0  0  0  0  0
  -24.6569  -27.9233   21.8493 C   0  0  0  0  0  0  0  0  0  0  0  0
  -22.0068  -18.7305   18.5377 C   0  0  0  0  0  0  0  0  0  0  0  0
  -23.5994  -19.1654   20.7865 C   0  0  0  0  0  0  0  0  0  0  0  0
  -21.4445   -4.9307   24.4302 C   0  0  0  0  0  0  0  0  0  0  0  0
  -24.6236   -9.7219   20.4840 C   0  0  0  0  0  0  0  0  0  0  0  0
  -26.6395  -10.6570   19.2312 C   0  0  0  0  0  0  0  0  0  0  0  0
  -32.7048  -27.7219   19.3623 C   0  0  0  0  0  0  0  0  0  0  0  0
  -26.2256  -28.8864   20.2773 C   0  0  0  0  0  0  0  0  0  0  0  0
  -31.4827  -27.4539   20.0081 C   0  0  0  0  0  0  0  0  0  0  0  0
  -25.6346  -28.8839   21.5488 C   0  0  0  0  0  0  0  0  0  0  0  0
  -21.7841  -19.8461   19.3448 C   0  0  0  0  0  0  0  0  0  0  0  0
  -23.0258  -17.8323   18.8550 C   0  0  0  0  0  0  0  0  0  0  0  0
  -22.5804  -20.0636   20.4692 C   0  0  0  0  0  0  0  0  0  0  0  0
  -23.8221  -18.0498   19.9794 C   0  0  0  0  0  0  0  0  0  0  0  0
  -22.6908   -7.7862   21.0316 C   0  0  0  0  0  0  0  0  0  0  0  0
  -24.2632  -26.9864   20.8942 C   0  0  0  0  0  0  0  0  0  0  0  0
  -21.4999   -6.5366   22.6261 C   0  0  0  0  0  0  0  0  0  0  0  0
  -21.0015   -5.9254   25.3020 C   0  0  0  0  0  0  0  0  0  0  0  0
  -21.6937   -5.2363   23.0923 C   0  0  0  0  0  0  0  0  0  0  0  0
  -25.6213  -10.7222   20.2012 C   0  0  0  0  0  0  0  0  0  0  0  0
  -27.3143  -11.8462   19.3612 C   0  0  0  0  0  0  0  0  0  0  0  0
  -26.9476   -9.6146   18.2962 C   0  0  0  0  0  0  0  0  0  0  0  0
  -28.9740  -29.5506   21.7295 C   0  0  0  0  0  0  0  0  0  0  0  0
  -27.2848  -32.0429   22.9366 C   0  0  0  0  0  0  0  0  0  0  0  0
  -22.8055  -23.7035   21.3898 C   0  0  0  0  0  0  0  0  0  0  0  0
  -24.2422  -33.3585   23.7481 C   0  0  0  0  0  0  0  0  0  0  0  0
  -25.7337  -17.2347   21.4034 C   0  0  0  0  0  0  0  0  0  0  0  0
  -33.6673  -28.7590   19.8846 C   0  0  0  0  0  0  0  0  0  0  0  0
  -27.2585  -29.9196   19.9193 C   0  0  0  0  0  0  0  0  0  0  0  0
  -26.0267  -29.8809   22.6075 C   0  0  0  0  0  0  0  0  0  0  0  0
  -33.0281  -29.7497   20.8542 C   0  0  0  0  0  0  0  0  0  0  0  0
  -28.3994  -15.2012   22.6017 C   0  0  0  0  0  0  0  0  0  0  0  0
  -32.1787  -29.0144   21.8860 C   0  0  0  0  0  0  0  0  0  0  0  0
  -28.0855  -13.8172   22.0288 C   0  0  0  0  0  0  0  0  0  0  0  0
  -27.1302  -15.9486   23.0068 C   0  0  0  0  0  0  0  0  0  0  0  0
  -25.7925  -14.6633   21.3856 C   0  0  0  0  0  0  0  0  0  0  0  0
  -31.0318  -28.2507   21.2131 C   0  0  1  0  0  0  0  0  0  0  0  0
  -27.9707  -30.4995   21.1375 C   0  0  1  0  0  0  0  0  0  0  0  0
  -27.0357  -13.8982   20.9032 C   0  0  2  0  0  0  0  0  0  0  0  0
  -20.6871  -20.7937   18.9855 C   0  0  0  0  0  0  0  0  0  0  0  0
  -23.2420  -16.6459   17.9726 C   0  0  0  0  0  0  0  0  0  0  0  0
  -23.1832  -35.3995   24.7532 C   0  0  0  0  0  0  0  0  0  0  0  0
  -28.1449  -31.1184   25.7143 C   0  0  0  0  0  0  0  0  0  0  0  0
  -26.3389  -32.5604   26.6773 C   0  0  0  0  0  0  0  0  0  0  0  0
  -28.1986  -33.5957   25.3763 C   0  0  0  0  0  0  0  0  0  0  0  0
  -22.7312  -33.9370   21.2699 C   0  0  0  0  0  0  0  0  0  0  0  0
  -22.3591  -21.2571   21.3528 C   0  0  0  0  0  0  0  0  0  0  0  0
  -23.3931  -24.8030   20.5312 C   0  0  0  0  0  0  0  0  0  1  0  0
  -26.4285  -32.2612   24.1606 C   0  0  1  0  0  0  0  0  0  0  0  0
  -23.6250  -34.7169   23.4680 C   0  0  2  0  0  0  0  0  0  0  0  0
  -27.2715  -32.3638   25.4630 C   0  0  0  0  0  0  0  0  0  0  0  0
  -25.6437  -11.8626   20.8963 N   0  0  0  0  0  0  0  0  0  0  0  0
  -26.6841  -12.5248   20.3624 N   0  0  0  0  0  0  0  0  0  0  0  0
  -27.0454  -30.8672   22.2112 N   0  0  0  0  0  0  0  0  0  0  0  0
  -26.1840  -15.9891   21.8896 N   0  0  0  0  0  0  0  0  0  0  0  0
  -28.3794  -12.3670   18.7157 N   0  0  0  0  0  0  0  0  0  0  0  0
  -26.1531   -8.4601   18.2969 N   0  0  0  0  0  0  0  0  0  0  0  0
  -24.8621  -17.1491   20.3182 N   0  0  0  0  0  0  0  0  0  0  0  0
  -29.9648  -29.1584   20.8497 N   0  0  0  0  0  0  0  0  0  0  0  0
  -22.8561  -22.4736   20.7527 N   0  0  0  0  0  0  0  0  0  0  0  0
  -25.6121  -33.4380   23.8830 N   0  0  0  0  0  0  0  0  0  0  0  0
  -22.4369  -34.5729   22.5799 N   0  3  0  0  0  0  0  0  0  0  0  0
  -27.9094   -9.6975   17.4952 O   0  0  0  0  0  0  0  0  0  0  0  0
  -28.8587  -29.2012   22.8984 O   0  0  0  0  0  0  0  0  0  0  0  0
  -28.1299  -32.8880   22.6313 O   0  0  0  0  0  0  0  0  0  0  0  0
  -22.3464  -23.9090   22.5101 O   0  0  0  0  0  0  0  0  0  0  0  0
  -23.5753  -32.3304   23.8417 O   0  0  0  0  0  0  0  0  0  0  0  0
  -26.1159  -18.2998   21.8947 O   0  0  0  0  0  0  0  0  0  0  0  0
  -21.7476   -6.8418   21.2983 O   0  0  0  0  0  0  0  0  0  0  0  0
  -23.3126  -26.0616   21.1989 O   0  0  0  0  0  0  0  0  0  1  0  0
  -20.7637   -5.6324   26.5872 F   0  0  0  0  0  0  0  0  0  0  0  0
  -22.1202   -4.2768   22.2597 F   0  0  0  0  0  0  0  0  0  0  0  0
  1  2  1  0  0  0  0
  1  5  2  0  0  0  0
  2  6  2  0  0  0  0
  3  8  2  0  0  0  0
  3 17  1  0  0  0  0
  4  9  1  0  0  0  0
  4 17  2  0  0  0  0
  5 19  1  0  0  0  0
  6 21  1  0  0  0  0
  7 10  2  0  0  0  0
  7 20  1  0  0  0  0
  8 27  1  0  0  0  0
  9 27  2  0  0  0  0
 10 28  1  0  0  0  0
 11 12  2  0  0  0  0
 11 29  1  0  0  0  0
 12 30  1  0  0  0  0
 13 22  1  0  0  0  0
 13 28  2  0  0  0  0
 14 23  1  0  0  0  0
 14 24  2  0  0  0  0
 15 25  1  0  0  0  0
 15 26  2  0  0  0  0
 16 30  2  0  0  0  0
 16 31  1  0  0  0  0
 17 32  1  0  0  0  0
 18 32  1  0  0  0  0
 18 33  2  0  0  0  0
 18 34  1  0  0  0  0
 19 21  2  0  0  0  0
 19 40  1  0  0  0  0
 20 22  2  0  0  0  0
 20 41  1  0  0  0  0
 21 49  1  0  0  0  0
 22 42  1  0  0  0  0
 23 25  2  0  0  0  0
 23 52  1  0  0  0  0
 24 26  1  0  0  0  0
 24 53  1  0  0  0  0
 25 59  1  0  0  0  0
 26 70  1  0  0  0  0
 27 81  1  0  0  0  0
 28 82  1  0  0  0  0
 29 31  2  0  0  0  0
 29 81  1  0  0  0  0
 30 83  1  0  0  0  0
 31 84  1  0  0  0  0
 32 64  2  0  0  0  0
 33 65  1  0  0  0  0
 33 68  1  0  0  0  0
 34 69  1  0  0  0  0
 34 75  2  0  0  0  0
 35 50  1  0  0  0  0
 35 71  1  0  0  0  0
 35 76  2  0  0  0  0
 36 61  1  0  0  0  0
 36 66  1  0  0  0  0
 36 77  2  0  0  0  0
 37 60  1  0  0  0  0
 37 72  1  0  0  0  0
 37 78  2  0  0  0  0
 38 62  1  0  0  0  0
 38 73  1  0  0  0  0
 38 79  2  0  0  0  0
 39 67  1  0  0  0  0
 39 70  1  0  0  0  0
 39 80  2  0  0  0  0
 40 43  1  0  0  0  0
 41 50  1  0  0  0  0
 42 66  1  0  0  0  0
 43 45  1  0  0  0  0
 44 46  1  0  0  0  0
 44 47  1  0  0  0  0
 45 49  1  0  0  0  0
 46 51  1  0  0  0  0
 47 67  1  0  0  0  0
 48 51  1  0  0  0  0
 48 67  1  0  0  0  0
 49 71  1  0  0  0  0
 50 66  1  0  0  0  0
 51 65  1  0  0  0  0
 54 62  1  0  0  0  0
 55 63  1  0  0  0  0
 56 63  1  0  0  0  0
 57 63  1  0  0  0  0
 58 74  1  0  0  0  0
 59 72  1  0  0  0  0
 60 82  1  0  0  0  0
 61 63  1  0  0  0  0
 61 73  1  0  0  0  0
 62 74  1  0  0  0  0
 64 65  1  0  0  0  0
M  CHG  1  74   1
M  ISO  4  39 100  60 101  70 100  82 101
M  END
> <Batch ID>
0035

> <Smiles>
CNC(C)C(=O)NC(C(=O)N1Cc2cc([101O:1][101CH2:1]C(=O)NCc3cc([100NH:0][100C:0](=O)N4CCCC(n5nc(-c6ccc(Oc7ccc(F)cc7F)cc6)c(C(N)=O)c5N)C4)c(C)cc3C)ccc2CC1C(=O)NC1CCCc2ccccc21)C(C)(C)C

> <Shape>
0.244

> <Color>
0.096

> <Negative vol penalty>
0.000

$$$$

  -OEChem-04042321513D

 82 90  0     1  0  0  0  0  0999 V2000
  -20.5256  -13.2095   16.6780 C   0  0  0  0  0  0  0  0  0  0  0  0
  -21.5343  -13.6954   17.5038 C   0  0  0  0  0  0  0  0  0  0  0  0
  -23.2005   -9.8513   19.9537 C   0  0  0  0  0  0  0  0  0  0  0  0
  -23.9113   -9.9318   22.2614 C   0  0  0  0  0  0  0  0  0  0  0  0
  -19.8067  -14.0870   15.8674 C   0  0  0  0  0  0  0  0  0  0  0  0
  -21.8254  -15.0590   17.5186 C   0  0  0  0  0  0  0  0  0  0  0  0
  -23.6384  -18.3842   22.3312 C   0  0  0  0  0  0  0  0  0  0  0  0
  -32.1184  -18.8111   21.5819 C   0  0  0  0  0  0  0  0  0  0  0  0
  -32.2329  -17.4632   21.9221 C   0  0  0  0  0  0  0  0  0  0  0  0
  -22.5088   -8.6671   20.2081 C   0  0  0  0  0  0  0  0  0  0  0  0
  -23.2196   -8.7476   22.5158 C   0  0  0  0  0  0  0  0  0  0  0  0
  -24.8954  -18.8138   22.7545 C   0  0  0  0  0  0  0  0  0  0  0  0
  -20.0224   -7.8017   23.0670 C   0  0  0  0  0  0  0  0  0  0  0  0
  -19.2442   -7.7431   24.2231 C   0  0  0  0  0  0  0  0  0  0  0  0
  -24.5342  -20.9318   21.6577 C   0  0  0  0  0  0  0  0  0  0  0  0
  -20.5631   -5.8809   25.0166 C   0  0  0  0  0  0  0  0  0  0  0  0
  -23.9018  -10.4837   20.9803 C   0  0  0  0  0  0  0  0  0  0  0  0
  -29.9843  -18.9146   22.7096 C   0  0  0  0  0  0  0  0  0  0  0  0
  -24.1224  -13.0204   20.8248 C   0  0  0  0  0  0  0  0  0  0  0  0
  -20.0826  -15.4633   15.8795 C   0  0  0  0  0  0  0  0  0  0  0  0
  -22.8230  -19.2226   21.5575 C   0  0  0  0  0  0  0  0  0  0  0  0
  -21.1104  -15.9555   16.7064 C   0  0  0  0  0  0  0  0  0  0  0  0
  -23.2662  -20.5114   21.2280 C   0  0  0  0  0  0  0  0  0  0  0  0
  -30.9941  -19.5368   21.9757 C   0  0  0  0  0  0  0  0  0  0  0  0
  -31.2230  -16.8410   22.6561 C   0  0  0  0  0  0  0  0  0  0  0  0
  -30.0987  -17.5667   23.0499 C   0  0  0  0  0  0  0  0  0  0  0  0
  -22.5183   -8.1152   21.4891 C   0  0  0  0  0  0  0  0  0  0  0  0
  -25.3447  -20.0867   22.4153 C   0  0  0  0  0  0  0  0  0  0  0  0
  -21.0710   -6.8998   22.8857 C   0  0  0  0  0  0  0  0  0  0  0  0
  -19.5145   -6.7827   25.1979 C   0  0  0  0  0  0  0  0  0  0  0  0
  -21.3414   -5.9395   23.8604 C   0  0  0  0  0  0  0  0  0  0  0  0
  -24.6170  -11.7067   20.7181 C   0  0  0  0  0  0  0  0  0  0  0  0
  -25.1840  -13.8168   20.4709 C   0  0  0  0  0  0  0  0  0  0  0  0
  -28.7995  -19.6841   23.1253 C   0  0  0  0  0  0  0  0  0  0  0  0
  -27.6655  -19.7959   22.4222 C   0  0  0  0  0  0  0  0  0  1  0  0
  -22.8198  -13.4797   21.2096 C   0  0  0  0  0  0  0  0  0  0  0  0
  -21.5852  -19.0722   18.6336 C   0  0  0  0  0  0  0  0  0  0  0  0
  -20.0722  -21.7891   19.5564 C   0  0  0  0  0  0  0  0  0  0  0  0
  -20.0159  -24.5235   21.5977 C   0  0  0  0  0  0  0  0  0  0  0  0
  -30.9476  -14.0583   20.9574 C   0  0  0  0  0  0  0  0  0  0  0  0
  -19.3105  -16.3667   14.9507 C   0  0  0  0  0  0  0  0  0  0  0  0
  -21.4586  -18.7542   21.1314 C   0  0  0  0  0  0  0  0  0  0  0  0
  -22.4208  -21.4575   20.4164 C   0  0  0  0  0  0  0  0  0  0  0  0
  -19.4289  -17.8472   15.3032 C   0  0  0  0  0  0  0  0  0  0  0  0
  -29.3570  -13.1258   17.9115 C   0  0  0  0  0  0  0  0  0  0  0  0
  -20.8837  -18.2168   15.5745 C   0  0  0  0  0  0  0  0  0  0  0  0
  -27.9266  -12.7870   18.3347 C   0  0  0  0  0  0  0  0  0  0  0  0
  -30.3741  -12.6988   18.9676 C   0  0  0  0  0  0  0  0  0  0  0  0
  -28.6791  -12.8722   20.7482 C   0  0  0  0  0  0  0  0  0  0  0  0
  -21.4390  -17.4314   16.7688 C   0  0  1  0  0  0  0  0  0  0  0  0
  -20.9241  -19.5007   19.9130 C   0  0  1  0  0  0  0  0  0  0  0  0
  -27.6130  -13.3343   19.7401 C   0  0  2  0  0  0  0  0  0  0  0  0
  -30.9103  -20.9793   21.5904 C   0  0  0  0  0  0  0  0  0  0  0  0
  -29.0225  -16.8837   23.8362 C   0  0  0  0  0  0  0  0  0  0  0  0
  -18.6733  -26.5850   22.0925 C   0  0  0  0  0  0  0  0  0  0  0  0
  -21.1813  -23.1123   17.0407 C   0  0  0  0  0  0  0  0  0  0  0  0
  -20.6302  -25.3356   18.0513 C   0  0  0  0  0  0  0  0  0  0  0  0
  -18.8089  -23.7007   17.5694 C   0  0  0  0  0  0  0  0  0  0  0  0
  -19.4990  -23.6595   24.3807 C   0  0  0  0  0  0  0  0  0  0  0  0
  -31.3698  -15.3957   23.0049 C   0  0  0  0  0  0  0  0  0  0  0  0
  -20.3897  -23.2636   19.4935 C   0  0  1  0  0  0  0  0  0  0  0  0
  -18.9097  -25.1248   22.4457 C   0  0  2  0  0  0  0  0  0  0  0  0
  -20.2695  -23.8348   18.0524 C   0  0  0  0  0  0  0  0  0  0  0  0
  -25.8935  -11.6666   20.3268 N   0  0  0  0  0  0  0  0  0  0  0  0
  -26.2099  -12.9649   20.1845 N   0  0  0  0  0  0  0  0  0  0  0  0
  -21.0971  -20.9510   20.0181 N   0  0  0  0  0  0  0  0  0  0  0  0
  -30.0200  -13.2524   20.2768 N   0  0  0  0  0  0  0  0  0  0  0  0
  -25.3306  -15.1557   20.3798 N   0  0  0  0  0  0  0  0  0  0  0  0
  -21.8467  -12.5273   21.5418 N   0  0  0  0  0  0  0  0  0  0  0  0
  -20.9684  -18.0030   18.0123 N   0  0  0  0  0  0  0  0  0  0  0  0
  -19.5174  -23.9109   20.4674 N   0  0  0  0  0  0  0  0  0  0  0  0
  -30.5298  -14.5475   22.1890 N   0  0  0  0  0  0  0  0  0  0  0  0
  -19.2621  -25.0421   23.8913 N   0  3  0  0  0  0  0  0  0  0  0  0
  -22.5226  -14.6979   21.2415 O   0  0  0  0  0  0  0  0  0  0  0  0
  -22.5803  -19.6683   18.2385 O   0  0  0  0  0  0  0  0  0  0  0  0
  -18.9537  -21.3962   19.2154 O   0  0  0  0  0  0  0  0  0  0  0  0
  -21.2038  -24.5936   21.9051 O   0  0  0  0  0  0  0  0  0  0  0  0
  -32.0632  -14.3267   20.4988 O   0  0  0  0  0  0  0  0  0  0  0  0
  -21.8432   -6.9598   21.7377 O   0  0  0  0  0  0  0  0  0  0  0  0
  -26.5715  -20.5082   22.8266 O   0  0  0  0  0  0  0  0  0  1  0  0
  -18.7681   -6.7276   26.3087 F   0  0  0  0  0  0  0  0  0  0  0  0
  -22.3481   -5.0711   23.6924 F   0  0  0  0  0  0  0  0  0  0  0  0
  1  2  1  0  0  0  0
  1  5  2  0  0  0  0
  2  6  2  0  0  0  0
  3 10  2  0  0  0  0
  3 17  1  0  0  0  0
  4 11  1  0  0  0  0
  4 17  2  0  0  0  0
  5 20  1  0  0  0  0
  6 22  1  0  0  0  0
  7 12  2  0  0  0  0
  7 21  1  0  0  0  0
  8  9  1  0  0  0  0
  8 24  2  0  0  0  0
  9 25  2  0  0  0  0
 10 27  1  0  0  0  0
 11 27  2  0  0  0  0
 12 28  1  0  0  0  0
 13 14  2  0  0  0  0
 13 29  1  0  0  0  0
 14 30  1  0  0  0  0
 15 23  1  0  0  0  0
 15 28  2  0  0  0  0
 16 30  2  0  0  0  0
 16 31  1  0  0  0  0
 17 32  1  0  0  0  0
 18 24  1  0  0  0  0
 18 26  2  0  0  0  0
 18 34  1  0  0  0  0
 19 32  1  0  0  0  0
 19 33  2  0  0  0  0
 19 36  1  0  0  0  0
 20 22  2  0  0  0  0
 20 41  1  0  0  0  0
 21 23  2  0  0  0  0
 21 42  1  0  0  0  0
 22 50  1  0  0  0  0
 23 43  1  0  0  0  0
 24 53  1  0  0  0  0
 25 26  1  0  0  0  0
 25 60  1  0  0  0  0
 26 54  1  0  0  0  0
 27 79  1  0  0  0  0
 28 80  1  0  0  0  0
 29 31  2  0  0  0  0
 29 79  1  0  0  0  0
 30 81  1  0  0  0  0
 31 82  1  0  0  0  0
 32 64  2  0  0  0  0
 33 65  1  0  0  0  0
 33 68  1  0  0  0  0
 34 35  2  0  0  0  0
 35 80  1  0  0  0  0
 36 69  1  0  0  0  0
 36 74  2  0  0  0  0
 37 51  1  0  0  0  0
 37 70  1  0  0  0  0
 37 75  2  0  0  0  0
 38 61  1  0  0  0  0
 38 66  1  0  0  0  0
 38 76  2  0  0  0  0
 39 62  1  0  0  0  0
 39 71  1  0  0  0  0
 39 77  2  0  0  0  0
 40 67  1  0  0  0  0
 40 72  1  0  0  0  0
 40 78  2  0  0  0  0
 41 44  1  0  0  0  0
 42 51  1  0  0  0  0
 43 66  1  0  0  0  0
 44 46  1  0  0  0  0
 45 47  1  0  0  0  0
 45 48  1  0  0  0  0
 46 50  1  0  0  0  0
 47 52  1  0  0  0  0
 48 67  1  0  0  0  0
 49 52  1  0  0  0  0
 49 67  1  0  0  0  0
 50 70  1  0  0  0  0
 51 66  1  0  0  0  0
 52 65  1  0  0  0  0
 55 62  1  0  0  0  0
 56 63  1  0  0  0  0
 57 63  1  0  0  0  0
 58 63  1  0  0  0  0
 59 73  1  0  0  0  0
 60 72  1  0  0  0  0
 61 63  1  0  0  0  0
 61 71  1  0  0  0  0
 62 73  1  0  0  0  0
 64 65  1  0  0  0  0
M  CHG  1  73   1
M  ISO  4  35 101  40 100  72 100  80 101
M  END
> <Batch ID>
0035

> <Smiles>
CNC(C)C(=O)NC(C(=O)N1Cc2cc([101O:1][101CH:1]=Cc3c(C)ccc(C[100NH:0][100C:0](=O)N4CCCC(n5nc(-c6ccc(Oc7ccc(F)cc7F)cc6)c(C(N)=O)c5N)C4)c3C)ccc2CC1C(=O)NC1CCCc2ccccc21)C(C)(C)C

> <Shape>
0.192

> <Color>
0.193

> <Negative vol penalty>
0.000

$$$$

  -OEChem-04042321513D

 88 97  0     1  0  0  0  0  0999 V2000
  -22.9682  -29.8980   23.4710 C   0  0  0  0  0  0  0  0  0  0  0  0
  -23.5620  -28.6714   23.7510 C   0  0  0  0  0  0  0  0  0  0  0  0
  -23.2667  -10.2250   22.1687 C   0  0  0  0  0  0  0  0  0  0  0  0
  -23.4996   -9.6376   19.8368 C   0  0  0  0  0  0  0  0  0  0  0  0
  -23.2835  -30.5706   22.2912 C   0  0  0  0  0  0  0  0  0  0  0  0
  -24.4706  -28.1162   22.8507 C   0  0  0  0  0  0  0  0  0  0  0  0
  -28.5916  -26.2675   25.1408 C   0  0  0  0  0  0  0  0  0  0  0  0
  -22.4948   -9.0825   22.3794 C   0  0  0  0  0  0  0  0  0  0  0  0
  -22.7278   -8.4950   20.0475 C   0  0  0  0  0  0  0  0  0  0  0  0
  -28.4690  -25.0292   25.7696 C   0  0  0  0  0  0  0  0  0  0  0  0
  -23.0147   -5.7682   22.8020 C   0  0  0  0  0  0  0  0  0  0  0  0
  -23.2957   -4.9947   23.9282 C   0  0  0  0  0  0  0  0  0  0  0  0
  -29.5030  -23.9671   23.8664 C   0  0  0  0  0  0  0  0  0  0  0  0
  -30.7283  -17.6405   20.4312 C   0  0  0  0  0  0  0  0  0  0  0  0
  -21.0477   -5.3551   24.7367 C   0  0  0  0  0  0  0  0  0  0  0  0
  -23.7690  -10.5026   20.8974 C   0  0  0  0  0  0  0  0  0  0  0  0
  -24.1779  -13.0206   20.8839 C   0  0  0  0  0  0  0  0  0  0  0  0
  -24.2038  -30.0279   21.3805 C   0  0  0  0  0  0  0  0  0  0  0  0
  -29.1618  -26.3637   23.8633 C   0  0  0  0  0  0  0  0  0  0  0  0
  -24.7975  -28.7815   21.6569 C   0  0  0  0  0  0  0  0  0  0  0  0
  -29.6339  -25.2081   23.2246 C   0  0  0  0  0  0  0  0  0  0  0  0
  -30.9377  -19.0188   20.4745 C   0  0  0  0  0  0  0  0  0  0  0  0
  -30.7993  -19.7077   21.6795 C   0  0  0  0  0  0  0  0  0  0  0  0
  -30.2420  -17.6399   22.7978 C   0  0  0  0  0  0  0  0  0  0  0  0
  -30.4515  -19.0183   22.8411 C   0  0  0  0  0  0  0  0  0  0  0  0
  -30.3804  -16.9510   21.5929 C   0  0  0  0  0  0  0  0  0  0  0  0
  -22.2254   -8.2175   21.3189 C   0  0  0  0  0  0  0  0  0  0  0  0
  -28.9221  -23.8784   25.1313 C   0  0  0  0  0  0  0  0  0  0  0  0
  -21.7502   -6.3353   22.6432 C   0  0  0  0  0  0  0  0  0  0  0  0
  -22.3122   -4.7881   24.8955 C   0  0  0  0  0  0  0  0  0  0  0  0
  -20.7667   -6.1287   23.6105 C   0  0  0  0  0  0  0  0  0  0  0  0
  -24.5660  -11.6830   20.6789 C   0  0  0  0  0  0  0  0  0  0  0  0
  -25.2838  -13.7564   20.5344 C   0  0  0  0  0  0  0  0  0  0  0  0
  -29.3927  -20.7628   24.2822 C   0  0  0  0  0  0  0  0  0  0  0  0
  -28.2418  -20.9397   23.6041 C   0  0  0  0  0  0  0  0  0  0  0  0
  -22.9294  -13.5507   21.3488 C   0  0  0  0  0  0  0  0  0  0  0  0
  -28.1327  -27.3268   21.0143 C   0  0  0  0  0  0  0  0  0  0  0  0
  -31.2324  -26.8711   20.1737 C   0  0  0  0  0  0  0  0  0  0  0  0
  -34.1990  -25.2990   20.7855 C   0  0  0  0  0  0  0  0  0  0  0  0
  -30.7788  -14.6471   20.6549 C   0  0  0  0  0  0  0  0  0  0  0  0
  -24.4772  -30.7694   20.0959 C   0  0  0  0  0  0  0  0  0  0  0  0
  -29.3110  -27.7102   23.2098 C   0  0  0  0  0  0  0  0  0  0  0  0
  -30.2722  -25.2601   21.8614 C   0  0  0  0  0  0  0  0  0  0  0  0
  -25.7331  -30.2910   19.3719 C   0  0  0  0  0  0  0  0  0  0  0  0
  -30.8778  -19.6077   26.4587 C   0  0  0  0  0  0  0  0  0  0  0  0
  -29.5580  -12.3732   18.2022 C   0  0  0  0  0  0  0  0  0  0  0  0
  -25.7657  -28.7672   19.3100 C   0  0  0  0  0  0  0  0  0  0  0  0
  -30.0573  -20.8766   26.7020 C   0  0  0  0  0  0  0  0  0  0  0  0
  -28.1185  -12.1010   18.6447 C   0  0  0  0  0  0  0  0  0  0  0  0
  -31.4044  -19.4868   25.0283 C   0  0  0  0  0  0  0  0  0  0  0  0
  -30.4996  -12.5231   19.3958 C   0  0  0  0  0  0  0  0  0  0  0  0
  -28.6373  -13.2350   20.8429 C   0  0  0  0  0  0  0  0  0  0  0  0
  -25.8066  -28.1586   20.7169 C   0  0  1  0  0  0  0  0  0  0  0  0
  -29.7859  -21.6855   25.4314 C   0  0  2  0  0  0  0  0  0  1  0  0
  -29.4397  -27.6267   21.6920 C   0  0  1  0  0  0  0  0  0  0  0  0
  -27.6399  -13.1410   19.6766 C   0  0  2  0  0  0  0  0  0  0  0  0
  -31.3083  -19.7330   19.2159 C   0  0  0  0  0  0  0  0  0  0  0  0
  -31.0248  -21.1870   21.7184 C   0  0  0  0  0  0  0  0  0  0  0  0
  -29.8681  -16.8989   24.0443 C   0  0  0  0  0  0  0  0  0  0  0  0
  -27.8069  -20.0736   22.4772 C   0  0  0  0  0  0  0  0  0  0  0  0
  -36.5406  -25.0990   19.9054 C   0  0  0  0  0  0  0  0  0  0  0  0
  -30.2259  -25.0943   17.9066 C   0  0  0  0  0  0  0  0  0  0  0  0
  -32.5494  -24.1904   17.6769 C   0  0  0  0  0  0  0  0  0  0  0  0
  -32.1112  -26.6143   17.2824 C   0  0  0  0  0  0  0  0  0  0  0  0
  -35.3579  -26.3362   23.3035 C   0  0  0  0  0  0  0  0  0  0  0  0
  -32.0361  -25.7091   19.6418 C   0  0  1  0  0  0  0  0  0  0  0  0
  -35.6197  -25.8269   20.8722 C   0  0  2  0  0  0  0  0  0  0  0  0
  -31.7169  -25.4004   18.1518 C   0  0  0  0  0  0  0  0  0  0  0  0
  -25.8203  -11.5725   20.2336 N   0  0  0  0  0  0  0  0  0  0  0  0
  -26.2300  -12.8501   20.1558 N   0  0  0  0  0  0  0  0  0  0  0  0
  -30.3110  -19.7197   24.0669 N   0  0  0  0  0  0  0  0  0  0  0  0
  -30.3898  -26.5992   21.2609 N   0  0  0  0  0  0  0  0  0  0  0  0
  -29.9843  -13.5278   20.3284 N   0  0  0  0  0  0  0  0  0  0  0  0
  -25.5293  -15.0837   20.5171 N   0  0  0  0  0  0  0  0  0  0  0  0
  -21.8989  -12.6545   21.6637 N   0  0  0  0  0  0  0  0  0  0  0  0
  -30.1712  -15.5512   21.5256 N   0  0  0  0  0  0  0  0  0  0  0  0
  -27.1405  -28.2539   21.2702 N   0  0  0  0  0  0  0  0  0  0  0  0
  -33.4360  -26.0293   19.8991 N   0  0  0  0  0  0  0  0  0  0  0  0
  -36.1540  -25.6518   22.2524 N   0  3  0  0  0  0  0  0  0  0  0  0
  -22.7280  -14.7833   21.4654 O   0  0  0  0  0  0  0  0  0  0  0  0
  -28.0322  -26.3289   20.3101 O   0  0  0  0  0  0  0  0  0  0  0  0
  -31.3532  -27.9807   19.6486 O   0  0  0  0  0  0  0  0  0  0  0  0
  -33.8066  -24.3328   21.4359 O   0  0  0  0  0  0  0  0  0  0  0  0
  -31.9039  -14.8066   20.1746 O   0  0  0  0  0  0  0  0  0  0  0  0
  -21.4725   -7.1023   21.5242 O   0  0  0  0  0  0  0  0  0  0  0  0
  -28.8032  -22.6684   25.7425 O   0  0  0  0  0  0  0  0  0  1  0  0
  -22.5818   -4.0440   25.9761 F   0  0  0  0  0  0  0  0  0  0  0  0
  -19.5497   -6.6698   23.4628 F   0  0  0  0  0  0  0  0  0  0  0  0
  1  2  1  0  0  0  0
  1  5  2  0  0  0  0
  2  6  2  0  0  0  0
  3  8  2  0  0  0  0
  3 16  1  0  0  0  0
  4  9  1  0  0  0  0
  4 16  2  0  0  0  0
  5 18  1  0  0  0  0
  6 20  1  0  0  0  0
  7 10  2  0  0  0  0
  7 19  1  0  0  0  0
  8 27  1  0  0  0  0
  9 27  2  0  0  0  0
 10 28  1  0  0  0  0
 11 12  2  0  0  0  0
 11 29  1  0  0  0  0
 12 30  1  0  0  0  0
 13 21  1  0  0  0  0
 13 28  2  0  0  0  0
 14 22  1  0  0  0  0
 14 26  2  0  0  0  0
 15 30  2  0  0  0  0
 15 31  1  0  0  0  0
 16 32  1  0  0  0  0
 17 32  1  0  0  0  0
 17 33  2  0  0  0  0
 17 36  1  0  0  0  0
 18 20  2  0  0  0  0
 18 41  1  0  0  0  0
 19 21  2  0  0  0  0
 19 42  1  0  0  0  0
 20 53  1  0  0  0  0
 21 43  1  0  0  0  0
 22 23  2  0  0  0  0
 22 57  1  0  0  0  0
 23 25  1  0  0  0  0
 23 58  1  0  0  0  0
 24 25  2  0  0  0  0
 24 26  1  0  0  0  0
 24 59  1  0  0  0  0
 25 71  1  0  0  0  0
 26 76  1  0  0  0  0
 27 85  1  0  0  0  0
 28 86  1  0  0  0  0
 29 31  2  0  0  0  0
 29 85  1  0  0  0  0
 30 87  1  0  0  0  0
 31 88  1  0  0  0  0
 32 69  2  0  0  0  0
 33 70  1  0  0  0  0
 33 74  1  0  0  0  0
 34 35  2  0  0  0  0
 34 54  1  0  0  0  0
 34 71  1  0  0  0  0
 35 60  1  0  0  0  0
 36 75  1  0  0  0  0
 36 80  2  0  0  0  0
 37 55  1  0  0  0  0
 37 77  1  0  0  0  0
 37 81  2  0  0  0  0
 38 66  1  0  0  0  0
 38 72  1  0  0  0  0
 38 82  2  0  0  0  0
 39 67  1  0  0  0  0
 39 78  1  0  0  0  0
 39 83  2  0  0  0  0
 40 73  1  0  0  0  0
 40 76  1  0  0  0  0
 40 84  2  0  0  0  0
 41 44  1  0  0  0  0
 42 55  1  0  0  0  0
 43 72  1  0  0  0  0
 44 47  1  0  0  0  0
 45 48  1  0  0  0  0
 45 50  1  0  0  0  0
 46 49  1  0  0  0  0
 46 51  1  0  0  0  0
 47 53  1  0  0  0  0
 48 54  1  0  0  0  0
 49 56  1  0  0  0  0
 50 71  1  0  0  0  0
 51 73  1  0  0  0  0
 52 56  1  0  0  0  0
 52 73  1  0  0  0  0
 53 77  1  0  0  0  0
 54 86  1  0  0  0  0
 55 72  1  0  0  0  0
 56 70  1  0  0  0  0
 61 67  1  0  0  0  0
 62 68  1  0  0  0  0
 63 68  1  0  0  0  0
 64 68  1  0  0  0  0
 65 79  1  0  0  0  0
 66 68  1  0  0  0  0
 66 78  1  0  0  0  0
 67 79  1  0  0  0  0
 69 70  1  0  0  0  0
M  CHG  1  79   1
M  ISO  4  40 100  54 101  76 100  86 101
M  END
> <Batch ID>
0035

> <Smiles>
CC=C1N(c2c(C)c(C)cc([100NH:0][100C:0](=O)N3CCCC(n4nc(-c5ccc(Oc6ccc(F)cc6F)cc5)c(C(N)=O)c4N)C3)c2C)CCC[101CH:1]1[101O:1]c1ccc2c(c1)CN(C(=O)C(NC(=O)C(C)NC)C(C)(C)C)C(C(=O)NC1CCCc3ccccc31)C2

> <Shape>
0.296

> <Color>
0.239

> <Negative vol penalty>
0.000

$$$$

  -OEChem-04042321513D

 82 91  0     1  0  0  0  0  0999 V2000
  -28.0534  -36.7901   24.0774 C   0  0  0  0  0  0  0  0  0  0  0  0
  -28.4946  -35.7159   23.3114 C   0  0  0  0  0  0  0  0  0  0  0  0
  -26.4163  -12.6380   21.8853 C   0  0  0  0  0  0  0  0  0  0  0  0
  -25.6762  -14.0809   20.0945 C   0  0  0  0  0  0  0  0  0  0  0  0
  -27.1044  -36.5878   25.0785 C   0  0  0  0  0  0  0  0  0  0  0  0
  -27.9878  -34.4383   23.5469 C   0  0  0  0  0  0  0  0  0  0  0  0
  -26.9393  -30.0688   19.3860 C   0  0  0  0  0  0  0  0  0  0  0  0
  -25.1952  -11.9648   21.8476 C   0  0  0  0  0  0  0  0  0  0  0  0
  -24.4551  -13.4077   20.0566 C   0  0  0  0  0  0  0  0  0  0  0  0
  -27.6767  -28.9536   18.9908 C   0  0  0  0  0  0  0  0  0  0  0  0
  -23.7157   -9.5939   19.9442 C   0  0  0  0  0  0  0  0  0  0  0  0
  -23.7424   -8.1999   19.9862 C   0  0  0  0  0  0  0  0  0  0  0  0
  -30.1477  -22.7451   17.7147 C   0  0  0  0  0  0  0  0  0  0  0  0
  -30.1115  -23.0309   20.4831 C   0  0  0  0  0  0  0  0  0  0  0  0
  -26.3886  -27.5763   20.4951 C   0  0  0  0  0  0  0  0  0  0  0  0
  -22.4362   -8.2361   22.0184 C   0  0  0  0  0  0  0  0  0  0  0  0
  -26.6568  -13.6961   21.0088 C   0  0  0  0  0  0  0  0  0  0  0  0
  -29.0817  -14.0842   20.3183 C   0  0  0  0  0  0  0  0  0  0  0  0
  -26.5785  -35.3088   25.3200 C   0  0  0  0  0  0  0  0  0  0  0  0
  -25.9265  -29.9479   20.3484 C   0  0  0  0  0  0  0  0  0  0  0  0
  -27.0318  -34.2185   24.5532 C   0  0  0  0  0  0  0  0  0  0  0  0
  -30.0593  -24.0296   18.2733 C   0  0  0  0  0  0  0  0  0  0  0  0
  -30.0226  -24.1732   19.6720 C   0  0  0  0  0  0  0  0  0  0  0  0
  -25.6380  -28.6910   20.8989 C   0  0  0  0  0  0  0  0  0  0  0  0
  -30.2261  -21.6180   18.5317 C   0  0  0  0  0  0  0  0  0  0  0  0
  -30.2106  -21.7610   19.9157 C   0  0  0  0  0  0  0  0  0  0  0  0
  -24.2147  -12.3497   20.9332 C   0  0  0  0  0  0  0  0  0  0  0  0
  -27.4034  -27.7076   19.5474 C   0  0  0  0  0  0  0  0  0  0  0  0
  -23.0494  -10.3090   20.9394 C   0  0  0  0  0  0  0  0  0  0  0  0
  -23.1026   -7.5210   21.0232 C   0  0  0  0  0  0  0  0  0  0  0  0
  -22.4096   -9.6301   21.9764 C   0  0  0  0  0  0  0  0  0  0  0  0
  -27.9177  -14.3922   21.0477 C   0  0  0  0  0  0  0  0  0  0  0  0
  -29.9926  -15.0357   20.7074 C   0  0  0  0  0  0  0  0  0  0  0  0
  -29.3183  -13.0321   19.3734 C   0  0  0  0  0  0  0  0  0  0  0  0
  -25.4305  -31.1556   23.2465 C   0  0  0  0  0  0  0  0  0  0  0  0
  -22.5610  -29.6728   22.9474 C   0  0  0  0  0  0  0  0  0  0  0  0
  -20.7133  -27.2060   21.4818 C   0  0  0  0  0  0  0  0  0  0  0  0
  -30.2895  -20.6181   22.1593 C   0  0  0  0  0  0  0  0  0  0  0  0
  -25.5895  -35.1310   26.4447 C   0  0  0  0  0  0  0  0  0  0  0  0
  -25.1223  -31.1558   20.7443 C   0  0  0  0  0  0  0  0  0  0  0  0
  -29.9444  -25.2186   17.3544 C   0  0  0  0  0  0  0  0  0  0  0  0
  -29.9469  -25.5303   20.3321 C   0  0  0  0  0  0  0  0  0  0  0  0
  -24.5475  -28.5043   21.9208 C   0  0  0  0  0  0  0  0  0  0  0  0
  -24.8254  -33.8110   26.3809 C   0  0  0  0  0  0  0  0  0  0  0  0
  -30.2545  -26.5455   18.0475 C   0  0  0  0  0  0  0  0  0  0  0  0
  -30.4393  -18.0417   24.6122 C   0  0  0  0  0  0  0  0  0  0  0  0
  -25.7817  -32.6531   26.1129 C   0  0  0  0  0  0  0  0  0  0  0  0
  -29.9185  -16.8069   23.8733 C   0  0  0  0  0  0  0  0  0  0  0  0
  -29.7006  -19.3099   24.1883 C   0  0  0  0  0  0  0  0  0  0  0  0
  -29.1462  -18.3195   22.0018 C   0  0  0  0  0  0  0  0  0  0  0  0
  -26.4875  -32.8220   24.7620 C   0  0  1  0  0  0  0  0  0  0  0  0
  -24.4584  -31.0100   22.1101 C   0  0  1  0  0  0  0  0  0  0  0  0
  -29.9040  -17.0274   22.3479 C   0  0  2  0  0  0  0  0  0  0  0  0
  -29.5304  -26.6581   19.3847 C   0  0  1  0  0  0  0  0  0  1  0  0
  -30.3252  -20.2704   17.8938 C   0  0  0  0  0  0  0  0  0  0  0  0
  -18.4067  -26.2178   21.4659 C   0  0  0  0  0  0  0  0  0  0  0  0
  -23.1328  -28.3014   25.6124 C   0  0  0  0  0  0  0  0  0  0  0  0
  -21.3121  -26.6666   25.0823 C   0  0  0  0  0  0  0  0  0  0  0  0
  -20.7765  -29.0904   25.3296 C   0  0  0  0  0  0  0  0  0  0  0  0
  -20.3384  -27.8336   18.6139 C   0  0  0  0  0  0  0  0  0  0  0  0
  -22.0271  -28.3002   23.2793 C   0  0  1  0  0  0  0  0  0  0  0  0
  -19.3453  -27.2278   20.8242 C   0  0  2  0  0  0  0  0  0  0  0  0
  -21.8340  -28.0932   24.8081 C   0  0  0  0  0  0  0  0  0  0  0  0
  -28.0724  -15.4561   21.8404 N   0  0  0  0  0  0  0  0  0  0  0  0
  -29.3442  -15.8248   21.6113 N   0  0  0  0  0  0  0  0  0  0  0  0
  -23.7933  -29.7166   22.2801 N   0  0  0  0  0  0  0  0  0  0  0  0
  -29.7319  -19.4551   22.7313 N   0  0  0  0  0  0  0  0  0  0  0  0
  -31.2770  -15.2658   20.3612 N   0  0  0  0  0  0  0  0  0  0  0  0
  -28.2737  -12.1420   19.0890 N   0  0  0  0  0  0  0  0  0  0  0  0
  -30.2938  -20.6298   20.7649 N   0  0  0  0  0  0  0  0  0  0  0  0
  -25.5997  -32.4571   23.6788 N   0  0  0  0  0  0  0  0  0  0  0  0
  -20.8077  -28.1360   22.4953 N   0  0  0  0  0  0  0  0  0  0  0  0
  -19.4624  -26.9052   19.3740 N   0  3  0  0  0  0  0  0  0  0  0  0
  -30.4285  -12.8757   18.8107 O   0  0  0  0  0  0  0  0  0  0  0  0
  -25.9848  -30.1606   23.6986 O   0  0  0  0  0  0  0  0  0  0  0  0
  -21.9052  -30.6691   23.2620 O   0  0  0  0  0  0  0  0  0  0  0  0
  -21.6075  -26.4380   21.1337 O   0  0  0  0  0  0  0  0  0  0  0  0
  -30.7554  -21.5242   22.8550 O   0  0  0  0  0  0  0  0  0  0  0  0
  -23.0231  -11.6928   20.8959 O   0  0  0  0  0  0  0  0  0  0  0  0
  -28.1221  -26.6175   19.1639 O   0  0  0  0  0  0  0  0  0  1  0  0
  -23.1270   -6.1824   21.0625 F   0  0  0  0  0  0  0  0  0  0  0  0
  -21.7668  -10.3116   22.9347 F   0  0  0  0  0  0  0  0  0  0  0  0
  1  2  1  0  0  0  0
  1  5  2  0  0  0  0
  2  6  2  0  0  0  0
  3  8  2  0  0  0  0
  3 17  1  0  0  0  0
  4  9  1  0  0  0  0
  4 17  2  0  0  0  0
  5 19  1  0  0  0  0
  6 21  1  0  0  0  0
  7 10  2  0  0  0  0
  7 20  1  0  0  0  0
  8 27  1  0  0  0  0
  9 27  2  0  0  0  0
 10 28  1  0  0  0  0
 11 12  2  0  0  0  0
 11 29  1  0  0  0  0
 12 30  1  0  0  0  0
 13 22  1  0  0  0  0
 13 25  2  0  0  0  0
 14 23  1  0  0  0  0
 14 26  2  0  0  0  0
 15 24  1  0  0  0  0
 15 28  2  0  0  0  0
 16 30  2  0  0  0  0
 16 31  1  0  0  0  0
 17 32  1  0  0  0  0
 18 32  1  0  0  0  0
 18 33  2  0  0  0  0
 18 34  1  0  0  0  0
 19 21  2  0  0  0  0
 19 39  1  0  0  0  0
 20 24  2  0  0  0  0
 20 40  1  0  0  0  0
 21 51  1  0  0  0  0
 22 23  2  0  0  0  0
 22 41  1  0  0  0  0
 23 42  1  0  0  0  0
 24 43  1  0  0  0  0
 25 26  1  0  0  0  0
 25 55  1  0  0  0  0
 26 70  1  0  0  0  0
 27 79  1  0  0  0  0
 28 80  1  0  0  0  0
 29 31  2  0  0  0  0
 29 79  1  0  0  0  0
 30 81  1  0  0  0  0
 31 82  1  0  0  0  0
 32 64  2  0  0  0  0
 33 65  1  0  0  0  0
 33 68  1  0  0  0  0
 34 69  1  0  0  0  0
 34 74  2  0  0  0  0
 35 52  1  0  0  0  0
 35 71  1  0  0  0  0
 35 75  2  0  0  0  0
 36 61  1  0  0  0  0
 36 66  1  0  0  0  0
 36 76  2  0  0  0  0
 37 62  1  0  0  0  0
 37 72  1  0  0  0  0
 37 77  2  0  0  0  0
 38 67  1  0  0  0  0
 38 70  1  0  0  0  0
 38 78  2  0  0  0  0
 39 44  1  0  0  0  0
 40 52  1  0  0  0  0
 41 45  1  0  0  0  0
 42 54  1  0  0  0  0
 43 66  1  0  0  0  0
 44 47  1  0  0  0  0
 45 54  1  0  0  0  0
 46 48  1  0  0  0  0
 46 49  1  0  0  0  0
 47 51  1  0  0  0  0
 48 53  1  0  0  0  0
 49 67  1  0  0  0  0
 50 53  1  0  0  0  0
 50 67  1  0  0  0  0
 51 71  1  0  0  0  0
 52 66  1  0  0  0  0
 53 65  1  0  0  0  0
 54 80  1  0  0  0  0
 56 62  1  0  0  0  0
 57 63  1  0  0  0  0
 58 63  1  0  0  0  0
 59 63  1  0  0  0  0
 60 73  1  0  0  0  0
 61 63  1  0  0  0  0
 61 72  1  0  0  0  0
 62 73  1  0  0  0  0
 64 65  1  0  0  0  0
M  CHG  1  73   1
M  ISO  4  38 100  54 101  70 100  80 101
M  END
> <Batch ID>
0035

> <Smiles>
CNC(C)C(=O)NC(C(=O)N1Cc2cc([101O:1][101CH:1]3CCc4cc(C)c([100NH:0][100C:0](=O)N5CCCC(n6nc(-c7ccc(Oc8ccc(F)cc8F)cc7)c(C(N)=O)c6N)C5)cc4C3)ccc2CC1C(=O)NC1CCCc2ccccc21)C(C)(C)C

> <Shape>
0.365

> <Color>
0.080

> <Negative vol penalty>
0.000

$$$$

  -OEChem-04042321513D

 83 92  0     1  0  0  0  0  0999 V2000
  -18.2205  -28.3993   23.4712 C   0  0  0  0  0  0  0  0  0  0  0  0
  -18.3557  -27.6518   22.3057 C   0  0  0  0  0  0  0  0  0  0  0  0
  -24.3130  -12.0751   21.8488 C   0  0  0  0  0  0  0  0  0  0  0  0
  -24.7965  -13.4176   19.8992 C   0  0  0  0  0  0  0  0  0  0  0  0
  -19.2801  -29.1865   23.9200 C   0  0  0  0  0  0  0  0  0  0  0  0
  -19.5503  -27.6920   21.5876 C   0  0  0  0  0  0  0  0  0  0  0  0
  -19.2285  -18.7911   13.4826 C   0  0  0  0  0  0  0  0  0  0  0  0
  -22.1285  -23.0940   18.4703 C   0  0  0  0  0  0  0  0  0  0  0  0
  -18.9295  -18.0211   14.6058 C   0  0  0  0  0  0  0  0  0  0  0  0
  -25.4729  -11.3332   21.6256 C   0  0  0  0  0  0  0  0  0  0  0  0
  -25.9565  -12.6758   19.6761 C   0  0  0  0  0  0  0  0  0  0  0  0
  -22.1276  -22.7623   17.1162 C   0  0  0  0  0  0  0  0  0  0  0  0
  -29.0987  -12.5370   20.9121 C   0  0  0  0  0  0  0  0  0  0  0  0
  -30.2642  -13.2373   20.6013 C   0  0  0  0  0  0  0  0  0  0  0  0
  -24.2422  -23.8909   16.8444 C   0  0  0  0  0  0  0  0  0  0  0  0
  -30.4013  -12.0719   18.4894 C   0  0  0  0  0  0  0  0  0  0  0  0
  -23.9747  -13.1172   20.9855 C   0  0  0  0  0  0  0  0  0  0  0  0
  -22.4598  -14.6451   22.3561 C   0  0  0  0  0  0  0  0  0  0  0  0
  -20.4917  -29.2288   23.2122 C   0  0  0  0  0  0  0  0  0  0  0  0
  -23.1827  -23.8374   19.0203 C   0  0  0  0  0  0  0  0  0  0  0  0
  -20.3453  -19.6432   13.4694 C   0  0  0  0  0  0  0  0  0  0  0  0
  -20.6267  -28.4816   22.0266 C   0  0  0  0  0  0  0  0  0  0  0  0
  -24.2553  -24.2286   18.2064 C   0  0  0  0  0  0  0  0  0  0  0  0
  -21.1707  -19.7132   14.6068 C   0  0  0  0  0  0  0  0  0  0  0  0
  -20.8579  -18.9293   15.7302 C   0  0  0  0  0  0  0  0  0  0  0  0
  -19.7442  -18.0904   15.7299 C   0  0  0  0  0  0  0  0  0  0  0  0
  -26.2947  -11.6336   20.5393 C   0  0  0  0  0  0  0  0  0  0  0  0
  -23.1831  -23.1632   16.3024 C   0  0  0  0  0  0  0  0  0  0  0  0
  -28.5844  -11.6040   20.0117 C   0  0  0  0  0  0  0  0  0  0  0  0
  -30.9155  -13.0048   19.3899 C   0  0  0  0  0  0  0  0  0  0  0  0
  -29.2357  -11.3715   18.8003 C   0  0  0  0  0  0  0  0  0  0  0  0
  -22.7763  -13.8835   21.2152 C   0  0  0  0  0  0  0  0  0  0  0  0
  -21.2215  -15.1732   22.0837 C   0  0  0  0  0  0  0  0  0  0  0  0
  -23.2174  -14.8562   23.5549 C   0  0  0  0  0  0  0  0  0  0  0  0
  -23.4286  -26.6727   20.4361 C   0  0  0  0  0  0  0  0  0  0  0  0
  -26.4947  -25.7302   20.9190 C   0  0  0  0  0  0  0  0  0  0  0  0
  -29.1088  -23.7639   19.9459 C   0  0  0  0  0  0  0  0  0  0  0  0
  -18.3453  -16.4221   16.9972 C   0  0  0  0  0  0  0  0  0  0  0  0
  -21.5925  -30.1313   23.7108 C   0  0  0  0  0  0  0  0  0  0  0  0
  -23.1818  -24.1642   20.4885 C   0  0  0  0  0  0  0  0  0  0  0  0
  -22.3915  -20.5983   14.6452 C   0  0  0  0  0  0  0  0  0  0  0  0
  -25.4210  -25.0107   18.7523 C   0  0  0  0  0  0  0  0  0  0  0  0
  -20.6353  -20.4530   12.2364 C   0  0  0  0  0  0  0  0  0  0  0  0
  -22.9556  -29.8269   23.0948 C   0  0  0  0  0  0  0  0  0  0  0  0
  -17.2274  -14.2672   19.6018 C   0  0  0  0  0  0  0  0  0  0  0  0
  -22.8328  -29.6576   21.5838 C   0  0  0  0  0  0  0  0  0  0  0  0
  -18.4934  -13.9984   20.4185 C   0  0  0  0  0  0  0  0  0  0  0  0
  -17.5253  -14.3549   18.1060 C   0  0  0  0  0  0  0  0  0  0  0  0
  -19.8501  -15.0351   18.5552 C   0  0  0  0  0  0  0  0  0  0  0  0
  -21.8511  -22.5265   13.0491 C   0  0  0  0  0  0  0  0  0  0  0  0
  -21.9155  -28.4797   21.2334 C   0  0  1  0  0  0  0  0  0  0  0  0
  -24.0555  -25.3663   20.8336 C   0  0  1  0  0  0  0  0  0  0  0  0
  -19.6104  -15.0029   20.0734 C   0  0  2  0  0  0  0  0  0  0  0  0
  -22.0692  -22.0887   14.4919 C   0  0  2  0  0  0  0  0  0  1  0  0
  -21.7047  -18.9727   16.9681 C   0  0  0  0  0  0  0  0  0  0  0  0
  -31.4976  -23.2414   20.5099 C   0  0  0  0  0  0  0  0  0  0  0  0
  -27.3721  -28.3454   19.6147 C   0  0  0  0  0  0  0  0  0  0  0  0
  -29.6588  -27.3624   19.3444 C   0  0  0  0  0  0  0  0  0  0  0  0
  -28.7034  -27.6848   21.6261 C   0  0  0  0  0  0  0  0  0  0  0  0
  -28.4742  -20.9316   20.5243 C   0  0  0  0  0  0  0  0  0  0  0  0
  -27.7853  -25.8526   20.1454 C   0  0  1  0  0  0  0  0  0  0  0  0
  -30.0418  -22.8646   20.7366 C   0  0  2  0  0  0  0  0  0  0  0  0
  -28.3571  -27.2982   20.1716 C   0  0  0  0  0  0  0  0  0  0  0  0
  -21.8165  -13.9218   20.2872 N   0  0  0  0  0  0  0  0  0  0  0  0
  -20.8846  -14.7136   20.8446 N   0  0  0  0  0  0  0  0  0  0  0  0
  -25.3710  -25.3114   20.1926 N   0  0  0  0  0  0  0  0  0  0  0  0
  -18.5900  -15.3286   17.8546 N   0  0  0  0  0  0  0  0  0  0  0  0
  -20.3989  -15.9813   22.7857 N   0  0  0  0  0  0  0  0  0  0  0  0
  -24.1034  -15.9411   23.6030 N   0  0  0  0  0  0  0  0  0  0  0  0
  -19.4207  -17.2991   16.8599 N   0  0  0  0  0  0  0  0  0  0  0  0
  -22.6154  -27.2250   21.4072 N   0  0  0  0  0  0  0  0  0  0  0  0
  -28.6861  -24.8437   20.6920 N   0  0  0  0  0  0  0  0  0  0  0  0
  -20.6185  -21.9332   12.4614 N   0  3  0  0  0  0  0  0  0  0  0  0
  -29.8561  -21.4422   20.3325 N   0  3  0  0  0  0  0  0  0  0  0  0
  -23.1239  -14.0955   24.5479 O   0  0  0  0  0  0  0  0  0  0  0  0
  -23.6664  -27.1453   19.3307 O   0  0  0  0  0  0  0  0  0  0  0  0
  -26.4857  -25.9896   22.1250 O   0  0  0  0  0  0  0  0  0  0  0  0
  -28.7900  -23.5336   18.7814 O   0  0  0  0  0  0  0  0  0  0  0  0
  -17.2525  -16.5843   16.4482 O   0  0  0  0  0  0  0  0  0  0  0  0
  -27.4268  -10.9101   20.3214 O   0  0  0  0  0  0  0  0  0  0  0  0
  -23.1844  -22.8412   14.9802 O   0  0  0  0  0  0  0  0  0  1  0  0
  -32.0339  -13.6785   19.0909 F   0  0  0  0  0  0  0  0  0  0  0  0
  -28.7458  -10.4773   17.9307 F   0  0  0  0  0  0  0  0  0  0  0  0
  1  2  1  0  0  0  0
  1  5  2  0  0  0  0
  2  6  2  0  0  0  0
  3 10  2  0  0  0  0
  3 17  1  0  0  0  0
  4 11  1  0  0  0  0
  4 17  2  0  0  0  0
  5 19  1  0  0  0  0
  6 22  1  0  0  0  0
  7  9  2  0  0  0  0
  7 21  1  0  0  0  0
  8 12  2  0  0  0  0
  8 20  1  0  0  0  0
  9 26  1  0  0  0  0
 10 27  1  0  0  0  0
 11 27  2  0  0  0  0
 12 28  1  0  0  0  0
 13 14  2  0  0  0  0
 13 29  1  0  0  0  0
 14 30  1  0  0  0  0
 15 23  1  0  0  0  0
 15 28  2  0  0  0  0
 16 30  2  0  0  0  0
 16 31  1  0  0  0  0
 17 32  1  0  0  0  0
 18 32  1  0  0  0  0
 18 33  2  0  0  0  0
 18 34  1  0  0  0  0
 19 22  2  0  0  0  0
 19 39  1  0  0  0  0
 20 23  2  0  0  0  0
 20 40  1  0  0  0  0
 21 24  2  0  0  0  0
 21 43  1  0  0  0  0
 22 51  1  0  0  0  0
 23 42  1  0  0  0  0
 24 25  1  0  0  0  0
 24 41  1  0  0  0  0
 25 26  2  0  0  0  0
 25 55  1  0  0  0  0
 26 70  1  0  0  0  0
 27 80  1  0  0  0  0
 28 81  1  0  0  0  0
 29 31  2  0  0  0  0
 29 80  1  0  0  0  0
 30 82  1  0  0  0  0
 31 83  1  0  0  0  0
 32 64  2  0  0  0  0
 33 65  1  0  0  0  0
 33 68  1  0  0  0  0
 34 69  1  0  0  0  0
 34 75  2  0  0  0  0
 35 52  1  0  0  0  0
 35 71  1  0  0  0  0
 35 76  2  0  0  0  0
 36 61  1  0  0  0  0
 36 66  1  0  0  0  0
 36 77  2  0  0  0  0
 37 62  1  0  0  0  0
 37 72  1  0  0  0  0
 37 78  2  0  0  0  0
 38 67  1  0  0  0  0
 38 70  1  0  0  0  0
 38 79  2  0  0  0  0
 39 44  1  0  0  0  0
 40 52  1  0  0  0  0
 41 54  1  0  0  0  0
 42 66  1  0  0  0  0
 43 73  1  0  0  0  0
 44 46  1  0  0  0  0
 45 47  1  0  0  0  0
 45 48  1  0  0  0  0
 46 51  1  0  0  0  0
 47 53  1  0  0  0  0
 48 67  1  0  0  0  0
 49 53  1  0  0  0  0
 49 67  1  0  0  0  0
 50 54  1  0  0  0  0
 50 73  1  0  0  0  0
 51 71  1  0  0  0  0
 52 66  1  0  0  0  0
 53 65  1  0  0  0  0
 54 81  1  0  0  0  0
 56 62  1  0  0  0  0
 57 63  1  0  0  0  0
 58 63  1  0  0  0  0
 59 63  1  0  0  0  0
 60 74  1  0  0  0  0
 61 63  1  0  0  0  0
 61 72  1  0  0  0  0
 62 74  1  0  0  0  0
 64 65  1  0  0  0  0
M  CHG  2  73   1  74   1
M  ISO  4  38 100  54 101  70 100  81 101
M  END
> <Batch ID>
0035

> <Smiles>
CNC(C)C(=O)NC(C(=O)N1Cc2cc([101O:1][101CH:1]3CNCc4ccc([100NH:0][100C:0](=O)N5CCCC(n6nc(-c7ccc(Oc8ccc(F)cc8F)cc7)c(C(N)=O)c6N)C5)c(C)c4C3)ccc2CC1C(=O)NC1CCCc2ccccc21)C(C)(C)C

> <Shape>
0.199

> <Color>
0.058

> <Negative vol penalty>
0.000

$$$$

  -OEChem-04042321513D

 88 97  0     1  0  0  0  0  0999 V2000
  -31.0249  -33.1864   22.2060 C   0  0  0  0  0  0  0  0  0  0  0  0
  -29.8280  -32.5687   22.5543 C   0  0  0  0  0  0  0  0  0  0  0  0
  -23.3779  -11.3405   23.0623 C   0  0  0  0  0  0  0  0  0  0  0  0
  -24.1681   -9.5455   21.6514 C   0  0  0  0  0  0  0  0  0  0  0  0
  -31.7592  -32.7173   21.1176 C   0  0  0  0  0  0  0  0  0  0  0  0
  -29.3642  -31.4820   21.8137 C   0  0  0  0  0  0  0  0  0  0  0  0
  -28.1776  -25.1007   24.9382 C   0  0  0  0  0  0  0  0  0  0  0  0
  -22.7606  -10.4109   23.8992 C   0  0  0  0  0  0  0  0  0  0  0  0
  -23.5508   -8.6159   22.4883 C   0  0  0  0  0  0  0  0  0  0  0  0
  -27.7260  -23.9075   25.5027 C   0  0  0  0  0  0  0  0  0  0  0  0
  -20.4305   -7.4272   23.0186 C   0  0  0  0  0  0  0  0  0  0  0  0
  -19.6987   -6.4018   22.4199 C   0  0  0  0  0  0  0  0  0  0  0  0
  -27.1697  -23.0658   23.3050 C   0  0  0  0  0  0  0  0  0  0  0  0
  -31.2719  -15.9353   25.0599 C   0  0  0  0  0  0  0  0  0  0  0  0
  -29.4759  -17.2556   25.9916 C   0  0  0  0  0  0  0  0  0  0  0  0
  -21.1457   -4.7659   23.4531 C   0  0  0  0  0  0  0  0  0  0  0  0
  -24.0816  -10.9078   21.9384 C   0  0  0  0  0  0  0  0  0  0  0  0
  -24.1001  -12.9109   20.3589 C   0  0  0  0  0  0  0  0  0  0  0  0
  -31.3090  -31.6182   20.3692 C   0  0  0  0  0  0  0  0  0  0  0  0
  -28.1411  -25.2751   23.5519 C   0  0  0  0  0  0  0  0  0  0  0  0
  -30.0926  -30.9985   20.7135 C   0  0  0  0  0  0  0  0  0  0  0  0
  -27.6321  -24.2539   22.7328 C   0  0  0  0  0  0  0  0  0  0  0  0
  -30.7417  -16.1154   23.7824 C   0  0  0  0  0  0  0  0  0  0  0  0
  -29.5786  -16.8657   23.6095 C   0  0  0  0  0  0  0  0  0  0  0  0
  -28.9457  -17.4358   24.7141 C   0  0  0  0  0  0  0  0  0  0  0  0
  -22.8470   -9.0486   23.6123 C   0  0  0  0  0  0  0  0  0  0  0  0
  -27.2231  -22.8927   24.6881 C   0  0  0  0  0  0  0  0  0  0  0  0
  -21.5199   -7.1221   23.8345 C   0  0  0  0  0  0  0  0  0  0  0  0
  -20.0562   -5.0711   22.6372 C   0  0  0  0  0  0  0  0  0  0  0  0
  -21.8775   -5.7914   24.0517 C   0  0  0  0  0  0  0  0  0  0  0  0
  -30.6390  -16.5053   26.1646 C   0  0  0  0  0  0  0  0  0  0  0  0
  -24.7190  -11.8676   21.0732 C   0  0  0  0  0  0  0  0  0  0  0  0
  -25.1302  -13.5302   19.6941 C   0  0  0  0  0  0  0  0  0  0  0  0
  -26.5712  -17.6912   24.0072 C   0  0  0  0  0  0  0  0  0  0  0  0
  -26.2027  -16.3952   23.9926 C   0  0  0  0  0  0  0  0  0  0  0  0
  -22.7177  -13.2868   20.3015 C   0  0  0  0  0  0  0  0  0  0  0  0
  -28.8729  -27.5116   20.6299 C   0  0  0  0  0  0  0  0  0  0  0  0
  -29.6556  -24.6663   19.7921 C   0  0  0  0  0  0  0  0  0  0  0  0
  -30.7830  -21.4693   19.4115 C   0  0  0  0  0  0  0  0  0  0  0  0
  -31.0117  -13.9198   20.7463 C   0  0  0  0  0  0  0  0  0  0  0  0
  -32.1133  -31.1766   19.1722 C   0  0  0  0  0  0  0  0  0  0  0  0
  -28.5597  -26.5675   22.9053 C   0  0  0  0  0  0  0  0  0  0  0  0
  -27.5799  -24.4992   21.2496 C   0  0  0  0  0  0  0  0  0  0  0  0
  -25.6120  -18.7001   23.4056 C   0  0  0  0  0  0  0  0  0  0  0  0
  -31.7411  -29.7846   18.6682 C   0  0  0  0  0  0  0  0  0  0  0  0
  -25.5184  -19.9757   24.2297 C   0  0  0  0  0  0  0  0  0  0  0  0
  -29.4409  -12.6477   17.8153 C   0  0  0  0  0  0  0  0  0  0  0  0
  -30.2257  -29.6386   18.5737 C   0  0  0  0  0  0  0  0  0  0  0  0
  -27.9968  -12.3977   18.2534 C   0  0  0  0  0  0  0  0  0  0  0  0
  -30.4323  -12.3339   18.9336 C   0  0  0  0  0  0  0  0  0  0  0  0
  -28.7176  -12.7690   20.6495 C   0  0  0  0  0  0  0  0  0  0  0  0
  -27.8029  -19.5421   25.1785 C   0  0  0  0  0  0  0  0  0  0  0  0
  -29.5689  -29.8016   19.9498 C   0  0  1  0  0  0  0  0  0  0  0  0
  -29.2276  -26.3671   21.5330 C   0  0  1  0  0  0  0  0  0  0  0  0
  -27.6774  -13.1248   19.5735 C   0  0  2  0  0  0  0  0  0  0  0  0
  -26.9089  -20.5490   24.4571 C   0  0  2  0  0  0  0  0  0  1  0  0
  -29.0123  -17.0559   22.2374 C   0  0  0  0  0  0  0  0  0  0  0  0
  -27.0355  -15.2941   24.5439 C   0  0  0  0  0  0  0  0  0  0  0  0
  -31.9044  -19.9609   17.7488 C   0  0  0  0  0  0  0  0  0  0  0  0
  -27.0344  -24.4218   18.2516 C   0  0  0  0  0  0  0  0  0  0  0  0
  -27.8949  -22.2873   17.2661 C   0  0  0  0  0  0  0  0  0  0  0  0
  -29.0871  -24.4332   16.8232 C   0  0  0  0  0  0  0  0  0  0  0  0
  -33.0977  -21.0247   21.2014 C   0  0  0  0  0  0  0  0  0  0  0  0
  -31.4386  -15.4944   22.6165 C   0  0  0  0  0  0  0  0  0  0  0  0
  -29.2339  -23.3847   19.1191 C   0  0  1  0  0  0  0  0  0  0  0  0
  -32.1070  -20.9207   18.9109 C   0  0  2  0  0  0  0  0  0  0  0  0
  -28.3109  -23.6350   17.8932 C   0  0  0  0  0  0  0  0  0  0  0  0
  -26.0399  -11.8233   20.8801 N   0  0  0  0  0  0  0  0  0  0  0  0
  -26.2595  -12.8465   20.0370 N   0  0  0  0  0  0  0  0  0  0  0  0
  -27.7574  -18.2056   24.5580 N   0  0  0  0  0  0  0  0  0  0  0  0
  -28.8202  -25.1536   20.8046 N   0  0  0  0  0  0  0  0  0  0  0  0
  -30.0740  -13.0560   20.1568 N   0  0  0  0  0  0  0  0  0  0  0  0
  -25.1711  -14.5873   18.8555 N   0  0  0  0  0  0  0  0  0  0  0  0
  -21.9080  -12.7070   19.3154 N   0  0  0  0  0  0  0  0  0  0  0  0
  -29.7264  -28.5937   20.7312 N   0  0  0  0  0  0  0  0  0  0  0  0
  -30.4634  -22.6652   18.8043 N   0  0  0  0  0  0  0  0  0  0  0  0
  -30.5892  -14.5696   21.8995 N   0  0  0  0  0  0  0  0  0  0  0  0
  -32.8128  -20.1934   20.0036 N   0  3  0  0  0  0  0  0  0  0  0  0
  -22.2191  -14.1247   21.0907 O   0  0  0  0  0  0  0  0  0  0  0  0
  -27.8976  -27.4204   19.8936 O   0  0  0  0  0  0  0  0  0  0  0  0
  -30.6940  -25.2253   19.4282 O   0  0  0  0  0  0  0  0  0  0  0  0
  -30.0989  -20.8925   20.2541 O   0  0  0  0  0  0  0  0  0  0  0  0
  -32.1399  -14.1026   20.2766 O   0  0  0  0  0  0  0  0  0  0  0  0
  -22.2450   -8.1413   24.4288 O   0  0  0  0  0  0  0  0  0  0  0  0
  -26.7882  -21.7287   25.2454 O   0  0  0  0  0  0  0  0  0  1  0  0
  -19.3524   -4.0864   22.0634 F   0  0  0  0  0  0  0  0  0  0  0  0
  -22.9224   -5.4920   24.8355 F   0  0  0  0  0  0  0  0  0  0  0  0
  -31.2939  -16.2835   27.7406 Cl  0  0  0  0  0  0  0  0  0  0  0  0
  1  2  1  0  0  0  0
  1  5  2  0  0  0  0
  2  6  2  0  0  0  0
  3  8  2  0  0  0  0
  3 17  1  0  0  0  0
  4  9  1  0  0  0  0
  4 17  2  0  0  0  0
  5 19  1  0  0  0  0
  6 21  1  0  0  0  0
  7 10  2  0  0  0  0
  7 20  1  0  0  0  0
  8 26  1  0  0  0  0
  9 26  2  0  0  0  0
 10 27  1  0  0  0  0
 11 12  2  0  0  0  0
 11 28  1  0  0  0  0
 12 29  1  0  0  0  0
 13 22  1  0  0  0  0
 13 27  2  0  0  0  0
 14 23  2  0  0  0  0
 14 31  1  0  0  0  0
 15 25  1  0  0  0  0
 15 31  2  0  0  0  0
 16 29  2  0  0  0  0
 16 30  1  0  0  0  0
 17 32  1  0  0  0  0
 18 32  1  0  0  0  0
 18 33  2  0  0  0  0
 18 36  1  0  0  0  0
 19 21  2  0  0  0  0
 19 41  1  0  0  0  0
 20 22  2  0  0  0  0
 20 42  1  0  0  0  0
 21 53  1  0  0  0  0
 22 43  1  0  0  0  0
 23 24  1  0  0  0  0
 23 64  1  0  0  0  0
 24 25  2  0  0  0  0
 24 57  1  0  0  0  0
 25 70  1  0  0  0  0
 26 84  1  0  0  0  0
 27 85  1  0  0  0  0
 28 30  2  0  0  0  0
 28 84  1  0  0  0  0
 29 86  1  0  0  0  0
 30 87  1  0  0  0  0
 31 88  1  0  0  0  0
 32 68  2  0  0  0  0
 33 69  1  0  0  0  0
 33 73  1  0  0  0  0
 34 35  2  0  0  0  0
 34 44  1  0  0  0  0
 34 70  1  0  0  0  0
 35 58  1  0  0  0  0
 36 74  1  0  0  0  0
 36 79  2  0  0  0  0
 37 54  1  0  0  0  0
 37 75  1  0  0  0  0
 37 80  2  0  0  0  0
 38 65  1  0  0  0  0
 38 71  1  0  0  0  0
 38 81  2  0  0  0  0
 39 66  1  0  0  0  0
 39 76  1  0  0  0  0
 39 82  2  0  0  0  0
 40 72  1  0  0  0  0
 40 77  1  0  0  0  0
 40 83  2  0  0  0  0
 41 45  1  0  0  0  0
 42 54  1  0  0  0  0
 43 71  1  0  0  0  0
 44 46  1  0  0  0  0
 45 48  1  0  0  0  0
 46 56  1  0  0  0  0
 47 49  1  0  0  0  0
 47 50  1  0  0  0  0
 48 53  1  0  0  0  0
 49 55  1  0  0  0  0
 50 72  1  0  0  0  0
 51 55  1  0  0  0  0
 51 72  1  0  0  0  0
 52 56  1  0  0  0  0
 52 70  1  0  0  0  0
 53 75  1  0  0  0  0
 54 71  1  0  0  0  0
 55 69  1  0  0  0  0
 56 85  1  0  0  0  0
 59 66  1  0  0  0  0
 60 67  1  0  0  0  0
 61 67  1  0  0  0  0
 62 67  1  0  0  0  0
 63 78  1  0  0  0  0
 64 77  1  0  0  0  0
 65 67  1  0  0  0  0
 65 76  1  0  0  0  0
 66 78  1  0  0  0  0
 68 69  1  0  0  0  0
M  CHG  1  78   1
M  ISO  4  40 100  56 101  77 100  85 101
M  END
> <Batch ID>
0035

> <Smiles>
CC=C1CC[101CH:1]([101O:1]c2ccc3c(c2)CN(C(=O)C(NC(=O)C(C)NC)C(C)(C)C)C(C(=O)NC2CCCc4ccccc42)C3)CN1c1cc(Cl)cc(C[100NH:0][100C:0](=O)N2CCCC(n3nc(-c4ccc(Oc5ccc(F)cc5F)cc4)c(C(N)=O)c3N)C2)c1C

> <Shape>
0.206

> <Color>
0.125

> <Negative vol penalty>
0.000

$$$$

  -OEChem-04042321513D

 92101  0     1  0  0  0  0  0999 V2000
  -25.2393  -11.3624   20.5064 C   0  0  0  0  0  0  0  0  0  0  0  0
  -24.6545  -12.1193   19.4962 C   0  0  0  0  0  0  0  0  0  0  0  0
  -19.0024  -20.8820   21.6965 C   0  0  0  0  0  0  0  0  0  0  0  0
  -21.1370  -21.2404   20.6230 C   0  0  0  0  0  0  0  0  0  0  0  0
  -25.7295  -11.9897   21.6510 C   0  0  0  0  0  0  0  0  0  0  0  0
  -24.5585  -13.5039   19.6306 C   0  0  0  0  0  0  0  0  0  0  0  0
  -24.6773  -19.5129   15.7325 C   0  0  0  0  0  0  0  0  0  0  0  0
  -18.7499  -19.8126   20.8373 C   0  0  0  0  0  0  0  0  0  0  0  0
  -20.8844  -20.1710   19.7639 C   0  0  0  0  0  0  0  0  0  0  0  0
  -23.9306  -20.6697   15.5137 C   0  0  0  0  0  0  0  0  0  0  0  0
  -19.0700  -19.5948   16.9698 C   0  0  0  0  0  0  0  0  0  0  0  0
  -19.3453  -19.7736   15.6142 C   0  0  0  0  0  0  0  0  0  0  0  0
  -25.4531  -29.0032   20.4572 C   0  0  0  0  0  0  0  0  0  0  0  0
  -24.8832  -21.6530   17.5000 C   0  0  0  0  0  0  0  0  0  0  0  0
  -24.2149  -28.3319   18.4942 C   0  0  0  0  0  0  0  0  0  0  0  0
  -20.9205  -17.9434   15.6927 C   0  0  0  0  0  0  0  0  0  0  0  0
  -20.1960  -21.5959   21.5893 C   0  0  0  0  0  0  0  0  0  0  0  0
  -26.5832  -28.3479   19.9685 C   0  0  0  0  0  0  0  0  0  0  0  0
  -21.0960  -22.6524   23.7298 C   0  0  0  0  0  0  0  0  0  0  0  0
  -25.6481  -13.3837   21.7952 C   0  0  0  0  0  0  0  0  0  0  0  0
  -25.5258  -19.4130   16.8446 C   0  0  0  0  0  0  0  0  0  0  0  0
  -25.0468  -14.1503   20.7788 C   0  0  0  0  0  0  0  0  0  0  0  0
  -25.6415  -20.4948   17.7292 C   0  0  0  0  0  0  0  0  0  0  0  0
  -24.2689  -28.9952   19.7201 C   0  0  0  0  0  0  0  0  0  0  0  0
  -25.3451  -27.6765   18.0055 C   0  0  0  0  0  0  0  0  0  0  0  0
  -26.5292  -27.6845   18.7427 C   0  0  0  0  0  0  0  0  0  0  0  0
  -19.6909  -19.4571   19.8710 C   0  0  0  0  0  0  0  0  0  0  0  0
  -24.0313  -21.7389   16.3991 C   0  0  0  0  0  0  0  0  0  0  0  0
  -19.7199  -18.5903   17.6870 C   0  0  0  0  0  0  0  0  0  0  0  0
  -20.2706  -18.9479   14.9756 C   0  0  0  0  0  0  0  0  0  0  0  0
  -20.6451  -17.7646   17.0484 C   0  0  0  0  0  0  0  0  0  0  0  0
  -20.4572  -22.7011   22.4762 C   0  0  0  0  0  0  0  0  0  0  0  0
  -21.0972  -23.9551   24.1653 C   0  0  0  0  0  0  0  0  0  0  0  0
  -23.7236  -26.1653   14.9858 C   0  0  0  0  0  0  0  0  0  0  0  0
  -23.5423  -27.1601   14.1101 C   0  0  0  0  0  0  0  0  0  0  0  0
  -27.8057  -28.3737   20.7606 C   0  0  0  0  0  0  0  0  0  0  0  0
  -21.6397  -21.5301   24.4372 C   0  0  0  0  0  0  0  0  0  0  0  0
  -25.6708  -17.5180   19.3924 C   0  0  0  0  0  0  0  0  0  0  0  0
  -28.4427  -19.1126   19.9363 C   0  0  0  0  0  0  0  0  0  0  0  0
  -30.3105  -21.9266   19.4464 C   0  0  0  0  0  0  0  0  0  0  0  0
  -20.8707  -29.2106   21.3054 C   0  0  0  0  0  0  0  0  0  0  0  0
  -26.1492  -14.0119   23.0715 C   0  0  0  0  0  0  0  0  0  0  0  0
  -26.3448  -18.1686   17.0518 C   0  0  0  0  0  0  0  0  0  0  0  0
  -26.5533  -20.4456   18.9270 C   0  0  0  0  0  0  0  0  0  0  0  0
  -23.6836  -24.7041   14.6678 C   0  0  0  0  0  0  0  0  0  0  0  0
  -26.3468  -15.5222   22.9703 C   0  0  0  0  0  0  0  0  0  0  0  0
  -18.6163  -28.0293   23.7952 C   0  0  0  0  0  0  0  0  0  0  0  0
  -25.1384  -16.1755   22.3072 C   0  0  0  0  0  0  0  0  0  0  0  0
  -18.8901  -26.5254   23.8526 C   0  0  0  0  0  0  0  0  0  0  0  0
  -18.7284  -28.5694   22.3712 C   0  0  0  0  0  0  0  0  0  0  0  0
  -20.2713  -26.7523   21.7456 C   0  0  0  0  0  0  0  0  0  0  0  0
  -23.5924  -25.1138   17.0423 C   0  0  0  0  0  0  0  0  0  0  0  0
  -24.9467  -15.6571   20.8768 C   0  0  1  0  0  0  0  0  0  0  0  0
  -26.7877  -17.9789   18.4993 C   0  0  1  0  0  0  0  0  0  0  0  0
  -20.2249  -26.1720   23.1694 C   0  0  2  0  0  0  0  0  0  0  0  0
  -24.0227  -24.0766   16.0138 C   0  0  1  0  0  0  0  0  0  1  0  0
  -27.7398  -26.9805   18.2155 C   0  0  0  0  0  0  0  0  0  0  0  0
  -23.5904  -28.6068   14.4695 C   0  0  0  0  0  0  0  0  0  0  0  0
  -30.7408  -27.1290   21.1528 C   0  0  0  0  0  0  0  0  0  0  0  0
  -32.5197  -22.9540   20.0474 C   0  0  0  0  0  0  0  0  0  0  0  0
  -27.3892  -19.7372   22.7309 C   0  0  0  0  0  0  0  0  0  0  0  0
  -29.1499  -21.5066   22.9235 C   0  0  0  0  0  0  0  0  0  0  0  0
  -29.8105  -19.1175   22.6432 C   0  0  0  0  0  0  0  0  0  0  0  0
  -31.1480  -22.0667   16.6113 C   0  0  0  0  0  0  0  0  0  0  0  0
  -23.0603  -29.6956   20.2426 C   0  0  0  0  0  0  0  0  0  0  0  0
  -25.2602  -26.9705   16.6844 C   0  0  0  0  0  0  0  0  0  0  0  0
  -29.5084  -27.0014   21.9820 C   0  0  0  0  0  0  0  0  0  0  0  0
  -28.8248  -20.3694   20.6803 C   0  0  1  0  0  0  0  0  0  0  0  0
  -31.7589  -22.1148   19.0327 C   0  0  2  0  0  0  0  0  0  0  0  0
  -28.7749  -20.1832   22.2231 C   0  0  0  0  0  0  0  0  0  0  0  0
  -20.0799  -23.9367   22.1374 N   0  0  0  0  0  0  0  0  0  0  0  0
  -20.4827  -24.6766   23.1845 N   0  0  0  0  0  0  0  0  0  0  0  0
  -27.3287  -19.2047   19.0900 N   0  0  0  0  0  0  0  0  0  0  0  0
  -20.0175  -28.2011   21.7809 N   0  0  0  0  0  0  0  0  0  0  0  0
  -21.5639  -24.5422   25.2877 N   0  0  0  0  0  0  0  0  0  0  0  0
  -21.5543  -20.2624   23.8458 N   0  0  0  0  0  0  0  0  0  0  0  0
  -28.3189  -27.1397   21.1729 N   0  0  0  0  0  0  0  0  0  0  0  0
  -25.8919  -16.2870   19.9800 N   0  0  0  0  0  0  0  0  0  0  0  0
  -30.1323  -20.7654   20.1682 N   0  0  0  0  0  0  0  0  0  0  0  0
  -22.0755  -28.7758   20.7670 N   0  0  0  0  0  0  0  0  0  0  0  0
  -23.8850  -26.4461   16.3846 N   0  3  1  0  0  0  0  0  0  0  0  0
  -31.8353  -22.7948   17.7088 N   0  3  0  0  0  0  0  0  0  0  0  0
  -28.3376  -29.4557   21.0609 O   0  0  0  0  0  0  0  0  0  0  0  0
  -22.1705  -21.6456   25.5679 O   0  0  0  0  0  0  0  0  0  0  0  0
  -24.6823  -18.2273   19.5388 O   0  0  0  0  0  0  0  0  0  0  0  0
  -29.1125  -18.0889   20.0946 O   0  0  0  0  0  0  0  0  0  0  0  0
  -29.4263  -22.7312   19.1611 O   0  0  0  0  0  0  0  0  0  0  0  0
  -20.5824  -30.4109   21.3617 O   0  0  0  0  0  0  0  0  0  0  0  0
  -19.4449  -18.4135   19.0326 O   0  0  0  0  0  0  0  0  0  0  0  0
  -23.3030  -22.8690   16.1883 O   0  0  0  0  0  0  0  0  0  1  0  0
  -20.5337  -19.1188   13.6734 F   0  0  0  0  0  0  0  0  0  0  0  0
  -21.2718  -16.7971   17.7318 F   0  0  0  0  0  0  0  0  0  0  0  0
  1  2  1  0  0  0  0
  1  5  2  0  0  0  0
  2  6  2  0  0  0  0
  3  8  2  0  0  0  0
  3 17  1  0  0  0  0
  4  9  1  0  0  0  0
  4 17  2  0  0  0  0
  5 20  1  0  0  0  0
  6 22  1  0  0  0  0
  7 10  2  0  0  0  0
  7 21  1  0  0  0  0
  8 27  1  0  0  0  0
  9 27  2  0  0  0  0
 10 28  1  0  0  0  0
 11 12  2  0  0  0  0
 11 29  1  0  0  0  0
 12 30  1  0  0  0  0
 13 18  2  0  0  0  0
 13 24  1  0  0  0  0
 14 23  1  0  0  0  0
 14 28  2  0  0  0  0
 15 24  2  0  0  0  0
 15 25  1  0  0  0  0
 16 30  2  0  0  0  0
 16 31  1  0  0  0  0
 17 32  1  0  0  0  0
 18 26  1  0  0  0  0
 18 36  1  0  0  0  0
 19 32  1  0  0  0  0
 19 33  2  0  0  0  0
 19 37  1  0  0  0  0
 20 22  2  0  0  0  0
 20 42  1  0  0  0  0
 21 23  2  0  0  0  0
 21 43  1  0  0  0  0
 22 53  1  0  0  0  0
 23 44  1  0  0  0  0
 24 65  1  0  0  0  0
 25 26  2  0  0  0  0
 25 66  1  0  0  0  0
 26 57  1  0  0  0  0
 27 89  1  0  0  0  0
 28 90  1  0  0  0  0
 29 31  2  0  0  0  0
 29 89  1  0  0  0  0
 30 91  1  0  0  0  0
 31 92  1  0  0  0  0
 32 71  2  0  0  0  0
 33 72  1  0  0  0  0
 33 75  1  0  0  0  0
 34 35  2  0  0  0  0
 34 45  1  0  0  0  0
 34 81  1  0  0  0  0
 35 58  1  0  0  0  0
 36 77  1  0  0  0  0
 36 83  2  0  0  0  0
 37 76  1  0  0  0  0
 37 84  2  0  0  0  0
 38 54  1  0  0  0  0
 38 78  1  0  0  0  0
 38 85  2  0  0  0  0
 39 68  1  0  0  0  0
 39 73  1  0  0  0  0
 39 86  2  0  0  0  0
 40 69  1  0  0  0  0
 40 79  1  0  0  0  0
 40 87  2  0  0  0  0
 41 74  1  0  0  0  0
 41 80  1  0  0  0  0
 41 88  2  0  0  0  0
 42 46  1  0  0  0  0
 43 54  1  0  0  0  0
 44 73  1  0  0  0  0
 45 56  1  0  0  0  0
 46 48  1  0  0  0  0
 47 49  1  0  0  0  0
 47 50  1  0  0  0  0
 48 53  1  0  0  0  0
 49 55  1  0  0  0  0
 50 74  1  0  0  0  0
 51 55  1  0  0  0  0
 51 74  1  0  0  0  0
 52 56  1  0  0  0  0
 52 81  1  0  0  0  0
 53 78  1  0  0  0  0
 54 73  1  0  0  0  0
 55 72  1  0  0  0  0
 56 90  1  0  0  0  0
 59 67  1  0  0  0  0
 60 69  1  0  0  0  0
 61 70  1  0  0  0  0
 62 70  1  0  0  0  0
 63 70  1  0  0  0  0
 64 82  1  0  0  0  0
 65 80  1  0  0  0  0
 66 81  1  0  0  0  0
 67 77  1  0  0  0  0
 68 70  1  0  0  0  0
 68 79  1  0  0  0  0
 69 82  1  0  0  0  0
 71 72  1  0  0  0  0
M  CHG  2  81   1  82   1
M  ISO  4  41 100  56 101  80 100  90 101
M  END
> <Batch ID>
0035

> <Smiles>
CC=C1C[101CH:1]([101O:1]c2ccc3c(c2)CN(C(=O)C(NC(=O)C(C)NC)C(C)(C)C)C(C(=O)NC2CCCc4ccccc42)C3)CN1Cc1cc(C[100NH:0][100C:0](=O)N2CCCC(n3nc(-c4ccc(Oc5ccc(F)cc5F)cc4)c(C(N)=O)c3N)C2)cc(C(=O)NCC)c1C

> <Shape>
0.176

> <Color>
0.058

> <Negative vol penalty>
0.000

$$$$

  -OEChem-04042321513D

 87 96  0     1  0  0  0  0  0999 V2000
  -24.5148  -10.9339   17.6130 C   0  0  0  0  0  0  0  0  0  0  0  0
  -23.8439  -12.1341   17.4011 C   0  0  0  0  0  0  0  0  0  0  0  0
  -28.6276  -26.5328   16.9163 C   0  0  0  0  0  0  0  0  0  0  0  0
  -28.3218  -25.1481   18.8723 C   0  0  0  0  0  0  0  0  0  0  0  0
  -25.1961  -10.7194   18.8104 C   0  0  0  0  0  0  0  0  0  0  0  0
  -23.8528  -13.1200   18.3871 C   0  0  0  0  0  0  0  0  0  0  0  0
  -23.8022  -20.2414   19.1619 C   0  0  0  0  0  0  0  0  0  0  0  0
  -18.2415  -26.1720   22.3136 C   0  0  0  0  0  0  0  0  0  0  0  0
  -29.8294  -25.8800   16.6420 C   0  0  0  0  0  0  0  0  0  0  0  0
  -29.5235  -24.4952   18.5980 C   0  0  0  0  0  0  0  0  0  0  0  0
  -23.1052  -21.2472   19.8299 C   0  0  0  0  0  0  0  0  0  0  0  0
  -30.8164  -22.9491   15.2750 C   0  0  0  0  0  0  0  0  0  0  0  0
  -31.0551  -22.5569   13.9579 C   0  0  0  0  0  0  0  0  0  0  0  0
  -17.9999  -27.3688   21.6391 C   0  0  0  0  0  0  0  0  0  0  0  0
  -24.3816  -20.7973   21.8268 C   0  0  0  0  0  0  0  0  0  0  0  0
  -33.0366  -23.9382   13.9057 C   0  0  0  0  0  0  0  0  0  0  0  0
  -27.8739  -26.1669   18.0315 C   0  0  0  0  0  0  0  0  0  0  0  0
  -25.3484  -26.4848   17.8627 C   0  0  0  0  0  0  0  0  0  0  0  0
  -25.2215  -11.7070   19.8077 C   0  0  0  0  0  0  0  0  0  0  0  0
  -24.7883  -19.4974   19.8257 C   0  0  0  0  0  0  0  0  0  0  0  0
  -24.5339  -12.9180   19.5996 C   0  0  0  0  0  0  0  0  0  0  0  0
  -25.0915  -19.7844   21.1642 C   0  0  0  0  0  0  0  0  0  0  0  0
  -19.2547  -26.1025   23.2698 C   0  0  0  0  0  0  0  0  0  0  0  0
  -20.0264  -27.2299   23.5514 C   0  0  0  0  0  0  0  0  0  0  0  0
  -19.7848  -28.4267   22.8769 C   0  0  0  0  0  0  0  0  0  0  0  0
  -30.2773  -24.8611   17.4829 C   0  0  0  0  0  0  0  0  0  0  0  0
  -23.3928  -21.5234   21.1633 C   0  0  0  0  0  0  0  0  0  0  0  0
  -31.6877  -23.8359   15.9075 C   0  0  0  0  0  0  0  0  0  0  0  0
  -32.1652  -23.0514   13.2733 C   0  0  0  0  0  0  0  0  0  0  0  0
  -32.7979  -24.3304   15.2229 C   0  0  0  0  0  0  0  0  0  0  0  0
  -18.7716  -28.4961   21.9207 C   0  0  0  0  0  0  0  0  0  0  0  0
  -26.6327  -26.8413   18.3157 C   0  0  0  0  0  0  0  0  0  0  0  0
  -24.5171  -27.4338   18.4056 C   0  0  0  0  0  0  0  0  0  0  0  0
  -20.9115  -22.8222   24.1600 C   0  0  0  0  0  0  0  0  0  0  0  0
  -21.2324  -22.7710   25.4582 C   0  0  0  0  0  0  0  0  0  0  0  0
  -24.9430  -25.3932   17.0261 C   0  0  0  0  0  0  0  0  0  0  0  0
  -25.1668  -16.4286   20.5627 C   0  0  0  0  0  0  0  0  0  0  0  0
  -28.0802  -17.4333   21.5752 C   0  0  0  0  0  0  0  0  0  0  0  0
  -30.0321  -19.9991   22.6947 C   0  0  0  0  0  0  0  0  0  0  0  0
  -22.8708  -30.5667   22.7207 C   0  0  0  0  0  0  0  0  0  0  0  0
  -25.9317  -11.4108   21.1048 C   0  0  0  0  0  0  0  0  0  0  0  0
  -25.5498  -18.4337   19.0833 C   0  0  0  0  0  0  0  0  0  0  0  0
  -26.1552  -19.0282   21.9161 C   0  0  0  0  0  0  0  0  0  0  0  0
  -20.9222  -21.6604   23.2163 C   0  0  0  0  0  0  0  0  0  0  0  0
  -26.2061  -12.6542   21.9467 C   0  0  0  0  0  0  0  0  0  0  0  0
  -25.5799  -31.7842   20.7574 C   0  0  0  0  0  0  0  0  0  0  0  0
  -24.9603  -13.5308   22.0262 C   0  0  0  0  0  0  0  0  0  0  0  0
  -25.9930  -30.5761   19.9149 C   0  0  0  0  0  0  0  0  0  0  0  0
  -25.1462  -31.3709   22.1620 C   0  0  0  0  0  0  0  0  0  0  0  0
  -24.5095  -29.1277   21.3641 C   0  0  0  0  0  0  0  0  0  0  0  0
  -20.6545  -23.7320   22.0172 C   0  0  0  0  0  0  0  0  0  0  0  0
  -24.5413  -14.0215   20.6351 C   0  0  1  0  0  0  0  0  0  0  0  0
  -26.1759  -17.3928   20.0063 C   0  0  1  0  0  0  0  0  0  0  0  0
  -24.9018  -29.4886   19.9211 C   0  0  2  0  0  0  0  0  0  0  0  0
  -21.3009  -22.3574   21.9189 C   0  0  1  0  0  0  0  0  0  1  0  0
  -21.1122  -27.1514   24.5778 C   0  0  0  0  0  0  0  0  0  0  0  0
  -32.1157  -21.1937   23.4220 C   0  0  0  0  0  0  0  0  0  0  0  0
  -27.4631  -16.1168   24.2578 C   0  0  0  0  0  0  0  0  0  0  0  0
  -29.3392  -17.4382   25.2589 C   0  0  0  0  0  0  0  0  0  0  0  0
  -29.8063  -15.7870   23.4484 C   0  0  0  0  0  0  0  0  0  0  0  0
  -30.6885  -20.7875   19.9186 C   0  0  0  0  0  0  0  0  0  0  0  0
  -20.6211  -29.6291   23.1886 C   0  0  0  0  0  0  0  0  0  0  0  0
  -19.4916  -24.8031   23.9813 C   0  0  0  0  0  0  0  0  0  0  0  0
  -28.6380  -17.9552   22.8773 C   0  0  1  0  0  0  0  0  0  0  0  0
  -31.4183  -20.4630   22.2852 C   0  0  2  0  0  0  0  0  0  0  0  0
  -28.7902  -16.8374   23.9473 C   0  0  0  0  0  0  0  0  0  0  0  0
  -26.6231  -27.9319   19.0868 N   0  0  0  0  0  0  0  0  0  0  0  0
  -25.3227  -28.2688   19.1225 N   0  0  0  0  0  0  0  0  0  0  0  0
  -26.8677  -17.9934   21.1486 N   0  0  0  0  0  0  0  0  0  0  0  0
  -24.1088  -30.3386   22.0976 N   0  0  0  0  0  0  0  0  0  0  0  0
  -23.1829  -27.6273   18.3348 N   0  0  0  0  0  0  0  0  0  0  0  0
  -25.9256  -24.5119   16.5549 N   0  0  0  0  0  0  0  0  0  0  0  0
  -25.3906  -15.1123   20.2070 N   0  0  0  0  0  0  0  0  0  0  0  0
  -29.8841  -18.6366   22.5436 N   0  0  0  0  0  0  0  0  0  0  0  0
  -21.9416  -29.5399   22.6063 N   0  0  0  0  0  0  0  0  0  0  0  0
  -20.7170  -24.0853   23.5010 N   0  3  1  0  0  0  0  0  0  0  0  0
  -31.3322  -21.3844   21.1171 N   0  3  0  0  0  0  0  0  0  0  0  0
  -23.7471  -25.2146   16.6924 O   0  0  0  0  0  0  0  0  0  0  0  0
  -24.2536  -16.8478   21.2642 O   0  0  0  0  0  0  0  0  0  0  0  0
  -28.7010  -16.5658   20.9558 O   0  0  0  0  0  0  0  0  0  0  0  0
  -29.1683  -20.7680   23.1108 O   0  0  0  0  0  0  0  0  0  0  0  0
  -22.6107  -31.6104   23.3289 O   0  0  0  0  0  0  0  0  0  0  0  0
  -31.4498  -24.2237   17.2154 O   0  0  0  0  0  0  0  0  0  0  0  0
  -22.7134  -22.5042   21.8179 O   0  0  0  0  0  0  0  0  0  1  0  0
  -32.3952  -22.6735   12.0089 F   0  0  0  0  0  0  0  0  0  0  0  0
  -33.6392  -25.1817   15.8256 F   0  0  0  0  0  0  0  0  0  0  0  0
  -18.4410  -29.9582   21.0641 Cl  0  0  0  0  0  0  0  0  0  0  0  0
  1  2  1  0  0  0  0
  1  5  2  0  0  0  0
  2  6  2  0  0  0  0
  3  9  2  0  0  0  0
  3 17  1  0  0  0  0
  4 10  1  0  0  0  0
  4 17  2  0  0  0  0
  5 19  1  0  0  0  0
  6 21  1  0  0  0  0
  7 11  2  0  0  0  0
  7 20  1  0  0  0  0
  8 14  2  0  0  0  0
  8 23  1  0  0  0  0
  9 26  1  0  0  0  0
 10 26  2  0  0  0  0
 11 27  1  0  0  0  0
 12 13  2  0  0  0  0
 12 28  1  0  0  0  0
 13 29  1  0  0  0  0
 14 31  1  0  0  0  0
 15 22  1  0  0  0  0
 15 27  2  0  0  0  0
 16 29  2  0  0  0  0
 16 30  1  0  0  0  0
 17 32  1  0  0  0  0
 18 32  1  0  0  0  0
 18 33  2  0  0  0  0
 18 36  1  0  0  0  0
 19 21  2  0  0  0  0
 19 41  1  0  0  0  0
 20 22  2  0  0  0  0
 20 42  1  0  0  0  0
 21 52  1  0  0  0  0
 22 43  1  0  0  0  0
 23 24  2  0  0  0  0
 23 63  1  0  0  0  0
 24 25  1  0  0  0  0
 24 56  1  0  0  0  0
 25 31  2  0  0  0  0
 25 62  1  0  0  0  0
 26 83  1  0  0  0  0
 27 84  1  0  0  0  0
 28 30  2  0  0  0  0
 28 83  1  0  0  0  0
 29 85  1  0  0  0  0
 30 86  1  0  0  0  0
 31 87  1  0  0  0  0
 32 67  2  0  0  0  0
 33 68  1  0  0  0  0
 33 71  1  0  0  0  0
 34 35  2  0  0  0  0
 34 44  1  0  0  0  0
 34 76  1  0  0  0  0
 36 72  1  0  0  0  0
 36 78  2  0  0  0  0
 37 53  1  0  0  0  0
 37 73  1  0  0  0  0
 37 79  2  0  0  0  0
 38 64  1  0  0  0  0
 38 69  1  0  0  0  0
 38 80  2  0  0  0  0
 39 65  1  0  0  0  0
 39 74  1  0  0  0  0
 39 81  2  0  0  0  0
 40 70  1  0  0  0  0
 40 75  1  0  0  0  0
 40 82  2  0  0  0  0
 41 45  1  0  0  0  0
 42 53  1  0  0  0  0
 43 69  1  0  0  0  0
 44 55  1  0  0  0  0
 45 47  1  0  0  0  0
 46 48  1  0  0  0  0
 46 49  1  0  0  0  0
 47 52  1  0  0  0  0
 48 54  1  0  0  0  0
 49 70  1  0  0  0  0
 50 54  1  0  0  0  0
 50 70  1  0  0  0  0
 51 55  1  0  0  0  0
 51 76  1  0  0  0  0
 52 73  1  0  0  0  0
 53 69  1  0  0  0  0
 54 68  1  0  0  0  0
 55 84  1  0  0  0  0
 57 65  1  0  0  0  0
 58 66  1  0  0  0  0
 59 66  1  0  0  0  0
 60 66  1  0  0  0  0
 61 77  1  0  0  0  0
 62 75  1  0  0  0  0
 63 76  1  0  0  0  0
 64 66  1  0  0  0  0
 64 74  1  0  0  0  0
 65 77  1  0  0  0  0
 67 68  1  0  0  0  0
M  CHG  2  76   1  77   1
M  ISO  4  40 100  55 101  75 100  84 101
M  END
> <Batch ID>
0035

> <Smiles>
C=C1C[101CH:1]([101O:1]c2ccc3c(c2)CN(C(=O)C(NC(=O)C(C)NC)C(C)(C)C)C(C(=O)NC2CCCc4ccccc42)C3)CN1Cc1ccc(Cl)c(C[100NH:0][100C:0](=O)N2CCCC(n3nc(-c4ccc(Oc5ccc(F)cc5F)cc4)c(C(N)=O)c3N)C2)c1C

> <Shape>
0.182

> <Color>
0.087

> <Negative vol penalty>
0.000

$$$$

  -OEChem-04042321513D

 86 95  0     1  0  0  0  0  0999 V2000
  -26.2472  -37.7095   24.7405 C   0  0  0  0  0  0  0  0  0  0  0  0
  -26.2305  -37.1969   23.4483 C   0  0  0  0  0  0  0  0  0  0  0  0
  -27.3197  -16.5463   18.1605 C   0  0  0  0  0  0  0  0  0  0  0  0
  -27.6591  -17.1689   20.4701 C   0  0  0  0  0  0  0  0  0  0  0  0
  -26.3714  -36.8464   25.8271 C   0  0  0  0  0  0  0  0  0  0  0  0
  -26.3259  -35.8201   23.2428 C   0  0  0  0  0  0  0  0  0  0  0  0
  -26.7123  -28.9994   19.1743 C   0  0  0  0  0  0  0  0  0  0  0  0
  -27.9231  -17.7354   17.7513 C   0  0  0  0  0  0  0  0  0  0  0  0
  -28.2625  -18.3581   20.0609 C   0  0  0  0  0  0  0  0  0  0  0  0
  -27.0973  -27.6634   19.2764 C   0  0  0  0  0  0  0  0  0  0  0  0
  -29.6985  -20.4412   16.0954 C   0  0  0  0  0  0  0  0  0  0  0  0
  -30.6328  -20.3722   15.0621 C   0  0  0  0  0  0  0  0  0  0  0  0
  -25.6589  -27.4016   21.1951 C   0  0  0  0  0  0  0  0  0  0  0  0
  -20.9766  -21.2034   23.1327 C   0  0  0  0  0  0  0  0  0  0  0  0
  -23.3299  -19.7958   22.6195 C   0  0  0  0  0  0  0  0  0  0  0  0
  -31.9953  -18.8860   16.3934 C   0  0  0  0  0  0  0  0  0  0  0  0
  -27.1877  -16.2630   19.5200 C   0  0  0  0  0  0  0  0  0  0  0  0
  -26.9823  -13.7236   19.6488 C   0  0  0  0  0  0  0  0  0  0  0  0
  -26.4809  -35.4595   25.6334 C   0  0  0  0  0  0  0  0  0  0  0  0
  -25.8044  -29.5504   20.0901 C   0  0  0  0  0  0  0  0  0  0  0  0
  -26.4279  -34.9306   24.3277 C   0  0  0  0  0  0  0  0  0  0  0  0
  -25.2620  -28.7442   21.1010 C   0  0  0  0  0  0  0  0  0  0  0  0
  -22.1924  -21.8825   23.0539 C   0  0  0  0  0  0  0  0  0  0  0  0
  -20.9375  -19.8204   22.9550 C   0  0  0  0  0  0  0  0  0  0  0  0
  -23.3690  -21.1788   22.7973 C   0  0  0  0  0  0  0  0  0  0  0  0
  -22.1141  -19.1166   22.6984 C   0  0  0  0  0  0  0  0  0  0  0  0
  -28.3945  -18.6413   18.7014 C   0  0  0  0  0  0  0  0  0  0  0  0
  -26.5729  -26.8650   20.2886 C   0  0  0  0  0  0  0  0  0  0  0  0
  -29.9125  -19.7327   17.2778 C   0  0  0  0  0  0  0  0  0  0  0  0
  -31.7812  -19.5946   15.2110 C   0  0  0  0  0  0  0  0  0  0  0  0
  -31.0609  -18.9551   17.4267 C   0  0  0  0  0  0  0  0  0  0  0  0
  -26.5640  -15.0351   19.9434 C   0  0  0  0  0  0  0  0  0  0  0  0
  -26.0628  -12.9204   20.2781 C   0  0  0  0  0  0  0  0  0  0  0  0
  -28.1019  -13.2717   18.8755 C   0  0  0  0  0  0  0  0  0  0  0  0
  -25.9270  -31.8890   22.2394 C   0  0  0  0  0  0  0  0  0  0  0  0
  -22.7592  -31.2561   22.5346 C   0  0  0  0  0  0  0  0  0  0  0  0
  -20.6608  -28.3241   22.6659 C   0  0  0  0  0  0  0  0  0  0  0  0
  -23.1065  -16.7948   22.8153 C   0  0  0  0  0  0  0  0  0  0  0  0
  -26.6054  -34.5704   26.8455 C   0  0  0  0  0  0  0  0  0  0  0  0
  -25.3787  -30.9863   19.9502 C   0  0  0  0  0  0  0  0  0  0  0  0
  -24.2685  -29.2822   22.0970 C   0  0  0  0  0  0  0  0  0  0  0  0
  -27.1439  -33.1829   26.5124 C   0  0  0  0  0  0  0  0  0  0  0  0
  -21.4478  -13.5504   21.5548 C   0  0  0  0  0  0  0  0  0  0  0  0
  -25.2313  -22.5412   18.9790 C   0  0  0  0  0  0  0  0  0  0  0  0
  -26.3704  -32.5921   25.3431 C   0  0  0  0  0  0  0  0  0  0  0  0
  -22.7302  -13.1471   20.8379 C   0  0  0  0  0  0  0  0  0  0  0  0
  -26.2141  -23.7006   19.0756 C   0  0  0  0  0  0  0  0  0  0  0  0
  -21.4929  -15.0297   21.9277 C   0  0  0  0  0  0  0  0  0  0  0  0
  -23.7122  -14.3833   22.8707 C   0  0  0  0  0  0  0  0  0  0  0  0
  -25.1839  -21.7352   20.2693 C   0  0  0  0  0  0  0  0  0  0  0  0
  -25.8652  -23.7669   21.5723 C   0  0  0  0  0  0  0  0  0  0  0  0
  -26.5611  -33.4391   24.0785 C   0  0  1  0  0  0  0  0  0  0  0  0
  -24.8406  -31.5791   21.2488 C   0  0  1  0  0  0  0  0  0  0  0  0
  -23.9710  -13.3884   21.7208 C   0  0  2  0  0  0  0  0  0  0  0  0
  -25.9195  -24.5809   20.2861 C   0  0  1  0  0  0  0  0  0  1  0  0
  -22.2098  -23.3633   23.2480 C   0  0  0  0  0  0  0  0  0  0  0  0
  -19.6212  -19.1188   23.0447 C   0  0  0  0  0  0  0  0  0  0  0  0
  -18.2528  -28.0115   22.0322 C   0  0  0  0  0  0  0  0  0  0  0  0
  -22.2116  -31.8125   25.4843 C   0  0  0  0  0  0  0  0  0  0  0  0
  -20.4153  -30.0702   25.4076 C   0  0  0  0  0  0  0  0  0  0  0  0
  -20.2343  -32.1093   23.9821 C   0  0  0  0  0  0  0  0  0  0  0  0
  -21.3137  -26.1026   20.8227 C   0  0  0  0  0  0  0  0  0  0  0  0
  -24.6883  -21.8877   22.7083 C   0  0  0  0  0  0  0  0  0  0  0  0
  -21.9293  -30.3294   23.3898 C   0  0  1  0  0  0  0  0  0  0  0  0
  -19.6993  -27.8459   21.5929 C   0  0  2  0  0  0  0  0  0  0  0  0
  -21.2244  -31.0739   24.5586 C   0  0  0  0  0  0  0  0  0  0  0  0
  -25.4643  -15.0677   20.7008 N   0  0  0  0  0  0  0  0  0  0  0  0
  -25.1838  -13.7667   20.8874 N   0  0  0  0  0  0  0  0  0  0  0  0
  -23.8884  -30.6938   21.9224 N   0  0  0  0  0  0  0  0  0  0  0  0
  -22.7751  -15.4507   22.5112 N   0  0  0  0  0  0  0  0  0  0  0  0
  -25.9286  -11.5799   20.3642 N   0  0  0  0  0  0  0  0  0  0  0  0
  -29.3224  -13.0561   19.5298 N   0  0  0  0  0  0  0  0  0  0  0  0
  -22.0949  -17.7109   22.5147 N   0  0  0  0  0  0  0  0  0  0  0  0
  -25.6530  -32.9703   23.0550 N   0  0  0  0  0  0  0  0  0  0  0  0
  -21.0168  -29.6434   22.4815 N   0  0  0  0  0  0  0  0  0  0  0  0
  -24.8609  -22.6524   21.4248 N   0  3  2  0  0  0  0  0  0  0  0  0
  -19.9364  -26.4063   21.2892 N   0  3  0  0  0  0  0  0  0  0  0  0
  -28.0266  -13.0810   17.6379 O   0  0  0  0  0  0  0  0  0  0  0  0
  -26.9383  -31.1974   22.2631 O   0  0  0  0  0  0  0  0  0  0  0  0
  -22.4143  -32.4337   22.4084 O   0  0  0  0  0  0  0  0  0  0  0  0
  -21.0536  -27.6008   23.5786 O   0  0  0  0  0  0  0  0  0  0  0  0
  -24.1965  -17.0984   23.3046 O   0  0  0  0  0  0  0  0  0  0  0  0
  -28.9835  -19.8016   18.3024 O   0  0  0  0  0  0  0  0  0  0  0  0
  -26.9476  -25.5607   20.3908 O   0  0  0  0  0  0  0  0  0  1  0  0
  -32.6777  -19.5271   14.2181 F   0  0  0  0  0  0  0  0  0  0  0  0
  -31.2714  -18.2713   18.5598 F   0  0  0  0  0  0  0  0  0  0  0  0
  1  2  1  0  0  0  0
  1  5  2  0  0  0  0
  2  6  2  0  0  0  0
  3  8  2  0  0  0  0
  3 17  1  0  0  0  0
  4  9  1  0  0  0  0
  4 17  2  0  0  0  0
  5 19  1  0  0  0  0
  6 21  1  0  0  0  0
  7 10  2  0  0  0  0
  7 20  1  0  0  0  0
  8 27  1  0  0  0  0
  9 27  2  0  0  0  0
 10 28  1  0  0  0  0
 11 12  2  0  0  0  0
 11 29  1  0  0  0  0
 12 30  1  0  0  0  0
 13 22  1  0  0  0  0
 13 28  2  0  0  0  0
 14 23  1  0  0  0  0
 14 24  2  0  0  0  0
 15 25  1  0  0  0  0
 15 26  2  0  0  0  0
 16 30  2  0  0  0  0
 16 31  1  0  0  0  0
 17 32  1  0  0  0  0
 18 32  1  0  0  0  0
 18 33  2  0  0  0  0
 18 34  1  0  0  0  0
 19 21  2  0  0  0  0
 19 39  1  0  0  0  0
 20 22  2  0  0  0  0
 20 40  1  0  0  0  0
 21 52  1  0  0  0  0
 22 41  1  0  0  0  0
 23 25  2  0  0  0  0
 23 56  1  0  0  0  0
 24 26  1  0  0  0  0
 24 57  1  0  0  0  0
 25 63  1  0  0  0  0
 26 73  1  0  0  0  0
 27 83  1  0  0  0  0
 28 84  1  0  0  0  0
 29 31  2  0  0  0  0
 29 83  1  0  0  0  0
 30 85  1  0  0  0  0
 31 86  1  0  0  0  0
 32 67  2  0  0  0  0
 33 68  1  0  0  0  0
 33 71  1  0  0  0  0
 34 72  1  0  0  0  0
 34 78  2  0  0  0  0
 35 53  1  0  0  0  0
 35 74  1  0  0  0  0
 35 79  2  0  0  0  0
 36 64  1  0  0  0  0
 36 69  1  0  0  0  0
 36 80  2  0  0  0  0
 37 65  1  0  0  0  0
 37 75  1  0  0  0  0
 37 81  2  0  0  0  0
 38 70  1  0  0  0  0
 38 73  1  0  0  0  0
 38 82  2  0  0  0  0
 39 42  1  0  0  0  0
 40 53  1  0  0  0  0
 41 69  1  0  0  0  0
 42 45  1  0  0  0  0
 43 46  1  0  0  0  0
 43 48  1  0  0  0  0
 44 47  1  0  0  0  0
 44 50  1  0  0  0  0
 45 52  1  0  0  0  0
 46 54  1  0  0  0  0
 47 55  1  0  0  0  0
 48 70  1  0  0  0  0
 49 54  1  0  0  0  0
 49 70  1  0  0  0  0
 50 76  1  0  0  0  0
 51 55  1  0  0  0  0
 51 76  1  0  0  0  0
 52 74  1  0  0  0  0
 53 69  1  0  0  0  0
 54 68  1  0  0  0  0
 55 84  1  0  0  0  0
 58 65  1  0  0  0  0
 59 66  1  0  0  0  0
 60 66  1  0  0  0  0
 61 66  1  0  0  0  0
 62 77  1  0  0  0  0
 63 76  1  0  0  0  0
 64 66  1  0  0  0  0
 64 75  1  0  0  0  0
 65 77  1  0  0  0  0
 67 68  1  0  0  0  0
M  CHG  2  76   1  77   1
M  ISO  4  38 100  55 101  73 100  84 101
M  END
> <Batch ID>
0035

> <Smiles>
CNC(C)C(=O)NC(C(=O)N1Cc2cc([101O:1][101CH:1]3CCCN(Cc4cc([100NH:0][100C:0](=O)N5CCCC(n6nc(-c7ccc(Oc8ccc(F)cc8F)cc7)c(C(N)=O)c6N)C5)c(C)cc4C)C3)ccc2CC1C(=O)NC1CCCc2ccccc21)C(C)(C)C

> <Shape>
0.266

> <Color>
0.093

> <Negative vol penalty>
0.000

$$$$

  -OEChem-04042321513D

 85 94  0     1  0  0  0  0  0999 V2000
  -24.9152  -35.4343   22.0210 C   0  0  0  0  0  0  0  0  0  0  0  0
  -25.6560  -34.2577   21.9716 C   0  0  0  0  0  0  0  0  0  0  0  0
  -23.3900  -12.5898   23.6748 C   0  0  0  0  0  0  0  0  0  0  0  0
  -25.1054  -10.8991   23.8640 C   0  0  0  0  0  0  0  0  0  0  0  0
  -23.6185  -35.4193   22.5331 C   0  0  0  0  0  0  0  0  0  0  0  0
  -25.1007  -33.0656   22.4352 C   0  0  0  0  0  0  0  0  0  0  0  0
  -25.9487  -29.1793   19.3012 C   0  0  0  0  0  0  0  0  0  0  0  0
  -30.6355  -19.9727   20.4350 C   0  0  0  0  0  0  0  0  0  0  0  0
  -30.3893  -18.6475   20.0760 C   0  0  0  0  0  0  0  0  0  0  0  0
  -22.9937  -12.3347   24.9876 C   0  0  0  0  0  0  0  0  0  0  0  0
  -24.7091  -10.6439   25.1769 C   0  0  0  0  0  0  0  0  0  0  0  0
  -27.2144  -28.5958   19.3384 C   0  0  0  0  0  0  0  0  0  0  0  0
  -22.2396   -8.9533   26.7497 C   0  0  0  0  0  0  0  0  0  0  0  0
  -22.1112   -7.6205   27.1405 C   0  0  0  0  0  0  0  0  0  0  0  0
  -26.3467  -26.8156   20.7158 C   0  0  0  0  0  0  0  0  0  0  0  0
  -28.0240  -18.9916   20.4285 C   0  0  0  0  0  0  0  0  0  0  0  0
  -23.7858   -7.9599   28.8485 C   0  0  0  0  0  0  0  0  0  0  0  0
  -24.4459  -11.8720   23.1130 C   0  0  0  0  0  0  0  0  0  0  0  0
  -24.0725  -12.0112   20.5933 C   0  0  0  0  0  0  0  0  0  0  0  0
  -23.0436  -34.2246   22.9943 C   0  0  0  0  0  0  0  0  0  0  0  0
  -24.8731  -28.5901   19.9812 C   0  0  0  0  0  0  0  0  0  0  0  0
  -23.7956  -33.0349   22.9552 C   0  0  0  0  0  0  0  0  0  0  0  0
  -25.0678  -27.3922   20.6835 C   0  0  0  0  0  0  0  0  0  0  0  0
  -29.5760  -20.8073   20.7908 C   0  0  0  0  0  0  0  0  0  0  0  0
  -28.2703  -20.3168   20.7875 C   0  0  0  0  0  0  0  0  0  0  0  0
  -29.0835  -18.1570   20.0728 C   0  0  0  0  0  0  0  0  0  0  0  0
  -23.6532  -11.3617   25.7386 C   0  0  0  0  0  0  0  0  0  0  0  0
  -27.4142  -27.4154   20.0481 C   0  0  0  0  0  0  0  0  0  0  0  0
  -23.1412   -9.7894   27.4083 C   0  0  0  0  0  0  0  0  0  0  0  0
  -22.8843   -7.1238   28.1899 C   0  0  0  0  0  0  0  0  0  0  0  0
  -23.9142   -9.2927   28.4578 C   0  0  0  0  0  0  0  0  0  0  0  0
  -24.8554  -12.1348   21.7568 C   0  0  0  0  0  0  0  0  0  0  0  0
  -24.9160  -12.3739   19.5718 C   0  0  0  0  0  0  0  0  0  0  0  0
  -22.7051  -11.6050   20.4489 C   0  0  0  0  0  0  0  0  0  0  0  0
  -22.9585  -29.4864   22.3550 C   0  0  0  0  0  0  0  0  0  0  0  0
  -21.4295  -26.7142   21.6484 C   0  0  0  0  0  0  0  0  0  0  0  0
  -22.3633  -23.3341   20.7998 C   0  0  0  0  0  0  0  0  0  0  0  0
  -29.7692  -15.8511   19.3250 C   0  0  0  0  0  0  0  0  0  0  0  0
  -21.6557  -34.2668   23.5829 C   0  0  0  0  0  0  0  0  0  0  0  0
  -23.5081  -29.2177   19.9092 C   0  0  0  0  0  0  0  0  0  0  0  0
  -23.9415  -26.7090   21.4136 C   0  0  0  0  0  0  0  0  0  0  0  0
  -21.0049  -32.8916   23.7077 C   0  0  0  0  0  0  0  0  0  0  0  0
  -29.5554  -12.4235   18.3851 C   0  0  0  0  0  0  0  0  0  0  0  0
  -30.0235  -24.1503   17.8707 C   0  0  0  0  0  0  0  0  0  0  0  0
  -21.9828  -31.8914   24.3161 C   0  0  0  0  0  0  0  0  0  0  0  0
  -28.2515  -11.9508   19.0321 C   0  0  0  0  0  0  0  0  0  0  0  0
  -29.7377  -25.5528   18.3910 C   0  0  0  0  0  0  0  0  0  0  0  0
  -30.2975  -13.4236   19.2699 C   0  0  0  0  0  0  0  0  0  0  0  0
  -28.1945  -14.1004   20.3600 C   0  0  0  0  0  0  0  0  0  0  0  0
  -30.5054  -23.2263   18.9800 C   0  0  0  0  0  0  0  0  0  0  0  0
  -29.2521  -24.5903   20.6708 C   0  0  0  0  0  0  0  0  0  0  0  0
  -23.2191  -31.7172   23.4257 C   0  0  1  0  0  0  0  0  0  0  0  0
  -22.5998  -28.8066   21.0639 C   0  0  1  0  0  0  0  0  0  0  0  0
  -27.3794  -13.1412   19.4773 C   0  0  2  0  0  0  0  0  0  0  0  0
  -28.7681  -25.5230   19.5683 C   0  0  1  0  0  0  0  0  0  1  0  0
  -27.1201  -21.1925   21.1627 C   0  0  0  0  0  0  0  0  0  0  0  0
  -21.1447  -21.5899   19.4693 C   0  0  0  0  0  0  0  0  0  0  0  0
  -20.4013  -25.7764   24.3638 C   0  0  0  0  0  0  0  0  0  0  0  0
  -20.6239  -23.4174   23.5555 C   0  0  0  0  0  0  0  0  0  0  0  0
  -19.0574  -24.9841   22.4092 C   0  0  0  0  0  0  0  0  0  0  0  0
  -24.6490  -22.9791   18.9536 C   0  0  0  0  0  0  0  0  0  0  0  0
  -29.8658  -22.2287   21.1739 C   0  0  0  0  0  0  0  0  0  0  0  0
  -21.5498  -25.2804   22.1053 C   0  0  1  0  0  0  0  0  0  0  0  0
  -22.2203  -22.6647   19.4448 C   0  0  2  0  0  0  0  0  0  0  0  0
  -20.4305  -24.8821   23.1084 C   0  0  0  0  0  0  0  0  0  0  0  0
  -26.1005  -12.5438   21.4994 N   0  0  0  0  0  0  0  0  0  0  0  0
  -26.1065  -12.6804   20.1625 N   0  0  0  0  0  0  0  0  0  0  0  0
  -22.6268  -27.3648   21.3186 N   0  0  0  0  0  0  0  0  0  0  0  0
  -29.4103  -14.5255   19.6487 N   0  0  0  0  0  0  0  0  0  0  0  0
  -24.7481  -12.4572   18.2349 N   0  0  0  0  0  0  0  0  0  0  0  0
  -21.9833  -11.2666   21.6016 N   0  0  0  0  0  0  0  0  0  0  0  0
  -28.8327  -16.8114   19.7063 N   0  0  0  0  0  0  0  0  0  0  0  0
  -22.9124  -30.8662   22.2960 N   0  0  0  0  0  0  0  0  0  0  0  0
  -21.5839  -24.4675   20.8943 N   0  0  0  0  0  0  0  0  0  0  0  0
  -29.4941  -23.2155   20.1016 N   0  3  2  0  0  0  0  0  0  0  0  0
  -23.5078  -22.0320   19.0412 N   0  3  0  0  0  0  0  0  0  0  0  0
  -22.1450  -11.5281   19.3291 O   0  0  0  0  0  0  0  0  0  0  0  0
  -23.2537  -28.8092   23.3327 O   0  0  0  0  0  0  0  0  0  0  0  0
  -20.3135  -27.2353   21.5797 O   0  0  0  0  0  0  0  0  0  0  0  0
  -23.0907  -22.8933   21.6871 O   0  0  0  0  0  0  0  0  0  0  0  0
  -30.8164  -16.1124   18.7275 O   0  0  0  0  0  0  0  0  0  0  0  0
  -23.2669  -11.1126   27.0197 O   0  0  0  0  0  0  0  0  0  0  0  0
  -28.6488  -26.8441   20.0865 O   0  0  0  0  0  0  0  0  0  1  0  0
  -22.7597   -5.8442   28.5660 F   0  0  0  0  0  0  0  0  0  0  0  0
  -24.7812  -10.0915   29.0951 F   0  0  0  0  0  0  0  0  0  0  0  0
  1  2  1  0  0  0  0
  1  5  2  0  0  0  0
  2  6  2  0  0  0  0
  3 10  2  0  0  0  0
  3 18  1  0  0  0  0
  4 11  1  0  0  0  0
  4 18  2  0  0  0  0
  5 20  1  0  0  0  0
  6 22  1  0  0  0  0
  7 12  2  0  0  0  0
  7 21  1  0  0  0  0
  8  9  2  0  0  0  0
  8 24  1  0  0  0  0
  9 26  1  0  0  0  0
 10 27  1  0  0  0  0
 11 27  2  0  0  0  0
 12 28  1  0  0  0  0
 13 14  2  0  0  0  0
 13 29  1  0  0  0  0
 14 30  1  0  0  0  0
 15 23  1  0  0  0  0
 15 28  2  0  0  0  0
 16 25  1  0  0  0  0
 16 26  2  0  0  0  0
 17 30  2  0  0  0  0
 17 31  1  0  0  0  0
 18 32  1  0  0  0  0
 19 32  1  0  0  0  0
 19 33  2  0  0  0  0
 19 34  1  0  0  0  0
 20 22  2  0  0  0  0
 20 39  1  0  0  0  0
 21 23  2  0  0  0  0
 21 40  1  0  0  0  0
 22 52  1  0  0  0  0
 23 41  1  0  0  0  0
 24 25  2  0  0  0  0
 24 62  1  0  0  0  0
 25 56  1  0  0  0  0
 26 72  1  0  0  0  0
 27 82  1  0  0  0  0
 28 83  1  0  0  0  0
 29 31  2  0  0  0  0
 29 82  1  0  0  0  0
 30 84  1  0  0  0  0
 31 85  1  0  0  0  0
 32 66  2  0  0  0  0
 33 67  1  0  0  0  0
 33 70  1  0  0  0  0
 34 71  1  0  0  0  0
 34 77  2  0  0  0  0
 35 53  1  0  0  0  0
 35 73  1  0  0  0  0
 35 78  2  0  0  0  0
 36 63  1  0  0  0  0
 36 68  1  0  0  0  0
 36 79  2  0  0  0  0
 37 64  1  0  0  0  0
 37 74  1  0  0  0  0
 37 80  2  0  0  0  0
 38 69  1  0  0  0  0
 38 72  1  0  0  0  0
 38 81  2  0  0  0  0
 39 42  1  0  0  0  0
 40 53  1  0  0  0  0
 41 68  1  0  0  0  0
 42 45  1  0  0  0  0
 43 46  1  0  0  0  0
 43 48  1  0  0  0  0
 44 47  1  0  0  0  0
 44 50  1  0  0  0  0
 45 52  1  0  0  0  0
 46 54  1  0  0  0  0
 47 55  1  0  0  0  0
 48 69  1  0  0  0  0
 49 54  1  0  0  0  0
 49 69  1  0  0  0  0
 50 75  1  0  0  0  0
 51 55  1  0  0  0  0
 51 75  1  0  0  0  0
 52 73  1  0  0  0  0
 53 68  1  0  0  0  0
 54 67  1  0  0  0  0
 55 83  1  0  0  0  0
 57 64  1  0  0  0  0
 58 65  1  0  0  0  0
 59 65  1  0  0  0  0
 60 65  1  0  0  0  0
 61 76  1  0  0  0  0
 62 75  1  0  0  0  0
 63 65  1  0  0  0  0
 63 74  1  0  0  0  0
 64 76  1  0  0  0  0
 66 67  1  0  0  0  0
M  CHG  2  75   1  76   1
M  ISO  4  38 100  55 101  72 100  83 101
M  END
> <Batch ID>
0035

> <Smiles>
CNC(C)C(=O)NC(C(=O)N1Cc2cc([101O:1][101CH:1]3CCCN(Cc4ccc([100NH:0][100C:0](=O)N5CCCC(n6nc(-c7ccc(Oc8ccc(F)cc8F)cc7)c(C(N)=O)c6N)C5)cc4C)C3)ccc2CC1C(=O)NC1CCCc2ccccc21)C(C)(C)C

> <Shape>
0.258

> <Color>
0.091

> <Negative vol penalty>
0.000

$$$$

  -OEChem-04042321513D

 90 99  0     1  0  0  0  0  0999 V2000
  -27.5116  -16.5609   15.8723 C   0  0  0  0  0  0  0  0  0  0  0  0
  -27.1647  -17.0401   17.1314 C   0  0  0  0  0  0  0  0  0  0  0  0
  -23.0598   -9.8868   19.9363 C   0  0  0  0  0  0  0  0  0  0  0  0
  -23.8416   -9.8667   22.2222 C   0  0  0  0  0  0  0  0  0  0  0  0
  -27.8413  -17.4546   14.8541 C   0  0  0  0  0  0  0  0  0  0  0  0
  -27.1484  -18.4133   17.3734 C   0  0  0  0  0  0  0  0  0  0  0  0
  -23.0344  -19.8862   19.9329 C   0  0  0  0  0  0  0  0  0  0  0  0
  -22.3147   -8.7333   20.1810 C   0  0  0  0  0  0  0  0  0  0  0  0
  -23.0965   -8.7132   22.4669 C   0  0  0  0  0  0  0  0  0  0  0  0
  -23.0214  -19.6511   21.3070 C   0  0  0  0  0  0  0  0  0  0  0  0
  -19.8718   -7.9188   23.0919 C   0  0  0  0  0  0  0  0  0  0  0  0
  -19.1260   -7.8685   24.2695 C   0  0  0  0  0  0  0  0  0  0  0  0
  -23.6357  -21.9506   21.7001 C   0  0  0  0  0  0  0  0  0  0  0  0
  -28.9729  -18.1743   24.9251 C   0  0  0  0  0  0  0  0  0  0  0  0
  -20.3683   -5.9195   24.9731 C   0  0  0  0  0  0  0  0  0  0  0  0
  -23.8233  -10.4535   20.9569 C   0  0  0  0  0  0  0  0  0  0  0  0
  -24.1719  -12.9788   20.8607 C   0  0  0  0  0  0  0  0  0  0  0  0
  -27.8197  -18.8397   15.0810 C   0  0  0  0  0  0  0  0  0  0  0  0
  -23.3593  -21.1546   19.4308 C   0  0  0  0  0  0  0  0  0  0  0  0
  -27.4795  -19.3262   16.3577 C   0  0  0  0  0  0  0  0  0  0  0  0
  -23.6496  -22.1998   20.3192 C   0  0  0  0  0  0  0  0  0  0  0  0
  -29.7737  -17.3753   24.1090 C   0  0  0  0  0  0  0  0  0  0  0  0
  -28.3749  -19.3227   24.4061 C   0  0  0  0  0  0  0  0  0  0  0  0
  -28.5778  -19.6721   23.0710 C   0  0  0  0  0  0  0  0  0  0  0  0
  -29.3787  -18.8732   22.2549 C   0  0  0  0  0  0  0  0  0  0  0  0
  -29.9766  -17.7248   22.7740 C   0  0  0  0  0  0  0  0  0  0  0  0
  -22.3331   -8.1465   21.4463 C   0  0  0  0  0  0  0  0  0  0  0  0
  -23.3249  -20.6826   22.1908 C   0  0  0  0  0  0  0  0  0  0  0  0
  -20.8659   -6.9693   22.8548 C   0  0  0  0  0  0  0  0  0  0  0  0
  -19.3743   -6.8689   25.2101 C   0  0  0  0  0  0  0  0  0  0  0  0
  -21.1141   -5.9697   23.7954 C   0  0  0  0  0  0  0  0  0  0  0  0
  -24.5936  -11.6448   20.7046 C   0  0  0  0  0  0  0  0  0  0  0  0
  -25.2629  -13.7288   20.4951 C   0  0  0  0  0  0  0  0  0  0  0  0
  -25.3678  -20.4034   26.4076 C   0  0  0  0  0  0  0  0  0  0  0  0
  -22.9071  -13.4939   21.2974 C   0  0  0  0  0  0  0  0  0  0  0  0
  -25.6025  -20.4889   27.7217 C   0  0  0  0  0  0  0  0  0  0  0  0
  -25.6641  -22.3075   17.5700 C   0  0  0  0  0  0  0  0  0  0  0  0
  -23.9243  -25.0380   17.7701 C   0  0  0  0  0  0  0  0  0  0  0  0
  -21.6496  -26.9037   19.4998 C   0  0  0  0  0  0  0  0  0  0  0  0
  -30.7513  -14.7291   20.6416 C   0  0  0  0  0  0  0  0  0  0  0  0
  -28.2297  -19.7650   13.9628 C   0  0  0  0  0  0  0  0  0  0  0  0
  -23.3428  -21.3987   17.9467 C   0  0  0  0  0  0  0  0  0  0  0  0
  -23.9850  -23.5848   19.8317 C   0  0  0  0  0  0  0  0  0  0  0  0
  -24.2393  -21.0604   25.6777 C   0  0  0  0  0  0  0  0  0  0  0  0
  -27.8247  -21.2184   14.1955 C   0  0  0  0  0  0  0  0  0  0  0  0
  -29.5834  -12.3739   18.2404 C   0  0  0  0  0  0  0  0  0  0  0  0
  -28.1795  -21.6508   15.6146 C   0  0  0  0  0  0  0  0  0  0  0  0
  -28.1493  -12.0799   18.6839 C   0  0  0  0  0  0  0  0  0  0  0  0
  -30.5127  -12.5790   19.4347 C   0  0  0  0  0  0  0  0  0  0  0  0
  -28.6266  -13.3008   20.8473 C   0  0  0  0  0  0  0  0  0  0  0  0
  -25.3271  -19.3801   24.3332 C   0  0  0  0  0  0  0  0  0  0  0  0
  -27.4262  -20.8097   16.6522 C   0  0  1  0  0  0  0  0  0  0  0  0
  -24.1902  -22.5965   17.5288 C   0  0  1  0  0  0  0  0  0  0  0  0
  -27.6407  -13.1419   19.6773 C   0  0  2  0  0  0  0  0  0  0  0  0
  -24.5258  -20.6711   24.2331 C   0  0  1  0  0  0  0  0  0  1  0  0
  -30.4028  -16.1513   24.6897 C   0  0  0  0  0  0  0  0  0  0  0  0
  -27.9359  -20.9047   22.5173 C   0  0  0  0  0  0  0  0  0  0  0  0
  -29.5958  -19.2476   20.8227 C   0  0  0  0  0  0  0  0  0  0  0  0
  -26.7644  -19.7928   28.3699 C   0  0  0  0  0  0  0  0  0  0  0  0
  -24.7196  -21.2865   28.6377 C   0  0  0  0  0  0  0  0  0  0  0  0
  -20.4526  -29.1083   19.4343 C   0  0  0  0  0  0  0  0  0  0  0  0
  -26.4712  -26.4453   18.6883 C   0  0  0  0  0  0  0  0  0  0  0  0
  -25.0488  -28.3387   19.5009 C   0  0  0  0  0  0  0  0  0  0  0  0
  -25.0789  -27.7552   17.0758 C   0  0  0  0  0  0  0  0  0  0  0  0
  -18.9998  -25.5925   19.3647 C   0  0  0  0  0  0  0  0  0  0  0  0
  -30.8358  -16.8660   21.9009 C   0  0  0  0  0  0  0  0  0  0  0  0
  -27.5175  -20.1642   25.3048 C   0  0  0  0  0  0  0  0  0  0  0  0
  -23.8989  -26.2233   18.7046 C   0  0  1  0  0  0  0  0  0  0  0  0
  -20.3990  -27.6377   19.0508 C   0  0  2  0  0  0  0  0  0  0  0  0
  -25.1201  -27.1641   18.5019 C   0  0  0  0  0  0  0  0  0  0  0  0
  -25.8541  -11.5496   20.2731 N   0  0  0  0  0  0  0  0  0  0  0  0
  -26.2338  -12.8333   20.1550 N   0  0  0  0  0  0  0  0  0  0  0  0
  -23.9619  -23.7720   18.3716 N   0  0  0  0  0  0  0  0  0  0  0  0
  -29.9739  -13.5996   20.3369 N   0  0  0  0  0  0  0  0  0  0  0  0
  -25.4767  -15.0603   20.4344 N   0  0  0  0  0  0  0  0  0  0  0  0
  -21.8956  -12.5842   21.6346 N   0  0  0  0  0  0  0  0  0  0  0  0
  -26.0538  -21.2550   16.7637 N   0  0  0  0  0  0  0  0  0  0  0  0
  -22.6065  -26.8709   18.5075 N   0  0  0  0  0  0  0  0  0  0  0  0
  -30.1632  -15.6506   21.4993 N   0  0  0  0  0  0  0  0  0  0  0  0
  -26.1730  -19.5526   25.5772 N   0  3  1  0  0  0  0  0  0  0  0  0
  -19.1900  -27.0323   19.6775 N   0  3  0  0  0  0  0  0  0  0  0  0
  -22.6753  -14.7245   21.3702 O   0  0  0  0  0  0  0  0  0  0  0  0
  -26.3940  -22.9898   18.2795 O   0  0  0  0  0  0  0  0  0  0  0  0
  -23.9042  -25.2281   16.5515 O   0  0  0  0  0  0  0  0  0  0  0  0
  -21.7675  -26.4121   20.6201 O   0  0  0  0  0  0  0  0  0  0  0  0
  -31.8834  -14.9060   20.1790 O   0  0  0  0  0  0  0  0  0  0  0  0
  -21.6060   -7.0211   21.6855 O   0  0  0  0  0  0  0  0  0  0  0  0
  -23.3136  -20.4558   23.5325 O   0  0  0  0  0  0  0  0  0  1  0  0
  -18.6591   -6.8217   26.3416 F   0  0  0  0  0  0  0  0  0  0  0  0
  -22.0686   -5.0556   23.5737 F   0  0  0  0  0  0  0  0  0  0  0  0
  1  2  1  0  0  0  0
  1  5  2  0  0  0  0
  2  6  2  0  0  0  0
  3  8  2  0  0  0  0
  3 16  1  0  0  0  0
  4  9  1  0  0  0  0
  4 16  2  0  0  0  0
  5 18  1  0  0  0  0
  6 20  1  0  0  0  0
  7 10  2  0  0  0  0
  7 19  1  0  0  0  0
  8 27  1  0  0  0  0
  9 27  2  0  0  0  0
 10 28  1  0  0  0  0
 11 12  2  0  0  0  0
 11 29  1  0  0  0  0
 12 30  1  0  0  0  0
 13 21  1  0  0  0  0
 13 28  2  0  0  0  0
 14 22  2  0  0  0  0
 14 23  1  0  0  0  0
 15 30  2  0  0  0  0
 15 31  1  0  0  0  0
 16 32  1  0  0  0  0
 17 32  1  0  0  0  0
 17 33  2  0  0  0  0
 17 35  1  0  0  0  0
 18 20  2  0  0  0  0
 18 41  1  0  0  0  0
 19 21  2  0  0  0  0
 19 42  1  0  0  0  0
 20 52  1  0  0  0  0
 21 43  1  0  0  0  0
 22 26  1  0  0  0  0
 22 56  1  0  0  0  0
 23 24  2  0  0  0  0
 23 67  1  0  0  0  0
 24 25  1  0  0  0  0
 24 57  1  0  0  0  0
 25 26  2  0  0  0  0
 25 58  1  0  0  0  0
 26 66  1  0  0  0  0
 27 87  1  0  0  0  0
 28 88  1  0  0  0  0
 29 31  2  0  0  0  0
 29 87  1  0  0  0  0
 30 89  1  0  0  0  0
 31 90  1  0  0  0  0
 32 71  2  0  0  0  0
 33 72  1  0  0  0  0
 33 75  1  0  0  0  0
 34 36  2  0  0  0  0
 34 44  1  0  0  0  0
 34 80  1  0  0  0  0
 35 76  1  0  0  0  0
 35 82  2  0  0  0  0
 36 59  1  0  0  0  0
 36 60  1  0  0  0  0
 37 53  1  0  0  0  0
 37 77  1  0  0  0  0
 37 83  2  0  0  0  0
 38 68  1  0  0  0  0
 38 73  1  0  0  0  0
 38 84  2  0  0  0  0
 39 69  1  0  0  0  0
 39 78  1  0  0  0  0
 39 85  2  0  0  0  0
 40 74  1  0  0  0  0
 40 79  1  0  0  0  0
 40 86  2  0  0  0  0
 41 45  1  0  0  0  0
 42 53  1  0  0  0  0
 43 73  1  0  0  0  0
 44 55  1  0  0  0  0
 45 47  1  0  0  0  0
 46 48  1  0  0  0  0
 46 49  1  0  0  0  0
 47 52  1  0  0  0  0
 48 54  1  0  0  0  0
 49 74  1  0  0  0  0
 50 54  1  0  0  0  0
 50 74  1  0  0  0  0
 51 55  1  0  0  0  0
 51 80  1  0  0  0  0
 52 77  1  0  0  0  0
 53 73  1  0  0  0  0
 54 72  1  0  0  0  0
 55 88  1  0  0  0  0
 61 69  1  0  0  0  0
 62 70  1  0  0  0  0
 63 70  1  0  0  0  0
 64 70  1  0  0  0  0
 65 81  1  0  0  0  0
 66 79  1  0  0  0  0
 67 80  1  0  0  0  0
 68 70  1  0  0  0  0
 68 78  1  0  0  0  0
 69 81  1  0  0  0  0
 71 72  1  0  0  0  0
M  CHG  2  80   1  81   1
M  ISO  4  40 100  55 101  79 100  88 101
M  END
> <Batch ID>
0035

> <Smiles>
CNC(C)C(=O)NC(C(=O)N1Cc2cc([101O:1][101CH:1]3CC(=C(C)C)N(Cc4cc(C)c(C[100NH:0][100C:0](=O)N5CCCC(n6nc(-c7ccc(Oc8ccc(F)cc8F)cc7)c(C(N)=O)c6N)C5)c(C)c4C)C3)ccc2CC1C(=O)NC1CCCc2ccccc21)C(C)(C)C

> <Shape>
0.201

> <Color>
0.184

> <Negative vol penalty>
0.000

$$$$

  -OEChem-04042321513D

 89 98  0     1  0  0  0  0  0999 V2000
  -27.2426  -18.8609   17.7557 C   0  0  0  0  0  0  0  0  0  0  0  0
  -26.3699  -19.9209   17.5311 C   0  0  0  0  0  0  0  0  0  0  0  0
  -26.4799  -16.0522   23.2145 C   0  0  0  0  0  0  0  0  0  0  0  0
  -26.0011  -16.1592   20.8488 C   0  0  0  0  0  0  0  0  0  0  0  0
  -28.1280  -18.9045   18.8318 C   0  0  0  0  0  0  0  0  0  0  0  0
  -26.3814  -21.0246   18.3833 C   0  0  0  0  0  0  0  0  0  0  0  0
  -25.3565  -28.1143   18.3500 C   0  0  0  0  0  0  0  0  0  0  0  0
  -27.6650  -15.3683   22.9437 C   0  0  0  0  0  0  0  0  0  0  0  0
  -27.1863  -15.4753   20.5780 C   0  0  0  0  0  0  0  0  0  0  0  0
  -24.6263  -29.1001   19.0124 C   0  0  0  0  0  0  0  0  0  0  0  0
  -28.2962  -12.2829   20.6657 C   0  0  0  0  0  0  0  0  0  0  0  0
  -28.2466  -11.2425   19.7380 C   0  0  0  0  0  0  0  0  0  0  0  0
  -26.2541  -29.1011   20.7927 C   0  0  0  0  0  0  0  0  0  0  0  0
  -29.8566  -12.3980   18.3560 C   0  0  0  0  0  0  0  0  0  0  0  0
  -25.6479  -16.4476   22.1670 C   0  0  0  0  0  0  0  0  0  0  0  0
  -23.3370  -16.6993   23.2178 C   0  0  0  0  0  0  0  0  0  0  0  0
  -28.1571  -20.0136   19.6918 C   0  0  0  0  0  0  0  0  0  0  0  0
  -26.5372  -27.6058   18.9102 C   0  0  0  0  0  0  0  0  0  0  0  0
  -27.2672  -21.0824   19.4727 C   0  0  0  0  0  0  0  0  0  0  0  0
  -26.9988  -28.1107   20.1342 C   0  0  0  0  0  0  0  0  0  0  0  0
  -18.3637  -27.6057   21.5494 C   0  0  0  0  0  0  0  0  0  0  0  0
  -18.6760  -26.3966   22.1708 C   0  0  0  0  0  0  0  0  0  0  0  0
  -18.9080  -28.7972   22.0287 C   0  0  0  0  0  0  0  0  0  0  0  0
  -19.5326  -26.3790   23.2715 C   0  0  0  0  0  0  0  0  0  0  0  0
  -19.7646  -28.7796   23.1294 C   0  0  0  0  0  0  0  0  0  0  0  0
  -28.0182  -15.0798   21.6255 C   0  0  0  0  0  0  0  0  0  0  0  0
  -25.0735  -29.5916   20.2353 C   0  0  0  0  0  0  0  0  0  0  0  0
  -29.1260  -13.3810   20.4386 C   0  0  0  0  0  0  0  0  0  0  0  0
  -29.0268  -11.3000   18.5832 C   0  0  0  0  0  0  0  0  0  0  0  0
  -29.9062  -13.4385   19.2837 C   0  0  0  0  0  0  0  0  0  0  0  0
  -20.0769  -27.5705   23.7508 C   0  0  0  0  0  0  0  0  0  0  0  0
  -24.4232  -17.1536   22.4461 C   0  0  0  0  0  0  0  0  0  0  0  0
  -22.4315  -17.7312   23.1770 C   0  0  0  0  0  0  0  0  0  0  0  0
  -23.1622  -15.4558   23.9097 C   0  0  0  0  0  0  0  0  0  0  0  0
  -27.4948  -24.7444   19.9096 C   0  0  0  0  0  0  0  0  0  0  0  0
  -30.3410  -26.2565   20.2771 C   0  0  0  0  0  0  0  0  0  0  0  0
  -32.0255  -29.1879   20.7422 C   0  0  0  0  0  0  0  0  0  0  0  0
  -21.2748  -23.0639   23.5916 C   0  0  0  0  0  0  0  0  0  0  0  0
  -29.0991  -19.9944   20.8695 C   0  0  0  0  0  0  0  0  0  0  0  0
  -27.3275  -26.5617   18.1702 C   0  0  0  0  0  0  0  0  0  0  0  0
  -28.2709  -27.6126   20.7683 C   0  0  0  0  0  0  0  0  0  0  0  0
  -29.3074  -21.3665   21.5053 C   0  0  0  0  0  0  0  0  0  0  0  0
  -22.3231  -21.9087   20.3260 C   0  0  0  0  0  0  0  0  0  0  0  0
  -23.9228  -31.0110   24.5794 C   0  0  0  0  0  0  0  0  0  0  0  0
  -27.9694  -22.0720   21.7027 C   0  0  0  0  0  0  0  0  0  0  0  0
  -22.8762  -20.5214   20.6572 C   0  0  0  0  0  0  0  0  0  0  0  0
  -24.5020  -31.2019   23.1839 C   0  0  0  0  0  0  0  0  0  0  0  0
  -22.6498  -22.9117   21.4285 C   0  0  0  0  0  0  0  0  0  0  0  0
  -22.7392  -21.1209   23.1193 C   0  0  0  0  0  0  0  0  0  0  0  0
  -22.4035  -31.1023   24.5750 C   0  0  0  0  0  0  0  0  0  0  0  0
  -22.3562  -30.3246   22.1911 C   0  0  0  0  0  0  0  0  0  0  0  0
  -27.2668  -22.3081   20.3603 C   0  0  1  0  0  0  0  0  0  0  0  0
  -28.2434  -25.7492   19.0803 C   0  0  1  0  0  0  0  0  0  0  0  0
  -22.4225  -20.0560   22.0536 C   0  0  2  0  0  0  0  0  0  0  0  0
  -23.8765  -30.2340   22.1843 C   0  0  1  0  0  0  0  0  0  1  0  0
  -17.4463  -27.6241   20.3676 C   0  0  0  0  0  0  0  0  0  0  0  0
  -18.0915  -25.1190   21.6555 C   0  0  0  0  0  0  0  0  0  0  0  0
  -18.5718  -30.0934   21.3609 C   0  0  0  0  0  0  0  0  0  0  0  0
  -34.3433  -30.1017   21.0425 C   0  0  0  0  0  0  0  0  0  0  0  0
  -30.3627  -25.2484   23.1569 C   0  0  0  0  0  0  0  0  0  0  0  0
  -32.1464  -26.9319   23.6593 C   0  0  0  0  0  0  0  0  0  0  0  0
  -32.5724  -25.1260   21.9920 C   0  0  0  0  0  0  0  0  0  0  0  0
  -31.8173  -30.8379   18.2941 C   0  0  0  0  0  0  0  0  0  0  0  0
  -19.8546  -25.0708   23.9265 C   0  0  0  0  0  0  0  0  0  0  0  0
  -20.3385  -30.0720   23.6307 C   0  0  0  0  0  0  0  0  0  0  0  0
  -31.0090  -27.0209   21.3944 C   0  0  1  0  0  0  0  0  0  0  0  0
  -33.2421  -29.7718   20.0469 C   0  0  2  0  0  0  0  0  0  0  0  0
  -31.4976  -26.0900   22.5399 C   0  0  0  0  0  0  0  0  0  0  0  0
  -24.2275  -18.3787   21.9512 N   0  0  0  0  0  0  0  0  0  0  0  0
  -23.0078  -18.7029   22.4129 N   0  0  0  0  0  0  0  0  0  0  0  0
  -29.0050  -26.5868   20.0091 N   0  0  0  0  0  0  0  0  0  0  0  0
  -22.1751  -22.4172   22.7286 N   0  0  0  0  0  0  0  0  0  0  0  0
  -21.2064  -17.8931   23.7206 N   0  0  0  0  0  0  0  0  0  0  0  0
  -22.5690  -14.3872   23.2238 N   0  0  0  0  0  0  0  0  0  0  0  0
  -27.8601  -23.4334   19.6703 N   0  0  0  0  0  0  0  0  0  0  0  0
  -32.0673  -27.8100   20.7733 N   0  0  0  0  0  0  0  0  0  0  0  0
  -20.7924  -24.2901   23.1507 N   0  0  0  0  0  0  0  0  0  0  0  0
  -21.8415  -30.1041   23.5909 N   0  3  2  0  0  0  0  0  0  0  0  0
  -32.8745  -31.0208   19.3217 N   0  3  0  0  0  0  0  0  0  0  0  0
  -23.5066  -15.3019   25.1061 O   0  0  0  0  0  0  0  0  0  0  0  0
  -26.6494  -25.1301   20.7085 O   0  0  0  0  0  0  0  0  0  0  0  0
  -30.9831  -25.4030   19.6600 O   0  0  0  0  0  0  0  0  0  0  0  0
  -31.1296  -29.8846   21.2140 O   0  0  0  0  0  0  0  0  0  0  0  0
  -20.9224  -22.5815   24.6734 O   0  0  0  0  0  0  0  0  0  0  0  0
  -29.1747  -14.4127   21.3609 O   0  0  0  0  0  0  0  0  0  0  0  0
  -24.3624  -30.5534   20.8843 O   0  0  0  0  0  0  0  0  0  1  0  0
  -28.9803  -10.3001   17.6931 F   0  0  0  0  0  0  0  0  0  0  0  0
  -30.7062  -14.4902   19.0606 F   0  0  0  0  0  0  0  0  0  0  0  0
  -21.1405  -27.5490   25.1191 Cl  0  0  0  0  0  0  0  0  0  0  0  0
  1  2  1  0  0  0  0
  1  5  2  0  0  0  0
  2  6  2  0  0  0  0
  3  8  2  0  0  0  0
  3 15  1  0  0  0  0
  4  9  1  0  0  0  0
  4 15  2  0  0  0  0
  5 17  1  0  0  0  0
  6 19  1  0  0  0  0
  7 10  2  0  0  0  0
  7 18  1  0  0  0  0
  8 26  1  0  0  0  0
  9 26  2  0  0  0  0
 10 27  1  0  0  0  0
 11 12  2  0  0  0  0
 11 28  1  0  0  0  0
 12 29  1  0  0  0  0
 13 20  1  0  0  0  0
 13 27  2  0  0  0  0
 14 29  2  0  0  0  0
 14 30  1  0  0  0  0
 15 32  1  0  0  0  0
 16 32  1  0  0  0  0
 16 33  2  0  0  0  0
 16 34  1  0  0  0  0
 17 19  2  0  0  0  0
 17 39  1  0  0  0  0
 18 20  2  0  0  0  0
 18 40  1  0  0  0  0
 19 52  1  0  0  0  0
 20 41  1  0  0  0  0
 21 22  1  0  0  0  0
 21 23  2  0  0  0  0
 21 56  1  0  0  0  0
 22 24  2  0  0  0  0
 22 57  1  0  0  0  0
 23 25  1  0  0  0  0
 23 58  1  0  0  0  0
 24 31  1  0  0  0  0
 24 64  1  0  0  0  0
 25 31  2  0  0  0  0
 25 65  1  0  0  0  0
 26 85  1  0  0  0  0
 27 86  1  0  0  0  0
 28 30  2  0  0  0  0
 28 85  1  0  0  0  0
 29 87  1  0  0  0  0
 30 88  1  0  0  0  0
 31 89  1  0  0  0  0
 32 69  2  0  0  0  0
 33 70  1  0  0  0  0
 33 73  1  0  0  0  0
 34 74  1  0  0  0  0
 34 80  2  0  0  0  0
 35 53  1  0  0  0  0
 35 75  1  0  0  0  0
 35 81  2  0  0  0  0
 36 66  1  0  0  0  0
 36 71  1  0  0  0  0
 36 82  2  0  0  0  0
 37 67  1  0  0  0  0
 37 76  1  0  0  0  0
 37 83  2  0  0  0  0
 38 72  1  0  0  0  0
 38 77  1  0  0  0  0
 38 84  2  0  0  0  0
 39 42  1  0  0  0  0
 40 53  1  0  0  0  0
 41 71  1  0  0  0  0
 42 45  1  0  0  0  0
 43 46  1  0  0  0  0
 43 48  1  0  0  0  0
 44 47  1  0  0  0  0
 44 50  1  0  0  0  0
 45 52  1  0  0  0  0
 46 54  1  0  0  0  0
 47 55  1  0  0  0  0
 48 72  1  0  0  0  0
 49 54  1  0  0  0  0
 49 72  1  0  0  0  0
 50 78  1  0  0  0  0
 51 55  1  0  0  0  0
 51 78  1  0  0  0  0
 52 75  1  0  0  0  0
 53 71  1  0  0  0  0
 54 70  1  0  0  0  0
 55 86  1  0  0  0  0
 59 67  1  0  0  0  0
 60 68  1  0  0  0  0
 61 68  1  0  0  0  0
 62 68  1  0  0  0  0
 63 79  1  0  0  0  0
 64 77  1  0  0  0  0
 65 78  1  0  0  0  0
 66 68  1  0  0  0  0
 66 76  1  0  0  0  0
 67 79  1  0  0  0  0
 69 70  1  0  0  0  0
M  CHG  2  78   1  79   1
M  ISO  4  38 100  55 101  77 100  86 101
M  END
> <Batch ID>
0035

> <Smiles>
CNC(C)C(=O)NC(C(=O)N1Cc2cc([101O:1][101CH:1]3CCCN(Cc4c(C)c(C)c(C)c(C[100NH:0][100C:0](=O)N5CCCC(n6nc(-c7ccc(Oc8ccc(F)cc8F)cc7)c(C(N)=O)c6N)C5)c4Cl)C3)ccc2CC1C(=O)NC1CCCc2ccccc21)C(C)(C)C

> <Shape>
0.239

> <Color>
0.065

> <Negative vol penalty>
0.000

$$$$

  -OEChem-04042321513D

 89 98  0     1  0  0  0  0  0999 V2000
  -33.4727  -24.9605   17.3932 C   0  0  0  0  0  0  0  0  0  0  0  0
  -32.6112  -26.0006   17.0630 C   0  0  0  0  0  0  0  0  0  0  0  0
  -23.1222  -14.5106   20.8489 C   0  0  0  0  0  0  0  0  0  0  0  0
  -24.9264  -14.9959   19.3170 C   0  0  0  0  0  0  0  0  0  0  0  0
  -33.0042  -23.8839   18.1432 C   0  0  0  0  0  0  0  0  0  0  0  0
  -31.2841  -25.9701   17.4928 C   0  0  0  0  0  0  0  0  0  0  0  0
  -23.7737  -28.4340   18.3567 C   0  0  0  0  0  0  0  0  0  0  0  0
  -23.7083  -13.2812   21.1497 C   0  0  0  0  0  0  0  0  0  0  0  0
  -25.5126  -13.7664   19.6180 C   0  0  0  0  0  0  0  0  0  0  0  0
  -22.4888  -27.9962   18.6748 C   0  0  0  0  0  0  0  0  0  0  0  0
  -24.5437   -9.8587   22.0511 C   0  0  0  0  0  0  0  0  0  0  0  0
  -23.7151   -8.7375   22.0976 C   0  0  0  0  0  0  0  0  0  0  0  0
  -23.3138  -27.1102   20.7614 C   0  0  0  0  0  0  0  0  0  0  0  0
  -22.5229  -24.1599   23.7050 C   0  0  0  0  0  0  0  0  0  0  0  0
  -23.1039   -9.0934   19.7875 C   0  0  0  0  0  0  0  0  0  0  0  0
  -23.7312  -15.3679   19.9324 C   0  0  0  0  0  0  0  0  0  0  0  0
  -21.8490  -16.8588   19.0708 C   0  0  0  0  0  0  0  0  0  0  0  0
  -31.6673  -23.8350   18.5714 C   0  0  0  0  0  0  0  0  0  0  0  0
  -24.8421  -28.2031   19.2350 C   0  0  0  0  0  0  0  0  0  0  0  0
  -30.7984  -24.9038   18.2710 C   0  0  0  0  0  0  0  0  0  0  0  0
  -24.6108  -27.5483   20.4532 C   0  0  0  0  0  0  0  0  0  0  0  0
  -21.6497  -24.8114   24.5760 C   0  0  0  0  0  0  0  0  0  0  0  0
  -21.0262  -24.0991   25.6005 C   0  0  0  0  0  0  0  0  0  0  0  0
  -21.2759  -22.7354   25.7540 C   0  0  0  0  0  0  0  0  0  0  0  0
  -22.1491  -22.0839   24.8829 C   0  0  0  0  0  0  0  0  0  0  0  0
  -22.7726  -22.7961   23.8584 C   0  0  0  0  0  0  0  0  0  0  0  0
  -24.9035  -12.9091   20.5343 C   0  0  0  0  0  0  0  0  0  0  0  0
  -22.2592  -27.3317   19.8760 C   0  0  0  0  0  0  0  0  0  0  0  0
  -24.6523  -10.5972   20.8727 C   0  0  0  0  0  0  0  0  0  0  0  0
  -22.9953   -8.3549   20.9658 C   0  0  0  0  0  0  0  0  0  0  0  0
  -23.9324  -10.2146   19.7409 C   0  0  0  0  0  0  0  0  0  0  0  0
  -23.1260  -16.6378   19.6208 C   0  0  0  0  0  0  0  0  0  0  0  0
  -21.7505  -18.2250   18.9695 C   0  0  0  0  0  0  0  0  0  0  0  0
  -20.0859  -26.3175   22.3547 C   0  0  0  0  0  0  0  0  0  0  0  0
  -19.8011  -25.0597   21.9696 C   0  0  0  0  0  0  0  0  0  0  0  0
  -20.8420  -15.9135   18.6860 C   0  0  0  0  0  0  0  0  0  0  0  0
  -27.5750  -26.5884   19.0674 C   0  0  0  0  0  0  0  0  0  0  0  0
  -28.1004  -27.9409   21.9687 C   0  0  0  0  0  0  0  0  0  0  0  0
  -26.1795  -28.6115   24.9482 C   0  0  0  0  0  0  0  0  0  0  0  0
  -24.3557  -22.7340   21.8998 C   0  0  0  0  0  0  0  0  0  0  0  0
  -31.2151  -22.6497   19.3873 C   0  0  0  0  0  0  0  0  0  0  0  0
  -26.2172  -28.7052   18.8893 C   0  0  0  0  0  0  0  0  0  0  0  0
  -25.7199  -27.2936   21.4398 C   0  0  0  0  0  0  0  0  0  0  0  0
  -29.6984  -22.4918   19.4163 C   0  0  0  0  0  0  0  0  0  0  0  0
  -18.5511  -29.0577   22.0771 C   0  0  0  0  0  0  0  0  0  0  0  0
  -24.4455  -22.1411   18.3902 C   0  0  0  0  0  0  0  0  0  0  0  0
  -18.2815  -28.3457   23.4037 C   0  0  0  0  0  0  0  0  0  0  0  0
  -29.0443  -23.8189   19.7706 C   0  0  0  0  0  0  0  0  0  0  0  0
  -19.1567  -28.1917   20.9749 C   0  0  0  0  0  0  0  0  0  0  0  0
  -23.9953  -20.6845   18.2570 C   0  0  0  0  0  0  0  0  0  0  0  0
  -25.3050  -22.3574   19.6344 C   0  0  0  0  0  0  0  0  0  0  0  0
  -24.2573  -20.4315   20.7578 C   0  0  0  0  0  0  0  0  0  0  0  0
  -19.5593  -27.9530   24.1417 C   0  0  0  0  0  0  0  0  0  0  0  0
  -29.3429  -24.8775   18.7014 C   0  0  1  0  0  0  0  0  0  0  0  0
  -20.4178  -27.4267   21.3822 C   0  0  2  0  0  0  0  0  0  1  0  0
  -27.3274  -27.9615   19.6252 C   0  0  1  0  0  0  0  0  0  0  0  0
  -23.3350  -20.1778   19.5542 C   0  0  2  0  0  0  0  0  0  0  0  0
  -20.0891  -24.8008   26.5322 C   0  0  0  0  0  0  0  0  0  0  0  0
  -20.6065  -21.9719   26.8532 C   0  0  0  0  0  0  0  0  0  0  0  0
  -22.4141  -20.6200   25.0486 C   0  0  0  0  0  0  0  0  0  0  0  0
  -26.4588  -30.3809   26.7056 C   0  0  0  0  0  0  0  0  0  0  0  0
  -29.7023  -25.8077   23.4496 C   0  0  0  0  0  0  0  0  0  0  0  0
  -28.6852  -26.6263   25.5859 C   0  0  0  0  0  0  0  0  0  0  0  0
  -30.1170  -28.1491   24.2244 C   0  0  0  0  0  0  0  0  0  0  0  0
  -23.4035  -29.5721   24.5873 C   0  0  0  0  0  0  0  0  0  0  0  0
  -21.3955  -26.2779   24.3870 C   0  0  0  0  0  0  0  0  0  0  0  0
  -27.8027  -27.5555   23.3976 C   0  0  1  0  0  0  0  0  0  0  0  0
  -25.7158  -29.9693   25.4441 C   0  0  2  0  0  0  0  0  0  0  0  0
  -29.0603  -27.0260   24.1429 C   0  0  0  0  0  0  0  0  0  0  0  0
  -23.7910  -17.7727   19.8525 N   0  0  0  0  0  0  0  0  0  0  0  0
  -22.9287  -18.7200   19.4461 N   0  0  0  0  0  0  0  0  0  0  0  0
  -27.0480  -27.7981   21.0533 N   0  0  0  0  0  0  0  0  0  0  0  0
  -24.6137  -21.8574   20.8247 N   0  0  0  0  0  0  0  0  0  0  0  0
  -20.7720  -19.0391   18.5201 N   0  0  0  0  0  0  0  0  0  0  0  0
  -20.8524  -15.4235   17.3729 N   0  0  0  0  0  0  0  0  0  0  0  0
  -23.6638  -22.1546   22.9629 N   0  0  0  0  0  0  0  0  0  0  0  0
  -28.8866  -26.1664   19.1729 N   0  0  0  0  0  0  0  0  0  0  0  0
  -27.1897  -28.7257   24.0167 N   0  0  0  0  0  0  0  0  0  0  0  0
  -20.0468  -26.5702   23.7779 N   0  3  2  0  0  0  0  0  0  0  0  0
  -24.2568  -29.9398   25.7464 N   0  3  0  0  0  0  0  0  0  0  0  0
  -19.9491  -15.5278   19.4782 O   0  0  0  0  0  0  0  0  0  0  0  0
  -26.6446  -25.9580   18.5789 O   0  0  0  0  0  0  0  0  0  0  0  0
  -29.2232  -28.3602   21.6768 O   0  0  0  0  0  0  0  0  0  0  0  0
  -25.6965  -27.5551   25.3499 O   0  0  0  0  0  0  0  0  0  0  0  0
  -24.6976  -23.9189   21.8674 O   0  0  0  0  0  0  0  0  0  0  0  0
  -25.4759  -11.7096   20.8279 O   0  0  0  0  0  0  0  0  0  0  0  0
  -21.0061  -26.9029   20.1887 O   0  0  0  0  0  0  0  0  0  1  0  0
  -22.2008   -7.2773   21.0102 F   0  0  0  0  0  0  0  0  0  0  0  0
  -24.0336  -10.9194   18.6057 F   0  0  0  0  0  0  0  0  0  0  0  0
  1  2  1  0  0  0  0
  1  5  2  0  0  0  0
  2  6  2  0  0  0  0
  3  8  2  0  0  0  0
  3 16  1  0  0  0  0
  4  9  1  0  0  0  0
  4 16  2  0  0  0  0
  5 18  1  0  0  0  0
  6 20  1  0  0  0  0
  7 10  2  0  0  0  0
  7 19  1  0  0  0  0
  8 27  1  0  0  0  0
  9 27  2  0  0  0  0
 10 28  1  0  0  0  0
 11 12  2  0  0  0  0
 11 29  1  0  0  0  0
 12 30  1  0  0  0  0
 13 21  1  0  0  0  0
 13 28  2  0  0  0  0
 14 22  1  0  0  0  0
 14 26  2  0  0  0  0
 15 30  2  0  0  0  0
 15 31  1  0  0  0  0
 16 32  1  0  0  0  0
 17 32  1  0  0  0  0
 17 33  2  0  0  0  0
 17 36  1  0  0  0  0
 18 20  2  0  0  0  0
 18 41  1  0  0  0  0
 19 21  2  0  0  0  0
 19 42  1  0  0  0  0
 20 54  1  0  0  0  0
 21 43  1  0  0  0  0
 22 23  2  0  0  0  0
 22 66  1  0  0  0  0
 23 24  1  0  0  0  0
 23 58  1  0  0  0  0
 24 25  2  0  0  0  0
 24 59  1  0  0  0  0
 25 26  1  0  0  0  0
 25 60  1  0  0  0  0
 26 76  1  0  0  0  0
 27 86  1  0  0  0  0
 28 87  1  0  0  0  0
 29 31  2  0  0  0  0
 29 86  1  0  0  0  0
 30 88  1  0  0  0  0
 31 89  1  0  0  0  0
 32 70  2  0  0  0  0
 33 71  1  0  0  0  0
 33 74  1  0  0  0  0
 34 35  2  0  0  0  0
 34 55  1  0  0  0  0
 34 79  1  0  0  0  0
 36 75  1  0  0  0  0
 36 81  2  0  0  0  0
 37 56  1  0  0  0  0
 37 77  1  0  0  0  0
 37 82  2  0  0  0  0
 38 67  1  0  0  0  0
 38 72  1  0  0  0  0
 38 83  2  0  0  0  0
 39 68  1  0  0  0  0
 39 78  1  0  0  0  0
 39 84  2  0  0  0  0
 40 73  1  0  0  0  0
 40 76  1  0  0  0  0
 40 85  2  0  0  0  0
 41 44  1  0  0  0  0
 42 56  1  0  0  0  0
 43 72  1  0  0  0  0
 44 48  1  0  0  0  0
 45 47  1  0  0  0  0
 45 49  1  0  0  0  0
 46 50  1  0  0  0  0
 46 51  1  0  0  0  0
 47 53  1  0  0  0  0
 48 54  1  0  0  0  0
 49 55  1  0  0  0  0
 50 57  1  0  0  0  0
 51 73  1  0  0  0  0
 52 57  1  0  0  0  0
 52 73  1  0  0  0  0
 53 79  1  0  0  0  0
 54 77  1  0  0  0  0
 55 87  1  0  0  0  0
 56 72  1  0  0  0  0
 57 71  1  0  0  0  0
 61 68  1  0  0  0  0
 62 69  1  0  0  0  0
 63 69  1  0  0  0  0
 64 69  1  0  0  0  0
 65 80  1  0  0  0  0
 66 79  1  0  0  0  0
 67 69  1  0  0  0  0
 67 78  1  0  0  0  0
 68 80  1  0  0  0  0
 70 71  1  0  0  0  0
M  CHG  2  79   1  80   1
M  ISO  4  40 100  55 101  76 100  87 101
M  END
> <Batch ID>
0035

> <Smiles>
C=C1N(Cc2cc([100NH:0][100C:0](=O)N3CCCC(n4nc(-c5ccc(Oc6ccc(F)cc6F)cc5)c(C(N)=O)c4N)C3)c(C)c(C)c2C)CCCC[101CH:1]1[101O:1]c1ccc2c(c1)CN(C(=O)C(NC(=O)C(C)NC)C(C)(C)C)C(C(=O)NC1CCCc3ccccc31)C2

> <Shape>
0.203

> <Color>
0.061

> <Negative vol penalty>
0.000

$$$$

  -OEChem-04042321513D

 86 95  0     1  0  0  0  0  0999 V2000
  -17.0865  -26.3519   22.3060 C   0  0  0  0  0  0  0  0  0  0  0  0
  -18.3023  -25.7197   22.5460 C   0  0  0  0  0  0  0  0  0  0  0  0
  -22.8525  -10.3833   22.6702 C   0  0  0  0  0  0  0  0  0  0  0  0
  -23.4865  -10.1904   20.3469 C   0  0  0  0  0  0  0  0  0  0  0  0
  -17.0637  -27.6177   21.7221 C   0  0  0  0  0  0  0  0  0  0  0  0
  -19.4960  -26.3525   22.2012 C   0  0  0  0  0  0  0  0  0  0  0  0
  -24.8353  -26.0176   25.1821 C   0  0  0  0  0  0  0  0  0  0  0  0
  -22.2267   -9.1385   22.6028 C   0  0  0  0  0  0  0  0  0  0  0  0
  -22.8607   -8.9456   20.2795 C   0  0  0  0  0  0  0  0  0  0  0  0
  -25.9817  -25.2532   24.9698 C   0  0  0  0  0  0  0  0  0  0  0  0
  -23.1423   -5.8840   22.6570 C   0  0  0  0  0  0  0  0  0  0  0  0
  -23.3701   -4.9866   23.7002 C   0  0  0  0  0  0  0  0  0  0  0  0
  -26.9770  -27.0913   23.7657 C   0  0  0  0  0  0  0  0  0  0  0  0
  -28.2431  -20.7797   19.5651 C   0  0  0  0  0  0  0  0  0  0  0  0
  -29.2090  -20.0008   22.0637 C   0  0  0  0  0  0  0  0  0  0  0  0
  -21.0035   -4.9500   24.1854 C   0  0  0  0  0  0  0  0  0  0  0  0
  -23.4824  -10.9093   21.5422 C   0  0  0  0  0  0  0  0  0  0  0  0
  -25.1928  -12.5679   22.4538 C   0  0  0  0  0  0  0  0  0  0  0  0
  -18.2581  -28.2705   21.3787 C   0  0  0  0  0  0  0  0  0  0  0  0
  -24.7466  -27.3230   24.6775 C   0  0  0  0  0  0  0  0  0  0  0  0
  -19.4891  -27.6278   21.6108 C   0  0  0  0  0  0  0  0  0  0  0  0
  -25.8294  -27.8711   23.9752 C   0  0  0  0  0  0  0  0  0  0  0  0
  -28.3358  -21.7119   20.5985 C   0  0  0  0  0  0  0  0  0  0  0  0
  -28.6333  -19.4580   19.7809 C   0  0  0  0  0  0  0  0  0  0  0  0
  -28.8187  -21.3224   21.8478 C   0  0  0  0  0  0  0  0  0  0  0  0
  -22.2308   -8.4196   21.4075 C   0  0  0  0  0  0  0  0  0  0  0  0
  -27.0517  -25.7890   24.2590 C   0  0  0  0  0  0  0  0  0  0  0  0
  -21.8451   -6.3145   22.3780 C   0  0  0  0  0  0  0  0  0  0  0  0
  -22.3007   -4.5196   24.4644 C   0  0  0  0  0  0  0  0  0  0  0  0
  -20.7758   -5.8475   23.1422 C   0  0  0  0  0  0  0  0  0  0  0  0
  -29.1162  -19.0686   21.0302 C   0  0  0  0  0  0  0  0  0  0  0  0
  -24.1285  -12.1953   21.6111 C   0  0  0  0  0  0  0  0  0  0  0  0
  -25.4389  -13.8812   22.1359 C   0  0  0  0  0  0  0  0  0  0  0  0
  -30.0531  -22.6443   23.6034 C   0  0  0  0  0  0  0  0  0  0  0  0
  -31.3480  -22.6015   23.2582 C   0  0  0  0  0  0  0  0  0  0  0  0
  -25.8961  -11.7958   23.4361 C   0  0  0  0  0  0  0  0  0  0  0  0
  -22.8524  -28.7992   22.5952 C   0  0  0  0  0  0  0  0  0  0  0  0
  -24.4852  -31.4284   23.5664 C   0  0  0  0  0  0  0  0  0  0  0  0
  -27.3252  -32.7326   24.9378 C   0  0  0  0  0  0  0  0  0  0  0  0
  -26.1179  -17.9279   18.3532 C   0  0  0  0  0  0  0  0  0  0  0  0
  -18.1813  -29.6184   20.7063 C   0  0  0  0  0  0  0  0  0  0  0  0
  -23.5136  -28.1440   24.9382 C   0  0  0  0  0  0  0  0  0  0  0  0
  -25.7923  -29.2747   23.4302 C   0  0  0  0  0  0  0  0  0  0  0  0
  -29.6156  -23.2953   24.8976 C   0  0  0  0  0  0  0  0  0  0  0  0
  -19.5047  -30.3792   20.7141 C   0  0  0  0  0  0  0  0  0  0  0  0
  -22.7838  -17.1410   19.3233 C   0  0  0  0  0  0  0  0  0  0  0  0
  -20.6498  -29.4627   20.2951 C   0  0  0  0  0  0  0  0  0  0  0  0
  -22.9236  -15.8125   20.0686 C   0  0  0  0  0  0  0  0  0  0  0  0
  -23.7499  -17.2310   18.1442 C   0  0  0  0  0  0  0  0  0  0  0  0
  -25.3038  -15.6541   19.2271 C   0  0  0  0  0  0  0  0  0  0  0  0
  -27.6792  -22.7244   23.5384 C   0  0  0  0  0  0  0  0  0  0  0  0
  -20.8061  -28.2924   21.2735 C   0  0  1  0  0  0  0  0  0  0  0  0
  -23.3293  -29.2798   23.9365 C   0  0  1  0  0  0  0  0  0  0  0  0
  -24.3888  -15.5397   20.4584 C   0  0  2  0  0  0  0  0  0  0  0  0
  -28.1825  -23.7244   24.5858 C   0  0  2  0  0  0  0  0  0  1  0  0
  -27.9095  -23.1206   20.3406 C   0  0  0  0  0  0  0  0  0  0  0  0
  -28.3829  -34.9184   25.5708 C   0  0  0  0  0  0  0  0  0  0  0  0
  -25.0935  -31.9823   20.6282 C   0  0  0  0  0  0  0  0  0  0  0  0
  -26.8872  -33.5637   21.3697 C   0  0  0  0  0  0  0  0  0  0  0  0
  -24.5077  -34.0084   21.9722 C   0  0  0  0  0  0  0  0  0  0  0  0
  -27.4785  -31.9645   27.7918 C   0  0  0  0  0  0  0  0  0  0  0  0
  -28.5171  -18.4896   18.6483 C   0  0  0  0  0  0  0  0  0  0  0  0
  -25.7468  -32.1282   23.1218 C   0  0  1  0  0  0  0  0  0  0  0  0
  -27.5338  -33.7494   26.0454 C   0  0  2  0  0  0  0  0  0  0  0  0
  -25.5590  -32.8935   21.7814 C   0  0  0  0  0  0  0  0  0  0  0  0
  -23.7260  -13.1914   20.8175 N   0  0  0  0  0  0  0  0  0  0  0  0
  -24.5418  -14.2030   21.1603 N   0  0  0  0  0  0  0  0  0  0  0  0
  -28.9182  -22.2510   22.9032 N   0  0  0  0  0  0  0  0  0  0  0  0
  -24.5622  -30.0354   23.7057 N   0  0  0  0  0  0  0  0  0  0  0  0
  -25.1222  -16.9637   18.5815 N   0  0  0  0  0  0  0  0  0  0  0  0
  -26.3330  -14.7807   22.5985 N   0  0  0  0  0  0  0  0  0  0  0  0
  -27.0302  -11.0770   23.0343 N   0  0  0  0  0  0  0  0  0  0  0  0
  -21.4772  -28.7280   22.4795 N   0  0  0  0  0  0  0  0  0  0  0  0
  -26.1612  -32.9711   24.2381 N   0  0  0  0  0  0  0  0  0  0  0  0
  -27.3898  -17.5977   18.8047 N   0  0  0  0  0  0  0  0  0  0  0  0
  -28.2155  -33.1153   27.2091 N   0  3  0  0  0  0  0  0  0  0  0  0
  -25.5203  -11.7319   24.6312 O   0  0  0  0  0  0  0  0  0  0  0  0
  -23.6713  -28.5154   21.7289 O   0  0  0  0  0  0  0  0  0  0  0  0
  -23.4708  -32.0941   23.7891 O   0  0  0  0  0  0  0  0  0  0  0  0
  -28.1175  -31.8204   24.7131 O   0  0  0  0  0  0  0  0  0  0  0  0
  -25.8890  -19.0056   17.7935 O   0  0  0  0  0  0  0  0  0  0  0  0
  -21.6205   -7.2049   21.3414 O   0  0  0  0  0  0  0  0  0  0  0  0
  -28.1716  -25.0448   24.0498 O   0  0  0  0  0  0  0  0  0  1  0  0
  -22.5194   -3.6566   25.4652 F   0  0  0  0  0  0  0  0  0  0  0  0
  -19.5273   -6.2565   22.8781 F   0  0  0  0  0  0  0  0  0  0  0  0
  -29.6097  -17.4424   21.3333 Cl  0  0  0  0  0  0  0  0  0  0  0  0
  1  2  1  0  0  0  0
  1  5  2  0  0  0  0
  2  6  2  0  0  0  0
  3  8  2  0  0  0  0
  3 17  1  0  0  0  0
  4  9  1  0  0  0  0
  4 17  2  0  0  0  0
  5 19  1  0  0  0  0
  6 21  1  0  0  0  0
  7 10  2  0  0  0  0
  7 20  1  0  0  0  0
  8 26  1  0  0  0  0
  9 26  2  0  0  0  0
 10 27  1  0  0  0  0
 11 12  2  0  0  0  0
 11 28  1  0  0  0  0
 12 29  1  0  0  0  0
 13 22  1  0  0  0  0
 13 27  2  0  0  0  0
 14 23  1  0  0  0  0
 14 24  2  0  0  0  0
 15 25  1  0  0  0  0
 15 31  2  0  0  0  0
 16 29  2  0  0  0  0
 16 30  1  0  0  0  0
 17 32  1  0  0  0  0
 18 32  1  0  0  0  0
 18 33  2  0  0  0  0
 18 36  1  0  0  0  0
 19 21  2  0  0  0  0
 19 41  1  0  0  0  0
 20 22  2  0  0  0  0
 20 42  1  0  0  0  0
 21 52  1  0  0  0  0
 22 43  1  0  0  0  0
 23 25  2  0  0  0  0
 23 56  1  0  0  0  0
 24 31  1  0  0  0  0
 24 62  1  0  0  0  0
 25 68  1  0  0  0  0
 26 82  1  0  0  0  0
 27 83  1  0  0  0  0
 28 30  2  0  0  0  0
 28 82  1  0  0  0  0
 29 84  1  0  0  0  0
 30 85  1  0  0  0  0
 31 86  1  0  0  0  0
 32 66  2  0  0  0  0
 33 67  1  0  0  0  0
 33 71  1  0  0  0  0
 34 35  2  0  0  0  0
 34 44  1  0  0  0  0
 34 68  1  0  0  0  0
 36 72  1  0  0  0  0
 36 77  2  0  0  0  0
 37 53  1  0  0  0  0
 37 73  1  0  0  0  0
 37 78  2  0  0  0  0
 38 63  1  0  0  0  0
 38 69  1  0  0  0  0
 38 79  2  0  0  0  0
 39 64  1  0  0  0  0
 39 74  1  0  0  0  0
 39 80  2  0  0  0  0
 40 70  1  0  0  0  0
 40 75  1  0  0  0  0
 40 81  2  0  0  0  0
 41 45  1  0  0  0  0
 42 53  1  0  0  0  0
 43 69  1  0  0  0  0
 44 55  1  0  0  0  0
 45 47  1  0  0  0  0
 46 48  1  0  0  0  0
 46 49  1  0  0  0  0
 47 52  1  0  0  0  0
 48 54  1  0  0  0  0
 49 70  1  0  0  0  0
 50 54  1  0  0  0  0
 50 70  1  0  0  0  0
 51 55  1  0  0  0  0
 51 68  1  0  0  0  0
 52 73  1  0  0  0  0
 53 69  1  0  0  0  0
 54 67  1  0  0  0  0
 55 83  1  0  0  0  0
 57 64  1  0  0  0  0
 58 65  1  0  0  0  0
 59 65  1  0  0  0  0
 60 65  1  0  0  0  0
 61 76  1  0  0  0  0
 62 75  1  0  0  0  0
 63 65  1  0  0  0  0
 63 74  1  0  0  0  0
 64 76  1  0  0  0  0
 66 67  1  0  0  0  0
M  CHG  1  76   1
M  ISO  4  40 100  55 101  75 100  83 101
M  END
> <Batch ID>
0035

> <Smiles>
C=C1C[101CH:1]([101O:1]c2ccc3c(c2)CN(C(=O)C(NC(=O)C(C)NC)C(C)(C)C)C(C(=O)NC2CCCc4ccccc42)C3)CN1c1cc(Cl)c(C[100NH:0][100C:0](=O)N2CCCC(n3nc(-c4ccc(Oc5ccc(F)cc5F)cc4)c(C(N)=O)c3N)C2)cc1C

> <Shape>
0.265

> <Color>
0.095

> <Negative vol penalty>
0.000

$$$$

  -OEChem-04042321513D

 83 91  0     1  0  0  0  0  0999 V2000
  -28.3918  -24.0559   17.8989 C   0  0  0  0  0  0  0  0  0  0  0  0
  -27.1544  -24.3695   18.4521 C   0  0  0  0  0  0  0  0  0  0  0  0
  -27.9015  -17.8519   22.4495 C   0  0  0  0  0  0  0  0  0  0  0  0
  -27.4686  -19.5063   20.7428 C   0  0  0  0  0  0  0  0  0  0  0  0
  -29.5576  -24.5697   18.4653 C   0  0  0  0  0  0  0  0  0  0  0  0
  -27.0822  -25.1962   19.5726 C   0  0  0  0  0  0  0  0  0  0  0  0
  -23.4618  -28.7132   19.1620 C   0  0  0  0  0  0  0  0  0  0  0  0
  -28.9823  -17.3718   21.7100 C   0  0  0  0  0  0  0  0  0  0  0  0
  -28.5495  -19.0262   20.0033 C   0  0  0  0  0  0  0  0  0  0  0  0
  -22.1482  -28.3042   19.3881 C   0  0  0  0  0  0  0  0  0  0  0  0
  -29.4735  -15.3807   19.0232 C   0  0  0  0  0  0  0  0  0  0  0  0
  -29.6015  -13.9985   18.8867 C   0  0  0  0  0  0  0  0  0  0  0  0
  -22.2576  -29.2081   21.6220 C   0  0  0  0  0  0  0  0  0  0  0  0
  -17.1264  -22.0489   21.0533 C   0  0  0  0  0  0  0  0  0  0  0  0
  -17.3508  -24.3164   21.8566 C   0  0  0  0  0  0  0  0  0  0  0  0
  -31.7625  -14.0923   19.9631 C   0  0  0  0  0  0  0  0  0  0  0  0
  -27.1446  -18.9191   21.9658 C   0  0  0  0  0  0  0  0  0  0  0  0
  -26.0485  -20.4286   23.7058 C   0  0  0  0  0  0  0  0  0  0  0  0
  -29.4990  -25.4110   19.5875 C   0  0  0  0  0  0  0  0  0  0  0  0
  -24.1880  -29.3641   20.1697 C   0  0  0  0  0  0  0  0  0  0  0  0
  -28.2484  -25.7207   20.1553 C   0  0  0  0  0  0  0  0  0  0  0  0
  -23.5794  -29.6267   21.4053 C   0  0  0  0  0  0  0  0  0  0  0  0
  -16.5923  -23.1543   21.7154 C   0  0  0  0  0  0  0  0  0  0  0  0
  -18.4192  -22.1055   20.5325 C   0  0  0  0  0  0  0  0  0  0  0  0
  -18.6436  -24.3730   21.3358 C   0  0  0  0  0  0  0  0  0  0  0  0
  -29.3064  -17.9589   20.4869 C   0  0  0  0  0  0  0  0  0  0  0  0
  -21.5469  -28.5491   20.6192 C   0  0  0  0  0  0  0  0  0  0  0  0
  -30.4901  -16.1188   19.6296 C   0  0  0  0  0  0  0  0  0  0  0  0
  -30.7460  -13.3543   19.3566 C   0  0  0  0  0  0  0  0  0  0  0  0
  -31.6345  -15.4745   20.0996 C   0  0  0  0  0  0  0  0  0  0  0  0
  -19.1778  -23.2675   20.6737 C   0  0  0  0  0  0  0  0  0  0  0  0
  -26.0276  -19.4151   22.7290 C   0  0  0  0  0  0  0  0  0  0  0  0
  -24.7452  -20.5250   24.1285 C   0  0  0  0  0  0  0  0  0  0  0  0
  -27.1476  -21.2130   24.1879 C   0  0  0  0  0  0  0  0  0  0  0  0
  -26.8437  -28.7202   21.7933 C   0  0  0  0  0  0  0  0  0  0  0  0
  -26.3798  -31.7050   22.9756 C   0  0  0  0  0  0  0  0  0  0  0  0
  -24.2065  -34.2477   23.6525 C   0  0  0  0  0  0  0  0  0  0  0  0
  -19.5113  -19.1913   21.5443 C   0  0  0  0  0  0  0  0  0  0  0  0
  -30.7892  -25.9041   20.1933 C   0  0  0  0  0  0  0  0  0  0  0  0
  -25.5950  -29.8227   19.9008 C   0  0  0  0  0  0  0  0  0  0  0  0
  -24.3091  -30.3400   22.5130 C   0  0  0  0  0  0  0  0  0  0  0  0
  -30.6025  -27.0756   21.1540 C   0  0  0  0  0  0  0  0  0  0  0  0
  -20.7661  -17.9146   24.6219 C   0  0  0  0  0  0  0  0  0  0  0  0
  -29.4498  -26.8000   22.1143 C   0  0  0  0  0  0  0  0  0  0  0  0
  -22.2587  -18.2458   24.5739 C   0  0  0  0  0  0  0  0  0  0  0  0
  -20.2271  -17.5374   23.2438 C   0  0  0  0  0  0  0  0  0  0  0  0
  -21.9885  -18.8564   22.1341 C   0  0  0  0  0  0  0  0  0  0  0  0
  -28.1275  -26.6342   21.3558 C   0  0  1  0  0  0  0  0  0  0  0  0
  -26.4128  -30.0195   21.1736 C   0  0  1  0  0  0  0  0  0  0  0  0
  -22.5652  -19.2971   23.4903 C   0  0  2  0  0  0  0  0  0  0  0  0
  -15.2103  -23.0938   22.2730 C   0  0  0  0  0  0  0  0  0  0  0  0
  -24.1147  -36.5462   24.6556 C   0  0  0  0  0  0  0  0  0  0  0  0
  -26.5553  -30.4902   25.7691 C   0  0  0  0  0  0  0  0  0  0  0  0
  -25.5315  -32.5896   26.6706 C   0  0  0  0  0  0  0  0  0  0  0  0
  -27.7364  -32.6791   25.5073 C   0  0  0  0  0  0  0  0  0  0  0  0
  -23.2765  -35.4459   21.1112 C   0  0  0  0  0  0  0  0  0  0  0  0
  -18.9499  -20.8966   19.8308 C   0  0  0  0  0  0  0  0  0  0  0  0
  -18.8634  -26.7141   22.1703 C   0  0  0  0  0  0  0  0  0  0  0  0
  -19.9151  -27.8108   22.1838 C   0  0  0  0  0  0  0  0  0  1  0  0
  -25.6368  -32.2841   24.1553 C   0  0  1  0  0  0  0  0  0  0  0  0
  -24.2838  -35.7388   23.3780 C   0  0  2  0  0  0  0  0  0  0  0  0
  -26.3516  -31.9956   25.5056 C   0  0  0  0  0  0  0  0  0  0  0  0
  -24.8078  -18.9040   22.5422 N   0  0  0  0  0  0  0  0  0  0  0  0
  -24.0501  -19.5991   23.4075 N   0  0  0  0  0  0  0  0  0  0  0  0
  -25.6849  -30.7631   22.2038 N   0  0  0  0  0  0  0  0  0  0  0  0
  -20.5498  -18.5763   22.2628 N   0  0  0  0  0  0  0  0  0  0  0  0
  -24.1375  -21.3104   25.0430 N   0  0  0  0  0  0  0  0  0  0  0  0
  -28.4197  -20.9851   23.6454 N   0  0  0  0  0  0  0  0  0  0  0  0
  -19.3695  -25.5419   21.4936 N   0  0  0  0  0  0  0  0  0  0  0  0
  -27.6068  -27.9251   20.9596 N   0  0  0  0  0  0  0  0  0  0  0  0
  -25.4548  -33.7026   23.8667 N   0  0  0  0  0  0  0  0  0  0  0  0
  -19.9034  -20.1700   20.6392 N   0  0  0  0  0  0  0  0  0  0  0  0
  -23.2165  -36.1451   22.4205 N   0  3  0  0  0  0  0  0  0  0  0  0
  -27.0089  -22.0785   25.0852 O   0  0  0  0  0  0  0  0  0  0  0  0
  -26.5100  -28.4592   22.9431 O   0  0  0  0  0  0  0  0  0  0  0  0
  -27.5318  -32.0800   22.7432 O   0  0  0  0  0  0  0  0  0  0  0  0
  -23.1447  -33.6293   23.6783 O   0  0  0  0  0  0  0  0  0  0  0  0
  -18.3222  -18.8943   21.7018 O   0  0  0  0  0  0  0  0  0  0  0  0
  -30.3612  -17.4909   19.7652 O   0  0  0  0  0  0  0  0  0  0  0  0
  -20.2651  -28.1504   20.8427 O   0  0  0  0  0  0  0  0  0  1  0  0
  -30.8681  -12.0267   19.2268 F   0  0  0  0  0  0  0  0  0  0  0  0
  -32.6139  -16.1781   20.6841 F   0  0  0  0  0  0  0  0  0  0  0  0
  -20.7838  -23.3321   20.0245 Cl  0  0  0  0  0  0  0  0  0  0  0  0
  1  2  1  0  0  0  0
  1  5  2  0  0  0  0
  2  6  2  0  0  0  0
  3  8  2  0  0  0  0
  3 17  1  0  0  0  0
  4  9  1  0  0  0  0
  4 17  2  0  0  0  0
  5 19  1  0  0  0  0
  6 21  1  0  0  0  0
  7 10  2  0  0  0  0
  7 20  1  0  0  0  0
  8 26  1  0  0  0  0
  9 26  2  0  0  0  0
 10 27  1  0  0  0  0
 11 12  2  0  0  0  0
 11 28  1  0  0  0  0
 12 29  1  0  0  0  0
 13 22  1  0  0  0  0
 13 27  2  0  0  0  0
 14 23  1  0  0  0  0
 14 24  2  0  0  0  0
 15 23  2  0  0  0  0
 15 25  1  0  0  0  0
 16 29  2  0  0  0  0
 16 30  1  0  0  0  0
 17 32  1  0  0  0  0
 18 32  1  0  0  0  0
 18 33  2  0  0  0  0
 18 34  1  0  0  0  0
 19 21  2  0  0  0  0
 19 39  1  0  0  0  0
 20 22  2  0  0  0  0
 20 40  1  0  0  0  0
 21 48  1  0  0  0  0
 22 41  1  0  0  0  0
 23 51  1  0  0  0  0
 24 31  1  0  0  0  0
 24 57  1  0  0  0  0
 25 31  2  0  0  0  0
 25 69  1  0  0  0  0
 26 79  1  0  0  0  0
 27 80  1  0  0  0  0
 28 30  2  0  0  0  0
 28 79  1  0  0  0  0
 29 81  1  0  0  0  0
 30 82  1  0  0  0  0
 31 83  1  0  0  0  0
 32 63  2  0  0  0  0
 33 64  1  0  0  0  0
 33 67  1  0  0  0  0
 34 68  1  0  0  0  0
 34 74  2  0  0  0  0
 35 49  1  0  0  0  0
 35 70  1  0  0  0  0
 35 75  2  0  0  0  0
 36 60  1  0  0  0  0
 36 65  1  0  0  0  0
 36 76  2  0  0  0  0
 37 61  1  0  0  0  0
 37 71  1  0  0  0  0
 37 77  2  0  0  0  0
 38 66  1  0  0  0  0
 38 72  1  0  0  0  0
 38 78  2  0  0  0  0
 39 42  1  0  0  0  0
 40 49  1  0  0  0  0
 41 65  1  0  0  0  0
 42 44  1  0  0  0  0
 43 45  1  0  0  0  0
 43 46  1  0  0  0  0
 44 48  1  0  0  0  0
 45 50  1  0  0  0  0
 46 66  1  0  0  0  0
 47 50  1  0  0  0  0
 47 66  1  0  0  0  0
 48 70  1  0  0  0  0
 49 65  1  0  0  0  0
 50 64  1  0  0  0  0
 52 61  1  0  0  0  0
 53 62  1  0  0  0  0
 54 62  1  0  0  0  0
 55 62  1  0  0  0  0
 56 73  1  0  0  0  0
 57 72  1  0  0  0  0
 58 59  1  0  0  0  0
 58 69  1  0  0  0  0
 59 80  1  0  0  0  0
 60 62  1  0  0  0  0
 60 71  1  0  0  0  0
 61 73  1  0  0  0  0
 63 64  1  0  0  0  0
M  CHG  1  73   1
M  ISO  4  38 100  59 101  72 100  80 101
M  END
> <Batch ID>
0035

> <Smiles>
CNC(C)C(=O)NC(C(=O)N1Cc2cc([101O:1][101CH2:1]CNc3cc(C)cc(C[100NH:0][100C:0](=O)N4CCCC(n5nc(-c6ccc(Oc7ccc(F)cc7F)cc6)c(C(N)=O)c5N)C4)c3Cl)ccc2CC1C(=O)NC1CCCc2ccccc21)C(C)(C)C

> <Shape>
0.256

> <Color>
0.065

> <Negative vol penalty>
0.000

$$$$

  -OEChem-04042321513D

 83 91  0     1  0  0  0  0  0999 V2000
  -21.7641  -12.2384   19.7271 C   0  0  0  0  0  0  0  0  0  0  0  0
  -21.5797  -13.5632   20.1098 C   0  0  0  0  0  0  0  0  0  0  0  0
  -18.2654  -27.9556   22.0394 C   0  0  0  0  0  0  0  0  0  0  0  0
  -32.2272  -27.8849   18.5462 C   0  0  0  0  0  0  0  0  0  0  0  0
  -32.0746  -29.5081   20.3292 C   0  0  0  0  0  0  0  0  0  0  0  0
  -23.0239  -11.6512   19.8370 C   0  0  0  0  0  0  0  0  0  0  0  0
  -22.6549  -14.3011   20.6037 C   0  0  0  0  0  0  0  0  0  0  0  0
  -22.8958  -18.9520   18.6147 C   0  0  0  0  0  0  0  0  0  0  0  0
  -19.4859  -28.5848   22.2847 C   0  0  0  0  0  0  0  0  0  0  0  0
  -18.1471  -26.5753   22.2023 C   0  0  0  0  0  0  0  0  0  0  0  0
  -33.2598  -28.6206   17.9648 C   0  0  0  0  0  0  0  0  0  0  0  0
  -33.1072  -30.2438   19.7478 C   0  0  0  0  0  0  0  0  0  0  0  0
  -22.0163  -19.9077   19.1216 C   0  0  0  0  0  0  0  0  0  0  0  0
  -35.6938  -30.2617   15.8186 C   0  0  0  0  0  0  0  0  0  0  0  0
  -35.6467  -30.4711   14.4404 C   0  0  0  0  0  0  0  0  0  0  0  0
  -23.7884  -20.8030   20.4918 C   0  0  0  0  0  0  0  0  0  0  0  0
  -33.5299  -31.6097   14.6858 C   0  0  0  0  0  0  0  0  0  0  0  0
  -31.6345  -28.3287   19.7284 C   0  0  0  0  0  0  0  0  0  0  0  0
  -30.6885  -26.5376   21.2791 C   0  0  0  0  0  0  0  0  0  0  0  0
  -24.1171  -12.3852   20.3234 C   0  0  0  0  0  0  0  0  0  0  0  0
  -24.2277  -18.9077   19.0514 C   0  0  0  0  0  0  0  0  0  0  0  0
  -23.9301  -13.7228   20.7215 C   0  0  0  0  0  0  0  0  0  0  0  0
  -24.6835  -19.8474   19.9869 C   0  0  0  0  0  0  0  0  0  0  0  0
  -20.5881  -27.8336   22.6928 C   0  0  0  0  0  0  0  0  0  0  0  0
  -19.2493  -25.8242   22.6104 C   0  0  0  0  0  0  0  0  0  0  0  0
  -33.6998  -29.8000   18.5656 C   0  0  0  0  0  0  0  0  0  0  0  0
  -22.4618  -20.8315   20.0624 C   0  0  0  0  0  0  0  0  0  0  0  0
  -34.6590  -30.7261   16.6305 C   0  0  0  0  0  0  0  0  0  0  0  0
  -34.5648  -31.1451   13.8740 C   0  0  0  0  0  0  0  0  0  0  0  0
  -33.5771  -31.4001   16.0641 C   0  0  0  0  0  0  0  0  0  0  0  0
  -20.4698  -26.4533   22.8557 C   0  0  0  0  0  0  0  0  0  0  0  0
  -30.5674  -27.5695   20.3291 C   0  0  0  0  0  0  0  0  0  0  0  0
  -29.3957  -26.1454   21.5266 C   0  0  0  0  0  0  0  0  0  0  0  0
  -31.8644  -25.9833   21.8837 C   0  0  0  0  0  0  0  0  0  0  0  0
  -26.0217  -16.7648   20.5657 C   0  0  0  0  0  0  0  0  0  0  0  0
  -28.3890  -18.9004   19.9683 C   0  0  0  0  0  0  0  0  0  0  0  0
  -29.2812  -22.1286   19.3125 C   0  0  0  0  0  0  0  0  0  0  0  0
  -24.2019  -28.4088   22.0865 C   0  0  0  0  0  0  0  0  0  0  0  0
  -25.4494  -11.6933   20.4685 C   0  0  0  0  0  0  0  0  0  0  0  0
  -25.1708  -17.8876   18.4749 C   0  0  0  0  0  0  0  0  0  0  0  0
  -26.1089  -19.8552   20.4732 C   0  0  0  0  0  0  0  0  0  0  0  0
  -26.6196  -12.6566   20.6498 C   0  0  0  0  0  0  0  0  0  0  0  0
  -25.1030  -26.5621   19.1074 C   0  0  0  0  0  0  0  0  0  0  0  0
  -26.2783  -13.7219   21.6868 C   0  0  0  0  0  0  0  0  0  0  0  0
  -26.6286  -26.5347   19.2163 C   0  0  0  0  0  0  0  0  0  0  0  0
  -24.5378  -27.8933   19.5937 C   0  0  0  0  0  0  0  0  0  0  0  0
  -26.4650  -28.2376   21.0907 C   0  0  0  0  0  0  0  0  0  0  0  0
  -25.0773  -14.5634   21.2387 C   0  0  1  0  0  0  0  0  0  0  0  0
  -26.3719  -17.6094   19.3734 C   0  0  1  0  0  0  0  0  0  0  0  0
  -27.0959  -26.9092   20.6353 C   0  0  2  0  0  0  0  0  0  0  0  0
  -31.2933  -23.5734   18.9105 C   0  0  0  0  0  0  0  0  0  0  0  0
  -29.0242  -18.8418   22.9520 C   0  0  0  0  0  0  0  0  0  0  0  0
  -30.3459  -20.9452   22.6411 C   0  0  0  0  0  0  0  0  0  0  0  0
  -31.0301  -18.8581   21.4586 C   0  0  0  0  0  0  0  0  0  0  0  0
  -28.3499  -22.8727   16.6036 C   0  0  0  0  0  0  0  0  0  0  0  0
  -21.8764  -28.5507   22.9403 C   0  0  0  0  0  0  0  0  0  0  0  0
  -19.0759  -24.3428   22.7731 C   0  0  0  0  0  0  0  0  0  0  0  0
  -19.5911  -22.0868   21.8331 C   0  0  0  0  0  0  0  0  0  0  0  0
  -20.2265  -21.4051   20.6373 C   0  0  0  0  0  0  0  0  0  1  0  0
  -28.9608  -20.0937   20.6949 C   0  0  1  0  0  0  0  0  0  0  0  0
  -30.2068  -22.7254   18.2677 C   0  0  2  0  0  0  0  0  0  0  0  0
  -29.8129  -19.6836   21.9291 C   0  0  0  0  0  0  0  0  0  0  0  0
  -29.2979  -27.8170   19.9957 N   0  0  0  0  0  0  0  0  0  0  0  0
  -28.6094  -26.9351   20.7403 N   0  0  0  0  0  0  0  0  0  0  0  0
  -26.9911  -18.8340   19.8845 N   0  0  0  0  0  0  0  0  0  0  0  0
  -25.0054  -28.1816   20.9569 N   0  0  0  0  0  0  0  0  0  0  0  0
  -28.8661  -25.2053   22.3380 N   0  0  0  0  0  0  0  0  0  0  0  0
  -33.1130  -26.5032   21.5163 N   0  0  0  0  0  0  0  0  0  0  0  0
  -25.4828  -15.5336   20.2443 N   0  0  0  0  0  0  0  0  0  0  0  0
  -29.6896  -20.8689   19.6967 N   0  0  0  0  0  0  0  0  0  0  0  0
  -22.8303  -28.3448   21.8733 N   0  0  0  0  0  0  0  0  0  0  0  0
  -29.4371  -23.5843   17.3238 N   0  3  0  0  0  0  0  0  0  0  0  0
  -19.6941  -23.5589   21.6698 N   0  3  0  0  0  0  0  0  0  0  0  0
  -31.8106  -25.0434   22.7126 O   0  0  0  0  0  0  0  0  0  0  0  0
  -26.2266  -17.1975   21.6938 O   0  0  0  0  0  0  0  0  0  0  0  0
  -29.1548  -18.0620   19.4862 O   0  0  0  0  0  0  0  0  0  0  0  0
  -28.2967  -22.7221   19.7472 O   0  0  0  0  0  0  0  0  0  0  0  0
  -24.6721  -28.6460   23.2044 O   0  0  0  0  0  0  0  0  0  0  0  0
  -34.7076  -30.5181   17.9987 O   0  0  0  0  0  0  0  0  0  0  0  0
  -21.6052  -21.7649   20.5593 O   0  0  0  0  0  0  0  0  0  1  0  0
  -34.5204  -31.3476   12.5507 F   0  0  0  0  0  0  0  0  0  0  0  0
  -32.5805  -31.8497   16.8390 F   0  0  0  0  0  0  0  0  0  0  0  0
  -21.8389  -25.5208   23.3605 Cl  0  0  0  0  0  0  0  0  0  0  0  0
  1  2  1  0  0  0  0
  1  6  2  0  0  0  0
  2  7  2  0  0  0  0
  3  9  1  0  0  0  0
  3 10  2  0  0  0  0
  4 11  2  0  0  0  0
  4 18  1  0  0  0  0
  5 12  1  0  0  0  0
  5 18  2  0  0  0  0
  6 20  1  0  0  0  0
  7 22  1  0  0  0  0
  8 13  2  0  0  0  0
  8 21  1  0  0  0  0
  9 24  2  0  0  0  0
 10 25  1  0  0  0  0
 11 26  1  0  0  0  0
 12 26  2  0  0  0  0
 13 27  1  0  0  0  0
 14 15  2  0  0  0  0
 14 28  1  0  0  0  0
 15 29  1  0  0  0  0
 16 23  1  0  0  0  0
 16 27  2  0  0  0  0
 17 29  2  0  0  0  0
 17 30  1  0  0  0  0
 18 32  1  0  0  0  0
 19 32  1  0  0  0  0
 19 33  2  0  0  0  0
 19 34  1  0  0  0  0
 20 22  2  0  0  0  0
 20 39  1  0  0  0  0
 21 23  2  0  0  0  0
 21 40  1  0  0  0  0
 22 48  1  0  0  0  0
 23 41  1  0  0  0  0
 24 31  1  0  0  0  0
 24 56  1  0  0  0  0
 25 31  2  0  0  0  0
 25 57  1  0  0  0  0
 26 79  1  0  0  0  0
 27 80  1  0  0  0  0
 28 30  2  0  0  0  0
 28 79  1  0  0  0  0
 29 81  1  0  0  0  0
 30 82  1  0  0  0  0
 31 83  1  0  0  0  0
 32 63  2  0  0  0  0
 33 64  1  0  0  0  0
 33 67  1  0  0  0  0
 34 68  1  0  0  0  0
 34 74  2  0  0  0  0
 35 49  1  0  0  0  0
 35 69  1  0  0  0  0
 35 75  2  0  0  0  0
 36 60  1  0  0  0  0
 36 65  1  0  0  0  0
 36 76  2  0  0  0  0
 37 61  1  0  0  0  0
 37 70  1  0  0  0  0
 37 77  2  0  0  0  0
 38 66  1  0  0  0  0
 38 71  1  0  0  0  0
 38 78  2  0  0  0  0
 39 42  1  0  0  0  0
 40 49  1  0  0  0  0
 41 65  1  0  0  0  0
 42 44  1  0  0  0  0
 43 45  1  0  0  0  0
 43 46  1  0  0  0  0
 44 48  1  0  0  0  0
 45 50  1  0  0  0  0
 46 66  1  0  0  0  0
 47 50  1  0  0  0  0
 47 66  1  0  0  0  0
 48 69  1  0  0  0  0
 49 65  1  0  0  0  0
 50 64  1  0  0  0  0
 51 61  1  0  0  0  0
 52 62  1  0  0  0  0
 53 62  1  0  0  0  0
 54 62  1  0  0  0  0
 55 72  1  0  0  0  0
 56 71  1  0  0  0  0
 57 73  1  0  0  0  0
 58 59  1  0  0  0  0
 58 73  1  0  0  0  0
 59 80  1  0  0  0  0
 60 62  1  0  0  0  0
 60 70  1  0  0  0  0
 61 72  1  0  0  0  0
 63 64  1  0  0  0  0
M  CHG  2  72   1  73   1
M  ISO  4  38 100  59 101  71 100  80 101
M  END
> <Batch ID>
0035

> <Smiles>
CNC(C)C(=O)NC(C(=O)N1Cc2cc([101O:1][101CH2:1]CNCc3cccc(C[100NH:0][100C:0](=O)N4CCCC(n5nc(-c6ccc(Oc7ccc(F)cc7F)cc6)c(C(N)=O)c5N)C4)c3Cl)ccc2CC1C(=O)NC1CCCc2ccccc21)C(C)(C)C

> <Shape>
0.227

> <Color>
0.071

> <Negative vol penalty>
0.000

$$$$

  -OEChem-04042321513D

 88 97  0     1  0  0  0  0  0999 V2000
  -16.7546  -30.2665   23.9413 C   0  0  0  0  0  0  0  0  0  0  0  0
  -17.9347  -30.8109   24.4375 C   0  0  0  0  0  0  0  0  0  0  0  0
  -26.4810  -14.3835   22.4208 C   0  0  0  0  0  0  0  0  0  0  0  0
  -24.6297  -14.6016   20.8838 C   0  0  0  0  0  0  0  0  0  0  0  0
  -16.7922  -29.0954   23.1855 C   0  0  0  0  0  0  0  0  0  0  0  0
  -19.1532  -30.1840   24.1792 C   0  0  0  0  0  0  0  0  0  0  0  0
  -26.0701  -31.6720   23.0575 C   0  0  0  0  0  0  0  0  0  0  0  0
  -26.5772  -13.0266   22.1123 C   0  0  0  0  0  0  0  0  0  0  0  0
  -24.7259  -13.2447   20.5753 C   0  0  0  0  0  0  0  0  0  0  0  0
  -27.3366  -31.3198   23.5219 C   0  0  0  0  0  0  0  0  0  0  0  0
  -23.8086  -10.3026   21.9658 C   0  0  0  0  0  0  0  0  0  0  0  0
  -22.6263   -9.5642   21.9141 C   0  0  0  0  0  0  0  0  0  0  0  0
  -27.2883  -29.3448   22.1377 C   0  0  0  0  0  0  0  0  0  0  0  0
  -29.3356  -24.8323   22.0902 C   0  0  0  0  0  0  0  0  0  0  0  0
  -23.0662   -9.0216   19.6013 C   0  0  0  0  0  0  0  0  0  0  0  0
  -25.5071  -15.1710   21.8065 C   0  0  0  0  0  0  0  0  0  0  0  0
  -25.1566  -17.1415   23.3883 C   0  0  0  0  0  0  0  0  0  0  0  0
  -18.0127  -28.4591   22.9097 C   0  0  0  0  0  0  0  0  0  0  0  0
  -25.3974  -30.8562   22.1365 C   0  0  0  0  0  0  0  0  0  0  0  0
  -19.2071  -29.0026   23.4202 C   0  0  0  0  0  0  0  0  0  0  0  0
  -26.0144  -29.6902   21.6613 C   0  0  0  0  0  0  0  0  0  0  0  0
  -30.2611  -25.6687   22.7141 C   0  0  0  0  0  0  0  0  0  0  0  0
  -29.8059  -24.5943   24.8297 C   0  0  0  0  0  0  0  0  0  0  0  0
  -30.4963  -25.5497   24.0839 C   0  0  0  0  0  0  0  0  0  0  0  0
  -28.8802  -23.7579   24.2057 C   0  0  0  0  0  0  0  0  0  0  0  0
  -28.6450  -23.8770   22.8360 C   0  0  0  0  0  0  0  0  0  0  0  0
  -25.6997  -12.4572   21.1896 C   0  0  0  0  0  0  0  0  0  0  0  0
  -27.9447  -30.1546   23.0642 C   0  0  0  0  0  0  0  0  0  0  0  0
  -24.6197  -10.4005   20.8351 C   0  0  0  0  0  0  0  0  0  0  0  0
  -22.2551   -8.9237   20.7319 C   0  0  0  0  0  0  0  0  0  0  0  0
  -24.2485   -9.7600   19.6530 C   0  0  0  0  0  0  0  0  0  0  0  0
  -25.4068  -16.5726   22.1251 C   0  0  0  0  0  0  0  0  0  0  0  0
  -25.1587  -18.4961   23.1613 C   0  0  0  0  0  0  0  0  0  0  0  0
  -24.9416  -16.5026   24.6537 C   0  0  0  0  0  0  0  0  0  0  0  0
  -22.6750  -29.2157   22.1628 C   0  0  0  0  0  0  0  0  0  0  0  0
  -23.4052  -28.7062   19.0436 C   0  0  0  0  0  0  0  0  0  0  0  0
  -26.3605  -27.9354   17.1228 C   0  0  0  0  0  0  0  0  0  0  0  0
  -27.3739  -23.0406   20.8282 C   0  0  0  0  0  0  0  0  0  0  0  0
  -17.9986  -27.1693   22.1281 C   0  0  0  0  0  0  0  0  0  0  0  0
  -24.0429  -31.2640   21.6251 C   0  0  0  0  0  0  0  0  0  0  0  0
  -25.3430  -28.7906   20.6570 C   0  0  0  0  0  0  0  0  0  0  0  0
  -19.3682  -26.7720   21.5835 C   0  0  0  0  0  0  0  0  0  0  0  0
  -25.1509  -21.1096   18.8264 C   0  0  0  0  0  0  0  0  0  0  0  0
  -20.4341  -26.9119   22.6657 C   0  0  0  0  0  0  0  0  0  0  0  0
  -24.9988  -19.8039   19.6101 C   0  0  0  0  0  0  0  0  0  0  0  0
  -30.3310  -30.5833   25.5011 C   0  0  0  0  0  0  0  0  0  0  0  0
  -31.7432  -30.2987   25.0031 C   0  0  0  0  0  0  0  0  0  0  0  0
  -26.5708  -21.6654   18.9206 C   0  0  0  0  0  0  0  0  0  0  0  0
  -26.9341  -20.5180   21.0702 C   0  0  0  0  0  0  0  0  0  0  0  0
  -29.7390  -28.1559   25.1593 C   0  0  0  0  0  0  0  0  0  0  0  0
  -20.5508  -28.3653   23.1404 C   0  0  1  0  0  0  0  0  0  0  0  0
  -23.2334  -30.0925   21.0778 C   0  0  1  0  0  0  0  0  0  0  0  0
  -25.5039  -19.9538   21.0585 C   0  0  2  0  0  0  0  0  0  0  0  0
  -29.3234  -29.5997   24.9195 C   0  0  2  0  0  0  0  0  0  1  0  0
  -32.1692  -28.8484   25.2604 C   0  0  2  0  0  0  0  0  0  0  0  0
  -30.9845  -26.6860   21.8935 C   0  0  0  0  0  0  0  0  0  0  0  0
  -30.0586  -24.4672   26.2991 C   0  0  0  0  0  0  0  0  0  0  0  0
  -28.1393  -22.7346   25.0085 C   0  0  0  0  0  0  0  0  0  0  0  0
  -33.5570  -28.6056   24.6703 C   0  0  0  0  0  0  0  0  0  0  0  0
  -26.9213  -28.4221   14.7258 C   0  0  0  0  0  0  0  0  0  0  0  0
  -22.3035  -25.9093   18.5202 C   0  0  0  0  0  0  0  0  0  0  0  0
  -24.1198  -25.5863   16.8275 C   0  0  0  0  0  0  0  0  0  0  0  0
  -22.4176  -27.3804   16.5009 C   0  0  0  0  0  0  0  0  0  0  0  0
  -28.8660  -29.3224   17.8696 C   0  0  0  0  0  0  0  0  0  0  0  0
  -31.4917  -26.4518   24.7521 C   0  0  0  0  0  0  0  0  0  0  0  0
  -24.1864  -27.6602   18.2855 C   0  0  1  0  0  0  0  0  0  0  0  0
  -27.0933  -28.8634   16.1709 C   0  0  2  0  0  0  0  0  0  0  0  0
  -23.2631  -26.6407   17.5605 C   0  0  0  0  0  0  0  0  0  0  0  0
  -25.5568  -17.4907   21.1667 N   0  0  0  0  0  0  0  0  0  0  0  0
  -25.4002  -18.6502   21.8279 N   0  0  0  0  0  0  0  0  0  0  0  0
  -24.0167  -29.2289   20.1919 N   0  0  0  0  0  0  0  0  0  0  0  0
  -26.9799  -21.7839   20.3218 N   0  0  0  0  0  0  0  0  0  0  0  0
  -24.9773  -19.5585   23.9742 N   0  0  0  0  0  0  0  0  0  0  0  0
  -23.6304  -16.1691   25.0196 N   0  0  0  0  0  0  0  0  0  0  0  0
  -27.7099  -23.0372   22.1816 N   0  0  0  0  0  0  0  0  0  0  0  0
  -21.2947  -29.1524   22.1804 N   0  0  0  0  0  0  0  0  0  0  0  0
  -25.0871  -28.3873   17.3976 N   0  0  0  0  0  0  0  0  0  0  0  0
  -31.1418  -27.9153   24.6260 N   0  3  1  0  0  0  0  0  0  0  0  0
  -28.5498  -28.8838   16.4859 N   0  3  0  0  0  0  0  0  0  0  0  0
  -25.8825  -16.2501   25.4439 O   0  0  0  0  0  0  0  0  0  0  0  0
  -23.4398  -28.6382   22.9264 O   0  0  0  0  0  0  0  0  0  0  0  0
  -22.2964  -29.0519   18.6281 O   0  0  0  0  0  0  0  0  0  0  0  0
  -26.8658  -26.9100   17.5744 O   0  0  0  0  0  0  0  0  0  0  0  0
  -27.3844  -24.0511   20.1206 O   0  0  0  0  0  0  0  0  0  0  0  0
  -25.7935  -11.1332   20.8882 O   0  0  0  0  0  0  0  0  0  0  0  0
  -29.1806  -29.8081   23.5163 O   0  0  0  0  0  0  0  0  0  1  0  0
  -21.1205   -8.2135   20.6829 F   0  0  0  0  0  0  0  0  0  0  0  0
  -25.0242   -9.8494   18.5639 F   0  0  0  0  0  0  0  0  0  0  0  0
  1  2  1  0  0  0  0
  1  5  2  0  0  0  0
  2  6  2  0  0  0  0
  3  8  2  0  0  0  0
  3 16  1  0  0  0  0
  4  9  1  0  0  0  0
  4 16  2  0  0  0  0
  5 18  1  0  0  0  0
  6 20  1  0  0  0  0
  7 10  2  0  0  0  0
  7 19  1  0  0  0  0
  8 27  1  0  0  0  0
  9 27  2  0  0  0  0
 10 28  1  0  0  0  0
 11 12  2  0  0  0  0
 11 29  1  0  0  0  0
 12 30  1  0  0  0  0
 13 21  1  0  0  0  0
 13 28  2  0  0  0  0
 14 22  2  0  0  0  0
 14 26  1  0  0  0  0
 15 30  2  0  0  0  0
 15 31  1  0  0  0  0
 16 32  1  0  0  0  0
 17 32  1  0  0  0  0
 17 33  2  0  0  0  0
 17 34  1  0  0  0  0
 18 20  2  0  0  0  0
 18 39  1  0  0  0  0
 19 21  2  0  0  0  0
 19 40  1  0  0  0  0
 20 51  1  0  0  0  0
 21 41  1  0  0  0  0
 22 24  1  0  0  0  0
 22 56  1  0  0  0  0
 23 24  2  0  0  0  0
 23 25  1  0  0  0  0
 23 57  1  0  0  0  0
 24 65  1  0  0  0  0
 25 26  2  0  0  0  0
 25 58  1  0  0  0  0
 26 75  1  0  0  0  0
 27 85  1  0  0  0  0
 28 86  1  0  0  0  0
 29 31  2  0  0  0  0
 29 85  1  0  0  0  0
 30 87  1  0  0  0  0
 31 88  1  0  0  0  0
 32 69  2  0  0  0  0
 33 70  1  0  0  0  0
 33 73  1  0  0  0  0
 34 74  1  0  0  0  0
 34 80  2  0  0  0  0
 35 52  1  0  0  0  0
 35 76  1  0  0  0  0
 35 81  2  0  0  0  0
 36 66  1  0  0  0  0
 36 71  1  0  0  0  0
 36 82  2  0  0  0  0
 37 67  1  0  0  0  0
 37 77  1  0  0  0  0
 37 83  2  0  0  0  0
 38 72  1  0  0  0  0
 38 75  1  0  0  0  0
 38 84  2  0  0  0  0
 39 42  1  0  0  0  0
 40 52  1  0  0  0  0
 41 71  1  0  0  0  0
 42 44  1  0  0  0  0
 43 45  1  0  0  0  0
 43 48  1  0  0  0  0
 44 51  1  0  0  0  0
 45 53  1  0  0  0  0
 46 47  1  0  0  0  0
 46 54  1  0  0  0  0
 47 55  1  0  0  0  0
 48 72  1  0  0  0  0
 49 53  1  0  0  0  0
 49 72  1  0  0  0  0
 50 54  1  0  0  0  0
 50 78  1  0  0  0  0
 51 76  1  0  0  0  0
 52 71  1  0  0  0  0
 53 70  1  0  0  0  0
 54 86  1  0  0  0  0
 55 59  1  0  0  0  0
 55 78  1  0  0  0  0
 60 67  1  0  0  0  0
 61 68  1  0  0  0  0
 62 68  1  0  0  0  0
 63 68  1  0  0  0  0
 64 79  1  0  0  0  0
 65 78  1  0  0  0  0
 66 68  1  0  0  0  0
 66 77  1  0  0  0  0
 67 79  1  0  0  0  0
 69 70  1  0  0  0  0
M  CHG  2  78   1  79   1
M  ISO  4  38 100  54 101  75 100  86 101
M  END
> <Batch ID>
0035

> <Smiles>
CNC(C)C(=O)NC(C(=O)N1Cc2cc([101O:1][101CH:1]3CCC(C)N(Cc4c(C)cc([100NH:0][100C:0](=O)N5CCCC(n6nc(-c7ccc(Oc8ccc(F)cc8F)cc7)c(C(N)=O)c6N)C5)c(C)c4C)C3)ccc2CC1C(=O)NC1CCCc2ccccc21)C(C)(C)C

> <Shape>
0.218

> <Color>
0.117

> <Negative vol penalty>
0.000

$$$$

  -OEChem-04042321513D

 84 93  0     1  0  0  0  0  0999 V2000
  -28.3044  -35.4112   24.2123 C   0  0  0  0  0  0  0  0  0  0  0  0
  -28.4986  -34.0806   23.8557 C   0  0  0  0  0  0  0  0  0  0  0  0
  -25.6598  -14.0330   20.4672 C   0  0  0  0  0  0  0  0  0  0  0  0
  -26.4040  -13.7071   22.7425 C   0  0  0  0  0  0  0  0  0  0  0  0
  -27.0579  -35.8336   24.6723 C   0  0  0  0  0  0  0  0  0  0  0  0
  -27.4466  -33.1713   23.9599 C   0  0  0  0  0  0  0  0  0  0  0  0
  -27.0548  -30.1791   19.8932 C   0  0  0  0  0  0  0  0  0  0  0  0
  -24.9881  -21.9573   19.6892 C   0  0  0  0  0  0  0  0  0  0  0  0
  -26.6697  -13.1837   20.0152 C   0  0  0  0  0  0  0  0  0  0  0  0
  -27.4139  -12.8577   22.2905 C   0  0  0  0  0  0  0  0  0  0  0  0
  -27.9532  -29.1174   19.7950 C   0  0  0  0  0  0  0  0  0  0  0  0
  -29.9936  -13.3589   19.4274 C   0  0  0  0  0  0  0  0  0  0  0  0
  -30.7330  -13.7660   18.3169 C   0  0  0  0  0  0  0  0  0  0  0  0
  -23.7249  -21.8772   20.2754 C   0  0  0  0  0  0  0  0  0  0  0  0
  -26.0115  -21.7835   21.8707 C   0  0  0  0  0  0  0  0  0  0  0  0
  -26.2531  -27.6115   20.6080 C   0  0  0  0  0  0  0  0  0  0  0  0
  -30.0181  -11.7941   17.1179 C   0  0  0  0  0  0  0  0  0  0  0  0
  -25.5270  -14.2947   21.8309 C   0  0  0  0  0  0  0  0  0  0  0  0
  -24.7483  -21.7034   22.4569 C   0  0  0  0  0  0  0  0  0  0  0  0
  -23.0961  -15.0068   22.1331 C   0  0  0  0  0  0  0  0  0  0  0  0
  -25.9873  -34.9311   24.7731 C   0  0  0  0  0  0  0  0  0  0  0  0
  -25.7500  -29.9664   20.3607 C   0  0  0  0  0  0  0  0  0  0  0  0
  -26.1849  -33.5817   24.4230 C   0  0  0  0  0  0  0  0  0  0  0  0
  -25.3393  -28.6717   20.7088 C   0  0  0  0  0  0  0  0  0  0  0  0
  -26.1314  -21.9104   20.4868 C   0  0  0  0  0  0  0  0  0  0  0  0
  -27.5468  -12.5960   20.9268 C   0  0  0  0  0  0  0  0  0  0  0  0
  -27.5533  -27.8339   20.1551 C   0  0  0  0  0  0  0  0  0  0  0  0
  -29.2664  -12.1694   19.3831 C   0  0  0  0  0  0  0  0  0  0  0  0
  -30.7453  -12.9837   17.1622 C   0  0  0  0  0  0  0  0  0  0  0  0
  -29.2787  -11.3870   18.2284 C   0  0  0  0  0  0  0  0  0  0  0  0
  -23.6050  -21.7503   21.6592 C   0  0  0  0  0  0  0  0  0  0  0  0
  -24.4843  -15.1724   22.2983 C   0  0  0  0  0  0  0  0  0  0  0  0
  -22.5436  -16.1012   22.7525 C   0  0  0  0  0  0  0  0  0  0  0  0
  -24.6708  -21.5711   23.9175 C   0  0  0  0  0  0  0  0  0  0  0  0
  -22.3708  -13.9576   21.4784 C   0  0  0  0  0  0  0  0  0  0  0  0
  -24.0620  -31.0000   22.8480 C   0  0  0  0  0  0  0  0  0  0  0  0
  -21.6468  -29.4171   21.3704 C   0  0  0  0  0  0  0  0  0  0  0  0
  -21.2247  -26.2787   19.6413 C   0  0  0  0  0  0  0  0  0  0  0  0
  -24.6713  -35.4241   25.3204 C   0  0  0  0  0  0  0  0  0  0  0  0
  -24.7848  -31.1176   20.4356 C   0  0  0  0  0  0  0  0  0  0  0  0
  -23.9433  -28.3870   21.1973 C   0  0  0  0  0  0  0  0  0  0  0  0
  -23.5049  -34.4782   25.0464 C   0  0  0  0  0  0  0  0  0  0  0  0
  -23.3652  -19.2328   26.2774 C   0  0  0  0  0  0  0  0  0  0  0  0
  -28.8728  -24.3934   17.2170 C   0  0  0  0  0  0  0  0  0  0  0  0
  -23.8947  -33.0407   25.3757 C   0  0  0  0  0  0  0  0  0  0  0  0
  -23.3914  -17.9056   25.5172 C   0  0  0  0  0  0  0  0  0  0  0  0
  -29.1165  -25.6114   18.0983 C   0  0  0  0  0  0  0  0  0  0  0  0
  -24.5561  -20.1152   25.9118 C   0  0  0  0  0  0  0  0  0  0  0  0
  -24.7417  -19.0326   23.6986 C   0  0  0  0  0  0  0  0  0  0  0  0
  -28.7771  -23.1153   18.0380 C   0  0  0  0  0  0  0  0  0  0  0  0
  -27.9711  -24.4351   20.0125 C   0  0  0  0  0  0  0  0  0  0  0  0
  -25.0614  -32.5707   24.4986 C   0  0  1  0  0  0  0  0  0  0  0  0
  -23.6383  -30.8736   21.4119 C   0  0  1  0  0  0  0  0  0  0  0  0
  -23.5309  -18.1343   24.0004 C   0  0  1  0  0  0  0  0  0  0  0  0
  -28.0674  -25.7201   19.2005 C   0  0  1  0  0  0  0  0  0  1  0  0
  -19.5955  -25.6064   17.8549 C   0  0  0  0  0  0  0  0  0  0  0  0
  -19.9620  -28.3914   23.6983 C   0  0  0  0  0  0  0  0  0  0  0  0
  -19.3099  -26.4378   22.2747 C   0  0  0  0  0  0  0  0  0  0  0  0
  -18.6948  -28.7511   21.5724 C   0  0  0  0  0  0  0  0  0  0  0  0
  -23.3960  -25.4293   17.8185 C   0  0  0  0  0  0  0  0  0  0  0  0
  -27.4903  -21.9955   19.8567 C   0  0  0  0  0  0  0  0  0  0  0  0
  -21.1064  -28.0082   21.4159 C   0  0  1  0  0  0  0  0  0  0  0  0
  -21.0086  -26.0839   18.1514 C   0  0  2  0  0  0  0  0  0  0  0  0
  -19.7957  -27.9027   22.2456 C   0  0  0  0  0  0  0  0  0  0  0  0
  -24.7946  -16.2845   22.9699 N   0  0  0  0  0  0  0  0  0  0  0  0
  -23.5936  -16.8277   23.2320 N   0  0  0  0  0  0  0  0  0  0  0  0
  -24.6485  -20.2849   24.4622 N   0  0  0  0  0  0  0  0  0  0  0  0
  -23.0384  -29.5466   21.2590 N   0  0  0  0  0  0  0  0  0  0  0  0
  -21.2670  -16.5034   22.9282 N   0  0  0  0  0  0  0  0  0  0  0  0
  -21.9813  -12.8428   22.2333 N   0  0  0  0  0  0  0  0  0  0  0  0
  -24.5925  -32.2342   23.1715 N   0  0  0  0  0  0  0  0  0  0  0  0
  -20.9717  -27.5777   20.0285 N   0  0  0  0  0  0  0  0  0  0  0  0
  -27.7059  -23.2719   19.0910 N   0  3  2  0  0  0  0  0  0  0  0  0
  -21.9672  -25.0760   17.6165 N   0  3  0  0  0  0  0  0  0  0  0  0
  -24.6186  -22.6211   24.5563 O   0  0  0  0  0  0  0  0  0  0  0  0
  -22.0911  -13.9995   20.2563 O   0  0  0  0  0  0  0  0  0  0  0  0
  -23.9170  -30.0486   23.6067 O   0  0  0  0  0  0  0  0  0  0  0  0
  -20.8624  -30.3676   21.4243 O   0  0  0  0  0  0  0  0  0  0  0  0
  -21.5786  -25.3686   20.3877 O   0  0  0  0  0  0  0  0  0  0  0  0
  -28.5322  -11.7670   20.4861 O   0  0  0  0  0  0  0  0  0  0  0  0
  -28.4283  -26.7960   20.0608 O   0  0  0  0  0  0  0  0  0  1  0  0
  -31.4541  -13.3755   16.0954 F   0  0  0  0  0  0  0  0  0  0  0  0
  -28.5811  -10.2438   18.1796 F   0  0  0  0  0  0  0  0  0  0  0  0
  -22.0226  -21.6547   22.3441 Cl  0  0  0  0  0  0  0  0  0  0  0  0
  1  2  1  0  0  0  0
  1  5  2  0  0  0  0
  2  6  2  0  0  0  0
  3  9  2  0  0  0  0
  3 18  1  0  0  0  0
  4 10  1  0  0  0  0
  4 18  2  0  0  0  0
  5 21  1  0  0  0  0
  6 23  1  0  0  0  0
  7 11  2  0  0  0  0
  7 22  1  0  0  0  0
  8 14  2  0  0  0  0
  8 25  1  0  0  0  0
  9 26  1  0  0  0  0
 10 26  2  0  0  0  0
 11 27  1  0  0  0  0
 12 13  2  0  0  0  0
 12 28  1  0  0  0  0
 13 29  1  0  0  0  0
 14 31  1  0  0  0  0
 15 19  1  0  0  0  0
 15 25  2  0  0  0  0
 16 24  1  0  0  0  0
 16 27  2  0  0  0  0
 17 29  2  0  0  0  0
 17 30  1  0  0  0  0
 18 32  1  0  0  0  0
 19 31  2  0  0  0  0
 19 34  1  0  0  0  0
 20 32  1  0  0  0  0
 20 33  2  0  0  0  0
 20 35  1  0  0  0  0
 21 23  2  0  0  0  0
 21 39  1  0  0  0  0
 22 24  2  0  0  0  0
 22 40  1  0  0  0  0
 23 52  1  0  0  0  0
 24 41  1  0  0  0  0
 25 61  1  0  0  0  0
 26 80  1  0  0  0  0
 27 81  1  0  0  0  0
 28 30  2  0  0  0  0
 28 80  1  0  0  0  0
 29 82  1  0  0  0  0
 30 83  1  0  0  0  0
 31 84  1  0  0  0  0
 32 65  2  0  0  0  0
 33 66  1  0  0  0  0
 33 69  1  0  0  0  0
 34 67  1  0  0  0  0
 34 75  2  0  0  0  0
 35 70  1  0  0  0  0
 35 76  2  0  0  0  0
 36 53  1  0  0  0  0
 36 71  1  0  0  0  0
 36 77  2  0  0  0  0
 37 62  1  0  0  0  0
 37 68  1  0  0  0  0
 37 78  2  0  0  0  0
 38 63  1  0  0  0  0
 38 72  1  0  0  0  0
 38 79  2  0  0  0  0
 39 42  1  0  0  0  0
 40 53  1  0  0  0  0
 41 68  1  0  0  0  0
 42 45  1  0  0  0  0
 43 46  1  0  0  0  0
 43 48  1  0  0  0  0
 44 47  1  0  0  0  0
 44 50  1  0  0  0  0
 45 52  1  0  0  0  0
 46 54  1  0  0  0  0
 47 55  1  0  0  0  0
 48 67  1  0  0  0  0
 49 54  1  0  0  0  0
 49 67  1  0  0  0  0
 50 73  1  0  0  0  0
 51 55  1  0  0  0  0
 51 73  1  0  0  0  0
 52 71  1  0  0  0  0
 53 68  1  0  0  0  0
 54 66  1  0  0  0  0
 55 81  1  0  0  0  0
 56 63  1  0  0  0  0
 57 64  1  0  0  0  0
 58 64  1  0  0  0  0
 59 64  1  0  0  0  0
 60 74  1  0  0  0  0
 61 73  1  0  0  0  0
 62 64  1  0  0  0  0
 62 72  1  0  0  0  0
 63 74  1  0  0  0  0
 65 66  1  0  0  0  0
M  CHG  2  73   1  74   1
M  ISO  4  19 100  34 100  55 101  81 101
M  END
> <Batch ID>
0035

> <Smiles>
CNC(C)C(=O)NC(C(=O)N1Cc2cc([101O:1][101CH:1]3CCCN(Cc4ccc(Cl)[100c:0]([100C:0](=O)N5CCCC(n6nc(-c7ccc(Oc8ccc(F)cc8F)cc7)c(C(N)=O)c6N)C5)c4)C3)ccc2CC1C(=O)NC1CCCc2ccccc21)C(C)(C)C

> <Shape>
0.255

> <Color>
0.078

> <Negative vol penalty>
0.000

$$$$

  -OEChem-04042321513D

 83 91  0     1  0  0  0  0  0999 V2000
  -24.6227  -34.3753   13.9085 C   0  0  0  0  0  0  0  0  0  0  0  0
  -25.0740  -33.1242   14.3167 C   0  0  0  0  0  0  0  0  0  0  0  0
  -22.3772  -12.8787   22.5762 C   0  0  0  0  0  0  0  0  0  0  0  0
  -21.9572  -13.8269   20.3941 C   0  0  0  0  0  0  0  0  0  0  0  0
  -24.6839  -35.4574   14.7854 C   0  0  0  0  0  0  0  0  0  0  0  0
  -25.5878  -32.9549   15.6019 C   0  0  0  0  0  0  0  0  0  0  0  0
  -25.0602  -27.9936   19.1534 C   0  0  0  0  0  0  0  0  0  0  0  0
  -28.2337  -20.6104   15.9853 C   0  0  0  0  0  0  0  0  0  0  0  0
  -27.4768  -19.4721   15.7082 C   0  0  0  0  0  0  0  0  0  0  0  0
  -21.0487  -13.1101   22.9325 C   0  0  0  0  0  0  0  0  0  0  0  0
  -20.6286  -14.0582   20.7504 C   0  0  0  0  0  0  0  0  0  0  0  0
  -25.9234  -26.9302   19.4136 C   0  0  0  0  0  0  0  0  0  0  0  0
  -18.0375  -11.6707   22.3907 C   0  0  0  0  0  0  0  0  0  0  0  0
  -17.3528  -10.6447   23.0419 C   0  0  0  0  0  0  0  0  0  0  0  0
  -26.6939  -28.0509   21.4060 C   0  0  0  0  0  0  0  0  0  0  0  0
  -29.1073  -19.5462   17.9706 C   0  0  0  0  0  0  0  0  0  0  0  0
  -16.9902  -12.0924   24.9418 C   0  0  0  0  0  0  0  0  0  0  0  0
  -22.8315  -13.2371   21.3070 C   0  0  0  0  0  0  0  0  0  0  0  0
  -24.7335  -11.8430   20.3340 C   0  0  0  0  0  0  0  0  0  0  0  0
  -25.1898  -35.2991   16.0853 C   0  0  0  0  0  0  0  0  0  0  0  0
  -25.0151  -29.1005   20.0132 C   0  0  0  0  0  0  0  0  0  0  0  0
  -25.6570  -34.0362   16.4966 C   0  0  0  0  0  0  0  0  0  0  0  0
  -25.8274  -29.1259   21.1559 C   0  0  0  0  0  0  0  0  0  0  0  0
  -29.0490  -20.6475   17.1165 C   0  0  0  0  0  0  0  0  0  0  0  0
  -27.5351  -18.3708   16.5622 C   0  0  0  0  0  0  0  0  0  0  0  0
  -28.3504  -18.4078   17.6935 C   0  0  0  0  0  0  0  0  0  0  0  0
  -20.1744  -13.6998   22.0197 C   0  0  0  0  0  0  0  0  0  0  0  0
  -26.7426  -26.9600   20.5384 C   0  0  0  0  0  0  0  0  0  0  0  0
  -18.1985  -12.9076   23.0151 C   0  0  0  0  0  0  0  0  0  0  0  0
  -16.8292  -10.8555   24.3175 C   0  0  0  0  0  0  0  0  0  0  0  0
  -17.6749  -13.1185   24.2906 C   0  0  0  0  0  0  0  0  0  0  0  0
  -24.2039  -12.9989   20.9385 C   0  0  0  0  0  0  0  0  0  0  0  0
  -26.0728  -12.1125   20.1924 C   0  0  0  0  0  0  0  0  0  0  0  0
  -24.0737  -10.6338   19.9361 C   0  0  0  0  0  0  0  0  0  0  0  0
  -25.6219  -32.2055   19.7060 C   0  0  0  0  0  0  0  0  0  0  0  0
  -24.4679  -32.3332   22.7349 C   0  0  0  0  0  0  0  0  0  0  0  0
  -23.8620  -30.7103   25.6753 C   0  0  0  0  0  0  0  0  0  0  0  0
  -29.1888  -17.1903   19.7333 C   0  0  0  0  0  0  0  0  0  0  0  0
  -25.2797  -36.5088   16.9816 C   0  0  0  0  0  0  0  0  0  0  0  0
  -24.0591  -30.2274   19.7330 C   0  0  0  0  0  0  0  0  0  0  0  0
  -25.8021  -30.2818   22.1212 C   0  0  0  0  0  0  0  0  0  0  0  0
  -25.4912  -36.1622   18.4531 C   0  0  0  0  0  0  0  0  0  0  0  0
  -29.6144  -14.6452   22.1865 C   0  0  0  0  0  0  0  0  0  0  0  0
  -26.5854  -35.1098   18.6018 C   0  0  0  0  0  0  0  0  0  0  0  0
  -28.3261  -13.8253   22.0857 C   0  0  0  0  0  0  0  0  0  0  0  0
  -29.3557  -16.1362   21.9774 C   0  0  0  0  0  0  0  0  0  0  0  0
  -27.3395  -15.6536   20.6466 C   0  0  0  0  0  0  0  0  0  0  0  0
  -26.1981  -33.8072   17.8912 C   0  0  1  0  0  0  0  0  0  0  0  0
  -24.4681  -31.5376   20.3990 C   0  0  1  0  0  0  0  0  0  0  0  0
  -27.5592  -14.1384   20.7858 C   0  0  2  0  0  0  0  0  0  0  0  0
  -26.7127  -17.1651   16.2409 C   0  0  0  0  0  0  0  0  0  0  0  0
  -22.9448  -31.0869   27.9806 C   0  0  0  0  0  0  0  0  0  0  0  0
  -27.0417  -33.7708   23.5215 C   0  0  0  0  0  0  0  0  0  0  0  0
  -26.5059  -33.2726   25.9159 C   0  0  0  0  0  0  0  0  0  0  0  0
  -24.9675  -34.6988   24.5660 C   0  0  0  0  0  0  0  0  0  0  0  0
  -21.7113  -28.7178   25.2710 C   0  0  0  0  0  0  0  0  0  0  0  0
  -29.8630  -21.8723   17.4138 C   0  0  0  0  0  0  0  0  0  0  0  0
  -29.4646  -24.6468   20.0223 C   0  0  0  0  0  0  0  0  0  0  0  0
  -30.1195  -23.8712   18.8893 C   0  0  0  0  0  0  0  0  0  0  0  0
  -28.0906  -25.2037   19.6701 C   0  0  0  0  0  0  0  0  0  1  0  0
  -25.0697  -32.2133   24.1142 C   0  0  1  0  0  0  0  0  0  0  0  0
  -22.6284  -30.6520   26.5581 C   0  0  2  0  0  0  0  0  0  0  0  0
  -25.8983  -33.4678   24.5104 C   0  0  0  0  0  0  0  0  0  0  0  0
  -25.1312  -13.9330   21.1653 N   0  0  0  0  0  0  0  0  0  0  0  0
  -26.2570  -13.3645   20.7011 N   0  0  0  0  0  0  0  0  0  0  0  0
  -24.8552  -31.3624   21.8004 N   0  0  0  0  0  0  0  0  0  0  0  0
  -28.6296  -16.3567   20.7248 N   0  0  0  0  0  0  0  0  0  0  0  0
  -27.0992  -11.3982   19.6836 N   0  0  0  0  0  0  0  0  0  0  0  0
  -22.6937  -10.5228   20.1544 N   0  0  0  0  0  0  0  0  0  0  0  0
  -28.4237  -17.2990   18.5726 N   0  0  0  0  0  0  0  0  0  0  0  0
  -25.2476  -33.0606   18.6871 N   0  0  0  0  0  0  0  0  0  0  0  0
  -23.9632  -31.9182   25.0181 N   0  0  0  0  0  0  0  0  0  0  0  0
  -22.0869  -29.2642   26.6004 N   0  3  0  0  0  0  0  0  0  0  0  0
  -29.3048  -22.6876   18.5279 N   0  3  0  0  0  0  0  0  0  0  0  0
  -24.6925   -9.6736   19.4179 O   0  0  0  0  0  0  0  0  0  0  0  0
  -26.7670  -31.9642   20.0698 O   0  0  0  0  0  0  0  0  0  0  0  0
  -23.6776  -33.2502   22.4976 O   0  0  0  0  0  0  0  0  0  0  0  0
  -24.6584  -29.7789   25.5812 O   0  0  0  0  0  0  0  0  0  0  0  0
  -30.2801  -17.7438   19.8907 O   0  0  0  0  0  0  0  0  0  0  0  0
  -18.8778  -13.9255   22.3670 O   0  0  0  0  0  0  0  0  0  0  0  0
  -27.5866  -25.9237   20.7943 O   0  0  0  0  0  0  0  0  0  1  0  0
  -16.1704   -9.8706   24.9421 F   0  0  0  0  0  0  0  0  0  0  0  0
  -17.8254  -14.3050   24.8950 F   0  0  0  0  0  0  0  0  0  0  0  0
  1  2  1  0  0  0  0
  1  5  2  0  0  0  0
  2  6  2  0  0  0  0
  3 10  2  0  0  0  0
  3 18  1  0  0  0  0
  4 11  1  0  0  0  0
  4 18  2  0  0  0  0
  5 20  1  0  0  0  0
  6 22  1  0  0  0  0
  7 12  2  0  0  0  0
  7 21  1  0  0  0  0
  8  9  2  0  0  0  0
  8 24  1  0  0  0  0
  9 25  1  0  0  0  0
 10 27  1  0  0  0  0
 11 27  2  0  0  0  0
 12 28  1  0  0  0  0
 13 14  2  0  0  0  0
 13 29  1  0  0  0  0
 14 30  1  0  0  0  0
 15 23  1  0  0  0  0
 15 28  2  0  0  0  0
 16 24  2  0  0  0  0
 16 26  1  0  0  0  0
 17 30  2  0  0  0  0
 17 31  1  0  0  0  0
 18 32  1  0  0  0  0
 19 32  1  0  0  0  0
 19 33  2  0  0  0  0
 19 34  1  0  0  0  0
 20 22  2  0  0  0  0
 20 39  1  0  0  0  0
 21 23  2  0  0  0  0
 21 40  1  0  0  0  0
 22 48  1  0  0  0  0
 23 41  1  0  0  0  0
 24 57  1  0  0  0  0
 25 26  2  0  0  0  0
 25 51  1  0  0  0  0
 26 70  1  0  0  0  0
 27 80  1  0  0  0  0
 28 81  1  0  0  0  0
 29 31  2  0  0  0  0
 29 80  1  0  0  0  0
 30 82  1  0  0  0  0
 31 83  1  0  0  0  0
 32 64  2  0  0  0  0
 33 65  1  0  0  0  0
 33 68  1  0  0  0  0
 34 69  1  0  0  0  0
 34 75  2  0  0  0  0
 35 49  1  0  0  0  0
 35 71  1  0  0  0  0
 35 76  2  0  0  0  0
 36 61  1  0  0  0  0
 36 66  1  0  0  0  0
 36 77  2  0  0  0  0
 37 62  1  0  0  0  0
 37 72  1  0  0  0  0
 37 78  2  0  0  0  0
 38 67  1  0  0  0  0
 38 70  1  0  0  0  0
 38 79  2  0  0  0  0
 39 42  1  0  0  0  0
 40 49  1  0  0  0  0
 41 66  1  0  0  0  0
 42 44  1  0  0  0  0
 43 45  1  0  0  0  0
 43 46  1  0  0  0  0
 44 48  1  0  0  0  0
 45 50  1  0  0  0  0
 46 67  1  0  0  0  0
 47 50  1  0  0  0  0
 47 67  1  0  0  0  0
 48 71  1  0  0  0  0
 49 66  1  0  0  0  0
 50 65  1  0  0  0  0
 52 62  1  0  0  0  0
 53 63  1  0  0  0  0
 54 63  1  0  0  0  0
 55 63  1  0  0  0  0
 56 73  1  0  0  0  0
 57 74  1  0  0  0  0
 58 59  1  0  0  0  0
 58 60  1  0  0  0  0
 59 74  1  0  0  0  0
 60 81  1  0  0  0  0
 61 63  1  0  0  0  0
 61 72  1  0  0  0  0
 62 73  1  0  0  0  0
 64 65  1  0  0  0  0
M  CHG  2  73   1  74   1
M  ISO  4  38 100  60 101  70 100  81 101
M  END
> <Batch ID>
0035

> <Smiles>
CNC(C)C(=O)NC(C(=O)N1Cc2cc([101O:1][101CH2:1]CCNCc3ccc(C)c([100NH:0][100C:0](=O)N4CCCC(n5nc(-c6ccc(Oc7ccc(F)cc7F)cc6)c(C(N)=O)c5N)C4)c3)ccc2CC1C(=O)NC1CCCc2ccccc21)C(C)(C)C

> <Shape>
0.235

> <Color>
0.080

> <Negative vol penalty>
0.000

$$$$

  -OEChem-04042321513D

 84 92  0     1  0  0  0  0  0999 V2000
  -28.0258  -12.4323   17.8247 C   0  0  0  0  0  0  0  0  0  0  0  0
  -27.5212  -13.6708   17.4412 C   0  0  0  0  0  0  0  0  0  0  0  0
  -28.4752  -24.3782   18.5291 C   0  0  0  0  0  0  0  0  0  0  0  0
  -27.2437  -23.3642   20.3436 C   0  0  0  0  0  0  0  0  0  0  0  0
  -27.4738  -11.7637   18.9165 C   0  0  0  0  0  0  0  0  0  0  0  0
  -26.4636  -14.2409   18.1488 C   0  0  0  0  0  0  0  0  0  0  0  0
  -23.8897  -20.6136   20.1689 C   0  0  0  0  0  0  0  0  0  0  0  0
  -17.8203  -26.8777   22.1488 C   0  0  0  0  0  0  0  0  0  0  0  0
  -29.5023  -23.4517   18.7084 C   0  0  0  0  0  0  0  0  0  0  0  0
  -28.2708  -22.4376   20.5229 C   0  0  0  0  0  0  0  0  0  0  0  0
  -22.7134  -21.3610   20.1318 C   0  0  0  0  0  0  0  0  0  0  0  0
  -30.4065  -19.5798   21.2228 C   0  0  0  0  0  0  0  0  0  0  0  0
  -30.0512  -18.2423   21.3976 C   0  0  0  0  0  0  0  0  0  0  0  0
  -17.8529  -28.2235   21.7838 C   0  0  0  0  0  0  0  0  0  0  0  0
  -21.8913  -20.1509   22.0499 C   0  0  0  0  0  0  0  0  0  0  0  0
  -28.9791  -18.2441   19.2325 C   0  0  0  0  0  0  0  0  0  0  0  0
  -27.3459  -24.3345   19.3467 C   0  0  0  0  0  0  0  0  0  0  0  0
  -25.1593  -25.1627   18.3266 C   0  0  0  0  0  0  0  0  0  0  0  0
  -26.4152  -12.3303   19.6438 C   0  0  0  0  0  0  0  0  0  0  0  0
  -24.0715  -19.6201   21.1417 C   0  0  0  0  0  0  0  0  0  0  0  0
  -25.8960  -13.5786   19.2506 C   0  0  0  0  0  0  0  0  0  0  0  0
  -23.0720  -19.3941   22.0988 C   0  0  0  0  0  0  0  0  0  0  0  0
  -18.8145  -26.3551   22.9758 C   0  0  0  0  0  0  0  0  0  0  0  0
  -19.8414  -27.1782   23.4378 C   0  0  0  0  0  0  0  0  0  0  0  0
  -19.8741  -28.5241   23.0728 C   0  0  0  0  0  0  0  0  0  0  0  0
  -29.4002  -22.4814   19.7053 C   0  0  0  0  0  0  0  0  0  0  0  0
  -21.7127  -21.1277   21.0707 C   0  0  0  0  0  0  0  0  0  0  0  0
  -30.0480  -20.2494   20.0528 C   0  0  0  0  0  0  0  0  0  0  0  0
  -29.3376  -17.5744   20.4025 C   0  0  0  0  0  0  0  0  0  0  0  0
  -29.3344  -19.5815   19.0577 C   0  0  0  0  0  0  0  0  0  0  0  0
  -18.8798  -29.0467   22.2457 C   0  0  0  0  0  0  0  0  0  0  0  0
  -26.2848  -25.2917   19.1624 C   0  0  0  0  0  0  0  0  0  0  0  0
  -24.4615  -26.3318   18.5076 C   0  0  0  0  0  0  0  0  0  0  0  0
  -24.7786  -24.0826   17.4640 C   0  0  0  0  0  0  0  0  0  0  0  0
  -24.5027  -16.4715   21.0790 C   0  0  0  0  0  0  0  0  0  0  0  0
  -24.9415  -16.8600   24.2695 C   0  0  0  0  0  0  0  0  0  0  0  0
  -24.3686  -18.7299   27.0662 C   0  0  0  0  0  0  0  0  0  0  0  0
  -23.1536  -30.1612   22.6475 C   0  0  0  0  0  0  0  0  0  0  0  0
  -25.8200  -11.5483   20.7878 C   0  0  0  0  0  0  0  0  0  0  0  0
  -25.3574  -18.8409   21.1846 C   0  0  0  0  0  0  0  0  0  0  0  0
  -23.2265  -18.3530   23.1761 C   0  0  0  0  0  0  0  0  0  0  0  0
  -24.9484  -12.3923   21.7143 C   0  0  0  0  0  0  0  0  0  0  0  0
  -25.6024  -30.8508   20.1567 C   0  0  0  0  0  0  0  0  0  0  0  0
  -23.9944  -13.2632   20.9030 C   0  0  0  0  0  0  0  0  0  0  0  0
  -25.9233  -29.4756   19.5687 C   0  0  0  0  0  0  0  0  0  0  0  0
  -25.3405  -30.7750   21.6592 C   0  0  0  0  0  0  0  0  0  0  0  0
  -24.6330  -28.4216   21.4721 C   0  0  0  0  0  0  0  0  0  0  0  0
  -24.7658  -14.2410   20.0083 C   0  0  1  0  0  0  0  0  0  0  0  0
  -25.2211  -17.5021   21.9032 C   0  0  1  0  0  0  0  0  0  0  0  0
  -24.8496  -28.4385   19.9492 C   0  0  2  0  0  0  0  0  0  0  0  0
  -20.9060  -26.6139   24.3249 C   0  0  0  0  0  0  0  0  0  0  0  0
  -24.8220  -18.7731   29.5340 C   0  0  0  0  0  0  0  0  0  0  0  0
  -22.8067  -14.7222   24.6967 C   0  0  0  0  0  0  0  0  0  0  0  0
  -22.6253  -15.4781   27.0766 C   0  0  0  0  0  0  0  0  0  0  0  0
  -24.7780  -14.5482   26.2258 C   0  0  0  0  0  0  0  0  0  0  0  0
  -25.8603  -21.2781   26.8651 C   0  0  0  0  0  0  0  0  0  0  0  0
  -20.9825  -29.3964   23.5755 C   0  0  0  0  0  0  0  0  0  0  0  0
  -18.7538  -24.9045   23.3541 C   0  0  0  0  0  0  0  0  0  0  0  0
  -19.5647  -24.0396   21.1557 C   0  0  0  0  0  0  0  0  0  0  0  0
  -20.6526  -23.1874   20.5325 C   0  0  0  0  0  0  0  0  0  1  0  0
  -24.0416  -16.8495   25.4815 C   0  0  1  0  0  0  0  0  0  0  0  0
  -25.3010  -19.2172   28.1606 C   0  0  2  0  0  0  0  0  0  0  0  0
  -23.5589  -15.4179   25.8488 C   0  0  0  0  0  0  0  0  0  0  0  0
  -26.3049  -26.4513   19.8248 N   0  0  0  0  0  0  0  0  0  0  0  0
  -25.1835  -27.0617   19.4054 N   0  0  0  0  0  0  0  0  0  0  0  0
  -24.4992  -17.6128   23.1724 N   0  0  0  0  0  0  0  0  0  0  0  0
  -24.3114  -29.7746   21.9526 N   0  0  0  0  0  0  0  0  0  0  0  0
  -23.3070  -26.7964   17.9846 N   0  0  0  0  0  0  0  0  0  0  0  0
  -25.6096  -22.9559   17.3974 N   0  0  0  0  0  0  0  0  0  0  0  0
  -25.2625  -15.3548   20.7875 N   0  0  0  0  0  0  0  0  0  0  0  0
  -24.7806  -17.5219   26.5445 N   0  0  0  0  0  0  0  0  0  0  0  0
  -22.2260  -29.1528   22.8788 N   0  0  0  0  0  0  0  0  0  0  0  0
  -25.3803  -20.7053   28.1490 N   0  3  0  0  0  0  0  0  0  0  0  0
  -19.7497  -24.0706   22.6284 N   0  3  0  0  0  0  0  0  0  0  0  0
  -23.7409  -24.1225   16.7603 O   0  0  0  0  0  0  0  0  0  0  0  0
  -23.3442  -16.6737   20.7344 O   0  0  0  0  0  0  0  0  0  0  0  0
  -26.0014  -16.2295   24.2977 O   0  0  0  0  0  0  0  0  0  0  0  0
  -23.3721  -19.3563   26.7124 O   0  0  0  0  0  0  0  0  0  0  0  0
  -22.9583  -31.3203   23.0286 O   0  0  0  0  0  0  0  0  0  0  0  0
  -30.4022  -21.5770   19.8804 O   0  0  0  0  0  0  0  0  0  0  0  0
  -20.5632  -21.8553   21.0363 O   0  0  0  0  0  0  0  0  0  1  0  0
  -28.9978  -16.2896   20.5699 F   0  0  0  0  0  0  0  0  0  0  0  0
  -28.9882  -20.2193   17.9310 F   0  0  0  0  0  0  0  0  0  0  0  0
  -18.8844  -30.7067   21.7711 Cl  0  0  0  0  0  0  0  0  0  0  0  0
  1  2  1  0  0  0  0
  1  5  2  0  0  0  0
  2  6  2  0  0  0  0
  3  9  2  0  0  0  0
  3 17  1  0  0  0  0
  4 10  1  0  0  0  0
  4 17  2  0  0  0  0
  5 19  1  0  0  0  0
  6 21  1  0  0  0  0
  7 11  2  0  0  0  0
  7 20  1  0  0  0  0
  8 14  2  0  0  0  0
  8 23  1  0  0  0  0
  9 26  1  0  0  0  0
 10 26  2  0  0  0  0
 11 27  1  0  0  0  0
 12 13  2  0  0  0  0
 12 28  1  0  0  0  0
 13 29  1  0  0  0  0
 14 31  1  0  0  0  0
 15 22  1  0  0  0  0
 15 27  2  0  0  0  0
 16 29  2  0  0  0  0
 16 30  1  0  0  0  0
 17 32  1  0  0  0  0
 18 32  1  0  0  0  0
 18 33  2  0  0  0  0
 18 34  1  0  0  0  0
 19 21  2  0  0  0  0
 19 39  1  0  0  0  0
 20 22  2  0  0  0  0
 20 40  1  0  0  0  0
 21 48  1  0  0  0  0
 22 41  1  0  0  0  0
 23 24  2  0  0  0  0
 23 58  1  0  0  0  0
 24 25  1  0  0  0  0
 24 51  1  0  0  0  0
 25 31  2  0  0  0  0
 25 57  1  0  0  0  0
 26 80  1  0  0  0  0
 27 81  1  0  0  0  0
 28 30  2  0  0  0  0
 28 80  1  0  0  0  0
 29 82  1  0  0  0  0
 30 83  1  0  0  0  0
 31 84  1  0  0  0  0
 32 64  2  0  0  0  0
 33 65  1  0  0  0  0
 33 68  1  0  0  0  0
 34 69  1  0  0  0  0
 34 75  2  0  0  0  0
 35 49  1  0  0  0  0
 35 70  1  0  0  0  0
 35 76  2  0  0  0  0
 36 61  1  0  0  0  0
 36 66  1  0  0  0  0
 36 77  2  0  0  0  0
 37 62  1  0  0  0  0
 37 71  1  0  0  0  0
 37 78  2  0  0  0  0
 38 67  1  0  0  0  0
 38 72  1  0  0  0  0
 38 79  2  0  0  0  0
 39 42  1  0  0  0  0
 40 49  1  0  0  0  0
 41 66  1  0  0  0  0
 42 44  1  0  0  0  0
 43 45  1  0  0  0  0
 43 46  1  0  0  0  0
 44 48  1  0  0  0  0
 45 50  1  0  0  0  0
 46 67  1  0  0  0  0
 47 50  1  0  0  0  0
 47 67  1  0  0  0  0
 48 70  1  0  0  0  0
 49 66  1  0  0  0  0
 50 65  1  0  0  0  0
 52 62  1  0  0  0  0
 53 63  1  0  0  0  0
 54 63  1  0  0  0  0
 55 63  1  0  0  0  0
 56 73  1  0  0  0  0
 57 72  1  0  0  0  0
 58 74  1  0  0  0  0
 59 60  1  0  0  0  0
 59 74  1  0  0  0  0
 60 81  1  0  0  0  0
 61 63  1  0  0  0  0
 61 71  1  0  0  0  0
 62 73  1  0  0  0  0
 64 65  1  0  0  0  0
M  CHG  2  73   1  74   1
M  ISO  4  38 100  60 101  72 100  81 101
M  END
> <Batch ID>
0035

> <Smiles>
CNC(C)C(=O)NC(C(=O)N1Cc2cc([101O:1][101CH2:1]CNCc3ccc(Cl)c(C[100NH:0][100C:0](=O)N4CCCC(n5nc(-c6ccc(Oc7ccc(F)cc7F)cc6)c(C(N)=O)c5N)C4)c3C)ccc2CC1C(=O)NC1CCCc2ccccc21)C(C)(C)C

> <Shape>
0.227

> <Color>
0.074

> <Negative vol penalty>
0.000

$$$$

  -OEChem-04042321513D

 87 96  0     1  0  0  0  0  0999 V2000
  -22.7427   -8.2282   21.0955 C   0  0  0  0  0  0  0  0  0  0  0  0
  -23.5993   -8.8066   20.1643 C   0  0  0  0  0  0  0  0  0  0  0  0
  -25.3579  -26.9806   19.8350 C   0  0  0  0  0  0  0  0  0  0  0  0
  -27.3720  -28.3142   19.8813 C   0  0  0  0  0  0  0  0  0  0  0  0
  -22.1918   -9.0071   22.1123 C   0  0  0  0  0  0  0  0  0  0  0  0
  -23.9046  -10.1646   20.2486 C   0  0  0  0  0  0  0  0  0  0  0  0
  -28.8430  -11.0885   19.6138 C   0  0  0  0  0  0  0  0  0  0  0  0
  -24.5940  -28.1268   20.0547 C   0  0  0  0  0  0  0  0  0  0  0  0
  -26.6080  -29.4604   20.1010 C   0  0  0  0  0  0  0  0  0  0  0  0
  -29.3321  -11.0670   18.3084 C   0  0  0  0  0  0  0  0  0  0  0  0
  -23.7618  -30.1018   22.6684 C   0  0  0  0  0  0  0  0  0  0  0  0
  -22.7418  -30.0279   23.6169 C   0  0  0  0  0  0  0  0  0  0  0  0
  -29.2508  -13.4771   18.2446 C   0  0  0  0  0  0  0  0  0  0  0  0
  -29.6149  -18.8993   14.0122 C   0  0  0  0  0  0  0  0  0  0  0  0
  -28.1643  -17.1741   15.6561 C   0  0  0  0  0  0  0  0  0  0  0  0
  -21.1183  -30.5763   21.9138 C   0  0  0  0  0  0  0  0  0  0  0  0
  -26.7470  -27.0743   19.7483 C   0  0  0  0  0  0  0  0  0  0  0  0
  -27.6042  -24.7450   20.3372 C   0  0  0  0  0  0  0  0  0  0  0  0
  -22.4982  -10.3732   22.2148 C   0  0  0  0  0  0  0  0  0  0  0  0
  -28.5433  -12.3061   20.2416 C   0  0  0  0  0  0  0  0  0  0  0  0
  -23.3562  -10.9628   21.2669 C   0  0  0  0  0  0  0  0  0  0  0  0
  -28.7604  -13.5115   19.5589 C   0  0  0  0  0  0  0  0  0  0  0  0
  -29.2290  -17.6452   13.5391 C   0  0  0  0  0  0  0  0  0  0  0  0
  -28.5036  -16.7826   14.3610 C   0  0  0  0  0  0  0  0  0  0  0  0
  -29.2755  -19.2908   15.3074 C   0  0  0  0  0  0  0  0  0  0  0  0
  -25.2190  -29.3667   20.1877 C   0  0  0  0  0  0  0  0  0  0  0  0
  -29.5334  -12.2613   17.6225 C   0  0  0  0  0  0  0  0  0  0  0  0
  -23.4601  -30.4131   21.3425 C   0  0  0  0  0  0  0  0  0  0  0  0
  -21.4201  -30.2651   23.2396 C   0  0  0  0  0  0  0  0  0  0  0  0
  -22.1384  -30.6503   20.9653 C   0  0  0  0  0  0  0  0  0  0  0  0
  -28.5502  -18.4282   16.1292 C   0  0  0  0  0  0  0  0  0  0  0  0
  -27.5367  -25.8906   19.5219 C   0  0  0  0  0  0  0  0  0  0  0  0
  -28.4868  -23.9148   19.6904 C   0  0  0  0  0  0  0  0  0  0  0  0
  -29.8672  -13.9841   14.6542 C   0  0  0  0  0  0  0  0  0  0  0  0
  -31.0363  -14.5254   15.0344 C   0  0  0  0  0  0  0  0  0  0  0  0
  -26.9295  -24.4569   21.5690 C   0  0  0  0  0  0  0  0  0  0  0  0
  -25.9063  -13.6323   21.4210 C   0  0  0  0  0  0  0  0  0  0  0  0
  -27.9738  -15.9229   22.4215 C   0  0  0  0  0  0  0  0  0  0  0  0
  -30.8344  -17.6592   21.0727 C   0  0  0  0  0  0  0  0  0  0  0  0
  -30.4135  -21.5231   15.0460 C   0  0  0  0  0  0  0  0  0  0  0  0
  -21.8411  -11.1848   23.3031 C   0  0  0  0  0  0  0  0  0  0  0  0
  -28.0416  -12.3134   21.6596 C   0  0  0  0  0  0  0  0  0  0  0  0
  -28.4735  -14.8461   20.1953 C   0  0  0  0  0  0  0  0  0  0  0  0
  -22.5109  -12.5352   23.5445 C   0  0  0  0  0  0  0  0  0  0  0  0
  -31.5876  -24.8012   15.7890 C   0  0  0  0  0  0  0  0  0  0  0  0
  -28.0958  -12.3341   13.1183 C   0  0  0  0  0  0  0  0  0  0  0  0
  -22.7770  -13.2435   22.2200 C   0  0  0  0  0  0  0  0  0  0  0  0
  -28.8268  -11.7428   14.3184 C   0  0  0  0  0  0  0  0  0  0  0  0
  -30.6439  -25.2827   16.8935 C   0  0  0  0  0  0  0  0  0  0  0  0
  -30.8583  -23.9500   14.7511 C   0  0  0  0  0  0  0  0  0  0  0  0
  -29.1492  -23.3045   16.4038 C   0  0  0  0  0  0  0  0  0  0  0  0
  -28.8922  -13.4703   12.4853 C   0  0  0  0  0  0  0  0  0  0  0  0
  -23.7310  -12.4271   21.3398 C   0  0  1  0  0  0  0  0  0  0  0  0
  -29.1868  -12.8206   15.3398 C   0  0  1  0  0  0  0  0  0  1  0  0
  -27.2841  -13.5880   22.0188 C   0  0  1  0  0  0  0  0  0  0  0  0
  -29.8516  -24.1119   17.5076 C   0  0  2  0  0  0  0  0  0  0  0  0
  -29.6070  -17.2467   12.1502 C   0  0  0  0  0  0  0  0  0  0  0  0
  -32.7917  -18.7224   22.2285 C   0  0  0  0  0  0  0  0  0  0  0  0
  -26.3129  -18.4772   22.2576 C   0  0  0  0  0  0  0  0  0  0  0  0
  -28.4237  -19.7362   21.7805 C   0  0  0  0  0  0  0  0  0  0  0  0
  -28.1527  -18.5360   23.9505 C   0  0  0  0  0  0  0  0  0  0  0  0
  -32.7740  -16.0672   19.5035 C   0  0  0  0  0  0  0  0  0  0  0  0
  -28.0779  -15.4288   13.8741 C   0  0  0  0  0  0  0  0  0  0  0  0
  -28.5178  -17.2025   21.8337 C   0  0  1  0  0  0  0  0  0  0  0  0
  -32.2825  -17.4907   21.4961 C   0  0  2  0  0  0  0  0  0  0  0  0
  -27.8439  -18.4662   22.4390 C   0  0  0  0  0  0  0  0  0  0  0  0
  -28.3146  -25.8001   18.4399 N   0  0  0  0  0  0  0  0  0  0  0  0
  -28.8792  -24.5876   18.5708 N   0  0  0  0  0  0  0  0  0  0  0  0
  -27.9786  -14.8006   21.5811 N   0  0  0  0  0  0  0  0  0  0  0  0
  -30.1336  -22.8585   15.4053 N   0  0  0  0  0  0  0  0  0  0  0  0
  -28.9577  -22.6822   19.9758 N   0  0  0  0  0  0  0  0  0  0  0  0
  -26.0572  -25.4201   22.0941 N   0  0  0  0  0  0  0  0  0  0  0  0
  -29.6862  -20.5698   15.7580 N   0  0  0  0  0  0  0  0  0  0  0  0
  -25.0955  -12.5786   21.7977 N   0  0  0  0  0  0  0  0  0  0  0  0
  -29.9645  -17.1522   22.0148 N   0  0  0  0  0  0  0  0  0  0  0  0
  -29.2358  -14.5522   13.4830 N   0  3  1  0  0  0  0  0  0  0  0  0
  -33.1473  -17.2615   20.3043 N   0  3  0  0  0  0  0  0  0  0  0  0
  -27.1076  -23.3841   22.1942 O   0  0  0  0  0  0  0  0  0  0  0  0
  -25.6009  -14.5549   20.6746 O   0  0  0  0  0  0  0  0  0  0  0  0
  -27.5663  -15.9175   23.5858 O   0  0  0  0  0  0  0  0  0  0  0  0
  -30.5075  -18.1909   20.0140 O   0  0  0  0  0  0  0  0  0  0  0  0
  -31.2573  -21.2446   14.1902 O   0  0  0  0  0  0  0  0  0  0  0  0
  -24.4738  -30.4853   20.4019 O   0  0  0  0  0  0  0  0  0  0  0  0
  -30.0101  -12.2431   16.3481 O   0  0  0  0  0  0  0  0  0  1  0  0
  -20.4405  -30.1925   24.1503 F   0  0  0  0  0  0  0  0  0  0  0  0
  -21.8422  -30.9485   19.6928 F   0  0  0  0  0  0  0  0  0  0  0  0
  -28.1085  -18.8733   17.7393 Cl  0  0  0  0  0  0  0  0  0  0  0  0
  1  2  1  0  0  0  0
  1  5  2  0  0  0  0
  2  6  2  0  0  0  0
  3  8  2  0  0  0  0
  3 17  1  0  0  0  0
  4  9  1  0  0  0  0
  4 17  2  0  0  0  0
  5 19  1  0  0  0  0
  6 21  1  0  0  0  0
  7 10  2  0  0  0  0
  7 20  1  0  0  0  0
  8 26  1  0  0  0  0
  9 26  2  0  0  0  0
 10 27  1  0  0  0  0
 11 12  2  0  0  0  0
 11 28  1  0  0  0  0
 12 29  1  0  0  0  0
 13 22  1  0  0  0  0
 13 27  2  0  0  0  0
 14 23  1  0  0  0  0
 14 25  2  0  0  0  0
 15 24  1  0  0  0  0
 15 31  2  0  0  0  0
 16 29  2  0  0  0  0
 16 30  1  0  0  0  0
 17 32  1  0  0  0  0
 18 32  1  0  0  0  0
 18 33  2  0  0  0  0
 18 36  1  0  0  0  0
 19 21  2  0  0  0  0
 19 41  1  0  0  0  0
 20 22  2  0  0  0  0
 20 42  1  0  0  0  0
 21 53  1  0  0  0  0
 22 43  1  0  0  0  0
 23 24  2  0  0  0  0
 23 57  1  0  0  0  0
 24 63  1  0  0  0  0
 25 31  1  0  0  0  0
 25 73  1  0  0  0  0
 26 83  1  0  0  0  0
 27 84  1  0  0  0  0
 28 30  2  0  0  0  0
 28 83  1  0  0  0  0
 29 85  1  0  0  0  0
 30 86  1  0  0  0  0
 31 87  1  0  0  0  0
 32 67  2  0  0  0  0
 33 68  1  0  0  0  0
 33 71  1  0  0  0  0
 34 35  2  0  0  0  0
 34 54  1  0  0  0  0
 34 76  1  0  0  0  0
 36 72  1  0  0  0  0
 36 78  2  0  0  0  0
 37 55  1  0  0  0  0
 37 74  1  0  0  0  0
 37 79  2  0  0  0  0
 38 64  1  0  0  0  0
 38 69  1  0  0  0  0
 38 80  2  0  0  0  0
 39 65  1  0  0  0  0
 39 75  1  0  0  0  0
 39 81  2  0  0  0  0
 40 70  1  0  0  0  0
 40 73  1  0  0  0  0
 40 82  2  0  0  0  0
 41 44  1  0  0  0  0
 42 55  1  0  0  0  0
 43 69  1  0  0  0  0
 44 47  1  0  0  0  0
 45 49  1  0  0  0  0
 45 50  1  0  0  0  0
 46 48  1  0  0  0  0
 46 52  1  0  0  0  0
 47 53  1  0  0  0  0
 48 54  1  0  0  0  0
 49 56  1  0  0  0  0
 50 70  1  0  0  0  0
 51 56  1  0  0  0  0
 51 70  1  0  0  0  0
 52 76  1  0  0  0  0
 53 74  1  0  0  0  0
 54 84  1  0  0  0  0
 55 69  1  0  0  0  0
 56 68  1  0  0  0  0
 58 65  1  0  0  0  0
 59 66  1  0  0  0  0
 60 66  1  0  0  0  0
 61 66  1  0  0  0  0
 62 77  1  0  0  0  0
 63 76  1  0  0  0  0
 64 66  1  0  0  0  0
 64 75  1  0  0  0  0
 65 77  1  0  0  0  0
 67 68  1  0  0  0  0
M  CHG  2  76   1  77   1
M  ISO  4  40 100  54 101  73 100  84 101
M  END
> <Batch ID>
0035

> <Smiles>
C=C1N(Cc2cc(Cl)c([100NH:0][100C:0](=O)N3CCCC(n4nc(-c5ccc(Oc6ccc(F)cc6F)cc5)c(C(N)=O)c4N)C3)cc2C)CCC[101CH:1]1[101O:1]c1ccc2c(c1)CN(C(=O)C(NC(=O)C(C)NC)C(C)(C)C)C(C(=O)NC1CCCc3ccccc31)C2

> <Shape>
0.247

> <Color>
0.077

> <Negative vol penalty>
0.000

$$$$

  -OEChem-04042321513D

 86 95  0     1  0  0  0  0  0999 V2000
  -25.0321  -36.5004   23.2947 C   0  0  0  0  0  0  0  0  0  0  0  0
  -26.1689  -35.7803   22.9417 C   0  0  0  0  0  0  0  0  0  0  0  0
  -22.8595   -9.6232   19.9608 C   0  0  0  0  0  0  0  0  0  0  0  0
  -24.5763   -8.7702   21.4312 C   0  0  0  0  0  0  0  0  0  0  0  0
  -23.8813  -35.8278   23.7036 C   0  0  0  0  0  0  0  0  0  0  0  0
  -26.1558  -34.3871   22.9983 C   0  0  0  0  0  0  0  0  0  0  0  0
  -28.9007  -28.6404   19.7186 C   0  0  0  0  0  0  0  0  0  0  0  0
  -21.8784   -9.0965   20.8006 C   0  0  0  0  0  0  0  0  0  0  0  0
  -23.5951   -8.2434   22.2711 C   0  0  0  0  0  0  0  0  0  0  0  0
  -29.5944  -27.4655   20.0053 C   0  0  0  0  0  0  0  0  0  0  0  0
  -21.5635   -5.5418   22.3409 C   0  0  0  0  0  0  0  0  0  0  0  0
  -21.7425   -4.2405   22.8100 C   0  0  0  0  0  0  0  0  0  0  0  0
  -27.5245  -26.4080   20.6506 C   0  0  0  0  0  0  0  0  0  0  0  0
  -27.6109  -18.3408   20.2099 C   0  0  0  0  0  0  0  0  0  0  0  0
  -25.6230  -17.6532   19.0214 C   0  0  0  0  0  0  0  0  0  0  0  0
  -21.7288   -5.0581   25.0834 C   0  0  0  0  0  0  0  0  0  0  0  0
  -24.2085   -9.4600   20.2760 C   0  0  0  0  0  0  0  0  0  0  0  0
  -25.4390   -9.6901   18.0533 C   0  0  0  0  0  0  0  0  0  0  0  0
  -23.8510  -34.4253   23.7561 C   0  0  0  0  0  0  0  0  0  0  0  0
  -27.5129  -28.7114   19.9064 C   0  0  0  0  0  0  0  0  0  0  0  0
  -25.0040  -33.6951   23.4096 C   0  0  0  0  0  0  0  0  0  0  0  0
  -26.8152  -27.5841   20.3631 C   0  0  0  0  0  0  0  0  0  0  0  0
  -27.0581  -19.6069   20.4021 C   0  0  0  0  0  0  0  0  0  0  0  0
  -25.7877  -19.8962   19.9039 C   0  0  0  0  0  0  0  0  0  0  0  0
  -26.8933  -17.3639   19.5195 C   0  0  0  0  0  0  0  0  0  0  0  0
  -22.2461   -8.4066   21.9558 C   0  0  0  0  0  0  0  0  0  0  0  0
  -28.9067  -26.3499   20.4742 C   0  0  0  0  0  0  0  0  0  0  0  0
  -21.4673   -6.6013   23.2430 C   0  0  0  0  0  0  0  0  0  0  0  0
  -21.8251   -3.9986   24.1813 C   0  0  0  0  0  0  0  0  0  0  0  0
  -21.5499   -6.3595   24.6142 C   0  0  0  0  0  0  0  0  0  0  0  0
  -25.0701  -18.9193   19.2136 C   0  0  0  0  0  0  0  0  0  0  0  0
  -25.2226  -10.0035   19.4085 C   0  0  0  0  0  0  0  0  0  0  0  0
  -26.5110  -10.4673   17.6881 C   0  0  0  0  0  0  0  0  0  0  0  0
  -24.7340   -8.7782   17.2006 C   0  0  0  0  0  0  0  0  0  0  0  0
  -25.5833  -30.4515   21.7374 C   0  0  0  0  0  0  0  0  0  0  0  0
  -23.2608  -28.9578   20.0353 C   0  0  0  0  0  0  0  0  0  0  0  0
  -22.6282  -25.6260   18.8038 C   0  0  0  0  0  0  0  0  0  0  0  0
  -28.7037  -15.6278   19.7538 C   0  0  0  0  0  0  0  0  0  0  0  0
  -22.5992  -33.7442   24.2496 C   0  0  0  0  0  0  0  0  0  0  0  0
  -26.7756  -29.9778   19.5671 C   0  0  0  0  0  0  0  0  0  0  0  0
  -25.3224  -27.6024   20.5624 C   0  0  0  0  0  0  0  0  0  0  0  0
  -22.5477  -32.2538   23.9233 C   0  0  0  0  0  0  0  0  0  0  0  0
  -30.4347  -12.5264   19.5043 C   0  0  0  0  0  0  0  0  0  0  0  0
  -30.1359  -22.2374   18.5284 C   0  0  0  0  0  0  0  0  0  0  0  0
  -23.8766  -31.5866   24.2634 C   0  0  0  0  0  0  0  0  0  0  0  0
  -29.3146  -11.4997   19.3220 C   0  0  0  0  0  0  0  0  0  0  0  0
  -30.4171  -23.5616   19.2262 C   0  0  0  0  0  0  0  0  0  0  0  0
  -30.0273  -13.6466   20.4597 C   0  0  0  0  0  0  0  0  0  0  0  0
  -27.6446  -13.2916   19.9440 C   0  0  0  0  0  0  0  0  0  0  0  0
  -29.6518  -21.1774   19.5076 C   0  0  0  0  0  0  0  0  0  0  0  0
  -28.7246  -22.9679   20.9990 C   0  0  0  0  0  0  0  0  0  0  0  0
  -25.0209  -32.1821   23.4343 C   0  0  1  0  0  0  0  0  0  0  0  0
  -25.4346  -30.0989   20.2844 C   0  0  1  0  0  0  0  0  0  0  0  0
  -27.9847  -12.1784   18.9396 C   0  0  2  0  0  0  0  0  0  0  0  0
  -29.2088  -24.0363   20.0274 C   0  0  1  0  0  0  0  0  0  1  0  0
  -25.2093  -21.2605   20.1177 C   0  0  0  0  0  0  0  0  0  0  0  0
  -21.2883  -24.8425   16.8320 C   0  0  0  0  0  0  0  0  0  0  0  0
  -20.9942  -28.6692   22.0575 C   0  0  0  0  0  0  0  0  0  0  0  0
  -20.2936  -26.5798   20.8694 C   0  0  0  0  0  0  0  0  0  0  0  0
  -20.2560  -28.7668   19.6701 C   0  0  0  0  0  0  0  0  0  0  0  0
  -24.9262  -24.1306   17.6894 C   0  0  0  0  0  0  0  0  0  0  0  0
  -27.8520  -20.6391   21.1472 C   0  0  0  0  0  0  0  0  0  0  0  0
  -22.4770  -27.6770   20.1913 C   0  0  1  0  0  0  0  0  0  0  0  0
  -22.6779  -25.1670   17.3577 C   0  0  2  0  0  0  0  0  0  0  0  0
  -21.0316  -27.9258   20.7074 C   0  0  0  0  0  0  0  0  0  0  0  0
  -26.0877  -10.9089   19.8730 N   0  0  0  0  0  0  0  0  0  0  0  0
  -26.8582  -11.1712   18.8036 N   0  0  0  0  0  0  0  0  0  0  0  0
  -24.6472  -28.8658   20.2227 N   0  0  0  0  0  0  0  0  0  0  0  0
  -28.7611  -14.2457   20.0322 N   0  0  0  0  0  0  0  0  0  0  0  0
  -27.1811  -10.6103   16.5250 N   0  0  0  0  0  0  0  0  0  0  0  0
  -23.6567   -8.0594   17.7366 N   0  0  0  0  0  0  0  0  0  0  0  0
  -27.4557  -16.0780   19.3244 N   0  0  0  0  0  0  0  0  0  0  0  0
  -24.9976  -31.6532   22.0874 N   0  0  0  0  0  0  0  0  0  0  0  0
  -22.5424  -26.9988   18.9013 N   0  0  0  0  0  0  0  0  0  0  0  0
  -28.4405  -21.6916   20.2487 N   0  3  2  0  0  0  0  0  0  0  0  0
  -23.5252  -23.9477   17.2302 N   0  3  0  0  0  0  0  0  0  0  0  0
  -25.0602   -8.5937   16.0035 O   0  0  0  0  0  0  0  0  0  0  0  0
  -26.1836  -29.6892   22.4858 O   0  0  0  0  0  0  0  0  0  0  0  0
  -22.6656  -30.0001   19.7504 O   0  0  0  0  0  0  0  0  0  0  0  0
  -22.6584  -24.8447   19.7521 O   0  0  0  0  0  0  0  0  0  0  0  0
  -29.6960  -16.3530   19.8604 O   0  0  0  0  0  0  0  0  0  0  0  0
  -21.2889   -7.8926   22.7757 O   0  0  0  0  0  0  0  0  0  0  0  0
  -29.5814  -25.2021   20.7554 O   0  0  0  0  0  0  0  0  0  1  0  0
  -21.9953   -2.7487   24.6317 F   0  0  0  0  0  0  0  0  0  0  0  0
  -21.4570   -7.3732   25.4858 F   0  0  0  0  0  0  0  0  0  0  0  0
  -23.4941  -19.2366   18.5836 Cl  0  0  0  0  0  0  0  0  0  0  0  0
  1  2  1  0  0  0  0
  1  5  2  0  0  0  0
  2  6  2  0  0  0  0
  3  8  2  0  0  0  0
  3 17  1  0  0  0  0
  4  9  1  0  0  0  0
  4 17  2  0  0  0  0
  5 19  1  0  0  0  0
  6 21  1  0  0  0  0
  7 10  2  0  0  0  0
  7 20  1  0  0  0  0
  8 26  1  0  0  0  0
  9 26  2  0  0  0  0
 10 27  1  0  0  0  0
 11 12  2  0  0  0  0
 11 28  1  0  0  0  0
 12 29  1  0  0  0  0
 13 22  1  0  0  0  0
 13 27  2  0  0  0  0
 14 23  1  0  0  0  0
 14 25  2  0  0  0  0
 15 25  1  0  0  0  0
 15 31  2  0  0  0  0
 16 29  2  0  0  0  0
 16 30  1  0  0  0  0
 17 32  1  0  0  0  0
 18 32  1  0  0  0  0
 18 33  2  0  0  0  0
 18 34  1  0  0  0  0
 19 21  2  0  0  0  0
 19 39  1  0  0  0  0
 20 22  2  0  0  0  0
 20 40  1  0  0  0  0
 21 52  1  0  0  0  0
 22 41  1  0  0  0  0
 23 24  2  0  0  0  0
 23 62  1  0  0  0  0
 24 31  1  0  0  0  0
 24 56  1  0  0  0  0
 25 72  1  0  0  0  0
 26 82  1  0  0  0  0
 27 83  1  0  0  0  0
 28 30  2  0  0  0  0
 28 82  1  0  0  0  0
 29 84  1  0  0  0  0
 30 85  1  0  0  0  0
 31 86  1  0  0  0  0
 32 66  2  0  0  0  0
 33 67  1  0  0  0  0
 33 70  1  0  0  0  0
 34 71  1  0  0  0  0
 34 77  2  0  0  0  0
 35 53  1  0  0  0  0
 35 73  1  0  0  0  0
 35 78  2  0  0  0  0
 36 63  1  0  0  0  0
 36 68  1  0  0  0  0
 36 79  2  0  0  0  0
 37 64  1  0  0  0  0
 37 74  1  0  0  0  0
 37 80  2  0  0  0  0
 38 69  1  0  0  0  0
 38 72  1  0  0  0  0
 38 81  2  0  0  0  0
 39 42  1  0  0  0  0
 40 53  1  0  0  0  0
 41 68  1  0  0  0  0
 42 45  1  0  0  0  0
 43 46  1  0  0  0  0
 43 48  1  0  0  0  0
 44 47  1  0  0  0  0
 44 50  1  0  0  0  0
 45 52  1  0  0  0  0
 46 54  1  0  0  0  0
 47 55  1  0  0  0  0
 48 69  1  0  0  0  0
 49 54  1  0  0  0  0
 49 69  1  0  0  0  0
 50 75  1  0  0  0  0
 51 55  1  0  0  0  0
 51 75  1  0  0  0  0
 52 73  1  0  0  0  0
 53 68  1  0  0  0  0
 54 67  1  0  0  0  0
 55 83  1  0  0  0  0
 57 64  1  0  0  0  0
 58 65  1  0  0  0  0
 59 65  1  0  0  0  0
 60 65  1  0  0  0  0
 61 76  1  0  0  0  0
 62 75  1  0  0  0  0
 63 65  1  0  0  0  0
 63 74  1  0  0  0  0
 64 76  1  0  0  0  0
 66 67  1  0  0  0  0
M  CHG  2  75   1  76   1
M  ISO  4  38 100  55 101  72 100  83 101
M  END
> <Batch ID>
0035

> <Smiles>
CNC(C)C(=O)NC(C(=O)N1Cc2cc([101O:1][101CH:1]3CCCN(Cc4cc([100NH:0][100C:0](=O)N5CCCC(n6nc(-c7ccc(Oc8ccc(F)cc8F)cc7)c(C(N)=O)c6N)C5)cc(Cl)c4C)C3)ccc2CC1C(=O)NC1CCCc2ccccc21)C(C)(C)C

> <Shape>
0.333

> <Color>
0.079

> <Negative vol penalty>
0.000

$$$$

  -OEChem-04042321513D

 88 97  0     1  0  0  0  0  0999 V2000
  -17.5340  -26.5360   21.8296 C   0  0  0  0  0  0  0  0  0  0  0  0
  -18.0798  -27.6358   21.1755 C   0  0  0  0  0  0  0  0  0  0  0  0
  -27.1635  -15.7899   19.9683 C   0  0  0  0  0  0  0  0  0  0  0  0
  -26.1686  -15.4467   22.1430 C   0  0  0  0  0  0  0  0  0  0  0  0
  -18.0116  -26.1658   23.0860 C   0  0  0  0  0  0  0  0  0  0  0  0
  -19.1030  -28.3668   21.7781 C   0  0  0  0  0  0  0  0  0  0  0  0
  -25.4998  -29.1420   18.5577 C   0  0  0  0  0  0  0  0  0  0  0  0
  -26.8651  -14.4717   19.6237 C   0  0  0  0  0  0  0  0  0  0  0  0
  -25.8701  -14.1285   21.7985 C   0  0  0  0  0  0  0  0  0  0  0  0
  -26.6791  -29.5125   17.9112 C   0  0  0  0  0  0  0  0  0  0  0  0
  -23.5353  -12.4991   19.9780 C   0  0  0  0  0  0  0  0  0  0  0  0
  -22.2626  -12.0214   20.2906 C   0  0  0  0  0  0  0  0  0  0  0  0
  -27.3968  -30.7120   19.8846 C   0  0  0  0  0  0  0  0  0  0  0  0
  -29.1292  -25.4965   21.7250 C   0  0  0  0  0  0  0  0  0  0  0  0
  -29.0056  -26.2965   19.4487 C   0  0  0  0  0  0  0  0  0  0  0  0
  -23.2474  -10.3029   21.6741 C   0  0  0  0  0  0  0  0  0  0  0  0
  -26.8153  -16.2775   21.2280 C   0  0  0  0  0  0  0  0  0  0  0  0
  -28.3976  -18.2358   21.6390 C   0  0  0  0  0  0  0  0  0  0  0  0
  -19.0477  -26.8868   23.7002 C   0  0  0  0  0  0  0  0  0  0  0  0
  -25.2711  -29.5427   19.8770 C   0  0  0  0  0  0  0  0  0  0  0  0
  -19.5940  -28.0068   23.0446 C   0  0  0  0  0  0  0  0  0  0  0  0
  -26.2229  -30.3335   20.5416 C   0  0  0  0  0  0  0  0  0  0  0  0
  -28.3711  -25.8689   20.6149 C   0  0  0  0  0  0  0  0  0  0  0  0
  -30.5219  -25.5519   21.6688 C   0  0  0  0  0  0  0  0  0  0  0  0
  -30.3983  -26.3519   19.3925 C   0  0  0  0  0  0  0  0  0  0  0  0
  -31.1564  -25.9795   20.5025 C   0  0  0  0  0  0  0  0  0  0  0  0
  -26.2184  -13.6409   20.5388 C   0  0  0  0  0  0  0  0  0  0  0  0
  -27.6251  -30.2958   18.5729 C   0  0  0  0  0  0  0  0  0  0  0  0
  -24.6641  -11.8787   20.5135 C   0  0  0  0  0  0  0  0  0  0  0  0
  -22.1187  -10.9233   21.1386 C   0  0  0  0  0  0  0  0  0  0  0  0
  -24.5201  -10.7806   21.3615 C   0  0  0  0  0  0  0  0  0  0  0  0
  -27.1238  -17.6390   21.5847 C   0  0  0  0  0  0  0  0  0  0  0  0
  -28.1539  -19.5308   22.0263 C   0  0  0  0  0  0  0  0  0  0  0  0
  -32.2529  -28.5929   16.9929 C   0  0  0  0  0  0  0  0  0  0  0  0
  -33.5942  -28.5928   16.9666 C   0  0  0  0  0  0  0  0  0  0  0  0
  -29.6861  -17.6701   21.3638 C   0  0  0  0  0  0  0  0  0  0  0  0
  -22.9822  -29.4679   22.8487 C   0  0  0  0  0  0  0  0  0  0  0  0
  -25.8413  -29.1660   23.9185 C   0  0  0  0  0  0  0  0  0  0  0  0
  -28.6357  -28.3914   25.7153 C   0  0  0  0  0  0  0  0  0  0  0  0
  -25.2062  -24.2537   21.6381 C   0  0  0  0  0  0  0  0  0  0  0  0
  -19.4986  -26.4771   25.0798 C   0  0  0  0  0  0  0  0  0  0  0  0
  -23.9874  -29.2186   20.5917 C   0  0  0  0  0  0  0  0  0  0  0  0
  -25.9188  -30.7703   21.9486 C   0  0  0  0  0  0  0  0  0  0  0  0
  -31.4095  -29.0038   15.8167 C   0  0  0  0  0  0  0  0  0  0  0  0
  -20.8414  -27.0792   25.4856 C   0  0  0  0  0  0  0  0  0  0  0  0
  -30.3755  -30.0394   16.2417 C   0  0  0  0  0  0  0  0  0  0  0  0
  -23.9349  -21.7054   23.7751 C   0  0  0  0  0  0  0  0  0  0  0  0
  -20.8782  -28.5693   25.1613 C   0  0  0  0  0  0  0  0  0  0  0  0
  -24.7517  -20.4688   23.3958 C   0  0  0  0  0  0  0  0  0  0  0  0
  -23.6321  -22.5767   22.5581 C   0  0  0  0  0  0  0  0  0  0  0  0
  -25.6307  -21.7330   21.3888 C   0  0  0  0  0  0  0  0  0  0  0  0
  -30.5885  -29.2520   18.6290 C   0  0  0  0  0  0  0  0  0  0  0  0
  -20.7221  -28.8100   23.6549 C   0  0  1  0  0  0  0  0  0  0  0  0
  -24.1818  -28.9690   22.0981 C   0  0  1  0  0  0  0  0  0  0  0  0
  -26.0087  -20.8520   22.5919 C   0  0  2  0  0  0  0  0  0  0  0  0
  -29.6241  -29.5932   17.4959 C   0  0  1  0  0  0  0  0  0  1  0  0
  -31.3107  -25.1466   22.8710 C   0  0  0  0  0  0  0  0  0  0  0  0
  -32.6496  -26.0384   20.4424 C   0  0  0  0  0  0  0  0  0  0  0  0
  -30.1089  -28.1224   27.7290 C   0  0  0  0  0  0  0  0  0  0  0  0
  -26.3890  -32.1317   23.4618 C   0  0  0  0  0  0  0  0  0  0  0  0
  -28.1202  -32.0172   25.2668 C   0  0  0  0  0  0  0  0  0  0  0  0
  -25.7307  -31.5401   25.8009 C   0  0  0  0  0  0  0  0  0  0  0  0
  -27.6114  -25.6657   26.2446 C   0  0  0  0  0  0  0  0  0  0  0  0
  -26.8822  -25.8103   20.6752 C   0  0  0  0  0  0  0  0  0  0  0  0
  -31.0563  -26.8153   18.1263 C   0  0  0  0  0  0  0  0  0  0  0  0
  -27.0643  -29.8532   24.4711 C   0  0  1  0  0  0  0  0  0  0  0  0
  -28.8125  -27.7001   27.0552 C   0  0  2  0  0  0  0  0  0  0  0  0
  -26.8276  -31.3684   24.7275 C   0  0  0  0  0  0  0  0  0  0  0  0
  -26.1435  -18.4853   21.9116 N   0  0  0  0  0  0  0  0  0  0  0  0
  -26.8015  -19.6271   22.1750 N   0  0  0  0  0  0  0  0  0  0  0  0
  -25.3357  -29.6524   22.7067 N   0  0  0  0  0  0  0  0  0  0  0  0
  -24.8662  -22.9060   21.8408 N   0  0  0  0  0  0  0  0  0  0  0  0
  -28.9665  -20.5851   22.2509 N   0  0  0  0  0  0  0  0  0  0  0  0
  -30.3924  -17.0731   22.4169 N   0  0  0  0  0  0  0  0  0  0  0  0
  -21.9666  -28.5385   22.9680 N   0  0  0  0  0  0  0  0  0  0  0  0
  -27.4544  -29.1001   25.6582 N   0  0  0  0  0  0  0  0  0  0  0  0
  -26.3952  -24.4779   20.9549 N   0  0  0  0  0  0  0  0  0  0  0  0
  -31.6045  -28.2120   18.2242 N   0  3  1  0  0  0  0  0  0  0  0  0
  -28.8363  -26.2209   26.8757 N   0  3  0  0  0  0  0  0  0  0  0  0
  -30.2030  -17.7080   20.2215 O   0  0  0  0  0  0  0  0  0  0  0  0
  -22.9776  -30.6114   23.2892 O   0  0  0  0  0  0  0  0  0  0  0  0
  -25.3424  -28.2268   24.5449 O   0  0  0  0  0  0  0  0  0  0  0  0
  -29.4646  -28.3137   24.8112 O   0  0  0  0  0  0  0  0  0  0  0  0
  -24.5051  -25.1880   22.0413 O   0  0  0  0  0  0  0  0  0  0  0  0
  -25.9269  -12.3546   20.2028 O   0  0  0  0  0  0  0  0  0  0  0  0
  -28.7764  -30.6501   17.9374 O   0  0  0  0  0  0  0  0  0  1  0  0
  -20.8964  -10.4657   21.4399 F   0  0  0  0  0  0  0  0  0  0  0  0
  -25.6007  -10.1812   21.8799 F   0  0  0  0  0  0  0  0  0  0  0  0
  1  2  1  0  0  0  0
  1  5  2  0  0  0  0
  2  6  2  0  0  0  0
  3  8  2  0  0  0  0
  3 17  1  0  0  0  0
  4  9  1  0  0  0  0
  4 17  2  0  0  0  0
  5 19  1  0  0  0  0
  6 21  1  0  0  0  0
  7 10  2  0  0  0  0
  7 20  1  0  0  0  0
  8 27  1  0  0  0  0
  9 27  2  0  0  0  0
 10 28  1  0  0  0  0
 11 12  2  0  0  0  0
 11 29  1  0  0  0  0
 12 30  1  0  0  0  0
 13 22  1  0  0  0  0
 13 28  2  0  0  0  0
 14 23  1  0  0  0  0
 14 24  2  0  0  0  0
 15 23  2  0  0  0  0
 15 25  1  0  0  0  0
 16 30  2  0  0  0  0
 16 31  1  0  0  0  0
 17 32  1  0  0  0  0
 18 32  1  0  0  0  0
 18 33  2  0  0  0  0
 18 36  1  0  0  0  0
 19 21  2  0  0  0  0
 19 41  1  0  0  0  0
 20 22  2  0  0  0  0
 20 42  1  0  0  0  0
 21 53  1  0  0  0  0
 22 43  1  0  0  0  0
 23 64  1  0  0  0  0
 24 26  1  0  0  0  0
 24 57  1  0  0  0  0
 25 26  2  0  0  0  0
 25 65  1  0  0  0  0
 26 58  1  0  0  0  0
 27 85  1  0  0  0  0
 28 86  1  0  0  0  0
 29 31  2  0  0  0  0
 29 85  1  0  0  0  0
 30 87  1  0  0  0  0
 31 88  1  0  0  0  0
 32 69  2  0  0  0  0
 33 70  1  0  0  0  0
 33 73  1  0  0  0  0
 34 35  2  0  0  0  0
 34 44  1  0  0  0  0
 34 78  1  0  0  0  0
 36 74  1  0  0  0  0
 36 80  2  0  0  0  0
 37 54  1  0  0  0  0
 37 75  1  0  0  0  0
 37 81  2  0  0  0  0
 38 66  1  0  0  0  0
 38 71  1  0  0  0  0
 38 82  2  0  0  0  0
 39 67  1  0  0  0  0
 39 76  1  0  0  0  0
 39 83  2  0  0  0  0
 40 72  1  0  0  0  0
 40 77  1  0  0  0  0
 40 84  2  0  0  0  0
 41 45  1  0  0  0  0
 42 54  1  0  0  0  0
 43 71  1  0  0  0  0
 44 46  1  0  0  0  0
 45 48  1  0  0  0  0
 46 56  1  0  0  0  0
 47 49  1  0  0  0  0
 47 50  1  0  0  0  0
 48 53  1  0  0  0  0
 49 55  1  0  0  0  0
 50 72  1  0  0  0  0
 51 55  1  0  0  0  0
 51 72  1  0  0  0  0
 52 56  1  0  0  0  0
 52 78  1  0  0  0  0
 53 75  1  0  0  0  0
 54 71  1  0  0  0  0
 55 70  1  0  0  0  0
 56 86  1  0  0  0  0
 59 67  1  0  0  0  0
 60 68  1  0  0  0  0
 61 68  1  0  0  0  0
 62 68  1  0  0  0  0
 63 79  1  0  0  0  0
 64 77  1  0  0  0  0
 65 78  1  0  0  0  0
 66 68  1  0  0  0  0
 66 76  1  0  0  0  0
 67 79  1  0  0  0  0
 69 70  1  0  0  0  0
M  CHG  2  78   1  79   1
M  ISO  4  40 100  56 101  77 100  86 101
M  END
> <Batch ID>
0035

> <Smiles>
C=C1CC[101CH:1]([101O:1]c2ccc3c(c2)CN(C(=O)C(NC(=O)C(C)NC)C(C)(C)C)C(C(=O)NC2CCCc4ccccc42)C3)CN1Cc1cc(C[100NH:0][100C:0](=O)N2CCCC(n3nc(-c4ccc(Oc5ccc(F)cc5F)cc4)c(C(N)=O)c3N)C2)cc(C)c1C

> <Shape>
0.255

> <Color>
0.069

> <Negative vol penalty>
0.000

$$$$

  -OEChem-04042321513D

 91100  0     1  0  0  0  0  0999 V2000
  -27.7832  -35.7005   28.3940 C   0  0  0  0  0  0  0  0  0  0  0  0
  -27.5184  -34.3565   28.1512 C   0  0  0  0  0  0  0  0  0  0  0  0
  -23.1544  -10.7887   22.9672 C   0  0  0  0  0  0  0  0  0  0  0  0
  -24.6197   -9.2357   21.8366 C   0  0  0  0  0  0  0  0  0  0  0  0
  -27.0791  -36.6847   27.7016 C   0  0  0  0  0  0  0  0  0  0  0  0
  -26.5484  -33.9959   27.2166 C   0  0  0  0  0  0  0  0  0  0  0  0
  -28.0862  -30.2596   24.1637 C   0  0  0  0  0  0  0  0  0  0  0  0
  -22.6943   -9.7581   23.7867 C   0  0  0  0  0  0  0  0  0  0  0  0
  -24.1597   -8.2051   22.6562 C   0  0  0  0  0  0  0  0  0  0  0  0
  -28.0603  -28.9646   24.6795 C   0  0  0  0  0  0  0  0  0  0  0  0
  -21.4452   -6.1988   22.8494 C   0  0  0  0  0  0  0  0  0  0  0  0
  -21.1277   -4.9826   22.2447 C   0  0  0  0  0  0  0  0  0  0  0  0
  -25.9824  -28.5530   23.5254 C   0  0  0  0  0  0  0  0  0  0  0  0
  -26.4365  -20.8904   20.0910 C   0  0  0  0  0  0  0  0  0  0  0  0
  -28.8980  -19.6348   20.4743 C   0  0  0  0  0  0  0  0  0  0  0  0
  -22.7895   -3.8733   23.6031 C   0  0  0  0  0  0  0  0  0  0  0  0
  -24.1171  -10.5276   21.9921 C   0  0  0  0  0  0  0  0  0  0  0  0
  -23.8294  -12.3836   20.2658 C   0  0  0  0  0  0  0  0  0  0  0  0
  -26.1068  -36.3360   26.7510 C   0  0  0  0  0  0  0  0  0  0  0  0
  -27.0530  -30.7154   23.3323 C   0  0  0  0  0  0  0  0  0  0  0  0
  -25.8296  -34.9764   26.5118 C   0  0  0  0  0  0  0  0  0  0  0  0
  -25.9988  -29.8534   22.9983 C   0  0  0  0  0  0  0  0  0  0  0  0
  -26.5477  -19.5095   19.9289 C   0  0  0  0  0  0  0  0  0  0  0  0
  -27.5560  -21.6436   20.4447 C   0  0  0  0  0  0  0  0  0  0  0  0
  -27.7784  -18.8817   20.1206 C   0  0  0  0  0  0  0  0  0  0  0  0
  -23.1969   -8.4662   23.6312 C   0  0  0  0  0  0  0  0  0  0  0  0
  -27.0069  -28.1120   24.3627 C   0  0  0  0  0  0  0  0  0  0  0  0
  -22.4349   -6.2523   23.8309 C   0  0  0  0  0  0  0  0  0  0  0  0
  -21.7998   -3.8199   22.6215 C   0  0  0  0  0  0  0  0  0  0  0  0
  -23.1070   -5.0896   24.2078 C   0  0  0  0  0  0  0  0  0  0  0  0
  -28.7868  -21.0158   20.6364 C   0  0  0  0  0  0  0  0  0  0  0  0
  -24.5923  -11.5917   21.1448 C   0  0  0  0  0  0  0  0  0  0  0  0
  -24.7396  -13.2423   19.6996 C   0  0  0  0  0  0  0  0  0  0  0  0
  -26.2560  -24.9335   21.7381 C   0  0  0  0  0  0  0  0  0  0  0  0
  -25.3849  -25.4953   20.8818 C   0  0  0  0  0  0  0  0  0  0  0  0
  -24.6153  -24.7356   19.9300 C   0  0  0  0  0  0  0  0  0  0  0  0
  -23.7475  -25.3004   19.0777 C   0  0  0  0  0  0  0  0  0  0  0  0
  -22.4236  -12.3465   19.9863 C   0  0  0  0  0  0  0  0  0  0  0  0
  -24.8889  -33.0367   23.5109 C   0  0  0  0  0  0  0  0  0  0  0  0
  -24.2126  -32.1078   20.4774 C   0  0  0  0  0  0  0  0  0  0  0  0
  -24.2928  -29.6460   18.1152 C   0  0  0  0  0  0  0  0  0  0  0  0
  -29.0693  -16.7184   20.1157 C   0  0  0  0  0  0  0  0  0  0  0  0
  -25.3382  -37.4354   26.0617 C   0  0  0  0  0  0  0  0  0  0  0  0
  -27.1093  -32.1063   22.7626 C   0  0  0  0  0  0  0  0  0  0  0  0
  -24.8756  -30.2876   22.0937 C   0  0  0  0  0  0  0  0  0  0  0  0
  -27.0382  -25.7660   22.7150 C   0  0  0  0  0  0  0  0  0  0  0  0
  -24.5901  -36.9672   24.8161 C   0  0  0  0  0  0  0  0  0  0  0  0
  -29.7993  -13.2440   19.8454 C   0  0  0  0  0  0  0  0  0  0  0  0
  -25.8336  -23.3143   24.1385 C   0  0  0  0  0  0  0  0  0  0  0  0
  -23.8365  -35.6720   25.1014 C   0  0  0  0  0  0  0  0  0  0  0  0
  -28.4469  -12.5696   20.0870 C   0  0  0  0  0  0  0  0  0  0  0  0
  -26.3688  -24.5440   24.8710 C   0  0  0  0  0  0  0  0  0  0  0  0
  -29.9780  -14.4853   20.7178 C   0  0  0  0  0  0  0  0  0  0  0  0
  -27.5386  -14.7941   20.8703 C   0  0  0  0  0  0  0  0  0  0  0  0
  -26.7424  -22.8570   23.0004 C   0  0  0  0  0  0  0  0  0  0  0  0
  -24.8024  -34.5453   25.4876 C   0  0  1  0  0  0  0  0  0  0  0  0
  -25.7419  -32.6351   22.3409 C   0  0  1  0  0  0  0  0  0  0  0  0
  -27.2858  -13.5760   19.9669 C   0  0  2  0  0  0  0  0  0  0  0  0
  -26.3368  -25.8470   24.0728 C   0  0  1  0  0  0  0  0  0  1  0  0
  -25.3323  -18.7280   19.5475 C   0  0  0  0  0  0  0  0  0  0  0  0
  -22.9414  -24.5300   18.0841 C   0  0  0  0  0  0  0  0  0  0  0  0
  -23.6319  -29.1714   15.7414 C   0  0  0  0  0  0  0  0  0  0  0  0
  -21.3024  -31.8193   21.3478 C   0  0  0  0  0  0  0  0  0  0  0  0
  -20.8901  -30.4708   19.2791 C   0  0  0  0  0  0  0  0  0  0  0  0
  -21.6190  -32.8490   19.0909 C   0  0  0  0  0  0  0  0  0  0  0  0
  -27.0974  -29.1487   17.3116 C   0  0  0  0  0  0  0  0  0  0  0  0
  -27.3950  -23.1262   20.6084 C   0  0  0  0  0  0  0  0  0  0  0  0
  -23.2792  -31.1002   19.8508 C   0  0  1  0  0  0  0  0  0  0  0  0
  -24.7390  -29.6564   16.6643 C   0  0  2  0  0  0  0  0  0  0  0  0
  -21.7927  -31.5520   19.9108 C   0  0  0  0  0  0  0  0  0  0  0  0
  -25.8875  -11.9181   21.1406 N   0  0  0  0  0  0  0  0  0  0  0  0
  -25.9454  -12.9247   20.2520 N   0  0  0  0  0  0  0  0  0  0  0  0
  -24.9725  -31.6589   21.5668 N   0  0  0  0  0  0  0  0  0  0  0  0
  -28.8426  -15.3948   20.5488 N   0  0  0  0  0  0  0  0  0  0  0  0
  -24.6181  -14.2305   18.7879 N   0  0  0  0  0  0  0  0  0  0  0  0
  -21.6339  -11.4021   20.6563 N   0  0  0  0  0  0  0  0  0  0  0  0
  -27.9118  -17.4802   19.9597 N   0  0  0  0  0  0  0  0  0  0  0  0
  -25.4536  -34.0122   24.3103 N   0  0  0  0  0  0  0  0  0  0  0  0
  -23.7785  -30.8661   18.5002 N   0  0  0  0  0  0  0  0  0  0  0  0
  -26.3964  -23.4982   21.6770 N   0  3  2  0  0  0  0  0  0  0  0  0
  -25.9248  -28.7725   16.4807 N   0  3  0  0  0  0  0  0  0  0  0  0
  -21.8865  -13.1166   19.1545 O   0  0  0  0  0  0  0  0  0  0  0  0
  -23.7985  -32.5023   23.6753 O   0  0  0  0  0  0  0  0  0  0  0  0
  -24.2706  -33.2490   20.0127 O   0  0  0  0  0  0  0  0  0  0  0  0
  -24.3874  -28.6536   18.8341 O   0  0  0  0  0  0  0  0  0  0  0  0
  -30.2044  -17.1364   19.8731 O   0  0  0  0  0  0  0  0  0  0  0  0
  -22.7484   -7.4603   24.4309 O   0  0  0  0  0  0  0  0  0  0  0  0
  -26.9788  -26.8477   24.8652 O   0  0  0  0  0  0  0  0  0  1  0  0
  -21.4937   -2.6518   22.0418 F   0  0  0  0  0  0  0  0  0  0  0  0
  -24.0579   -5.1345   25.1510 F   0  0  0  0  0  0  0  0  0  0  0  0
  -30.1936  -21.9151   21.0742 Cl  0  0  0  0  0  0  0  0  0  0  0  0
  1  2  1  0  0  0  0
  1  5  2  0  0  0  0
  2  6  2  0  0  0  0
  3  8  2  0  0  0  0
  3 17  1  0  0  0  0
  4  9  1  0  0  0  0
  4 17  2  0  0  0  0
  5 19  1  0  0  0  0
  6 21  1  0  0  0  0
  7 10  2  0  0  0  0
  7 20  1  0  0  0  0
  8 26  1  0  0  0  0
  9 26  2  0  0  0  0
 10 27  1  0  0  0  0
 11 12  2  0  0  0  0
 11 28  1  0  0  0  0
 12 29  1  0  0  0  0
 13 22  1  0  0  0  0
 13 27  2  0  0  0  0
 14 23  2  0  0  0  0
 14 24  1  0  0  0  0
 15 25  2  0  0  0  0
 15 31  1  0  0  0  0
 16 29  2  0  0  0  0
 16 30  1  0  0  0  0
 17 32  1  0  0  0  0
 18 32  1  0  0  0  0
 18 33  2  0  0  0  0
 18 38  1  0  0  0  0
 19 21  2  0  0  0  0
 19 43  1  0  0  0  0
 20 22  2  0  0  0  0
 20 44  1  0  0  0  0
 21 56  1  0  0  0  0
 22 45  1  0  0  0  0
 23 25  1  0  0  0  0
 23 60  1  0  0  0  0
 24 31  2  0  0  0  0
 24 67  1  0  0  0  0
 25 77  1  0  0  0  0
 26 87  1  0  0  0  0
 27 88  1  0  0  0  0
 28 30  2  0  0  0  0
 28 87  1  0  0  0  0
 29 89  1  0  0  0  0
 30 90  1  0  0  0  0
 31 91  1  0  0  0  0
 32 71  2  0  0  0  0
 33 72  1  0  0  0  0
 33 75  1  0  0  0  0
 34 35  2  0  0  0  0
 34 46  1  0  0  0  0
 34 80  1  0  0  0  0
 35 36  1  0  0  0  0
 36 37  2  0  0  0  0
 37 61  1  0  0  0  0
 38 76  1  0  0  0  0
 38 82  2  0  0  0  0
 39 57  1  0  0  0  0
 39 78  1  0  0  0  0
 39 83  2  0  0  0  0
 40 68  1  0  0  0  0
 40 73  1  0  0  0  0
 40 84  2  0  0  0  0
 41 69  1  0  0  0  0
 41 79  1  0  0  0  0
 41 85  2  0  0  0  0
 42 74  1  0  0  0  0
 42 77  1  0  0  0  0
 42 86  2  0  0  0  0
 43 47  1  0  0  0  0
 44 57  1  0  0  0  0
 45 73  1  0  0  0  0
 46 59  1  0  0  0  0
 47 50  1  0  0  0  0
 48 51  1  0  0  0  0
 48 53  1  0  0  0  0
 49 52  1  0  0  0  0
 49 55  1  0  0  0  0
 50 56  1  0  0  0  0
 51 58  1  0  0  0  0
 52 59  1  0  0  0  0
 53 74  1  0  0  0  0
 54 58  1  0  0  0  0
 54 74  1  0  0  0  0
 55 80  1  0  0  0  0
 56 78  1  0  0  0  0
 57 73  1  0  0  0  0
 58 72  1  0  0  0  0
 59 88  1  0  0  0  0
 62 69  1  0  0  0  0
 63 70  1  0  0  0  0
 64 70  1  0  0  0  0
 65 70  1  0  0  0  0
 66 81  1  0  0  0  0
 67 80  1  0  0  0  0
 68 70  1  0  0  0  0
 68 79  1  0  0  0  0
 69 81  1  0  0  0  0
 71 72  1  0  0  0  0
M  CHG  2  80   1  81   1
M  ISO  4  42 100  59 101  77 100  88 101
M  END
> <Batch ID>
0035

> <Smiles>
CC=CC=C1C[101CH:1]([101O:1]c2ccc3c(c2)CN(C(=O)C(NC(=O)C(C)NC)C(C)(C)C)C(C(=O)NC2CCCc4ccccc42)C3)CCCN1Cc1cc(C)c([100NH:0][100C:0](=O)N2CCCC(n3nc(-c4ccc(Oc5ccc(F)cc5F)cc4)c(C(N)=O)c3N)C2)cc1Cl

> <Shape>
0.258

> <Color>
0.093

> <Negative vol penalty>
0.000

$$$$

  -OEChem-04042321513D

 86 95  0     1  0  0  0  0  0999 V2000
  -20.8106  -34.6524   22.7040 C   0  0  0  0  0  0  0  0  0  0  0  0
  -22.0090  -34.0806   22.2888 C   0  0  0  0  0  0  0  0  0  0  0  0
  -22.8315  -10.2659   20.0281 C   0  0  0  0  0  0  0  0  0  0  0  0
  -24.3096   -9.6598   21.8405 C   0  0  0  0  0  0  0  0  0  0  0  0
  -19.9124  -33.9085   23.4680 C   0  0  0  0  0  0  0  0  0  0  0  0
  -22.3103  -32.7647   22.6383 C   0  0  0  0  0  0  0  0  0  0  0  0
  -25.3823  -28.6730   19.2728 C   0  0  0  0  0  0  0  0  0  0  0  0
  -21.7284   -9.9670   20.8277 C   0  0  0  0  0  0  0  0  0  0  0  0
  -23.2065   -9.3610   22.6402 C   0  0  0  0  0  0  0  0  0  0  0  0
  -26.7119  -28.2538   19.2893 C   0  0  0  0  0  0  0  0  0  0  0  0
  -21.0006   -6.8234   22.9946 C   0  0  0  0  0  0  0  0  0  0  0  0
  -21.0364   -5.6402   23.7323 C   0  0  0  0  0  0  0  0  0  0  0  0
  -26.0973  -26.3793   20.6777 C   0  0  0  0  0  0  0  0  0  0  0  0
  -31.2183  -20.1448   20.3226 C   0  0  0  0  0  0  0  0  0  0  0  0
  -28.7660  -18.8151   20.3462 C   0  0  0  0  0  0  0  0  0  0  0  0
  -20.8227   -6.9087   25.7774 C   0  0  0  0  0  0  0  0  0  0  0  0
  -24.1221  -10.1122   20.5345 C   0  0  0  0  0  0  0  0  0  0  0  0
  -25.6078   -9.8251   18.4807 C   0  0  0  0  0  0  0  0  0  0  0  0
  -20.1985  -32.5797   23.8188 C   0  0  0  0  0  0  0  0  0  0  0  0
  -24.4004  -27.9534   19.9689 C   0  0  0  0  0  0  0  0  0  0  0  0
  -21.4156  -32.0027   23.4088 C   0  0  0  0  0  0  0  0  0  0  0  0
  -24.7556  -26.7900   20.6664 C   0  0  0  0  0  0  0  0  0  0  0  0
  -31.1514  -18.7988   19.9633 C   0  0  0  0  0  0  0  0  0  0  0  0
  -30.0591  -20.8261   20.6938 C   0  0  0  0  0  0  0  0  0  0  0  0
  -29.9253  -18.1339   19.9751 C   0  0  0  0  0  0  0  0  0  0  0  0
  -21.9158   -9.5146   22.1338 C   0  0  0  0  0  0  0  0  0  0  0  0
  -27.0701  -27.1084   19.9942 C   0  0  0  0  0  0  0  0  0  0  0  0
  -20.8759   -8.0494   23.6483 C   0  0  0  0  0  0  0  0  0  0  0  0
  -20.9475   -5.6828   25.1237 C   0  0  0  0  0  0  0  0  0  0  0  0
  -20.7869   -8.0920   25.0397 C   0  0  0  0  0  0  0  0  0  0  0  0
  -28.8330  -20.1612   20.7056 C   0  0  0  0  0  0  0  0  0  0  0  0
  -25.2620  -10.4202   19.7087 C   0  0  0  0  0  0  0  0  0  0  0  0
  -26.7645  -10.4626   18.1038 C   0  0  0  0  0  0  0  0  0  0  0  0
  -24.9427   -8.7888   17.7462 C   0  0  0  0  0  0  0  0  0  0  0  0
  -22.4257  -28.6026   22.3736 C   0  0  0  0  0  0  0  0  0  0  0  0
  -21.2474  -25.6593   21.6874 C   0  0  0  0  0  0  0  0  0  0  0  0
  -22.5864  -22.4234   20.8196 C   0  0  0  0  0  0  0  0  0  0  0  0
  -28.6931  -15.9643   19.5763 C   0  0  0  0  0  0  0  0  0  0  0  0
  -19.2178  -31.8306   24.6859 C   0  0  0  0  0  0  0  0  0  0  0  0
  -22.9662  -28.4038   19.9192 C   0  0  0  0  0  0  0  0  0  0  0  0
  -23.7360  -25.9707   21.4131 C   0  0  0  0  0  0  0  0  0  0  0  0
  -19.4441  -30.3210   24.6972 C   0  0  0  0  0  0  0  0  0  0  0  0
  -30.2187  -12.6303   20.7085 C   0  0  0  0  0  0  0  0  0  0  0  0
  -30.0355  -24.1970   17.7716 C   0  0  0  0  0  0  0  0  0  0  0  0
  -20.9231  -30.0044   24.8953 C   0  0  0  0  0  0  0  0  0  0  0  0
  -29.4411  -11.6760   19.8051 C   0  0  0  0  0  0  0  0  0  0  0  0
  -29.5834  -25.5526   18.2983 C   0  0  0  0  0  0  0  0  0  0  0  0
  -30.2719  -14.0446   20.1447 C   0  0  0  0  0  0  0  0  0  0  0  0
  -27.8200  -13.6510   19.8462 C   0  0  0  0  0  0  0  0  0  0  0  0
  -30.6474  -23.3418   18.8720 C   0  0  0  0  0  0  0  0  0  0  0  0
  -29.2590  -24.5380   20.5841 C   0  0  0  0  0  0  0  0  0  0  0  0
  -21.7671  -30.5702   23.7468 C   0  0  1  0  0  0  0  0  0  0  0  0
  -22.1352  -27.8822   21.0874 C   0  0  1  0  0  0  0  0  0  0  0  0
  -28.2016  -12.3290   19.1620 C   0  0  2  0  0  0  0  0  0  0  0  0
  -28.6439  -25.4016   19.4907 C   0  0  1  0  0  0  0  0  0  1  0  0
  -32.4095  -18.0934   19.5720 C   0  0  0  0  0  0  0  0  0  0  0  0
  -21.5766  -20.5387   19.5061 C   0  0  0  0  0  0  0  0  0  0  0  0
  -20.3885  -24.6012   24.4174 C   0  0  0  0  0  0  0  0  0  0  0  0
  -20.8940  -22.2885   23.6024 C   0  0  0  0  0  0  0  0  0  0  0  0
  -19.1247  -23.6445   22.4830 C   0  0  0  0  0  0  0  0  0  0  0  0
  -24.8693  -22.3582   18.9372 C   0  0  0  0  0  0  0  0  0  0  0  0
  -30.1734  -22.2729   21.0743 C   0  0  0  0  0  0  0  0  0  0  0  0
  -21.5547  -24.2524   22.1404 C   0  0  1  0  0  0  0  0  0  0  0  0
  -22.5076  -21.7405   19.4662 C   0  0  2  0  0  0  0  0  0  0  0  0
  -20.5105  -23.7168   23.1604 C   0  0  0  0  0  0  0  0  0  0  0  0
  -26.1291  -11.3632   20.0870 N   0  0  0  0  0  0  0  0  0  0  0  0
  -27.0311  -11.3654   19.0908 N   0  0  0  0  0  0  0  0  0  0  0  0
  -22.3478  -26.4555   21.3397 N   0  0  0  0  0  0  0  0  0  0  0  0
  -28.9432  -14.5954   19.8405 N   0  0  0  0  0  0  0  0  0  0  0  0
  -27.5695  -10.3333   17.0278 N   0  0  0  0  0  0  0  0  0  0  0  0
  -25.2955   -7.4567   18.0020 N   0  0  0  0  0  0  0  0  0  0  0  0
  -29.8369  -16.7661   19.6141 N   0  0  0  0  0  0  0  0  0  0  0  0
  -21.6524  -29.7301   22.5740 N   0  0  0  0  0  0  0  0  0  0  0  0
  -21.6719  -23.4496   20.9279 N   0  0  0  0  0  0  0  0  0  0  0  0
  -29.6634  -23.2043   20.0093 N   0  3  2  0  0  0  0  0  0  0  0  0
  -23.8581  -21.2749   19.0415 N   0  3  0  0  0  0  0  0  0  0  0  0
  -24.0734   -9.0375   16.8768 O   0  0  0  0  0  0  0  0  0  0  0  0
  -23.2866  -28.1669   23.1291 O   0  0  0  0  0  0  0  0  0  0  0  0
  -20.0737  -26.0356   21.6369 O   0  0  0  0  0  0  0  0  0  0  0  0
  -23.3774  -22.0784   21.6947 O   0  0  0  0  0  0  0  0  0  0  0  0
  -27.5596  -16.3791   19.3258 O   0  0  0  0  0  0  0  0  0  0  0  0
  -20.8397   -9.2232   22.9145 O   0  0  0  0  0  0  0  0  0  0  0  0
  -28.3672  -26.6974   20.0125 O   0  0  0  0  0  0  0  0  0  1  0  0
  -20.9803   -4.5463   25.8319 F   0  0  0  0  0  0  0  0  0  0  0  0
  -20.6658   -9.2666   25.6732 F   0  0  0  0  0  0  0  0  0  0  0  0
  -27.3779  -20.9714   21.1595 Cl  0  0  0  0  0  0  0  0  0  0  0  0
  1  2  1  0  0  0  0
  1  5  2  0  0  0  0
  2  6  2  0  0  0  0
  3  8  2  0  0  0  0
  3 17  1  0  0  0  0
  4  9  1  0  0  0  0
  4 17  2  0  0  0  0
  5 19  1  0  0  0  0
  6 21  1  0  0  0  0
  7 10  2  0  0  0  0
  7 20  1  0  0  0  0
  8 26  1  0  0  0  0
  9 26  2  0  0  0  0
 10 27  1  0  0  0  0
 11 12  2  0  0  0  0
 11 28  1  0  0  0  0
 12 29  1  0  0  0  0
 13 22  1  0  0  0  0
 13 27  2  0  0  0  0
 14 23  2  0  0  0  0
 14 24  1  0  0  0  0
 15 25  2  0  0  0  0
 15 31  1  0  0  0  0
 16 29  2  0  0  0  0
 16 30  1  0  0  0  0
 17 32  1  0  0  0  0
 18 32  1  0  0  0  0
 18 33  2  0  0  0  0
 18 34  1  0  0  0  0
 19 21  2  0  0  0  0
 19 39  1  0  0  0  0
 20 22  2  0  0  0  0
 20 40  1  0  0  0  0
 21 52  1  0  0  0  0
 22 41  1  0  0  0  0
 23 25  1  0  0  0  0
 23 56  1  0  0  0  0
 24 31  2  0  0  0  0
 24 62  1  0  0  0  0
 25 72  1  0  0  0  0
 26 82  1  0  0  0  0
 27 83  1  0  0  0  0
 28 30  2  0  0  0  0
 28 82  1  0  0  0  0
 29 84  1  0  0  0  0
 30 85  1  0  0  0  0
 31 86  1  0  0  0  0
 32 66  2  0  0  0  0
 33 67  1  0  0  0  0
 33 70  1  0  0  0  0
 34 71  1  0  0  0  0
 34 77  2  0  0  0  0
 35 53  1  0  0  0  0
 35 73  1  0  0  0  0
 35 78  2  0  0  0  0
 36 63  1  0  0  0  0
 36 68  1  0  0  0  0
 36 79  2  0  0  0  0
 37 64  1  0  0  0  0
 37 74  1  0  0  0  0
 37 80  2  0  0  0  0
 38 69  1  0  0  0  0
 38 72  1  0  0  0  0
 38 81  2  0  0  0  0
 39 42  1  0  0  0  0
 40 53  1  0  0  0  0
 41 68  1  0  0  0  0
 42 45  1  0  0  0  0
 43 46  1  0  0  0  0
 43 48  1  0  0  0  0
 44 47  1  0  0  0  0
 44 50  1  0  0  0  0
 45 52  1  0  0  0  0
 46 54  1  0  0  0  0
 47 55  1  0  0  0  0
 48 69  1  0  0  0  0
 49 54  1  0  0  0  0
 49 69  1  0  0  0  0
 50 75  1  0  0  0  0
 51 55  1  0  0  0  0
 51 75  1  0  0  0  0
 52 73  1  0  0  0  0
 53 68  1  0  0  0  0
 54 67  1  0  0  0  0
 55 83  1  0  0  0  0
 57 64  1  0  0  0  0
 58 65  1  0  0  0  0
 59 65  1  0  0  0  0
 60 65  1  0  0  0  0
 61 76  1  0  0  0  0
 62 75  1  0  0  0  0
 63 65  1  0  0  0  0
 63 74  1  0  0  0  0
 64 76  1  0  0  0  0
 66 67  1  0  0  0  0
M  CHG  2  75   1  76   1
M  ISO  4  38 100  55 101  72 100  83 101
M  END
> <Batch ID>
0035

> <Smiles>
CNC(C)C(=O)NC(C(=O)N1Cc2cc([101O:1][101CH:1]3CCCN(Cc4cc(C)c([100NH:0][100C:0](=O)N5CCCC(n6nc(-c7ccc(Oc8ccc(F)cc8F)cc7)c(C(N)=O)c6N)C5)cc4Cl)C3)ccc2CC1C(=O)NC1CCCc2ccccc21)C(C)(C)C

> <Shape>
0.256

> <Color>
0.098

> <Negative vol penalty>
0.000

$$$$

  -OEChem-04042321513D

 92101  0     1  0  0  0  0  0999 V2000
  -17.3433  -29.0854   24.7163 C   0  0  0  0  0  0  0  0  0  0  0  0
  -17.5574  -27.7790   24.2885 C   0  0  0  0  0  0  0  0  0  0  0  0
  -25.4803  -15.7001   19.4962 C   0  0  0  0  0  0  0  0  0  0  0  0
  -24.7879  -17.0764   21.3572 C   0  0  0  0  0  0  0  0  0  0  0  0
  -17.9800  -30.1430   24.0683 C   0  0  0  0  0  0  0  0  0  0  0  0
  -18.4076  -27.5297   23.2117 C   0  0  0  0  0  0  0  0  0  0  0  0
  -23.0470  -22.6449   20.7763 C   0  0  0  0  0  0  0  0  0  0  0  0
  -31.3958  -23.3897   14.2010 C   0  0  0  0  0  0  0  0  0  0  0  0
  -30.5955  -23.3289   15.3417 C   0  0  0  0  0  0  0  0  0  0  0  0
  -24.2460  -15.0507   19.5172 C   0  0  0  0  0  0  0  0  0  0  0  0
  -23.5536  -16.4270   21.3782 C   0  0  0  0  0  0  0  0  0  0  0  0
  -23.3150  -21.8884   19.6363 C   0  0  0  0  0  0  0  0  0  0  0  0
  -22.7373  -12.6277   21.3276 C   0  0  0  0  0  0  0  0  0  0  0  0
  -22.7357  -11.2369   21.2224 C   0  0  0  0  0  0  0  0  0  0  0  0
  -24.4227  -23.7876   18.6437 C   0  0  0  0  0  0  0  0  0  0  0  0
  -21.4095  -11.3907   19.2088 C   0  0  0  0  0  0  0  0  0  0  0  0
  -25.7513  -16.7129   20.4162 C   0  0  0  0  0  0  0  0  0  0  0  0
  -28.2961  -16.8016   20.5706 C   0  0  0  0  0  0  0  0  0  0  0  0
  -18.8459  -29.9058   22.9892 C   0  0  0  0  0  0  0  0  0  0  0  0
  -23.4559  -23.9840   20.8543 C   0  0  0  0  0  0  0  0  0  0  0  0
  -19.0554  -28.5853   22.5479 C   0  0  0  0  0  0  0  0  0  0  0  0
  -24.1609  -24.5582   19.7868 C   0  0  0  0  0  0  0  0  0  0  0  0
  -31.1884  -22.4908   13.1547 C   0  0  0  0  0  0  0  0  0  0  0  0
  -30.1807  -21.5310   13.2493 C   0  0  0  0  0  0  0  0  0  0  0  0
  -29.3803  -21.4702   14.3901 C   0  0  0  0  0  0  0  0  0  0  0  0
  -29.5877  -22.3691   15.4363 C   0  0  0  0  0  0  0  0  0  0  0  0
  -23.2827  -15.4142   20.4582 C   0  0  0  0  0  0  0  0  0  0  0  0
  -24.0005  -22.4605   18.5686 C   0  0  0  0  0  0  0  0  0  0  0  0
  -22.0749  -13.4001   20.3734 C   0  0  0  0  0  0  0  0  0  0  0  0
  -22.0718  -10.6184   20.1630 C   0  0  0  0  0  0  0  0  0  0  0  0
  -21.4110  -12.7816   19.3140 C   0  0  0  0  0  0  0  0  0  0  0  0
  -27.0263  -17.3837   20.3953 C   0  0  0  0  0  0  0  0  0  0  0  0
  -29.1735  -17.8529   20.4636 C   0  0  0  0  0  0  0  0  0  0  0  0
  -26.2901  -21.7731   14.2927 C   0  0  0  0  0  0  0  0  0  0  0  0
  -26.5907  -23.0465   13.9764 C   0  0  0  0  0  0  0  0  0  0  0  0
  -28.6507  -15.4329   20.8087 C   0  0  0  0  0  0  0  0  0  0  0  0
  -21.9601  -26.7720   21.1594 C   0  0  0  0  0  0  0  0  0  0  0  0
  -24.9824  -27.9237   21.4076 C   0  0  0  0  0  0  0  0  0  0  0  0
  -28.3028  -27.5157   20.7330 C   0  0  0  0  0  0  0  0  0  0  0  0
  -28.8776  -23.1541   17.7223 C   0  0  0  0  0  0  0  0  0  0  0  0
  -19.4747  -31.0850   22.2901 C   0  0  0  0  0  0  0  0  0  0  0  0
  -23.1824  -24.7786   22.1017 C   0  0  0  0  0  0  0  0  0  0  0  0
  -24.6393  -25.9857   19.8291 C   0  0  0  0  0  0  0  0  0  0  0  0
  -20.6525  -30.7060   21.3960 C   0  0  0  0  0  0  0  0  0  0  0  0
  -23.8300  -19.9622   13.5623 C   0  0  0  0  0  0  0  0  0  0  0  0
  -29.4619  -22.5781   21.1870 C   0  0  0  0  0  0  0  0  0  0  0  0
  -24.9932  -19.8286   12.5782 C   0  0  0  0  0  0  0  0  0  0  0  0
  -20.3005  -29.4987   20.5326 C   0  0  0  0  0  0  0  0  0  0  0  0
  -23.8632  -21.1915   14.4721 C   0  0  0  0  0  0  0  0  0  0  0  0
  -29.0249  -21.1258   21.3918 C   0  0  0  0  0  0  0  0  0  0  0  0
  -28.5673  -23.3034   20.1833 C   0  0  0  0  0  0  0  0  0  0  0  0
  -27.9738  -21.1749   19.0941 C   0  0  0  0  0  0  0  0  0  0  0  0
  -26.3225  -19.5177   13.2620 C   0  0  0  0  0  0  0  0  0  0  0  0
  -19.9898  -28.2724   21.3993 C   0  0  1  0  0  0  0  0  0  0  0  0
  -25.1777  -21.3775   15.2488 C   0  0  2  0  0  0  0  0  0  0  0  0
  -23.1943  -26.2856   21.8649 C   0  0  1  0  0  0  0  0  0  0  0  0
  -28.8846  -20.3846   20.0478 C   0  0  2  0  0  0  0  0  0  0  0  0
  -29.9606  -20.5683   12.1255 C   0  0  0  0  0  0  0  0  0  0  0  0
  -30.7661  -27.9912   20.7906 C   0  0  0  0  0  0  0  0  0  0  0  0
  -24.2903  -29.8724   19.1641 C   0  0  0  0  0  0  0  0  0  0  0  0
  -26.7410  -30.2852   18.8611 C   0  0  0  0  0  0  0  0  0  0  0  0
  -25.6393  -30.8596   21.0242 C   0  0  0  0  0  0  0  0  0  0  0  0
  -28.6691  -25.9291   23.2044 C   0  0  0  0  0  0  0  0  0  0  0  0
  -28.2969  -20.4370   14.4896 C   0  0  0  0  0  0  0  0  0  0  0  0
  -24.9693  -22.3742   16.3984 C   0  0  0  0  0  0  0  0  0  1  0  0
  -26.0167  -28.4308   20.4320 C   0  0  1  0  0  0  0  0  0  0  0  0
  -29.5331  -27.6489   21.6123 C   0  0  2  0  0  0  0  0  0  0  0  0
  -32.0595  -22.5777   11.9445 C   0  0  0  0  0  0  0  0  0  0  0  0
  -25.6613  -29.8357   19.8684 C   0  0  0  0  0  0  0  0  0  0  0  0
  -27.0872  -18.7025   20.1926 N   0  0  0  0  0  0  0  0  0  0  0  0
  -28.4058  -18.9578   20.2399 N   0  0  0  0  0  0  0  0  0  0  0  0
  -24.3422  -26.7234   21.0680 N   0  0  0  0  0  0  0  0  0  0  0  0
  -28.4849  -22.5452   18.9330 N   0  0  0  0  0  0  0  0  0  0  0  0
  -30.5190  -17.9307   20.5401 N   0  0  0  0  0  0  0  0  0  0  0  0
  -28.7357  -14.9856   22.1342 N   0  0  0  0  0  0  0  0  0  0  0  0
  -28.7866  -22.3257   16.6043 N   0  0  0  0  0  0  0  0  0  0  0  0
  -21.2142  -27.6771   21.8901 N   0  0  0  0  0  0  0  0  0  0  0  0
  -27.2975  -28.3728   21.1280 N   0  0  0  0  0  0  0  0  0  0  0  0
  -27.0928  -20.7600   13.6415 N   0  3  2  0  0  0  0  0  0  0  0  0
  -29.7915  -26.3733   22.3383 N   0  3  0  0  0  0  0  0  0  0  0  0
  -28.9014  -14.6346   19.8741 O   0  0  0  0  0  0  0  0  0  0  0  0
  -21.7042  -26.3580   20.0347 O   0  0  0  0  0  0  0  0  0  0  0  0
  -24.7561  -28.5650   22.4368 O   0  0  0  0  0  0  0  0  0  0  0  0
  -28.2412  -26.7325   19.7879 O   0  0  0  0  0  0  0  0  0  0  0  0
  -29.2916  -24.3156   17.6845 O   0  0  0  0  0  0  0  0  0  0  0  0
  -22.0780  -14.7809   20.4789 O   0  0  0  0  0  0  0  0  0  0  0  0
  -24.2629  -21.7245   17.4545 O   0  0  0  0  0  0  0  0  0  1  0  0
  -22.0717   -9.2828   20.0612 F   0  0  0  0  0  0  0  0  0  0  0  0
  -20.7739  -13.5184   18.3937 F   0  0  0  0  0  0  0  0  0  0  0  0
  -32.9932  -23.5711   12.0150 F   0  0  0  0  0  0  0  0  0  0  0  0
  -32.7682  -21.4369   11.7007 F   0  0  0  0  0  0  0  0  0  0  0  0
  -31.3493  -22.8205   10.8055 F   0  0  0  0  0  0  0  0  0  0  0  0
  1  2  1  0  0  0  0
  1  5  2  0  0  0  0
  2  6  2  0  0  0  0
  3 10  2  0  0  0  0
  3 17  1  0  0  0  0
  4 11  1  0  0  0  0
  4 17  2  0  0  0  0
  5 19  1  0  0  0  0
  6 21  1  0  0  0  0
  7 12  2  0  0  0  0
  7 20  1  0  0  0  0
  8  9  1  0  0  0  0
  8 23  2  0  0  0  0
  9 26  2  0  0  0  0
 10 27  1  0  0  0  0
 11 27  2  0  0  0  0
 12 28  1  0  0  0  0
 13 14  2  0  0  0  0
 13 29  1  0  0  0  0
 14 30  1  0  0  0  0
 15 22  1  0  0  0  0
 15 28  2  0  0  0  0
 16 30  2  0  0  0  0
 16 31  1  0  0  0  0
 17 32  1  0  0  0  0
 18 32  1  0  0  0  0
 18 33  2  0  0  0  0
 18 36  1  0  0  0  0
 19 21  2  0  0  0  0
 19 41  1  0  0  0  0
 20 22  2  0  0  0  0
 20 42  1  0  0  0  0
 21 54  1  0  0  0  0
 22 43  1  0  0  0  0
 23 24  1  0  0  0  0
 23 68  1  0  0  0  0
 24 25  2  0  0  0  0
 24 58  1  0  0  0  0
 25 26  1  0  0  0  0
 25 64  1  0  0  0  0
 26 76  1  0  0  0  0
 27 86  1  0  0  0  0
 28 87  1  0  0  0  0
 29 31  2  0  0  0  0
 29 86  1  0  0  0  0
 30 88  1  0  0  0  0
 31 89  1  0  0  0  0
 32 70  2  0  0  0  0
 33 71  1  0  0  0  0
 33 74  1  0  0  0  0
 34 35  2  0  0  0  0
 34 55  1  0  0  0  0
 34 79  1  0  0  0  0
 36 75  1  0  0  0  0
 36 81  2  0  0  0  0
 37 56  1  0  0  0  0
 37 77  1  0  0  0  0
 37 82  2  0  0  0  0
 38 66  1  0  0  0  0
 38 72  1  0  0  0  0
 38 83  2  0  0  0  0
 39 67  1  0  0  0  0
 39 78  1  0  0  0  0
 39 84  2  0  0  0  0
 40 73  1  0  0  0  0
 40 76  1  0  0  0  0
 40 85  2  0  0  0  0
 41 44  1  0  0  0  0
 42 56  1  0  0  0  0
 43 72  1  0  0  0  0
 44 48  1  0  0  0  0
 45 47  1  0  0  0  0
 45 49  1  0  0  0  0
 46 50  1  0  0  0  0
 46 51  1  0  0  0  0
 47 53  1  0  0  0  0
 48 54  1  0  0  0  0
 49 55  1  0  0  0  0
 50 57  1  0  0  0  0
 51 73  1  0  0  0  0
 52 57  1  0  0  0  0
 52 73  1  0  0  0  0
 53 79  1  0  0  0  0
 54 77  1  0  0  0  0
 55 65  1  0  0  0  0
 56 72  1  0  0  0  0
 57 71  1  0  0  0  0
 59 67  1  0  0  0  0
 60 69  1  0  0  0  0
 61 69  1  0  0  0  0
 62 69  1  0  0  0  0
 63 80  1  0  0  0  0
 64 79  1  0  0  0  0
 65 87  1  0  0  0  0
 66 69  1  0  0  0  0
 66 78  1  0  0  0  0
 67 80  1  0  0  0  0
 68 90  1  0  0  0  0
 68 91  1  0  0  0  0
 68 92  1  0  0  0  0
 70 71  1  0  0  0  0
M  CHG  2  79   1  80   1
M  ISO  4  40 100  65 101  76 100  87 101
M  END
> <Batch ID>
0035

> <Smiles>
C=C1C([101CH2:1][101O:1]c2ccc3c(c2)CN(C(=O)C(NC(=O)C(C)NC)C(C)(C)C)C(C(=O)NC2CCCc4ccccc42)C3)CCCCN1Cc1c([100NH:0][100C:0](=O)N2CCCC(n3nc(-c4ccc(Oc5ccc(F)cc5F)cc4)c(C(N)=O)c3N)C2)ccc(C(F)(F)F)c1C

> <Shape>
0.221

> <Color>
0.060

> <Negative vol penalty>
0.000

$$$$

  -OEChem-04042321513D

 87 96  0     1  0  0  0  0  0999 V2000
  -25.2185  -33.9738   20.2309 C   0  0  0  0  0  0  0  0  0  0  0  0
  -25.7590  -33.0922   19.3017 C   0  0  0  0  0  0  0  0  0  0  0  0
  -23.3085  -10.2146   22.2377 C   0  0  0  0  0  0  0  0  0  0  0  0
  -23.6032   -9.5275   19.9403 C   0  0  0  0  0  0  0  0  0  0  0  0
  -25.6232  -33.9115   21.5626 C   0  0  0  0  0  0  0  0  0  0  0  0
  -26.6955  -32.1402   19.7061 C   0  0  0  0  0  0  0  0  0  0  0  0
  -31.4794  -25.4024   20.7639 C   0  0  0  0  0  0  0  0  0  0  0  0
  -22.5642   -9.0616   22.4871 C   0  0  0  0  0  0  0  0  0  0  0  0
  -22.8589   -8.3744   20.1897 C   0  0  0  0  0  0  0  0  0  0  0  0
  -32.0194  -24.7468   21.8695 C   0  0  0  0  0  0  0  0  0  0  0  0
  -19.4141   -7.9643   21.9416 C   0  0  0  0  0  0  0  0  0  0  0  0
  -18.2305   -8.1021   22.6666 C   0  0  0  0  0  0  0  0  0  0  0  0
  -29.9654  -25.1108   23.0809 C   0  0  0  0  0  0  0  0  0  0  0  0
  -32.0590  -16.5925   22.5290 C   0  0  0  0  0  0  0  0  0  0  0  0
  -30.5169  -18.3561   24.0437 C   0  0  0  0  0  0  0  0  0  0  0  0
  -19.0957   -6.6140   24.3619 C   0  0  0  0  0  0  0  0  0  0  0  0
  -23.8279  -10.4476   20.9642 C   0  0  0  0  0  0  0  0  0  0  0  0
  -24.1679  -12.9729   20.8413 C   0  0  0  0  0  0  0  0  0  0  0  0
  -26.5744  -32.9662   21.9803 C   0  0  0  0  0  0  0  0  0  0  0  0
  -30.1801  -25.9276   20.8123 C   0  0  0  0  0  0  0  0  0  0  0  0
  -27.0990  -32.0457   21.0503 C   0  0  0  0  0  0  0  0  0  0  0  0
  -29.4103  -25.7704   21.9737 C   0  0  0  0  0  0  0  0  0  0  0  0
  -32.6762  -17.4684   23.4220 C   0  0  0  0  0  0  0  0  0  0  0  0
  -31.9052  -18.3502   24.1794 C   0  0  0  0  0  0  0  0  0  0  0  0
  -30.6708  -16.5985   22.3932 C   0  0  0  0  0  0  0  0  0  0  0  0
  -22.3394   -8.1415   21.4631 C   0  0  0  0  0  0  0  0  0  0  0  0
  -31.2634  -24.6035   23.0292 C   0  0  0  0  0  0  0  0  0  0  0  0
  -20.4386   -7.1513   22.4267 C   0  0  0  0  0  0  0  0  0  0  0  0
  -18.0713   -7.4270   23.8767 C   0  0  0  0  0  0  0  0  0  0  0  0
  -20.2793   -6.4762   23.6369 C   0  0  0  0  0  0  0  0  0  0  0  0
  -29.8997  -17.4803   23.1506 C   0  0  0  0  0  0  0  0  0  0  0  0
  -24.5964  -11.6387   20.7058 C   0  0  0  0  0  0  0  0  0  0  0  0
  -25.2599  -13.7227   20.4783 C   0  0  0  0  0  0  0  0  0  0  0  0
  -32.0237  -21.5975   24.4187 C   0  0  0  0  0  0  0  0  0  0  0  0
  -22.8965  -13.4882   21.2580 C   0  0  0  0  0  0  0  0  0  0  0  0
  -28.9264  -28.8381   20.5655 C   0  0  0  0  0  0  0  0  0  0  0  0
  -26.1203  -27.2135   20.6614 C   0  0  0  0  0  0  0  0  0  0  0  0
  -24.7495  -24.4322   22.5061 C   0  0  0  0  0  0  0  0  0  0  0  0
  -30.7250  -14.7729   20.6581 C   0  0  0  0  0  0  0  0  0  0  0  0
  -26.9708  -32.9376   23.4354 C   0  0  0  0  0  0  0  0  0  0  0  0
  -29.6024  -26.6086   19.6020 C   0  0  0  0  0  0  0  0  0  0  0  0
  -28.0029  -26.2983   22.0698 C   0  0  0  0  0  0  0  0  0  0  0  0
  -28.2832  -32.1998   23.6797 C   0  0  0  0  0  0  0  0  0  0  0  0
  -29.9894  -21.7931   26.5189 C   0  0  0  0  0  0  0  0  0  0  0  0
  -29.6154  -12.3550   18.2917 C   0  0  0  0  0  0  0  0  0  0  0  0
  -28.2577  -30.8487   22.9809 C   0  0  0  0  0  0  0  0  0  0  0  0
  -30.6514  -23.0494   25.9927 C   0  0  0  0  0  0  0  0  0  0  0  0
  -28.1754  -12.0629   18.7200 C   0  0  0  0  0  0  0  0  0  0  0  0
  -30.9879  -20.6495   26.5140 C   0  0  0  0  0  0  0  0  0  0  0  0
  -30.5289  -12.5862   19.4942 C   0  0  0  0  0  0  0  0  0  0  0  0
  -28.6197  -13.3110   20.8722 C   0  0  0  0  0  0  0  0  0  0  0  0
  -28.1418  -31.0219   21.4612 C   0  0  1  0  0  0  0  0  0  0  0  0
  -31.1094  -22.8069   24.5680 C   0  0  1  0  0  0  0  0  0  1  0  0
  -28.4552  -27.5558   19.9399 C   0  0  1  0  0  0  0  0  0  0  0  0
  -27.6484  -13.1354   19.6934 C   0  0  2  0  0  0  0  0  0  0  0  0
  -34.1643  -17.4461   23.5475 C   0  0  0  0  0  0  0  0  0  0  0  0
  -22.9584  -22.7876   21.8863 C   0  0  0  0  0  0  0  0  0  0  0  0
  -24.2543  -29.1359   22.1218 C   0  0  0  0  0  0  0  0  0  0  0  0
  -23.0224  -27.1491   23.0180 C   0  0  0  0  0  0  0  0  0  0  0  0
  -23.1086  -27.5556   20.5583 C   0  0  0  0  0  0  0  0  0  0  0  0
  -26.5328  -22.1243   23.0084 C   0  0  0  0  0  0  0  0  0  0  0  0
  -32.5472  -19.3022   25.1467 C   0  0  0  0  0  0  0  0  0  0  0  0
  -25.1867  -26.7562   21.7560 C   0  0  1  0  0  0  0  0  0  0  0  0
  -24.4552  -23.0428   21.9699 C   0  0  2  0  0  0  0  0  0  0  0  0
  -23.9209  -27.6522   21.8681 C   0  0  0  0  0  0  0  0  0  0  0  0
  -25.8618  -11.5434   20.2892 N   0  0  0  0  0  0  0  0  0  0  0  0
  -26.2378  -12.8271   20.1596 N   0  0  0  0  0  0  0  0  0  0  0  0
  -31.7814  -20.5333   25.2894 N   0  0  0  0  0  0  0  0  0  0  0  0
  -27.4850  -26.9621   20.8621 N   0  0  0  0  0  0  0  0  0  0  0  0
  -29.9680  -13.6177   20.3695 N   0  0  0  0  0  0  0  0  0  0  0  0
  -25.4693  -15.0543   20.4038 N   0  0  0  0  0  0  0  0  0  0  0  0
  -21.8849  -12.5787   21.5953 N   0  0  0  0  0  0  0  0  0  0  0  0
  -30.0760  -15.6985   21.4745 N   0  0  0  0  0  0  0  0  0  0  0  0
  -27.9108  -29.7293   20.8549 N   0  0  0  0  0  0  0  0  0  0  0  0
  -24.9020  -25.3505   21.4888 N   0  0  0  0  0  0  0  0  0  0  0  0
  -25.0598  -22.0073   22.8548 N   0  3  0  0  0  0  0  0  0  0  0  0
  -32.8717  -21.5751   23.5229 O   0  0  0  0  0  0  0  0  0  0  0  0
  -22.6592  -14.7187   21.3134 O   0  0  0  0  0  0  0  0  0  0  0  0
  -30.1226  -29.0059   20.7717 O   0  0  0  0  0  0  0  0  0  0  0  0
  -25.6552  -27.7669   19.6619 O   0  0  0  0  0  0  0  0  0  0  0  0
  -24.8320  -24.6790   23.7072 O   0  0  0  0  0  0  0  0  0  0  0  0
  -31.8546  -14.9419   20.1916 O   0  0  0  0  0  0  0  0  0  0  0  0
  -21.6134   -7.0162   21.7062 O   0  0  0  0  0  0  0  0  0  0  0  0
  -31.7883  -23.9646   24.1100 O   0  0  0  0  0  0  0  0  0  1  0  0
  -16.9352   -7.5606   24.5736 F   0  0  0  0  0  0  0  0  0  0  0  0
  -21.2604   -5.6947   24.1086 F   0  0  0  0  0  0  0  0  0  0  0  0
  -28.1777  -17.5204   23.0141 Cl  0  0  0  0  0  0  0  0  0  0  0  0
  1  2  1  0  0  0  0
  1  5  2  0  0  0  0
  2  6  2  0  0  0  0
  3  8  2  0  0  0  0
  3 17  1  0  0  0  0
  4  9  1  0  0  0  0
  4 17  2  0  0  0  0
  5 19  1  0  0  0  0
  6 21  1  0  0  0  0
  7 10  2  0  0  0  0
  7 20  1  0  0  0  0
  8 26  1  0  0  0  0
  9 26  2  0  0  0  0
 10 27  1  0  0  0  0
 11 12  2  0  0  0  0
 11 28  1  0  0  0  0
 12 29  1  0  0  0  0
 13 22  1  0  0  0  0
 13 27  2  0  0  0  0
 14 23  1  0  0  0  0
 14 25  2  0  0  0  0
 15 24  1  0  0  0  0
 15 31  2  0  0  0  0
 16 29  2  0  0  0  0
 16 30  1  0  0  0  0
 17 32  1  0  0  0  0
 18 32  1  0  0  0  0
 18 33  2  0  0  0  0
 18 35  1  0  0  0  0
 19 21  2  0  0  0  0
 19 40  1  0  0  0  0
 20 22  2  0  0  0  0
 20 41  1  0  0  0  0
 21 52  1  0  0  0  0
 22 42  1  0  0  0  0
 23 24  2  0  0  0  0
 23 56  1  0  0  0  0
 24 62  1  0  0  0  0
 25 31  1  0  0  0  0
 25 73  1  0  0  0  0
 26 83  1  0  0  0  0
 27 84  1  0  0  0  0
 28 30  2  0  0  0  0
 28 83  1  0  0  0  0
 29 85  1  0  0  0  0
 30 86  1  0  0  0  0
 31 87  1  0  0  0  0
 32 66  2  0  0  0  0
 33 67  1  0  0  0  0
 33 71  1  0  0  0  0
 34 53  1  0  0  0  0
 34 68  1  0  0  0  0
 34 77  2  0  0  0  0
 35 72  1  0  0  0  0
 35 78  2  0  0  0  0
 36 54  1  0  0  0  0
 36 74  1  0  0  0  0
 36 79  2  0  0  0  0
 37 63  1  0  0  0  0
 37 69  1  0  0  0  0
 37 80  2  0  0  0  0
 38 64  1  0  0  0  0
 38 75  1  0  0  0  0
 38 81  2  0  0  0  0
 39 70  1  0  0  0  0
 39 73  1  0  0  0  0
 39 82  2  0  0  0  0
 40 43  1  0  0  0  0
 41 54  1  0  0  0  0
 42 69  1  0  0  0  0
 43 46  1  0  0  0  0
 44 47  1  0  0  0  0
 44 49  1  0  0  0  0
 45 48  1  0  0  0  0
 45 50  1  0  0  0  0
 46 52  1  0  0  0  0
 47 53  1  0  0  0  0
 48 55  1  0  0  0  0
 49 68  1  0  0  0  0
 50 70  1  0  0  0  0
 51 55  1  0  0  0  0
 51 70  1  0  0  0  0
 52 74  1  0  0  0  0
 53 84  1  0  0  0  0
 54 69  1  0  0  0  0
 55 67  1  0  0  0  0
 57 64  1  0  0  0  0
 58 65  1  0  0  0  0
 59 65  1  0  0  0  0
 60 65  1  0  0  0  0
 61 76  1  0  0  0  0
 62 68  1  0  0  0  0
 63 65  1  0  0  0  0
 63 75  1  0  0  0  0
 64 76  1  0  0  0  0
 66 67  1  0  0  0  0
M  CHG  1  76   1
M  ISO  4  39 100  53 101  73 100  84 101
M  END
> <Batch ID>
0035

> <Smiles>
CNC(C)C(=O)NC(C(=O)N1Cc2cc([101O:1][101CH:1]3CCCN(Cc4cc(Cl)c([100NH:0][100C:0](=O)N5CCCC(n6nc(-c7ccc(Oc8ccc(F)cc8F)cc7)c(C(N)=O)c6N)C5)cc4C)C3=O)ccc2CC1C(=O)NC1CCCc2ccccc21)C(C)(C)C

> <Shape>
0.247

> <Color>
0.191

> <Negative vol penalty>
0.000

$$$$

  -OEChem-04042321513D

 92101  0     1  0  0  0  0  0999 V2000
  -18.4361  -29.8187   22.5144 C   0  0  0  0  0  0  0  0  0  0  0  0
  -19.5790  -29.0277   22.5732 C   0  0  0  0  0  0  0  0  0  0  0  0
  -22.9628  -10.0497   19.9052 C   0  0  0  0  0  0  0  0  0  0  0  0
  -23.8546   -9.8502   22.1417 C   0  0  0  0  0  0  0  0  0  0  0  0
  -17.1974  -29.2336   22.2552 C   0  0  0  0  0  0  0  0  0  0  0  0
  -19.4837  -27.6509   22.3738 C   0  0  0  0  0  0  0  0  0  0  0  0
  -23.1002  -25.8776   19.3043 C   0  0  0  0  0  0  0  0  0  0  0  0
  -22.1958   -8.9027   20.1087 C   0  0  0  0  0  0  0  0  0  0  0  0
  -23.0875   -8.7031   22.3452 C   0  0  0  0  0  0  0  0  0  0  0  0
  -24.3706  -25.7032   19.8514 C   0  0  0  0  0  0  0  0  0  0  0  0
  -19.3114   -8.0793   21.6693 C   0  0  0  0  0  0  0  0  0  0  0  0
  -17.9777   -8.1106   21.2621 C   0  0  0  0  0  0  0  0  0  0  0  0
  -23.9353  -23.3429   20.0942 C   0  0  0  0  0  0  0  0  0  0  0  0
  -31.6800  -18.3150   20.1788 C   0  0  0  0  0  0  0  0  0  0  0  0
  -29.5340  -18.5452   21.2644 C   0  0  0  0  0  0  0  0  0  0  0  0
  -18.3929   -6.2643   19.7601 C   0  0  0  0  0  0  0  0  0  0  0  0
  -23.7923  -10.5235   20.9217 C   0  0  0  0  0  0  0  0  0  0  0  0
  -24.2126  -13.0390   20.9795 C   0  0  0  0  0  0  0  0  0  0  0  0
  -17.0883  -27.8502   22.0429 C   0  0  0  0  0  0  0  0  0  0  0  0
  -22.2322  -24.7860   19.1579 C   0  0  0  0  0  0  0  0  0  0  0  0
  -18.2422  -27.0466   22.1128 C   0  0  0  0  0  0  0  0  0  0  0  0
  -22.6553  -23.5058   19.5426 C   0  0  0  0  0  0  0  0  0  0  0  0
  -30.7433  -17.8673   21.1103 C   0  0  0  0  0  0  0  0  0  0  0  0
  -31.4076  -19.4408   19.4015 C   0  0  0  0  0  0  0  0  0  0  0  0
  -30.1983  -20.1187   19.5556 C   0  0  0  0  0  0  0  0  0  0  0  0
  -22.2581   -8.2293   21.3287 C   0  0  0  0  0  0  0  0  0  0  0  0
  -24.7873  -24.4362   20.2491 C   0  0  0  0  0  0  0  0  0  0  0  0
  -20.1859   -7.1405   21.1218 C   0  0  0  0  0  0  0  0  0  0  0  0
  -17.5184   -7.2032   20.3076 C   0  0  0  0  0  0  0  0  0  0  0  0
  -19.7266   -6.2330   20.1673 C   0  0  0  0  0  0  0  0  0  0  0  0
  -29.2615  -19.6710   20.4871 C   0  0  0  0  0  0  0  0  0  0  0  0
  -24.5853  -11.7081   20.7119 C   0  0  0  0  0  0  0  0  0  0  0  0
  -25.3068  -13.7827   20.6104 C   0  0  0  0  0  0  0  0  0  0  0  0
  -22.9870  -13.5567   21.5139 C   0  0  0  0  0  0  0  0  0  0  0  0
  -19.3757  -24.0195   20.3226 C   0  0  0  0  0  0  0  0  0  0  0  0
  -19.6436  -21.5186   18.2741 C   0  0  0  0  0  0  0  0  0  0  0  0
  -28.4812  -23.2200   19.5095 C   0  0  0  0  0  0  0  0  0  0  0  0
  -21.6790  -19.4453   16.4836 C   0  0  0  0  0  0  0  0  0  0  0  0
  -30.8238  -14.6215   20.5449 C   0  0  0  0  0  0  0  0  0  0  0  0
  -15.7210  -27.2568   21.8127 C   0  0  0  0  0  0  0  0  0  0  0  0
  -20.8750  -24.9864   18.5412 C   0  0  0  0  0  0  0  0  0  0  0  0
  -21.7691  -22.2978   19.3878 C   0  0  0  0  0  0  0  0  0  0  0  0
  -15.7595  -25.8416   21.2416 C   0  0  0  0  0  0  0  0  0  0  0  0
  -29.4685  -12.4708   18.0520 C   0  0  0  0  0  0  0  0  0  0  0  0
  -32.2420  -17.9298   15.2944 C   0  0  0  0  0  0  0  0  0  0  0  0
  -33.4502  -18.8359   15.1685 C   0  0  0  0  0  0  0  0  0  0  0  0
  -16.7644  -24.9850   22.0051 C   0  0  0  0  0  0  0  0  0  0  0  0
  -28.0494  -12.1857   18.5470 C   0  0  0  0  0  0  0  0  0  0  0  0
  -30.4609  -12.5674   19.2086 C   0  0  0  0  0  0  0  0  0  0  0  0
  -28.6691  -13.2405   20.7611 C   0  0  0  0  0  0  0  0  0  0  0  0
  -31.8533  -18.0983   16.7475 C   0  0  0  0  0  0  0  0  0  0  0  0
  -33.0713  -20.0692   15.9696 C   0  0  0  0  0  0  0  0  0  0  0  0
  -18.1831  -25.5529   21.8773 C   0  0  1  0  0  0  0  0  0  0  0  0
  -19.8817  -23.8900   18.9137 C   0  0  1  0  0  0  0  0  0  0  0  0
  -27.6227  -13.1898   19.6347 C   0  0  2  0  0  0  0  0  0  0  0  0
  -21.6093  -17.4733   14.9333 C   0  0  0  0  0  0  0  0  0  0  0  0
  -19.0779  -19.6798   20.6424 C   0  0  0  0  0  0  0  0  0  0  0  0
  -19.9467  -17.7694   19.2772 C   0  0  0  0  0  0  0  0  0  0  0  0
  -17.9309  -19.0275   18.5180 C   0  0  0  0  0  0  0  0  0  0  0  0
  -30.8222  -22.9324   20.3510 C   0  0  0  0  0  0  0  0  0  0  0  0
  -22.9553  -20.9742   14.2944 C   0  0  0  0  0  0  0  0  0  0  0  0
  -31.0349  -16.6629   21.9403 C   0  0  0  0  0  0  0  0  0  0  0  0
  -29.9210  -21.3290   18.7116 C   0  0  0  0  0  0  0  0  0  0  0  0
  -32.4298  -19.8986   18.4128 C   0  0  0  0  0  0  0  0  0  0  0  0
  -28.4007  -24.4451   20.4145 C   0  0  0  0  0  0  0  0  0  0  0  0
  -27.0530  -25.1524   20.3458 C   0  0  0  0  0  0  0  0  0  1  0  0
  -20.2055  -20.1202   18.3619 C   0  0  1  0  0  0  0  0  0  0  0  0
  -21.6312  -18.9904   15.0362 C   0  0  2  0  0  0  0  0  0  0  0  0
  -19.3065  -19.1721   19.2047 C   0  0  0  0  0  0  0  0  0  0  0  0
  -25.8197  -11.6089   20.2114 N   0  0  0  0  0  0  0  0  0  0  0  0
  -26.2321  -12.8870   20.1614 N   0  0  0  0  0  0  0  0  0  0  0  0
  -20.4489  -22.5461   18.7855 N   0  0  0  0  0  0  0  0  0  0  0  0
  -29.9983  -13.5372   20.2043 N   0  0  0  0  0  0  0  0  0  0  0  0
  -25.5579  -15.1090   20.6294 N   0  0  0  0  0  0  0  0  0  0  0  0
  -21.9660  -12.6536   21.8396 N   0  0  0  0  0  0  0  0  0  0  0  0
  -18.7459  -25.2209   20.5860 N   0  0  0  0  0  0  0  0  0  0  0  0
  -20.4169  -19.6781   16.9878 N   0  0  0  0  0  0  0  0  0  0  0  0
  -30.3067  -15.4969   21.4920 N   0  0  0  0  0  0  0  0  0  0  0  0
  -29.6940  -22.5220   19.5241 N   0  0  0  0  0  0  0  0  0  0  0  0
  -32.0709  -19.5744   16.9983 N   0  3  0  0  0  0  0  0  0  0  0  0
  -22.8218  -19.4946   14.2952 N   0  3  0  0  0  0  0  0  0  0  0  0
  -22.7967  -14.7851   21.6817 O   0  0  0  0  0  0  0  0  0  0  0  0
  -19.5429  -23.0970   21.1117 O   0  0  0  0  0  0  0  0  0  0  0  0
  -18.5343  -21.6936   17.7639 O   0  0  0  0  0  0  0  0  0  0  0  0
  -27.5161  -22.8877   18.8165 O   0  0  0  0  0  0  0  0  0  0  0  0
  -22.7305  -19.5771   17.1061 O   0  0  0  0  0  0  0  0  0  0  0  0
  -31.9368  -14.7993   20.0383 O   0  0  0  0  0  0  0  0  0  0  0  0
  -21.5096   -7.1101   21.5277 O   0  0  0  0  0  0  0  0  0  0  0  0
  -26.0266  -24.2632   20.7841 O   0  0  0  0  0  0  0  0  0  1  0  0
  -16.2372   -7.2324   19.9178 F   0  0  0  0  0  0  0  0  0  0  0  0
  -20.5617   -5.3281   19.6386 F   0  0  0  0  0  0  0  0  0  0  0  0
  -27.7528  -20.4814   20.7064 Cl  0  0  0  0  0  0  0  0  0  0  0  0
  1  2  1  0  0  0  0
  1  5  2  0  0  0  0
  2  6  2  0  0  0  0
  3  8  2  0  0  0  0
  3 17  1  0  0  0  0
  4  9  1  0  0  0  0
  4 17  2  0  0  0  0
  5 19  1  0  0  0  0
  6 21  1  0  0  0  0
  7 10  2  0  0  0  0
  7 20  1  0  0  0  0
  8 26  1  0  0  0  0
  9 26  2  0  0  0  0
 10 27  1  0  0  0  0
 11 12  2  0  0  0  0
 11 28  1  0  0  0  0
 12 29  1  0  0  0  0
 13 22  1  0  0  0  0
 13 27  2  0  0  0  0
 14 23  2  0  0  0  0
 14 24  1  0  0  0  0
 15 23  1  0  0  0  0
 15 31  2  0  0  0  0
 16 29  2  0  0  0  0
 16 30  1  0  0  0  0
 17 32  1  0  0  0  0
 18 32  1  0  0  0  0
 18 33  2  0  0  0  0
 18 34  1  0  0  0  0
 19 21  2  0  0  0  0
 19 40  1  0  0  0  0
 20 22  2  0  0  0  0
 20 41  1  0  0  0  0
 21 53  1  0  0  0  0
 22 42  1  0  0  0  0
 23 62  1  0  0  0  0
 24 25  2  0  0  0  0
 24 64  1  0  0  0  0
 25 31  1  0  0  0  0
 25 63  1  0  0  0  0
 26 88  1  0  0  0  0
 27 89  1  0  0  0  0
 28 30  2  0  0  0  0
 28 88  1  0  0  0  0
 29 90  1  0  0  0  0
 30 91  1  0  0  0  0
 31 92  1  0  0  0  0
 32 70  2  0  0  0  0
 33 71  1  0  0  0  0
 33 74  1  0  0  0  0
 34 75  1  0  0  0  0
 34 82  2  0  0  0  0
 35 54  1  0  0  0  0
 35 76  1  0  0  0  0
 35 83  2  0  0  0  0
 36 67  1  0  0  0  0
 36 72  1  0  0  0  0
 36 84  2  0  0  0  0
 37 65  1  0  0  0  0
 37 79  1  0  0  0  0
 37 85  2  0  0  0  0
 38 68  1  0  0  0  0
 38 77  1  0  0  0  0
 38 86  2  0  0  0  0
 39 73  1  0  0  0  0
 39 78  1  0  0  0  0
 39 87  2  0  0  0  0
 40 43  1  0  0  0  0
 41 54  1  0  0  0  0
 42 72  1  0  0  0  0
 43 47  1  0  0  0  0
 44 48  1  0  0  0  0
 44 49  1  0  0  0  0
 45 46  1  0  0  0  0
 45 51  1  0  0  0  0
 46 52  1  0  0  0  0
 47 53  1  0  0  0  0
 48 55  1  0  0  0  0
 49 73  1  0  0  0  0
 50 55  1  0  0  0  0
 50 73  1  0  0  0  0
 51 80  1  0  0  0  0
 52 80  1  0  0  0  0
 53 76  1  0  0  0  0
 54 72  1  0  0  0  0
 55 71  1  0  0  0  0
 56 68  1  0  0  0  0
 57 69  1  0  0  0  0
 58 69  1  0  0  0  0
 59 69  1  0  0  0  0
 60 79  1  0  0  0  0
 61 81  1  0  0  0  0
 62 78  1  0  0  0  0
 63 79  1  0  0  0  0
 64 80  1  0  0  0  0
 65 66  1  0  0  0  0
 66 89  1  0  0  0  0
 67 69  1  0  0  0  0
 67 77  1  0  0  0  0
 68 81  1  0  0  0  0
 70 71  1  0  0  0  0
M  CHG  2  80   1  81   1
M  ISO  4  39 100  66 101  78 100  89 101
M  END
> <Batch ID>
0035

> <Smiles>
CNC(C)C(=O)NC(C(=O)N1Cc2cc([101O:1][101CH2:1]CC(=O)N(C)Cc3c(Cl)cc(C[100NH:0][100C:0](=O)N4CCCC(n5nc(-c6ccc(Oc7ccc(F)cc7F)cc6)c(C(N)=O)c5N)C4)cc3CN3CCCC3)ccc2CC1C(=O)NC1CCCc2ccccc21)C(C)(C)C

> <Shape>
0.242

> <Color>
0.186

> <Negative vol penalty>
0.000

$$$$

  -OEChem-04042321513D

 88 97  0     1  0  0  0  0  0999 V2000
  -27.7959  -24.4297   17.3460 C   0  0  0  0  0  0  0  0  0  0  0  0
  -26.6050  -24.7549   17.9873 C   0  0  0  0  0  0  0  0  0  0  0  0
  -27.7644  -14.6829   19.1553 C   0  0  0  0  0  0  0  0  0  0  0  0
  -25.8134  -15.8518   18.3402 C   0  0  0  0  0  0  0  0  0  0  0  0
  -29.0110  -24.8691   17.8698 C   0  0  0  0  0  0  0  0  0  0  0  0
  -26.6285  -25.5189   19.1536 C   0  0  0  0  0  0  0  0  0  0  0  0
  -23.1287  -29.1790   19.1492 C   0  0  0  0  0  0  0  0  0  0  0  0
  -27.2667  -13.4887   18.6340 C   0  0  0  0  0  0  0  0  0  0  0  0
  -25.3157  -14.6576   17.8188 C   0  0  0  0  0  0  0  0  0  0  0  0
  -21.8154  -28.8045   19.4297 C   0  0  0  0  0  0  0  0  0  0  0  0
  -25.8406  -12.7178   15.1018 C   0  0  0  0  0  0  0  0  0  0  0  0
  -25.3156  -12.7455   13.8098 C   0  0  0  0  0  0  0  0  0  0  0  0
  -22.0864  -29.5760   21.6991 C   0  0  0  0  0  0  0  0  0  0  0  0
  -21.1035  -22.6599   23.4631 C   0  0  0  0  0  0  0  0  0  0  0  0
  -23.1775  -12.0122   14.6631 C   0  0  0  0  0  0  0  0  0  0  0  0
  -27.0376  -15.8645   19.0085 C   0  0  0  0  0  0  0  0  0  0  0  0
  -28.3811  -18.0302   18.8961 C   0  0  0  0  0  0  0  0  0  0  0  0
  -29.0488  -25.6470   19.0378 C   0  0  0  0  0  0  0  0  0  0  0  0
  -23.9356  -29.7458   20.1463 C   0  0  0  0  0  0  0  0  0  0  0  0
  -27.8453  -25.9680   19.6943 C   0  0  0  0  0  0  0  0  0  0  0  0
  -23.4088  -29.9592   21.4281 C   0  0  0  0  0  0  0  0  0  0  0  0
  -21.3887  -24.0078   23.6808 C   0  0  0  0  0  0  0  0  0  0  0  0
  -22.1392  -21.7270   23.4134 C   0  0  0  0  0  0  0  0  0  0  0  0
  -22.7098  -24.4228   23.8487 C   0  0  0  0  0  0  0  0  0  0  0  0
  -23.7456  -23.4899   23.7990 C   0  0  0  0  0  0  0  0  0  0  0  0
  -23.4603  -22.1420   23.5814 C   0  0  0  0  0  0  0  0  0  0  0  0
  -26.0425  -13.4761   17.9657 C   0  0  0  0  0  0  0  0  0  0  0  0
  -21.2949  -29.0003   20.7055 C   0  0  0  0  0  0  0  0  0  0  0  0
  -25.0341  -12.3372   16.1744 C   0  0  0  0  0  0  0  0  0  0  0  0
  -23.9840  -12.3928   13.5905 C   0  0  0  0  0  0  0  0  0  0  0  0
  -23.7026  -11.9845   15.9550 C   0  0  0  0  0  0  0  0  0  0  0  0
  -27.5509  -17.0983   19.5474 C   0  0  0  0  0  0  0  0  0  0  0  0
  -28.5836  -19.0193   19.8273 C   0  0  0  0  0  0  0  0  0  0  0  0
  -18.3772  -25.8840   22.4797 C   0  0  0  0  0  0  0  0  0  0  0  0
  -17.3141  -25.1224   22.7610 C   0  0  0  0  0  0  0  0  0  0  0  0
  -28.9208  -18.0041   17.5681 C   0  0  0  0  0  0  0  0  0  0  0  0
  -26.6526  -28.9176   21.5731 C   0  0  0  0  0  0  0  0  0  0  0  0
  -26.3720  -31.8452   22.9417 C   0  0  0  0  0  0  0  0  0  0  0  0
  -24.3402  -34.4206   23.8830 C   0  0  0  0  0  0  0  0  0  0  0  0
  -25.4278  -20.8956   24.5417 C   0  0  0  0  0  0  0  0  0  0  0  0
  -30.3894  -26.0592   19.5924 C   0  0  0  0  0  0  0  0  0  0  0  0
  -25.3417  -30.1690   19.8205 C   0  0  0  0  0  0  0  0  0  0  0  0
  -24.2272  -30.5825   22.5282 C   0  0  0  0  0  0  0  0  0  0  0  0
  -18.3436  -27.3430   22.1511 C   0  0  0  0  0  0  0  0  0  0  0  0
  -30.3028  -27.1803   20.6248 C   0  0  0  0  0  0  0  0  0  0  0  0
  -28.7891  -19.7216   24.5601 C   0  0  0  0  0  0  0  0  0  0  0  0
  -29.1968  -26.8916   21.6350 C   0  0  0  0  0  0  0  0  0  0  0  0
  -28.9304  -19.0057   23.2148 C   0  0  0  0  0  0  0  0  0  0  0  0
  -27.4013  -19.5208   25.1663 C   0  0  0  0  0  0  0  0  0  0  0  0
  -26.4227  -19.1499   22.9360 C   0  0  0  0  0  0  0  0  0  0  0  0
  -20.4732  -26.3463   21.6166 C   0  0  0  0  0  0  0  0  0  0  0  0
  -27.8281  -26.8158   20.9478 C   0  0  1  0  0  0  0  0  0  0  0  0
  -26.2375  -30.2643   21.0517 C   0  0  1  0  0  0  0  0  0  0  0  0
  -27.7825  -19.3769   22.2556 C   0  0  2  0  0  0  0  0  0  0  0  0
  -19.8240  -27.6690   22.0008 C   0  0  1  0  0  0  0  0  0  1  0  0
  -21.8016  -20.2899   23.1799 C   0  0  0  0  0  0  0  0  0  0  0  0
  -23.0123  -25.8693   24.0819 C   0  0  0  0  0  0  0  0  0  0  0  0
  -25.1617  -23.9406   23.9797 C   0  0  0  0  0  0  0  0  0  0  0  0
  -17.3917  -23.6684   23.0841 C   0  0  0  0  0  0  0  0  0  0  0  0
  -24.3941  -36.6603   25.0135 C   0  0  0  0  0  0  0  0  0  0  0  0
  -26.6591  -30.4687   25.6496 C   0  0  0  0  0  0  0  0  0  0  0  0
  -25.7697  -32.5485   26.7229 C   0  0  0  0  0  0  0  0  0  0  0  0
  -27.9067  -32.6258   25.4384 C   0  0  0  0  0  0  0  0  0  0  0  0
  -23.3141  -35.7929   21.4699 C   0  0  0  0  0  0  0  0  0  0  0  0
  -20.2561  -24.9904   23.7312 C   0  0  0  0  0  0  0  0  0  0  0  0
  -25.7201  -32.3824   24.1929 C   0  0  1  0  0  0  0  0  0  0  0  0
  -24.4590  -35.9211   23.6861 C   0  0  2  0  0  0  0  0  0  0  0  0
  -26.4988  -31.9928   25.4810 C   0  0  0  0  0  0  0  0  0  0  0  0
  -27.2470  -17.4627   20.7959 N   0  0  0  0  0  0  0  0  0  0  0  0
  -27.8897  -18.6346   20.9367 N   0  0  0  0  0  0  0  0  0  0  0  0
  -25.5985  -30.9736   22.1620 N   0  0  0  0  0  0  0  0  0  0  0  0
  -26.3648  -19.8968   24.2024 N   0  0  0  0  0  0  0  0  0  0  0  0
  -29.2858  -20.1718   19.7972 N   0  0  0  0  0  0  0  0  0  0  0  0
  -28.6131  -16.9137   16.7431 N   0  0  0  0  0  0  0  0  0  0  0  0
  -24.5105  -21.1919   23.5340 N   0  0  0  0  0  0  0  0  0  0  0  0
  -27.3358  -28.1446   20.6539 N   0  0  0  0  0  0  0  0  0  0  0  0
  -25.5767  -33.8204   23.9933 N   0  0  0  0  0  0  0  0  0  0  0  0
  -19.6851  -25.3005   22.3770 N   0  3  1  0  0  0  0  0  0  0  0  0
  -23.3555  -36.4185   22.8167 N   0  3  0  0  0  0  0  0  0  0  0  0
  -29.6677  -18.9126   17.1317 O   0  0  0  0  0  0  0  0  0  0  0  0
  -26.3749  -28.6038   22.7247 O   0  0  0  0  0  0  0  0  0  0  0  0
  -27.5224  -32.1919   22.6626 O   0  0  0  0  0  0  0  0  0  0  0  0
  -23.2586  -33.8395   23.9375 O   0  0  0  0  0  0  0  0  0  0  0  0
  -25.4552  -21.4668   25.6348 O   0  0  0  0  0  0  0  0  0  0  0  0
  -25.5567  -12.3110   17.4565 O   0  0  0  0  0  0  0  0  0  0  0  0
  -20.0135  -28.6350   20.9821 O   0  0  0  0  0  0  0  0  0  1  0  0
  -23.4795  -12.4209   12.3500 F   0  0  0  0  0  0  0  0  0  0  0  0
  -22.9226  -11.6192   16.9816 F   0  0  0  0  0  0  0  0  0  0  0  0
  1  2  1  0  0  0  0
  1  5  2  0  0  0  0
  2  6  2  0  0  0  0
  3  8  2  0  0  0  0
  3 16  1  0  0  0  0
  4  9  1  0  0  0  0
  4 16  2  0  0  0  0
  5 18  1  0  0  0  0
  6 20  1  0  0  0  0
  7 10  2  0  0  0  0
  7 19  1  0  0  0  0
  8 27  1  0  0  0  0
  9 27  2  0  0  0  0
 10 28  1  0  0  0  0
 11 12  2  0  0  0  0
 11 29  1  0  0  0  0
 12 30  1  0  0  0  0
 13 21  1  0  0  0  0
 13 28  2  0  0  0  0
 14 22  1  0  0  0  0
 14 23  2  0  0  0  0
 15 30  2  0  0  0  0
 15 31  1  0  0  0  0
 16 32  1  0  0  0  0
 17 32  1  0  0  0  0
 17 33  2  0  0  0  0
 17 36  1  0  0  0  0
 18 20  2  0  0  0  0
 18 41  1  0  0  0  0
 19 21  2  0  0  0  0
 19 42  1  0  0  0  0
 20 52  1  0  0  0  0
 21 43  1  0  0  0  0
 22 24  2  0  0  0  0
 22 65  1  0  0  0  0
 23 26  1  0  0  0  0
 23 56  1  0  0  0  0
 24 25  1  0  0  0  0
 24 57  1  0  0  0  0
 25 26  2  0  0  0  0
 25 58  1  0  0  0  0
 26 75  1  0  0  0  0
 27 85  1  0  0  0  0
 28 86  1  0  0  0  0
 29 31  2  0  0  0  0
 29 85  1  0  0  0  0
 30 87  1  0  0  0  0
 31 88  1  0  0  0  0
 32 69  2  0  0  0  0
 33 70  1  0  0  0  0
 33 73  1  0  0  0  0
 34 35  2  0  0  0  0
 34 44  1  0  0  0  0
 34 78  1  0  0  0  0
 35 59  1  0  0  0  0
 36 74  1  0  0  0  0
 36 80  2  0  0  0  0
 37 53  1  0  0  0  0
 37 76  1  0  0  0  0
 37 81  2  0  0  0  0
 38 66  1  0  0  0  0
 38 71  1  0  0  0  0
 38 82  2  0  0  0  0
 39 67  1  0  0  0  0
 39 77  1  0  0  0  0
 39 83  2  0  0  0  0
 40 72  1  0  0  0  0
 40 75  1  0  0  0  0
 40 84  2  0  0  0  0
 41 45  1  0  0  0  0
 42 53  1  0  0  0  0
 43 71  1  0  0  0  0
 44 55  1  0  0  0  0
 45 47  1  0  0  0  0
 46 48  1  0  0  0  0
 46 49  1  0  0  0  0
 47 52  1  0  0  0  0
 48 54  1  0  0  0  0
 49 72  1  0  0  0  0
 50 54  1  0  0  0  0
 50 72  1  0  0  0  0
 51 55  1  0  0  0  0
 51 78  1  0  0  0  0
 52 76  1  0  0  0  0
 53 71  1  0  0  0  0
 54 70  1  0  0  0  0
 55 86  1  0  0  0  0
 60 67  1  0  0  0  0
 61 68  1  0  0  0  0
 62 68  1  0  0  0  0
 63 68  1  0  0  0  0
 64 79  1  0  0  0  0
 65 78  1  0  0  0  0
 66 68  1  0  0  0  0
 66 77  1  0  0  0  0
 67 79  1  0  0  0  0
 69 70  1  0  0  0  0
M  CHG  2  78   1  79   1
M  ISO  4  40 100  55 101  75 100  86 101
M  END
> <Batch ID>
0035

> <Smiles>
CC=C1C[101CH:1]([101O:1]c2ccc3c(c2)CN(C(=O)C(NC(=O)C(C)NC)C(C)(C)C)C(C(=O)NC2CCCc4ccccc42)C3)CN1Cc1cc(C)c([100NH:0][100C:0](=O)N2CCCC(n3nc(-c4ccc(Oc5ccc(F)cc5F)cc4)c(C(N)=O)c3N)C2)c(C)c1C

> <Shape>
0.259

> <Color>
0.069

> <Negative vol penalty>
0.000

$$$$

  -OEChem-04042321513D

 89 98  0     1  0  0  0  0  0999 V2000
  -29.1341  -35.2499   26.6639 C   0  0  0  0  0  0  0  0  0  0  0  0
  -29.1062  -34.0011   26.0513 C   0  0  0  0  0  0  0  0  0  0  0  0
  -22.5808   -9.5896   19.8575 C   0  0  0  0  0  0  0  0  0  0  0  0
  -23.4855   -9.7669   22.0907 C   0  0  0  0  0  0  0  0  0  0  0  0
  -27.9434  -35.9357   26.9004 C   0  0  0  0  0  0  0  0  0  0  0  0
  -27.8875  -33.4371   25.6757 C   0  0  0  0  0  0  0  0  0  0  0  0
  -28.0278  -31.4239   21.0311 C   0  0  0  0  0  0  0  0  0  0  0  0
  -22.4537   -8.2099   20.0186 C   0  0  0  0  0  0  0  0  0  0  0  0
  -23.3582   -8.3872   22.2518 C   0  0  0  0  0  0  0  0  0  0  0  0
  -28.6381  -30.1778   20.8955 C   0  0  0  0  0  0  0  0  0  0  0  0
  -20.8957   -6.1784   22.9426 C   0  0  0  0  0  0  0  0  0  0  0  0
  -20.3566   -5.7145   24.1425 C   0  0  0  0  0  0  0  0  0  0  0  0
  -26.4687  -29.1230   20.8854 C   0  0  0  0  0  0  0  0  0  0  0  0
  -26.4618  -20.9736   20.4451 C   0  0  0  0  0  0  0  0  0  0  0  0
  -23.6797  -21.1058   20.6044 C   0  0  0  0  0  0  0  0  0  0  0  0
  -22.3945   -4.4950   24.5865 C   0  0  0  0  0  0  0  0  0  0  0  0
  -23.0968  -10.3681   20.8936 C   0  0  0  0  0  0  0  0  0  0  0  0
  -22.2715  -12.7776   21.0375 C   0  0  0  0  0  0  0  0  0  0  0  0
  -26.7103  -35.3840   26.5189 C   0  0  0  0  0  0  0  0  0  0  0  0
  -26.6314  -31.5281   21.1061 C   0  0  0  0  0  0  0  0  0  0  0  0
  -26.6792  -34.1156   25.9086 C   0  0  0  0  0  0  0  0  0  0  0  0
  -25.8429  -30.3718   21.0195 C   0  0  0  0  0  0  0  0  0  0  0  0
  -25.7599  -21.8791   19.6495 C   0  0  0  0  0  0  0  0  0  0  0  0
  -25.7726  -20.1340   21.3203 C   0  0  0  0  0  0  0  0  0  0  0  0
  -24.3689  -21.9453   19.7292 C   0  0  0  0  0  0  0  0  0  0  0  0
  -22.8423   -7.6087   21.2157 C   0  0  0  0  0  0  0  0  0  0  0  0
  -27.8587  -29.0268   20.8255 C   0  0  0  0  0  0  0  0  0  0  0  0
  -22.1841   -5.8005   22.5646 C   0  0  0  0  0  0  0  0  0  0  0  0
  -21.1061   -4.8729   24.9645 C   0  0  0  0  0  0  0  0  0  0  0  0
  -22.9335   -4.9589   23.3866 C   0  0  0  0  0  0  0  0  0  0  0  0
  -24.3816  -20.2002   21.4000 C   0  0  0  0  0  0  0  0  0  0  0  0
  -23.2290  -11.7932   20.7276 C   0  0  0  0  0  0  0  0  0  0  0  0
  -22.8763  -13.9635   20.6993 C   0  0  0  0  0  0  0  0  0  0  0  0
  -20.9532  -12.6330   21.5825 C   0  0  0  0  0  0  0  0  0  0  0  0
  -24.5742  -32.5762   23.2909 C   0  0  0  0  0  0  0  0  0  0  0  0
  -22.4051  -32.0460   20.9380 C   0  0  0  0  0  0  0  0  0  0  0  0
  -21.5835  -30.3758   18.0775 C   0  0  0  0  0  0  0  0  0  0  0  0
  -27.3302  -17.3261   20.6906 C   0  0  0  0  0  0  0  0  0  0  0  0
  -25.4460  -36.1420   26.8381 C   0  0  0  0  0  0  0  0  0  0  0  0
  -25.9872  -32.8821   21.2255 C   0  0  0  0  0  0  0  0  0  0  0  0
  -24.3390  -30.4315   21.0747 C   0  0  0  0  0  0  0  0  0  0  0  0
  -24.2253  -35.6410   26.0706 C   0  0  0  0  0  0  0  0  0  0  0  0
  -22.2731  -24.6725   18.2862 C   0  0  0  0  0  0  0  0  0  0  0  0
  -22.7076  -23.9265   17.0408 C   0  0  0  0  0  0  0  0  0  0  0  0
  -27.1322  -14.8704   18.1202 C   0  0  0  0  0  0  0  0  0  0  0  0
  -24.1494  -34.1184   26.1234 C   0  0  0  0  0  0  0  0  0  0  0  0
  -26.0249  -13.9293   18.5980 C   0  0  0  0  0  0  0  0  0  0  0  0
  -23.2993  -24.2259   19.3213 C   0  0  0  0  0  0  0  0  0  0  0  0
  -23.1227  -22.5668   17.5909 C   0  0  0  0  0  0  0  0  0  0  0  0
  -27.9724  -15.3903   19.2846 C   0  0  0  0  0  0  0  0  0  0  0  0
  -26.0937  -15.0807   20.8493 C   0  0  0  0  0  0  0  0  0  0  0  0
  -25.3789  -33.4816   25.4642 C   0  0  1  0  0  0  0  0  0  0  0  0
  -24.5788  -32.8243   21.8090 C   0  0  1  0  0  0  0  0  0  0  0  0
  -25.1845  -14.5744   19.7164 C   0  0  2  0  0  0  0  0  0  0  0  0
  -19.7276  -30.1242   16.4072 C   0  0  0  0  0  0  0  0  0  0  0  0
  -20.8443  -30.3439   22.9322 C   0  0  0  0  0  0  0  0  0  0  0  0
  -19.5721  -29.3768   21.0049 C   0  0  0  0  0  0  0  0  0  0  0  0
  -19.4315  -31.8197   21.4899 C   0  0  0  0  0  0  0  0  0  0  0  0
  -23.2946  -31.3295   15.8590 C   0  0  0  0  0  0  0  0  0  0  0  0
  -26.5613  -19.1768   22.1544 C   0  0  0  0  0  0  0  0  0  0  0  0
  -26.5259  -22.7692   18.7157 C   0  0  0  0  0  0  0  0  0  0  0  0
  -28.7081  -25.8558   19.3256 C   0  0  0  0  0  0  0  0  0  0  0  0
  -28.0449  -24.7430   18.5279 C   0  0  0  0  0  0  0  0  0  0  0  0
  -27.7200  -26.8022   19.9963 C   0  0  0  0  0  0  0  0  0  1  0  0
  -21.5596  -30.8715   20.5082 C   0  0  1  0  0  0  0  0  0  0  0  0
  -21.0117  -30.8600   16.7573 C   0  0  2  0  0  0  0  0  0  0  0  0
  -20.3803  -30.6014   21.4847 C   0  0  0  0  0  0  0  0  0  0  0  0
  -24.3563  -12.3089   20.2305 N   0  0  0  0  0  0  0  0  0  0  0  0
  -24.1110  -13.6303   20.2254 N   0  0  0  0  0  0  0  0  0  0  0  0
  -23.6446  -22.8529   18.9329 N   0  0  0  0  0  0  0  0  0  0  0  0
  -23.7565  -31.7779   21.1983 N   0  0  0  0  0  0  0  0  0  0  0  0
  -27.1156  -15.9913   20.3096 N   0  0  0  0  0  0  0  0  0  0  0  0
  -22.4670  -15.2483   20.7638 N   0  0  0  0  0  0  0  0  0  0  0  0
  -20.4880  -11.3431   21.8726 N   0  0  0  0  0  0  0  0  0  0  0  0
  -25.2598  -33.5269   24.0226 N   0  0  0  0  0  0  0  0  0  0  0  0
  -21.1481  -31.1454   19.1356 N   0  0  0  0  0  0  0  0  0  0  0  0
  -26.4699  -17.8198   21.6636 N   0  0  0  0  0  0  0  0  0  0  0  0
  -21.9929  -30.6425   15.6569 N   0  3  0  0  0  0  0  0  0  0  0  0
  -27.2270  -23.8819   19.4140 N   0  3  0  0  0  0  0  0  0  0  0  0
  -20.2037  -13.6171   21.7903 O   0  0  0  0  0  0  0  0  0  0  0  0
  -23.9906  -31.5956   23.7375 O   0  0  0  0  0  0  0  0  0  0  0  0
  -21.8872  -33.1616   21.0322 O   0  0  0  0  0  0  0  0  0  0  0  0
  -22.3378  -29.4092   18.1622 O   0  0  0  0  0  0  0  0  0  0  0  0
  -28.2191  -18.0278   20.1960 O   0  0  0  0  0  0  0  0  0  0  0  0
  -22.7181   -6.2625   21.3733 O   0  0  0  0  0  0  0  0  0  0  0  0
  -28.4519  -27.8092   20.6937 O   0  0  0  0  0  0  0  0  0  1  0  0
  -20.5889   -4.4287   26.1175 F   0  0  0  0  0  0  0  0  0  0  0  0
  -24.1723   -4.5934   23.0293 F   0  0  0  0  0  0  0  0  0  0  0  0
  -23.4957  -19.1782   22.4725 Cl  0  0  0  0  0  0  0  0  0  0  0  0
  1  2  1  0  0  0  0
  1  5  2  0  0  0  0
  2  6  2  0  0  0  0
  3  8  2  0  0  0  0
  3 17  1  0  0  0  0
  4  9  1  0  0  0  0
  4 17  2  0  0  0  0
  5 19  1  0  0  0  0
  6 21  1  0  0  0  0
  7 10  2  0  0  0  0
  7 20  1  0  0  0  0
  8 26  1  0  0  0  0
  9 26  2  0  0  0  0
 10 27  1  0  0  0  0
 11 12  2  0  0  0  0
 11 28  1  0  0  0  0
 12 29  1  0  0  0  0
 13 22  1  0  0  0  0
 13 27  2  0  0  0  0
 14 23  1  0  0  0  0
 14 24  2  0  0  0  0
 15 25  1  0  0  0  0
 15 31  2  0  0  0  0
 16 29  2  0  0  0  0
 16 30  1  0  0  0  0
 17 32  1  0  0  0  0
 18 32  1  0  0  0  0
 18 33  2  0  0  0  0
 18 34  1  0  0  0  0
 19 21  2  0  0  0  0
 19 39  1  0  0  0  0
 20 22  2  0  0  0  0
 20 40  1  0  0  0  0
 21 52  1  0  0  0  0
 22 41  1  0  0  0  0
 23 25  2  0  0  0  0
 23 61  1  0  0  0  0
 24 31  1  0  0  0  0
 24 60  1  0  0  0  0
 25 70  1  0  0  0  0
 26 85  1  0  0  0  0
 27 86  1  0  0  0  0
 28 30  2  0  0  0  0
 28 85  1  0  0  0  0
 29 87  1  0  0  0  0
 30 88  1  0  0  0  0
 31 89  1  0  0  0  0
 32 68  2  0  0  0  0
 33 69  1  0  0  0  0
 33 73  1  0  0  0  0
 34 74  1  0  0  0  0
 34 80  2  0  0  0  0
 35 53  1  0  0  0  0
 35 75  1  0  0  0  0
 35 81  2  0  0  0  0
 36 65  1  0  0  0  0
 36 71  1  0  0  0  0
 36 82  2  0  0  0  0
 37 66  1  0  0  0  0
 37 76  1  0  0  0  0
 37 83  2  0  0  0  0
 38 72  1  0  0  0  0
 38 77  1  0  0  0  0
 38 84  2  0  0  0  0
 39 42  1  0  0  0  0
 40 53  1  0  0  0  0
 41 71  1  0  0  0  0
 42 46  1  0  0  0  0
 43 44  1  0  0  0  0
 43 48  1  0  0  0  0
 44 49  1  0  0  0  0
 45 47  1  0  0  0  0
 45 50  1  0  0  0  0
 46 52  1  0  0  0  0
 47 54  1  0  0  0  0
 48 70  1  0  0  0  0
 49 70  1  0  0  0  0
 50 72  1  0  0  0  0
 51 54  1  0  0  0  0
 51 72  1  0  0  0  0
 52 75  1  0  0  0  0
 53 71  1  0  0  0  0
 54 69  1  0  0  0  0
 55 66  1  0  0  0  0
 56 67  1  0  0  0  0
 57 67  1  0  0  0  0
 58 67  1  0  0  0  0
 59 78  1  0  0  0  0
 60 77  1  0  0  0  0
 61 79  1  0  0  0  0
 62 63  1  0  0  0  0
 62 64  1  0  0  0  0
 63 79  1  0  0  0  0
 64 86  1  0  0  0  0
 65 67  1  0  0  0  0
 65 76  1  0  0  0  0
 66 78  1  0  0  0  0
 68 69  1  0  0  0  0
M  CHG  2  78   1  79   1
M  ISO  4  38 100  64 101  77 100  86 101
M  END
> <Batch ID>
0035

> <Smiles>
CNC(C)C(=O)NC(C(=O)N1Cc2cc([101O:1][101CH2:1]CCNCc3cc(C[100NH:0][100C:0](=O)N4CCCC(n5nc(-c6ccc(Oc7ccc(F)cc7F)cc6)c(C(N)=O)c5N)C4)c(Cl)cc3N3CCCC3)ccc2CC1C(=O)NC1CCCc2ccccc21)C(C)(C)C

> <Shape>
0.239

> <Color>
0.084

> <Negative vol penalty>
0.000

$$$$

  -OEChem-04042321513D

 87 96  0     1  0  0  0  0  0999 V2000
  -31.1876  -24.7597   17.1285 C   0  0  0  0  0  0  0  0  0  0  0  0
  -30.5215  -23.8587   17.9531 C   0  0  0  0  0  0  0  0  0  0  0  0
  -26.2985  -15.2579   21.3599 C   0  0  0  0  0  0  0  0  0  0  0  0
  -25.1705  -17.0932   22.4537 C   0  0  0  0  0  0  0  0  0  0  0  0
  -31.1011  -26.1284   17.3798 C   0  0  0  0  0  0  0  0  0  0  0  0
  -29.7693  -24.3260   19.0302 C   0  0  0  0  0  0  0  0  0  0  0  0
  -24.5720  -21.9270   21.2071 C   0  0  0  0  0  0  0  0  0  0  0  0
  -25.7052  -23.7913   26.7645 C   0  0  0  0  0  0  0  0  0  0  0  0
  -25.0775  -14.8051   20.8603 C   0  0  0  0  0  0  0  0  0  0  0  0
  -23.9494  -16.6405   21.9540 C   0  0  0  0  0  0  0  0  0  0  0  0
  -24.3085  -21.0777   22.2809 C   0  0  0  0  0  0  0  0  0  0  0  0
  -22.9683  -15.6006   18.3401 C   0  0  0  0  0  0  0  0  0  0  0  0
  -22.9174  -15.2209   16.9989 C   0  0  0  0  0  0  0  0  0  0  0  0
  -26.4576  -24.7712   26.1171 C   0  0  0  0  0  0  0  0  0  0  0  0
  -23.7894  -22.9892   23.6577 C   0  0  0  0  0  0  0  0  0  0  0  0
  -28.4762  -23.8578   27.0804 C   0  0  0  0  0  0  0  0  0  0  0  0
  -22.2517  -12.9930   17.6548 C   0  0  0  0  0  0  0  0  0  0  0  0
  -26.3450  -16.4019   22.1567 C   0  0  0  0  0  0  0  0  0  0  0  0
  -28.7342  -17.2672   21.9313 C   0  0  0  0  0  0  0  0  0  0  0  0
  -30.3396  -26.6132   18.4548 C   0  0  0  0  0  0  0  0  0  0  0  0
  -24.4565  -23.3168   21.3540 C   0  0  0  0  0  0  0  0  0  0  0  0
  -29.6736  -25.7024   19.2970 C   0  0  0  0  0  0  0  0  0  0  0  0
  -24.0495  -23.8539   22.5836 C   0  0  0  0  0  0  0  0  0  0  0  0
  -26.3383  -22.8446   27.5699 C   0  0  0  0  0  0  0  0  0  0  0  0
  -27.7238  -22.8779   27.7278 C   0  0  0  0  0  0  0  0  0  0  0  0
  -23.9029  -15.4964   21.1573 C   0  0  0  0  0  0  0  0  0  0  0  0
  -23.9199  -21.6088   23.5072 C   0  0  0  0  0  0  0  0  0  0  0  0
  -22.6610  -14.6764   19.3387 C   0  0  0  0  0  0  0  0  0  0  0  0
  -22.5590  -13.9172   16.6562 C   0  0  0  0  0  0  0  0  0  0  0  0
  -22.3027  -13.3726   18.9960 C   0  0  0  0  0  0  0  0  0  0  0  0
  -27.8431  -24.8045   26.2750 C   0  0  0  0  0  0  0  0  0  0  0  0
  -27.6060  -16.8697   22.6736 C   0  0  0  0  0  0  0  0  0  0  0  0
  -29.6620  -17.6215   22.8800 C   0  0  0  0  0  0  0  0  0  0  0  0
  -28.9263  -17.3122   20.5112 C   0  0  0  0  0  0  0  0  0  0  0  0
  -26.4637  -25.7709   21.1260 C   0  0  0  0  0  0  0  0  0  0  0  0
  -23.7590  -27.5171   21.5231 C   0  0  0  0  0  0  0  0  0  0  0  0
  -20.5572  -27.6735   22.6938 C   0  0  0  0  0  0  0  0  0  0  0  0
  -29.1869  -19.5147   28.5405 C   0  0  0  0  0  0  0  0  0  0  0  0
  -30.3143  -28.0985   18.7150 C   0  0  0  0  0  0  0  0  0  0  0  0
  -24.7184  -24.2179   20.1784 C   0  0  0  0  0  0  0  0  0  0  0  0
  -23.8911  -25.3377   22.7873 C   0  0  0  0  0  0  0  0  0  0  0  0
  -29.1916  -28.5335   19.6534 C   0  0  0  0  0  0  0  0  0  0  0  0
  -30.9705  -16.6599   27.3805 C   0  0  0  0  0  0  0  0  0  0  0  0
  -29.1295  -27.6179   20.8719 C   0  0  0  0  0  0  0  0  0  0  0  0
  -30.4123  -16.4258   25.9756 C   0  0  0  0  0  0  0  0  0  0  0  0
  -24.1807  -18.6425   25.5660 C   0  0  0  0  0  0  0  0  0  0  0  0
  -23.4102  -18.8725   26.8610 C   0  0  0  0  0  0  0  0  0  0  0  0
  -29.8900  -17.1476   28.3431 C   0  0  0  0  0  0  0  0  0  0  0  0
  -28.5861  -18.1014   26.4819 C   0  0  0  0  0  0  0  0  0  0  0  0
  -25.5491  -20.7086   26.0327 C   0  0  0  0  0  0  0  0  0  0  0  0
  -28.8275  -26.1719   20.4605 C   0  0  1  0  0  0  0  0  0  0  0  0
  -25.0670  -25.6460   20.5863 C   0  0  1  0  0  0  0  0  0  0  0  0
  -29.6504  -17.6623   25.4618 C   0  0  2  0  0  0  0  0  0  0  0  0
  -24.7294  -19.9470   25.0019 C   0  0  2  0  0  0  0  0  0  1  0  0
  -24.2420  -19.6246   27.9067 C   0  0  2  0  0  0  0  0  0  0  0  0
  -23.3917  -19.8929   29.1469 C   0  0  0  0  0  0  0  0  0  0  0  0
  -18.6126  -29.2451   22.9079 C   0  0  0  0  0  0  0  0  0  0  0  0
  -25.1646  -28.9384   23.8284 C   0  0  0  0  0  0  0  0  0  0  0  0
  -22.9290  -29.7747   24.5840 C   0  0  0  0  0  0  0  0  0  0  0  0
  -23.8151  -30.4352   22.3477 C   0  0  0  0  0  0  0  0  0  0  0  0
  -18.8224  -25.9368   21.0405 C   0  0  0  0  0  0  0  0  0  0  0  0
  -28.4233  -21.8756   28.5864 C   0  0  0  0  0  0  0  0  0  0  0  0
  -25.5084  -21.8005   28.2571 C   0  0  0  0  0  0  0  0  0  0  0  0
  -23.0065  -28.0674   22.7105 C   0  0  1  0  0  0  0  0  0  0  0  0
  -19.2744  -28.1741   22.0548 C   0  0  2  0  0  0  0  0  0  0  0  0
  -23.7336  -29.2760   23.3647 C   0  0  0  0  0  0  0  0  0  0  0  0
  -27.7975  -16.9624   23.9922 N   0  0  0  0  0  0  0  0  0  0  0  0
  -29.0569  -17.4222   24.0859 N   0  0  0  0  0  0  0  0  0  0  0  0
  -24.1647  -26.1778   21.6097 N   0  0  0  0  0  0  0  0  0  0  0  0
  -29.2067  -18.3229   27.7974 N   0  0  0  0  0  0  0  0  0  0  0  0
  -30.9283  -18.0810   22.7920 N   0  0  0  0  0  0  0  0  0  0  0  0
  -27.8698  -16.9132   19.6811 N   0  0  0  0  0  0  0  0  0  0  0  0
  -27.4206  -26.0154   20.1595 N   0  0  0  0  0  0  0  0  0  0  0  0
  -21.6590  -28.3655   22.2373 N   0  0  0  0  0  0  0  0  0  0  0  0
  -28.5236  -20.5822   27.9478 N   0  0  0  0  0  0  0  0  0  0  0  0
  -24.7324  -20.9336   27.2945 N   0  3  1  0  0  0  0  0  0  0  0  0
  -18.3106  -27.0510   21.8792 N   0  3  0  0  0  0  0  0  0  0  0  0
  -30.0085  -17.6793   19.9939 O   0  0  0  0  0  0  0  0  0  0  0  0
  -26.6587  -25.6556   22.3303 O   0  0  0  0  0  0  0  0  0  0  0  0
  -23.9727  -28.2466   20.5516 O   0  0  0  0  0  0  0  0  0  0  0  0
  -20.5792  -26.7624   23.5184 O   0  0  0  0  0  0  0  0  0  0  0  0
  -29.7254  -19.6212   29.6476 O   0  0  0  0  0  0  0  0  0  0  0  0
  -22.7113  -15.0551   20.6697 O   0  0  0  0  0  0  0  0  0  0  0  0
  -23.6628  -20.7821   24.5571 O   0  0  0  0  0  0  0  0  0  1  0  0
  -22.5087  -13.5532   15.3681 F   0  0  0  0  0  0  0  0  0  0  0  0
  -22.0052  -12.4807   19.9509 F   0  0  0  0  0  0  0  0  0  0  0  0
  -28.7706  -26.0146   25.4775 Cl  0  0  0  0  0  0  0  0  0  0  0  0
  1  2  1  0  0  0  0
  1  5  2  0  0  0  0
  2  6  2  0  0  0  0
  3  9  2  0  0  0  0
  3 18  1  0  0  0  0
  4 10  1  0  0  0  0
  4 18  2  0  0  0  0
  5 20  1  0  0  0  0
  6 22  1  0  0  0  0
  7 11  2  0  0  0  0
  7 21  1  0  0  0  0
  8 14  2  0  0  0  0
  8 24  1  0  0  0  0
  9 26  1  0  0  0  0
 10 26  2  0  0  0  0
 11 27  1  0  0  0  0
 12 13  2  0  0  0  0
 12 28  1  0  0  0  0
 13 29  1  0  0  0  0
 14 31  1  0  0  0  0
 15 23  1  0  0  0  0
 15 27  2  0  0  0  0
 16 25  1  0  0  0  0
 16 31  2  0  0  0  0
 17 29  2  0  0  0  0
 17 30  1  0  0  0  0
 18 32  1  0  0  0  0
 19 32  1  0  0  0  0
 19 33  2  0  0  0  0
 19 34  1  0  0  0  0
 20 22  2  0  0  0  0
 20 39  1  0  0  0  0
 21 23  2  0  0  0  0
 21 40  1  0  0  0  0
 22 51  1  0  0  0  0
 23 41  1  0  0  0  0
 24 25  2  0  0  0  0
 24 63  1  0  0  0  0
 25 62  1  0  0  0  0
 26 83  1  0  0  0  0
 27 84  1  0  0  0  0
 28 30  2  0  0  0  0
 28 83  1  0  0  0  0
 29 85  1  0  0  0  0
 30 86  1  0  0  0  0
 31 87  1  0  0  0  0
 32 67  2  0  0  0  0
 33 68  1  0  0  0  0
 33 71  1  0  0  0  0
 34 72  1  0  0  0  0
 34 78  2  0  0  0  0
 35 52  1  0  0  0  0
 35 73  1  0  0  0  0
 35 79  2  0  0  0  0
 36 64  1  0  0  0  0
 36 69  1  0  0  0  0
 36 80  2  0  0  0  0
 37 65  1  0  0  0  0
 37 74  1  0  0  0  0
 37 81  2  0  0  0  0
 38 70  1  0  0  0  0
 38 75  1  0  0  0  0
 38 82  2  0  0  0  0
 39 42  1  0  0  0  0
 40 52  1  0  0  0  0
 41 69  1  0  0  0  0
 42 44  1  0  0  0  0
 43 45  1  0  0  0  0
 43 48  1  0  0  0  0
 44 51  1  0  0  0  0
 45 53  1  0  0  0  0
 46 47  1  0  0  0  0
 46 54  1  0  0  0  0
 47 55  1  0  0  0  0
 48 70  1  0  0  0  0
 49 53  1  0  0  0  0
 49 70  1  0  0  0  0
 50 54  1  0  0  0  0
 50 76  1  0  0  0  0
 51 73  1  0  0  0  0
 52 69  1  0  0  0  0
 53 68  1  0  0  0  0
 54 84  1  0  0  0  0
 55 56  1  0  0  0  0
 55 76  1  0  0  0  0
 57 65  1  0  0  0  0
 58 66  1  0  0  0  0
 59 66  1  0  0  0  0
 60 66  1  0  0  0  0
 61 77  1  0  0  0  0
 62 75  1  0  0  0  0
 63 76  1  0  0  0  0
 64 66  1  0  0  0  0
 64 74  1  0  0  0  0
 65 77  1  0  0  0  0
 67 68  1  0  0  0  0
M  CHG  2  76   1  77   1
M  ISO  4  38 100  54 101  75 100  84 101
M  END
> <Batch ID>
0035

> <Smiles>
CNC(C)C(=O)NC(C(=O)N1Cc2cc([101O:1][101CH:1]3CCC(C)N(Cc4ccc(Cl)cc4C[100NH:0][100C:0](=O)N4CCCC(n5nc(-c6ccc(Oc7ccc(F)cc7F)cc6)c(C(N)=O)c5N)C4)C3)ccc2CC1C(=O)NC1CCCc2ccccc21)C(C)(C)C

> <Shape>
0.155

> <Color>
0.035

> <Negative vol penalty>
0.000

$$$$

  -OEChem-04042321513D

 87 96  0     1  0  0  0  0  0999 V2000
  -29.0848  -22.3344   16.3500 C   0  0  0  0  0  0  0  0  0  0  0  0
  -27.8342  -22.8911   16.5977 C   0  0  0  0  0  0  0  0  0  0  0  0
  -27.6451  -14.6342   21.5865 C   0  0  0  0  0  0  0  0  0  0  0  0
  -25.6318  -15.4032   20.4946 C   0  0  0  0  0  0  0  0  0  0  0  0
  -30.0814  -22.4011   17.3228 C   0  0  0  0  0  0  0  0  0  0  0  0
  -27.5791  -23.5140   17.8189 C   0  0  0  0  0  0  0  0  0  0  0  0
  -24.0132  -28.3981   18.7864 C   0  0  0  0  0  0  0  0  0  0  0  0
  -27.2481  -13.3120   21.3874 C   0  0  0  0  0  0  0  0  0  0  0  0
  -25.2348  -14.0810   20.2955 C   0  0  0  0  0  0  0  0  0  0  0  0
  -22.6979  -28.5260   19.2309 C   0  0  0  0  0  0  0  0  0  0  0  0
  -23.8361  -11.5987   22.1157 C   0  0  0  0  0  0  0  0  0  0  0  0
  -22.5104  -11.2705   22.3991 C   0  0  0  0  0  0  0  0  0  0  0  0
  -23.4988  -28.8930   21.4765 C   0  0  0  0  0  0  0  0  0  0  0  0
  -19.9463  -23.5568   19.5959 C   0  0  0  0  0  0  0  0  0  0  0  0
  -21.2855  -23.3792   21.5989 C   0  0  0  0  0  0  0  0  0  0  0  0
  -22.1899  -10.5838   20.1050 C   0  0  0  0  0  0  0  0  0  0  0  0
  -26.8369  -15.6799   21.1402 C   0  0  0  0  0  0  0  0  0  0  0  0
  -28.4161  -17.6645   20.8656 C   0  0  0  0  0  0  0  0  0  0  0  0
  -29.8414  -23.0336   18.5529 C   0  0  0  0  0  0  0  0  0  0  0  0
  -25.0825  -28.5061   19.6871 C   0  0  0  0  0  0  0  0  0  0  0  0
  -28.5729  -23.5881   18.8096 C   0  0  0  0  0  0  0  0  0  0  0  0
  -24.8268  -28.7687   21.0405 C   0  0  0  0  0  0  0  0  0  0  0  0
  -20.1227  -23.8054   20.9571 C   0  0  0  0  0  0  0  0  0  0  0  0
  -20.9327  -22.8820   18.8766 C   0  0  0  0  0  0  0  0  0  0  0  0
  -22.0955  -22.4558   19.5184 C   0  0  0  0  0  0  0  0  0  0  0  0
  -22.2719  -22.7044   20.8796 C   0  0  0  0  0  0  0  0  0  0  0  0
  -26.0429  -13.0354   20.7419 C   0  0  0  0  0  0  0  0  0  0  0  0
  -22.4405  -28.7706   20.5766 C   0  0  0  0  0  0  0  0  0  0  0  0
  -24.3387  -11.4196   20.8269 C   0  0  0  0  0  0  0  0  0  0  0  0
  -21.6873  -10.7630   21.3938 C   0  0  0  0  0  0  0  0  0  0  0  0
  -23.5156  -10.9121   19.8216 C   0  0  0  0  0  0  0  0  0  0  0  0
  -27.2463  -17.0459   21.3460 C   0  0  0  0  0  0  0  0  0  0  0  0
  -28.3381  -18.9545   21.3306 C   0  0  0  0  0  0  0  0  0  0  0  0
  -29.4782  -17.1215   20.0702 C   0  0  0  0  0  0  0  0  0  0  0  0
  -27.3968  -26.5590   20.6652 C   0  0  0  0  0  0  0  0  0  0  0  0
  -28.4398  -29.2111   22.2148 C   0  0  0  0  0  0  0  0  0  0  0  0
  -26.9645  -31.9121   24.0977 C   0  0  0  0  0  0  0  0  0  0  0  0
  -23.7591  -22.4590   22.8980 C   0  0  0  0  0  0  0  0  0  0  0  0
  -30.9347  -23.0393   19.5917 C   0  0  0  0  0  0  0  0  0  0  0  0
  -26.4966  -28.3923   19.1872 C   0  0  0  0  0  0  0  0  0  0  0  0
  -25.9403  -28.9134   22.0444 C   0  0  0  0  0  0  0  0  0  0  0  0
  -30.7021  -24.0463   20.7152 C   0  0  0  0  0  0  0  0  0  0  0  0
  -26.5266  -21.5321   24.9374 C   0  0  0  0  0  0  0  0  0  0  0  0
  -19.0658  -27.6921   23.8827 C   0  0  0  0  0  0  0  0  0  0  0  0
  -29.2668  -23.9565   21.2239 C   0  0  0  0  0  0  0  0  0  0  0  0
  -27.1353  -20.3366   24.2009 C   0  0  0  0  0  0  0  0  0  0  0  0
  -19.6872  -28.6629   22.8873 C   0  0  0  0  0  0  0  0  0  0  0  0
  -25.0019  -21.5396   24.8436 C   0  0  0  0  0  0  0  0  0  0  0  0
  -25.0719  -20.2526   22.7441 C   0  0  0  0  0  0  0  0  0  0  0  0
  -18.4835  -26.4697   23.1874 C   0  0  0  0  0  0  0  0  0  0  0  0
  -20.1292  -26.7418   21.3145 C   0  0  0  0  0  0  0  0  0  0  0  0
  -28.2656  -24.2940   20.1125 C   0  0  1  0  0  0  0  0  0  0  0  0
  -27.4881  -28.0088   20.2813 C   0  0  1  0  0  0  0  0  0  0  0  0
  -26.6092  -20.2377   22.7556 C   0  0  2  0  0  0  0  0  0  0  0  0
  -20.7160  -27.9686   22.0004 C   0  0  1  0  0  0  0  0  0  1  0  0
  -20.7179  -22.6270   17.4205 C   0  0  0  0  0  0  0  0  0  0  0  0
  -24.3371  -22.6282   18.4085 C   0  0  0  0  0  0  0  0  0  0  0  0
  -27.7551  -34.2647   24.4686 C   0  0  0  0  0  0  0  0  0  0  0  0
  -29.6872  -28.0826   24.7605 C   0  0  0  0  0  0  0  0  0  0  0  0
  -29.0503  -30.2031   25.9293 C   0  0  0  0  0  0  0  0  0  0  0  0
  -30.6432  -30.2685   24.0107 C   0  0  0  0  0  0  0  0  0  0  0  0
  -24.4271  -33.0481   23.0828 C   0  0  0  0  0  0  0  0  0  0  0  0
  -23.1503  -21.7314   18.7422 C   0  0  0  0  0  0  0  0  0  0  0  0
  -19.0612  -24.5299   21.7311 C   0  0  0  0  0  0  0  0  0  0  0  0
  -28.1935  -29.8219   23.5732 C   0  0  1  0  0  0  0  0  0  0  0  0
  -26.8367  -33.3604   23.6613 C   0  0  2  0  0  0  0  0  0  0  0  0
  -29.3738  -29.5782   24.5555 C   0  0  0  0  0  0  0  0  0  0  0  0
  -26.4813  -17.8748   22.0614 N   0  0  0  0  0  0  0  0  0  0  0  0
  -27.1719  -19.0274   22.0341 N   0  0  0  0  0  0  0  0  0  0  0  0
  -27.3055  -28.7876   21.5078 N   0  0  0  0  0  0  0  0  0  0  0  0
  -24.5768  -21.4476   23.4452 N   0  0  0  0  0  0  0  0  0  0  0  0
  -29.1540  -20.0223   21.2022 N   0  0  0  0  0  0  0  0  0  0  0  0
  -29.4001  -15.7780   19.6787 N   0  0  0  0  0  0  0  0  0  0  0  0
  -23.4458  -22.2813   21.5509 N   0  0  0  0  0  0  0  0  0  0  0  0
  -28.1991  -25.7254   19.9097 N   0  0  0  0  0  0  0  0  0  0  0  0
  -27.8920  -31.2300   23.3390 N   0  0  0  0  0  0  0  0  0  0  0  0
  -19.5527  -25.8096   22.3495 N   0  3  2  0  0  0  0  0  0  0  0  0
  -25.4350  -33.8337   23.8404 N   0  3  0  0  0  0  0  0  0  0  0  0
  -30.4752  -17.8029   19.7308 O   0  0  0  0  0  0  0  0  0  0  0  0
  -26.6546  -26.2219   21.5802 O   0  0  0  0  0  0  0  0  0  0  0  0
  -29.5956  -29.1197   21.7934 O   0  0  0  0  0  0  0  0  0  0  0  0
  -26.3098  -31.4346   25.0218 O   0  0  0  0  0  0  0  0  0  0  0  0
  -23.3882  -23.4266   23.5675 O   0  0  0  0  0  0  0  0  0  0  0  0
  -25.6553  -11.7452   20.5472 O   0  0  0  0  0  0  0  0  0  0  0  0
  -21.1576  -28.8951   21.0132 O   0  0  0  0  0  0  0  0  0  1  0  0
  -20.4147  -10.4463   21.6666 F   0  0  0  0  0  0  0  0  0  0  0  0
  -23.9932  -10.7366   18.5818 F   0  0  0  0  0  0  0  0  0  0  0  0
  1  2  1  0  0  0  0
  1  5  2  0  0  0  0
  2  6  2  0  0  0  0
  3  8  2  0  0  0  0
  3 17  1  0  0  0  0
  4  9  1  0  0  0  0
  4 17  2  0  0  0  0
  5 19  1  0  0  0  0
  6 21  1  0  0  0  0
  7 10  2  0  0  0  0
  7 20  1  0  0  0  0
  8 27  1  0  0  0  0
  9 27  2  0  0  0  0
 10 28  1  0  0  0  0
 11 12  2  0  0  0  0
 11 29  1  0  0  0  0
 12 30  1  0  0  0  0
 13 22  1  0  0  0  0
 13 28  2  0  0  0  0
 14 23  1  0  0  0  0
 14 24  2  0  0  0  0
 15 23  2  0  0  0  0
 15 26  1  0  0  0  0
 16 30  2  0  0  0  0
 16 31  1  0  0  0  0
 17 32  1  0  0  0  0
 18 32  1  0  0  0  0
 18 33  2  0  0  0  0
 18 34  1  0  0  0  0
 19 21  2  0  0  0  0
 19 39  1  0  0  0  0
 20 22  2  0  0  0  0
 20 40  1  0  0  0  0
 21 52  1  0  0  0  0
 22 41  1  0  0  0  0
 23 64  1  0  0  0  0
 24 25  1  0  0  0  0
 24 56  1  0  0  0  0
 25 26  2  0  0  0  0
 25 63  1  0  0  0  0
 26 74  1  0  0  0  0
 27 84  1  0  0  0  0
 28 85  1  0  0  0  0
 29 31  2  0  0  0  0
 29 84  1  0  0  0  0
 30 86  1  0  0  0  0
 31 87  1  0  0  0  0
 32 68  2  0  0  0  0
 33 69  1  0  0  0  0
 33 72  1  0  0  0  0
 34 73  1  0  0  0  0
 34 79  2  0  0  0  0
 35 53  1  0  0  0  0
 35 75  1  0  0  0  0
 35 80  2  0  0  0  0
 36 65  1  0  0  0  0
 36 70  1  0  0  0  0
 36 81  2  0  0  0  0
 37 66  1  0  0  0  0
 37 76  1  0  0  0  0
 37 82  2  0  0  0  0
 38 71  1  0  0  0  0
 38 74  1  0  0  0  0
 38 83  2  0  0  0  0
 39 42  1  0  0  0  0
 40 53  1  0  0  0  0
 41 70  1  0  0  0  0
 42 45  1  0  0  0  0
 43 46  1  0  0  0  0
 43 48  1  0  0  0  0
 44 47  1  0  0  0  0
 44 50  1  0  0  0  0
 45 52  1  0  0  0  0
 46 54  1  0  0  0  0
 47 55  1  0  0  0  0
 48 71  1  0  0  0  0
 49 54  1  0  0  0  0
 49 71  1  0  0  0  0
 50 77  1  0  0  0  0
 51 55  1  0  0  0  0
 51 77  1  0  0  0  0
 52 75  1  0  0  0  0
 53 70  1  0  0  0  0
 54 69  1  0  0  0  0
 55 85  1  0  0  0  0
 57 63  1  0  0  0  0
 58 66  1  0  0  0  0
 59 67  1  0  0  0  0
 60 67  1  0  0  0  0
 61 67  1  0  0  0  0
 62 78  1  0  0  0  0
 64 77  1  0  0  0  0
 65 67  1  0  0  0  0
 65 76  1  0  0  0  0
 66 78  1  0  0  0  0
 68 69  1  0  0  0  0
M  CHG  2  77   1  78   1
M  ISO  4  38 100  55 101  74 100  85 101
M  END
> <Batch ID>
0035

> <Smiles>
CCc1c(C)cc(CN2CCC[101CH:1]([101O:1]c3ccc4c(c3)CN(C(=O)C(NC(=O)C(C)NC)C(C)(C)C)C(C(=O)NC3CCCc5ccccc53)C4)C2)cc1[100NH:0][100C:0](=O)N1CCCC(n2nc(-c3ccc(Oc4ccc(F)cc4F)cc3)c(C(N)=O)c2N)C1

> <Shape>
0.262

> <Color>
0.083

> <Negative vol penalty>
0.000

$$$$

  -OEChem-04042321513D

 88 97  0     1  0  0  0  0  0999 V2000
  -28.6429  -21.2414   30.0878 C   0  0  0  0  0  0  0  0  0  0  0  0
  -28.9879  -21.2574   28.7402 C   0  0  0  0  0  0  0  0  0  0  0  0
  -23.2545  -10.1363   22.1662 C   0  0  0  0  0  0  0  0  0  0  0  0
  -23.5055   -9.5590   19.8336 C   0  0  0  0  0  0  0  0  0  0  0  0
  -27.3303  -21.5101   30.4734 C   0  0  0  0  0  0  0  0  0  0  0  0
  -28.0202  -21.5412   27.7772 C   0  0  0  0  0  0  0  0  0  0  0  0
  -29.6703  -24.7943   24.2644 C   0  0  0  0  0  0  0  0  0  0  0  0
  -22.4958   -8.9837   22.3698 C   0  0  0  0  0  0  0  0  0  0  0  0
  -22.7468   -8.4064   20.0373 C   0  0  0  0  0  0  0  0  0  0  0  0
  -30.5029  -24.2869   23.2678 C   0  0  0  0  0  0  0  0  0  0  0  0
  -23.0543   -5.6748   22.7847 C   0  0  0  0  0  0  0  0  0  0  0  0
  -23.3396   -4.9013   23.9098 C   0  0  0  0  0  0  0  0  0  0  0  0
  -28.6237  -24.1842   21.7587 C   0  0  0  0  0  0  0  0  0  0  0  0
  -28.4385  -19.0825   24.6822 C   0  0  0  0  0  0  0  0  0  0  0  0
  -29.8152  -17.1396   24.2740 C   0  0  0  0  0  0  0  0  0  0  0  0
  -21.0836   -5.2316   24.7089 C   0  0  0  0  0  0  0  0  0  0  0  0
  -23.7594  -10.4240   20.8981 C   0  0  0  0  0  0  0  0  0  0  0  0
  -24.1373  -12.9468   20.8943 C   0  0  0  0  0  0  0  0  0  0  0  0
  -26.3481  -21.8069   29.5153 C   0  0  0  0  0  0  0  0  0  0  0  0
  -28.3037  -24.9904   24.0186 C   0  0  0  0  0  0  0  0  0  0  0  0
  -26.6929  -21.8129   28.1502 C   0  0  0  0  0  0  0  0  0  0  0  0
  -27.7764  -24.6965   22.7531 C   0  0  0  0  0  0  0  0  0  0  0  0
  -29.0313  -17.9048   25.1374 C   0  0  0  0  0  0  0  0  0  0  0  0
  -28.6295  -19.4950   23.3635 C   0  0  0  0  0  0  0  0  0  0  0  0
  -30.0063  -17.5521   22.9552 C   0  0  0  0  0  0  0  0  0  0  0  0
  -29.4134  -18.7298   22.5000 C   0  0  0  0  0  0  0  0  0  0  0  0
  -22.2419   -8.1188   21.3054 C   0  0  0  0  0  0  0  0  0  0  0  0
  -29.9790  -23.9791   22.0156 C   0  0  0  0  0  0  0  0  0  0  0  0
  -21.7837   -6.2268   22.6217 C   0  0  0  0  0  0  0  0  0  0  0  0
  -22.3542   -4.6796   24.8719 C   0  0  0  0  0  0  0  0  0  0  0  0
  -20.7983   -6.0051   23.5838 C   0  0  0  0  0  0  0  0  0  0  0  0
  -24.5427  -11.6147   20.6870 C   0  0  0  0  0  0  0  0  0  0  0  0
  -25.2357  -13.6972   20.5522 C   0  0  0  0  0  0  0  0  0  0  0  0
  -31.3187  -19.6954   19.4338 C   0  0  0  0  0  0  0  0  0  0  0  0
  -32.1800  -18.7491   19.0307 C   0  0  0  0  0  0  0  0  0  0  0  0
  -22.8803  -13.4601   21.3549 C   0  0  0  0  0  0  0  0  0  0  0  0
  -25.6140  -23.8147   25.2379 C   0  0  0  0  0  0  0  0  0  0  0  0
  -24.2315  -26.0223   23.3045 C   0  0  0  0  0  0  0  0  0  0  0  0
  -24.7119  -27.2518   19.9467 C   0  0  0  0  0  0  0  0  0  0  0  0
  -30.7361  -14.6274   20.7133 C   0  0  0  0  0  0  0  0  0  0  0  0
  -24.9320  -22.0443   29.9769 C   0  0  0  0  0  0  0  0  0  0  0  0
  -27.4243  -25.5636   25.0959 C   0  0  0  0  0  0  0  0  0  0  0  0
  -26.3202  -24.9079   22.4321 C   0  0  0  0  0  0  0  0  0  0  0  0
  -30.7213  -20.7124   18.4997 C   0  0  0  0  0  0  0  0  0  0  0  0
  -24.0496  -22.7043   28.9205 C   0  0  0  0  0  0  0  0  0  0  0  0
  -30.9041  -22.1181   19.0591 C   0  0  0  0  0  0  0  0  0  0  0  0
  -29.5317  -12.3768   18.2311 C   0  0  0  0  0  0  0  0  0  0  0  0
  -24.2297  -22.0183   27.5700 C   0  0  0  0  0  0  0  0  0  0  0  0
  -28.0959  -12.0832   18.6693 C   0  0  0  0  0  0  0  0  0  0  0  0
  -30.4677  -12.5265   19.4284 C   0  0  0  0  0  0  0  0  0  0  0  0
  -28.5955  -13.2173   20.8745 C   0  0  0  0  0  0  0  0  0  0  0  0
  -31.1784  -21.1472   21.3715 C   0  0  0  0  0  0  0  0  0  0  0  0
  -25.6768  -22.1408   27.0777 C   0  0  1  0  0  0  0  0  0  0  0  0
  -25.9469  -25.2396   24.8965 C   0  0  1  0  0  0  0  0  0  0  0  0
  -27.6035  -13.1135   19.7035 C   0  0  2  0  0  0  0  0  0  0  0  0
  -30.4660  -22.1963   20.5215 C   0  0  1  0  0  0  0  0  0  1  0  0
  -28.8265  -17.4634   26.5471 C   0  0  0  0  0  0  0  0  0  0  0  0
  -27.9845  -20.7607   22.9012 C   0  0  0  0  0  0  0  0  0  0  0  0
  -24.1654  -29.4808   18.9317 C   0  0  0  0  0  0  0  0  0  0  0  0
  -21.6242  -24.6766   22.4670 C   0  0  0  0  0  0  0  0  0  0  0  0
  -21.7536  -25.9299   20.3035 C   0  0  0  0  0  0  0  0  0  0  0  0
  -21.5586  -27.1766   22.4553 C   0  0  0  0  0  0  0  0  0  0  0  0
  -27.4981  -27.6480   19.0308 C   0  0  0  0  0  0  0  0  0  0  0  0
  -30.8504  -16.7149   22.0506 C   0  0  0  0  0  0  0  0  0  0  0  0
  -29.6191  -19.1740   21.0818 C   0  0  0  0  0  0  0  0  0  0  0  0
  -23.7392  -26.0351   21.8775 C   0  0  1  0  0  0  0  0  0  0  0  0
  -25.2524  -28.6125   19.5459 C   0  0  2  0  0  0  0  0  0  0  0  0
  -22.1902  -25.9376   21.7840 C   0  0  0  0  0  0  0  0  0  0  0  0
  -25.8004  -11.5210   20.2472 N   0  0  0  0  0  0  0  0  0  0  0  0
  -26.1948  -12.8037   20.1752 N   0  0  0  0  0  0  0  0  0  0  0  0
  -25.4997  -25.4646   23.5204 N   0  0  0  0  0  0  0  0  0  0  0  0
  -29.9443  -13.5191   20.3701 N   0  0  0  0  0  0  0  0  0  0  0  0
  -25.4651  -15.0275   20.5400 N   0  0  0  0  0  0  0  0  0  0  0  0
  -21.8923  -13.7578   20.4065 N   0  0  0  0  0  0  0  0  0  0  0  0
  -25.9173  -23.4624   26.5392 N   0  0  0  0  0  0  0  0  0  0  0  0
  -24.3007  -27.2331   21.2627 N   0  0  0  0  0  0  0  0  0  0  0  0
  -30.1620  -15.5232   21.6070 N   0  0  0  0  0  0  0  0  0  0  0  0
  -30.9868  -19.7490   20.8369 N   0  3  1  0  0  0  0  0  0  0  0  0
  -26.3511  -28.4607   18.5504 N   0  3  0  0  0  0  0  0  0  0  0  0
  -22.6463  -13.6646   22.5702 O   0  0  0  0  0  0  0  0  0  0  0  0
  -25.1172  -23.0892   24.3844 O   0  0  0  0  0  0  0  0  0  0  0  0
  -23.5202  -26.4962   24.1939 O   0  0  0  0  0  0  0  0  0  0  0  0
  -24.6563  -26.3017   19.1691 O   0  0  0  0  0  0  0  0  0  0  0  0
  -31.8685  -14.8081   20.2529 O   0  0  0  0  0  0  0  0  0  0  0  0
  -21.5018   -6.9939   21.5038 O   0  0  0  0  0  0  0  0  0  0  0  0
  -30.7893  -23.4832   21.0413 O   0  0  0  0  0  0  0  0  0  1  0  0
  -22.6278   -3.9355   25.9515 F   0  0  0  0  0  0  0  0  0  0  0  0
  -19.5754   -6.5318   23.4321 F   0  0  0  0  0  0  0  0  0  0  0  0
  1  2  1  0  0  0  0
  1  5  2  0  0  0  0
  2  6  2  0  0  0  0
  3  8  2  0  0  0  0
  3 17  1  0  0  0  0
  4  9  1  0  0  0  0
  4 17  2  0  0  0  0
  5 19  1  0  0  0  0
  6 21  1  0  0  0  0
  7 10  2  0  0  0  0
  7 20  1  0  0  0  0
  8 27  1  0  0  0  0
  9 27  2  0  0  0  0
 10 28  1  0  0  0  0
 11 12  2  0  0  0  0
 11 29  1  0  0  0  0
 12 30  1  0  0  0  0
 13 22  1  0  0  0  0
 13 28  2  0  0  0  0
 14 23  1  0  0  0  0
 14 24  2  0  0  0  0
 15 23  2  0  0  0  0
 15 25  1  0  0  0  0
 16 30  2  0  0  0  0
 16 31  1  0  0  0  0
 17 32  1  0  0  0  0
 18 32  1  0  0  0  0
 18 33  2  0  0  0  0
 18 36  1  0  0  0  0
 19 21  2  0  0  0  0
 19 41  1  0  0  0  0
 20 22  2  0  0  0  0
 20 42  1  0  0  0  0
 21 53  1  0  0  0  0
 22 43  1  0  0  0  0
 23 57  1  0  0  0  0
 24 26  1  0  0  0  0
 24 58  1  0  0  0  0
 25 26  2  0  0  0  0
 25 64  1  0  0  0  0
 26 65  1  0  0  0  0
 27 85  1  0  0  0  0
 28 86  1  0  0  0  0
 29 31  2  0  0  0  0
 29 85  1  0  0  0  0
 30 87  1  0  0  0  0
 31 88  1  0  0  0  0
 32 69  2  0  0  0  0
 33 70  1  0  0  0  0
 33 73  1  0  0  0  0
 34 35  2  0  0  0  0
 34 44  1  0  0  0  0
 34 78  1  0  0  0  0
 36 74  1  0  0  0  0
 36 80  2  0  0  0  0
 37 54  1  0  0  0  0
 37 75  1  0  0  0  0
 37 81  2  0  0  0  0
 38 66  1  0  0  0  0
 38 71  1  0  0  0  0
 38 82  2  0  0  0  0
 39 67  1  0  0  0  0
 39 76  1  0  0  0  0
 39 83  2  0  0  0  0
 40 72  1  0  0  0  0
 40 77  1  0  0  0  0
 40 84  2  0  0  0  0
 41 45  1  0  0  0  0
 42 54  1  0  0  0  0
 43 71  1  0  0  0  0
 44 46  1  0  0  0  0
 45 48  1  0  0  0  0
 46 56  1  0  0  0  0
 47 49  1  0  0  0  0
 47 50  1  0  0  0  0
 48 53  1  0  0  0  0
 49 55  1  0  0  0  0
 50 72  1  0  0  0  0
 51 55  1  0  0  0  0
 51 72  1  0  0  0  0
 52 56  1  0  0  0  0
 52 78  1  0  0  0  0
 53 75  1  0  0  0  0
 54 71  1  0  0  0  0
 55 70  1  0  0  0  0
 56 86  1  0  0  0  0
 59 67  1  0  0  0  0
 60 68  1  0  0  0  0
 61 68  1  0  0  0  0
 62 68  1  0  0  0  0
 63 79  1  0  0  0  0
 64 77  1  0  0  0  0
 65 78  1  0  0  0  0
 66 68  1  0  0  0  0
 66 76  1  0  0  0  0
 67 79  1  0  0  0  0
 69 70  1  0  0  0  0
M  CHG  2  78   1  79   1
M  ISO  4  40 100  56 101  77 100  86 101
M  END
> <Batch ID>
0035

> <Smiles>
C=C1CC[101CH:1]([101O:1]c2ccc3c(c2)CN(C(=O)C(NC(=O)C(C)NC)C(C)(C)C)C(C(=O)NC2CCCc4ccccc42)C3)CN1Cc1c(C)cc(C)cc1C[100NH:0][100C:0](=O)N1CCCC(n2nc(-c3ccc(Oc4ccc(F)cc4F)cc3)c(C(N)=O)c2N)C1

> <Shape>
0.234

> <Color>
0.173

> <Negative vol penalty>
0.000

$$$$

  -OEChem-04042321513D

 85 93  0     1  0  0  0  0  0999 V2000
  -31.9613  -21.6880   21.7119 C   0  0  0  0  0  0  0  0  0  0  0  0
  -30.6222  -22.0413   21.8429 C   0  0  0  0  0  0  0  0  0  0  0  0
  -29.4830  -26.8252   18.6286 C   0  0  0  0  0  0  0  0  0  0  0  0
  -29.0265  -25.8221   20.7786 C   0  0  0  0  0  0  0  0  0  0  0  0
  -32.3206  -20.6077   20.9071 C   0  0  0  0  0  0  0  0  0  0  0  0
  -29.6414  -21.3151   21.1683 C   0  0  0  0  0  0  0  0  0  0  0  0
  -25.6492  -20.2548   24.0979 C   0  0  0  0  0  0  0  0  0  0  0  0
  -30.7873  -26.3333   18.6760 C   0  0  0  0  0  0  0  0  0  0  0  0
  -30.3309  -25.3302   20.8260 C   0  0  0  0  0  0  0  0  0  0  0  0
  -24.7296  -21.2797   24.3164 C   0  0  0  0  0  0  0  0  0  0  0  0
  -34.1279  -25.0361   18.0651 C   0  0  0  0  0  0  0  0  0  0  0  0
  -34.6381  -24.4390   16.9124 C   0  0  0  0  0  0  0  0  0  0  0  0
  -23.2817  -20.3305   22.6365 C   0  0  0  0  0  0  0  0  0  0  0  0
  -18.1734  -26.8973   21.4718 C   0  0  0  0  0  0  0  0  0  0  0  0
  -32.8720  -22.7919   16.9838 C   0  0  0  0  0  0  0  0  0  0  0  0
  -28.6025  -26.5697   19.6800 C   0  0  0  0  0  0  0  0  0  0  0  0
  -26.1236  -26.4372   19.0928 C   0  0  0  0  0  0  0  0  0  0  0  0
  -31.3429  -19.8618   20.2300 C   0  0  0  0  0  0  0  0  0  0  0  0
  -25.3964  -19.2645   23.1377 C   0  0  0  0  0  0  0  0  0  0  0  0
  -29.9880  -20.2245   20.3526 C   0  0  0  0  0  0  0  0  0  0  0  0
  -24.1984  -19.2927   22.4096 C   0  0  0  0  0  0  0  0  0  0  0  0
  -18.7516  -28.1563   21.6338 C   0  0  0  0  0  0  0  0  0  0  0  0
  -19.5825  -28.4069   22.7258 C   0  0  0  0  0  0  0  0  0  0  0  0
  -19.2570  -26.1395   23.4939 C   0  0  0  0  0  0  0  0  0  0  0  0
  -31.2113  -25.5858   19.7747 C   0  0  0  0  0  0  0  0  0  0  0  0
  -23.5470  -21.3193   23.5836 C   0  0  0  0  0  0  0  0  0  0  0  0
  -32.9897  -24.5110   18.6773 C   0  0  0  0  0  0  0  0  0  0  0  0
  -34.0101  -23.3169   16.3717 C   0  0  0  0  0  0  0  0  0  0  0  0
  -32.3618  -23.3890   18.1366 C   0  0  0  0  0  0  0  0  0  0  0  0
  -18.4261  -25.8889   22.4019 C   0  0  0  0  0  0  0  0  0  0  0  0
  -19.8352  -27.3985   23.6559 C   0  0  0  0  0  0  0  0  0  0  0  0
  -27.2552  -27.0780   19.6318 C   0  0  0  0  0  0  0  0  0  0  0  0
  -25.0973  -27.3281   19.2915 C   0  0  0  0  0  0  0  0  0  0  0  0
  -26.0102  -25.1515   18.4684 C   0  0  0  0  0  0  0  0  0  0  0  0
  -26.8203  -18.3251   20.4556 C   0  0  0  0  0  0  0  0  0  0  0  0
  -24.5929  -15.9692   20.5584 C   0  0  0  0  0  0  0  0  0  0  0  0
  -21.5394  -14.9150   21.6592 C   0  0  0  0  0  0  0  0  0  0  0  0
  -22.3503  -30.9428   22.5370 C   0  0  0  0  0  0  0  0  0  0  0  0
  -31.7836  -18.7315   19.3339 C   0  0  0  0  0  0  0  0  0  0  0  0
  -26.3862  -18.1506   22.9329 C   0  0  0  0  0  0  0  0  0  0  0  0
  -23.8703  -18.2420   21.3816 C   0  0  0  0  0  0  0  0  0  0  0  0
  -30.6518  -17.7816   18.9504 C   0  0  0  0  0  0  0  0  0  0  0  0
  -25.1773  -32.1697   20.7539 C   0  0  0  0  0  0  0  0  0  0  0  0
  -29.4195  -18.5679   18.5146 C   0  0  0  0  0  0  0  0  0  0  0  0
  -25.8794  -30.9019   20.2643 C   0  0  0  0  0  0  0  0  0  0  0  0
  -24.5661  -31.9769   22.1400 C   0  0  0  0  0  0  0  0  0  0  0  0
  -24.3673  -29.5478   21.7738 C   0  0  0  0  0  0  0  0  0  0  0  0
  -28.8930  -19.4458   19.6564 C   0  0  1  0  0  0  0  0  0  0  0  0
  -26.2604  -17.4831   21.5669 C   0  0  1  0  0  0  0  0  0  0  0  0
  -24.9513  -29.6758   20.3565 C   0  0  2  0  0  0  0  0  0  0  0  0
  -18.4635  -29.2175   20.6224 C   0  0  0  0  0  0  0  0  0  0  0  0
  -19.9746  -12.9562   21.5500 C   0  0  0  0  0  0  0  0  0  0  0  0
  -23.8142  -16.7529   17.7142 C   0  0  0  0  0  0  0  0  0  0  0  0
  -21.6921  -15.4585   18.0129 C   0  0  0  0  0  0  0  0  0  0  0  0
  -23.8919  -14.2885   18.1330 C   0  0  0  0  0  0  0  0  0  0  0  0
  -21.6340  -14.5279   24.5918 C   0  0  0  0  0  0  0  0  0  0  0  0
  -20.1923  -29.7660   22.8795 C   0  0  0  0  0  0  0  0  0  0  0  0
  -19.5253  -25.0512   24.4911 C   0  0  0  0  0  0  0  0  0  0  0  0
  -21.2010  -23.4198   25.3682 C   0  0  0  0  0  0  0  0  0  0  0  0
  -22.5916  -22.8756   25.1072 C   0  0  0  0  0  0  0  0  0  1  0  0
  -23.1880  -15.8024   20.0316 C   0  0  1  0  0  0  0  0  0  0  0  0
  -21.0996  -13.6239   22.3255 C   0  0  2  0  0  0  0  0  0  0  0  0
  -23.1533  -15.5966   18.4908 C   0  0  0  0  0  0  0  0  0  0  0  0
  -26.9746  -28.2830   20.1350 N   0  0  0  0  0  0  0  0  0  0  0  0
  -25.6549  -28.4065   19.9129 N   0  0  0  0  0  0  0  0  0  0  0  0
  -24.8728  -17.1769   21.2132 N   0  0  0  0  0  0  0  0  0  0  0  0
  -23.6956  -30.7988   22.1594 N   0  0  0  0  0  0  0  0  0  0  0  0
  -23.7813  -27.2864   18.9935 N   0  0  0  0  0  0  0  0  0  0  0  0
  -27.1634  -24.3645   18.3453 N   0  0  0  0  0  0  0  0  0  0  0  0
  -28.1555  -18.6455   20.6104 N   0  0  0  0  0  0  0  0  0  0  0  0
  -22.5932  -14.7099   20.7939 N   0  0  0  0  0  0  0  0  0  0  0  0
  -21.5934  -29.7777   22.5222 N   0  0  0  0  0  0  0  0  0  0  0  0
  -20.6202  -13.8930   23.7107 N   0  3  0  0  0  0  0  0  0  0  0  0
  -20.8836  -24.4590   24.3564 N   0  3  0  0  0  0  0  0  0  0  0  0
  -24.9218  -24.7204   18.0179 O   0  0  0  0  0  0  0  0  0  0  0  0
  -26.0950  -18.6582   19.5257 O   0  0  0  0  0  0  0  0  0  0  0  0
  -25.4098  -15.0584   20.4011 O   0  0  0  0  0  0  0  0  0  0  0  0
  -20.9996  -15.9966   21.8810 O   0  0  0  0  0  0  0  0  0  0  0  0
  -21.8588  -32.0301   22.8581 O   0  0  0  0  0  0  0  0  0  0  0  0
  -32.4839  -25.1054   19.8212 O   0  0  0  0  0  0  0  0  0  0  0  0
  -22.6480  -22.3190   23.7944 O   0  0  0  0  0  0  0  0  0  1  0  0
  -34.4993  -22.7446   15.2639 F   0  0  0  0  0  0  0  0  0  0  0  0
  -31.2674  -22.8807   18.7196 F   0  0  0  0  0  0  0  0  0  0  0  0
  -17.6893  -24.3453   22.1622 Cl  0  0  0  0  0  0  0  0  0  0  0  0
  -20.8682  -27.7128   25.0120 Cl  0  0  0  0  0  0  0  0  0  0  0  0
  1  2  1  0  0  0  0
  1  5  2  0  0  0  0
  2  6  2  0  0  0  0
  3  8  2  0  0  0  0
  3 16  1  0  0  0  0
  4  9  1  0  0  0  0
  4 16  2  0  0  0  0
  5 18  1  0  0  0  0
  6 20  1  0  0  0  0
  7 10  2  0  0  0  0
  7 19  1  0  0  0  0
  8 25  1  0  0  0  0
  9 25  2  0  0  0  0
 10 26  1  0  0  0  0
 11 12  2  0  0  0  0
 11 27  1  0  0  0  0
 12 28  1  0  0  0  0
 13 21  1  0  0  0  0
 13 26  2  0  0  0  0
 14 22  1  0  0  0  0
 14 30  2  0  0  0  0
 15 28  2  0  0  0  0
 15 29  1  0  0  0  0
 16 32  1  0  0  0  0
 17 32  1  0  0  0  0
 17 33  2  0  0  0  0
 17 34  1  0  0  0  0
 18 20  2  0  0  0  0
 18 39  1  0  0  0  0
 19 21  2  0  0  0  0
 19 40  1  0  0  0  0
 20 48  1  0  0  0  0
 21 41  1  0  0  0  0
 22 23  2  0  0  0  0
 22 51  1  0  0  0  0
 23 31  1  0  0  0  0
 23 57  1  0  0  0  0
 24 30  1  0  0  0  0
 24 31  2  0  0  0  0
 24 58  1  0  0  0  0
 25 80  1  0  0  0  0
 26 81  1  0  0  0  0
 27 29  2  0  0  0  0
 27 80  1  0  0  0  0
 28 82  1  0  0  0  0
 29 83  1  0  0  0  0
 30 84  1  0  0  0  0
 31 85  1  0  0  0  0
 32 64  2  0  0  0  0
 33 65  1  0  0  0  0
 33 68  1  0  0  0  0
 34 69  1  0  0  0  0
 34 75  2  0  0  0  0
 35 49  1  0  0  0  0
 35 70  1  0  0  0  0
 35 76  2  0  0  0  0
 36 61  1  0  0  0  0
 36 66  1  0  0  0  0
 36 77  2  0  0  0  0
 37 62  1  0  0  0  0
 37 71  1  0  0  0  0
 37 78  2  0  0  0  0
 38 67  1  0  0  0  0
 38 72  1  0  0  0  0
 38 79  2  0  0  0  0
 39 42  1  0  0  0  0
 40 49  1  0  0  0  0
 41 66  1  0  0  0  0
 42 44  1  0  0  0  0
 43 45  1  0  0  0  0
 43 46  1  0  0  0  0
 44 48  1  0  0  0  0
 45 50  1  0  0  0  0
 46 67  1  0  0  0  0
 47 50  1  0  0  0  0
 47 67  1  0  0  0  0
 48 70  1  0  0  0  0
 49 66  1  0  0  0  0
 50 65  1  0  0  0  0
 52 62  1  0  0  0  0
 53 63  1  0  0  0  0
 54 63  1  0  0  0  0
 55 63  1  0  0  0  0
 56 73  1  0  0  0  0
 57 72  1  0  0  0  0
 58 74  1  0  0  0  0
 59 60  1  0  0  0  0
 59 74  1  0  0  0  0
 60 81  1  0  0  0  0
 61 63  1  0  0  0  0
 61 71  1  0  0  0  0
 62 73  1  0  0  0  0
 64 65  1  0  0  0  0
M  CHG  2  73   1  74   1
M  ISO  4  38 100  60 101  72 100  81 101
M  END
> <Batch ID>
0035

> <Smiles>
CNC(C)C(=O)NC(C(=O)N1Cc2cc([101O:1][101CH2:1]CNCc3c(Cl)cc(C)c(C[100NH:0][100C:0](=O)N4CCCC(n5nc(-c6ccc(Oc7ccc(F)cc7F)cc6)c(C(N)=O)c5N)C4)c3Cl)ccc2CC1C(=O)NC1CCCc2ccccc21)C(C)(C)C

> <Shape>
0.212

> <Color>
0.068

> <Negative vol penalty>
0.000

$$$$

  -OEChem-04042321513D

 90 99  0     1  0  0  0  0  0999 V2000
  -29.0186  -34.9295   13.8215 C   0  0  0  0  0  0  0  0  0  0  0  0
  -28.1978  -33.8263   14.0332 C   0  0  0  0  0  0  0  0  0  0  0  0
  -22.6706  -10.1827   20.1939 C   0  0  0  0  0  0  0  0  0  0  0  0
  -24.3058   -9.4590   21.8185 C   0  0  0  0  0  0  0  0  0  0  0  0
  -30.3675  -34.7457   13.5205 C   0  0  0  0  0  0  0  0  0  0  0  0
  -28.7253  -32.5387   13.9430 C   0  0  0  0  0  0  0  0  0  0  0  0
  -28.4060  -28.0007   19.5283 C   0  0  0  0  0  0  0  0  0  0  0  0
  -31.4082  -19.4325   19.2853 C   0  0  0  0  0  0  0  0  0  0  0  0
  -31.5959  -18.3740   20.1741 C   0  0  0  0  0  0  0  0  0  0  0  0
  -21.9375   -9.0163   20.4121 C   0  0  0  0  0  0  0  0  0  0  0  0
  -23.5727   -8.2926   22.0368 C   0  0  0  0  0  0  0  0  0  0  0  0
  -28.1963  -27.0032   20.4808 C   0  0  0  0  0  0  0  0  0  0  0  0
  -20.8073   -7.3744   23.7485 C   0  0  0  0  0  0  0  0  0  0  0  0
  -20.6078   -6.9739   25.0696 C   0  0  0  0  0  0  0  0  0  0  0  0
  -29.4439  -25.4343   19.1279 C   0  0  0  0  0  0  0  0  0  0  0  0
  -21.7443   -4.8920   24.6102 C   0  0  0  0  0  0  0  0  0  0  0  0
  -23.8548  -10.4040   20.8970 C   0  0  0  0  0  0  0  0  0  0  0  0
  -24.1797  -12.9340   20.8639 C   0  0  0  0  0  0  0  0  0  0  0  0
  -30.9140  -33.4554   13.4360 C   0  0  0  0  0  0  0  0  0  0  0  0
  -29.1494  -27.7226   18.3779 C   0  0  0  0  0  0  0  0  0  0  0  0
  -30.0825  -32.3375   13.6392 C   0  0  0  0  0  0  0  0  0  0  0  0
  -29.6677  -26.4328   18.1763 C   0  0  0  0  0  0  0  0  0  0  0  0
  -30.1910  -20.1133   19.2586 C   0  0  0  0  0  0  0  0  0  0  0  0
  -30.5665  -17.9962   21.0362 C   0  0  0  0  0  0  0  0  0  0  0  0
  -29.1616  -19.7355   20.1206 C   0  0  0  0  0  0  0  0  0  0  0  0
  -22.3885   -8.0712   21.3336 C   0  0  0  0  0  0  0  0  0  0  0  0
  -28.7138  -25.7231   20.2809 C   0  0  0  0  0  0  0  0  0  0  0  0
  -21.4753   -6.5337   22.8582 C   0  0  0  0  0  0  0  0  0  0  0  0
  -21.0763   -5.7328   25.5005 C   0  0  0  0  0  0  0  0  0  0  0  0
  -21.9438   -5.2925   23.2890 C   0  0  0  0  0  0  0  0  0  0  0  0
  -29.3493  -18.6770   21.0094 C   0  0  0  0  0  0  0  0  0  0  0  0
  -24.6128  -11.6085   20.6715 C   0  0  0  0  0  0  0  0  0  0  0  0
  -25.2619  -13.7033   20.5122 C   0  0  0  0  0  0  0  0  0  0  0  0
  -28.2562  -22.3596   21.5599 C   0  0  0  0  0  0  0  0  0  0  0  0
  -30.7098  -21.0853   23.9767 C   0  0  0  0  0  0  0  0  0  0  0  0
  -29.2894  -22.3184   22.4173 C   0  0  0  0  0  0  0  0  0  0  0  0
  -29.6808  -21.1256   23.1230 C   0  0  0  0  0  0  0  0  0  0  0  0
  -22.9126  -13.4260   21.3199 C   0  0  0  0  0  0  0  0  0  0  0  0
  -30.5838  -29.0064   15.1576 C   0  0  0  0  0  0  0  0  0  0  0  0
  -32.7088  -27.1875   16.4171 C   0  0  0  0  0  0  0  0  0  0  0  0
  -35.6021  -25.6811   17.4155 C   0  0  0  0  0  0  0  0  0  0  0  0
  -30.7416  -14.7505   20.6572 C   0  0  0  0  0  0  0  0  0  0  0  0
  -32.3672  -33.3056   13.0614 C   0  0  0  0  0  0  0  0  0  0  0  0
  -29.3480  -28.7494   17.2962 C   0  0  0  0  0  0  0  0  0  0  0  0
  -30.4318  -26.1699   16.9074 C   0  0  0  0  0  0  0  0  0  0  0  0
  -32.9315  -31.9176   13.3534 C   0  0  0  0  0  0  0  0  0  0  0  0
  -29.5829  -12.4469   18.2021 C   0  0  0  0  0  0  0  0  0  0  0  0
  -25.5177  -22.5374   20.7302 C   0  0  0  0  0  0  0  0  0  0  0  0
  -31.9756  -30.8374   12.8571 C   0  0  0  0  0  0  0  0  0  0  0  0
  -26.3113  -23.8128   20.9908 C   0  0  0  0  0  0  0  0  0  0  0  0
  -28.1538  -12.1283   18.6451 C   0  0  0  0  0  0  0  0  0  0  0  0
  -30.5165  -12.6299   19.3967 C   0  0  0  0  0  0  0  0  0  0  0  0
  -28.6312  -13.2978   20.8367 C   0  0  0  0  0  0  0  0  0  0  0  0
  -26.0298  -21.3792   21.5802 C   0  0  0  0  0  0  0  0  0  0  0  0
  -30.6232  -30.9255   13.5745 C   0  0  1  0  0  0  0  0  0  0  0  0
  -27.8102  -23.5874   20.7982 C   0  0  1  0  0  0  0  0  0  1  0  0
  -30.7200  -28.6419   16.6068 C   0  0  1  0  0  0  0  0  0  0  0  0
  -27.6407  -13.1597   19.6679 C   0  0  2  0  0  0  0  0  0  0  0  0
  -30.0179  -21.2426   18.2964 C   0  0  0  0  0  0  0  0  0  0  0  0
  -37.7056  -24.6581   16.5066 C   0  0  0  0  0  0  0  0  0  0  0  0
  -31.1436  -24.6979   15.6071 C   0  0  0  0  0  0  0  0  0  0  0  0
  -33.2991  -23.4245   15.6218 C   0  0  0  0  0  0  0  0  0  0  0  0
  -32.9875  -25.3274   14.0392 C   0  0  0  0  0  0  0  0  0  0  0  0
  -37.3052  -27.6561   18.8148 C   0  0  0  0  0  0  0  0  0  0  0  0
  -30.8130  -16.8552   21.9704 C   0  0  0  0  0  0  0  0  0  0  0  0
  -27.8600  -20.4803   20.0737 C   0  0  0  0  0  0  0  0  0  0  0  0
  -33.2985  -25.8024   16.5029 C   0  0  1  0  0  0  0  0  0  0  0  0
  -37.0502  -25.9261   17.0313 C   0  0  2  0  0  0  0  0  0  0  0  0
  -32.6734  -24.8270   15.4660 C   0  0  0  0  0  0  0  0  0  0  0  0
  -25.8719  -11.5361   20.2315 N   0  0  0  0  0  0  0  0  0  0  0  0
  -26.2392  -12.8259   20.1445 N   0  0  0  0  0  0  0  0  0  0  0  0
  -31.3276  -27.3003   16.6170 N   0  0  0  0  0  0  0  0  0  0  0  0
  -29.9730  -13.6220   20.3275 N   0  0  0  0  0  0  0  0  0  0  0  0
  -25.4632  -15.0379   20.4846 N   0  0  0  0  0  0  0  0  0  0  0  0
  -21.9112  -12.4987   21.6387 N   0  0  0  0  0  0  0  0  0  0  0  0
  -30.7175  -30.3578   14.9024 N   0  0  0  0  0  0  0  0  0  0  0  0
  -34.7427  -25.9651   16.3754 N   0  0  0  0  0  0  0  0  0  0  0  0
  -30.1495  -15.6443   21.5411 N   0  0  0  0  0  0  0  0  0  0  0  0
  -27.5078  -21.1344   21.3814 N   0  3  1  0  0  0  0  0  0  0  0  0
  -37.8257  -26.4023   18.2114 N   0  3  0  0  0  0  0  0  0  0  0  0
  -22.6698  -14.6522   21.4254 O   0  0  0  0  0  0  0  0  0  0  0  0
  -30.3743  -28.1268   14.3305 O   0  0  0  0  0  0  0  0  0  0  0  0
  -33.4494  -28.1443   16.1740 O   0  0  0  0  0  0  0  0  0  0  0  0
  -35.2672  -25.2747   18.5260 O   0  0  0  0  0  0  0  0  0  0  0  0
  -31.8696  -14.9497   20.1937 O   0  0  0  0  0  0  0  0  0  0  0  0
  -21.6733   -6.9331   21.5471 O   0  0  0  0  0  0  0  0  0  0  0  0
  -28.5092  -24.7553   21.2169 O   0  0  0  0  0  0  0  0  0  1  0  0
  -20.8860   -5.3489   26.7696 F   0  0  0  0  0  0  0  0  0  0  0  0
  -22.5873   -4.4811   22.4386 F   0  0  0  0  0  0  0  0  0  0  0  0
  -28.0716  -18.2021   22.0786 Cl  0  0  0  0  0  0  0  0  0  0  0  0
  1  2  1  0  0  0  0
  1  5  2  0  0  0  0
  2  6  2  0  0  0  0
  3 10  2  0  0  0  0
  3 17  1  0  0  0  0
  4 11  1  0  0  0  0
  4 17  2  0  0  0  0
  5 19  1  0  0  0  0
  6 21  1  0  0  0  0
  7 12  2  0  0  0  0
  7 20  1  0  0  0  0
  8  9  1  0  0  0  0
  8 23  2  0  0  0  0
  9 24  2  0  0  0  0
 10 26  1  0  0  0  0
 11 26  2  0  0  0  0
 12 27  1  0  0  0  0
 13 14  2  0  0  0  0
 13 28  1  0  0  0  0
 14 29  1  0  0  0  0
 15 22  1  0  0  0  0
 15 27  2  0  0  0  0
 16 29  2  0  0  0  0
 16 30  1  0  0  0  0
 17 32  1  0  0  0  0
 18 32  1  0  0  0  0
 18 33  2  0  0  0  0
 18 38  1  0  0  0  0
 19 21  2  0  0  0  0
 19 43  1  0  0  0  0
 20 22  2  0  0  0  0
 20 44  1  0  0  0  0
 21 55  1  0  0  0  0
 22 45  1  0  0  0  0
 23 25  1  0  0  0  0
 23 59  1  0  0  0  0
 24 31  1  0  0  0  0
 24 65  1  0  0  0  0
 25 31  2  0  0  0  0
 25 66  1  0  0  0  0
 26 86  1  0  0  0  0
 27 87  1  0  0  0  0
 28 30  2  0  0  0  0
 28 86  1  0  0  0  0
 29 88  1  0  0  0  0
 30 89  1  0  0  0  0
 31 90  1  0  0  0  0
 32 70  2  0  0  0  0
 33 71  1  0  0  0  0
 33 74  1  0  0  0  0
 34 36  2  0  0  0  0
 34 56  1  0  0  0  0
 34 79  1  0  0  0  0
 35 37  2  0  0  0  0
 36 37  1  0  0  0  0
 38 75  1  0  0  0  0
 38 81  2  0  0  0  0
 39 57  1  0  0  0  0
 39 76  1  0  0  0  0
 39 82  2  0  0  0  0
 40 67  1  0  0  0  0
 40 72  1  0  0  0  0
 40 83  2  0  0  0  0
 41 68  1  0  0  0  0
 41 77  1  0  0  0  0
 41 84  2  0  0  0  0
 42 73  1  0  0  0  0
 42 78  1  0  0  0  0
 42 85  2  0  0  0  0
 43 46  1  0  0  0  0
 44 57  1  0  0  0  0
 45 72  1  0  0  0  0
 46 49  1  0  0  0  0
 47 51  1  0  0  0  0
 47 52  1  0  0  0  0
 48 50  1  0  0  0  0
 48 54  1  0  0  0  0
 49 55  1  0  0  0  0
 50 56  1  0  0  0  0
 51 58  1  0  0  0  0
 52 73  1  0  0  0  0
 53 58  1  0  0  0  0
 53 73  1  0  0  0  0
 54 79  1  0  0  0  0
 55 76  1  0  0  0  0
 56 87  1  0  0  0  0
 57 72  1  0  0  0  0
 58 71  1  0  0  0  0
 60 68  1  0  0  0  0
 61 69  1  0  0  0  0
 62 69  1  0  0  0  0
 63 69  1  0  0  0  0
 64 80  1  0  0  0  0
 65 78  1  0  0  0  0
 66 79  1  0  0  0  0
 67 69  1  0  0  0  0
 67 77  1  0  0  0  0
 68 80  1  0  0  0  0
 70 71  1  0  0  0  0
M  CHG  2  79   1  80   1
M  ISO  4  42 100  56 101  78 100  87 101
M  END
> <Batch ID>
0035

> <Smiles>
C=CC=C1N(Cc2c(C)ccc(C[100NH:0][100C:0](=O)N3CCCC(n4nc(-c5ccc(Oc6ccc(F)cc6F)cc5)c(C(N)=O)c4N)C3)c2Cl)CCC[101CH:1]1[101O:1]c1ccc2c(c1)CN(C(=O)C(NC(=O)C(C)NC)C(C)(C)C)C(C(=O)NC1CCCc3ccccc31)C2

> <Shape>
0.265

> <Color>
0.188

> <Negative vol penalty>
0.000

$$$$

  -OEChem-04042321513D

 87 96  0     1  0  0  0  0  0999 V2000
  -22.7184   -8.2776   21.0984 C   0  0  0  0  0  0  0  0  0  0  0  0
  -23.5829   -8.8489   20.1702 C   0  0  0  0  0  0  0  0  0  0  0  0
  -25.3476  -26.9526   19.8280 C   0  0  0  0  0  0  0  0  0  0  0  0
  -27.3574  -28.2916   19.8986 C   0  0  0  0  0  0  0  0  0  0  0  0
  -22.1643   -9.0627   22.1086 C   0  0  0  0  0  0  0  0  0  0  0  0
  -23.8930  -10.2060   20.2510 C   0  0  0  0  0  0  0  0  0  0  0  0
  -28.8389  -11.1081   19.6431 C   0  0  0  0  0  0  0  0  0  0  0  0
  -24.5784  -28.0958   20.0451 C   0  0  0  0  0  0  0  0  0  0  0  0
  -26.5882  -29.4347   20.1157 C   0  0  0  0  0  0  0  0  0  0  0  0
  -29.3360  -11.0795   18.3409 C   0  0  0  0  0  0  0  0  0  0  0  0
  -23.7162  -30.0579   22.6587 C   0  0  0  0  0  0  0  0  0  0  0  0
  -22.6876  -29.9773   23.5973 C   0  0  0  0  0  0  0  0  0  0  0  0
  -29.2645  -13.4896   18.2670 C   0  0  0  0  0  0  0  0  0  0  0  0
  -28.2085  -17.1805   15.6572 C   0  0  0  0  0  0  0  0  0  0  0  0
  -29.6749  -18.8940   14.0152 C   0  0  0  0  0  0  0  0  0  0  0  0
  -21.0786  -30.5281   21.8813 C   0  0  0  0  0  0  0  0  0  0  0  0
  -26.7371  -27.0505   19.7548 C   0  0  0  0  0  0  0  0  0  0  0  0
  -27.5954  -24.7212   20.3423 C   0  0  0  0  0  0  0  0  0  0  0  0
  -22.4754  -10.4280   22.2077 C   0  0  0  0  0  0  0  0  0  0  0  0
  -28.5401  -12.3293   20.2642 C   0  0  0  0  0  0  0  0  0  0  0  0
  -23.3415  -11.0104   21.2627 C   0  0  0  0  0  0  0  0  0  0  0  0
  -28.7662  -13.5311   19.5781 C   0  0  0  0  0  0  0  0  0  0  0  0
  -28.5543  -16.7825   14.3658 C   0  0  0  0  0  0  0  0  0  0  0  0
  -28.5958  -18.4353   16.1275 C   0  0  0  0  0  0  0  0  0  0  0  0
  -29.2875  -17.6392   13.5448 C   0  0  0  0  0  0  0  0  0  0  0  0
  -29.3291  -19.2920   15.3065 C   0  0  0  0  0  0  0  0  0  0  0  0
  -25.1987  -29.3368   20.1889 C   0  0  0  0  0  0  0  0  0  0  0  0
  -29.5462  -12.2702   17.6516 C   0  0  0  0  0  0  0  0  0  0  0  0
  -23.4261  -30.3737   21.3314 C   0  0  0  0  0  0  0  0  0  0  0  0
  -21.3688  -30.2124   23.2086 C   0  0  0  0  0  0  0  0  0  0  0  0
  -22.1073  -30.6088   20.9427 C   0  0  0  0  0  0  0  0  0  0  0  0
  -27.5323  -25.8699   19.5311 C   0  0  0  0  0  0  0  0  0  0  0  0
  -28.4863  -23.8960   19.7005 C   0  0  0  0  0  0  0  0  0  0  0  0
  -29.9050  -13.9799   14.6785 C   0  0  0  0  0  0  0  0  0  0  0  0
  -31.0738  -14.5182   15.0638 C   0  0  0  0  0  0  0  0  0  0  0  0
  -26.9099  -24.4263   21.5666 C   0  0  0  0  0  0  0  0  0  0  0  0
  -25.9011  -13.6705   21.4221 C   0  0  0  0  0  0  0  0  0  0  0  0
  -27.9713  -15.9570   22.4263 C   0  0  0  0  0  0  0  0  0  0  0  0
  -30.8470  -17.6767   21.0883 C   0  0  0  0  0  0  0  0  0  0  0  0
  -30.4631  -21.5285   15.0648 C   0  0  0  0  0  0  0  0  0  0  0  0
  -21.8148  -11.2464   23.2886 C   0  0  0  0  0  0  0  0  0  0  0  0
  -28.0297  -12.3443   21.6790 C   0  0  0  0  0  0  0  0  0  0  0  0
  -28.4806  -14.8694   20.2075 C   0  0  0  0  0  0  0  0  0  0  0  0
  -22.4883  -12.5951   23.5289 C   0  0  0  0  0  0  0  0  0  0  0  0
  -31.6211  -24.8068   15.8320 C   0  0  0  0  0  0  0  0  0  0  0  0
  -28.1366  -12.3307   13.1382 C   0  0  0  0  0  0  0  0  0  0  0  0
  -22.7654  -13.2971   22.2033 C   0  0  0  0  0  0  0  0  0  0  0  0
  -28.8579  -11.7413   14.3452 C   0  0  0  0  0  0  0  0  0  0  0  0
  -30.6657  -25.2812   16.9295 C   0  0  0  0  0  0  0  0  0  0  0  0
  -30.9039  -23.9578   14.7838 C   0  0  0  0  0  0  0  0  0  0  0  0
  -29.1812  -23.3009   16.4178 C   0  0  0  0  0  0  0  0  0  0  0  0
  -28.9414  -13.4613   12.5057 C   0  0  0  0  0  0  0  0  0  0  0  0
  -23.7216  -12.4735   21.3321 C   0  0  1  0  0  0  0  0  0  0  0  0
  -29.2159  -12.8218   15.3645 C   0  0  1  0  0  0  0  0  0  1  0  0
  -27.2750  -13.6232   22.0285 C   0  0  1  0  0  0  0  0  0  0  0  0
  -29.8709  -24.1058   17.5314 C   0  0  2  0  0  0  0  0  0  0  0  0
  -28.2117  -18.8354   17.5151 C   0  0  0  0  0  0  0  0  0  0  0  0
  -29.6690  -17.2348   12.1586 C   0  0  0  0  0  0  0  0  0  0  0  0
  -32.8013  -18.7369   22.2519 C   0  0  0  0  0  0  0  0  0  0  0  0
  -26.3215  -18.5171   22.2419 C   0  0  0  0  0  0  0  0  0  0  0  0
  -28.4402  -19.7659   21.7729 C   0  0  0  0  0  0  0  0  0  0  0  0
  -28.1511  -18.5755   23.9460 C   0  0  0  0  0  0  0  0  0  0  0  0
  -32.7900  -16.0710   19.5374 C   0  0  0  0  0  0  0  0  0  0  0  0
  -28.1263  -15.4285   13.8816 C   0  0  0  0  0  0  0  0  0  0  0  0
  -28.5240  -17.2322   21.8368 C   0  0  1  0  0  0  0  0  0  0  0  0
  -32.2918  -17.5043   21.5213 C   0  0  2  0  0  0  0  0  0  0  0  0
  -27.8513  -18.5009   22.4329 C   0  0  0  0  0  0  0  0  0  0  0  0
  -28.3205  -25.7859   18.4560 N   0  0  0  0  0  0  0  0  0  0  0  0
  -28.8873  -24.5745   18.5873 N   0  0  0  0  0  0  0  0  0  0  0  0
  -27.9769  -14.8314   21.5904 N   0  0  0  0  0  0  0  0  0  0  0  0
  -30.1761  -22.8616   15.4269 N   0  0  0  0  0  0  0  0  0  0  0  0
  -28.9579  -22.6637   19.9854 N   0  0  0  0  0  0  0  0  0  0  0  0
  -26.0300  -25.3849   22.0873 N   0  0  0  0  0  0  0  0  0  0  0  0
  -29.7319  -20.5703   15.7662 N   0  0  0  0  0  0  0  0  0  0  0  0
  -25.0839  -12.6215   21.7979 N   0  0  0  0  0  0  0  0  0  0  0  0
  -29.9694  -17.1769   22.0270 N   0  0  0  0  0  0  0  0  0  0  0  0
  -29.2831  -14.5458   13.5013 N   0  3  1  0  0  0  0  0  0  0  0  0
  -33.1630  -17.2670   20.3358 N   0  3  0  0  0  0  0  0  0  0  0  0
  -27.0852  -23.3515   22.1891 O   0  0  0  0  0  0  0  0  0  0  0  0
  -25.6039  -14.5913   20.6701 O   0  0  0  0  0  0  0  0  0  0  0  0
  -27.5567  -15.9578   23.5880 O   0  0  0  0  0  0  0  0  0  0  0  0
  -30.5288  -18.2055   20.0255 O   0  0  0  0  0  0  0  0  0  0  0  0
  -31.3157  -21.2558   14.2159 O   0  0  0  0  0  0  0  0  0  0  0  0
  -24.4484  -30.4525   20.4006 O   0  0  0  0  0  0  0  0  0  0  0  0
  -30.0306  -12.2451   16.3801 O   0  0  0  0  0  0  0  0  0  1  0  0
  -20.3809  -30.1335   24.1097 F   0  0  0  0  0  0  0  0  0  0  0  0
  -21.8223  -30.9114   19.6687 F   0  0  0  0  0  0  0  0  0  0  0  0
  1  2  1  0  0  0  0
  1  5  2  0  0  0  0
  2  6  2  0  0  0  0
  3  8  2  0  0  0  0
  3 17  1  0  0  0  0
  4  9  1  0  0  0  0
  4 17  2  0  0  0  0
  5 19  1  0  0  0  0
  6 21  1  0  0  0  0
  7 10  2  0  0  0  0
  7 20  1  0  0  0  0
  8 27  1  0  0  0  0
  9 27  2  0  0  0  0
 10 28  1  0  0  0  0
 11 12  2  0  0  0  0
 11 29  1  0  0  0  0
 12 30  1  0  0  0  0
 13 22  1  0  0  0  0
 13 28  2  0  0  0  0
 14 23  1  0  0  0  0
 14 24  2  0  0  0  0
 15 25  1  0  0  0  0
 15 26  2  0  0  0  0
 16 30  2  0  0  0  0
 16 31  1  0  0  0  0
 17 32  1  0  0  0  0
 18 32  1  0  0  0  0
 18 33  2  0  0  0  0
 18 36  1  0  0  0  0
 19 21  2  0  0  0  0
 19 41  1  0  0  0  0
 20 22  2  0  0  0  0
 20 42  1  0  0  0  0
 21 53  1  0  0  0  0
 22 43  1  0  0  0  0
 23 25  2  0  0  0  0
 23 64  1  0  0  0  0
 24 26  1  0  0  0  0
 24 57  1  0  0  0  0
 25 58  1  0  0  0  0
 26 74  1  0  0  0  0
 27 84  1  0  0  0  0
 28 85  1  0  0  0  0
 29 31  2  0  0  0  0
 29 84  1  0  0  0  0
 30 86  1  0  0  0  0
 31 87  1  0  0  0  0
 32 68  2  0  0  0  0
 33 69  1  0  0  0  0
 33 72  1  0  0  0  0
 34 35  2  0  0  0  0
 34 54  1  0  0  0  0
 34 77  1  0  0  0  0
 36 73  1  0  0  0  0
 36 79  2  0  0  0  0
 37 55  1  0  0  0  0
 37 75  1  0  0  0  0
 37 80  2  0  0  0  0
 38 65  1  0  0  0  0
 38 70  1  0  0  0  0
 38 81  2  0  0  0  0
 39 66  1  0  0  0  0
 39 76  1  0  0  0  0
 39 82  2  0  0  0  0
 40 71  1  0  0  0  0
 40 74  1  0  0  0  0
 40 83  2  0  0  0  0
 41 44  1  0  0  0  0
 42 55  1  0  0  0  0
 43 70  1  0  0  0  0
 44 47  1  0  0  0  0
 45 49  1  0  0  0  0
 45 50  1  0  0  0  0
 46 48  1  0  0  0  0
 46 52  1  0  0  0  0
 47 53  1  0  0  0  0
 48 54  1  0  0  0  0
 49 56  1  0  0  0  0
 50 71  1  0  0  0  0
 51 56  1  0  0  0  0
 51 71  1  0  0  0  0
 52 77  1  0  0  0  0
 53 75  1  0  0  0  0
 54 85  1  0  0  0  0
 55 70  1  0  0  0  0
 56 69  1  0  0  0  0
 59 66  1  0  0  0  0
 60 67  1  0  0  0  0
 61 67  1  0  0  0  0
 62 67  1  0  0  0  0
 63 78  1  0  0  0  0
 64 77  1  0  0  0  0
 65 67  1  0  0  0  0
 65 76  1  0  0  0  0
 66 78  1  0  0  0  0
 68 69  1  0  0  0  0
M  CHG  2  77   1  78   1
M  ISO  4  40 100  54 101  74 100  85 101
M  END
> <Batch ID>
0035

> <Smiles>
C=C1N(Cc2cc(C)c([100NH:0][100C:0](=O)N3CCCC(n4nc(-c5ccc(Oc6ccc(F)cc6F)cc5)c(C(N)=O)c4N)C3)cc2C)CCC[101CH:1]1[101O:1]c1ccc2c(c1)CN(C(=O)C(NC(=O)C(C)NC)C(C)(C)C)C(C(=O)NC1CCCc3ccccc31)C2

> <Shape>
0.248

> <Color>
0.076

> <Negative vol penalty>
0.000

$$$$

  -OEChem-04042321513D

 88 97  0     1  0  0  0  0  0999 V2000
  -25.5201  -20.5665   28.1171 C   0  0  0  0  0  0  0  0  0  0  0  0
  -26.4228  -21.3160   27.3697 C   0  0  0  0  0  0  0  0  0  0  0  0
  -26.5027  -12.4646   21.1007 C   0  0  0  0  0  0  0  0  0  0  0  0
  -25.1259  -13.9500   19.7835 C   0  0  0  0  0  0  0  0  0  0  0  0
  -24.1848  -20.4903   27.7234 C   0  0  0  0  0  0  0  0  0  0  0  0
  -25.9909  -21.9891   26.2274 C   0  0  0  0  0  0  0  0  0  0  0  0
  -28.0081  -27.3856   24.1503 C   0  0  0  0  0  0  0  0  0  0  0  0
  -25.3699  -11.7359   21.4631 C   0  0  0  0  0  0  0  0  0  0  0  0
  -23.9930  -13.2213   20.1458 C   0  0  0  0  0  0  0  0  0  0  0  0
  -28.9314  -27.7246   23.1622 C   0  0  0  0  0  0  0  0  0  0  0  0
  -23.3719   -9.3853   20.0790 C   0  0  0  0  0  0  0  0  0  0  0  0
  -23.4517   -7.9938   20.0255 C   0  0  0  0  0  0  0  0  0  0  0  0
  -27.1305  -27.9944   21.5802 C   0  0  0  0  0  0  0  0  0  0  0  0
  -27.2291  -24.4080   18.8898 C   0  0  0  0  0  0  0  0  0  0  0  0
  -22.9656   -7.8750   22.3891 C   0  0  0  0  0  0  0  0  0  0  0  0
  -26.3807  -13.5716   20.2609 C   0  0  0  0  0  0  0  0  0  0  0  0
  -28.3814  -14.1067   18.7714 C   0  0  0  0  0  0  0  0  0  0  0  0
  -23.7342  -21.1706   26.5811 C   0  0  0  0  0  0  0  0  0  0  0  0
  -26.6375  -27.3377   23.8574 C   0  0  0  0  0  0  0  0  0  0  0  0
  -24.6485  -21.9209   25.8173 C   0  0  0  0  0  0  0  0  0  0  0  0
  -26.1915  -27.6570   22.5669 C   0  0  0  0  0  0  0  0  0  0  0  0
  -26.3169  -23.6113   19.5817 C   0  0  0  0  0  0  0  0  0  0  0  0
  -28.5456  -23.9778   18.7240 C   0  0  0  0  0  0  0  0  0  0  0  0
  -26.7212  -22.3845   20.1080 C   0  0  0  0  0  0  0  0  0  0  0  0
  -28.9499  -22.7509   19.2503 C   0  0  0  0  0  0  0  0  0  0  0  0
  -28.0377  -21.9542   19.9423 C   0  0  0  0  0  0  0  0  0  0  0  0
  -24.1150  -12.1142   20.9857 C   0  0  0  0  0  0  0  0  0  0  0  0
  -28.4930  -28.0263   21.8762 C   0  0  0  0  0  0  0  0  0  0  0  0
  -23.0891  -10.0217   21.2876 C   0  0  0  0  0  0  0  0  0  0  0  0
  -23.2485   -7.2386   21.1805 C   0  0  0  0  0  0  0  0  0  0  0  0
  -22.8859   -9.2666   22.4426 C   0  0  0  0  0  0  0  0  0  0  0  0
  -27.5504  -14.3251   19.8866 C   0  0  0  0  0  0  0  0  0  0  0  0
  -29.3438  -15.0823   18.8641 C   0  0  0  0  0  0  0  0  0  0  0  0
  -31.0316  -26.7240   18.2387 C   0  0  0  0  0  0  0  0  0  0  0  0
  -31.9734  -26.6048   17.2963 C   0  0  0  0  0  0  0  0  0  0  0  0
  -28.2913  -13.1111   17.7437 C   0  0  0  0  0  0  0  0  0  0  0  0
  -24.4141  -25.0664   23.8928 C   0  0  0  0  0  0  0  0  0  0  0  0
  -22.4272  -27.5445   23.2344 C   0  0  0  0  0  0  0  0  0  0  0  0
  -22.0372  -30.6844   21.9556 C   0  0  0  0  0  0  0  0  0  0  0  0
  -29.4499  -20.4821   21.4205 C   0  0  0  0  0  0  0  0  0  0  0  0
  -22.2914  -21.0201   26.1684 C   0  0  0  0  0  0  0  0  0  0  0  0
  -25.6520  -26.9963   24.9412 C   0  0  0  0  0  0  0  0  0  0  0  0
  -24.7293  -27.6400   22.2064 C   0  0  0  0  0  0  0  0  0  0  0  0
  -30.5212  -28.0111   18.8050 C   0  0  0  0  0  0  0  0  0  0  0  0
  -21.8350  -22.0674   25.1560 C   0  0  0  0  0  0  0  0  0  0  0  0
  -31.6560  -17.7677   22.0854 C   0  0  0  0  0  0  0  0  0  0  0  0
  -22.8618  -22.2113   24.0371 C   0  0  0  0  0  0  0  0  0  0  0  0
  -30.9319  -16.5579   21.4901 C   0  0  0  0  0  0  0  0  0  0  0  0
  -30.6800  -18.7573   22.7193 C   0  0  0  0  0  0  0  0  0  0  0  0
  -28.8597  -17.9845   21.2501 C   0  0  0  0  0  0  0  0  0  0  0  0
  -29.8511  -26.1126   20.1320 C   0  0  0  0  0  0  0  0  0  0  0  0
  -24.2130  -22.6853   24.5860 C   0  0  1  0  0  0  0  0  0  0  0  0
  -24.3235  -26.4782   24.3991 C   0  0  1  0  0  0  0  0  0  0  0  0
  -29.7958  -16.9910   20.5428 C   0  0  2  0  0  0  0  0  0  0  0  0
  -29.4367  -27.5300   19.7605 C   0  0  1  0  0  0  0  0  0  1  0  0
  -24.9137  -24.0962   19.7458 C   0  0  0  0  0  0  0  0  0  0  0  0
  -25.7362  -21.5347   20.8486 C   0  0  0  0  0  0  0  0  0  0  0  0
  -30.3648  -22.2966   19.0696 C   0  0  0  0  0  0  0  0  0  0  0  0
  -32.4545  -25.2996   16.7584 C   0  0  0  0  0  0  0  0  0  0  0  0
  -20.2887  -32.4311   21.5206 C   0  0  0  0  0  0  0  0  0  0  0  0
  -21.4252  -25.9415   20.8392 C   0  0  0  0  0  0  0  0  0  0  0  0
  -20.4280  -28.0515   19.9327 C   0  0  0  0  0  0  0  0  0  0  0  0
  -19.6378  -27.1379   22.1153 C   0  0  0  0  0  0  0  0  0  0  0  0
  -23.3830  -32.6383   23.7248 C   0  0  0  0  0  0  0  0  0  0  0  0
  -29.5062  -24.8536   17.9749 C   0  0  0  0  0  0  0  0  0  0  0  0
  -21.9249  -28.2062   21.9739 C   0  0  1  0  0  0  0  0  0  0  0  0
  -21.3307  -31.9130   22.4996 C   0  0  2  0  0  0  0  0  0  0  0  0
  -20.8817  -27.3328   21.2213 C   0  0  0  0  0  0  0  0  0  0  0  0
  -27.9500  -15.3582   20.6330 N   0  0  0  0  0  0  0  0  0  0  0  0
  -29.0427  -15.7976   19.9856 N   0  0  0  0  0  0  0  0  0  0  0  0
  -23.8052  -27.2939   23.2990 N   0  0  0  0  0  0  0  0  0  0  0  0
  -29.6343  -19.1257   21.7624 N   0  0  0  0  0  0  0  0  0  0  0  0
  -30.4098  -15.3893   18.0948 N   0  0  0  0  0  0  0  0  0  0  0  0
  -27.2403  -12.1857   17.8001 N   0  0  0  0  0  0  0  0  0  0  0  0
  -28.4483  -20.7079   20.4768 N   0  0  0  0  0  0  0  0  0  0  0  0
  -24.1776  -24.1062   24.8580 N   0  0  0  0  0  0  0  0  0  0  0  0
  -21.4289  -29.5192   22.3720 N   0  0  0  0  0  0  0  0  0  0  0  0
  -30.4829  -25.5582   18.8724 N   0  3  1  0  0  0  0  0  0  0  0  0
  -22.3135  -33.0027   22.7603 N   0  3  0  0  0  0  0  0  0  0  0  0
  -29.1279  -13.0339   16.8121 O   0  0  0  0  0  0  0  0  0  0  0  0
  -24.6776  -24.8633   22.7134 O   0  0  0  0  0  0  0  0  0  0  0  0
  -21.6275  -27.2668   24.1316 O   0  0  0  0  0  0  0  0  0  0  0  0
  -23.0272  -30.7518   21.2304 O   0  0  0  0  0  0  0  0  0  0  0  0
  -30.1487  -21.3748   21.9071 O   0  0  0  0  0  0  0  0  0  0  0  0
  -23.0094  -11.4033   21.3389 O   0  0  0  0  0  0  0  0  0  0  0  0
  -29.3922  -28.3569   20.9098 O   0  0  0  0  0  0  0  0  0  1  0  0
  -23.3236   -5.9023   21.1287 F   0  0  0  0  0  0  0  0  0  0  0  0
  -22.6127   -9.8723   23.6064 F   0  0  0  0  0  0  0  0  0  0  0  0
  1  2  1  0  0  0  0
  1  5  2  0  0  0  0
  2  6  2  0  0  0  0
  3  8  2  0  0  0  0
  3 16  1  0  0  0  0
  4  9  1  0  0  0  0
  4 16  2  0  0  0  0
  5 18  1  0  0  0  0
  6 20  1  0  0  0  0
  7 10  2  0  0  0  0
  7 19  1  0  0  0  0
  8 27  1  0  0  0  0
  9 27  2  0  0  0  0
 10 28  1  0  0  0  0
 11 12  2  0  0  0  0
 11 29  1  0  0  0  0
 12 30  1  0  0  0  0
 13 21  1  0  0  0  0
 13 28  2  0  0  0  0
 14 22  2  0  0  0  0
 14 23  1  0  0  0  0
 15 30  2  0  0  0  0
 15 31  1  0  0  0  0
 16 32  1  0  0  0  0
 17 32  1  0  0  0  0
 17 33  2  0  0  0  0
 17 36  1  0  0  0  0
 18 20  2  0  0  0  0
 18 41  1  0  0  0  0
 19 21  2  0  0  0  0
 19 42  1  0  0  0  0
 20 52  1  0  0  0  0
 21 43  1  0  0  0  0
 22 24  1  0  0  0  0
 22 56  1  0  0  0  0
 23 25  2  0  0  0  0
 23 65  1  0  0  0  0
 24 26  2  0  0  0  0
 24 57  1  0  0  0  0
 25 26  1  0  0  0  0
 25 58  1  0  0  0  0
 26 75  1  0  0  0  0
 27 85  1  0  0  0  0
 28 86  1  0  0  0  0
 29 31  2  0  0  0  0
 29 85  1  0  0  0  0
 30 87  1  0  0  0  0
 31 88  1  0  0  0  0
 32 69  2  0  0  0  0
 33 70  1  0  0  0  0
 33 73  1  0  0  0  0
 34 35  2  0  0  0  0
 34 44  1  0  0  0  0
 34 78  1  0  0  0  0
 35 59  1  0  0  0  0
 36 74  1  0  0  0  0
 36 80  2  0  0  0  0
 37 53  1  0  0  0  0
 37 76  1  0  0  0  0
 37 81  2  0  0  0  0
 38 66  1  0  0  0  0
 38 71  1  0  0  0  0
 38 82  2  0  0  0  0
 39 67  1  0  0  0  0
 39 77  1  0  0  0  0
 39 83  2  0  0  0  0
 40 72  1  0  0  0  0
 40 75  1  0  0  0  0
 40 84  2  0  0  0  0
 41 45  1  0  0  0  0
 42 53  1  0  0  0  0
 43 71  1  0  0  0  0
 44 55  1  0  0  0  0
 45 47  1  0  0  0  0
 46 48  1  0  0  0  0
 46 49  1  0  0  0  0
 47 52  1  0  0  0  0
 48 54  1  0  0  0  0
 49 72  1  0  0  0  0
 50 54  1  0  0  0  0
 50 72  1  0  0  0  0
 51 55  1  0  0  0  0
 51 78  1  0  0  0  0
 52 76  1  0  0  0  0
 53 71  1  0  0  0  0
 54 70  1  0  0  0  0
 55 86  1  0  0  0  0
 60 67  1  0  0  0  0
 61 68  1  0  0  0  0
 62 68  1  0  0  0  0
 63 68  1  0  0  0  0
 64 79  1  0  0  0  0
 65 78  1  0  0  0  0
 66 68  1  0  0  0  0
 66 77  1  0  0  0  0
 67 79  1  0  0  0  0
 69 70  1  0  0  0  0
M  CHG  2  78   1  79   1
M  ISO  4  40 100  55 101  75 100  86 101
M  END
> <Batch ID>
0035

> <Smiles>
CC=C1C[101CH:1]([101O:1]c2ccc3c(c2)CN(C(=O)C(NC(=O)C(C)NC)C(C)(C)C)C(C(=O)NC2CCCc4ccccc42)C3)CN1Cc1cc(C)c(C)c([100NH:0][100C:0](=O)N2CCCC(n3nc(-c4ccc(Oc5ccc(F)cc5F)cc4)c(C(N)=O)c3N)C2)c1C

> <Shape>
0.260

> <Color>
0.048

> <Negative vol penalty>
0.000

$$$$

  -OEChem-04042321513D

 86 95  0     1  0  0  0  0  0999 V2000
  -20.7693  -34.6126   22.6887 C   0  0  0  0  0  0  0  0  0  0  0  0
  -21.9714  -34.0476   22.2748 C   0  0  0  0  0  0  0  0  0  0  0  0
  -22.8112  -10.3206   20.0560 C   0  0  0  0  0  0  0  0  0  0  0  0
  -24.2887   -9.7081   21.8668 C   0  0  0  0  0  0  0  0  0  0  0  0
  -19.8749  -33.8639   23.4525 C   0  0  0  0  0  0  0  0  0  0  0  0
  -22.2801  -32.7338   22.6255 C   0  0  0  0  0  0  0  0  0  0  0  0
  -25.3790  -28.6579   19.2655 C   0  0  0  0  0  0  0  0  0  0  0  0
  -21.7077  -10.0291   20.8578 C   0  0  0  0  0  0  0  0  0  0  0  0
  -23.1851   -9.4167   22.6687 C   0  0  0  0  0  0  0  0  0  0  0  0
  -26.7111  -28.2465   19.2833 C   0  0  0  0  0  0  0  0  0  0  0  0
  -20.7629   -8.1680   25.0735 C   0  0  0  0  0  0  0  0  0  0  0  0
  -20.7943   -6.9873   25.8155 C   0  0  0  0  0  0  0  0  0  0  0  0
  -26.1065  -26.3694   20.6726 C   0  0  0  0  0  0  0  0  0  0  0  0
  -31.2556  -20.1514   20.3237 C   0  0  0  0  0  0  0  0  0  0  0  0
  -28.7959  -18.8355   20.3543 C   0  0  0  0  0  0  0  0  0  0  0  0
  -20.9974   -5.7102   23.7747 C   0  0  0  0  0  0  0  0  0  0  0  0
  -24.1017  -10.1600   20.5605 C   0  0  0  0  0  0  0  0  0  0  0  0
  -25.5823   -9.8618   18.5047 C   0  0  0  0  0  0  0  0  0  0  0  0
  -20.1686  -32.5371   23.8045 C   0  0  0  0  0  0  0  0  0  0  0  0
  -24.4009  -27.9330   19.9613 C   0  0  0  0  0  0  0  0  0  0  0  0
  -21.3894  -31.9671   23.3959 C   0  0  0  0  0  0  0  0  0  0  0  0
  -24.7624  -26.7722   20.6599 C   0  0  0  0  0  0  0  0  0  0  0  0
  -30.1010  -20.8398   20.6959 C   0  0  0  0  0  0  0  0  0  0  0  0
  -31.1804  -18.8050   19.9667 C   0  0  0  0  0  0  0  0  0  0  0  0
  -28.8712  -20.1819   20.7112 C   0  0  0  0  0  0  0  0  0  0  0  0
  -29.9506  -18.1471   19.9821 C   0  0  0  0  0  0  0  0  0  0  0  0
  -21.8946   -9.5772   22.1641 C   0  0  0  0  0  0  0  0  0  0  0  0
  -27.0754  -27.1038   19.9893 C   0  0  0  0  0  0  0  0  0  0  0  0
  -20.8486   -8.1198   23.6821 C   0  0  0  0  0  0  0  0  0  0  0  0
  -20.9116   -5.7584   25.1661 C   0  0  0  0  0  0  0  0  0  0  0  0
  -20.9659   -6.8909   23.0327 C   0  0  0  0  0  0  0  0  0  0  0  0
  -25.2421  -10.4604   19.7326 C   0  0  0  0  0  0  0  0  0  0  0  0
  -26.7422  -10.4921   18.1252 C   0  0  0  0  0  0  0  0  0  0  0  0
  -24.9101   -8.8285   17.7725 C   0  0  0  0  0  0  0  0  0  0  0  0
  -22.4205  -28.5722   22.3640 C   0  0  0  0  0  0  0  0  0  0  0  0
  -21.2601  -25.6215   21.6790 C   0  0  0  0  0  0  0  0  0  0  0  0
  -22.6190  -22.3929   20.8146 C   0  0  0  0  0  0  0  0  0  0  0  0
  -28.7052  -15.9842   19.5879 C   0  0  0  0  0  0  0  0  0  0  0  0
  -19.1917  -31.7829   24.6714 C   0  0  0  0  0  0  0  0  0  0  0  0
  -22.9640  -28.3749   19.9101 C   0  0  0  0  0  0  0  0  0  0  0  0
  -23.7471  -25.9474   21.4064 C   0  0  0  0  0  0  0  0  0  0  0  0
  -19.4269  -30.2746   24.6839 C   0  0  0  0  0  0  0  0  0  0  0  0
  -30.2131  -12.6428   20.7217 C   0  0  0  0  0  0  0  0  0  0  0  0
  -30.0598  -24.2084   17.7712 C   0  0  0  0  0  0  0  0  0  0  0  0
  -20.9075  -29.9669   24.8835 C   0  0  0  0  0  0  0  0  0  0  0  0
  -29.4286  -11.6919   19.8207 C   0  0  0  0  0  0  0  0  0  0  0  0
  -29.5993  -25.5617   18.2965 C   0  0  0  0  0  0  0  0  0  0  0  0
  -30.2737  -14.0561   20.1561 C   0  0  0  0  0  0  0  0  0  0  0  0
  -27.8190  -13.6764   19.8620 C   0  0  0  0  0  0  0  0  0  0  0  0
  -30.6759  -23.3576   18.8726 C   0  0  0  0  0  0  0  0  0  0  0  0
  -29.2791  -24.5468   20.5828 C   0  0  0  0  0  0  0  0  0  0  0  0
  -21.7491  -30.5368   23.7352 C   0  0  1  0  0  0  0  0  0  0  0  0
  -22.1353  -27.8492   21.0781 C   0  0  1  0  0  0  0  0  0  0  0  0
  -28.1918  -12.3514   19.1789 C   0  0  2  0  0  0  0  0  0  0  0  0
  -28.6598  -25.4059   19.4883 C   0  0  1  0  0  0  0  0  0  1  0  0
  -32.4333  -18.0925   19.5724 C   0  0  0  0  0  0  0  0  0  0  0  0
  -27.6217  -20.8984   21.1060 C   0  0  0  0  0  0  0  0  0  0  0  0
  -21.6213  -20.5013   19.5016 C   0  0  0  0  0  0  0  0  0  0  0  0
  -20.4054  -24.5603   24.4090 C   0  0  0  0  0  0  0  0  0  0  0  0
  -20.9252  -22.2500   23.5961 C   0  0  0  0  0  0  0  0  0  0  0  0
  -19.1487  -23.5948   22.4743 C   0  0  0  0  0  0  0  0  0  0  0  0
  -24.9036  -22.3399   18.9341 C   0  0  0  0  0  0  0  0  0  0  0  0
  -30.2065  -22.2875   21.0753 C   0  0  0  0  0  0  0  0  0  0  0  0
  -21.5754  -24.2168   22.1333 C   0  0  1  0  0  0  0  0  0  0  0  0
  -22.5453  -21.7086   19.4616 C   0  0  2  0  0  0  0  0  0  0  0  0
  -20.5336  -23.6758   23.1527 C   0  0  0  0  0  0  0  0  0  0  0  0
  -26.1152  -11.3987   20.1083 N   0  0  0  0  0  0  0  0  0  0  0  0
  -27.0156  -11.3945   19.1106 N   0  0  0  0  0  0  0  0  0  0  0  0
  -22.3561  -26.4240   21.3315 N   0  0  0  0  0  0  0  0  0  0  0  0
  -28.9477  -14.6142   19.8534 N   0  0  0  0  0  0  0  0  0  0  0  0
  -27.5446  -10.3569   17.0481 N   0  0  0  0  0  0  0  0  0  0  0  0
  -25.2555   -7.4947   18.0294 N   0  0  0  0  0  0  0  0  0  0  0  0
  -29.8537  -16.7794   19.6230 N   0  0  0  0  0  0  0  0  0  0  0  0
  -21.6403  -29.6953   22.5629 N   0  0  0  0  0  0  0  0  0  0  0  0
  -21.6983  -23.4138   20.9214 N   0  0  0  0  0  0  0  0  0  0  0  0
  -29.6918  -23.2151   20.0093 N   0  3  2  0  0  0  0  0  0  0  0  0
  -23.8988  -21.2507   19.0383 N   0  3  0  0  0  0  0  0  0  0  0  0
  -24.0408   -9.0813   16.9042 O   0  0  0  0  0  0  0  0  0  0  0  0
  -23.2833  -28.1421   23.1204 O   0  0  0  0  0  0  0  0  0  0  0  0
  -20.0843  -25.9908   21.6273 O   0  0  0  0  0  0  0  0  0  0  0  0
  -23.4113  -22.0532   21.6906 O   0  0  0  0  0  0  0  0  0  0  0  0
  -27.5736  -16.4054   19.3388 O   0  0  0  0  0  0  0  0  0  0  0  0
  -20.8180   -9.2929   22.9469 O   0  0  0  0  0  0  0  0  0  0  0  0
  -28.3750  -26.7005   20.0089 O   0  0  0  0  0  0  0  0  0  1  0  0
  -20.9434   -4.6248   25.8789 F   0  0  0  0  0  0  0  0  0  0  0  0
  -21.0499   -6.8384   21.6963 F   0  0  0  0  0  0  0  0  0  0  0  0
  1  2  1  0  0  0  0
  1  5  2  0  0  0  0
  2  6  2  0  0  0  0
  3  8  2  0  0  0  0
  3 17  1  0  0  0  0
  4  9  1  0  0  0  0
  4 17  2  0  0  0  0
  5 19  1  0  0  0  0
  6 21  1  0  0  0  0
  7 10  2  0  0  0  0
  7 20  1  0  0  0  0
  8 27  1  0  0  0  0
  9 27  2  0  0  0  0
 10 28  1  0  0  0  0
 11 12  2  0  0  0  0
 11 29  1  0  0  0  0
 12 30  1  0  0  0  0
 13 22  1  0  0  0  0
 13 28  2  0  0  0  0
 14 23  1  0  0  0  0
 14 24  2  0  0  0  0
 15 25  1  0  0  0  0
 15 26  2  0  0  0  0
 16 30  2  0  0  0  0
 16 31  1  0  0  0  0
 17 32  1  0  0  0  0
 18 32  1  0  0  0  0
 18 33  2  0  0  0  0
 18 34  1  0  0  0  0
 19 21  2  0  0  0  0
 19 39  1  0  0  0  0
 20 22  2  0  0  0  0
 20 40  1  0  0  0  0
 21 52  1  0  0  0  0
 22 41  1  0  0  0  0
 23 25  2  0  0  0  0
 23 63  1  0  0  0  0
 24 26  1  0  0  0  0
 24 56  1  0  0  0  0
 25 57  1  0  0  0  0
 26 73  1  0  0  0  0
 27 83  1  0  0  0  0
 28 84  1  0  0  0  0
 29 31  2  0  0  0  0
 29 83  1  0  0  0  0
 30 85  1  0  0  0  0
 31 86  1  0  0  0  0
 32 67  2  0  0  0  0
 33 68  1  0  0  0  0
 33 71  1  0  0  0  0
 34 72  1  0  0  0  0
 34 78  2  0  0  0  0
 35 53  1  0  0  0  0
 35 74  1  0  0  0  0
 35 79  2  0  0  0  0
 36 64  1  0  0  0  0
 36 69  1  0  0  0  0
 36 80  2  0  0  0  0
 37 65  1  0  0  0  0
 37 75  1  0  0  0  0
 37 81  2  0  0  0  0
 38 70  1  0  0  0  0
 38 73  1  0  0  0  0
 38 82  2  0  0  0  0
 39 42  1  0  0  0  0
 40 53  1  0  0  0  0
 41 69  1  0  0  0  0
 42 45  1  0  0  0  0
 43 46  1  0  0  0  0
 43 48  1  0  0  0  0
 44 47  1  0  0  0  0
 44 50  1  0  0  0  0
 45 52  1  0  0  0  0
 46 54  1  0  0  0  0
 47 55  1  0  0  0  0
 48 70  1  0  0  0  0
 49 54  1  0  0  0  0
 49 70  1  0  0  0  0
 50 76  1  0  0  0  0
 51 55  1  0  0  0  0
 51 76  1  0  0  0  0
 52 74  1  0  0  0  0
 53 69  1  0  0  0  0
 54 68  1  0  0  0  0
 55 84  1  0  0  0  0
 58 65  1  0  0  0  0
 59 66  1  0  0  0  0
 60 66  1  0  0  0  0
 61 66  1  0  0  0  0
 62 77  1  0  0  0  0
 63 76  1  0  0  0  0
 64 66  1  0  0  0  0
 64 75  1  0  0  0  0
 65 77  1  0  0  0  0
 67 68  1  0  0  0  0
M  CHG  2  76   1  77   1
M  ISO  4  38 100  55 101  73 100  84 101
M  END
> <Batch ID>
0035

> <Smiles>
CNC(C)C(=O)NC(C(=O)N1Cc2cc([101O:1][101CH:1]3CCCN(Cc4cc(C)c([100NH:0][100C:0](=O)N5CCCC(n6nc(-c7ccc(Oc8ccc(F)cc8F)cc7)c(C(N)=O)c6N)C5)cc4C)C3)ccc2CC1C(=O)NC1CCCc2ccccc21)C(C)(C)C

> <Shape>
0.260

> <Color>
0.097

> <Negative vol penalty>
0.000

$$$$

  -OEChem-04042321513D

 88 97  0     1  0  0  0  0  0999 V2000
  -16.5312  -26.7443   26.2966 C   0  0  0  0  0  0  0  0  0  0  0  0
  -17.2244  -25.8715   25.4641 C   0  0  0  0  0  0  0  0  0  0  0  0
  -22.5383  -10.4924   20.5264 C   0  0  0  0  0  0  0  0  0  0  0  0
  -24.0345  -10.0107   22.3611 C   0  0  0  0  0  0  0  0  0  0  0  0
  -16.4855  -28.1048   25.9951 C   0  0  0  0  0  0  0  0  0  0  0  0
  -17.8714  -26.3586   24.3289 C   0  0  0  0  0  0  0  0  0  0  0  0
  -22.5286  -24.4477   23.7771 C   0  0  0  0  0  0  0  0  0  0  0  0
  -29.1204  -20.2842   19.5772 C   0  0  0  0  0  0  0  0  0  0  0  0
  -21.7227   -9.4286   20.9122 C   0  0  0  0  0  0  0  0  0  0  0  0
  -23.2189   -8.9470   22.7470 C   0  0  0  0  0  0  0  0  0  0  0  0
  -22.6296  -23.1529   23.2703 C   0  0  0  0  0  0  0  0  0  0  0  0
  -20.3127   -8.5171   24.4172 C   0  0  0  0  0  0  0  0  0  0  0  0
  -20.0171   -8.3882   25.7743 C   0  0  0  0  0  0  0  0  0  0  0  0
  -30.2906  -19.7345   19.0536 C   0  0  0  0  0  0  0  0  0  0  0  0
  -23.1410  -24.0523   21.0911 C   0  0  0  0  0  0  0  0  0  0  0  0
  -21.0440   -6.2013   25.7901 C   0  0  0  0  0  0  0  0  0  0  0  0
  -23.6943  -10.7834   21.2508 C   0  0  0  0  0  0  0  0  0  0  0  0
  -24.1786  -13.2401   20.7631 C   0  0  0  0  0  0  0  0  0  0  0  0
  -17.1404  -28.6103   24.8610 C   0  0  0  0  0  0  0  0  0  0  0  0
  -22.7226  -25.5566   22.9409 C   0  0  0  0  0  0  0  0  0  0  0  0
  -17.8333  -27.7269   24.0113 C   0  0  0  0  0  0  0  0  0  0  0  0
  -23.0445  -25.3601   21.5904 C   0  0  0  0  0  0  0  0  0  0  0  0
  -28.5572  -19.7508   20.7366 C   0  0  0  0  0  0  0  0  0  0  0  0
  -29.1641  -18.6677   21.3723 C   0  0  0  0  0  0  0  0  0  0  0  0
  -30.3343  -18.1180   20.8487 C   0  0  0  0  0  0  0  0  0  0  0  0
  -22.0630   -8.6560   22.0225 C   0  0  0  0  0  0  0  0  0  0  0  0
  -22.9330  -22.9550   21.9264 C   0  0  0  0  0  0  0  0  0  0  0  0
  -20.9738   -7.4882   23.7465 C   0  0  0  0  0  0  0  0  0  0  0  0
  -20.3828   -7.2303   26.4607 C   0  0  0  0  0  0  0  0  0  0  0  0
  -21.3395   -6.3303   24.4330 C   0  0  0  0  0  0  0  0  0  0  0  0
  -30.8975  -18.6513   19.6894 C   0  0  0  0  0  0  0  0  0  0  0  0
  -24.5375  -11.8817   20.8524 C   0  0  0  0  0  0  0  0  0  0  0  0
  -25.3243  -13.8711   20.3441 C   0  0  0  0  0  0  0  0  0  0  0  0
  -24.9011  -20.1433   21.5920 C   0  0  0  0  0  0  0  0  0  0  0  0
  -24.4289  -19.6083   22.7301 C   0  0  0  0  0  0  0  0  0  0  0  0
  -22.9220  -13.8747   21.0348 C   0  0  0  0  0  0  0  0  0  0  0  0
  -20.9165  -27.9942   21.9925 C   0  0  0  0  0  0  0  0  0  0  0  0
  -23.6817  -29.0078   20.6330 C   0  0  0  0  0  0  0  0  0  0  0  0
  -26.4184  -27.5234   18.8096 C   0  0  0  0  0  0  0  0  0  0  0  0
  -30.8431  -14.6442   20.6458 C   0  0  0  0  0  0  0  0  0  0  0  0
  -17.0232  -30.0815   24.5505 C   0  0  0  0  0  0  0  0  0  0  0  0
  -22.6365  -26.9466   23.5091 C   0  0  0  0  0  0  0  0  0  0  0  0
  -23.2821  -26.5168   20.6555 C   0  0  0  0  0  0  0  0  0  0  0  0
  -18.0494  -30.5728   23.5327 C   0  0  0  0  0  0  0  0  0  0  0  0
  -29.6768  -11.9750   18.5983 C   0  0  0  0  0  0  0  0  0  0  0  0
  -25.3375  -20.3844   18.7687 C   0  0  0  0  0  0  0  0  0  0  0  0
  -18.1208  -29.6198   22.3439 C   0  0  0  0  0  0  0  0  0  0  0  0
  -24.0731  -20.9681   19.3891 C   0  0  0  0  0  0  0  0  0  0  0  0
  -28.2086  -11.8210   18.9993 C   0  0  0  0  0  0  0  0  0  0  0  0
  -30.5539  -12.3356   19.7953 C   0  0  0  0  0  0  0  0  0  0  0  0
  -28.6391  -13.3630   20.9578 C   0  0  0  0  0  0  0  0  0  0  0  0
  -25.8472  -19.1875   19.5647 C   0  0  0  0  0  0  0  0  0  0  0  0
  -18.5686  -28.2209   22.7843 C   0  0  1  0  0  0  0  0  0  0  0  0
  -24.2822  -21.3145   20.8625 C   0  0  1  0  0  0  0  0  0  1  0  0
  -22.3471  -28.0074   22.4516 C   0  0  1  0  0  0  0  0  0  0  0  0
  -27.7066  -13.0544   19.7740 C   0  0  2  0  0  0  0  0  0  0  0  0
  -28.5570  -18.0986   22.6158 C   0  0  0  0  0  0  0  0  0  0  0  0
  -28.8150  -28.2369   18.5975 C   0  0  0  0  0  0  0  0  0  0  0  0
  -22.7329  -30.4281   18.1047 C   0  0  0  0  0  0  0  0  0  0  0  0
  -24.8851  -29.7673   17.0095 C   0  0  0  0  0  0  0  0  0  0  0  0
  -24.9118  -31.2560   19.0109 C   0  0  0  0  0  0  0  0  0  0  0  0
  -27.4049  -24.8939   19.7429 C   0  0  0  0  0  0  0  0  0  0  0  0
  -30.9752  -16.9551   21.5410 C   0  0  0  0  0  0  0  0  0  0  0  0
  -27.2992  -20.3628   21.2788 C   0  0  0  0  0  0  0  0  0  0  0  0
  -24.3517  -28.8070   19.2952 C   0  0  1  0  0  0  0  0  0  0  0  0
  -27.8367  -27.3155   19.3094 C   0  0  2  0  0  0  0  0  0  0  0  0
  -24.2032  -30.0448   18.3662 C   0  0  0  0  0  0  0  0  0  0  0  0
  -25.8115  -11.6619   20.5169 N   0  0  0  0  0  0  0  0  0  0  0  0
  -26.2631  -12.8905   20.2126 N   0  0  0  0  0  0  0  0  0  0  0  0
  -23.1804  -27.8567   21.2570 N   0  0  0  0  0  0  0  0  0  0  0  0
  -30.0242  -13.5143   20.4852 N   0  0  0  0  0  0  0  0  0  0  0  0
  -25.6102  -15.1635   20.0788 N   0  0  0  0  0  0  0  0  0  0  0  0
  -22.6740  -14.3367   22.3346 N   0  0  0  0  0  0  0  0  0  0  0  0
  -19.9986  -28.1944   23.0058 N   0  0  0  0  0  0  0  0  0  0  0  0
  -25.7336  -28.4376   19.5820 N   0  0  0  0  0  0  0  0  0  0  0  0
  -30.2612  -15.7200   21.3052 N   0  0  0  0  0  0  0  0  0  0  0  0
  -26.0773  -19.5251   21.0198 N   0  3  1  0  0  0  0  0  0  0  0  0
  -28.2656  -25.9069   19.0796 N   0  3  0  0  0  0  0  0  0  0  0  0
  -22.0384  -14.0128   20.1551 O   0  0  0  0  0  0  0  0  0  0  0  0
  -20.6642  -27.8170   20.8065 O   0  0  0  0  0  0  0  0  0  0  0  0
  -23.6123  -30.1432   21.1102 O   0  0  0  0  0  0  0  0  0  0  0  0
  -25.9647  -26.9366   17.8297 O   0  0  0  0  0  0  0  0  0  0  0  0
  -32.0048  -14.6927   20.2275 O   0  0  0  0  0  0  0  0  0  0  0  0
  -21.2672   -7.6180   22.3994 O   0  0  0  0  0  0  0  0  0  0  0  0
  -23.0315  -21.6922   21.4290 O   0  0  0  0  0  0  0  0  0  1  0  0
  -20.1003   -7.1072   27.7642 F   0  0  0  0  0  0  0  0  0  0  0  0
  -21.9759   -5.3389   23.7943 F   0  0  0  0  0  0  0  0  0  0  0  0
  -32.3446  -17.9997   19.0096 Cl  0  0  0  0  0  0  0  0  0  0  0  0
  1  2  1  0  0  0  0
  1  5  2  0  0  0  0
  2  6  2  0  0  0  0
  3  9  2  0  0  0  0
  3 17  1  0  0  0  0
  4 10  1  0  0  0  0
  4 17  2  0  0  0  0
  5 19  1  0  0  0  0
  6 21  1  0  0  0  0
  7 11  2  0  0  0  0
  7 20  1  0  0  0  0
  8 14  2  0  0  0  0
  8 23  1  0  0  0  0
  9 26  1  0  0  0  0
 10 26  2  0  0  0  0
 11 27  1  0  0  0  0
 12 13  2  0  0  0  0
 12 28  1  0  0  0  0
 13 29  1  0  0  0  0
 14 31  1  0  0  0  0
 15 22  1  0  0  0  0
 15 27  2  0  0  0  0
 16 29  2  0  0  0  0
 16 30  1  0  0  0  0
 17 32  1  0  0  0  0
 18 32  1  0  0  0  0
 18 33  2  0  0  0  0
 18 36  1  0  0  0  0
 19 21  2  0  0  0  0
 19 41  1  0  0  0  0
 20 22  2  0  0  0  0
 20 42  1  0  0  0  0
 21 53  1  0  0  0  0
 22 43  1  0  0  0  0
 23 24  2  0  0  0  0
 23 64  1  0  0  0  0
 24 25  1  0  0  0  0
 24 57  1  0  0  0  0
 25 31  2  0  0  0  0
 25 63  1  0  0  0  0
 26 84  1  0  0  0  0
 27 85  1  0  0  0  0
 28 30  2  0  0  0  0
 28 84  1  0  0  0  0
 29 86  1  0  0  0  0
 30 87  1  0  0  0  0
 31 88  1  0  0  0  0
 32 68  2  0  0  0  0
 33 69  1  0  0  0  0
 33 72  1  0  0  0  0
 34 35  2  0  0  0  0
 34 54  1  0  0  0  0
 34 77  1  0  0  0  0
 36 73  1  0  0  0  0
 36 79  2  0  0  0  0
 37 55  1  0  0  0  0
 37 74  1  0  0  0  0
 37 80  2  0  0  0  0
 38 65  1  0  0  0  0
 38 70  1  0  0  0  0
 38 81  2  0  0  0  0
 39 66  1  0  0  0  0
 39 75  1  0  0  0  0
 39 82  2  0  0  0  0
 40 71  1  0  0  0  0
 40 76  1  0  0  0  0
 40 83  2  0  0  0  0
 41 44  1  0  0  0  0
 42 55  1  0  0  0  0
 43 70  1  0  0  0  0
 44 47  1  0  0  0  0
 45 49  1  0  0  0  0
 45 50  1  0  0  0  0
 46 48  1  0  0  0  0
 46 52  1  0  0  0  0
 47 53  1  0  0  0  0
 48 54  1  0  0  0  0
 49 56  1  0  0  0  0
 50 71  1  0  0  0  0
 51 56  1  0  0  0  0
 51 71  1  0  0  0  0
 52 77  1  0  0  0  0
 53 74  1  0  0  0  0
 54 85  1  0  0  0  0
 55 70  1  0  0  0  0
 56 69  1  0  0  0  0
 58 66  1  0  0  0  0
 59 67  1  0  0  0  0
 60 67  1  0  0  0  0
 61 67  1  0  0  0  0
 62 78  1  0  0  0  0
 63 76  1  0  0  0  0
 64 77  1  0  0  0  0
 65 67  1  0  0  0  0
 65 75  1  0  0  0  0
 66 78  1  0  0  0  0
 68 69  1  0  0  0  0
M  CHG  2  77   1  78   1
M  ISO  4  40 100  54 101  76 100  85 101
M  END
> <Batch ID>
0035

> <Smiles>
C=C1N(Cc2ccc(Cl)c(C[100NH:0][100C:0](=O)N3CCCC(n4nc(-c5ccc(Oc6ccc(F)cc6F)cc5)c(C(N)=O)c4N)C3)c2C)CCC[101CH:1]1[101O:1]c1ccc2c(c1)CN(C(=O)C(NC(=O)C(C)NC)C(C)(C)C)C(C(=O)NC1CCCc3ccccc31)C2

> <Shape>
0.309

> <Color>
0.160

> <Negative vol penalty>
0.000

$$$$

  -OEChem-04042321513D

 86 95  0     1  0  0  0  0  0999 V2000
  -28.5940  -36.7135   20.2690 C   0  0  0  0  0  0  0  0  0  0  0  0
  -28.8341  -35.3546   20.4450 C   0  0  0  0  0  0  0  0  0  0  0  0
  -28.1439   -9.9492   19.6129 C   0  0  0  0  0  0  0  0  0  0  0  0
  -29.9581  -11.1267   20.6896 C   0  0  0  0  0  0  0  0  0  0  0  0
  -27.4944  -37.3113   20.8833 C   0  0  0  0  0  0  0  0  0  0  0  0
  -27.9752  -34.5928   21.2364 C   0  0  0  0  0  0  0  0  0  0  0  0
  -26.7771  -30.1629   19.0950 C   0  0  0  0  0  0  0  0  0  0  0  0
  -28.8622   -8.7572   19.7061 C   0  0  0  0  0  0  0  0  0  0  0  0
  -30.6764   -9.9347   20.7829 C   0  0  0  0  0  0  0  0  0  0  0  0
  -27.7284  -29.1458   19.1611 C   0  0  0  0  0  0  0  0  0  0  0  0
  -31.4066   -7.2485   18.0709 C   0  0  0  0  0  0  0  0  0  0  0  0
  -31.4460   -6.4266   16.9446 C   0  0  0  0  0  0  0  0  0  0  0  0
  -30.4506  -23.3420   15.6324 C   0  0  0  0  0  0  0  0  0  0  0  0
  -30.0459  -22.7419   18.3066 C   0  0  0  0  0  0  0  0  0  0  0  0
  -26.5326  -28.1555   21.0073 C   0  0  0  0  0  0  0  0  0  0  0  0
  -30.4092   -4.6467   18.2072 C   0  0  0  0  0  0  0  0  0  0  0  0
  -28.6918  -11.1340   20.1046 C   0  0  0  0  0  0  0  0  0  0  0  0
  -26.6897  -12.6453   20.5684 C   0  0  0  0  0  0  0  0  0  0  0  0
  -26.6161  -36.5545   21.6748 C   0  0  0  0  0  0  0  0  0  0  0  0
  -25.7005  -30.1900   19.9932 C   0  0  0  0  0  0  0  0  0  0  0  0
  -26.8635  -35.1813   21.8630 C   0  0  0  0  0  0  0  0  0  0  0  0
  -30.9608  -22.1328   16.1445 C   0  0  0  0  0  0  0  0  0  0  0  0
  -30.7576  -21.8257   17.5049 C   0  0  0  0  0  0  0  0  0  0  0  0
  -25.5676  -29.1726   20.9489 C   0  0  0  0  0  0  0  0  0  0  0  0
  -29.7554  -24.2366   16.4440 C   0  0  0  0  0  0  0  0  0  0  0  0
  -29.5520  -23.9357   17.7830 C   0  0  0  0  0  0  0  0  0  0  0  0
  -30.1284   -8.7499   20.2911 C   0  0  0  0  0  0  0  0  0  0  0  0
  -27.6078  -28.1435   20.1192 C   0  0  0  0  0  0  0  0  0  0  0  0
  -30.8686   -6.7695   19.2654 C   0  0  0  0  0  0  0  0  0  0  0  0
  -30.9473   -5.1258   17.0127 C   0  0  0  0  0  0  0  0  0  0  0  0
  -30.3699   -5.4686   19.3335 C   0  0  0  0  0  0  0  0  0  0  0  0
  -27.9505  -12.3658   20.0081 C   0  0  0  0  0  0  0  0  0  0  0  0
  -26.4262  -13.9398   20.1924 C   0  0  0  0  0  0  0  0  0  0  0  0
  -25.8333  -11.8096   21.3582 C   0  0  0  0  0  0  0  0  0  0  0  0
  -24.6995  -32.2094   22.2345 C   0  0  0  0  0  0  0  0  0  0  0  0
  -22.1666  -30.1877   22.3742 C   0  0  0  0  0  0  0  0  0  0  0  0
  -20.9254  -27.0563   21.8258 C   0  0  0  0  0  0  0  0  0  0  0  0
  -30.2273  -18.3324   18.6081 C   0  0  0  0  0  0  0  0  0  0  0  0
  -25.4676  -37.2544   22.3571 C   0  0  0  0  0  0  0  0  0  0  0  0
  -24.6682  -31.2792   19.8915 C   0  0  0  0  0  0  0  0  0  0  0  0
  -31.6801  -21.2098   15.1910 C   0  0  0  0  0  0  0  0  0  0  0  0
  -24.4193  -29.1449   21.9231 C   0  0  0  0  0  0  0  0  0  0  0  0
  -24.3942  -36.3006   22.8752 C   0  0  0  0  0  0  0  0  0  0  0  0
  -33.1283  -20.9272   15.5773 C   0  0  0  0  0  0  0  0  0  0  0  0
  -33.2761  -19.8798   16.6751 C   0  0  0  0  0  0  0  0  0  0  0  0
  -28.1450  -16.0585   16.3120 C   0  0  0  0  0  0  0  0  0  0  0  0
  -25.0326  -35.1332   23.6212 C   0  0  0  0  0  0  0  0  0  0  0  0
  -32.7641  -20.3285   18.0411 C   0  0  0  0  0  0  0  0  0  0  0  0
  -27.1035  -15.7670   17.3882 C   0  0  0  0  0  0  0  0  0  0  0  0
  -28.9646  -17.2955   16.6663 C   0  0  0  0  0  0  0  0  0  0  0  0
  -29.2059  -16.0812   18.8319 C   0  0  0  0  0  0  0  0  0  0  0  0
  -25.9406  -34.3164   22.6939 C   0  0  1  0  0  0  0  0  0  0  0  0
  -31.2504  -20.5513   18.1598 C   0  0  2  0  0  0  0  0  0  0  0  0
  -23.8940  -31.4917   21.1887 C   0  0  1  0  0  0  0  0  0  0  0  0
  -27.7162  -15.6958   18.8039 C   0  0  2  0  0  0  0  0  0  0  0  0
  -29.2396  -25.5050   15.8469 C   0  0  0  0  0  0  0  0  0  0  0  0
  -18.8310  -25.6963   22.0734 C   0  0  0  0  0  0  0  0  0  0  0  0
  -22.6671  -29.9680   25.3761 C   0  0  0  0  0  0  0  0  0  0  0  0
  -21.2124  -27.9305   25.3989 C   0  0  0  0  0  0  0  0  0  0  0  0
  -20.2570  -30.1355   24.7298 C   0  0  0  0  0  0  0  0  0  0  0  0
  -20.7637  -26.5616   18.9124 C   0  0  0  0  0  0  0  0  0  0  0  0
  -28.9585  -24.7849   20.0529 C   0  0  0  0  0  0  0  0  0  0  0  0
  -28.0912  -25.8775   20.6554 C   0  0  0  0  0  0  0  0  0  1  0  0
  -21.8361  -28.9405   23.1580 C   0  0  1  0  0  0  0  0  0  0  0  0
  -19.6521  -26.5818   21.1491 C   0  0  2  0  0  0  0  0  0  0  0  0
  -21.5160  -29.2449   24.6487 C   0  0  0  0  0  0  0  0  0  0  0  0
  -28.4531  -13.3995   19.3277 N   0  0  0  0  0  0  0  0  0  0  0  0
  -27.5031  -14.3412   19.4580 N   0  0  0  0  0  0  0  0  0  0  0  0
  -23.4393  -30.2352   21.7878 N   0  0  0  0  0  0  0  0  0  0  0  0
  -29.4666  -17.2887   18.0462 N   0  0  0  0  0  0  0  0  0  0  0  0
  -25.3807  -14.7624   20.4215 N   0  0  0  0  0  0  0  0  0  0  0  0
  -25.9807  -11.8294   22.7518 N   0  0  0  0  0  0  0  0  0  0  0  0
  -28.8619  -24.8053   18.6113 N   0  0  0  0  0  0  0  0  0  0  0  0
  -25.1492  -33.4554   21.8414 N   0  0  0  0  0  0  0  0  0  0  0  0
  -20.7532  -28.2803   22.4370 N   0  0  0  0  0  0  0  0  0  0  0  0
  -30.4827  -19.3980   17.7487 N   0  0  0  0  0  0  0  0  0  0  0  0
  -19.9776  -25.8042   19.9201 N   0  3  0  0  0  0  0  0  0  0  0  0
  -24.9742  -11.0550   20.8424 O   0  0  0  0  0  0  0  0  0  0  0  0
  -24.8971  -31.6730   23.3185 O   0  0  0  0  0  0  0  0  0  0  0  0
  -21.3239  -31.0835   22.2795 O   0  0  0  0  0  0  0  0  0  0  0  0
  -21.9673  -26.4046   21.8166 O   0  0  0  0  0  0  0  0  0  0  0  0
  -30.6435  -18.3142   19.7704 O   0  0  0  0  0  0  0  0  0  0  0  0
  -30.8296   -7.5869   20.3825 O   0  0  0  0  0  0  0  0  0  0  0  0
  -28.5353  -27.1499   20.1863 O   0  0  0  0  0  0  0  0  0  1  0  0
  -30.9837   -4.3372   15.9306 F   0  0  0  0  0  0  0  0  0  0  0  0
  -29.8508   -5.0032   20.4779 F   0  0  0  0  0  0  0  0  0  0  0  0
  1  2  1  0  0  0  0
  1  5  2  0  0  0  0
  2  6  2  0  0  0  0
  3  8  2  0  0  0  0
  3 17  1  0  0  0  0
  4  9  1  0  0  0  0
  4 17  2  0  0  0  0
  5 19  1  0  0  0  0
  6 21  1  0  0  0  0
  7 10  2  0  0  0  0
  7 20  1  0  0  0  0
  8 27  1  0  0  0  0
  9 27  2  0  0  0  0
 10 28  1  0  0  0  0
 11 12  2  0  0  0  0
 11 29  1  0  0  0  0
 12 30  1  0  0  0  0
 13 22  2  0  0  0  0
 13 25  1  0  0  0  0
 14 23  2  0  0  0  0
 14 26  1  0  0  0  0
 15 24  1  0  0  0  0
 15 28  2  0  0  0  0
 16 30  2  0  0  0  0
 16 31  1  0  0  0  0
 17 32  1  0  0  0  0
 18 32  1  0  0  0  0
 18 33  2  0  0  0  0
 18 34  1  0  0  0  0
 19 21  2  0  0  0  0
 19 39  1  0  0  0  0
 20 24  2  0  0  0  0
 20 40  1  0  0  0  0
 21 52  1  0  0  0  0
 22 23  1  0  0  0  0
 22 41  1  0  0  0  0
 23 53  1  0  0  0  0
 24 42  1  0  0  0  0
 25 26  2  0  0  0  0
 25 56  1  0  0  0  0
 26 73  1  0  0  0  0
 27 83  1  0  0  0  0
 28 84  1  0  0  0  0
 29 31  2  0  0  0  0
 29 83  1  0  0  0  0
 30 85  1  0  0  0  0
 31 86  1  0  0  0  0
 32 67  2  0  0  0  0
 33 68  1  0  0  0  0
 33 71  1  0  0  0  0
 34 72  1  0  0  0  0
 34 78  2  0  0  0  0
 35 54  1  0  0  0  0
 35 74  1  0  0  0  0
 35 79  2  0  0  0  0
 36 64  1  0  0  0  0
 36 69  1  0  0  0  0
 36 80  2  0  0  0  0
 37 65  1  0  0  0  0
 37 75  1  0  0  0  0
 37 81  2  0  0  0  0
 38 70  1  0  0  0  0
 38 76  1  0  0  0  0
 38 82  2  0  0  0  0
 39 43  1  0  0  0  0
 40 54  1  0  0  0  0
 41 44  1  0  0  0  0
 42 69  1  0  0  0  0
 43 47  1  0  0  0  0
 44 45  1  0  0  0  0
 45 48  1  0  0  0  0
 46 49  1  0  0  0  0
 46 50  1  0  0  0  0
 47 52  1  0  0  0  0
 48 53  1  0  0  0  0
 49 55  1  0  0  0  0
 50 70  1  0  0  0  0
 51 55  1  0  0  0  0
 51 70  1  0  0  0  0
 52 74  1  0  0  0  0
 53 76  1  0  0  0  0
 54 69  1  0  0  0  0
 55 68  1  0  0  0  0
 57 65  1  0  0  0  0
 58 66  1  0  0  0  0
 59 66  1  0  0  0  0
 60 66  1  0  0  0  0
 61 77  1  0  0  0  0
 62 63  1  0  0  0  0
 62 73  1  0  0  0  0
 63 84  1  0  0  0  0
 64 66  1  0  0  0  0
 64 75  1  0  0  0  0
 65 77  1  0  0  0  0
 67 68  1  0  0  0  0
M  CHG  1  77   1
M  ISO  4  38 100  63 101  76 100  84 101
M  END
> <Batch ID>
0035

> <Smiles>
CNC(C)C(=O)NC(C(=O)N1Cc2cc([101O:1][101CH2:1]CNc3cc4c(cc3C)CCCCC4[100NH:0][100C:0](=O)N3CCCC(n4nc(-c5ccc(Oc6ccc(F)cc6F)cc5)c(C(N)=O)c4N)C3)ccc2CC1C(=O)NC1CCCc2ccccc21)C(C)(C)C

> <Shape>
0.247

> <Color>
0.097

> <Negative vol penalty>
0.000

$$$$

  -OEChem-04042321513D

 87 96  0     1  0  0  0  0  0999 V2000
  -27.9786  -25.2431   16.1371 C   0  0  0  0  0  0  0  0  0  0  0  0
  -26.7955  -25.4021   16.8515 C   0  0  0  0  0  0  0  0  0  0  0  0
  -24.2019  -13.7168   21.1832 C   0  0  0  0  0  0  0  0  0  0  0  0
  -25.9908  -13.5730   19.5658 C   0  0  0  0  0  0  0  0  0  0  0  0
  -29.1851  -25.6792   16.6830 C   0  0  0  0  0  0  0  0  0  0  0  0
  -26.8184  -25.9962   18.1129 C   0  0  0  0  0  0  0  0  0  0  0  0
  -23.1184  -29.3992   18.7249 C   0  0  0  0  0  0  0  0  0  0  0  0
  -24.3879  -12.3732   21.5085 C   0  0  0  0  0  0  0  0  0  0  0  0
  -26.1769  -12.2294   19.8911 C   0  0  0  0  0  0  0  0  0  0  0  0
  -21.8397  -28.9093   18.9869 C   0  0  0  0  0  0  0  0  0  0  0  0
  -23.5745   -9.3607   20.2095 C   0  0  0  0  0  0  0  0  0  0  0  0
  -22.4385   -8.5601   20.3281 C   0  0  0  0  0  0  0  0  0  0  0  0
  -22.1497  -29.3725   21.3340 C   0  0  0  0  0  0  0  0  0  0  0  0
  -22.8733  -25.4285   23.3422 C   0  0  0  0  0  0  0  0  0  0  0  0
  -24.9464  -24.4350   22.5989 C   0  0  0  0  0  0  0  0  0  0  0  0
  -23.0143   -8.0835   22.6256 C   0  0  0  0  0  0  0  0  0  0  0  0
  -25.0033  -14.3167   20.2118 C   0  0  0  0  0  0  0  0  0  0  0  0
  -23.6424  -16.3018   19.3662 C   0  0  0  0  0  0  0  0  0  0  0  0
  -29.2216  -26.2878   17.9475 C   0  0  0  0  0  0  0  0  0  0  0  0
  -23.9279  -29.8701   19.7687 C   0  0  0  0  0  0  0  0  0  0  0  0
  -28.0268  -26.4396   18.6767 C   0  0  0  0  0  0  0  0  0  0  0  0
  -23.4373  -29.8702   21.0822 C   0  0  0  0  0  0  0  0  0  0  0  0
  -22.1580  -24.4264   22.6866 C   0  0  0  0  0  0  0  0  0  0  0  0
  -22.8369  -23.4286   21.9872 C   0  0  0  0  0  0  0  0  0  0  0  0
  -24.2311  -23.4329   21.9433 C   0  0  0  0  0  0  0  0  0  0  0  0
  -25.3754  -11.6295   20.8625 C   0  0  0  0  0  0  0  0  0  0  0  0
  -21.3563  -28.8932   20.2920 C   0  0  0  0  0  0  0  0  0  0  0  0
  -24.4304   -9.5227   21.2989 C   0  0  0  0  0  0  0  0  0  0  0  0
  -22.1584   -7.9215   21.5362 C   0  0  0  0  0  0  0  0  0  0  0  0
  -24.1503   -8.8842   22.5070 C   0  0  0  0  0  0  0  0  0  0  0  0
  -24.2675  -25.4328   23.2983 C   0  0  0  0  0  0  0  0  0  0  0  0
  -24.8112  -15.7044   19.8749 C   0  0  0  0  0  0  0  0  0  0  0  0
  -23.9713  -17.6268   19.2163 C   0  0  0  0  0  0  0  0  0  0  0  0
  -18.6878  -25.3868   21.6907 C   0  0  0  0  0  0  0  0  0  0  0  0
  -17.6807  -24.5296   21.8917 C   0  0  0  0  0  0  0  0  0  0  0  0
  -22.3728  -15.7117   19.0569 C   0  0  0  0  0  0  0  0  0  0  0  0
  -26.7383  -29.0199   20.9864 C   0  0  0  0  0  0  0  0  0  0  0  0
  -26.3422  -31.7056   22.7620 C   0  0  0  0  0  0  0  0  0  0  0  0
  -24.2033  -33.9950   24.1149 C   0  0  0  0  0  0  0  0  0  0  0  0
  -26.3234  -22.3058   21.1078 C   0  0  0  0  0  0  0  0  0  0  0  0
  -30.5561  -26.7002   18.5164 C   0  0  0  0  0  0  0  0  0  0  0  0
  -25.2947  -30.4202   19.4660 C   0  0  0  0  0  0  0  0  0  0  0  0
  -24.2589  -30.3834   22.2355 C   0  0  0  0  0  0  0  0  0  0  0  0
  -18.5591  -26.8725   21.5724 C   0  0  0  0  0  0  0  0  0  0  0  0
  -30.4440  -27.6592   19.6988 C   0  0  0  0  0  0  0  0  0  0  0  0
  -28.4558  -19.9587   19.4887 C   0  0  0  0  0  0  0  0  0  0  0  0
  -29.3941  -27.1652   20.6891 C   0  0  0  0  0  0  0  0  0  0  0  0
  -27.6015  -18.6918   19.4030 C   0  0  0  0  0  0  0  0  0  0  0  0
  -28.2108  -20.7210   20.7897 C   0  0  0  0  0  0  0  0  0  0  0  0
  -25.9492  -19.7640   20.9864 C   0  0  0  0  0  0  0  0  0  0  0  0
  -20.7209  -26.0927   20.8422 C   0  0  0  0  0  0  0  0  0  0  0  0
  -28.0075  -27.1019   20.0373 C   0  0  1  0  0  0  0  0  0  0  0  0
  -26.2283  -30.3980   20.6723 C   0  0  1  0  0  0  0  0  0  0  0  0
  -26.1135  -18.9967   19.6643 C   0  0  2  0  0  0  0  0  0  0  0  0
  -20.0121  -27.3067   21.4276 C   0  0  1  0  0  0  0  0  0  1  0  0
  -22.0653  -22.3553   21.2855 C   0  0  0  0  0  0  0  0  0  0  0  0
  -17.8527  -23.0523   22.0039 C   0  0  0  0  0  0  0  0  0  0  0  0
  -23.4731  -36.0685   25.3252 C   0  0  0  0  0  0  0  0  0  0  0  0
  -26.8066  -29.9857   25.2392 C   0  0  0  0  0  0  0  0  0  0  0  0
  -25.8405  -31.8371   26.6202 C   0  0  0  0  0  0  0  0  0  0  0  0
  -27.9209  -32.2238   25.2992 C   0  0  0  0  0  0  0  0  0  0  0  0
  -24.2654  -35.6056   21.6328 C   0  0  0  0  0  0  0  0  0  0  0  0
  -20.6591  -24.4449   22.7495 C   0  0  0  0  0  0  0  0  0  0  0  0
  -25.7073  -32.0222   24.0945 C   0  0  1  0  0  0  0  0  0  0  0  0
  -24.2293  -35.5128   24.1285 C   0  0  2  0  0  0  0  0  0  0  0  0
  -26.5538  -31.5057   25.2920 C   0  0  0  0  0  0  0  0  0  0  0  0
  -25.8083  -16.5782   20.0372 N   0  0  0  0  0  0  0  0  0  0  0  0
  -25.2668  -17.7382   19.6280 N   0  0  0  0  0  0  0  0  0  0  0  0
  -25.5914  -30.9052   21.8894 N   0  0  0  0  0  0  0  0  0  0  0  0
  -26.7801  -20.9781   20.9682 N   0  0  0  0  0  0  0  0  0  0  0  0
  -23.2760  -18.6959   18.7737 N   0  0  0  0  0  0  0  0  0  0  0  0
  -22.1658  -15.2112   17.7643 N   0  0  0  0  0  0  0  0  0  0  0  0
  -24.9406  -22.4292   21.2384 N   0  0  0  0  0  0  0  0  0  0  0  0
  -27.4300  -28.4259   19.9481 N   0  0  0  0  0  0  0  0  0  0  0  0
  -25.4751  -33.4625   24.1041 N   0  0  0  0  0  0  0  0  0  0  0  0
  -20.0220  -24.9048   21.4694 N   0  3  1  0  0  0  0  0  0  0  0  0
  -23.6065  -36.0527   22.8869 N   0  3  0  0  0  0  0  0  0  0  0  0
  -21.4436  -15.6455   19.8970 O   0  0  0  0  0  0  0  0  0  0  0  0
  -26.5215  -28.5324   22.0895 O   0  0  0  0  0  0  0  0  0  0  0  0
  -27.4600  -32.1578   22.5020 O   0  0  0  0  0  0  0  0  0  0  0  0
  -23.1592  -33.3467   24.1176 O   0  0  0  0  0  0  0  0  0  0  0  0
  -27.0992  -23.2648   21.0839 O   0  0  0  0  0  0  0  0  0  0  0  0
  -25.5574  -10.3185   21.1798 O   0  0  0  0  0  0  0  0  0  0  0  0
  -20.1088  -28.4149   20.5506 O   0  0  0  0  0  0  0  0  0  1  0  0
  -21.0666   -7.1539   21.6504 F   0  0  0  0  0  0  0  0  0  0  0  0
  -24.9682   -9.0370   23.5574 F   0  0  0  0  0  0  0  0  0  0  0  0
  -25.1497  -26.6700   24.1061 Cl  0  0  0  0  0  0  0  0  0  0  0  0
  1  2  1  0  0  0  0
  1  5  2  0  0  0  0
  2  6  2  0  0  0  0
  3  8  2  0  0  0  0
  3 17  1  0  0  0  0
  4  9  1  0  0  0  0
  4 17  2  0  0  0  0
  5 19  1  0  0  0  0
  6 21  1  0  0  0  0
  7 10  2  0  0  0  0
  7 20  1  0  0  0  0
  8 26  1  0  0  0  0
  9 26  2  0  0  0  0
 10 27  1  0  0  0  0
 11 12  2  0  0  0  0
 11 28  1  0  0  0  0
 12 29  1  0  0  0  0
 13 22  1  0  0  0  0
 13 27  2  0  0  0  0
 14 23  1  0  0  0  0
 14 31  2  0  0  0  0
 15 25  2  0  0  0  0
 15 31  1  0  0  0  0
 16 29  2  0  0  0  0
 16 30  1  0  0  0  0
 17 32  1  0  0  0  0
 18 32  1  0  0  0  0
 18 33  2  0  0  0  0
 18 36  1  0  0  0  0
 19 21  2  0  0  0  0
 19 41  1  0  0  0  0
 20 22  2  0  0  0  0
 20 42  1  0  0  0  0
 21 52  1  0  0  0  0
 22 43  1  0  0  0  0
 23 24  2  0  0  0  0
 23 63  1  0  0  0  0
 24 25  1  0  0  0  0
 24 56  1  0  0  0  0
 25 73  1  0  0  0  0
 26 83  1  0  0  0  0
 27 84  1  0  0  0  0
 28 30  2  0  0  0  0
 28 83  1  0  0  0  0
 29 85  1  0  0  0  0
 30 86  1  0  0  0  0
 31 87  1  0  0  0  0
 32 67  2  0  0  0  0
 33 68  1  0  0  0  0
 33 71  1  0  0  0  0
 34 35  2  0  0  0  0
 34 44  1  0  0  0  0
 34 76  1  0  0  0  0
 35 57  1  0  0  0  0
 36 72  1  0  0  0  0
 36 78  2  0  0  0  0
 37 53  1  0  0  0  0
 37 74  1  0  0  0  0
 37 79  2  0  0  0  0
 38 64  1  0  0  0  0
 38 69  1  0  0  0  0
 38 80  2  0  0  0  0
 39 65  1  0  0  0  0
 39 75  1  0  0  0  0
 39 81  2  0  0  0  0
 40 70  1  0  0  0  0
 40 73  1  0  0  0  0
 40 82  2  0  0  0  0
 41 45  1  0  0  0  0
 42 53  1  0  0  0  0
 43 69  1  0  0  0  0
 44 55  1  0  0  0  0
 45 47  1  0  0  0  0
 46 48  1  0  0  0  0
 46 49  1  0  0  0  0
 47 52  1  0  0  0  0
 48 54  1  0  0  0  0
 49 70  1  0  0  0  0
 50 54  1  0  0  0  0
 50 70  1  0  0  0  0
 51 55  1  0  0  0  0
 51 76  1  0  0  0  0
 52 74  1  0  0  0  0
 53 69  1  0  0  0  0
 54 68  1  0  0  0  0
 55 84  1  0  0  0  0
 58 65  1  0  0  0  0
 59 66  1  0  0  0  0
 60 66  1  0  0  0  0
 61 66  1  0  0  0  0
 62 77  1  0  0  0  0
 63 76  1  0  0  0  0
 64 66  1  0  0  0  0
 64 75  1  0  0  0  0
 65 77  1  0  0  0  0
 67 68  1  0  0  0  0
M  CHG  2  76   1  77   1
M  ISO  4  40 100  55 101  73 100  84 101
M  END
> <Batch ID>
0035

> <Smiles>
CC=C1C[101CH:1]([101O:1]c2ccc3c(c2)CN(C(=O)C(NC(=O)C(C)NC)C(C)(C)C)C(C(=O)NC2CCCc4ccccc42)C3)CN1Cc1cc(Cl)cc([100NH:0][100C:0](=O)N2CCCC(n3nc(-c4ccc(Oc5ccc(F)cc5F)cc4)c(C(N)=O)c3N)C2)c1C

> <Shape>
0.314

> <Color>
0.090

> <Negative vol penalty>
0.000

$$$$

  -OEChem-04042321513D

 88 97  0     1  0  0  0  0  0999 V2000
  -28.3617  -24.0975   26.9492 C   0  0  0  0  0  0  0  0  0  0  0  0
  -27.1797  -23.3905   26.7595 C   0  0  0  0  0  0  0  0  0  0  0  0
  -28.4402  -25.0407   19.8659 C   0  0  0  0  0  0  0  0  0  0  0  0
  -29.6922  -26.7709   18.7364 C   0  0  0  0  0  0  0  0  0  0  0  0
  -29.3932  -23.9857   26.0193 C   0  0  0  0  0  0  0  0  0  0  0  0
  -27.0333  -22.5622   25.6462 C   0  0  0  0  0  0  0  0  0  0  0  0
  -22.9905  -19.7652   25.4576 C   0  0  0  0  0  0  0  0  0  0  0  0
  -18.4260  -26.3526   22.5697 C   0  0  0  0  0  0  0  0  0  0  0  0
  -28.9270  -24.0976   18.9608 C   0  0  0  0  0  0  0  0  0  0  0  0
  -30.1791  -25.8278   17.8313 C   0  0  0  0  0  0  0  0  0  0  0  0
  -21.7226  -20.2890   25.2091 C   0  0  0  0  0  0  0  0  0  0  0  0
  -31.7793  -22.3462   18.4812 C   0  0  0  0  0  0  0  0  0  0  0  0
  -32.2368  -21.1321   18.9933 C   0  0  0  0  0  0  0  0  0  0  0  0
  -18.4674  -27.6198   23.1510 C   0  0  0  0  0  0  0  0  0  0  0  0
  -21.8321  -19.4639   22.9449 C   0  0  0  0  0  0  0  0  0  0  0  0
  -30.5849  -19.9556   17.6802 C   0  0  0  0  0  0  0  0  0  0  0  0
  -28.8227  -26.3774   19.7536 C   0  0  0  0  0  0  0  0  0  0  0  0
  -28.8988  -27.7333   21.9131 C   0  0  0  0  0  0  0  0  0  0  0  0
  -29.2538  -23.1651   24.8878 C   0  0  0  0  0  0  0  0  0  0  0  0
  -23.6945  -19.0952   24.4466 C   0  0  0  0  0  0  0  0  0  0  0  0
  -28.0721  -22.4175   24.7088 C   0  0  0  0  0  0  0  0  0  0  0  0
  -23.1077  -18.9304   23.1838 C   0  0  0  0  0  0  0  0  0  0  0  0
  -19.5393  -25.8615   21.8876 C   0  0  0  0  0  0  0  0  0  0  0  0
  -20.6938  -26.6377   21.7868 C   0  0  0  0  0  0  0  0  0  0  0  0
  -20.7352  -27.9050   22.3682 C   0  0  0  0  0  0  0  0  0  0  0  0
  -29.7965  -24.4911   17.9436 C   0  0  0  0  0  0  0  0  0  0  0  0
  -21.1443  -20.1409   23.9518 C   0  0  0  0  0  0  0  0  0  0  0  0
  -30.7245  -22.3650   17.5686 C   0  0  0  0  0  0  0  0  0  0  0  0
  -31.6396  -19.9368   18.5929 C   0  0  0  0  0  0  0  0  0  0  0  0
  -30.1273  -21.1697   17.1681 C   0  0  0  0  0  0  0  0  0  0  0  0
  -19.6219  -28.3960   23.0503 C   0  0  0  0  0  0  0  0  0  0  0  0
  -28.3197  -27.3522   20.6879 C   0  0  0  0  0  0  0  0  0  0  0  0
  -28.0433  -28.6824   22.4168 C   0  0  0  0  0  0  0  0  0  0  0  0
  -18.1750  -22.4415   21.1993 C   0  0  0  0  0  0  0  0  0  0  0  0
  -17.2596  -22.5813   20.2340 C   0  0  0  0  0  0  0  0  0  0  0  0
  -30.1026  -27.2708   22.5399 C   0  0  0  0  0  0  0  0  0  0  0  0
  -26.4458  -19.5795   22.9301 C   0  0  0  0  0  0  0  0  0  0  0  0
  -25.7811  -16.6896   21.6152 C   0  0  0  0  0  0  0  0  0  0  0  0
  -23.4326  -14.3614   20.7720 C   0  0  0  0  0  0  0  0  0  0  0  0
  -22.1267  -29.5878   21.1737 C   0  0  0  0  0  0  0  0  0  0  0  0
  -30.4049  -23.0748   23.9173 C   0  0  0  0  0  0  0  0  0  0  0  0
  -25.0502  -18.5127   24.7385 C   0  0  0  0  0  0  0  0  0  0  0  0
  -23.8134  -18.2017   22.0705 C   0  0  0  0  0  0  0  0  0  0  0  0
  -18.8194  -21.1560   21.6119 C   0  0  0  0  0  0  0  0  0  0  0  0
  -29.9920  -22.5285   22.5544 C   0  0  0  0  0  0  0  0  0  0  0  0
  -24.9032  -32.0138   21.0478 C   0  0  0  0  0  0  0  0  0  0  0  0
  -29.1812  -21.2531   22.7297 C   0  0  0  0  0  0  0  0  0  0  0  0
  -26.1373  -31.1158   20.9806 C   0  0  0  0  0  0  0  0  0  0  0  0
  -23.6861  -31.3535   20.4071 C   0  0  0  0  0  0  0  0  0  0  0  0
  -24.6059  -29.1075   20.8966 C   0  0  0  0  0  0  0  0  0  0  0  0
  -19.2037  -22.9140   23.2169 C   0  0  0  0  0  0  0  0  0  0  0  0
  -27.8786  -21.5342   23.4895 C   0  0  1  0  0  0  0  0  0  0  0  0
  -25.8909  -18.2976   23.4838 C   0  0  1  0  0  0  0  0  0  0  0  0
  -25.8384  -29.7274   21.5723 C   0  0  1  0  0  0  0  0  0  0  0  0
  -19.8020  -21.6212   22.6789 C   0  0  1  0  0  0  0  0  0  1  0  0
  -21.8847  -26.1020   21.0546 C   0  0  0  0  0  0  0  0  0  0  0  0
  -16.6411  -23.8840   19.8535 C   0  0  0  0  0  0  0  0  0  0  0  0
  -23.1882  -12.1178   19.6749 C   0  0  0  0  0  0  0  0  0  0  0  0
  -26.1464  -17.9903   18.8794 C   0  0  0  0  0  0  0  0  0  0  0  0
  -24.9862  -16.0177   17.8640 C   0  0  0  0  0  0  0  0  0  0  0  0
  -27.1371  -15.7035   19.0879 C   0  0  0  0  0  0  0  0  0  0  0  0
  -22.8462  -28.7598   23.4023 C   0  0  0  0  0  0  0  0  0  0  0  0
  -22.3253  -13.1487   23.2342 C   0  0  0  0  0  0  0  0  0  0  0  0
  -19.4673  -24.4956   21.2711 C   0  0  0  0  0  0  0  0  0  0  0  0
  -25.0329  -16.2184   20.3916 C   0  0  1  0  0  0  0  0  0  0  0  0
  -23.3798  -12.8598   20.9885 C   0  0  2  0  0  0  0  0  0  0  0  0
  -25.8129  -16.4979   19.0759 C   0  0  0  0  0  0  0  0  0  0  0  0
  -27.1840  -28.0057   20.4290 N   0  0  0  0  0  0  0  0  0  0  0  0
  -27.0425  -28.8070   21.4986 N   0  0  0  0  0  0  0  0  0  0  0  0
  -25.1395  -17.6556   22.4033 N   0  0  0  0  0  0  0  0  0  0  0  0
  -23.4512  -30.0170   20.9550 N   0  0  0  0  0  0  0  0  0  0  0  0
  -28.0568  -29.4141   23.5512 N   0  0  0  0  0  0  0  0  0  0  0  0
  -30.8631  -26.2922   21.8855 N   0  0  0  0  0  0  0  0  0  0  0  0
  -27.2428  -20.2772   23.8175 N   0  0  0  0  0  0  0  0  0  0  0  0
  -24.7273  -14.8099   20.6172 N   0  0  0  0  0  0  0  0  0  0  0  0
  -21.9347  -28.7006   22.2549 N   0  0  0  0  0  0  0  0  0  0  0  0
  -18.5535  -23.5625   22.0128 N   0  3  1  0  0  0  0  0  0  0  0  0
  -22.2521  -12.5067   21.8965 N   0  3  0  0  0  0  0  0  0  0  0  0
  -30.4836  -27.7003   23.6551 O   0  0  0  0  0  0  0  0  0  0  0  0
  -26.1723  -19.9103   21.7823 O   0  0  0  0  0  0  0  0  0  0  0  0
  -26.8906  -16.2127   21.8665 O   0  0  0  0  0  0  0  0  0  0  0  0
  -22.4258  -15.0655   20.7395 O   0  0  0  0  0  0  0  0  0  0  0  0
  -21.1873  -29.9895   20.4768 O   0  0  0  0  0  0  0  0  0  0  0  0
  -30.2719  -23.5711   17.0604 O   0  0  0  0  0  0  0  0  0  0  0  0
  -19.9071  -20.6517   23.7064 O   0  0  0  0  0  0  0  0  0  1  0  0
  -32.0801  -18.7710   19.0836 F   0  0  0  0  0  0  0  0  0  0  0  0
  -29.1144  -21.1814   16.2907 F   0  0  0  0  0  0  0  0  0  0  0  0
  -19.6274  -29.9576   23.7906 Cl  0  0  0  0  0  0  0  0  0  0  0  0
  1  2  1  0  0  0  0
  1  5  2  0  0  0  0
  2  6  2  0  0  0  0
  3  9  2  0  0  0  0
  3 17  1  0  0  0  0
  4 10  1  0  0  0  0
  4 17  2  0  0  0  0
  5 19  1  0  0  0  0
  6 21  1  0  0  0  0
  7 11  2  0  0  0  0
  7 20  1  0  0  0  0
  8 14  2  0  0  0  0
  8 23  1  0  0  0  0
  9 26  1  0  0  0  0
 10 26  2  0  0  0  0
 11 27  1  0  0  0  0
 12 13  2  0  0  0  0
 12 28  1  0  0  0  0
 13 29  1  0  0  0  0
 14 31  1  0  0  0  0
 15 22  1  0  0  0  0
 15 27  2  0  0  0  0
 16 29  2  0  0  0  0
 16 30  1  0  0  0  0
 17 32  1  0  0  0  0
 18 32  1  0  0  0  0
 18 33  2  0  0  0  0
 18 36  1  0  0  0  0
 19 21  2  0  0  0  0
 19 41  1  0  0  0  0
 20 22  2  0  0  0  0
 20 42  1  0  0  0  0
 21 52  1  0  0  0  0
 22 43  1  0  0  0  0
 23 24  2  0  0  0  0
 23 64  1  0  0  0  0
 24 25  1  0  0  0  0
 24 56  1  0  0  0  0
 25 31  2  0  0  0  0
 25 76  1  0  0  0  0
 26 84  1  0  0  0  0
 27 85  1  0  0  0  0
 28 30  2  0  0  0  0
 28 84  1  0  0  0  0
 29 86  1  0  0  0  0
 30 87  1  0  0  0  0
 31 88  1  0  0  0  0
 32 68  2  0  0  0  0
 33 69  1  0  0  0  0
 33 72  1  0  0  0  0
 34 35  2  0  0  0  0
 34 44  1  0  0  0  0
 34 77  1  0  0  0  0
 35 57  1  0  0  0  0
 36 73  1  0  0  0  0
 36 79  2  0  0  0  0
 37 53  1  0  0  0  0
 37 74  1  0  0  0  0
 37 80  2  0  0  0  0
 38 65  1  0  0  0  0
 38 70  1  0  0  0  0
 38 81  2  0  0  0  0
 39 66  1  0  0  0  0
 39 75  1  0  0  0  0
 39 82  2  0  0  0  0
 40 71  1  0  0  0  0
 40 76  1  0  0  0  0
 40 83  2  0  0  0  0
 41 45  1  0  0  0  0
 42 53  1  0  0  0  0
 43 70  1  0  0  0  0
 44 55  1  0  0  0  0
 45 47  1  0  0  0  0
 46 48  1  0  0  0  0
 46 49  1  0  0  0  0
 47 52  1  0  0  0  0
 48 54  1  0  0  0  0
 49 71  1  0  0  0  0
 50 54  1  0  0  0  0
 50 71  1  0  0  0  0
 51 55  1  0  0  0  0
 51 77  1  0  0  0  0
 52 74  1  0  0  0  0
 53 70  1  0  0  0  0
 54 69  1  0  0  0  0
 55 85  1  0  0  0  0
 58 66  1  0  0  0  0
 59 67  1  0  0  0  0
 60 67  1  0  0  0  0
 61 67  1  0  0  0  0
 62 76  1  0  0  0  0
 63 78  1  0  0  0  0
 64 77  1  0  0  0  0
 65 67  1  0  0  0  0
 65 75  1  0  0  0  0
 66 78  1  0  0  0  0
 68 69  1  0  0  0  0
M  CHG  2  77   1  78   1
M  ISO  4  40 100  55 101  76 100  85 101
M  END
> <Batch ID>
0035

> <Smiles>
CC=C1C[101CH:1]([101O:1]c2ccc3c(c2)CN(C(=O)C(NC(=O)C(C)NC)C(C)(C)C)C(C(=O)NC2CCCc4ccccc42)C3)CN1Cc1ccc(Cl)c([100N:0](C)[100C:0](=O)N2CCCC(n3nc(-c4ccc(Oc5ccc(F)cc5F)cc4)c(C(N)=O)c3N)C2)c1C

> <Shape>
0.210

> <Color>
0.071

> <Negative vol penalty>
0.000

$$$$

  -OEChem-04042321513D

 83 91  0     1  0  0  0  0  0999 V2000
  -27.3630  -22.8303   18.9214 C   0  0  0  0  0  0  0  0  0  0  0  0
  -26.1738  -23.3812   19.3880 C   0  0  0  0  0  0  0  0  0  0  0  0
  -26.1684  -14.6908   20.8950 C   0  0  0  0  0  0  0  0  0  0  0  0
  -24.0202  -14.3683   19.8376 C   0  0  0  0  0  0  0  0  0  0  0  0
  -28.5805  -23.2458   19.4589 C   0  0  0  0  0  0  0  0  0  0  0  0
  -26.2014  -24.3472   20.3933 C   0  0  0  0  0  0  0  0  0  0  0  0
  -23.1247  -28.2504   19.4216 C   0  0  0  0  0  0  0  0  0  0  0  0
  -17.6640  -23.6320   20.0231 C   0  0  0  0  0  0  0  0  0  0  0  0
  -17.9385  -22.3824   19.4677 C   0  0  0  0  0  0  0  0  0  0  0  0
  -26.3649  -13.3101   20.9171 C   0  0  0  0  0  0  0  0  0  0  0  0
  -24.2167  -12.9875   19.8596 C   0  0  0  0  0  0  0  0  0  0  0  0
  -21.7628  -28.0603   19.6517 C   0  0  0  0  0  0  0  0  0  0  0  0
  -23.9929   -9.3613   19.9633 C   0  0  0  0  0  0  0  0  0  0  0  0
  -22.9269   -8.5613   20.3745 C   0  0  0  0  0  0  0  0  0  0  0  0
  -21.9628  -29.2201   21.7574 C   0  0  0  0  0  0  0  0  0  0  0  0
  -17.7863  -22.6745   22.2379 C   0  0  0  0  0  0  0  0  0  0  0  0
  -22.9205   -9.6724   22.5199 C   0  0  0  0  0  0  0  0  0  0  0  0
  -24.9960  -15.2199   20.3553 C   0  0  0  0  0  0  0  0  0  0  0  0
  -25.1606  -17.5415   19.3108 C   0  0  0  0  0  0  0  0  0  0  0  0
  -28.6236  -24.2244   20.4644 C   0  0  0  0  0  0  0  0  0  0  0  0
  -23.9194  -28.9184   20.3643 C   0  0  0  0  0  0  0  0  0  0  0  0
  -27.4205  -24.7753   20.9456 C   0  0  0  0  0  0  0  0  0  0  0  0
  -23.3340  -29.4197   21.5357 C   0  0  0  0  0  0  0  0  0  0  0  0
  -17.5880  -23.7781   21.4083 C   0  0  0  0  0  0  0  0  0  0  0  0
  -18.1368  -21.2787   20.2973 C   0  0  0  0  0  0  0  0  0  0  0  0
  -18.0607  -21.4248   21.6824 C   0  0  0  0  0  0  0  0  0  0  0  0
  -25.3891  -12.4584   20.3993 C   0  0  0  0  0  0  0  0  0  0  0  0
  -21.1822  -28.5426   20.8210 C   0  0  0  0  0  0  0  0  0  0  0  0
  -24.5228  -10.3169   20.8304 C   0  0  0  0  0  0  0  0  0  0  0  0
  -22.3907   -8.7168   21.6528 C   0  0  0  0  0  0  0  0  0  0  0  0
  -23.9865  -10.4725   22.1087 C   0  0  0  0  0  0  0  0  0  0  0  0
  -24.7922  -16.6461   20.3328 C   0  0  0  0  0  0  0  0  0  0  0  0
  -24.7507  -18.7705   19.7668 C   0  0  0  0  0  0  0  0  0  0  0  0
  -25.8148  -17.2851   18.0610 C   0  0  0  0  0  0  0  0  0  0  0  0
  -26.4296  -28.1263   22.1462 C   0  0  0  0  0  0  0  0  0  0  0  0
  -26.3752  -31.2737   22.9294 C   0  0  0  0  0  0  0  0  0  0  0  0
  -24.5744  -34.1593   23.2077 C   0  0  0  0  0  0  0  0  0  0  0  0
  -20.5101  -20.4781   23.6337 C   0  0  0  0  0  0  0  0  0  0  0  0
  -29.9607  -24.6074   21.0478 C   0  0  0  0  0  0  0  0  0  0  0  0
  -25.3816  -29.1388   20.0889 C   0  0  0  0  0  0  0  0  0  0  0  0
  -24.1393  -30.1614   22.5700 C   0  0  0  0  0  0  0  0  0  0  0  0
  -29.9265  -25.9073   21.8474 C   0  0  0  0  0  0  0  0  0  0  0  0
  -23.9919  -21.1986   23.8189 C   0  0  0  0  0  0  0  0  0  0  0  0
  -28.7307  -25.9202   22.7944 C   0  0  0  0  0  0  0  0  0  0  0  0
  -24.6251  -20.1943   22.8543 C   0  0  0  0  0  0  0  0  0  0  0  0
  -22.8034  -20.5940   24.5631 C   0  0  0  0  0  0  0  0  0  0  0  0
  -22.4022  -18.9933   22.7327 C   0  0  0  0  0  0  0  0  0  0  0  0
  -27.4109  -25.8435   22.0175 C   0  0  1  0  0  0  0  0  0  0  0  0
  -26.1979  -29.3822   21.3545 C   0  0  1  0  0  0  0  0  0  0  0  0
  -23.5703  -19.5746   21.9180 C   0  0  2  0  0  0  0  0  0  0  0  0
  -18.4282  -19.9505   19.6796 C   0  0  0  0  0  0  0  0  0  0  0  0
  -24.7936  -36.5579   23.9117 C   0  0  0  0  0  0  0  0  0  0  0  0
  -26.3303  -30.4159   25.8572 C   0  0  0  0  0  0  0  0  0  0  0  0
  -25.6005  -32.7355   26.4533 C   0  0  0  0  0  0  0  0  0  0  0  0
  -27.8145  -32.3675   25.3646 C   0  0  0  0  0  0  0  0  0  0  0  0
  -23.8661  -35.1379   20.5060 C   0  0  0  0  0  0  0  0  0  0  0  0
  -18.2691  -20.2573   22.5904 C   0  0  0  0  0  0  0  0  0  0  0  0
  -17.2923  -25.1223   22.0055 C   0  0  0  0  0  0  0  0  0  0  0  0
  -18.1744  -27.4093   22.4851 C   0  0  0  0  0  0  0  0  0  0  0  0
  -19.4365  -28.2456   22.4086 C   0  0  0  0  0  0  0  0  0  1  0  0
  -25.7027  -32.0972   24.0011 C   0  0  1  0  0  0  0  0  0  0  0  0
  -24.8672  -35.5773   22.7517 C   0  0  2  0  0  0  0  0  0  0  0  0
  -26.3469  -31.8884   25.4006 C   0  0  0  0  0  0  0  0  0  0  0  0
  -24.1944  -17.2546   21.3606 N   0  0  0  0  0  0  0  0  0  0  0  0
  -24.1841  -18.5454   20.9868 N   0  0  0  0  0  0  0  0  0  0  0  0
  -25.5662  -30.3460   22.2579 N   0  0  0  0  0  0  0  0  0  0  0  0
  -21.8396  -20.0251   23.6180 N   0  0  0  0  0  0  0  0  0  0  0  0
  -24.8234  -20.0110   19.2393 N   0  0  0  0  0  0  0  0  0  0  0  0
  -26.1671  -15.9648   17.7498 N   0  0  0  0  0  0  0  0  0  0  0  0
  -27.0855  -27.1323   21.4453 N   0  0  0  0  0  0  0  0  0  0  0  0
  -25.7288  -33.4782   23.5313 N   0  0  0  0  0  0  0  0  0  0  0  0
  -19.6636  -19.8913   22.7010 N   0  0  0  0  0  0  0  0  0  0  0  0
  -23.8844  -36.0013   21.7148 N   0  3  0  0  0  0  0  0  0  0  0  0
  -18.4539  -26.0508   21.9556 N   0  3  0  0  0  0  0  0  0  0  0  0
  -26.0939  -18.2020   17.2518 O   0  0  0  0  0  0  0  0  0  0  0  0
  -26.0433  -28.0642   23.3075 O   0  0  0  0  0  0  0  0  0  0  0  0
  -27.5724  -31.4521   22.6917 O   0  0  0  0  0  0  0  0  0  0  0  0
  -23.4352  -33.7027   23.2740 O   0  0  0  0  0  0  0  0  0  0  0  0
  -20.1086  -21.3454   24.4170 O   0  0  0  0  0  0  0  0  0  0  0  0
  -25.5806  -11.1110   20.4204 O   0  0  0  0  0  0  0  0  0  0  0  0
  -19.8533  -28.3579   21.0484 O   0  0  0  0  0  0  0  0  0  1  0  0
  -21.3660   -7.9495   22.0470 F   0  0  0  0  0  0  0  0  0  0  0  0
  -24.4906  -11.3896   22.9457 F   0  0  0  0  0  0  0  0  0  0  0  0
  1  2  1  0  0  0  0
  1  5  2  0  0  0  0
  2  6  2  0  0  0  0
  3 10  2  0  0  0  0
  3 18  1  0  0  0  0
  4 11  1  0  0  0  0
  4 18  2  0  0  0  0
  5 20  1  0  0  0  0
  6 22  1  0  0  0  0
  7 12  2  0  0  0  0
  7 21  1  0  0  0  0
  8  9  2  0  0  0  0
  8 24  1  0  0  0  0
  9 25  1  0  0  0  0
 10 27  1  0  0  0  0
 11 27  2  0  0  0  0
 12 28  1  0  0  0  0
 13 14  2  0  0  0  0
 13 29  1  0  0  0  0
 14 30  1  0  0  0  0
 15 23  1  0  0  0  0
 15 28  2  0  0  0  0
 16 24  2  0  0  0  0
 16 26  1  0  0  0  0
 17 30  2  0  0  0  0
 17 31  1  0  0  0  0
 18 32  1  0  0  0  0
 19 32  1  0  0  0  0
 19 33  2  0  0  0  0
 19 34  1  0  0  0  0
 20 22  2  0  0  0  0
 20 39  1  0  0  0  0
 21 23  2  0  0  0  0
 21 40  1  0  0  0  0
 22 48  1  0  0  0  0
 23 41  1  0  0  0  0
 24 58  1  0  0  0  0
 25 26  2  0  0  0  0
 25 51  1  0  0  0  0
 26 57  1  0  0  0  0
 27 80  1  0  0  0  0
 28 81  1  0  0  0  0
 29 31  2  0  0  0  0
 29 80  1  0  0  0  0
 30 82  1  0  0  0  0
 31 83  1  0  0  0  0
 32 64  2  0  0  0  0
 33 65  1  0  0  0  0
 33 68  1  0  0  0  0
 34 69  1  0  0  0  0
 34 75  2  0  0  0  0
 35 49  1  0  0  0  0
 35 70  1  0  0  0  0
 35 76  2  0  0  0  0
 36 61  1  0  0  0  0
 36 66  1  0  0  0  0
 36 77  2  0  0  0  0
 37 62  1  0  0  0  0
 37 71  1  0  0  0  0
 37 78  2  0  0  0  0
 38 67  1  0  0  0  0
 38 72  1  0  0  0  0
 38 79  2  0  0  0  0
 39 42  1  0  0  0  0
 40 49  1  0  0  0  0
 41 66  1  0  0  0  0
 42 44  1  0  0  0  0
 43 45  1  0  0  0  0
 43 46  1  0  0  0  0
 44 48  1  0  0  0  0
 45 50  1  0  0  0  0
 46 67  1  0  0  0  0
 47 50  1  0  0  0  0
 47 67  1  0  0  0  0
 48 70  1  0  0  0  0
 49 66  1  0  0  0  0
 50 65  1  0  0  0  0
 52 62  1  0  0  0  0
 53 63  1  0  0  0  0
 54 63  1  0  0  0  0
 55 63  1  0  0  0  0
 56 73  1  0  0  0  0
 57 72  1  0  0  0  0
 58 74  1  0  0  0  0
 59 60  1  0  0  0  0
 59 74  1  0  0  0  0
 60 81  1  0  0  0  0
 61 63  1  0  0  0  0
 61 71  1  0  0  0  0
 62 73  1  0  0  0  0
 64 65  1  0  0  0  0
M  CHG  2  73   1  74   1
M  ISO  4  38 100  60 101  72 100  81 101
M  END
> <Batch ID>
0035

> <Smiles>
CNC(C)C(=O)NC(C(=O)N1Cc2cc([101O:1][101CH2:1]CNCc3ccc(C)c(C[100NH:0][100C:0](=O)N4CCCC(n5nc(-c6ccc(Oc7ccc(F)cc7F)cc6)c(C(N)=O)c5N)C4)c3)ccc2CC1C(=O)NC1CCCc2ccccc21)C(C)(C)C

> <Shape>
0.237

> <Color>
0.070

> <Negative vol penalty>
0.000

$$$$
